L3:P56528:16609
     RDKit          3D

 48 50  0  0  0  0  0  0  0  0999 V2000
    1.7817    8.5678   -0.6547 C   0  0  0  0  0  0  0  0  0  0  0  0
    1.0154    9.5129   -0.5182 O   0  0  0  0  0  0  0  0  0  0  0  0
    2.2048    7.7493    0.3731 N   0  0  0  0  0  0  0  0  0  0  0  0
    2.7611    6.9500    0.0832 H   0  0  0  0  0  0  0  0  0  0  0  0
    4.5236    5.6647   -3.6340 C   0  0  0  0  0  0  0  0  0  0  0  0
    3.6219    6.8357   -3.3831 C   0  0  0  0  0  0  0  0  0  0  0  0
    3.1539    7.0933   -2.1143 C   0  0  0  0  0  0  0  0  0  0  0  0
    2.3331    8.1931   -1.9954 C   0  0  0  0  0  0  0  0  0  0  0  0
    1.9789    9.0031   -3.0223 N   0  0  0  0  0  0  0  0  0  0  0  0
    2.4913    8.6628   -4.2117 C   0  0  0  0  0  0  0  0  0  0  0  0
    3.3000    7.6106   -4.4405 N   0  0  0  0  0  0  0  0  0  0  0  0
    2.1434    9.5092   -5.3312 C   0  0  0  0  0  0  0  0  0  0  0  0
    2.9759   10.1769   -6.2541 C   0  0  0  0  0  0  0  0  0  0  0  0
    2.2881   10.8707   -7.1653 N   0  0  0  0  0  0  0  0  0  0  0  0
    1.0063   10.6484   -6.8255 N   0  0  0  0  0  0  0  0  0  0  0  0
    0.8662    9.8407   -5.7352 C   0  0  0  0  0  0  0  0  0  0  0  0
    0.2777   11.0811   -7.3846 H   0  0  0  0  0  0  0  0  0  0  0  0
    1.6565    7.8203    1.7191 C   0  0  1  0  0  0  0  0  0  0  0  0
    1.5101    6.4213    2.3413 C   0  0  0  0  0  0  0  0  0  0  0  0
    2.6681    6.0209    3.2639 C   0  0  0  0  0  0  0  0  0  0  0  0
    4.0023    6.6333    2.8226 C   0  0  1  0  0  0  0  0  0  0  0  0
    3.9230    8.1700    2.8575 C   0  0  0  0  0  0  0  0  0  0  0  0
    2.5177    8.7290    2.5958 C   0  0  0  0  0  0  0  0  0  0  0  0
    5.0606    6.0941    3.6775 N   0  0  0  0  0  0  0  0  0  0  0  0
    5.5000    6.8340    4.2302 H   0  0  0  0  0  0  0  0  0  0  0  0
    6.1030    5.3177    2.9824 C   0  0  0  0  0  0  0  0  0  0  0  0
    5.7399    3.8926    2.5433 C   0  0  0  0  0  0  0  0  0  0  0  0
    4.7659    3.3983    3.3527 F   0  0  0  0  0  0  0  0  0  0  0  0
    5.2244    3.9180    1.2883 F   0  0  0  0  0  0  0  0  0  0  0  0
    4.6942    5.1427   -2.7157 H   0  0  0  0  0  0  0  0  0  0  0  0
    5.4570    6.0109   -4.0262 H   0  0  0  0  0  0  0  0  0  0  0  0
    4.0632    5.0047   -4.3392 H   0  0  0  0  0  0  0  0  0  0  0  0
    3.4016    6.5016   -1.3058 H   0  0  0  0  0  0  0  0  0  0  0  0
    4.0067   10.1339   -6.2280 H   0  0  0  0  0  0  0  0  0  0  0  0
   -0.0188    9.5378   -5.2992 H   0  0  0  0  0  0  0  0  0  0  0  0
    0.6753    8.2427    1.6574 H   0  0  0  0  0  0  0  0  0  0  0  0
    1.4497    5.7056    1.5482 H   0  0  0  0  0  0  0  0  0  0  0  0
    0.6278    6.4439    2.9463 H   0  0  0  0  0  0  0  0  0  0  0  0
    2.7601    4.9549    3.2578 H   0  0  0  0  0  0  0  0  0  0  0  0
    2.4476    6.3886    4.2442 H   0  0  0  0  0  0  0  0  0  0  0  0
    4.2273    6.3724    1.8096 H   0  0  0  0  0  0  0  0  0  0  0  0
    4.5838    8.5580    2.1107 H   0  0  0  0  0  0  0  0  0  0  0  0
    4.1967    8.4716    3.8470 H   0  0  0  0  0  0  0  0  0  0  0  0
    2.6150    9.6769    2.1090 H   0  0  0  0  0  0  0  0  0  0  0  0
    2.0282    8.8095    3.5439 H   0  0  0  0  0  0  0  0  0  0  0  0
    6.9444    5.2476    3.6397 H   0  0  0  0  0  0  0  0  0  0  0  0
    6.2823    5.8499    2.0716 H   0  0  0  0  0  0  0  0  0  0  0  0
    6.6244    3.2921    2.5879 H   0  0  0  0  0  0  0  0  0  0  0  0
  1  2  2  0
  1  3  1  0
  3 18  1  0
  3  4  1  0
  5  6  1  0
  5 30  1  0
  5 31  1  0
  5 32  1  0
  6  7  2  0
  7  8  1  0
  7 33  1  0
  8  1  1  0
  8  9  2  0
  9 10  1  0
 10 12  1  0
 10 11  2  0
 11  6  1  0
 12 13  1  0
 13 14  2  0
 13 34  1  0
 14 15  1  0
 15 16  1  0
 15 17  1  0
 16 12  2  0
 16 35  1  0
 18 19  1  0
 18 36  1  6
 19 20  1  0
 19 37  1  0
 19 38  1  0
 20 21  1  0
 20 39  1  0
 20 40  1  0
 21 24  1  0
 21 22  1  0
 21 41  1  6
 22 23  1  0
 22 42  1  0
 22 43  1  0
 23 18  1  0
 23 44  1  0
 23 45  1  0
 24 26  1  0
 24 25  1  0
 26 27  1  0
 26 46  1  0
 26 47  1  0
 27 28  1  0
 27 29  1  0
 27 48  1  0
M  END
>  <minimizedAffinity>  (1) 
-6.50108

>  <mol_id>  (1) 
16609

>  <source_index>  (1) 
0

>  <layer>  (1) 
L3

>  <uniprot>  (1) 
P56528

>  <paff>  (1) 
6

>  <smiles>  (1) 
Cc1cc(C(=O)N[C@H]2CC[C@H](NCC(F)F)CC2)nc(-c2cn[nH]c2)n1

$$$$
L3:P56528:20833
     RDKit          3D

 39 41  0  0  0  0  0  0  0  0999 V2000
    1.1234    9.1591   -0.0541 C   0  0  0  0  0  0  0  0  0  0  0  0
    1.8417    8.6330   -1.2613 C   0  0  0  0  0  0  0  0  0  0  0  0
    2.6458    7.4974   -1.1675 C   0  0  0  0  0  0  0  0  0  0  0  0
    3.3156    7.0680   -2.3041 C   0  0  0  0  0  0  0  0  0  0  0  0
    3.2417    7.6927   -3.5128 N   0  0  0  0  0  0  0  0  0  0  0  0
    2.4684    8.8057   -3.5854 C   0  0  0  0  0  0  0  0  0  0  0  0
    1.7636    9.3038   -2.4885 C   0  0  0  0  0  0  0  0  0  0  0  0
    2.4005    9.4675   -4.8432 N   0  0  0  0  0  0  0  0  0  0  0  0
    1.2926    9.8863   -5.5473 C   0  0  0  0  0  0  0  0  0  0  0  0
    1.7762   10.4704   -6.6955 C   0  0  0  0  0  0  0  0  0  0  0  0
    3.1409   10.4277   -6.7265 N   0  0  0  0  0  0  0  0  0  0  0  0
    3.4876    9.8229   -5.6112 C   0  0  0  0  0  0  0  0  0  0  0  0
    4.1780    5.8430   -2.2421 C   0  0  0  0  0  0  0  0  0  0  0  0
    4.3923    5.2599   -1.1855 O   0  0  0  0  0  0  0  0  0  0  0  0
    4.6767    5.4333   -3.4620 N   0  0  0  0  0  0  0  0  0  0  0  0
    4.2594    5.8861   -4.2713 H   0  0  0  0  0  0  0  0  0  0  0  0
    5.3298    4.1416   -3.6368 C   0  0  2  0  0  0  0  0  0  0  0  0
    6.8320    4.2831   -3.3478 C   0  0  0  0  0  0  0  0  0  0  0  0
    7.6417    3.3074   -4.1887 C   0  0  0  0  0  0  0  0  0  0  0  0
    7.3716    3.5148   -5.6793 C   0  0  0  0  0  0  0  0  0  0  0  0
    6.0737    4.0467   -5.9560 O   0  0  0  0  0  0  0  0  0  0  0  0
    5.0797    3.5681   -5.0463 C   0  0  0  0  0  0  0  0  0  0  0  0
    1.3048    8.5124    0.7788 H   0  0  0  0  0  0  0  0  0  0  0  0
    0.0728    9.1983   -0.2531 H   0  0  0  0  0  0  0  0  0  0  0  0
    1.4803   10.1419    0.1731 H   0  0  0  0  0  0  0  0  0  0  0  0
    2.7403    6.9889   -0.2745 H   0  0  0  0  0  0  0  0  0  0  0  0
    1.1909   10.1574   -2.5806 H   0  0  0  0  0  0  0  0  0  0  0  0
    0.3038    9.7831   -5.2705 H   0  0  0  0  0  0  0  0  0  0  0  0
    1.1867   10.8851   -7.4341 H   0  0  0  0  0  0  0  0  0  0  0  0
    4.4658    9.6353   -5.3412 H   0  0  0  0  0  0  0  0  0  0  0  0
    4.9080    3.4462   -2.9416 H   0  0  0  0  0  0  0  0  0  0  0  0
    7.0096    4.0835   -2.3117 H   0  0  0  0  0  0  0  0  0  0  0  0
    7.1348    5.2793   -3.5942 H   0  0  0  0  0  0  0  0  0  0  0  0
    7.3730    2.3071   -3.9201 H   0  0  0  0  0  0  0  0  0  0  0  0
    8.6815    3.4784   -4.0033 H   0  0  0  0  0  0  0  0  0  0  0  0
    7.4631    2.5707   -6.1745 H   0  0  0  0  0  0  0  0  0  0  0  0
    8.0858    4.2294   -6.0317 H   0  0  0  0  0  0  0  0  0  0  0  0
    5.1221    2.4997   -5.0061 H   0  0  0  0  0  0  0  0  0  0  0  0
    4.1147    3.8822   -5.3856 H   0  0  0  0  0  0  0  0  0  0  0  0
  1  2  1  0
  1 23  1  0
  1 24  1  0
  1 25  1  0
  2  3  2  0
  3  4  1  0
  3 26  1  0
  4 13  1  0
  4  5  2  0
  5  6  1  0
  6  8  1  0
  6  7  2  0
  7  2  1  0
  7 27  1  0
  8  9  1  0
  9 10  2  0
  9 28  1  0
 10 11  1  0
 10 29  1  0
 11 12  2  0
 12  8  1  0
 12 30  1  0
 13 14  2  0
 13 15  1  0
 15 17  1  0
 15 16  1  0
 17 18  1  0
 17 31  1  1
 18 19  1  0
 18 32  1  0
 18 33  1  0
 19 20  1  0
 19 34  1  0
 19 35  1  0
 20 21  1  0
 20 36  1  0
 20 37  1  0
 21 22  1  0
 22 17  1  0
 22 38  1  0
 22 39  1  0
M  END
>  <minimizedAffinity>  (2) 
-6.37199

>  <mol_id>  (2) 
20833

>  <source_index>  (2) 
1

>  <layer>  (2) 
L3

>  <uniprot>  (2) 
P56528

>  <paff>  (2) 
9

>  <smiles>  (2) 
Cc1cc(C(=O)N[C@@H]2CCCOC2)nc(-n2ccnc2)c1

$$$$
L3:P56528:36530
     RDKit          3D

 54 56  0  0  0  0  0  0  0  0999 V2000
    7.5663    2.9907   -1.2573 C   0  0  0  0  0  0  0  0  0  0  0  0
    7.3155    2.1784   -0.3753 O   0  0  0  0  0  0  0  0  0  0  0  0
    6.6948    3.9730   -1.6807 N   0  0  0  0  0  0  0  0  0  0  0  0
    7.0726    4.6528   -2.3337 H   0  0  0  0  0  0  0  0  0  0  0  0
   12.4573    3.9010   -1.3985 C   0  0  0  0  0  0  0  0  0  0  0  0
   11.1788    3.4205   -2.0168 C   0  0  0  0  0  0  0  0  0  0  0  0
   10.0052    3.4524   -1.3000 C   0  0  0  0  0  0  0  0  0  0  0  0
    8.8887    2.9883   -1.9605 C   0  0  0  0  0  0  0  0  0  0  0  0
    8.8893    2.5224   -3.2344 N   0  0  0  0  0  0  0  0  0  0  0  0
   10.0850    2.5304   -3.8491 C   0  0  0  0  0  0  0  0  0  0  0  0
   11.2334    2.9645   -3.2861 N   0  0  0  0  0  0  0  0  0  0  0  0
   10.1474    2.0511   -5.1831 N   0  0  0  0  0  0  0  0  0  0  0  0
   11.2098    2.1418   -6.0550 C   0  0  0  0  0  0  0  0  0  0  0  0
   10.7881    1.5384   -7.2159 C   0  0  0  0  0  0  0  0  0  0  0  0
    9.5040    1.0793   -7.0879 N   0  0  0  0  0  0  0  0  0  0  0  0
    9.1472    1.3991   -5.8622 C   0  0  0  0  0  0  0  0  0  0  0  0
    5.4267    4.2370   -1.0173 C   0  0  1  0  0  0  0  0  0  0  0  0
    5.6749    4.9644    0.3159 C   0  0  0  0  0  0  0  0  0  0  0  0
    4.4578    5.7775    0.7431 C   0  0  0  0  0  0  0  0  0  0  0  0
    4.1199    6.8974   -0.2605 C   0  0  1  0  0  0  0  0  0  0  0  0
    4.5784    6.5196   -1.6919 C   0  0  0  0  0  0  0  0  0  0  0  0
    4.4848    5.0183   -1.9475 C   0  0  0  0  0  0  0  0  0  0  0  0
    2.6749    7.1952   -0.2853 N   0  0  0  0  0  0  0  0  0  0  0  0
    2.3676    7.1238   -1.2588 H   0  0  0  0  0  0  0  0  0  0  0  0
    2.2403    8.5447    0.2224 C   0  0  0  0  0  0  0  0  0  0  0  0
    1.5354    8.2458    1.5691 C   0  0  0  0  0  0  0  0  0  0  0  0
    3.4741    9.4081    0.5424 C   0  0  0  0  0  0  0  0  0  0  0  0
    1.2425    9.3784   -0.6447 C   0  0  0  0  0  0  0  0  0  0  0  0
    0.9342    8.7427   -1.7992 F   0  0  0  0  0  0  0  0  0  0  0  0
    0.0785    9.6146    0.0021 F   0  0  0  0  0  0  0  0  0  0  0  0
    1.7743   10.5800   -0.9749 F   0  0  0  0  0  0  0  0  0  0  0  0
   12.2678    4.2312   -0.3985 H   0  0  0  0  0  0  0  0  0  0  0  0
   12.8487    4.7135   -1.9743 H   0  0  0  0  0  0  0  0  0  0  0  0
   13.1679    3.1012   -1.3814 H   0  0  0  0  0  0  0  0  0  0  0  0
    9.9637    3.8016   -0.3297 H   0  0  0  0  0  0  0  0  0  0  0  0
   12.1300    2.5727   -5.8745 H   0  0  0  0  0  0  0  0  0  0  0  0
   11.3616    1.4441   -8.0687 H   0  0  0  0  0  0  0  0  0  0  0  0
    8.2223    1.1847   -5.4578 H   0  0  0  0  0  0  0  0  0  0  0  0
    4.9404    3.3110   -0.7919 H   0  0  0  0  0  0  0  0  0  0  0  0
    6.5107    5.6228    0.2025 H   0  0  0  0  0  0  0  0  0  0  0  0
    5.8689    4.2292    1.0687 H   0  0  0  0  0  0  0  0  0  0  0  0
    4.6568    6.2192    1.6972 H   0  0  0  0  0  0  0  0  0  0  0  0
    3.6198    5.1136    0.7866 H   0  0  0  0  0  0  0  0  0  0  0  0
    4.6464    7.7692    0.0676 H   0  0  0  0  0  0  0  0  0  0  0  0
    5.5945    6.8289   -1.8215 H   0  0  0  0  0  0  0  0  0  0  0  0
    3.9306    7.0129   -2.3861 H   0  0  0  0  0  0  0  0  0  0  0  0
    4.7540    4.8197   -2.9639 H   0  0  0  0  0  0  0  0  0  0  0  0
    3.4804    4.7035   -1.7552 H   0  0  0  0  0  0  0  0  0  0  0  0
    2.1887    7.6739    2.1944 H   0  0  0  0  0  0  0  0  0  0  0  0
    0.6392    7.6903    1.3870 H   0  0  0  0  0  0  0  0  0  0  0  0
    1.2914    9.1668    2.0561 H   0  0  0  0  0  0  0  0  0  0  0  0
    4.1611    8.8422    1.1362 H   0  0  0  0  0  0  0  0  0  0  0  0
    3.1691   10.2796    1.0832 H   0  0  0  0  0  0  0  0  0  0  0  0
    3.9496    9.7026   -0.3698 H   0  0  0  0  0  0  0  0  0  0  0  0
  1  2  2  0
  1  3  1  0
  3 17  1  0
  3  4  1  0
  5  6  1  0
  5 32  1  0
  5 33  1  0
  5 34  1  0
  6  7  2  0
  7  8  1  0
  7 35  1  0
  8  1  1  0
  8  9  2  0
  9 10  1  0
 10 12  1  0
 10 11  2  0
 11  6  1  0
 12 13  1  0
 13 14  2  0
 13 36  1  0
 14 15  1  0
 14 37  1  0
 15 16  2  0
 16 12  1  0
 16 38  1  0
 17 18  1  0
 17 39  1  1
 18 19  1  0
 18 40  1  0
 18 41  1  0
 19 20  1  0
 19 42  1  0
 19 43  1  0
 20 23  1  0
 20 21  1  0
 20 44  1  1
 21 22  1  0
 21 45  1  0
 21 46  1  0
 22 17  1  0
 22 47  1  0
 22 48  1  0
 23 25  1  0
 23 24  1  0
 25 26  1  0
 25 27  1  0
 25 28  1  0
 26 49  1  0
 26 50  1  0
 26 51  1  0
 27 52  1  0
 27 53  1  0
 27 54  1  0
 28 29  1  0
 28 30  1  0
 28 31  1  0
M  END
>  <minimizedAffinity>  (3) 
-6.71224

>  <mol_id>  (3) 
36530

>  <source_index>  (3) 
2

>  <layer>  (3) 
L3

>  <uniprot>  (3) 
P56528

>  <paff>  (3) 
7.3978999999999999

>  <smiles>  (3) 
Cc1cc(C(=O)N[C@H]2CC[C@H](NC(C)(C)C(F)(F)F)CC2)nc(-n2ccnc2)n1

$$$$
L3:P56528:36737
     RDKit          3D

 46 48  0  0  0  0  0  0  0  0999 V2000
    2.4690    7.9499   -1.5070 C   0  0  0  0  0  0  0  0  0  0  0  0
    1.8879    8.6603   -2.5455 C   0  0  0  0  0  0  0  0  0  0  0  0
    2.2293    8.3171   -3.8563 C   0  0  0  0  0  0  0  0  0  0  0  0
    3.1366    7.2643   -4.0642 C   0  0  0  0  0  0  0  0  0  0  0  0
    3.6821    6.6042   -2.9629 C   0  0  0  0  0  0  0  0  0  0  0  0
    3.3604    6.9346   -1.6857 N   0  0  0  0  0  0  0  0  0  0  0  0
    4.6139    5.5417   -3.1428 N   0  0  0  0  0  0  0  0  0  0  0  0
    5.8342    5.6433   -3.7811 C   0  0  0  0  0  0  0  0  0  0  0  0
    6.3932    4.3894   -3.7306 C   0  0  0  0  0  0  0  0  0  0  0  0
    5.5637    3.5163   -3.0845 N   0  0  0  0  0  0  0  0  0  0  0  0
    4.5113    4.2293   -2.7417 C   0  0  0  0  0  0  0  0  0  0  0  0
    2.4127    7.2901    0.8223 N   0  0  0  0  0  0  0  0  0  0  0  0
    2.1265    8.2877   -0.0878 C   0  0  0  0  0  0  0  0  0  0  0  0
    1.6400    9.3723    0.2094 O   0  0  0  0  0  0  0  0  0  0  0  0
    2.9031    6.4809    0.4499 H   0  0  0  0  0  0  0  0  0  0  0  0
    3.2679    6.4561    4.8148 N   0  0  0  0  0  0  0  0  0  0  0  0
    2.8334    5.5129    3.7685 C   0  0  0  0  0  0  0  0  0  0  0  0
    1.7507    6.1710    2.9199 C   0  0  0  0  0  0  0  0  0  0  0  0
    2.2426    7.4659    2.2590 C   0  0  0  0  0  0  0  0  0  0  0  0
    3.5382    7.9923    2.8858 C   0  0  0  0  0  0  0  0  0  0  0  0
    3.5174    7.8547    4.4010 C   0  0  0  0  0  0  0  0  0  0  0  0
    4.0832    7.2612    7.2593 C   0  0  0  0  0  0  0  0  0  0  0  0
    4.0921    5.8564    6.1612 S   0  0  0  0  0  0  0  0  0  0  0  0
    5.4659    5.6075    5.7760 O   0  0  0  0  0  0  0  0  0  0  0  0
    3.2771    4.8185    6.7544 O   0  0  0  0  0  0  0  0  0  0  0  0
    1.6028    9.0485   -5.0181 C   0  0  0  0  0  0  0  0  0  0  0  0
    2.2712   10.1853   -5.3455 F   0  0  0  0  0  0  0  0  0  0  0  0
    0.3203    9.4184   -4.7601 F   0  0  0  0  0  0  0  0  0  0  0  0
    1.5579    8.2988   -6.1528 F   0  0  0  0  0  0  0  0  0  0  0  0
    1.2198    9.4236   -2.3555 H   0  0  0  0  0  0  0  0  0  0  0  0
    3.3968    6.9822   -5.0222 H   0  0  0  0  0  0  0  0  0  0  0  0
    6.2430    6.4888   -4.2089 H   0  0  0  0  0  0  0  0  0  0  0  0
    7.3133    4.1408   -4.1263 H   0  0  0  0  0  0  0  0  0  0  0  0
    3.7008    3.8471   -2.2299 H   0  0  0  0  0  0  0  0  0  0  0  0
    2.4421    4.6276    4.2246 H   0  0  0  0  0  0  0  0  0  0  0  0
    3.6668    5.2525    3.1500 H   0  0  0  0  0  0  0  0  0  0  0  0
    0.9133    6.3995    3.5455 H   0  0  0  0  0  0  0  0  0  0  0  0
    1.4797    5.4869    2.1430 H   0  0  0  0  0  0  0  0  0  0  0  0
    1.4837    8.2002    2.4319 H   0  0  0  0  0  0  0  0  0  0  0  0
    3.6534    9.0253    2.6315 H   0  0  0  0  0  0  0  0  0  0  0  0
    4.3550    7.4146    2.5063 H   0  0  0  0  0  0  0  0  0  0  0  0
    2.7425    8.4778    4.7962 H   0  0  0  0  0  0  0  0  0  0  0  0
    4.4738    8.1511    4.7783 H   0  0  0  0  0  0  0  0  0  0  0  0
    4.5860    7.0062    8.1688 H   0  0  0  0  0  0  0  0  0  0  0  0
    3.0726    7.5381    7.4760 H   0  0  0  0  0  0  0  0  0  0  0  0
    4.5857    8.0823    6.7921 H   0  0  0  0  0  0  0  0  0  0  0  0
  1  2  2  0
  2  3  1  0
  2 30  1  0
  3 26  1  0
  3  4  2  0
  4  5  1  0
  4 31  1  0
  5  7  1  0
  5  6  2  0
  6  1  1  0
  7  8  1  0
  8  9  2  0
  8 32  1  0
  9 10  1  0
  9 33  1  0
 10 11  2  0
 11  7  1  0
 11 34  1  0
 12 13  1  0
 12 15  1  0
 13 14  2  0
 13  1  1  0
 16 17  1  0
 17 18  1  0
 17 35  1  0
 17 36  1  0
 18 19  1  0
 18 37  1  0
 18 38  1  0
 19 12  1  0
 19 20  1  0
 19 39  1  0
 20 21  1  0
 20 40  1  0
 20 41  1  0
 21 16  1  0
 21 42  1  0
 21 43  1  0
 22 23  1  0
 22 44  1  0
 22 45  1  0
 22 46  1  0
 23 24  2  0
 23 25  2  0
 23 16  1  0
 26 27  1  0
 26 28  1  0
 26 29  1  0
M  END
>  <minimizedAffinity>  (4) 
-6.94269

>  <mol_id>  (4) 
36737

>  <source_index>  (4) 
3

>  <layer>  (4) 
L3

>  <uniprot>  (4) 
P56528

>  <paff>  (4) 
8.2596000000000007

>  <smiles>  (4) 
CS(=O)(=O)N1CCC(NC(=O)c2cc(C(F)(F)F)cc(-n3ccnc3)n2)CC1

$$$$
L3:P56528:39146
     RDKit          3D

 51 53  0  0  0  0  0  0  0  0999 V2000
    5.4190    7.0125   -0.9157 C   0  0  0  0  0  0  0  0  0  0  0  0
    6.4553    7.4834   -1.3690 O   0  0  0  0  0  0  0  0  0  0  0  0
    4.1595    7.2841   -1.4094 N   0  0  0  0  0  0  0  0  0  0  0  0
    3.4041    6.7287   -1.0146 H   0  0  0  0  0  0  0  0  0  0  0  0
    4.2480    5.7621    3.7586 C   0  0  0  0  0  0  0  0  0  0  0  0
    4.8870    5.4859    2.4311 C   0  0  0  0  0  0  0  0  0  0  0  0
    4.8166    6.4163    1.4194 C   0  0  0  0  0  0  0  0  0  0  0  0
    5.4373    6.0626    0.2410 C   0  0  0  0  0  0  0  0  0  0  0  0
    6.0887    4.8929    0.0394 N   0  0  0  0  0  0  0  0  0  0  0  0
    6.0934    4.0631    1.0881 C   0  0  0  0  0  0  0  0  0  0  0  0
    5.5221    4.3042    2.2795 N   0  0  0  0  0  0  0  0  0  0  0  0
    6.7775    2.7960    0.9010 C   0  0  0  0  0  0  0  0  0  0  0  0
    6.3227    1.5090    1.1407 C   0  0  0  0  0  0  0  0  0  0  0  0
    7.2681    0.5649    0.8409 N   0  0  0  0  0  0  0  0  0  0  0  0
    8.3028    1.2499    0.4173 C   0  0  0  0  0  0  0  0  0  0  0  0
    8.0605    2.5967    0.4328 N   0  0  0  0  0  0  0  0  0  0  0  0
    9.0178    3.5935    0.0163 C   0  0  0  0  0  0  0  0  0  0  0  0
    3.9414    8.0458   -2.6282 C   0  0  1  0  0  0  0  0  0  0  0  0
    3.3988    7.1248   -3.7358 C   0  0  0  0  0  0  0  0  0  0  0  0
    2.5562    7.9024   -4.7396 C   0  0  0  0  0  0  0  0  0  0  0  0
    1.2966    8.5034   -4.0767 C   0  0  1  0  0  0  0  0  0  0  0  0
    1.5583    8.9037   -2.6095 C   0  0  0  0  0  0  0  0  0  0  0  0
    3.0231    9.2489   -2.3551 C   0  0  0  0  0  0  0  0  0  0  0  0
    0.8591    9.6165   -4.9279 N   0  0  0  0  0  0  0  0  0  0  0  0
   -0.1585    9.6884   -4.9205 H   0  0  0  0  0  0  0  0  0  0  0  0
    1.3352    9.5645   -6.3317 C   0  0  0  0  0  0  0  0  0  0  0  0
    2.2443   10.6801   -6.8904 C   0  0  0  0  0  0  0  0  0  0  0  0
    1.5630   11.8208   -7.1295 F   0  0  0  0  0  0  0  0  0  0  0  0
    2.8018   10.2857   -8.0605 F   0  0  0  0  0  0  0  0  0  0  0  0
    3.2587   10.9654   -6.0425 F   0  0  0  0  0  0  0  0  0  0  0  0
    3.7847    6.7264    3.7377 H   0  0  0  0  0  0  0  0  0  0  0  0
    4.9945    5.7416    4.5249 H   0  0  0  0  0  0  0  0  0  0  0  0
    3.5087    5.0155    3.9608 H   0  0  0  0  0  0  0  0  0  0  0  0
    4.3309    7.3194    1.5356 H   0  0  0  0  0  0  0  0  0  0  0  0
    5.3819    1.2881    1.5027 H   0  0  0  0  0  0  0  0  0  0  0  0
    9.1916    0.8252    0.1097 H   0  0  0  0  0  0  0  0  0  0  0  0
    9.9218    3.1123   -0.2936 H   0  0  0  0  0  0  0  0  0  0  0  0
    9.2262    4.2515    0.8339 H   0  0  0  0  0  0  0  0  0  0  0  0
    8.6150    4.1557   -0.8002 H   0  0  0  0  0  0  0  0  0  0  0  0
    4.8733    8.4421   -2.9737 H   0  0  0  0  0  0  0  0  0  0  0  0
    2.7946    6.3624   -3.2902 H   0  0  0  0  0  0  0  0  0  0  0  0
    4.2300    6.6945   -4.2543 H   0  0  0  0  0  0  0  0  0  0  0  0
    2.2540    7.2419   -5.5253 H   0  0  0  0  0  0  0  0  0  0  0  0
    3.1489    8.7060   -5.1241 H   0  0  0  0  0  0  0  0  0  0  0  0
    0.5089    7.7823   -4.0100 H   0  0  0  0  0  0  0  0  0  0  0  0
    1.2823    8.0870   -1.9757 H   0  0  0  0  0  0  0  0  0  0  0  0
    0.9754    9.7761   -2.3995 H   0  0  0  0  0  0  0  0  0  0  0  0
    3.1374    9.5489   -1.3344 H   0  0  0  0  0  0  0  0  0  0  0  0
    3.3014   10.0410   -3.0184 H   0  0  0  0  0  0  0  0  0  0  0  0
    0.4629    9.5404   -6.9510 H   0  0  0  0  0  0  0  0  0  0  0  0
    1.9741    8.7062   -6.3384 H   0  0  0  0  0  0  0  0  0  0  0  0
  1  2  2  0
  1  3  1  0
  3 18  1  0
  3  4  1  0
  5  6  1  0
  5 31  1  0
  5 32  1  0
  5 33  1  0
  6  7  2  0
  7  8  1  0
  7 34  1  0
  8  1  1  0
  8  9  2  0
  9 10  1  0
 10 12  1  0
 10 11  2  0
 11  6  1  0
 12 13  2  0
 13 14  1  0
 13 35  1  0
 14 15  2  0
 15 16  1  0
 15 36  1  0
 16 17  1  0
 16 12  1  0
 17 37  1  0
 17 38  1  0
 17 39  1  0
 18 19  1  0
 18 40  1  6
 19 20  1  0
 19 41  1  0
 19 42  1  0
 20 21  1  0
 20 43  1  0
 20 44  1  0
 21 24  1  0
 21 22  1  0
 21 45  1  1
 22 23  1  0
 22 46  1  0
 22 47  1  0
 23 18  1  0
 23 48  1  0
 23 49  1  0
 24 26  1  0
 24 25  1  0
 26 27  1  0
 26 50  1  0
 26 51  1  0
 27 28  1  0
 27 29  1  0
 27 30  1  0
M  END
>  <minimizedAffinity>  (5) 
-6.73515

>  <mol_id>  (5) 
39146

>  <source_index>  (5) 
4

>  <layer>  (5) 
L3

>  <uniprot>  (5) 
P56528

>  <paff>  (5) 
7.3978999999999999

>  <smiles>  (5) 
Cc1cc(C(=O)N[C@H]2CC[C@H](NCC(F)(F)F)CC2)nc(-c2cncn2C)n1

$$$$
L3:P56528:40236
     RDKit          3D

 42 44  0  0  0  0  0  0  0  0999 V2000
    1.3516    9.0151   -4.5277 C   0  0  0  0  0  0  0  0  0  0  0  0
    2.1099    8.1811   -3.5382 C   0  0  0  0  0  0  0  0  0  0  0  0
    3.0821    7.2794   -3.9700 C   0  0  0  0  0  0  0  0  0  0  0  0
    3.7795    6.5542   -3.0146 C   0  0  0  0  0  0  0  0  0  0  0  0
    3.5775    6.6735   -1.6733 N   0  0  0  0  0  0  0  0  0  0  0  0
    2.6394    7.5643   -1.2655 C   0  0  0  0  0  0  0  0  0  0  0  0
    1.8962    8.3337   -2.1620 C   0  0  0  0  0  0  0  0  0  0  0  0
    2.4350    7.6964    0.1366 N   0  0  0  0  0  0  0  0  0  0  0  0
    2.9997    6.9767    1.1675 C   0  0  0  0  0  0  0  0  0  0  0  0
    2.4640    7.4939    2.3242 C   0  0  0  0  0  0  0  0  0  0  0  0
    1.5915    8.5066    2.0465 N   0  0  0  0  0  0  0  0  0  0  0  0
    1.5948    8.6101    0.7348 C   0  0  0  0  0  0  0  0  0  0  0  0
    4.8259    5.5700   -3.4438 C   0  0  0  0  0  0  0  0  0  0  0  0
    4.8198    5.0698   -4.5628 O   0  0  0  0  0  0  0  0  0  0  0  0
    5.7636    5.2799   -2.4817 N   0  0  0  0  0  0  0  0  0  0  0  0
    5.5965    5.6445   -1.5438 H   0  0  0  0  0  0  0  0  0  0  0  0
    6.7624    4.2371   -2.6364 C   0  0  1  0  0  0  0  0  0  0  0  0
    8.0612    4.7749   -3.2350 C   0  0  0  0  0  0  0  0  0  0  0  0
    9.1505    3.7017   -3.3193 C   0  0  0  0  0  0  0  0  0  0  0  0
    8.8560    2.4691   -2.4672 C   0  0  0  0  0  0  0  0  0  0  0  0
    8.2039    2.8244   -1.2186 N   0  0  0  0  0  0  0  0  0  0  0  0
    8.4768    2.0185   -0.0444 C   0  0  0  0  0  0  0  0  0  0  0  0
    7.0601    3.6199   -1.2544 C   0  0  0  0  0  0  0  0  0  0  0  0
    6.3221    3.7984   -0.2854 O   0  0  0  0  0  0  0  0  0  0  0  0
    1.6529    8.7528   -5.5203 H   0  0  0  0  0  0  0  0  0  0  0  0
    1.5584   10.0505   -4.3541 H   0  0  0  0  0  0  0  0  0  0  0  0
    0.3026    8.8370   -4.4146 H   0  0  0  0  0  0  0  0  0  0  0  0
    3.2780    7.1546   -4.9755 H   0  0  0  0  0  0  0  0  0  0  0  0
    1.1965    9.0081   -1.8147 H   0  0  0  0  0  0  0  0  0  0  0  0
    3.6837    6.2080    1.0880 H   0  0  0  0  0  0  0  0  0  0  0  0
    2.6911    7.1611    3.2743 H   0  0  0  0  0  0  0  0  0  0  0  0
    1.0310    9.2987    0.2123 H   0  0  0  0  0  0  0  0  0  0  0  0
    6.3719    3.5008   -3.3075 H   0  0  0  0  0  0  0  0  0  0  0  0
    8.4157    5.5777   -2.6228 H   0  0  0  0  0  0  0  0  0  0  0  0
    7.8503    5.1062   -4.2303 H   0  0  0  0  0  0  0  0  0  0  0  0
   10.0740    4.1294   -2.9890 H   0  0  0  0  0  0  0  0  0  0  0  0
    9.1958    3.3775   -4.3380 H   0  0  0  0  0  0  0  0  0  0  0  0
    9.7770    1.9705   -2.2481 H   0  0  0  0  0  0  0  0  0  0  0  0
    8.1973    1.8311   -3.0186 H   0  0  0  0  0  0  0  0  0  0  0  0
    9.3878    1.4759   -0.1881 H   0  0  0  0  0  0  0  0  0  0  0  0
    7.6724    1.3302    0.1106 H   0  0  0  0  0  0  0  0  0  0  0  0
    8.5716    2.6547    0.8107 H   0  0  0  0  0  0  0  0  0  0  0  0
  1  2  1  0
  1 25  1  0
  1 26  1  0
  1 27  1  0
  2  3  2  0
  3  4  1  0
  3 28  1  0
  4 13  1  0
  4  5  2  0
  5  6  1  0
  6  8  1  0
  6  7  2  0
  7  2  1  0
  7 29  1  0
  8  9  1  0
  9 10  2  0
  9 30  1  0
 10 11  1  0
 10 31  1  0
 11 12  2  0
 12  8  1  0
 12 32  1  0
 13 14  2  0
 13 15  1  0
 15 17  1  0
 15 16  1  0
 17 18  1  0
 17 33  1  6
 18 19  1  0
 18 34  1  0
 18 35  1  0
 19 20  1  0
 19 36  1  0
 19 37  1  0
 20 21  1  0
 20 38  1  0
 20 39  1  0
 21 22  1  0
 21 23  1  0
 22 40  1  0
 22 41  1  0
 22 42  1  0
 23 24  2  0
 23 17  1  0
M  END
>  <minimizedAffinity>  (6) 
-6.63123

>  <mol_id>  (6) 
40236

>  <source_index>  (6) 
5

>  <layer>  (6) 
L3

>  <uniprot>  (6) 
P56528

>  <paff>  (6) 
7.2595999999999998

>  <smiles>  (6) 
Cc1cc(C(=O)N[C@H]2CCCN(C)C2=O)nc(-n2ccnc2)c1

$$$$
L3:P56528:61898
     RDKit          3D

 48 50  0  0  0  0  0  0  0  0999 V2000
    6.1350    6.4556   -2.1690 C   0  0  0  0  0  0  0  0  0  0  0  0
    6.8991    7.4111   -2.2303 O   0  0  0  0  0  0  0  0  0  0  0  0
    4.7707    6.5378   -2.3575 N   0  0  0  0  0  0  0  0  0  0  0  0
    4.2413    5.6928   -2.1642 H   0  0  0  0  0  0  0  0  0  0  0  0
    8.6586    2.3400   -3.3790 C   0  0  0  0  0  0  0  0  0  0  0  0
    7.8250    3.1567   -2.4377 C   0  0  0  0  0  0  0  0  0  0  0  0
    7.3984    4.4134   -2.7988 C   0  0  0  0  0  0  0  0  0  0  0  0
    6.6381    5.0787   -1.8619 C   0  0  0  0  0  0  0  0  0  0  0  0
    6.3049    4.5758   -0.6470 N   0  0  0  0  0  0  0  0  0  0  0  0
    6.7680    3.3401   -0.3895 C   0  0  0  0  0  0  0  0  0  0  0  0
    7.5190    2.6098   -1.2422 N   0  0  0  0  0  0  0  0  0  0  0  0
    6.4484    2.7609    0.8656 N   0  0  0  0  0  0  0  0  0  0  0  0
    6.1713    3.4189    2.0435 C   0  0  0  0  0  0  0  0  0  0  0  0
    5.9228    2.4328    2.9685 C   0  0  0  0  0  0  0  0  0  0  0  0
    6.0376    1.1916    2.4004 N   0  0  0  0  0  0  0  0  0  0  0  0
    6.3538    1.4189    1.1434 C   0  0  0  0  0  0  0  0  0  0  0  0
    4.0748    7.8057   -2.5184 C   0  0  1  0  0  0  0  0  0  0  0  0
    4.0245    8.2083   -4.0016 C   0  0  0  0  0  0  0  0  0  0  0  0
    2.7302    7.7395   -4.6604 C   0  0  0  0  0  0  0  0  0  0  0  0
    1.4833    8.3891   -4.0192 C   0  0  1  0  0  0  0  0  0  0  0  0
    1.7081    8.7037   -2.5257 C   0  0  0  0  0  0  0  0  0  0  0  0
    2.6769    7.7214   -1.8787 C   0  0  0  0  0  0  0  0  0  0  0  0
    1.1290    9.6066   -4.7687 N   0  0  0  0  0  0  0  0  0  0  0  0
    1.6534   10.3933   -4.3763 H   0  0  0  0  0  0  0  0  0  0  0  0
    1.4415    9.5362   -6.2220 C   0  0  0  0  0  0  0  0  0  0  0  0
    2.3192   10.6358   -6.8516 C   0  0  0  0  0  0  0  0  0  0  0  0
    1.6030   11.7646   -7.0532 F   0  0  0  0  0  0  0  0  0  0  0  0
    2.8224   10.2537   -8.0457 F   0  0  0  0  0  0  0  0  0  0  0  0
    3.3580   10.9474   -6.0430 F   0  0  0  0  0  0  0  0  0  0  0  0
    8.8230    2.8922   -4.2806 H   0  0  0  0  0  0  0  0  0  0  0  0
    8.1483    1.4277   -3.6075 H   0  0  0  0  0  0  0  0  0  0  0  0
    9.5994    2.1172   -2.9206 H   0  0  0  0  0  0  0  0  0  0  0  0
    7.6327    4.8312   -3.7129 H   0  0  0  0  0  0  0  0  0  0  0  0
    6.1539    4.4390    2.1991 H   0  0  0  0  0  0  0  0  0  0  0  0
    5.6823    2.6044    3.9573 H   0  0  0  0  0  0  0  0  0  0  0  0
    6.5125    0.6745    0.4464 H   0  0  0  0  0  0  0  0  0  0  0  0
    4.6124    8.5778   -2.0087 H   0  0  0  0  0  0  0  0  0  0  0  0
    4.8549    7.7659   -4.5111 H   0  0  0  0  0  0  0  0  0  0  0  0
    4.0672    9.2757   -4.0632 H   0  0  0  0  0  0  0  0  0  0  0  0
    2.6565    6.6769   -4.5587 H   0  0  0  0  0  0  0  0  0  0  0  0
    2.7605    8.0298   -5.6898 H   0  0  0  0  0  0  0  0  0  0  0  0
    0.6717    7.6937   -4.0697 H   0  0  0  0  0  0  0  0  0  0  0  0
    0.7690    8.6504   -2.0156 H   0  0  0  0  0  0  0  0  0  0  0  0
    2.1310    9.6839   -2.4528 H   0  0  0  0  0  0  0  0  0  0  0  0
    2.2981    6.7281   -2.0000 H   0  0  0  0  0  0  0  0  0  0  0  0
    2.7659    7.9704   -0.8419 H   0  0  0  0  0  0  0  0  0  0  0  0
    0.5076    9.5430   -6.7442 H   0  0  0  0  0  0  0  0  0  0  0  0
    2.0344    8.6503   -6.3144 H   0  0  0  0  0  0  0  0  0  0  0  0
  1  2  2  0
  1  3  1  0
  3 17  1  0
  3  4  1  0
  5  6  1  0
  5 30  1  0
  5 31  1  0
  5 32  1  0
  6  7  2  0
  7  8  1  0
  7 33  1  0
  8  1  1  0
  8  9  2  0
  9 10  1  0
 10 12  1  0
 10 11  2  0
 11  6  1  0
 12 13  1  0
 13 14  2  0
 13 34  1  0
 14 15  1  0
 14 35  1  0
 15 16  2  0
 16 12  1  0
 16 36  1  0
 17 18  1  0
 17 37  1  1
 18 19  1  0
 18 38  1  0
 18 39  1  0
 19 20  1  0
 19 40  1  0
 19 41  1  0
 20 23  1  0
 20 21  1  0
 20 42  1  1
 21 22  1  0
 21 43  1  0
 21 44  1  0
 22 17  1  0
 22 45  1  0
 22 46  1  0
 23 25  1  0
 23 24  1  0
 25 26  1  0
 25 47  1  0
 25 48  1  0
 26 27  1  0
 26 28  1  0
 26 29  1  0
M  END
>  <minimizedAffinity>  (7) 
-6.86236

>  <mol_id>  (7) 
61898

>  <source_index>  (7) 
6

>  <layer>  (7) 
L3

>  <uniprot>  (7) 
P56528

>  <paff>  (7) 
7.3978999999999999

>  <smiles>  (7) 
Cc1cc(C(=O)N[C@H]2CC[C@H](NCC(F)(F)F)CC2)nc(-n2ccnc2)n1

$$$$
L3:P56528:81023
     RDKit          3D

 39 41  0  0  0  0  0  0  0  0999 V2000
    1.4337    8.8838   -4.4387 C   0  0  0  0  0  0  0  0  0  0  0  0
    2.1594    8.1965   -3.3202 C   0  0  0  0  0  0  0  0  0  0  0  0
    1.9101    8.5473   -1.9938 C   0  0  0  0  0  0  0  0  0  0  0  0
    2.5809    7.8592   -0.9933 C   0  0  0  0  0  0  0  0  0  0  0  0
    3.4669    6.8497   -1.2245 N   0  0  0  0  0  0  0  0  0  0  0  0
    3.6908    6.5115   -2.5200 C   0  0  0  0  0  0  0  0  0  0  0  0
    3.0558    7.1528   -3.5846 C   0  0  0  0  0  0  0  0  0  0  0  0
    4.6189    5.4610   -2.7649 N   0  0  0  0  0  0  0  0  0  0  0  0
    5.7122    5.4437   -3.6032 C   0  0  0  0  0  0  0  0  0  0  0  0
    6.2756    4.1965   -3.4593 C   0  0  0  0  0  0  0  0  0  0  0  0
    5.5705    3.4436   -2.5642 N   0  0  0  0  0  0  0  0  0  0  0  0
    4.5848    4.2195   -2.1693 C   0  0  0  0  0  0  0  0  0  0  0  0
    2.3421    8.2117    0.4445 C   0  0  0  0  0  0  0  0  0  0  0  0
    1.5895    9.1229    0.7660 O   0  0  0  0  0  0  0  0  0  0  0  0
    3.0269    7.4223    1.3417 N   0  0  0  0  0  0  0  0  0  0  0  0
    3.4758    6.5993    0.9462 H   0  0  0  0  0  0  0  0  0  0  0  0
    2.7781    7.4716    2.7743 C   0  0  2  0  0  0  0  0  0  0  0  0
    4.0598    7.5209    3.6113 C   0  0  0  0  0  0  0  0  0  0  0  0
    4.8838    6.2311    3.5402 C   0  0  0  0  0  0  0  0  0  0  0  0
    4.0679    5.0063    3.1412 C   0  0  0  0  0  0  0  0  0  0  0  0
    2.6802    5.1224    3.5163 N   0  0  0  0  0  0  0  0  0  0  0  0
    1.9532    6.2406    3.1793 C   0  0  0  0  0  0  0  0  0  0  0  0
    0.7286    6.1898    3.1073 O   0  0  0  0  0  0  0  0  0  0  0  0
    2.1187    4.2857    3.6278 H   0  0  0  0  0  0  0  0  0  0  0  0
    0.8002    9.6468   -4.0371 H   0  0  0  0  0  0  0  0  0  0  0  0
    0.8395    8.1700   -4.9701 H   0  0  0  0  0  0  0  0  0  0  0  0
    2.1437    9.3248   -5.1067 H   0  0  0  0  0  0  0  0  0  0  0  0
    1.2432    9.3001   -1.7622 H   0  0  0  0  0  0  0  0  0  0  0  0
    3.2446    6.8612   -4.5564 H   0  0  0  0  0  0  0  0  0  0  0  0
    6.0408    6.2084   -4.2133 H   0  0  0  0  0  0  0  0  0  0  0  0
    7.1179    3.8734   -3.9605 H   0  0  0  0  0  0  0  0  0  0  0  0
    3.8653    3.9302   -1.4884 H   0  0  0  0  0  0  0  0  0  0  0  0
    2.2461    8.3788    2.9715 H   0  0  0  0  0  0  0  0  0  0  0  0
    3.7915    7.6960    4.6322 H   0  0  0  0  0  0  0  0  0  0  0  0
    4.6674    8.3060    3.2121 H   0  0  0  0  0  0  0  0  0  0  0  0
    5.3146    6.0515    4.5030 H   0  0  0  0  0  0  0  0  0  0  0  0
    5.6256    6.3742    2.7825 H   0  0  0  0  0  0  0  0  0  0  0  0
    4.4829    4.1456    3.6227 H   0  0  0  0  0  0  0  0  0  0  0  0
    4.1110    4.9193    2.0756 H   0  0  0  0  0  0  0  0  0  0  0  0
  1  2  1  0
  1 25  1  0
  1 26  1  0
  1 27  1  0
  2  3  2  0
  3  4  1  0
  3 28  1  0
  4 13  1  0
  4  5  2  0
  5  6  1  0
  6  8  1  0
  6  7  2  0
  7  2  1  0
  7 29  1  0
  8  9  1  0
  9 10  2  0
  9 30  1  0
 10 11  1  0
 10 31  1  0
 11 12  2  0
 12  8  1  0
 12 32  1  0
 13 14  2  0
 13 15  1  0
 15 17  1  0
 15 16  1  0
 17 18  1  0
 17 33  1  6
 18 19  1  0
 18 34  1  0
 18 35  1  0
 19 20  1  0
 19 36  1  0
 19 37  1  0
 20 21  1  0
 20 38  1  0
 20 39  1  0
 21 22  1  0
 21 24  1  0
 22 23  2  0
 22 17  1  0
M  END
>  <minimizedAffinity>  (8) 
-6.74648

>  <mol_id>  (8) 
81023

>  <source_index>  (8) 
7

>  <layer>  (8) 
L3

>  <uniprot>  (8) 
P56528

>  <paff>  (8) 
7.2595999999999998

>  <smiles>  (8) 
Cc1cc(C(=O)N[C@@H]2CCCNC2=O)nc(-n2ccnc2)c1

$$$$
L3:P56528:112975
     RDKit          3D

 41 43  0  0  0  0  0  0  0  0999 V2000
    1.1980    9.1414   -4.3342 C   0  0  0  0  0  0  0  0  0  0  0  0
    2.0384    8.3310   -3.3923 C   0  0  0  0  0  0  0  0  0  0  0  0
    2.9996    7.4478   -3.8827 C   0  0  0  0  0  0  0  0  0  0  0  0
    3.7308    6.6975   -2.9732 C   0  0  0  0  0  0  0  0  0  0  0  0
    3.5601    6.7591   -1.6220 N   0  0  0  0  0  0  0  0  0  0  0  0
    2.6110    7.6135   -1.1604 C   0  0  0  0  0  0  0  0  0  0  0  0
    1.8341    8.4043   -2.0083 C   0  0  0  0  0  0  0  0  0  0  0  0
    2.4256    7.6764    0.2491 N   0  0  0  0  0  0  0  0  0  0  0  0
    2.9679    6.8816    1.2351 C   0  0  0  0  0  0  0  0  0  0  0  0
    2.4707    7.3658    2.4233 C   0  0  0  0  0  0  0  0  0  0  0  0
    1.6411    8.4292    2.2073 N   0  0  0  0  0  0  0  0  0  0  0  0
    1.6306    8.5920    0.9024 C   0  0  0  0  0  0  0  0  0  0  0  0
    4.7741    5.7396   -3.4655 C   0  0  0  0  0  0  0  0  0  0  0  0
    4.6619    5.1675   -4.5429 O   0  0  0  0  0  0  0  0  0  0  0  0
    5.8355    5.5623   -2.6006 N   0  0  0  0  0  0  0  0  0  0  0  0
    5.7379    6.0107   -1.6934 H   0  0  0  0  0  0  0  0  0  0  0  0
    6.8751    4.5756   -2.8262 C   0  0  0  0  0  0  0  0  0  0  0  0
    7.3102    3.9249   -1.5092 C   0  0  0  0  0  0  0  0  0  0  0  0
    8.3691    2.8372   -1.7121 C   0  0  0  0  0  0  0  0  0  0  0  0
    9.1652    3.0062   -2.9976 C   0  0  0  0  0  0  0  0  0  0  0  0
    8.5054    2.3991   -4.0182 F   0  0  0  0  0  0  0  0  0  0  0  0
   10.3557    2.3703   -2.8802 F   0  0  0  0  0  0  0  0  0  0  0  0
    9.3887    4.4606   -3.3607 C   0  0  0  0  0  0  0  0  0  0  0  0
    8.0706    5.2160   -3.5515 C   0  0  0  0  0  0  0  0  0  0  0  0
    1.5047    8.9493   -5.3411 H   0  0  0  0  0  0  0  0  0  0  0  0
    1.3205   10.1818   -4.1164 H   0  0  0  0  0  0  0  0  0  0  0  0
    0.1693    8.8712   -4.2169 H   0  0  0  0  0  0  0  0  0  0  0  0
    3.1631    7.3545   -4.8974 H   0  0  0  0  0  0  0  0  0  0  0  0
    1.1167    9.0364   -1.6198 H   0  0  0  0  0  0  0  0  0  0  0  0
    3.6139    6.0868    1.1086 H   0  0  0  0  0  0  0  0  0  0  0  0
    2.6946    6.9776    3.3529 H   0  0  0  0  0  0  0  0  0  0  0  0
    1.0866    9.3250    0.4209 H   0  0  0  0  0  0  0  0  0  0  0  0
    6.4785    3.8030   -3.4513 H   0  0  0  0  0  0  0  0  0  0  0  0
    6.4525    3.4858   -1.0440 H   0  0  0  0  0  0  0  0  0  0  0  0
    7.7429    4.6887   -0.8974 H   0  0  0  0  0  0  0  0  0  0  0  0
    7.8789    1.8864   -1.7385 H   0  0  0  0  0  0  0  0  0  0  0  0
    9.0603    2.9114   -0.8987 H   0  0  0  0  0  0  0  0  0  0  0  0
    9.9477    4.5067   -4.2719 H   0  0  0  0  0  0  0  0  0  0  0  0
    9.9199    4.9233   -2.5553 H   0  0  0  0  0  0  0  0  0  0  0  0
    7.8506    5.2507   -4.5981 H   0  0  0  0  0  0  0  0  0  0  0  0
    8.2060    6.1892   -3.1279 H   0  0  0  0  0  0  0  0  0  0  0  0
  1  2  1  0
  1 25  1  0
  1 26  1  0
  1 27  1  0
  2  3  2  0
  3  4  1  0
  3 28  1  0
  4 13  1  0
  4  5  2  0
  5  6  1  0
  6  8  1  0
  6  7  2  0
  7  2  1  0
  7 29  1  0
  8  9  1  0
  9 10  2  0
  9 30  1  0
 10 11  1  0
 10 31  1  0
 11 12  2  0
 12  8  1  0
 12 32  1  0
 13 14  2  0
 13 15  1  0
 15 17  1  0
 15 16  1  0
 17 18  1  0
 17 33  1  0
 18 19  1  0
 18 34  1  0
 18 35  1  0
 19 20  1  0
 19 36  1  0
 19 37  1  0
 20 21  1  0
 20 22  1  0
 20 23  1  0
 23 24  1  0
 23 38  1  0
 23 39  1  0
 24 17  1  0
 24 40  1  0
 24 41  1  0
M  END
>  <minimizedAffinity>  (9) 
-6.61939

>  <mol_id>  (9) 
112975

>  <source_index>  (9) 
8

>  <layer>  (9) 
L3

>  <uniprot>  (9) 
P56528

>  <paff>  (9) 
8.2596000000000007

>  <smiles>  (9) 
Cc1cc(C(=O)NC2CCC(F)(F)CC2)nc(-n2ccnc2)c1

$$$$
L3:P56528:146465
     RDKit          3D

 38 40  0  0  0  0  0  0  0  0999 V2000
    1.2637    9.0780   -4.4804 C   0  0  0  0  0  0  0  0  0  0  0  0
    2.0483    8.2406   -3.5142 C   0  0  0  0  0  0  0  0  0  0  0  0
    3.0302    7.3632   -3.9730 C   0  0  0  0  0  0  0  0  0  0  0  0
    3.7505    6.6344   -3.0381 C   0  0  0  0  0  0  0  0  0  0  0  0
    3.5652    6.7251   -1.6908 N   0  0  0  0  0  0  0  0  0  0  0  0
    2.6169    7.5964   -1.2587 C   0  0  0  0  0  0  0  0  0  0  0  0
    1.8491    8.3670   -2.1333 C   0  0  0  0  0  0  0  0  0  0  0  0
    2.4281    7.7053    0.1475 N   0  0  0  0  0  0  0  0  0  0  0  0
    3.0158    6.9841    1.1636 C   0  0  0  0  0  0  0  0  0  0  0  0
    2.4873    7.4830    2.3322 C   0  0  0  0  0  0  0  0  0  0  0  0
    1.5953    8.4849    2.0748 N   0  0  0  0  0  0  0  0  0  0  0  0
    1.5797    8.5975    0.7649 C   0  0  0  0  0  0  0  0  0  0  0  0
    4.8061    5.6733   -3.4947 C   0  0  0  0  0  0  0  0  0  0  0  0
    4.7013    5.0418   -4.5389 O   0  0  0  0  0  0  0  0  0  0  0  0
    5.8826    5.5551   -2.6378 N   0  0  0  0  0  0  0  0  0  0  0  0
    5.8088    6.0682   -1.7615 H   0  0  0  0  0  0  0  0  0  0  0  0
    6.9540    4.6093   -2.8732 C   0  0  1  0  0  0  0  0  0  0  0  0
    8.3243    5.2913   -2.8588 C   0  0  0  0  0  0  0  0  0  0  0  0
    9.3438    4.1653   -2.9401 C   0  0  0  0  0  0  0  0  0  0  0  0
    8.6646    2.8514   -1.9403 S   0  0  0  0  0  0  0  0  0  0  0  0
    8.6381    1.6399   -2.7324 O   0  0  0  0  0  0  0  0  0  0  0  0
    9.2811    2.9049   -0.6307 O   0  0  0  0  0  0  0  0  0  0  0  0
    7.0113    3.5071   -1.8170 C   0  0  0  0  0  0  0  0  0  0  0  0
    1.5569    8.8373   -5.4809 H   0  0  0  0  0  0  0  0  0  0  0  0
    1.4552   10.1137   -4.2920 H   0  0  0  0  0  0  0  0  0  0  0  0
    0.2193    8.8803   -4.3574 H   0  0  0  0  0  0  0  0  0  0  0  0
    3.2163    7.2587   -4.9827 H   0  0  0  0  0  0  0  0  0  0  0  0
    1.1420    9.0231   -1.7665 H   0  0  0  0  0  0  0  0  0  0  0  0
    3.7094    6.2260    1.0681 H   0  0  0  0  0  0  0  0  0  0  0  0
    2.7320    7.1455    3.2762 H   0  0  0  0  0  0  0  0  0  0  0  0
    0.9960    9.2793    0.2555 H   0  0  0  0  0  0  0  0  0  0  0  0
    6.7392    4.1898   -3.8338 H   0  0  0  0  0  0  0  0  0  0  0  0
    8.4546    5.8483   -1.9545 H   0  0  0  0  0  0  0  0  0  0  0  0
    8.4313    5.9810   -3.6698 H   0  0  0  0  0  0  0  0  0  0  0  0
   10.2879    4.4843   -2.5505 H   0  0  0  0  0  0  0  0  0  0  0  0
    9.5175    3.8533   -3.9487 H   0  0  0  0  0  0  0  0  0  0  0  0
    6.8364    3.9096   -0.8411 H   0  0  0  0  0  0  0  0  0  0  0  0
    6.2646    2.7567   -1.9727 H   0  0  0  0  0  0  0  0  0  0  0  0
  1  2  1  0
  1 24  1  0
  1 25  1  0
  1 26  1  0
  2  3  2  0
  3  4  1  0
  3 27  1  0
  4 13  1  0
  4  5  2  0
  5  6  1  0
  6  8  1  0
  6  7  2  0
  7  2  1  0
  7 28  1  0
  8  9  1  0
  9 10  2  0
  9 29  1  0
 10 11  1  0
 10 30  1  0
 11 12  2  0
 12  8  1  0
 12 31  1  0
 13 14  2  0
 13 15  1  0
 15 17  1  0
 15 16  1  0
 17 18  1  0
 17 32  1  6
 18 19  1  0
 18 33  1  0
 18 34  1  0
 19 20  1  0
 19 35  1  0
 19 36  1  0
 20 21  2  0
 20 22  2  0
 20 23  1  0
 23 17  1  0
 23 37  1  0
 23 38  1  0
M  END
>  <minimizedAffinity>  (10) 
-6.56635

>  <mol_id>  (10) 
146465

>  <source_index>  (10) 
9

>  <layer>  (10) 
L3

>  <uniprot>  (10) 
P56528

>  <paff>  (10) 
8.2596000000000007

>  <smiles>  (10) 
Cc1cc(C(=O)N[C@H]2CCS(=O)(=O)C2)nc(-n2ccnc2)c1

$$$$
