L3:Q00961:103070


 28 29  0  0  0  0  0  0  0  0999 V2000
  129.5840  175.9749  181.0164 C   0  0  0  0  0  0  0  0  0  0  0  0
  129.2128  174.9100  180.2161 C   0  0  0  0  0  0  0  0  0  0  0  0
  127.8061  174.6829  180.2199 C   0  0  0  0  0  0  0  0  0  0  0  0
  127.1374  175.5812  181.0249 C   0  0  0  0  0  0  0  0  0  0  0  0
  128.2147  176.6914  181.7574 S   0  0  0  0  0  0  0  0  0  0  0  0
  125.7025  175.6796  181.2973 C   0  0  0  0  0  0  0  0  0  0  0  0
  125.1790  174.9725  182.3942 C   0  0  0  0  0  0  0  0  0  0  0  0
  123.8217  175.0395  182.7082 C   0  0  0  0  0  0  0  0  0  0  0  0
  122.9691  175.8167  181.9326 C   0  0  0  0  0  0  0  0  0  0  0  0
  123.4737  176.5268  180.8431 C   0  0  0  0  0  0  0  0  0  0  0  0
  124.8417  176.4689  180.5084 C   0  0  0  0  0  0  0  0  0  0  0  0
  125.3484  177.2547  179.3224 C   0  0  0  0  0  0  0  0  0  0  0  0
  126.1646  178.2889  179.6657 F   0  0  0  0  0  0  0  0  0  0  0  0
  124.3432  177.7889  178.5739 F   0  0  0  0  0  0  0  0  0  0  0  0
  126.0787  176.4968  178.4517 F   0  0  0  0  0  0  0  0  0  0  0  0
  131.9409  175.7832  180.5798 N   0  0  0  0  0  0  0  0  0  0  0  0
  130.9383  176.4648  181.2353 C   0  0  0  0  0  0  0  0  0  0  0  0
  131.1899  177.4344  181.9479 O   0  0  0  0  0  0  0  0  0  0  0  0
  131.6876  175.0135  179.9719 H   0  0  0  0  0  0  0  0  0  0  0  0
  133.3454  176.1581  180.6693 C   0  0  0  0  0  0  0  0  0  0  0  0
  133.3633  176.0289  178.1731 N   0  0  0  0  0  0  0  0  0  0  0  0
  133.9038  176.7484  179.3625 C   0  0  0  0  0  0  0  0  0  0  0  0
  132.3538  176.2011  178.1593 H   0  0  0  0  0  0  0  0  0  0  0  0
  133.6991  176.5178  177.3392 H   0  0  0  0  0  0  0  0  0  0  0  0
  133.5973  178.2435  179.2621 C   0  0  0  0  0  0  0  0  0  0  0  0
  133.5883  178.9093  178.2365 O   0  0  0  0  0  0  0  0  0  0  0  0
  133.3727  178.8202  180.4589 O   0  0  0  0  0  0  0  0  0  0  0  0
  133.0952  179.7330  180.2316 H   0  0  0  0  0  0  0  0  0  0  0  0
 21 22  1  0  0  0
 22 20  1  0  0  0
 20 16  1  0  0  0
 16 17  1  0  0  0
 17 18  2  0  0  0
 17  1  1  0  0  0
  1  2  2  0  0  0
  2  3  1  0  0  0
  3  4  2  0  0  0
  4  6  1  0  0  0
  6  7  2  0  0  0
  7  8  1  0  0  0
  8  9  2  0  0  0
  9 10  1  0  0  0
 10 11  2  0  0  0
 11 12  1  0  0  0
 12 13  1  0  0  0
 12 14  1  0  0  0
 12 15  1  0  0  0
  4  5  1  0  0  0
 22 25  1  0  0  0
 25 26  2  0  0  0
 25 27  1  0  0  0
  5  1  1  0  0  0
 11  6  1  0  0  0
 21 23  1  0  0  0
 21 24  1  0  0  0
 16 19  1  0  0  0
 27 28  1  0  0  0
M  END
> <minimizedAffinity>
-5.62835

$$$$
