L3:Q00961:108874


 26 27  0  0  0  0  0  0  0  0999 V2000
  132.7945  178.3126  182.7192 C   0  0  0  0  0  0  0  0  0  0  0  0
  131.6455  177.4869  182.2388 C   0  0  0  0  0  0  0  0  0  0  0  0
  130.2999  177.6184  182.7245 C   0  0  0  0  0  0  0  0  0  0  0  0
  129.4120  176.7395  182.1293 C   0  0  0  0  0  0  0  0  0  0  0  0
  130.2180  175.7432  180.9918 S   0  0  0  0  0  0  0  0  0  0  0  0
  131.7254  176.4991  181.2712 C   0  0  0  0  0  0  0  0  0  0  0  0
  132.8929  176.0407  180.5130 C   0  0  0  0  0  0  0  0  0  0  0  0
  132.9950  176.3988  179.1582 C   0  0  0  0  0  0  0  0  0  0  0  0
  134.0806  175.9777  178.3875 C   0  0  0  0  0  0  0  0  0  0  0  0
  135.0773  175.1917  178.9599 C   0  0  0  0  0  0  0  0  0  0  0  0
  134.9902  174.8253  180.3032 C   0  0  0  0  0  0  0  0  0  0  0  0
  133.9035  175.2458  181.0788 C   0  0  0  0  0  0  0  0  0  0  0  0
  133.8677  174.6977  182.8999 Br  0  0  0  0  0  0  0  0  0  0  0  0
  127.9809  176.5528  182.3356 C   0  0  0  0  0  0  0  0  0  0  0  0
  127.4908  175.7942  183.1698 O   0  0  0  0  0  0  0  0  0  0  0  0
  127.1630  177.3017  181.5069 N   0  0  0  0  0  0  0  0  0  0  0  0
  127.5679  177.8590  180.7699 H   0  0  0  0  0  0  0  0  0  0  0  0
  125.7114  177.2089  181.5916 C   0  0  0  0  0  0  0  0  0  0  0  0
  125.0993  176.2881  180.5211 C   0  0  0  0  0  0  0  0  0  0  0  0
  123.7824  176.7898  180.0447 N   0  0  0  0  0  0  0  0  0  0  0  0
  123.2181  177.0160  180.8617 H   0  0  0  0  0  0  0  0  0  0  0  0
  123.9329  177.6604  179.5328 H   0  0  0  0  0  0  0  0  0  0  0  0
  126.0791  176.2197  179.3547 C   0  0  0  0  0  0  0  0  0  0  0  0
  126.9301  175.3597  179.1758 O   0  0  0  0  0  0  0  0  0  0  0  0
  125.9009  177.2012  178.4494 O   0  0  0  0  0  0  0  0  0  0  0  0
  126.6045  177.0501  177.7844 H   0  0  0  0  0  0  0  0  0  0  0  0
  1  2  1  0  0  0
  2  3  1  0  0  0
  3  4  2  0  0  0
  4 14  1  0  0  0
 14 15  2  0  0  0
 14 16  1  0  0  0
 16 18  1  0  0  0
 18 19  1  0  0  0
 19 20  1  0  0  0
 19 23  1  0  0  0
 23 24  2  0  0  0
 23 25  1  0  0  0
  4  5  1  0  0  0
  5  6  1  0  0  0
  6  7  1  0  0  0
  7  8  2  0  0  0
  8  9  1  0  0  0
  9 10  2  0  0  0
 10 11  1  0  0  0
 11 12  2  0  0  0
 12 13  1  0  0  0
  6  2  2  0  0  0
 12  7  1  0  0  0
 16 17  1  0  0  0
 20 21  1  0  0  0
 20 22  1  0  0  0
 25 26  1  0  0  0
M  END
> <minimizedAffinity>
-5.32367

$$$$
