L3:Q00961:135025
 OpenBabel09212617573D

 34 35  0  0  0  0  0  0  0  0999 V2000
  128.5084  182.5425  170.3294 N   0  0  0  0  0  0  0  0  0  0  0  0
  128.6999  181.1731  170.4009 C   0  0  0  0  0  0  0  0  0  0  0  0
  127.7688  180.4348  170.7180 O   0  0  0  0  0  0  0  0  0  0  0  0
  129.2497  183.1356  169.9843 H   0  0  0  0  0  0  0  0  0  0  0  0
  130.0438  180.7100  170.0713 C   0  0  0  0  0  0  0  0  0  0  0  0
  131.2505  181.3877  170.0381 C   0  0  0  0  0  0  0  0  0  0  0  0
  132.3425  180.5491  169.6610 C   0  0  0  0  0  0  0  0  0  0  0  0
  131.9459  179.2535  169.4034 C   0  0  0  0  0  0  0  0  0  0  0  0
  130.2647  179.0588  169.6487 S   0  0  0  0  0  0  0  0  0  0  0  0
  132.7661  178.1074  169.0111 C   0  0  0  0  0  0  0  0  0  0  0  0
  133.6290  177.5162  169.9496 C   0  0  0  0  0  0  0  0  0  0  0  0
  134.4276  176.4229  169.5970 C   0  0  0  0  0  0  0  0  0  0  0  0
  134.3759  175.9134  168.3006 C   0  0  0  0  0  0  0  0  0  0  0  0
  133.5291  176.5010  167.3664 C   0  0  0  0  0  0  0  0  0  0  0  0
  133.4942  176.0110  166.1191 F   0  0  0  0  0  0  0  0  0  0  0  0
  132.7315  177.5877  167.7118 C   0  0  0  0  0  0  0  0  0  0  0  0
  131.9458  178.1424  166.7753 F   0  0  0  0  0  0  0  0  0  0  0  0
  127.2105  183.1432  170.5916 C   0  0  0  0  0  0  0  0  0  0  0  0
  126.2656  182.3379  172.7791 N   0  0  0  0  0  0  0  0  0  0  0  0
  126.9826  183.4362  172.0865 C   0  0  1  0  0  0  0  0  0  0  0  0
  125.4541  182.0599  172.2291 H   0  0  0  0  0  0  0  0  0  0  0  0
  126.8871  181.5301  172.8425 H   0  0  0  0  0  0  0  0  0  0  0  0
  128.3551  183.6685  172.7254 C   0  0  0  0  0  0  0  0  0  0  0  0
  128.9425  182.8951  173.4678 O   0  0  0  0  0  0  0  0  0  0  0  0
  128.8737  184.8957  172.4882 O   0  0  0  0  0  0  0  0  0  0  0  0
  129.7520  184.8703  172.9216 H   0  0  0  0  0  0  0  0  0  0  0  0
  131.3498  182.3903  170.2617 H   0  0  0  0  0  0  0  0  0  0  0  0
  133.3189  180.8756  169.5892 H   0  0  0  0  0  0  0  0  0  0  0  0
  133.6741  177.8926  170.9094 H   0  0  0  0  0  0  0  0  0  0  0  0
  135.0542  175.9942  170.2959 H   0  0  0  0  0  0  0  0  0  0  0  0
  134.9616  175.1061  168.0357 H   0  0  0  0  0  0  0  0  0  0  0  0
  127.1427  184.0625  170.0483 H   0  0  0  0  0  0  0  0  0  0  0  0
  126.4621  182.4443  170.2813 H   0  0  0  0  0  0  0  0  0  0  0  0
  126.3601  184.3012  172.1825 H   0  0  0  0  0  0  0  0  0  0  0  0
  1  2  1  0  0  0  0
  1  4  1  0  0  0  0
  2  3  2  0  0  0  0
  2  5  1  0  0  0  0
  5  6  2  0  0  0  0
  6  7  1  0  0  0  0
  6 27  1  0  0  0  0
  7  8  2  0  0  0  0
  7 28  1  0  0  0  0
  8 10  1  0  0  0  0
  8  9  1  0  0  0  0
  9  5  1  0  0  0  0
 10 11  2  0  0  0  0
 11 12  1  0  0  0  0
 11 29  1  0  0  0  0
 12 13  2  0  0  0  0
 12 30  1  0  0  0  0
 13 14  1  0  0  0  0
 13 31  1  0  0  0  0
 14 15  1  0  0  0  0
 14 16  2  0  0  0  0
 16 17  1  0  0  0  0
 16 10  1  0  0  0  0
 18  1  1  0  0  0  0
 18 32  1  0  0  0  0
 18 33  1  0  0  0  0
 19 20  1  0  0  0  0
 19 21  1  0  0  0  0
 19 22  1  0  0  0  0
 20 18  1  0  0  0  0
 20 23  1  0  0  0  0
 20 34  1  1  0  0  0
 23 24  2  0  0  0  0
 23 25  1  0  0  0  0
 25 26  1  0  0  0  0
M  END
>  <minimizedAffinity>
-5.63047

$$$$
