L3:Q00961:43719
     RDKit          3D

 44 47  0  0  0  0  0  0  0  0999 V2000
   -5.2092   -0.0438    0.4199 C   0  0  0  0  0  0  0  0  0  0  0  0
   -3.9088   -0.7793    0.3577 C   0  0  0  0  0  0  0  0  0  0  0  0
   -3.8291   -2.3905    0.9403 S   0  0  0  0  0  0  0  0  0  0  0  0
   -2.1760   -2.5287    0.5588 C   0  0  0  0  0  0  0  0  0  0  0  0
   -1.4845   -3.6676    0.8147 N   0  0  0  0  0  0  0  0  0  0  0  0
   -0.2378   -3.6232    0.4698 C   0  0  0  0  0  0  0  0  0  0  0  0
    0.3901   -2.5504   -0.1351 N   0  0  0  0  0  0  0  0  0  0  0  0
    1.8016   -2.6276   -0.4752 C   0  0  0  0  0  0  0  0  0  0  0  0
    2.6067   -2.0794    0.6983 C   0  0  0  0  0  0  0  0  0  0  0  0
    2.4958   -2.5621    1.8264 O   0  0  0  0  0  0  0  0  0  0  0  0
    3.4238   -1.0212    0.4432 N   0  0  0  0  0  0  0  0  0  0  0  0
    4.2649   -0.2622    1.3482 C   0  0  0  0  0  0  0  0  0  0  0  0
    4.3537    0.8134    0.2424 C   0  0  0  0  0  0  0  0  0  0  0  0
    3.4975    2.0463    0.4921 C   0  0  0  0  0  0  0  0  0  0  0  0
    5.6098    1.2104   -0.0804 F   0  0  0  0  0  0  0  0  0  0  0  0
    3.7226   -0.2177   -0.7219 C   0  0  0  0  0  0  0  0  0  0  0  0
   -0.2796   -1.3543   -0.3813 C   0  0  0  0  0  0  0  0  0  0  0  0
    0.2707   -0.3706   -0.8706 O   0  0  0  0  0  0  0  0  0  0  0  0
   -1.6818   -1.3736   -0.0056 C   0  0  0  0  0  0  0  0  0  0  0  0
   -2.6782   -0.3481   -0.1153 C   0  0  0  0  0  0  0  0  0  0  0  0
   -2.4958    0.9935   -0.6474 C   0  0  0  0  0  0  0  0  0  0  0  0
   -2.3712    2.0828    0.2256 C   0  0  0  0  0  0  0  0  0  0  0  0
   -2.1821    3.3678   -0.2850 C   0  0  0  0  0  0  0  0  0  0  0  0
   -2.1150    3.5593   -1.6622 C   0  0  0  0  0  0  0  0  0  0  0  0
   -1.9317    4.8032   -2.1287 F   0  0  0  0  0  0  0  0  0  0  0  0
   -2.2359    2.4798   -2.5355 C   0  0  0  0  0  0  0  0  0  0  0  0
   -2.1417    2.7405   -4.4062 Br  0  0  0  0  0  0  0  0  0  0  0  0
   -2.4275    1.1927   -2.0321 C   0  0  0  0  0  0  0  0  0  0  0  0
   -6.0553   -0.7127    0.6092 H   0  0  0  0  0  0  0  0  0  0  0  0
   -5.4065    0.4718   -0.5257 H   0  0  0  0  0  0  0  0  0  0  0  0
   -5.1821    0.7019    1.2212 H   0  0  0  0  0  0  0  0  0  0  0  0
    0.4132   -4.4946    0.6482 H   0  0  0  0  0  0  0  0  0  0  0  0
    2.0978   -3.6716   -0.6244 H   0  0  0  0  0  0  0  0  0  0  0  0
    1.9968   -2.0791   -1.3999 H   0  0  0  0  0  0  0  0  0  0  0  0
    5.2055   -0.7723    1.5752 H   0  0  0  0  0  0  0  0  0  0  0  0
    3.7663    0.0386    2.2733 H   0  0  0  0  0  0  0  0  0  0  0  0
    2.4672    1.7825    0.7544 H   0  0  0  0  0  0  0  0  0  0  0  0
    3.4674    2.6786   -0.4011 H   0  0  0  0  0  0  0  0  0  0  0  0
    3.9134    2.6418    1.3112 H   0  0  0  0  0  0  0  0  0  0  0  0
    2.8496    0.1312   -1.2772 H   0  0  0  0  0  0  0  0  0  0  0  0
    4.4274   -0.7071   -1.4003 H   0  0  0  0  0  0  0  0  0  0  0  0
   -2.4135    1.9344    1.3026 H   0  0  0  0  0  0  0  0  0  0  0  0
   -2.0821    4.2196    0.3805 H   0  0  0  0  0  0  0  0  0  0  0  0
   -2.5166    0.3471   -2.7094 H   0  0  0  0  0  0  0  0  0  0  0  0
  1  2  1  0
  2  3  1  0
  3  4  1  0
  4  5  1  0
  5  6  2  0
  6  7  1  0
  7  8  1  0
  8  9  1  0
  9 10  2  0
  9 11  1  0
 11 12  1  0
 12 13  1  0
 13 14  1  0
 13 15  1  0
 13 16  1  0
  7 17  1  0
 17 18  2  0
 17 19  1  0
 19 20  1  0
 20 21  1  0
 21 22  2  0
 22 23  1  0
 23 24  2  0
 24 25  1  0
 24 26  1  0
 26 27  1  0
 26 28  2  0
 20  2  2  0
 28 21  1  0
 19  4  2  0
 16 11  1  0
  1 29  1  0
  1 30  1  0
  1 31  1  0
  6 32  1  0
  8 33  1  0
  8 34  1  0
 12 35  1  0
 12 36  1  0
 14 37  1  0
 14 38  1  0
 14 39  1  0
 16 40  1  0
 16 41  1  0
 22 42  1  0
 23 43  1  0
 28 44  1  0
M  END
>  <mol_id>  (1) 
43719

>  <source_index>  (1) 
1

>  <layer>  (1) 
L3

>  <uniprot>  (1) 
Q00961

>  <paff>  (1) 
6.2007000000000003

>  <smiles>  (1) 
Cc1sc2ncn(CC(=O)N3CC(C)(F)C3)c(=O)c2c1-c1ccc(F)c(Br)c1

$$$$
