L3:Q00961:43719


 28 31  0  0  0  0  0  0  0  0999 V2000
  132.6266  174.9645  163.7539 C   0  0  0  0  0  0  0  0  0  0  0  0
  132.0328  175.8067  164.8374 C   0  0  0  0  0  0  0  0  0  0  0  0
  130.5561  176.6287  164.5451 S   0  0  0  0  0  0  0  0  0  0  0  0
  130.5335  177.3042  166.1074 C   0  0  0  0  0  0  0  0  0  0  0  0
  129.5315  178.1271  166.5070 N   0  0  0  0  0  0  0  0  0  0  0  0
  129.6508  178.5622  167.7201 C   0  0  0  0  0  0  0  0  0  0  0  0
  130.6708  178.2345  168.5938 N   0  0  0  0  0  0  0  0  0  0  0  0
  131.7328  177.4208  168.2067 C   0  0  0  0  0  0  0  0  0  0  0  0
  132.6761  177.1577  168.9490 O   0  0  0  0  0  0  0  0  0  0  0  0
  131.6266  176.9158  166.8498 C   0  0  0  0  0  0  0  0  0  0  0  0
  132.5090  176.0556  166.1162 C   0  0  0  0  0  0  0  0  0  0  0  0
  133.7573  175.4771  166.5888 C   0  0  0  0  0  0  0  0  0  0  0  0
  134.9414  176.2248  166.5340 C   0  0  0  0  0  0  0  0  0  0  0  0
  136.1360  175.6745  167.0005 C   0  0  0  0  0  0  0  0  0  0  0  0
  136.1431  174.3837  167.5217 C   0  0  0  0  0  0  0  0  0  0  0  0
  137.3032  173.8772  167.9646 F   0  0  0  0  0  0  0  0  0  0  0  0
  134.9685  173.6359  167.5810 C   0  0  0  0  0  0  0  0  0  0  0  0
  134.9785  171.8835  168.2920 Br  0  0  0  0  0  0  0  0  0  0  0  0
  133.7709  174.1788  167.1143 C   0  0  0  0  0  0  0  0  0  0  0  0
  130.6892  178.7920  169.9365 C   0  0  0  0  0  0  0  0  0  0  0  0
  130.5999  180.3103  169.8250 C   0  0  0  0  0  0  0  0  0  0  0  0
  131.5507  180.9745  169.4096 O   0  0  0  0  0  0  0  0  0  0  0  0
  129.4374  180.8900  170.2315 N   0  0  0  0  0  0  0  0  0  0  0  0
  129.0741  182.2925  170.2912 C   0  0  0  0  0  0  0  0  0  0  0  0
  127.8971  181.8708  171.1991 C   0  0  0  0  0  0  0  0  0  0  0  0
  128.0998  182.1754  172.6761 C   0  0  0  0  0  0  0  0  0  0  0  0
  126.6789  182.3312  170.8201 F   0  0  0  0  0  0  0  0  0  0  0  0
  128.1988  180.4071  170.8016 C   0  0  0  0  0  0  0  0  0  0  0  0
  1  2  1  0  0  0
  2  3  1  0  0  0
  3  4  1  0  0  0
  4  5  1  0  0  0
  5  6  2  0  0  0
  6  7  1  0  0  0
  7 20  1  0  0  0
 20 21  1  0  0  0
 21 22  2  0  0  0
 21 23  1  0  0  0
 23 24  1  0  0  0
 24 25  1  0  0  0
 25 26  1  0  0  0
 25 27  1  0  0  0
 25 28  1  0  0  0
  7  8  1  0  0  0
  8  9  2  0  0  0
  8 10  1  0  0  0
 10 11  1  0  0  0
 11 12  1  0  0  0
 12 13  2  0  0  0
 13 14  1  0  0  0
 14 15  2  0  0  0
 15 16  1  0  0  0
 15 17  1  0  0  0
 17 18  1  0  0  0
 17 19  2  0  0  0
 11  2  2  0  0  0
 19 12  1  0  0  0
 10  4  2  0  0  0
 28 23  1  0  0  0
M  END
> <minimizedAffinity>
-6.32700

$$$$
