L3:Q00961:53381
 OpenBabel09212617563D

 14 13  0  0  0  0  0  0  0  0999 V2000
  128.8620  169.6923  170.7321 N   0  0  0  0  0  0  0  0  0  0  0  0
  127.9775  170.8461  171.0438 C   0  0  1  0  0  0  0  0  0  0  0  0
  129.1705  169.2794  171.6136 H   0  0  0  0  0  0  0  0  0  0  0  0
  129.7197  170.0748  170.3205 H   0  0  0  0  0  0  0  0  0  0  0  0
  128.7414  171.8954  171.8553 C   0  0  0  0  0  0  0  0  0  0  0  0
  128.2779  172.6479  172.6963 O   0  0  0  0  0  0  0  0  0  0  0  0
  130.0629  171.9384  171.5618 O   0  0  0  0  0  0  0  0  0  0  0  0
  130.3997  172.6603  172.1348 H   0  0  0  0  0  0  0  0  0  0  0  0
  127.4486  171.4918  169.7573 C   0  0  0  0  0  0  0  0  0  0  0  0
  128.0653  172.7543  169.5122 O   0  0  0  0  0  0  0  0  0  0  0  0
  127.7799  173.3625  170.2167 H   0  0  0  0  0  0  0  0  0  0  0  0
  127.1504  170.4811  171.6162 H   0  0  0  0  0  0  0  0  0  0  0  0
  126.3919  171.6333  169.8487 H   0  0  0  0  0  0  0  0  0  0  0  0
  127.6775  170.8426  168.9381 H   0  0  0  0  0  0  0  0  0  0  0  0
  1  2  1  0  0  0  0
  1  3  1  0  0  0  0
  1  4  1  0  0  0  0
  2  9  1  0  0  0  0
  2  5  1  0  0  0  0
  2 12  1  1  0  0  0
  5  6  2  0  0  0  0
  5  7  1  0  0  0  0
  7  8  1  0  0  0  0
  9 10  1  0  0  0  0
  9 13  1  0  0  0  0
  9 14  1  0  0  0  0
 10 11  1  0  0  0  0
M  END
>  <minimizedAffinity>
-5.29949

$$$$
