L3:Q00961:53381
     RDKit          3D

 14 13  0  0  0  0  0  0  0  0999 V2000
    0.3626    1.6139   -0.4464 N   0  0  0  0  0  0  0  0  0  0  0  0
   -0.0983    0.2006   -0.4765 C   0  0  2  0  0  0  0  0  0  0  0  0
   -1.2538   -0.0179    0.5077 C   0  0  0  0  0  0  0  0  0  0  0  0
   -2.0124   -1.1794    0.1764 O   0  0  0  0  0  0  0  0  0  0  0  0
    1.0538   -0.7404   -0.1157 C   0  0  0  0  0  0  0  0  0  0  0  0
    1.2534   -1.8566   -0.5657 O   0  0  0  0  0  0  0  0  0  0  0  0
    1.9028   -0.2171    0.8007 O   0  0  0  0  0  0  0  0  0  0  0  0
    1.1127    1.7196   -1.1312 H   0  0  0  0  0  0  0  0  0  0  0  0
    0.8253    1.7591    0.4570 H   0  0  0  0  0  0  0  0  0  0  0  0
   -0.4079   -0.0334   -1.5011 H   0  0  0  0  0  0  0  0  0  0  0  0
   -1.9479    0.8301    0.4932 H   0  0  0  0  0  0  0  0  0  0  0  0
   -0.8930   -0.1349    1.5354 H   0  0  0  0  0  0  0  0  0  0  0  0
   -2.4549   -1.0089   -0.6738 H   0  0  0  0  0  0  0  0  0  0  0  0
    2.5575   -0.9347    0.9399 H   0  0  0  0  0  0  0  0  0  0  0  0
  1  2  1  0
  2  3  1  0
  3  4  1  0
  2  5  1  0
  5  6  2  0
  5  7  1  0
  1  8  1  0
  1  9  1  0
  2 10  1  6
  3 11  1  0
  3 12  1  0
  4 13  1  0
  7 14  1  0
M  END
>  <mol_id>  (1) 
53381

>  <source_index>  (1) 
2

>  <layer>  (1) 
L3

>  <uniprot>  (1) 
Q00961

>  <paff>  (1) 
6.6778000000000004

>  <smiles>  (1) 
N[C@H](CO)C(=O)O

$$$$
