L3:Q00961:69000


 25 26  0  0  0  0  0  0  0  0999 V2000
  128.5204  182.5409  170.3410 N   0  0  0  0  0  0  0  0  0  0  0  0
  128.6787  181.1718  170.4230 C   0  0  0  0  0  0  0  0  0  0  0  0
  127.7447  180.4430  170.7576 O   0  0  0  0  0  0  0  0  0  0  0  0
  129.3028  183.0906  170.0111 H   0  0  0  0  0  0  0  0  0  0  0  0
  130.0013  180.6594  170.0891 C   0  0  0  0  0  0  0  0  0  0  0  0
  131.1807  181.3784  170.0680 C   0  0  0  0  0  0  0  0  0  0  0  0
  132.3022  180.5806  169.7010 C   0  0  0  0  0  0  0  0  0  0  0  0
  131.9596  179.2678  169.4358 C   0  0  0  0  0  0  0  0  0  0  0  0
  130.2747  179.0244  169.6606 S   0  0  0  0  0  0  0  0  0  0  0  0
  132.8319  178.1512  169.0424 C   0  0  0  0  0  0  0  0  0  0  0  0
  133.6258  177.4740  169.9832 C   0  0  0  0  0  0  0  0  0  0  0  0
  134.4438  176.4062  169.5969 C   0  0  0  0  0  0  0  0  0  0  0  0
  134.4788  175.9951  168.2659 C   0  0  0  0  0  0  0  0  0  0  0  0
  133.6932  176.6498  167.3208 C   0  0  0  0  0  0  0  0  0  0  0  0
  132.8794  177.7130  167.7112 C   0  0  0  0  0  0  0  0  0  0  0  0
  132.1412  178.3174  166.7668 F   0  0  0  0  0  0  0  0  0  0  0  0
  127.2481  183.1899  170.6095 C   0  0  0  0  0  0  0  0  0  0  0  0
  126.2422  182.3884  172.7888 N   0  0  0  0  0  0  0  0  0  0  0  0
  127.0006  183.4704  172.1065 C   0  0  0  0  0  0  0  0  0  0  0  0
  126.5410  181.4882  172.3988 H   0  0  0  0  0  0  0  0  0  0  0  0
  126.5437  182.3712  173.7676 H   0  0  0  0  0  0  0  0  0  0  0  0
  128.3559  183.7096  172.7784 C   0  0  0  0  0  0  0  0  0  0  0  0
  128.9692  182.9151  173.4738 O   0  0  0  0  0  0  0  0  0  0  0  0
  128.8899  184.9224  172.5043 O   0  0  0  0  0  0  0  0  0  0  0  0
  129.7456  184.9212  172.9832 H   0  0  0  0  0  0  0  0  0  0  0  0
 18 19  1  0  0  0
 19 17  1  0  0  0
 17  1  1  0  0  0
  1  2  1  0  0  0
  2  3  2  0  0  0
  2  5  1  0  0  0
  5  6  2  0  0  0
  6  7  1  0  0  0
  7  8  2  0  0  0
  8 10  1  0  0  0
 10 11  2  0  0  0
 11 12  1  0  0  0
 12 13  2  0  0  0
 13 14  1  0  0  0
 14 15  2  0  0  0
 15 16  1  0  0  0
  8  9  1  0  0  0
 19 22  1  0  0  0
 22 23  2  0  0  0
 22 24  1  0  0  0
  9  5  1  0  0  0
 15 10  1  0  0  0
 18 20  1  0  0  0
 18 21  1  0  0  0
  1  4  1  0  0  0
 24 25  1  0  0  0
M  END
> <minimizedAffinity>
-5.51358

$$$$
