L3:Q00961:7921
     RDKit          3D

 42 45  0  0  0  0  0  0  0  0999 V2000
    2.0885    2.9383    0.8308 C   0  0  0  0  0  0  0  0  0  0  0  0
    3.3498    2.3138    0.2512 C   0  0  0  0  0  0  0  0  0  0  0  0
    4.2356    3.2994   -0.0371 F   0  0  0  0  0  0  0  0  0  0  0  0
    3.9172    1.1342    1.0733 C   0  0  0  0  0  0  0  0  0  0  0  0
    3.3353    0.2562    0.0756 N   0  0  0  0  0  0  0  0  0  0  0  0
    3.0648   -1.0758    0.1425 C   0  0  0  0  0  0  0  0  0  0  0  0
    3.3346   -1.7484    1.1389 O   0  0  0  0  0  0  0  0  0  0  0  0
    2.3615   -1.7000   -1.0583 C   0  0  0  0  0  0  0  0  0  0  0  0
    1.1048   -2.2663   -0.5918 N   0  0  0  0  0  0  0  0  0  0  0  0
    1.0414   -3.5907   -0.2006 C   0  0  0  0  0  0  0  0  0  0  0  0
   -0.0157   -4.1914    0.2444 N   0  0  0  0  0  0  0  0  0  0  0  0
   -1.1114   -3.3992    0.3445 C   0  0  0  0  0  0  0  0  0  0  0  0
   -2.5929   -4.0068    0.9204 S   0  0  0  0  0  0  0  0  0  0  0  0
   -3.3593   -2.4818    0.7756 C   0  0  0  0  0  0  0  0  0  0  0  0
   -4.7274   -2.2917    1.1500 C   0  0  0  0  0  0  0  0  0  0  0  0
   -5.8390   -2.1276    1.4404 N   0  0  0  0  0  0  0  0  0  0  0  0
   -2.4980   -1.5154    0.2762 C   0  0  0  0  0  0  0  0  0  0  0  0
   -2.9121   -0.1304    0.0817 C   0  0  0  0  0  0  0  0  0  0  0  0
   -3.8023    0.2064   -0.9476 C   0  0  0  0  0  0  0  0  0  0  0  0
   -4.1768    1.5381   -1.1387 C   0  0  0  0  0  0  0  0  0  0  0  0
   -3.6570    2.5286   -0.3102 C   0  0  0  0  0  0  0  0  0  0  0  0
   -4.0255    3.8007   -0.5206 F   0  0  0  0  0  0  0  0  0  0  0  0
   -2.7688    2.2023    0.7119 C   0  0  0  0  0  0  0  0  0  0  0  0
   -2.0477    3.5475    1.8285 Br  0  0  0  0  0  0  0  0  0  0  0  0
   -2.3967    0.8725    0.9148 C   0  0  0  0  0  0  0  0  0  0  0  0
   -1.1924   -2.0619    0.0263 C   0  0  0  0  0  0  0  0  0  0  0  0
    0.0045   -1.4200   -0.4895 C   0  0  0  0  0  0  0  0  0  0  0  0
    0.0429   -0.2325   -0.7989 O   0  0  0  0  0  0  0  0  0  0  0  0
    3.0947    1.3042   -0.8927 C   0  0  0  0  0  0  0  0  0  0  0  0
    1.3357    2.1826    1.0801 H   0  0  0  0  0  0  0  0  0  0  0  0
    2.3221    3.4970    1.7427 H   0  0  0  0  0  0  0  0  0  0  0  0
    1.6426    3.6357    0.1144 H   0  0  0  0  0  0  0  0  0  0  0  0
    3.5045    1.0056    2.0773 H   0  0  0  0  0  0  0  0  0  0  0  0
    5.0088    1.0712    1.1027 H   0  0  0  0  0  0  0  0  0  0  0  0
    2.1759   -0.9721   -1.8517 H   0  0  0  0  0  0  0  0  0  0  0  0
    3.0096   -2.4889   -1.4548 H   0  0  0  0  0  0  0  0  0  0  0  0
    1.9890   -4.1450   -0.3003 H   0  0  0  0  0  0  0  0  0  0  0  0
   -4.2056   -0.5565   -1.6104 H   0  0  0  0  0  0  0  0  0  0  0  0
   -4.8668    1.8114   -1.9314 H   0  0  0  0  0  0  0  0  0  0  0  0
   -1.6982    0.6202    1.7093 H   0  0  0  0  0  0  0  0  0  0  0  0
    3.8402    1.3147   -1.6933 H   0  0  0  0  0  0  0  0  0  0  0  0
    2.0897    1.3219   -1.3184 H   0  0  0  0  0  0  0  0  0  0  0  0
  1  2  1  0
  2  3  1  0
  2  4  1  0
  4  5  1  0
  5  6  1  0
  6  7  2  0
  6  8  1  0
  8  9  1  0
  9 10  1  0
 10 11  2  0
 11 12  1  0
 12 13  1  0
 13 14  1  0
 14 15  1  0
 15 16  3  0
 14 17  2  0
 17 18  1  0
 18 19  2  0
 19 20  1  0
 20 21  2  0
 21 22  1  0
 21 23  1  0
 23 24  1  0
 23 25  2  0
 17 26  1  0
 26 27  1  0
 27 28  2  0
  5 29  1  0
 29  2  1  0
 27  9  1  0
 26 12  2  0
 25 18  1  0
  1 30  1  0
  1 31  1  0
  1 32  1  0
  4 33  1  0
  4 34  1  0
  8 35  1  0
  8 36  1  0
 10 37  1  0
 19 38  1  0
 20 39  1  0
 25 40  1  0
 29 41  1  0
 29 42  1  0
M  END
>  <mol_id>  (1) 
7921

>  <source_index>  (1) 
0

>  <layer>  (1) 
L3

>  <uniprot>  (1) 
Q00961

>  <paff>  (1) 
6.0269000000000004

>  <smiles>  (1) 
CC1(F)CN(C(=O)Cn2cnc3sc(C#N)c(-c4ccc(F)c(Br)c4)c3c2=O)C1

$$$$
