L3:Q00961:88925


 26 27  0  0  0  0  0  0  0  0999 V2000
  128.5336  182.5093  170.3025 N   0  0  0  0  0  0  0  0  0  0  0  0
  128.7471  181.1461  170.4014 C   0  0  0  0  0  0  0  0  0  0  0  0
  127.8339  180.3982  170.7479 O   0  0  0  0  0  0  0  0  0  0  0  0
  129.2795  183.1131  169.9899 H   0  0  0  0  0  0  0  0  0  0  0  0
  130.0984  180.6998  170.0851 C   0  0  0  0  0  0  0  0  0  0  0  0
  131.2947  181.3959  170.0634 C   0  0  0  0  0  0  0  0  0  0  0  0
  132.3886  180.5664  169.6974 C   0  0  0  0  0  0  0  0  0  0  0  0
  134.1423  181.2731  169.6169 Br  0  0  0  0  0  0  0  0  0  0  0  0
  132.0310  179.2617  169.4461 C   0  0  0  0  0  0  0  0  0  0  0  0
  130.3447  179.0487  169.6732 S   0  0  0  0  0  0  0  0  0  0  0  0
  132.8446  178.1196  169.0307 C   0  0  0  0  0  0  0  0  0  0  0  0
  133.6278  177.4217  169.9617 C   0  0  0  0  0  0  0  0  0  0  0  0
  134.4111  176.3364  169.5568 C   0  0  0  0  0  0  0  0  0  0  0  0
  134.4206  175.9381  168.2199 C   0  0  0  0  0  0  0  0  0  0  0  0
  133.6466  176.6243  167.2860 C   0  0  0  0  0  0  0  0  0  0  0  0
  132.8676  177.7050  167.6941 C   0  0  0  0  0  0  0  0  0  0  0  0
  132.1271  178.3412  166.7729 F   0  0  0  0  0  0  0  0  0  0  0  0
  127.2319  183.1121  170.5664 C   0  0  0  0  0  0  0  0  0  0  0  0
  126.2087  182.3562  172.7695 N   0  0  0  0  0  0  0  0  0  0  0  0
  126.9594  183.4162  172.0532 C   0  0  0  0  0  0  0  0  0  0  0  0
  126.8851  181.6440  173.0570 H   0  0  0  0  0  0  0  0  0  0  0  0
  125.6034  181.8752  172.0929 H   0  0  0  0  0  0  0  0  0  0  0  0
  128.2901  183.7138  172.7437 C   0  0  0  0  0  0  0  0  0  0  0  0
  128.8956  182.9563  173.4870 O   0  0  0  0  0  0  0  0  0  0  0  0
  128.7544  184.9672  172.5339 O   0  0  0  0  0  0  0  0  0  0  0  0
  129.6226  184.9767  172.9882 H   0  0  0  0  0  0  0  0  0  0  0  0
 19 20  1  0  0  0
 20 18  1  0  0  0
 18  1  1  0  0  0
  1  2  1  0  0  0
  2  3  2  0  0  0
  2  5  1  0  0  0
  5  6  2  0  0  0
  6  7  1  0  0  0
  7  8  1  0  0  0
  7  9  2  0  0  0
  9 11  1  0  0  0
 11 12  2  0  0  0
 12 13  1  0  0  0
 13 14  2  0  0  0
 14 15  1  0  0  0
 15 16  2  0  0  0
 16 17  1  0  0  0
  9 10  1  0  0  0
 20 23  1  0  0  0
 23 24  2  0  0  0
 23 25  1  0  0  0
 10  5  1  0  0  0
 16 11  1  0  0  0
 19 21  1  0  0  0
 19 22  1  0  0  0
  1  4  1  0  0  0
 25 26  1  0  0  0
M  END
> <minimizedAffinity>
-5.59489

$$$$
