L3:Q00961:88925
     RDKit          3D

 34 35  0  0  0  0  0  0  0  0999 V2000
   -4.0556   -2.0514   -0.1274 N   0  0  0  0  0  0  0  0  0  0  0  0
   -4.7918   -0.7894   -0.3831 C   0  0  2  0  0  0  0  0  0  0  0  0
   -4.0204    0.2385   -1.2351 C   0  0  0  0  0  0  0  0  0  0  0  0
   -2.6685    0.5189   -0.7649 N   0  0  0  0  0  0  0  0  0  0  0  0
   -1.5877   -0.2681   -1.1201 C   0  0  0  0  0  0  0  0  0  0  0  0
   -1.7481   -1.2585   -1.8320 O   0  0  0  0  0  0  0  0  0  0  0  0
   -0.3006    0.1578   -0.5842 C   0  0  0  0  0  0  0  0  0  0  0  0
    0.0049    1.0982    0.3845 C   0  0  0  0  0  0  0  0  0  0  0  0
    1.4044    1.2007    0.6068 C   0  0  0  0  0  0  0  0  0  0  0  0
    2.0836    2.4010    1.9026 Br  0  0  0  0  0  0  0  0  0  0  0  0
    2.1507    0.3523   -0.1784 C   0  0  0  0  0  0  0  0  0  0  0  0
    3.5992    0.1694   -0.2642 C   0  0  0  0  0  0  0  0  0  0  0  0
    4.1950   -1.0321    0.1465 C   0  0  0  0  0  0  0  0  0  0  0  0
    5.5815   -1.1976    0.0710 C   0  0  0  0  0  0  0  0  0  0  0  0
    6.3858   -0.1661   -0.4139 C   0  0  0  0  0  0  0  0  0  0  0  0
    5.8048    1.0323   -0.8245 C   0  0  0  0  0  0  0  0  0  0  0  0
    4.4229    1.1925   -0.7476 C   0  0  0  0  0  0  0  0  0  0  0  0
    3.8920    2.3552   -1.1575 F   0  0  0  0  0  0  0  0  0  0  0  0
    1.1282   -0.5860   -1.1857 S   0  0  0  0  0  0  0  0  0  0  0  0
   -5.2148   -0.1216    0.9251 C   0  0  0  0  0  0  0  0  0  0  0  0
   -6.1128    0.6970    1.0528 O   0  0  0  0  0  0  0  0  0  0  0  0
   -4.4452   -0.4502    1.9883 O   0  0  0  0  0  0  0  0  0  0  0  0
   -3.4325   -1.8860    0.6674 H   0  0  0  0  0  0  0  0  0  0  0  0
   -3.4217   -2.2218   -0.9177 H   0  0  0  0  0  0  0  0  0  0  0  0
   -5.7171   -1.0610   -0.9042 H   0  0  0  0  0  0  0  0  0  0  0  0
   -3.9541   -0.1221   -2.2684 H   0  0  0  0  0  0  0  0  0  0  0  0
   -4.5490    1.1982   -1.2548 H   0  0  0  0  0  0  0  0  0  0  0  0
   -2.5250    1.3459   -0.2045 H   0  0  0  0  0  0  0  0  0  0  0  0
   -0.7315    1.6803    0.9226 H   0  0  0  0  0  0  0  0  0  0  0  0
    3.5842   -1.8464    0.5310 H   0  0  0  0  0  0  0  0  0  0  0  0
    6.0331   -2.1338    0.3914 H   0  0  0  0  0  0  0  0  0  0  0  0
    7.4636   -0.2971   -0.4727 H   0  0  0  0  0  0  0  0  0  0  0  0
    6.4170    1.8434   -1.2061 H   0  0  0  0  0  0  0  0  0  0  0  0
   -4.8743    0.0074    2.7411 H   0  0  0  0  0  0  0  0  0  0  0  0
  1  2  1  0
  2  3  1  0
  3  4  1  0
  4  5  1  0
  5  6  2  0
  5  7  1  0
  7  8  2  0
  8  9  1  0
  9 10  1  0
  9 11  2  0
 11 12  1  0
 12 13  2  0
 13 14  1  0
 14 15  2  0
 15 16  1  0
 16 17  2  0
 17 18  1  0
 11 19  1  0
  2 20  1  0
 20 21  2  0
 20 22  1  0
 19  7  1  0
 17 12  1  0
  1 23  1  0
  1 24  1  0
  2 25  1  6
  3 26  1  0
  3 27  1  0
  4 28  1  0
  8 29  1  0
 13 30  1  0
 14 31  1  0
 15 32  1  0
 16 33  1  0
 22 34  1  0
M  END
>  <mol_id>  (1) 
88925

>  <source_index>  (1) 
4

>  <layer>  (1) 
L3

>  <uniprot>  (1) 
Q00961

>  <paff>  (1) 
7.4684999999999997

>  <smiles>  (1) 
N[C@H](CNC(=O)c1cc(Br)c(-c2ccccc2F)s1)C(=O)O

$$$$
