L3:Q00961:89763
     RDKit          3D

 45 47  0  0  0  0  0  0  0  0999 V2000
    0.7615    1.8382   -1.0941 C   0  0  0  0  0  0  0  0  0  0  0  0
    0.2111    0.4466   -1.1696 C   0  0  0  0  0  0  0  0  0  0  0  0
   -1.1277    0.2952   -0.9723 N   0  0  0  0  0  0  0  0  0  0  0  0
   -1.5843   -0.9888   -1.0468 C   0  0  0  0  0  0  0  0  0  0  0  0
   -3.0422   -1.2058   -0.8340 C   0  0  0  0  0  0  0  0  0  0  0  0
   -3.5353   -2.3257   -0.8909 O   0  0  0  0  0  0  0  0  0  0  0  0
   -3.7559   -0.0585   -0.5692 N   0  0  0  0  0  0  0  0  0  0  0  0
   -5.1686   -0.0615   -0.2866 C   0  0  0  0  0  0  0  0  0  0  0  0
   -5.4232    0.0035    1.1895 C   0  0  0  0  0  0  0  0  0  0  0  0
   -5.6392    1.2174    1.8478 C   0  0  0  0  0  0  0  0  0  0  0  0
   -5.8557    1.2272    3.2229 C   0  0  0  0  0  0  0  0  0  0  0  0
   -5.8425    0.0183    3.8983 C   0  0  0  0  0  0  0  0  0  0  0  0
   -5.6274   -1.1724    3.3009 N   0  0  0  0  0  0  0  0  0  0  0  0
   -5.4176   -1.1531    1.9641 C   0  0  0  0  0  0  0  0  0  0  0  0
   -0.7508   -2.0644   -1.3078 C   0  0  0  0  0  0  0  0  0  0  0  0
    0.5837   -1.9163   -1.5087 N   0  0  0  0  0  0  0  0  0  0  0  0
    1.0472   -0.6467   -1.4307 C   0  0  0  0  0  0  0  0  0  0  0  0
    2.3896   -0.4054   -1.6269 O   0  0  0  0  0  0  0  0  0  0  0  0
    3.1680   -1.6031   -1.7878 C   0  0  0  0  0  0  0  0  0  0  0  0
    4.6494   -1.2538   -1.9652 C   0  0  0  0  0  0  0  0  0  0  0  0
    4.7704   -0.5159   -3.1163 F   0  0  0  0  0  0  0  0  0  0  0  0
    5.3296   -2.4125   -2.2301 F   0  0  0  0  0  0  0  0  0  0  0  0
    5.2172   -0.5343   -0.7480 C   0  0  0  0  0  0  0  0  0  0  0  0
    5.8933    0.6713   -0.9096 C   0  0  0  0  0  0  0  0  0  0  0  0
    6.4116    1.2959    0.2183 C   0  0  0  0  0  0  0  0  0  0  0  0
    7.2450    2.7926    0.0567 Cl  0  0  0  0  0  0  0  0  0  0  0  0
    6.2633    0.7246    1.4729 C   0  0  0  0  0  0  0  0  0  0  0  0
    5.5878   -0.4758    1.5503 C   0  0  0  0  0  0  0  0  0  0  0  0
    5.0666   -1.1113    0.4779 N   0  0  0  0  0  0  0  0  0  0  0  0
    1.5080    1.9097   -0.2969 H   0  0  0  0  0  0  0  0  0  0  0  0
    1.2209    2.1182   -2.0471 H   0  0  0  0  0  0  0  0  0  0  0  0
   -0.0342    2.5586   -0.8777 H   0  0  0  0  0  0  0  0  0  0  0  0
   -3.2276    0.8081   -0.5171 H   0  0  0  0  0  0  0  0  0  0  0  0
   -5.6434   -0.9509   -0.7165 H   0  0  0  0  0  0  0  0  0  0  0  0
   -5.6040    0.8098   -0.7882 H   0  0  0  0  0  0  0  0  0  0  0  0
   -5.6407    2.1543    1.2972 H   0  0  0  0  0  0  0  0  0  0  0  0
   -6.0295    2.1550    3.7559 H   0  0  0  0  0  0  0  0  0  0  0  0
   -6.0073   -0.0259    4.9710 H   0  0  0  0  0  0  0  0  0  0  0  0
   -5.2344   -2.1279    1.5164 H   0  0  0  0  0  0  0  0  0  0  0  0
   -1.1296   -3.0798   -1.3637 H   0  0  0  0  0  0  0  0  0  0  0  0
    2.8362   -2.1325   -2.6903 H   0  0  0  0  0  0  0  0  0  0  0  0
    3.0418   -2.2660   -0.9219 H   0  0  0  0  0  0  0  0  0  0  0  0
    6.0147    1.1141   -1.8936 H   0  0  0  0  0  0  0  0  0  0  0  0
    6.6626    1.1943    2.3640 H   0  0  0  0  0  0  0  0  0  0  0  0
    5.4416   -0.9774    2.5034 H   0  0  0  0  0  0  0  0  0  0  0  0
  1  2  1  0
  2  3  2  0
  3  4  1  0
  4  5  1  0
  5  6  2  0
  5  7  1  0
  7  8  1  0
  8  9  1  0
  9 10  2  0
 10 11  1  0
 11 12  2  0
 12 13  1  0
 13 14  2  0
  4 15  2  0
 15 16  1  0
 16 17  2  0
 17 18  1  0
 18 19  1  0
 19 20  1  0
 20 21  1  0
 20 22  1  0
 20 23  1  0
 23 24  2  0
 24 25  1  0
 25 26  1  0
 25 27  2  0
 27 28  1  0
 28 29  2  0
 17  2  1  0
 29 23  1  0
 14  9  1  0
  1 30  1  0
  1 31  1  0
  1 32  1  0
  7 33  1  0
  8 34  1  0
  8 35  1  0
 10 36  1  0
 11 37  1  0
 12 38  1  0
 14 39  1  0
 15 40  1  0
 19 41  1  0
 19 42  1  0
 24 43  1  0
 27 44  1  0
 28 45  1  0
M  END
>  <mol_id>  (1) 
89763

>  <source_index>  (1) 
5

>  <layer>  (1) 
L3

>  <uniprot>  (1) 
Q00961

>  <paff>  (1) 
7.0555000000000003

>  <smiles>  (1) 
Cc1nc(C(=O)NCc2cccnc2)cnc1OCC(F)(F)c1cc(Cl)ccn1

$$$$
