L3:Q00961:93521


 27 30  0  0  0  0  0  0  0  0999 V2000
  131.6446  177.5583  168.2992 N   0  0  0  0  0  0  0  0  0  0  0  0
  131.7984  177.4880  166.9274 C   0  0  0  0  0  0  0  0  0  0  0  0
  131.4997  178.4274  166.0889 N   0  0  0  0  0  0  0  0  0  0  0  0
  131.0237  179.5601  166.6638 C   0  0  0  0  0  0  0  0  0  0  0  0
  130.5792  180.9097  165.7216 S   0  0  0  0  0  0  0  0  0  0  0  0
  130.1523  181.8150  167.1085 C   0  0  0  0  0  0  0  0  0  0  0  0
  130.3400  181.1062  168.2807 C   0  0  0  0  0  0  0  0  0  0  0  0
  130.8436  179.7895  168.0124 C   0  0  0  0  0  0  0  0  0  0  0  0
  131.1921  178.7163  168.9270 C   0  0  0  0  0  0  0  0  0  0  0  0
  131.0997  178.8184  170.1478 O   0  0  0  0  0  0  0  0  0  0  0  0
  130.0273  181.7103  169.5675 C   0  0  0  0  0  0  0  0  0  0  0  0
  130.9187  182.6204  170.1545 C   0  0  0  0  0  0  0  0  0  0  0  0
  130.6213  183.1945  171.3920 C   0  0  0  0  0  0  0  0  0  0  0  0
  129.4367  182.8593  172.0408 C   0  0  0  0  0  0  0  0  0  0  0  0
  129.1741  183.4224  173.2292 F   0  0  0  0  0  0  0  0  0  0  0  0
  128.5448  181.9573  171.4650 C   0  0  0  0  0  0  0  0  0  0  0  0
  126.9360  181.4989  172.3473 Br  0  0  0  0  0  0  0  0  0  0  0  0
  128.8351  181.3822  170.2268 C   0  0  0  0  0  0  0  0  0  0  0  0
  132.0196  176.4284  169.1342 C   0  0  0  0  0  0  0  0  0  0  0  0
  134.9691  172.3550  168.4514 C   0  0  0  0  0  0  0  0  0  0  0  0
  134.8636  173.5611  167.5299 C   0  0  0  0  0  0  0  0  0  0  0  0
  135.3555  173.2256  166.3112 F   0  0  0  0  0  0  0  0  0  0  0  0
  135.4188  174.8734  168.1272 C   0  0  0  0  0  0  0  0  0  0  0  0
  134.0421  175.2817  168.3286 N   0  0  0  0  0  0  0  0  0  0  0  0
  133.5375  176.2870  169.0947 C   0  0  0  0  0  0  0  0  0  0  0  0
  134.2633  177.0374  169.7490 O   0  0  0  0  0  0  0  0  0  0  0  0
  133.4706  174.2323  167.5134 C   0  0  0  0  0  0  0  0  0  0  0  0
 20 21  1  0  0  0
 21 22  1  0  0  0
 21 23  1  0  0  0
 23 24  1  0  0  0
 24 25  1  0  0  0
 25 26  2  0  0  0
 25 19  1  0  0  0
 19  1  1  0  0  0
  1  2  1  0  0  0
  2  3  2  0  0  0
  3  4  1  0  0  0
  4  5  1  0  0  0
  5  6  1  0  0  0
  6  7  2  0  0  0
  7 11  1  0  0  0
 11 12  2  0  0  0
 12 13  1  0  0  0
 13 14  2  0  0  0
 14 15  1  0  0  0
 14 16  1  0  0  0
 16 17  1  0  0  0
 16 18  2  0  0  0
  7  8  1  0  0  0
  8  9  1  0  0  0
  9 10  2  0  0  0
 24 27  1  0  0  0
 27 21  1  0  0  0
  9  1  1  0  0  0
  8  4  2  0  0  0
 18 11  1  0  0  0
M  END
> <minimizedAffinity>
-6.07706

$$$$
