L3:Q92830:12327
     RDKit          3D

 81 85  0  0  0  0  0  0  0  0999 V2000
  -19.5030  -12.0956    8.1264 C   0  0  0  0  0  0  0  0  0  0  0  0
  -19.4072  -13.2436    8.9095 C   0  0  0  0  0  0  0  0  0  0  0  0
  -19.8642  -14.4560    8.4072 C   0  0  0  0  0  0  0  0  0  0  0  0
  -20.4682  -14.5197    7.1683 C   0  0  0  0  0  0  0  0  0  0  0  0
  -20.5582  -13.3762    6.3661 C   0  0  0  0  0  0  0  0  0  0  0  0
  -19.8816  -12.1993    6.7783 C   0  0  0  0  0  0  0  0  0  0  0  0
  -19.5021  -11.1372    5.8249 C   0  0  0  0  0  0  0  0  0  0  0  0
  -20.1269   -9.8920    5.8608 C   0  0  0  0  0  0  0  0  0  0  0  0
  -19.8828   -8.9473    4.8787 C   0  0  0  0  0  0  0  0  0  0  0  0
  -18.9528   -9.2081    3.8863 C   0  0  0  0  0  0  0  0  0  0  0  0
  -18.3292  -10.4368    3.8790 C   0  0  0  0  0  0  0  0  0  0  0  0
  -17.4729  -10.7002    2.8506 F   0  0  0  0  0  0  0  0  0  0  0  0
  -18.5211  -11.4074    4.8541 C   0  0  0  0  0  0  0  0  0  0  0  0
  -17.7317  -12.6671    4.8804 C   0  0  0  0  0  0  0  0  0  0  0  0
  -16.1846  -12.5749    4.7184 C   0  0  0  0  0  0  0  0  0  0  0  0
  -16.2514  -13.5739    3.5432 C   0  0  0  0  0  0  0  0  0  0  0  0
  -17.7930  -13.5894    3.6288 C   0  0  0  0  0  0  0  0  0  0  0  0
  -21.4245  -13.4868    5.1833 C   0  0  0  0  0  0  0  0  0  0  0  0
  -21.8075  -14.5524    4.7097 O   0  0  0  0  0  0  0  0  0  0  0  0
  -21.9004  -12.2844    4.6408 N   0  0  0  0  0  0  0  0  0  0  0  0
  -21.4792  -11.3926    4.8946 H   0  0  0  0  0  0  0  0  0  0  0  0
  -22.7254  -12.1971    3.1578 S   0  0  0  0  0  0  0  0  0  0  0  0
  -24.2685  -13.0569    3.5061 C   0  0  0  0  0  0  0  0  0  0  0  0
  -23.0272  -10.7442    3.0476 O   0  0  0  0  0  0  0  0  0  0  0  0
  -22.0206  -12.8538    2.0523 O   0  0  0  0  0  0  0  0  0  0  0  0
  -19.2054  -10.8655    8.6229 O   0  0  0  0  0  0  0  0  0  0  0  0
  -19.2045   -8.1741   10.0033 C   0  0  2  0  0  0  0  0  0  0  0  0
  -20.6401   -8.2562    9.4590 C   0  0  0  0  0  0  0  0  0  0  0  0
  -21.0964   -9.7162    9.6289 C   0  0  0  0  0  0  0  0  0  0  0  0
  -19.8272  -10.5049    9.8905 C   0  0  2  0  0  0  0  0  0  0  0  0
  -18.9110   -9.5463   10.6087 C   0  0  0  0  0  0  0  0  0  0  0  0
  -19.0839   -5.8103   10.6745 C   0  0  0  0  0  0  0  0  0  0  0  0
  -19.7208   -5.3968    9.6956 O   0  0  0  0  0  0  0  0  0  0  0  0
  -18.9825   -7.1255   10.9771 N   0  0  0  0  0  0  0  0  0  0  0  0
  -18.2878   -7.3602   11.6671 H   0  0  0  0  0  0  0  0  0  0  0  0
  -20.4725   -4.3112   12.8318 C   0  0  0  0  0  0  0  0  0  0  0  0
  -19.0589   -4.5877   12.9050 N   0  0  0  0  0  0  0  0  0  0  0  0
  -18.6302   -5.5759   13.8710 C   0  0  0  0  0  0  0  0  0  0  0  0
  -17.1251   -5.7230   13.6357 C   0  0  0  0  0  0  0  0  0  0  0  0
  -16.3670   -4.7123   14.4831 C   0  0  0  0  0  0  0  0  0  0  0  0
  -16.6348   -7.1251   13.9508 C   0  0  0  0  0  0  0  0  0  0  0  0
  -16.9901   -5.3711   12.1407 C   0  0  0  0  0  0  0  0  0  0  0  0
  -18.3610   -4.8688   11.6531 C   0  0  1  0  0  0  0  0  0  0  0  0
  -18.9271  -13.1926    9.8769 H   0  0  0  0  0  0  0  0  0  0  0  0
  -19.7540  -15.3503    9.0056 H   0  0  0  0  0  0  0  0  0  0  0  0
  -20.8855  -15.4453    6.8027 H   0  0  0  0  0  0  0  0  0  0  0  0
  -20.7801   -9.6574    6.6855 H   0  0  0  0  0  0  0  0  0  0  0  0
  -20.3885   -7.9944    4.9054 H   0  0  0  0  0  0  0  0  0  0  0  0
  -18.6719   -8.4698    3.1508 H   0  0  0  0  0  0  0  0  0  0  0  0
  -17.9678  -13.2181    5.7865 H   0  0  0  0  0  0  0  0  0  0  0  0
  -15.6346  -12.8984    5.5993 H   0  0  0  0  0  0  0  0  0  0  0  0
  -15.8323  -11.5883    4.4393 H   0  0  0  0  0  0  0  0  0  0  0  0
  -15.7788  -14.5323    3.7459 H   0  0  0  0  0  0  0  0  0  0  0  0
  -15.8560  -13.1966    2.6025 H   0  0  0  0  0  0  0  0  0  0  0  0
  -18.2503  -14.5611    3.8077 H   0  0  0  0  0  0  0  0  0  0  0  0
  -18.2909  -13.1276    2.7837 H   0  0  0  0  0  0  0  0  0  0  0  0
  -24.7661  -12.5291    4.3118 H   0  0  0  0  0  0  0  0  0  0  0  0
  -24.0331  -14.0807    3.7733 H   0  0  0  0  0  0  0  0  0  0  0  0
  -24.8551  -13.0004    2.5942 H   0  0  0  0  0  0  0  0  0  0  0  0
  -18.5160   -7.9901    9.1849 H   0  0  0  0  0  0  0  0  0  0  0  0
  -20.6607   -7.9585    8.4154 H   0  0  0  0  0  0  0  0  0  0  0  0
  -21.2922   -7.5641    9.9843 H   0  0  0  0  0  0  0  0  0  0  0  0
  -21.6238  -10.1184    8.7643 H   0  0  0  0  0  0  0  0  0  0  0  0
  -21.7746   -9.8120   10.4714 H   0  0  0  0  0  0  0  0  0  0  0  0
  -19.9998  -11.4142   10.4590 H   0  0  0  0  0  0  0  0  0  0  0  0
  -17.8731   -9.8393   10.5178 H   0  0  0  0  0  0  0  0  0  0  0  0
  -19.1268   -9.5576   11.6724 H   0  0  0  0  0  0  0  0  0  0  0  0
  -20.8352   -4.0655   13.8297 H   0  0  0  0  0  0  0  0  0  0  0  0
  -21.0701   -5.1509   12.4514 H   0  0  0  0  0  0  0  0  0  0  0  0
  -20.6715   -3.4578   12.1771 H   0  0  0  0  0  0  0  0  0  0  0  0
  -19.1117   -6.5524   13.7385 H   0  0  0  0  0  0  0  0  0  0  0  0
  -18.8709   -5.2487   14.8781 H   0  0  0  0  0  0  0  0  0  0  0  0
  -16.4418   -4.9522   15.5398 H   0  0  0  0  0  0  0  0  0  0  0  0
  -16.7618   -3.7126   14.3306 H   0  0  0  0  0  0  0  0  0  0  0  0
  -15.3070   -4.7098   14.2211 H   0  0  0  0  0  0  0  0  0  0  0  0
  -16.7791   -7.3607   15.0015 H   0  0  0  0  0  0  0  0  0  0  0  0
  -15.5749   -7.2267   13.7166 H   0  0  0  0  0  0  0  0  0  0  0  0
  -17.1575   -7.8820   13.3620 H   0  0  0  0  0  0  0  0  0  0  0  0
  -16.6311   -6.2165   11.5706 H   0  0  0  0  0  0  0  0  0  0  0  0
  -16.2598   -4.5835   12.0109 H   0  0  0  0  0  0  0  0  0  0  0  0
  -18.2806   -3.9404   11.1043 H   0  0  0  0  0  0  0  0  0  0  0  0
  1  2  2  0
  2  3  1  0
  2 44  1  0
  3  4  2  0
  3 45  1  0
  4  5  1  0
  4 46  1  0
  5 18  1  0
  5  6  2  0
  6  7  1  0
  6  1  1  0
  7  8  2  0
  8  9  1  0
  8 47  1  0
  9 10  2  0
  9 48  1  0
 10 11  1  0
 10 49  1  0
 11 12  1  0
 11 13  2  0
 13 14  1  0
 13  7  1  0
 14 15  1  0
 14 50  1  0
 15 16  1  0
 15 51  1  0
 15 52  1  0
 16 17  1  0
 16 53  1  0
 16 54  1  0
 17 14  1  0
 17 55  1  0
 17 56  1  0
 18 19  2  0
 18 20  1  0
 20 22  1  0
 20 21  1  0
 22 23  1  0
 22 24  2  0
 22 25  2  0
 23 57  1  0
 23 58  1  0
 23 59  1  0
 26  1  1  0
 27 28  1  0
 27 60  1  6
 28 29  1  0
 28 61  1  0
 28 62  1  0
 29 30  1  0
 29 63  1  0
 29 64  1  0
 30 26  1  0
 30 31  1  0
 30 65  1  1
 31 27  1  0
 31 66  1  0
 31 67  1  0
 32 33  2  0
 32 34  1  0
 34 27  1  0
 34 35  1  0
 36 37  1  0
 36 68  1  0
 36 69  1  0
 36 70  1  0
 37 38  1  0
 38 39  1  0
 38 71  1  0
 38 72  1  0
 39 40  1  0
 39 41  1  0
 39 42  1  0
 40 73  1  0
 40 74  1  0
 40 75  1  0
 41 76  1  0
 41 77  1  0
 41 78  1  0
 42 43  1  0
 42 79  1  0
 42 80  1  0
 43 32  1  0
 43 37  1  0
 43 81  1  6
M  END
>  <minimizedAffinity>  (1) 
-7.28242

>  <mol_id>  (1) 
12327

>  <source_index>  (1) 
0

>  <layer>  (1) 
L3

>  <uniprot>  (1) 
Q92830

>  <paff>  (1) 
7.6108000000000002

>  <smiles>  (1) 
CN1CC(C)(C)C[C@H]1C(=O)N[C@@H]1CC[C@@H](Oc2cccc(C(=O)NS(C)(=O)=O)c2-c2cccc(F)c2C2CCC2)C1

>  <aimnet_interaction_kcal_mol>  (1) 
-72.815395448229879

$$$$
L3:Q92830:23850
     RDKit          3D

 87 91  0  0  0  0  0  0  0  0999 V2000
  -17.2886  -15.2073    8.1845 C   0  0  0  0  0  0  0  0  0  0  0  0
  -17.6189  -15.0501    9.5234 C   0  0  0  0  0  0  0  0  0  0  0  0
  -18.6840  -14.2540    9.9003 C   0  0  0  0  0  0  0  0  0  0  0  0
  -19.4393  -13.5978    8.9361 C   0  0  0  0  0  0  0  0  0  0  0  0
  -19.1532  -13.7698    7.5744 C   0  0  0  0  0  0  0  0  0  0  0  0
  -18.0822  -14.5922    7.2287 C   0  0  0  0  0  0  0  0  0  0  0  0
  -19.8562  -12.9932    6.5364 C   0  0  0  0  0  0  0  0  0  0  0  0
  -19.1338  -12.0601    5.7947 C   0  0  0  0  0  0  0  0  0  0  0  0
  -19.7772  -11.0820    5.0543 C   0  0  0  0  0  0  0  0  0  0  0  0
  -21.1593  -11.1165    4.9497 C   0  0  0  0  0  0  0  0  0  0  0  0
  -21.8696  -12.1580    5.5313 C   0  0  0  0  0  0  0  0  0  0  0  0
  -21.2310  -13.1385    6.2821 C   0  0  0  0  0  0  0  0  0  0  0  0
  -21.9823  -14.3551    6.7629 C   0  0  0  0  0  0  0  0  0  0  0  0
  -22.4494  -15.2007    5.5790 C   0  0  0  0  0  0  0  0  0  0  0  0
  -23.1446  -13.9922    7.6806 C   0  0  0  0  0  0  0  0  0  0  0  0
  -16.0622  -16.0124    7.8122 C   0  0  1  0  0  0  0  0  0  0  0  0
  -16.3739  -17.4995    7.7524 C   0  0  0  0  0  0  0  0  0  0  0  0
  -14.9858  -14.2476    6.5448 N   0  0  0  0  0  0  0  0  0  0  0  0
  -15.4494  -15.5427    6.5068 C   0  0  0  0  0  0  0  0  0  0  0  0
  -15.3360  -16.2482    5.5142 O   0  0  0  0  0  0  0  0  0  0  0  0
  -15.2437  -13.6375    7.3312 H   0  0  0  0  0  0  0  0  0  0  0  0
  -14.5813  -13.3763    5.1135 S   0  0  0  0  0  0  0  0  0  0  0  0
  -15.7554  -13.3028    4.2226 O   0  0  0  0  0  0  0  0  0  0  0  0
  -13.9235  -12.1414    5.5824 O   0  0  0  0  0  0  0  0  0  0  0  0
  -12.2158  -14.8304    5.2836 C   0  0  0  0  0  0  0  0  0  0  0  0
  -13.3095  -14.4132    4.3331 C   0  0  0  0  0  0  0  0  0  0  0  0
  -20.5102  -12.8197    9.2790 O   0  0  0  0  0  0  0  0  0  0  0  0
  -20.2897  -11.7282   10.1988 C   0  0  2  0  0  0  0  0  0  0  0  0
  -21.6182  -10.9914   10.2452 C   0  0  0  0  0  0  0  0  0  0  0  0
  -21.5801  -10.1674    8.9604 C   0  0  0  0  0  0  0  0  0  0  0  0
  -20.1296   -9.7011    8.8321 C   0  0  2  0  0  0  0  0  0  0  0  0
  -19.3039  -10.7071    9.6376 C   0  0  0  0  0  0  0  0  0  0  0  0
  -19.9323   -8.3370    9.3345 N   0  0  0  0  0  0  0  0  0  0  0  0
  -20.5075   -7.2998    8.7014 C   0  0  0  0  0  0  0  0  0  0  0  0
  -21.1214   -7.4092    7.6334 O   0  0  0  0  0  0  0  0  0  0  0  0
  -19.1768   -8.1856    9.9867 H   0  0  0  0  0  0  0  0  0  0  0  0
  -20.5064   -5.9392    9.3967 C   0  0  1  0  0  0  0  0  0  0  0  0
  -19.7864   -5.0287    8.5604 F   0  0  0  0  0  0  0  0  0  0  0  0
  -21.9620   -5.4698    9.5053 C   0  0  0  0  0  0  0  0  0  0  0  0
  -22.0704   -4.7532   10.7468 N   0  0  0  0  0  0  0  0  0  0  0  0
  -20.7938   -4.7135   11.4513 C   0  0  0  0  0  0  0  0  0  0  0  0
  -20.1661   -3.3172   11.5763 C   0  0  0  0  0  0  0  0  0  0  0  0
  -20.4869   -3.2874   13.0808 C   0  0  0  0  0  0  0  0  0  0  0  0
  -20.9432   -4.7483   12.9753 C   0  0  0  0  0  0  0  0  0  0  0  0
  -19.9489   -5.7906   10.7859 C   0  0  0  0  0  0  0  0  0  0  0  0
  -22.5465   -3.8644   10.7207 H   0  0  0  0  0  0  0  0  0  0  0  0
  -16.9963  -15.5013   10.2842 H   0  0  0  0  0  0  0  0  0  0  0  0
  -18.9250  -14.1332   10.9482 H   0  0  0  0  0  0  0  0  0  0  0  0
  -17.8594  -14.7186    6.1741 H   0  0  0  0  0  0  0  0  0  0  0  0
  -18.0555  -12.1133    5.8175 H   0  0  0  0  0  0  0  0  0  0  0  0
  -19.2066  -10.2964    4.5746 H   0  0  0  0  0  0  0  0  0  0  0  0
  -21.6890  -10.3424    4.4055 H   0  0  0  0  0  0  0  0  0  0  0  0
  -22.9440  -12.2042    5.3877 H   0  0  0  0  0  0  0  0  0  0  0  0
  -21.2850  -14.9593    7.3418 H   0  0  0  0  0  0  0  0  0  0  0  0
  -23.1821  -14.6625    4.9764 H   0  0  0  0  0  0  0  0  0  0  0  0
  -22.9170  -16.1260    5.9183 H   0  0  0  0  0  0  0  0  0  0  0  0
  -21.6133  -15.4573    4.9299 H   0  0  0  0  0  0  0  0  0  0  0  0
  -23.9184  -13.4410    7.1456 H   0  0  0  0  0  0  0  0  0  0  0  0
  -22.7955  -13.3778    8.5036 H   0  0  0  0  0  0  0  0  0  0  0  0
  -23.6141  -14.8886    8.0888 H   0  0  0  0  0  0  0  0  0  0  0  0
  -15.3188  -15.8337    8.5940 H   0  0  0  0  0  0  0  0  0  0  0  0
  -17.1200  -17.7009    6.9875 H   0  0  0  0  0  0  0  0  0  0  0  0
  -16.7641  -17.8239    8.7148 H   0  0  0  0  0  0  0  0  0  0  0  0
  -15.4844  -18.0799    7.5167 H   0  0  0  0  0  0  0  0  0  0  0  0
  -11.4092  -15.2917    4.7162 H   0  0  0  0  0  0  0  0  0  0  0  0
  -12.5885  -15.5529    6.0019 H   0  0  0  0  0  0  0  0  0  0  0  0
  -11.8076  -13.9868    5.8327 H   0  0  0  0  0  0  0  0  0  0  0  0
  -13.8472  -15.2540    3.9108 H   0  0  0  0  0  0  0  0  0  0  0  0
  -12.9581  -13.7587    3.5371 H   0  0  0  0  0  0  0  0  0  0  0  0
  -19.9605  -12.1266   11.1554 H   0  0  0  0  0  0  0  0  0  0  0  0
  -21.6827  -10.3517   11.1166 H   0  0  0  0  0  0  0  0  0  0  0  0
  -22.4637  -11.6754   10.3012 H   0  0  0  0  0  0  0  0  0  0  0  0
  -22.2742   -9.3418    8.9559 H   0  0  0  0  0  0  0  0  0  0  0  0
  -21.8165  -10.8047    8.1155 H   0  0  0  0  0  0  0  0  0  0  0  0
  -19.8627   -9.6910    7.7806 H   0  0  0  0  0  0  0  0  0  0  0  0
  -18.7962  -10.2296   10.4703 H   0  0  0  0  0  0  0  0  0  0  0  0
  -18.5440  -11.1754    9.0230 H   0  0  0  0  0  0  0  0  0  0  0  0
  -22.5953   -6.3599    9.5174 H   0  0  0  0  0  0  0  0  0  0  0  0
  -22.2389   -4.9195    8.6087 H   0  0  0  0  0  0  0  0  0  0  0  0
  -20.6392   -2.5402   10.9909 H   0  0  0  0  0  0  0  0  0  0  0  0
  -19.1106   -3.3466   11.3415 H   0  0  0  0  0  0  0  0  0  0  0  0
  -21.2833   -2.5964   13.3486 H   0  0  0  0  0  0  0  0  0  0  0  0
  -19.6421   -3.1128   13.7417 H   0  0  0  0  0  0  0  0  0  0  0  0
  -21.9566   -4.9436   13.2994 H   0  0  0  0  0  0  0  0  0  0  0  0
  -20.2741   -5.4493   13.4629 H   0  0  0  0  0  0  0  0  0  0  0  0
  -20.0621   -6.7151   11.3223 H   0  0  0  0  0  0  0  0  0  0  0  0
  -18.8946   -5.5260   10.7718 H   0  0  0  0  0  0  0  0  0  0  0  0
  1  2  2  0
  2  3  1  0
  2 47  1  0
  3  4  2  0
  3 48  1  0
  4 27  1  0
  4  5  1  0
  5  7  1  0
  5  6  2  0
  6  1  1  0
  6 49  1  0
  7  8  2  0
  8  9  1  0
  8 50  1  0
  9 10  2  0
  9 51  1  0
 10 11  1  0
 10 52  1  0
 11 12  2  0
 11 53  1  0
 12 13  1  0
 12  7  1  0
 13 14  1  0
 13 15  1  0
 13 54  1  0
 14 55  1  0
 14 56  1  0
 14 57  1  0
 15 58  1  0
 15 59  1  0
 15 60  1  0
 16 17  1  0
 16  1  1  0
 16 61  1  1
 17 62  1  0
 17 63  1  0
 17 64  1  0
 18 19  1  0
 18 21  1  0
 19 20  2  0
 19 16  1  0
 22 23  2  0
 22 24  2  0
 22 18  1  0
 25 26  1  0
 25 65  1  0
 25 66  1  0
 25 67  1  0
 26 22  1  0
 26 68  1  0
 26 69  1  0
 27 28  1  0
 28 29  1  0
 28 70  1  1
 29 30  1  0
 29 71  1  0
 29 72  1  0
 30 31  1  0
 30 73  1  0
 30 74  1  0
 31 33  1  0
 31 32  1  0
 31 75  1  6
 32 28  1  0
 32 76  1  0
 32 77  1  0
 33 34  1  0
 33 36  1  0
 34 35  2  0
 34 37  1  0
 37 38  1  6
 37 39  1  0
 39 40  1  0
 39 78  1  0
 39 79  1  0
 40 41  1  0
 40 46  1  0
 41 42  1  0
 41 45  1  0
 42 43  1  0
 42 80  1  0
 42 81  1  0
 43 44  1  0
 43 82  1  0
 43 83  1  0
 44 41  1  0
 44 84  1  0
 44 85  1  0
 45 37  1  0
 45 86  1  0
 45 87  1  0
M  END
>  <minimizedAffinity>  (2) 
-7.44383

>  <mol_id>  (2) 
23850

>  <source_index>  (2) 
1

>  <layer>  (2) 
L3

>  <uniprot>  (2) 
Q92830

>  <paff>  (2) 
9.6777999999999995

>  <smiles>  (2) 
CCS(=O)(=O)NC(=O)[C@H](C)c1ccc(O[C@@H]2CC[C@@H](NC(=O)[C@@]3(F)CNC4(CCC4)C3)C2)c(-c2ccccc2C(C)C)c1

>  <aimnet_interaction_kcal_mol>  (2) 
-67.624876224769253

$$$$
L3:Q92830:30945
     RDKit          3D

 96100  0  0  0  0  0  0  0  0999 V2000
  -21.7129  -11.1477    9.2710 C   0  0  0  0  0  0  0  0  0  0  0  0
  -22.3421  -10.8413   10.4763 C   0  0  0  0  0  0  0  0  0  0  0  0
  -23.0087  -11.8230   11.1895 C   0  0  0  0  0  0  0  0  0  0  0  0
  -23.2214  -13.0811   10.6408 C   0  0  0  0  0  0  0  0  0  0  0  0
  -22.7167  -13.3709    9.3655 C   0  0  0  0  0  0  0  0  0  0  0  0
  -22.0170  -12.3695    8.6876 C   0  0  0  0  0  0  0  0  0  0  0  0
  -22.9504  -14.6538    8.6847 C   0  0  0  0  0  0  0  0  0  0  0  0
  -23.6021  -14.6445    7.4475 C   0  0  0  0  0  0  0  0  0  0  0  0
  -23.9879  -15.8223    6.8359 C   0  0  0  0  0  0  0  0  0  0  0  0
  -23.6878  -17.0370    7.4360 C   0  0  0  0  0  0  0  0  0  0  0  0
  -22.9744  -17.0265    8.6184 C   0  0  0  0  0  0  0  0  0  0  0  0
  -22.6931  -18.2344    9.1893 F   0  0  0  0  0  0  0  0  0  0  0  0
  -22.5342  -15.8720    9.2533 C   0  0  0  0  0  0  0  0  0  0  0  0
  -21.6773  -15.9247   10.4738 C   0  0  0  0  0  0  0  0  0  0  0  0
  -22.2002  -16.7321   11.6991 C   0  0  0  0  0  0  0  0  0  0  0  0
  -20.9127  -17.5807   11.7064 C   0  0  0  0  0  0  0  0  0  0  0  0
  -20.4051  -16.8289   10.4555 C   0  0  0  0  0  0  0  0  0  0  0  0
  -20.6071  -10.2480    8.7041 C   0  0  0  0  0  0  0  0  0  0  0  0
  -20.2095  -10.7100    7.3033 C   0  0  0  0  0  0  0  0  0  0  0  0
  -19.3936  -10.3382    9.6309 C   0  0  0  0  0  0  0  0  0  0  0  0
  -20.7372   -7.9200    9.5379 N   0  0  0  0  0  0  0  0  0  0  0  0
  -21.1347   -8.8090    8.5535 C   0  0  0  0  0  0  0  0  0  0  0  0
  -21.8525   -8.4741    7.6291 O   0  0  0  0  0  0  0  0  0  0  0  0
  -19.8965   -8.1402   10.0523 H   0  0  0  0  0  0  0  0  0  0  0  0
  -21.0562   -6.2401    9.3220 S   0  0  0  0  0  0  0  0  0  0  0  0
  -22.5152   -6.0457    9.3274 O   0  0  0  0  0  0  0  0  0  0  0  0
  -20.3490   -5.7763    8.1160 O   0  0  0  0  0  0  0  0  0  0  0  0
  -21.2863   -4.7423   11.6038 C   0  0  0  0  0  0  0  0  0  0  0  0
  -20.2550   -5.5003   10.8043 C   0  0  0  0  0  0  0  0  0  0  0  0
  -19.0875   -4.6589   10.3575 C   0  0  0  0  0  0  0  0  0  0  0  0
  -23.9298  -14.0345   11.3361 O   0  0  0  0  0  0  0  0  0  0  0  0
  -25.3182  -13.7157   11.5008 C   0  0  2  0  0  0  0  0  0  0  0  0
  -26.0513  -14.9367   12.0185 C   0  0  0  0  0  0  0  0  0  0  0  0
  -27.5022  -14.6529   11.6557 C   0  0  0  0  0  0  0  0  0  0  0  0
  -27.4218  -13.9946   10.2795 C   0  0  2  0  0  0  0  0  0  0  0  0
  -26.0306  -13.3389   10.2030 C   0  0  0  0  0  0  0  0  0  0  0  0
  -28.5068  -13.0749   10.0485 N   0  0  0  0  0  0  0  0  0  0  0  0
  -28.7609  -12.6226    8.7953 C   0  0  0  0  0  0  0  0  0  0  0  0
  -28.1955  -13.0564    7.7934 O   0  0  0  0  0  0  0  0  0  0  0  0
  -28.8607  -12.4859   10.8011 H   0  0  0  0  0  0  0  0  0  0  0  0
  -29.7618  -11.4584    8.7559 C   0  0  1  0  0  0  0  0  0  0  0  0
  -30.4201  -11.5105    7.5174 F   0  0  0  0  0  0  0  0  0  0  0  0
  -30.8313  -11.5638    9.8490 C   0  0  0  0  0  0  0  0  0  0  0  0
  -30.2823  -10.9433   11.0389 N   0  0  0  0  0  0  0  0  0  0  0  0
  -30.2627   -9.4702   10.8972 C   0  0  0  0  0  0  0  0  0  0  0  0
  -29.7001   -9.0011    9.5390 C   0  0  0  0  0  0  0  0  0  0  0  0
  -28.7037   -7.8743    9.7928 C   0  0  0  0  0  0  0  0  0  0  0  0
  -30.7987   -8.4714    8.6157 C   0  0  0  0  0  0  0  0  0  0  0  0
  -28.9568  -10.1633    8.8806 C   0  0  0  0  0  0  0  0  0  0  0  0
  -30.8311  -11.1638   11.8630 H   0  0  0  0  0  0  0  0  0  0  0  0
  -22.3589   -9.8225   10.8380 H   0  0  0  0  0  0  0  0  0  0  0  0
  -23.3865  -11.6215   12.1814 H   0  0  0  0  0  0  0  0  0  0  0  0
  -21.6895  -12.5979    7.6843 H   0  0  0  0  0  0  0  0  0  0  0  0
  -23.8292  -13.6941    6.9826 H   0  0  0  0  0  0  0  0  0  0  0  0
  -24.5300  -15.7988    5.9007 H   0  0  0  0  0  0  0  0  0  0  0  0
  -23.9888  -17.9806    7.0057 H   0  0  0  0  0  0  0  0  0  0  0  0
  -21.4221  -14.9077   10.7648 H   0  0  0  0  0  0  0  0  0  0  0  0
  -23.1098  -17.2878   11.4963 H   0  0  0  0  0  0  0  0  0  0  0  0
  -22.3686  -16.1228   12.5840 H   0  0  0  0  0  0  0  0  0  0  0  0
  -21.0687  -18.6470   11.5657 H   0  0  0  0  0  0  0  0  0  0  0  0
  -20.2970  -17.4563   12.5965 H   0  0  0  0  0  0  0  0  0  0  0  0
  -20.3108  -17.4417    9.5636 H   0  0  0  0  0  0  0  0  0  0  0  0
  -19.4746  -16.2777   10.5885 H   0  0  0  0  0  0  0  0  0  0  0  0
  -19.4904  -10.0369    6.8481 H   0  0  0  0  0  0  0  0  0  0  0  0
  -21.0757  -10.7423    6.6487 H   0  0  0  0  0  0  0  0  0  0  0  0
  -19.7542  -11.6959    7.3465 H   0  0  0  0  0  0  0  0  0  0  0  0
  -18.6378   -9.6067    9.3567 H   0  0  0  0  0  0  0  0  0  0  0  0
  -18.9357  -11.3201    9.5455 H   0  0  0  0  0  0  0  0  0  0  0  0
  -19.6406  -10.1912   10.6796 H   0  0  0  0  0  0  0  0  0  0  0  0
  -20.7984   -4.3534   12.4940 H   0  0  0  0  0  0  0  0  0  0  0  0
  -22.1166   -5.3647   11.9164 H   0  0  0  0  0  0  0  0  0  0  0  0
  -21.6929   -3.8963   11.0577 H   0  0  0  0  0  0  0  0  0  0  0  0
  -19.8890   -6.3566   11.3582 H   0  0  0  0  0  0  0  0  0  0  0  0
  -19.4147   -3.8546    9.7087 H   0  0  0  0  0  0  0  0  0  0  0  0
  -18.3359   -5.2388    9.8339 H   0  0  0  0  0  0  0  0  0  0  0  0
  -18.6276   -4.2136   11.2353 H   0  0  0  0  0  0  0  0  0  0  0  0
  -25.3985  -12.8942   12.2171 H   0  0  0  0  0  0  0  0  0  0  0  0
  -25.8845  -15.1087   13.0811 H   0  0  0  0  0  0  0  0  0  0  0  0
  -25.6827  -15.8117   11.4814 H   0  0  0  0  0  0  0  0  0  0  0  0
  -27.9348  -13.9510   12.3718 H   0  0  0  0  0  0  0  0  0  0  0  0
  -28.1337  -15.5401   11.6611 H   0  0  0  0  0  0  0  0  0  0  0  0
  -27.4886  -14.7457    9.4945 H   0  0  0  0  0  0  0  0  0  0  0  0
  -26.0873  -12.2581   10.0844 H   0  0  0  0  0  0  0  0  0  0  0  0
  -25.4894  -13.7289    9.3478 H   0  0  0  0  0  0  0  0  0  0  0  0
  -31.0801  -12.6102   10.0274 H   0  0  0  0  0  0  0  0  0  0  0  0
  -31.7395  -11.0747    9.4854 H   0  0  0  0  0  0  0  0  0  0  0  0
  -29.6470   -9.0828   11.7030 H   0  0  0  0  0  0  0  0  0  0  0  0
  -31.2703   -9.0571   11.0239 H   0  0  0  0  0  0  0  0  0  0  0  0
  -29.1883   -7.0271   10.2748 H   0  0  0  0  0  0  0  0  0  0  0  0
  -28.2635   -7.5259    8.8574 H   0  0  0  0  0  0  0  0  0  0  0  0
  -27.8957   -8.1951   10.4462 H   0  0  0  0  0  0  0  0  0  0  0  0
  -31.3094   -7.6248    9.0749 H   0  0  0  0  0  0  0  0  0  0  0  0
  -31.5507   -9.2194    8.3741 H   0  0  0  0  0  0  0  0  0  0  0  0
  -30.3688   -8.1301    7.6742 H   0  0  0  0  0  0  0  0  0  0  0  0
  -28.0783  -10.3808    9.4886 H   0  0  0  0  0  0  0  0  0  0  0  0
  -28.6048   -9.8797    7.8933 H   0  0  0  0  0  0  0  0  0  0  0  0
  1  2  2  0
  2  3  1  0
  2 51  1  0
  3  4  2  0
  3 52  1  0
  4 31  1  0
  4  5  1  0
  5  7  1  0
  5  6  2  0
  6  1  1  0
  6 53  1  0
  7  8  2  0
  8  9  1  0
  8 54  1  0
  9 10  2  0
  9 55  1  0
 10 11  1  0
 10 56  1  0
 11 12  1  0
 11 13  2  0
 13 14  1  0
 13  7  1  0
 14 15  1  0
 14 57  1  0
 15 16  1  0
 15 58  1  0
 15 59  1  0
 16 17  1  0
 16 60  1  0
 16 61  1  0
 17 14  1  0
 17 62  1  0
 17 63  1  0
 18 19  1  0
 18 20  1  0
 18  1  1  0
 19 64  1  0
 19 65  1  0
 19 66  1  0
 20 67  1  0
 20 68  1  0
 20 69  1  0
 21 22  1  0
 21 24  1  0
 22 23  2  0
 22 18  1  0
 25 26  2  0
 25 27  2  0
 25 21  1  0
 28 29  1  0
 28 70  1  0
 28 71  1  0
 28 72  1  0
 29 30  1  0
 29 25  1  0
 29 73  1  0
 30 74  1  0
 30 75  1  0
 30 76  1  0
 31 32  1  0
 32 33  1  0
 32 77  1  1
 33 34  1  0
 33 78  1  0
 33 79  1  0
 34 35  1  0
 34 80  1  0
 34 81  1  0
 35 37  1  0
 35 36  1  0
 35 82  1  6
 36 32  1  0
 36 83  1  0
 36 84  1  0
 37 38  1  0
 37 40  1  0
 38 39  2  0
 38 41  1  0
 41 42  1  6
 41 43  1  0
 43 44  1  0
 43 85  1  0
 43 86  1  0
 44 45  1  0
 44 50  1  0
 45 46  1  0
 45 87  1  0
 45 88  1  0
 46 47  1  0
 46 48  1  0
 46 49  1  0
 47 89  1  0
 47 90  1  0
 47 91  1  0
 48 92  1  0
 48 93  1  0
 48 94  1  0
 49 41  1  0
 49 95  1  0
 49 96  1  0
M  END
>  <minimizedAffinity>  (3) 
-8.03337

>  <mol_id>  (3) 
30945

>  <source_index>  (3) 
2

>  <layer>  (3) 
L3

>  <uniprot>  (3) 
Q92830

>  <paff>  (3) 
6.6555999999999997

>  <smiles>  (3) 
CC(C)S(=O)(=O)NC(=O)C(C)(C)c1ccc(O[C@@H]2CC[C@@H](NC(=O)[C@@]3(F)CNCC(C)(C)C3)C2)c(-c2cccc(F)c2C2CCC2)c1

>  <aimnet_interaction_kcal_mol>  (3) 
-80.402850099102892

$$$$
L3:Q92830:31993
     RDKit          3D

 93 98  0  0  0  0  0  0  0  0999 V2000
  -22.3665  -11.8139    6.9396 C   0  0  0  0  0  0  0  0  0  0  0  0
  -22.4804  -11.6641    5.5619 C   0  0  0  0  0  0  0  0  0  0  0  0
  -22.6008  -12.7669    4.7435 C   0  0  0  0  0  0  0  0  0  0  0  0
  -22.5471  -14.0595    5.2617 C   0  0  0  0  0  0  0  0  0  0  0  0
  -22.4992  -14.1980    6.6389 C   0  0  0  0  0  0  0  0  0  0  0  0
  -22.4491  -13.0929    7.5055 C   0  0  0  0  0  0  0  0  0  0  0  0
  -22.4898  -13.2905    8.9585 C   0  0  0  0  0  0  0  0  0  0  0  0
  -23.4149  -12.5987    9.7443 C   0  0  0  0  0  0  0  0  0  0  0  0
  -23.6242  -12.9499   11.0642 C   0  0  0  0  0  0  0  0  0  0  0  0
  -22.8706  -13.9646   11.6382 C   0  0  0  0  0  0  0  0  0  0  0  0
  -21.8718  -14.5470   10.8826 C   0  0  0  0  0  0  0  0  0  0  0  0
  -21.1174  -15.5212   11.4687 F   0  0  0  0  0  0  0  0  0  0  0  0
  -21.5893  -14.1845    9.5737 C   0  0  0  0  0  0  0  0  0  0  0  0
  -20.3301  -14.6044    8.9061 C   0  0  0  0  0  0  0  0  0  0  0  0
  -19.0136  -14.3174    9.6900 C   0  0  0  0  0  0  0  0  0  0  0  0
  -18.5992  -15.7957    9.5596 C   0  0  0  0  0  0  0  0  0  0  0  0
  -19.9346  -16.1086    8.8444 C   0  0  0  0  0  0  0  0  0  0  0  0
  -22.5222  -15.2273    4.2881 C   0  0  0  0  0  0  0  0  0  0  0  0
  -22.2063  -16.5512    4.9832 C   0  0  0  0  0  0  0  0  0  0  0  0
  -23.8600  -15.3360    3.5664 C   0  0  0  0  0  0  0  0  0  0  0  0
  -21.4188  -15.0082    3.2174 C   0  0  0  0  0  0  0  0  0  0  0  0
  -21.5525  -15.3807    2.0676 O   0  0  0  0  0  0  0  0  0  0  0  0
  -20.2764  -14.4176    3.7050 N   0  0  0  0  0  0  0  0  0  0  0  0
  -20.3253  -14.0471    4.6482 H   0  0  0  0  0  0  0  0  0  0  0  0
  -18.9248  -13.8521    2.7244 S   0  0  0  0  0  0  0  0  0  0  0  0
  -19.3978  -12.8210    1.7957 O   0  0  0  0  0  0  0  0  0  0  0  0
  -18.1739  -15.0159    2.2625 O   0  0  0  0  0  0  0  0  0  0  0  0
  -18.0504  -13.1053    3.9228 N   0  0  0  0  0  0  0  0  0  0  0  0
  -17.7781  -13.8617    5.1882 C   0  0  0  0  0  0  0  0  0  0  0  0
  -18.5825  -12.8272    5.9965 C   0  0  0  0  0  0  0  0  0  0  0  0
  -18.7143  -12.0044    4.6975 C   0  0  0  0  0  0  0  0  0  0  0  0
  -22.2132  -10.7119    7.7274 O   0  0  0  0  0  0  0  0  0  0  0  0
  -20.8458   -8.6522    9.5858 C   0  0  2  0  0  0  0  0  0  0  0  0
  -20.2274  -10.0315    9.8630 C   0  0  0  0  0  0  0  0  0  0  0  0
  -19.9233  -10.6594    8.5066 C   0  0  0  0  0  0  0  0  0  0  0  0
  -20.9415  -10.0287    7.5818 C   0  0  2  0  0  0  0  0  0  0  0  0
  -21.1187   -8.6100    8.0768 C   0  0  0  0  0  0  0  0  0  0  0  0
  -20.4536   -6.2684    9.9061 C   0  0  0  0  0  0  0  0  0  0  0  0
  -21.4614   -5.9784    9.2610 O   0  0  0  0  0  0  0  0  0  0  0  0
  -20.0077   -7.5372   10.0070 N   0  0  0  0  0  0  0  0  0  0  0  0
  -19.2065   -7.7243   10.5843 H   0  0  0  0  0  0  0  0  0  0  0  0
  -18.1508   -4.6048   13.9959 C   0  0  0  0  0  0  0  0  0  0  0  0
  -18.3825   -5.4201   12.7404 C   0  0  0  0  0  0  0  0  0  0  0  0
  -18.1263   -6.8769   13.0753 C   0  0  0  0  0  0  0  0  0  0  0  0
  -19.7747   -5.0949   12.1450 C   0  0  0  0  0  0  0  0  0  0  0  0
  -19.6282   -5.1984   10.6254 C   0  0  2  0  0  0  0  0  0  0  0  0
  -20.0445   -3.9671   10.0553 F   0  0  0  0  0  0  0  0  0  0  0  0
  -18.1150   -5.3182   10.4034 C   0  0  0  0  0  0  0  0  0  0  0  0
  -17.4542   -5.0195   11.6661 N   0  0  0  0  0  0  0  0  0  0  0  0
  -17.3542   -4.0186   11.7313 H   0  0  0  0  0  0  0  0  0  0  0  0
  -22.4649  -10.6652    5.1396 H   0  0  0  0  0  0  0  0  0  0  0  0
  -22.6977  -12.6254    3.6767 H   0  0  0  0  0  0  0  0  0  0  0  0
  -22.4911  -15.1772    7.0958 H   0  0  0  0  0  0  0  0  0  0  0  0
  -23.9549  -11.7681    9.3200 H   0  0  0  0  0  0  0  0  0  0  0  0
  -24.3755  -12.4464   11.6561 H   0  0  0  0  0  0  0  0  0  0  0  0
  -23.0457  -14.2904   12.6518 H   0  0  0  0  0  0  0  0  0  0  0  0
  -20.3042  -14.1671    7.9138 H   0  0  0  0  0  0  0  0  0  0  0  0
  -19.1830  -13.9867   10.7087 H   0  0  0  0  0  0  0  0  0  0  0  0
  -18.3593  -13.5979    9.2127 H   0  0  0  0  0  0  0  0  0  0  0  0
  -18.4533  -16.3144   10.5044 H   0  0  0  0  0  0  0  0  0  0  0  0
  -17.7127  -15.9478    8.9486 H   0  0  0  0  0  0  0  0  0  0  0  0
  -20.6055  -16.7636    9.3908 H   0  0  0  0  0  0  0  0  0  0  0  0
  -19.8259  -16.4952    7.8321 H   0  0  0  0  0  0  0  0  0  0  0  0
  -22.9883  -16.8061    5.6949 H   0  0  0  0  0  0  0  0  0  0  0  0
  -21.2560  -16.5006    5.5122 H   0  0  0  0  0  0  0  0  0  0  0  0
  -22.1412  -17.3532    4.2516 H   0  0  0  0  0  0  0  0  0  0  0  0
  -24.6593  -15.4622    4.2941 H   0  0  0  0  0  0  0  0  0  0  0  0
  -23.8569  -16.1852    2.8900 H   0  0  0  0  0  0  0  0  0  0  0  0
  -24.0657  -14.4461    2.9774 H   0  0  0  0  0  0  0  0  0  0  0  0
  -16.7118  -13.8679    5.3957 H   0  0  0  0  0  0  0  0  0  0  0  0
  -18.1469  -14.8856    5.2026 H   0  0  0  0  0  0  0  0  0  0  0  0
  -18.0456  -12.3739    6.8168 H   0  0  0  0  0  0  0  0  0  0  0  0
  -19.5359  -13.1827    6.3675 H   0  0  0  0  0  0  0  0  0  0  0  0
  -18.1209  -11.0933    4.6483 H   0  0  0  0  0  0  0  0  0  0  0  0
  -19.7302  -11.7770    4.3772 H   0  0  0  0  0  0  0  0  0  0  0  0
  -21.7873   -8.5627   10.1145 H   0  0  0  0  0  0  0  0  0  0  0  0
  -20.9611  -10.6502   10.3732 H   0  0  0  0  0  0  0  0  0  0  0  0
  -19.3440   -9.9890   10.4920 H   0  0  0  0  0  0  0  0  0  0  0  0
  -20.0106  -11.7381    8.5275 H   0  0  0  0  0  0  0  0  0  0  0  0
  -18.9143  -10.4355    8.1757 H   0  0  0  0  0  0  0  0  0  0  0  0
  -20.6440  -10.0673    6.5342 H   0  0  0  0  0  0  0  0  0  0  0  0
  -22.1096   -8.2274    7.8575 H   0  0  0  0  0  0  0  0  0  0  0  0
  -20.4139   -7.9431    7.5903 H   0  0  0  0  0  0  0  0  0  0  0  0
  -18.7860   -4.9548   14.8048 H   0  0  0  0  0  0  0  0  0  0  0  0
  -18.3687   -3.5560   13.8200 H   0  0  0  0  0  0  0  0  0  0  0  0
  -17.1184   -4.6859   14.3263 H   0  0  0  0  0  0  0  0  0  0  0  0
  -18.7104   -7.2061   13.9281 H   0  0  0  0  0  0  0  0  0  0  0  0
  -17.0767   -6.9981   13.3258 H   0  0  0  0  0  0  0  0  0  0  0  0
  -18.3154   -7.5439   12.2377 H   0  0  0  0  0  0  0  0  0  0  0  0
  -20.0130   -4.0559   12.3563 H   0  0  0  0  0  0  0  0  0  0  0  0
  -20.5817   -5.6825   12.5621 H   0  0  0  0  0  0  0  0  0  0  0  0
  -17.8194   -4.6348    9.6118 H   0  0  0  0  0  0  0  0  0  0  0  0
  -17.8338   -6.3143   10.0787 H   0  0  0  0  0  0  0  0  0  0  0  0
  1  2  2  0
  2  3  1  0
  2 51  1  0
  3  4  2  0
  3 52  1  0
  4 18  1  0
  4  5  1  0
  5  6  2  0
  5 53  1  0
  6  7  1  0
  6  1  1  0
  7  8  2  0
  8  9  1  0
  8 54  1  0
  9 10  2  0
  9 55  1  0
 10 11  1  0
 10 56  1  0
 11 12  1  0
 11 13  2  0
 13 14  1  0
 13  7  1  0
 14 15  1  0
 14 57  1  0
 15 16  1  0
 15 58  1  0
 15 59  1  0
 16 17  1  0
 16 60  1  0
 16 61  1  0
 17 14  1  0
 17 62  1  0
 17 63  1  0
 18 19  1  0
 18 20  1  0
 18 21  1  0
 19 64  1  0
 19 65  1  0
 19 66  1  0
 20 67  1  0
 20 68  1  0
 20 69  1  0
 21 22  2  0
 21 23  1  0
 23 25  1  0
 23 24  1  0
 25 26  2  0
 25 27  2  0
 25 28  1  0
 28 29  1  0
 29 30  1  0
 29 70  1  0
 29 71  1  0
 30 31  1  0
 30 72  1  0
 30 73  1  0
 31 28  1  0
 31 74  1  0
 31 75  1  0
 32  1  1  0
 33 34  1  0
 33 76  1  1
 34 35  1  0
 34 77  1  0
 34 78  1  0
 35 36  1  0
 35 79  1  0
 35 80  1  0
 36 32  1  0
 36 37  1  0
 36 81  1  6
 37 33  1  0
 37 82  1  0
 37 83  1  0
 38 39  2  0
 38 40  1  0
 40 33  1  0
 40 41  1  0
 42 43  1  0
 42 84  1  0
 42 85  1  0
 42 86  1  0
 43 44  1  0
 43 45  1  0
 44 87  1  0
 44 88  1  0
 44 89  1  0
 45 46  1  0
 45 90  1  0
 45 91  1  0
 46 47  1  6
 46 38  1  0
 46 48  1  0
 48 49  1  0
 48 92  1  0
 48 93  1  0
 49 43  1  0
 49 50  1  0
M  END
>  <minimizedAffinity>  (4) 
-6.63045

>  <mol_id>  (4) 
31993

>  <source_index>  (4) 
3

>  <layer>  (4) 
L3

>  <uniprot>  (4) 
Q92830

>  <paff>  (4) 
7.8665000000000003

>  <smiles>  (4) 
CC1(C)C[C@](F)(C(=O)N[C@@H]2CC[C@@H](Oc3ccc(C(C)(C)C(=O)NS(=O)(=O)N4CCC4)cc3-c3cccc(F)c3C3CCC3)C2)CN1

>  <aimnet_interaction_kcal_mol>  (4) 
-63.704409797905413

$$$$
L3:Q92830:45193
     RDKit          3D

 90 94  0  0  0  0  0  0  0  0999 V2000
  -21.8078  -12.6321    7.9145 C   0  0  0  0  0  0  0  0  0  0  0  0
  -21.0989  -11.4470    8.0784 C   0  0  0  0  0  0  0  0  0  0  0  0
  -20.7182  -10.9821    9.3299 C   0  0  0  0  0  0  0  0  0  0  0  0
  -21.1488  -11.6842   10.4398 C   0  0  0  0  0  0  0  0  0  0  0  0
  -21.9256  -12.8261   10.3207 C   0  0  0  0  0  0  0  0  0  0  0  0
  -22.2899  -13.2886    9.0638 C   0  0  0  0  0  0  0  0  0  0  0  0
  -21.6197  -14.4175    6.1355 C   0  0  0  0  0  0  0  0  0  0  0  0
  -22.0714  -14.9016    4.9127 C   0  0  0  0  0  0  0  0  0  0  0  0
  -22.8697  -14.1329    4.0761 C   0  0  0  0  0  0  0  0  0  0  0  0
  -23.2028  -12.8391    4.4418 C   0  0  0  0  0  0  0  0  0  0  0  0
  -22.7683  -12.3472    5.6610 C   0  0  0  0  0  0  0  0  0  0  0  0
  -22.0675  -13.1536    6.5577 C   0  0  0  0  0  0  0  0  0  0  0  0
  -19.2031  -14.6495    6.6272 C   0  0  0  0  0  0  0  0  0  0  0  0
  -20.6018  -15.1721    6.9558 C   0  0  0  0  0  0  0  0  0  0  0  0
  -20.6966  -16.6833    6.8011 C   0  0  0  0  0  0  0  0  0  0  0  0
  -19.7887   -9.8155    9.4944 C   0  0  0  0  0  0  0  0  0  0  0  0
  -20.3741   -8.4604    9.1139 C   0  0  0  0  0  0  0  0  0  0  0  0
  -21.0398   -8.2890    8.1114 O   0  0  0  0  0  0  0  0  0  0  0  0
  -20.0666   -7.4443   10.0018 N   0  0  0  0  0  0  0  0  0  0  0  0
  -19.2170   -7.5036   10.5511 H   0  0  0  0  0  0  0  0  0  0  0  0
  -20.6667   -5.8622    9.7023 S   0  0  0  0  0  0  0  0  0  0  0  0
  -19.8439   -5.2564    8.6273 O   0  0  0  0  0  0  0  0  0  0  0  0
  -22.1202   -5.9311    9.4822 O   0  0  0  0  0  0  0  0  0  0  0  0
  -20.2559   -5.0176   11.2457 C   0  0  0  0  0  0  0  0  0  0  0  0
  -18.7898   -5.0420   11.5287 C   0  0  0  0  0  0  0  0  0  0  0  0
  -21.0695   -3.7880   11.5164 C   0  0  0  0  0  0  0  0  0  0  0  0
  -21.2566   -5.0048   12.3470 C   0  0  0  0  0  0  0  0  0  0  0  0
  -23.0730  -14.3900    8.8571 O   0  0  0  0  0  0  0  0  0  0  0  0
  -23.9038  -14.8776    9.9201 C   0  0  2  0  0  0  0  0  0  0  0  0
  -24.7682  -15.9694    9.2820 C   0  0  0  0  0  0  0  0  0  0  0  0
  -26.0905  -15.2846    8.8791 C   0  0  0  0  0  0  0  0  0  0  0  0
  -25.8695  -13.8042    9.1870 C   0  0  2  0  0  0  0  0  0  0  0  0
  -24.9018  -13.8247   10.3630 C   0  0  0  0  0  0  0  0  0  0  0  0
  -27.0759  -13.0464    9.4274 N   0  0  0  0  0  0  0  0  0  0  0  0
  -26.9797  -11.6909    9.5943 C   0  0  0  0  0  0  0  0  0  0  0  0
  -25.8994  -11.1453    9.7946 O   0  0  0  0  0  0  0  0  0  0  0  0
  -27.9383  -13.3903    9.0355 H   0  0  0  0  0  0  0  0  0  0  0  0
  -28.2840  -10.9109    9.5069 C   0  0  1  0  0  0  0  0  0  0  0  0
  -29.0424  -11.5309    8.4460 F   0  0  0  0  0  0  0  0  0  0  0  0
  -29.1165  -11.0378   10.8088 C   0  0  0  0  0  0  0  0  0  0  0  0
  -30.0112   -9.9428   11.0491 N   0  0  0  0  0  0  0  0  0  0  0  0
  -30.4522   -9.2786    9.8329 C   0  0  0  0  0  0  0  0  0  0  0  0
  -29.3126   -8.6293    9.0113 C   0  0  0  0  0  0  0  0  0  0  0  0
  -29.0354   -7.2165    9.5200 C   0  0  0  0  0  0  0  0  0  0  0  0
  -29.7146   -8.5601    7.5452 C   0  0  0  0  0  0  0  0  0  0  0  0
  -28.0325   -9.4600    9.1943 C   0  0  0  0  0  0  0  0  0  0  0  0
  -29.5990   -9.2789   11.6876 H   0  0  0  0  0  0  0  0  0  0  0  0
  -20.8244  -10.8910    7.1912 H   0  0  0  0  0  0  0  0  0  0  0  0
  -20.8403  -11.3503   11.4204 H   0  0  0  0  0  0  0  0  0  0  0  0
  -22.2277  -13.3540   11.2125 H   0  0  0  0  0  0  0  0  0  0  0  0
  -21.7961  -15.9001    4.5986 H   0  0  0  0  0  0  0  0  0  0  0  0
  -23.2190  -14.5409    3.1369 H   0  0  0  0  0  0  0  0  0  0  0  0
  -23.8037  -12.2214    3.7858 H   0  0  0  0  0  0  0  0  0  0  0  0
  -22.9619  -11.3202    5.9419 H   0  0  0  0  0  0  0  0  0  0  0  0
  -18.4480  -15.1384    7.2411 H   0  0  0  0  0  0  0  0  0  0  0  0
  -19.1420  -13.5780    6.8110 H   0  0  0  0  0  0  0  0  0  0  0  0
  -18.9601  -14.8292    5.5799 H   0  0  0  0  0  0  0  0  0  0  0  0
  -20.7850  -14.9480    8.0049 H   0  0  0  0  0  0  0  0  0  0  0  0
  -20.3688  -17.0156    5.8169 H   0  0  0  0  0  0  0  0  0  0  0  0
  -21.7215  -17.0254    6.9464 H   0  0  0  0  0  0  0  0  0  0  0  0
  -20.0672  -17.1791    7.5391 H   0  0  0  0  0  0  0  0  0  0  0  0
  -18.9152   -9.9889    8.8577 H   0  0  0  0  0  0  0  0  0  0  0  0
  -19.4085   -9.7933   10.5113 H   0  0  0  0  0  0  0  0  0  0  0  0
  -18.2069   -4.7845   10.6495 H   0  0  0  0  0  0  0  0  0  0  0  0
  -18.4496   -6.0081   11.9005 H   0  0  0  0  0  0  0  0  0  0  0  0
  -18.5766   -4.3087   12.3037 H   0  0  0  0  0  0  0  0  0  0  0  0
  -21.8914   -3.5012   10.8759 H   0  0  0  0  0  0  0  0  0  0  0  0
  -20.5419   -2.9385   11.9234 H   0  0  0  0  0  0  0  0  0  0  0  0
  -22.1835   -5.5412   12.2264 H   0  0  0  0  0  0  0  0  0  0  0  0
  -20.8703   -5.0242   13.3552 H   0  0  0  0  0  0  0  0  0  0  0  0
  -23.2662  -15.2449   10.7264 H   0  0  0  0  0  0  0  0  0  0  0  0
  -24.9543  -16.7756    9.9891 H   0  0  0  0  0  0  0  0  0  0  0  0
  -24.2434  -16.3849    8.4267 H   0  0  0  0  0  0  0  0  0  0  0  0
  -26.9202  -15.6598    9.4823 H   0  0  0  0  0  0  0  0  0  0  0  0
  -26.3442  -15.4593    7.8362 H   0  0  0  0  0  0  0  0  0  0  0  0
  -25.3334  -13.3419    8.3575 H   0  0  0  0  0  0  0  0  0  0  0  0
  -25.4203  -14.1607   11.2631 H   0  0  0  0  0  0  0  0  0  0  0  0
  -24.4655  -12.8549   10.5531 H   0  0  0  0  0  0  0  0  0  0  0  0
  -28.4197  -11.1173   11.6465 H   0  0  0  0  0  0  0  0  0  0  0  0
  -29.6664  -11.9827   10.7510 H   0  0  0  0  0  0  0  0  0  0  0  0
  -31.1867   -8.5207   10.1052 H   0  0  0  0  0  0  0  0  0  0  0  0
  -30.9716  -10.0076    9.2114 H   0  0  0  0  0  0  0  0  0  0  0  0
  -29.8893   -6.5661    9.3322 H   0  0  0  0  0  0  0  0  0  0  0  0
  -28.1715   -6.7851    9.0121 H   0  0  0  0  0  0  0  0  0  0  0  0
  -28.8391   -7.2085   10.5884 H   0  0  0  0  0  0  0  0  0  0  0  0
  -30.6718   -8.0483    7.4326 H   0  0  0  0  0  0  0  0  0  0  0  0
  -29.7983   -9.5472    7.1020 H   0  0  0  0  0  0  0  0  0  0  0  0
  -28.9712   -8.0107    6.9686 H   0  0  0  0  0  0  0  0  0  0  0  0
  -27.4475   -9.0665   10.0244 H   0  0  0  0  0  0  0  0  0  0  0  0
  -27.4095   -9.3787    8.3073 H   0  0  0  0  0  0  0  0  0  0  0  0
  1  2  2  0
  2  3  1  0
  2 48  1  0
  3 16  1  0
  3  4  2  0
  4  5  1  0
  4 49  1  0
  5  6  2  0
  5 50  1  0
  6 28  1  0
  6  1  1  0
  7  8  2  0
  8  9  1  0
  8 51  1  0
  9 10  2  0
  9 52  1  0
 10 11  1  0
 10 53  1  0
 11 12  2  0
 11 54  1  0
 12  1  1  0
 12  7  1  0
 13 14  1  0
 13 55  1  0
 13 56  1  0
 13 57  1  0
 14 15  1  0
 14  7  1  0
 14 58  1  0
 15 59  1  0
 15 60  1  0
 15 61  1  0
 16 17  1  0
 16 62  1  0
 16 63  1  0
 17 18  2  0
 17 19  1  0
 19 21  1  0
 19 20  1  0
 21 22  2  0
 21 23  2  0
 21 24  1  0
 24 25  1  0
 24 26  1  0
 25 64  1  0
 25 65  1  0
 25 66  1  0
 26 27  1  0
 26 67  1  0
 26 68  1  0
 27 24  1  0
 27 69  1  0
 27 70  1  0
 28 29  1  0
 29 30  1  0
 29 71  1  1
 30 31  1  0
 30 72  1  0
 30 73  1  0
 31 32  1  0
 31 74  1  0
 31 75  1  0
 32 34  1  0
 32 33  1  0
 32 76  1  6
 33 29  1  0
 33 77  1  0
 33 78  1  0
 34 35  1  0
 34 37  1  0
 35 36  2  0
 35 38  1  0
 38 39  1  6
 38 40  1  0
 40 41  1  0
 40 79  1  0
 40 80  1  0
 41 42  1  0
 41 47  1  0
 42 43  1  0
 42 81  1  0
 42 82  1  0
 43 44  1  0
 43 45  1  0
 43 46  1  0
 44 83  1  0
 44 84  1  0
 44 85  1  0
 45 86  1  0
 45 87  1  0
 45 88  1  0
 46 38  1  0
 46 89  1  0
 46 90  1  0
M  END
>  <minimizedAffinity>  (5) 
-7.55982

>  <mol_id>  (5) 
45193

>  <source_index>  (5) 
4

>  <layer>  (5) 
L3

>  <uniprot>  (5) 
Q92830

>  <paff>  (5) 
9.9586000000000006

>  <smiles>  (5) 
CC(C)c1ccccc1-c1cc(CC(=O)NS(=O)(=O)C2(C)CC2)ccc1O[C@@H]1CC[C@@H](NC(=O)[C@@]2(F)CNCC(C)(C)C2)C1

>  <aimnet_interaction_kcal_mol>  (5) 
-73.924335482846288

$$$$
L3:Q92830:53417
     RDKit          3D

 94 99  0  0  0  0  0  0  0  0999 V2000
  -17.2333  -14.0652    6.0546 C   0  0  0  0  0  0  0  0  0  0  0  0
  -17.5783  -14.6939    7.2468 C   0  0  0  0  0  0  0  0  0  0  0  0
  -18.6420  -14.2482    8.0123 C   0  0  0  0  0  0  0  0  0  0  0  0
  -19.4292  -13.1907    7.5785 C   0  0  0  0  0  0  0  0  0  0  0  0
  -19.2480  -12.7158    6.2741 C   0  0  0  0  0  0  0  0  0  0  0  0
  -18.0806  -13.0704    5.6014 C   0  0  0  0  0  0  0  0  0  0  0  0
  -20.1131  -11.7122    5.6288 C   0  0  0  0  0  0  0  0  0  0  0  0
  -19.6027  -10.4147    5.5870 C   0  0  0  0  0  0  0  0  0  0  0  0
  -20.3957   -9.3232    5.2907 C   0  0  0  0  0  0  0  0  0  0  0  0
  -21.6967   -9.5515    4.8711 C   0  0  0  0  0  0  0  0  0  0  0  0
  -22.1125  -10.8567    4.6985 C   0  0  0  0  0  0  0  0  0  0  0  0
  -23.3652  -11.0436    4.1653 F   0  0  0  0  0  0  0  0  0  0  0  0
  -21.3544  -11.9745    5.0147 C   0  0  0  0  0  0  0  0  0  0  0  0
  -21.8173  -13.3397    4.6520 C   0  0  0  0  0  0  0  0  0  0  0  0
  -21.9782  -14.3928    5.7872 C   0  0  0  0  0  0  0  0  0  0  0  0
  -20.9881  -15.3369    5.0675 C   0  0  0  0  0  0  0  0  0  0  0  0
  -20.7948  -14.2861    3.9535 C   0  0  0  0  0  0  0  0  0  0  0  0
  -15.9694  -14.4422    5.2722 C   0  0  0  0  0  0  0  0  0  0  0  0
  -14.8562  -14.9332    6.1947 C   0  0  0  0  0  0  0  0  0  0  0  0
  -16.3309  -15.5409    4.2717 C   0  0  0  0  0  0  0  0  0  0  0  0
  -15.9313  -12.9221    3.3157 N   0  0  0  0  0  0  0  0  0  0  0  0
  -15.4264  -13.1813    4.5756 C   0  0  0  0  0  0  0  0  0  0  0  0
  -14.5969  -12.4382    5.0712 O   0  0  0  0  0  0  0  0  0  0  0  0
  -16.6254  -13.5111    2.8891 H   0  0  0  0  0  0  0  0  0  0  0  0
  -15.3463  -11.7118    2.2099 S   0  0  0  0  0  0  0  0  0  0  0  0
  -16.2630  -11.8580    1.0598 O   0  0  0  0  0  0  0  0  0  0  0  0
  -13.8972  -11.8785    2.0322 O   0  0  0  0  0  0  0  0  0  0  0  0
  -17.1600   -9.8207    3.0333 C   0  0  0  0  0  0  0  0  0  0  0  0
  -15.6789  -10.1289    3.1057 C   0  0  0  0  0  0  0  0  0  0  0  0
  -14.7946   -9.0599    2.4921 C   0  0  0  0  0  0  0  0  0  0  0  0
  -20.4242  -12.6626    8.3554 O   0  0  0  0  0  0  0  0  0  0  0  0
  -20.0615  -12.1757    9.6720 C   0  0  2  0  0  0  0  0  0  0  0  0
  -21.3577  -11.7851   10.3551 C   0  0  0  0  0  0  0  0  0  0  0  0
  -21.6909  -10.3963    9.7932 C   0  0  0  0  0  0  0  0  0  0  0  0
  -20.3828   -9.8471    9.1957 C   0  0  2  0  0  0  0  0  0  0  0  0
  -19.3084  -10.8626    9.5640 C   0  0  0  0  0  0  0  0  0  0  0  0
  -20.0601   -8.4787    9.6000 N   0  0  0  0  0  0  0  0  0  0  0  0
  -20.7749   -7.4571    9.0776 C   0  0  0  0  0  0  0  0  0  0  0  0
  -21.6945   -7.6471    8.2800 O   0  0  0  0  0  0  0  0  0  0  0  0
  -19.2028   -8.3120   10.1045 H   0  0  0  0  0  0  0  0  0  0  0  0
  -20.4329   -6.0213    9.4937 C   0  0  2  0  0  0  0  0  0  0  0  0
  -20.9048   -5.2486    8.3818 F   0  0  0  0  0  0  0  0  0  0  0  0
  -18.9942   -5.5895    9.7137 C   0  0  0  0  0  0  0  0  0  0  0  0
  -19.2206   -4.2429   10.2251 N   0  0  0  0  0  0  0  0  0  0  0  0
  -20.1676   -4.4237   11.3225 C   0  0  0  0  0  0  0  0  0  0  0  0
  -19.5237   -4.6990   12.7086 C   0  0  0  0  0  0  0  0  0  0  0  0
  -20.3846   -3.5915   13.3420 C   0  0  0  0  0  0  0  0  0  0  0  0
  -20.8745   -3.1972   11.9327 C   0  0  0  0  0  0  0  0  0  0  0  0
  -21.1232   -5.4835   10.7455 C   0  0  0  0  0  0  0  0  0  0  0  0
  -18.3676   -3.8061   10.5281 H   0  0  0  0  0  0  0  0  0  0  0  0
  -16.9808  -15.5003    7.6444 H   0  0  0  0  0  0  0  0  0  0  0  0
  -18.8401  -14.7156    8.9689 H   0  0  0  0  0  0  0  0  0  0  0  0
  -17.8365  -12.4818    4.7260 H   0  0  0  0  0  0  0  0  0  0  0  0
  -18.5559  -10.2833    5.8078 H   0  0  0  0  0  0  0  0  0  0  0  0
  -20.0166   -8.3183    5.4045 H   0  0  0  0  0  0  0  0  0  0  0  0
  -22.3804   -8.7431    4.6657 H   0  0  0  0  0  0  0  0  0  0  0  0
  -22.7312  -13.2620    4.0662 H   0  0  0  0  0  0  0  0  0  0  0  0
  -22.9957  -14.7691    5.8860 H   0  0  0  0  0  0  0  0  0  0  0  0
  -21.6514  -14.0531    6.7605 H   0  0  0  0  0  0  0  0  0  0  0  0
  -21.4150  -16.2814    4.7349 H   0  0  0  0  0  0  0  0  0  0  0  0
  -20.0887  -15.5450    5.6336 H   0  0  0  0  0  0  0  0  0  0  0  0
  -21.0992  -14.5959    2.9533 H   0  0  0  0  0  0  0  0  0  0  0  0
  -19.7899  -13.8842    3.8896 H   0  0  0  0  0  0  0  0  0  0  0  0
  -13.9287  -15.0504    5.6386 H   0  0  0  0  0  0  0  0  0  0  0  0
  -15.1171  -15.8988    6.6192 H   0  0  0  0  0  0  0  0  0  0  0  0
  -14.6817  -14.2333    7.0012 H   0  0  0  0  0  0  0  0  0  0  0  0
  -15.5114  -15.7446    3.5838 H   0  0  0  0  0  0  0  0  0  0  0  0
  -17.2213  -15.2938    3.6933 H   0  0  0  0  0  0  0  0  0  0  0  0
  -16.5583  -16.4550    4.8149 H   0  0  0  0  0  0  0  0  0  0  0  0
  -17.3845   -8.9707    3.6695 H   0  0  0  0  0  0  0  0  0  0  0  0
  -17.7762  -10.6491    3.3663 H   0  0  0  0  0  0  0  0  0  0  0  0
  -17.4495   -9.5811    2.0152 H   0  0  0  0  0  0  0  0  0  0  0  0
  -15.3574  -10.3707    4.1135 H   0  0  0  0  0  0  0  0  0  0  0  0
  -15.0180   -8.9307    1.4345 H   0  0  0  0  0  0  0  0  0  0  0  0
  -13.7408   -9.2987    2.5920 H   0  0  0  0  0  0  0  0  0  0  0  0
  -14.9801   -8.1153    2.9965 H   0  0  0  0  0  0  0  0  0  0  0  0
  -19.4979  -12.9346   10.2137 H   0  0  0  0  0  0  0  0  0  0  0  0
  -21.1953  -11.7278   11.4338 H   0  0  0  0  0  0  0  0  0  0  0  0
  -22.1415  -12.5209   10.1861 H   0  0  0  0  0  0  0  0  0  0  0  0
  -22.0883   -9.7445   10.5576 H   0  0  0  0  0  0  0  0  0  0  0  0
  -22.4465  -10.4572    9.0185 H   0  0  0  0  0  0  0  0  0  0  0  0
  -20.4979   -9.8261    8.1174 H   0  0  0  0  0  0  0  0  0  0  0  0
  -18.8612  -10.6290   10.5284 H   0  0  0  0  0  0  0  0  0  0  0  0
  -18.5184  -10.9295    8.8260 H   0  0  0  0  0  0  0  0  0  0  0  0
  -18.3914   -5.5948    8.8113 H   0  0  0  0  0  0  0  0  0  0  0  0
  -18.5185   -6.2590   10.4417 H   0  0  0  0  0  0  0  0  0  0  0  0
  -18.4586   -4.4784   12.7197 H   0  0  0  0  0  0  0  0  0  0  0  0
  -19.6530   -5.6984   13.1059 H   0  0  0  0  0  0  0  0  0  0  0  0
  -19.8404   -2.8218   13.8910 H   0  0  0  0  0  0  0  0  0  0  0  0
  -21.1718   -3.9692   13.9901 H   0  0  0  0  0  0  0  0  0  0  0  0
  -20.4753   -2.2645   11.5644 H   0  0  0  0  0  0  0  0  0  0  0  0
  -21.9483   -3.1834   11.7968 H   0  0  0  0  0  0  0  0  0  0  0  0
  -22.0738   -5.0394   10.4670 H   0  0  0  0  0  0  0  0  0  0  0  0
  -21.3407   -6.2540   11.4660 H   0  0  0  0  0  0  0  0  0  0  0  0
  1  2  2  0
  2  3  1  0
  2 51  1  0
  3  4  2  0
  3 52  1  0
  4 31  1  0
  4  5  1  0
  5  7  1  0
  5  6  2  0
  6  1  1  0
  6 53  1  0
  7  8  2  0
  8  9  1  0
  8 54  1  0
  9 10  2  0
  9 55  1  0
 10 11  1  0
 10 56  1  0
 11 12  1  0
 11 13  2  0
 13 14  1  0
 13  7  1  0
 14 15  1  0
 14 57  1  0
 15 16  1  0
 15 58  1  0
 15 59  1  0
 16 17  1  0
 16 60  1  0
 16 61  1  0
 17 14  1  0
 17 62  1  0
 17 63  1  0
 18 19  1  0
 18 20  1  0
 18  1  1  0
 19 64  1  0
 19 65  1  0
 19 66  1  0
 20 67  1  0
 20 68  1  0
 20 69  1  0
 21 22  1  0
 21 24  1  0
 22 23  2  0
 22 18  1  0
 25 26  2  0
 25 27  2  0
 25 21  1  0
 28 29  1  0
 28 70  1  0
 28 71  1  0
 28 72  1  0
 29 30  1  0
 29 25  1  0
 29 73  1  0
 30 74  1  0
 30 75  1  0
 30 76  1  0
 31 32  1  0
 32 33  1  0
 32 77  1  1
 33 34  1  0
 33 78  1  0
 33 79  1  0
 34 35  1  0
 34 80  1  0
 34 81  1  0
 35 37  1  0
 35 36  1  0
 35 82  1  6
 36 32  1  0
 36 83  1  0
 36 84  1  0
 37 38  1  0
 37 40  1  0
 38 39  2  0
 38 41  1  0
 41 42  1  6
 41 43  1  0
 43 44  1  0
 43 85  1  0
 43 86  1  0
 44 45  1  0
 44 50  1  0
 45 46  1  0
 45 49  1  0
 46 47  1  0
 46 87  1  0
 46 88  1  0
 47 48  1  0
 47 89  1  0
 47 90  1  0
 48 45  1  0
 48 91  1  0
 48 92  1  0
 49 41  1  0
 49 93  1  0
 49 94  1  0
M  END
>  <minimizedAffinity>  (6) 
-7.43775

>  <mol_id>  (6) 
53417

>  <source_index>  (6) 
5

>  <layer>  (6) 
L3

>  <uniprot>  (6) 
Q92830

>  <paff>  (6) 
9.8538999999999994

>  <smiles>  (6) 
CC(C)S(=O)(=O)NC(=O)C(C)(C)c1ccc(O[C@@H]2CC[C@@H](NC(=O)[C@]3(F)CNC4(CCC4)C3)C2)c(-c2cccc(F)c2C2CCC2)c1

>  <aimnet_interaction_kcal_mol>  (6) 
-76.218527239300343

$$$$
L3:Q92830:71683
     RDKit          3D

 94 99  0  0  0  0  0  0  0  0999 V2000
   -9.4516   -6.3511   14.4756 C   0  0  0  0  0  0  0  0  0  0  0  0
   -9.6151   -4.9875   14.2638 C   0  0  0  0  0  0  0  0  0  0  0  0
  -10.6504   -4.2910   14.8663 C   0  0  0  0  0  0  0  0  0  0  0  0
  -11.5247   -4.9285   15.7419 C   0  0  0  0  0  0  0  0  0  0  0  0
  -11.4099   -6.3157   15.9247 C   0  0  0  0  0  0  0  0  0  0  0  0
  -10.4403   -7.0027   15.2004 C   0  0  0  0  0  0  0  0  0  0  0  0
  -12.2079   -7.0436   16.9153 C   0  0  0  0  0  0  0  0  0  0  0  0
  -12.0025   -6.7828   18.2688 C   0  0  0  0  0  0  0  0  0  0  0  0
  -12.5661   -7.6006   19.2280 C   0  0  0  0  0  0  0  0  0  0  0  0
  -13.4029   -8.6331   18.8363 C   0  0  0  0  0  0  0  0  0  0  0  0
  -13.7063   -8.7969   17.5005 C   0  0  0  0  0  0  0  0  0  0  0  0
  -14.6249   -9.7424   17.1763 F   0  0  0  0  0  0  0  0  0  0  0  0
  -13.1263   -8.0248   16.5010 C   0  0  0  0  0  0  0  0  0  0  0  0
  -13.4874   -8.1796   15.0704 C   0  0  0  0  0  0  0  0  0  0  0  0
  -13.4300   -9.5950   14.4301 C   0  0  0  0  0  0  0  0  0  0  0  0
  -14.9102   -9.4827   14.0274 C   0  0  0  0  0  0  0  0  0  0  0  0
  -14.9976   -8.1057   14.6973 C   0  0  0  0  0  0  0  0  0  0  0  0
   -8.1942   -7.1026   14.0496 C   0  0  0  0  0  0  0  0  0  0  0  0
   -7.2162   -7.1013   15.2239 C   0  0  0  0  0  0  0  0  0  0  0  0
   -7.5108   -6.4638   12.8402 C   0  0  0  0  0  0  0  0  0  0  0  0
   -8.1659   -9.5423   14.3664 N   0  0  0  0  0  0  0  0  0  0  0  0
   -8.6492   -8.5083   13.6087 C   0  0  0  0  0  0  0  0  0  0  0  0
   -9.3799   -8.6822   12.6540 O   0  0  0  0  0  0  0  0  0  0  0  0
   -7.5810   -9.3698   15.1643 H   0  0  0  0  0  0  0  0  0  0  0  0
   -8.4397  -11.2297   14.0950 S   0  0  0  0  0  0  0  0  0  0  0  0
   -7.6089  -11.8513   15.1410 O   0  0  0  0  0  0  0  0  0  0  0  0
   -8.2114  -11.5191   12.6731 O   0  0  0  0  0  0  0  0  0  0  0  0
  -10.5125  -11.1291   15.9281 C   0  0  0  0  0  0  0  0  0  0  0  0
  -10.1927  -11.4287   14.4842 C   0  0  0  0  0  0  0  0  0  0  0  0
  -12.4377   -4.2533   16.4893 O   0  0  0  0  0  0  0  0  0  0  0  0
  -13.3218   -3.3296   15.8040 C   0  0  2  0  0  0  0  0  0  0  0  0
  -14.3239   -2.8440   16.8351 C   0  0  0  0  0  0  0  0  0  0  0  0
  -15.4580   -3.8808   16.8297 C   0  0  0  0  0  0  0  0  0  0  0  0
  -15.2099   -4.7939   15.6137 C   0  0  2  0  0  0  0  0  0  0  0  0
  -14.1808   -4.0441   14.7831 C   0  0  0  0  0  0  0  0  0  0  0  0
  -16.4183   -5.1712   14.9066 N   0  0  0  0  0  0  0  0  0  0  0  0
  -16.6119   -5.0988   13.5719 C   0  0  0  0  0  0  0  0  0  0  0  0
  -15.7319   -4.9162   12.7258 O   0  0  0  0  0  0  0  0  0  0  0  0
  -17.0520   -5.7831   15.4115 H   0  0  0  0  0  0  0  0  0  0  0  0
  -18.0835   -5.2609   13.1437 C   0  0  1  0  0  0  0  0  0  0  0  0
  -18.5170   -6.5260   13.6596 F   0  0  0  0  0  0  0  0  0  0  0  0
  -18.9984   -4.1717   13.7651 C   0  0  0  0  0  0  0  0  0  0  0  0
  -19.9707   -3.5701   12.8751 N   0  0  0  0  0  0  0  0  0  0  0  0
  -20.5786   -4.5978   12.0402 C   0  0  0  0  0  0  0  0  0  0  0  0
  -19.5795   -5.1951   11.0610 C   0  0  0  0  0  0  0  0  0  0  0  0
  -19.5961   -4.4373    9.7095 C   0  0  0  0  0  0  0  0  0  0  0  0
  -20.5539   -5.4955    9.1364 C   0  0  0  0  0  0  0  0  0  0  0  0
  -20.1555   -6.4108   10.2997 C   0  0  0  0  0  0  0  0  0  0  0  0
  -18.1841   -5.2835   11.6401 C   0  0  0  0  0  0  0  0  0  0  0  0
  -19.5332   -2.8856   12.2743 H   0  0  0  0  0  0  0  0  0  0  0  0
   -8.9513   -4.4456   13.6077 H   0  0  0  0  0  0  0  0  0  0  0  0
  -10.7662   -3.2376   14.6547 H   0  0  0  0  0  0  0  0  0  0  0  0
  -10.4952   -8.0851   15.2098 H   0  0  0  0  0  0  0  0  0  0  0  0
  -11.3886   -5.9366   18.5474 H   0  0  0  0  0  0  0  0  0  0  0  0
  -12.3623   -7.4426   20.2786 H   0  0  0  0  0  0  0  0  0  0  0  0
  -13.8202   -9.3095   19.5668 H   0  0  0  0  0  0  0  0  0  0  0  0
  -12.9247   -7.4687   14.4727 H   0  0  0  0  0  0  0  0  0  0  0  0
  -13.2132  -10.3936   15.1252 H   0  0  0  0  0  0  0  0  0  0  0  0
  -12.7403   -9.6541   13.5914 H   0  0  0  0  0  0  0  0  0  0  0  0
  -15.5515  -10.2287   14.4712 H   0  0  0  0  0  0  0  0  0  0  0  0
  -15.0734   -9.4473   12.9606 H   0  0  0  0  0  0  0  0  0  0  0  0
  -15.6669   -8.0542   15.5425 H   0  0  0  0  0  0  0  0  0  0  0  0
  -15.2344   -7.3072   14.0081 H   0  0  0  0  0  0  0  0  0  0  0  0
   -6.2914   -7.6295   14.9907 H   0  0  0  0  0  0  0  0  0  0  0  0
   -7.6650   -7.5246   16.1210 H   0  0  0  0  0  0  0  0  0  0  0  0
   -6.9561   -6.0712   15.4580 H   0  0  0  0  0  0  0  0  0  0  0  0
   -6.7172   -7.1101   12.4687 H   0  0  0  0  0  0  0  0  0  0  0  0
   -7.0655   -5.5118   13.1187 H   0  0  0  0  0  0  0  0  0  0  0  0
   -8.2108   -6.2916   12.0303 H   0  0  0  0  0  0  0  0  0  0  0  0
  -11.5353  -11.4377   16.1368 H   0  0  0  0  0  0  0  0  0  0  0  0
  -10.4180  -10.0669   16.1493 H   0  0  0  0  0  0  0  0  0  0  0  0
   -9.8660  -11.6864   16.6010 H   0  0  0  0  0  0  0  0  0  0  0  0
  -10.7012  -10.7870   13.7690 H   0  0  0  0  0  0  0  0  0  0  0  0
  -10.3995  -12.4665   14.2259 H   0  0  0  0  0  0  0  0  0  0  0  0
  -12.7200   -2.5298   15.3724 H   0  0  0  0  0  0  0  0  0  0  0  0
  -14.6967   -1.8663   16.5311 H   0  0  0  0  0  0  0  0  0  0  0  0
  -13.8567   -2.7275   17.8102 H   0  0  0  0  0  0  0  0  0  0  0  0
  -16.4249   -3.3909   16.7437 H   0  0  0  0  0  0  0  0  0  0  0  0
  -15.4787   -4.4795   17.7300 H   0  0  0  0  0  0  0  0  0  0  0  0
  -14.7680   -5.7163   15.9743 H   0  0  0  0  0  0  0  0  0  0  0  0
  -14.6786   -3.2962   14.1672 H   0  0  0  0  0  0  0  0  0  0  0  0
  -13.6143   -4.7038   14.1355 H   0  0  0  0  0  0  0  0  0  0  0  0
  -18.3892   -3.3820   14.1957 H   0  0  0  0  0  0  0  0  0  0  0  0
  -19.5356   -4.6433   14.5862 H   0  0  0  0  0  0  0  0  0  0  0  0
  -21.4389   -4.1827   11.5120 H   0  0  0  0  0  0  0  0  0  0  0  0
  -20.9671   -5.3718   12.7003 H   0  0  0  0  0  0  0  0  0  0  0  0
  -18.6243   -4.4801    9.2247 H   0  0  0  0  0  0  0  0  0  0  0  0
  -19.9136   -3.4042    9.7658 H   0  0  0  0  0  0  0  0  0  0  0  0
  -20.3574   -5.8730    8.1384 H   0  0  0  0  0  0  0  0  0  0  0  0
  -21.6034   -5.2088    9.1780 H   0  0  0  0  0  0  0  0  0  0  0  0
  -19.3758   -7.1233   10.0467 H   0  0  0  0  0  0  0  0  0  0  0  0
  -20.9745   -6.9392   10.7650 H   0  0  0  0  0  0  0  0  0  0  0  0
  -17.6152   -4.4202   11.3046 H   0  0  0  0  0  0  0  0  0  0  0  0
  -17.6680   -6.1664   11.2655 H   0  0  0  0  0  0  0  0  0  0  0  0
  1  2  2  0
  2  3  1  0
  2 51  1  0
  3  4  2  0
  3 52  1  0
  4 30  1  0
  4  5  1  0
  5  7  1  0
  5  6  2  0
  6  1  1  0
  6 53  1  0
  7  8  2  0
  8  9  1  0
  8 54  1  0
  9 10  2  0
  9 55  1  0
 10 11  1  0
 10 56  1  0
 11 12  1  0
 11 13  2  0
 13 14  1  0
 13  7  1  0
 14 15  1  0
 14 57  1  0
 15 16  1  0
 15 58  1  0
 15 59  1  0
 16 17  1  0
 16 60  1  0
 16 61  1  0
 17 14  1  0
 17 62  1  0
 17 63  1  0
 18 19  1  0
 18 20  1  0
 18  1  1  0
 19 64  1  0
 19 65  1  0
 19 66  1  0
 20 67  1  0
 20 68  1  0
 20 69  1  0
 21 22  1  0
 21 24  1  0
 22 23  2  0
 22 18  1  0
 25 26  2  0
 25 27  2  0
 25 21  1  0
 28 29  1  0
 28 70  1  0
 28 71  1  0
 28 72  1  0
 29 25  1  0
 29 73  1  0
 29 74  1  0
 30 31  1  0
 31 32  1  0
 31 75  1  6
 32 33  1  0
 32 76  1  0
 32 77  1  0
 33 34  1  0
 33 78  1  0
 33 79  1  0
 34 36  1  0
 34 35  1  0
 34 80  1  1
 35 31  1  0
 35 81  1  0
 35 82  1  0
 36 37  1  0
 36 39  1  0
 37 38  2  0
 37 40  1  0
 40 41  1  1
 40 42  1  0
 42 43  1  0
 42 83  1  0
 42 84  1  0
 43 44  1  0
 43 50  1  0
 44 45  1  0
 44 85  1  0
 44 86  1  0
 45 46  1  0
 45 49  1  0
 46 47  1  0
 46 87  1  0
 46 88  1  0
 47 48  1  0
 47 89  1  0
 47 90  1  0
 48 45  1  0
 48 91  1  0
 48 92  1  0
 49 40  1  0
 49 93  1  0
 49 94  1  0
M  END
>  <minimizedAffinity>  (7) 
-7.95104

>  <mol_id>  (7) 
71683

>  <source_index>  (7) 
6

>  <layer>  (7) 
L3

>  <uniprot>  (7) 
Q92830

>  <paff>  (7) 
10.3979

>  <smiles>  (7) 
CCS(=O)(=O)NC(=O)C(C)(C)c1ccc(O[C@@H]2CC[C@@H](NC(=O)[C@@]3(F)CNCC4(CCC4)C3)C2)c(-c2cccc(F)c2C2CCC2)c1

>  <aimnet_interaction_kcal_mol>  (7) 
-59.948265718937712

$$$$
L3:Q92830:78328
     RDKit          3D

 87 91  0  0  0  0  0  0  0  0999 V2000
  -20.5565  -10.3962    8.9049 C   0  0  0  0  0  0  0  0  0  0  0  0
  -19.9851   -9.3458    9.6280 C   0  0  0  0  0  0  0  0  0  0  0  0
  -20.0799   -8.0230    9.2139 C   0  0  0  0  0  0  0  0  0  0  0  0
  -20.8173   -7.7332    8.0746 C   0  0  0  0  0  0  0  0  0  0  0  0
  -21.2883   -8.7589    7.2798 C   0  0  0  0  0  0  0  0  0  0  0  0
  -21.1600  -10.0806    7.6847 C   0  0  0  0  0  0  0  0  0  0  0  0
  -21.2795  -12.4881   10.1606 C   0  0  0  0  0  0  0  0  0  0  0  0
  -20.9767  -13.7932   10.5404 C   0  0  0  0  0  0  0  0  0  0  0  0
  -19.7771  -14.3942   10.1953 C   0  0  0  0  0  0  0  0  0  0  0  0
  -18.8511  -13.7014    9.4329 C   0  0  0  0  0  0  0  0  0  0  0  0
  -19.1494  -12.4168    9.0187 C   0  0  0  0  0  0  0  0  0  0  0  0
  -20.3527  -11.7954    9.3599 C   0  0  0  0  0  0  0  0  0  0  0  0
  -23.6059  -11.9335    9.4592 C   0  0  0  0  0  0  0  0  0  0  0  0
  -22.5777  -11.8487   10.5877 C   0  0  0  0  0  0  0  0  0  0  0  0
  -23.1413  -12.4416   11.8722 C   0  0  0  0  0  0  0  0  0  0  0  0
  -19.2657   -6.9530    9.8814 C   0  0  0  0  0  0  0  0  0  0  0  0
  -20.0164   -5.6884   10.2494 C   0  0  0  0  0  0  0  0  0  0  0  0
  -20.7339   -5.0927    9.4548 O   0  0  0  0  0  0  0  0  0  0  0  0
  -19.7956   -5.2436   11.5167 N   0  0  0  0  0  0  0  0  0  0  0  0
  -19.2478   -5.8070   12.1455 H   0  0  0  0  0  0  0  0  0  0  0  0
  -20.8857   -4.0439   12.1708 S   0  0  0  0  0  0  0  0  0  0  0  0
  -22.2352   -4.6265   12.1627 O   0  0  0  0  0  0  0  0  0  0  0  0
  -20.5784   -2.8116   11.4432 O   0  0  0  0  0  0  0  0  0  0  0  0
  -20.3137   -3.8852   13.8994 C   0  0  0  0  0  0  0  0  0  0  0  0
  -18.8500   -4.2334   14.0773 C   0  0  0  0  0  0  0  0  0  0  0  0
  -20.6803   -2.4734   14.3032 C   0  0  0  0  0  0  0  0  0  0  0  0
  -21.6556  -11.0912    6.8746 O   0  0  0  0  0  0  0  0  0  0  0  0
  -21.1213  -11.1517    5.5604 C   0  0  2  0  0  0  0  0  0  0  0  0
  -22.2148  -11.1280    4.4964 C   0  0  0  0  0  0  0  0  0  0  0  0
  -21.6448  -11.9283    3.3091 C   0  0  0  0  0  0  0  0  0  0  0  0
  -20.2973  -12.5206    3.7775 C   0  0  2  0  0  0  0  0  0  0  0  0
  -20.3851  -12.4533    5.3038 C   0  0  0  0  0  0  0  0  0  0  0  0
  -19.1259  -11.7642    3.3384 N   0  0  0  0  0  0  0  0  0  0  0  0
  -18.8720  -11.1975    2.1431 C   0  0  0  0  0  0  0  0  0  0  0  0
  -19.6866  -11.0021    1.2363 O   0  0  0  0  0  0  0  0  0  0  0  0
  -18.2947  -11.9151    3.8923 H   0  0  0  0  0  0  0  0  0  0  0  0
  -17.4261  -10.7094    1.9944 C   0  0  1  0  0  0  0  0  0  0  0  0
  -16.5464  -11.5890    2.6779 F   0  0  0  0  0  0  0  0  0  0  0  0
  -17.0359  -10.5930    0.5198 C   0  0  0  0  0  0  0  0  0  0  0  0
  -17.3374   -9.2260    0.1471 N   0  0  0  0  0  0  0  0  0  0  0  0
  -16.8991   -8.4405    1.3056 C   0  0  0  0  0  0  0  0  0  0  0  0
  -17.2882   -6.9436    1.3801 C   0  0  0  0  0  0  0  0  0  0  0  0
  -15.8118   -6.5832    1.6436 C   0  0  0  0  0  0  0  0  0  0  0  0
  -15.4108   -8.0130    1.2454 C   0  0  0  0  0  0  0  0  0  0  0  0
  -17.2834   -9.2787    2.5288 C   0  0  0  0  0  0  0  0  0  0  0  0
  -18.3396   -9.1425    0.0380 H   0  0  0  0  0  0  0  0  0  0  0  0
  -19.4067   -9.5900   10.5109 H   0  0  0  0  0  0  0  0  0  0  0  0
  -21.0093   -6.7033    7.8143 H   0  0  0  0  0  0  0  0  0  0  0  0
  -21.7602   -8.5415    6.3295 H   0  0  0  0  0  0  0  0  0  0  0  0
  -21.6876  -14.3578   11.1267 H   0  0  0  0  0  0  0  0  0  0  0  0
  -19.5667  -15.4040   10.5247 H   0  0  0  0  0  0  0  0  0  0  0  0
  -17.8904  -14.1326    9.1898 H   0  0  0  0  0  0  0  0  0  0  0  0
  -18.4135  -11.8684    8.4480 H   0  0  0  0  0  0  0  0  0  0  0  0
  -24.5218  -11.4052    9.7229 H   0  0  0  0  0  0  0  0  0  0  0  0
  -23.8474  -12.9761    9.2470 H   0  0  0  0  0  0  0  0  0  0  0  0
  -23.2069  -11.4967    8.5525 H   0  0  0  0  0  0  0  0  0  0  0  0
  -22.3765  -10.7908   10.7594 H   0  0  0  0  0  0  0  0  0  0  0  0
  -23.5634  -13.4305   11.7033 H   0  0  0  0  0  0  0  0  0  0  0  0
  -23.9334  -11.8232   12.2833 H   0  0  0  0  0  0  0  0  0  0  0  0
  -22.3884  -12.5373   12.6503 H   0  0  0  0  0  0  0  0  0  0  0  0
  -18.4572   -6.6453    9.2104 H   0  0  0  0  0  0  0  0  0  0  0  0
  -18.7502   -7.3794   10.7387 H   0  0  0  0  0  0  0  0  0  0  0  0
  -20.9476   -4.5889   14.4275 H   0  0  0  0  0  0  0  0  0  0  0  0
  -18.2330   -3.8687   13.2619 H   0  0  0  0  0  0  0  0  0  0  0  0
  -18.6863   -5.3032   14.2007 H   0  0  0  0  0  0  0  0  0  0  0  0
  -18.4800   -3.7634   14.9858 H   0  0  0  0  0  0  0  0  0  0  0  0
  -20.0202   -1.7440   13.8419 H   0  0  0  0  0  0  0  0  0  0  0  0
  -20.6167   -2.3713   15.3847 H   0  0  0  0  0  0  0  0  0  0  0  0
  -21.6954   -2.2182   14.0042 H   0  0  0  0  0  0  0  0  0  0  0  0
  -20.4389  -10.3135    5.4176 H   0  0  0  0  0  0  0  0  0  0  0  0
  -22.5042  -10.1134    4.2277 H   0  0  0  0  0  0  0  0  0  0  0  0
  -23.1031  -11.6129    4.8995 H   0  0  0  0  0  0  0  0  0  0  0  0
  -21.5071  -11.3170    2.4284 H   0  0  0  0  0  0  0  0  0  0  0  0
  -22.3179  -12.7377    3.0369 H   0  0  0  0  0  0  0  0  0  0  0  0
  -20.1823  -13.5489    3.4314 H   0  0  0  0  0  0  0  0  0  0  0  0
  -19.4219  -12.4945    5.8099 H   0  0  0  0  0  0  0  0  0  0  0  0
  -20.9819  -13.2830    5.6825 H   0  0  0  0  0  0  0  0  0  0  0  0
  -17.5680  -11.3110   -0.0974 H   0  0  0  0  0  0  0  0  0  0  0  0
  -15.9644  -10.7791    0.4438 H   0  0  0  0  0  0  0  0  0  0  0  0
  -17.9832   -6.6636    2.1711 H   0  0  0  0  0  0  0  0  0  0  0  0
  -17.6662   -6.5748    0.4272 H   0  0  0  0  0  0  0  0  0  0  0  0
  -15.6173   -6.3709    2.6909 H   0  0  0  0  0  0  0  0  0  0  0  0
  -15.3914   -5.7746    1.0517 H   0  0  0  0  0  0  0  0  0  0  0  0
  -14.7308   -8.5292    1.9203 H   0  0  0  0  0  0  0  0  0  0  0  0
  -15.0298   -8.0903    0.2289 H   0  0  0  0  0  0  0  0  0  0  0  0
  -18.2322   -8.9376    2.9359 H   0  0  0  0  0  0  0  0  0  0  0  0
  -16.5505   -9.2297    3.3266 H   0  0  0  0  0  0  0  0  0  0  0  0
  1  2  2  0
  2  3  1  0
  2 47  1  0
  3 16  1  0
  3  4  2  0
  4  5  1  0
  4 48  1  0
  5  6  2  0
  5 49  1  0
  6 27  1  0
  6  1  1  0
  7  8  2  0
  8  9  1  0
  8 50  1  0
  9 10  2  0
  9 51  1  0
 10 11  1  0
 10 52  1  0
 11 12  2  0
 11 53  1  0
 12  1  1  0
 12  7  1  0
 13 14  1  0
 13 54  1  0
 13 55  1  0
 13 56  1  0
 14 15  1  0
 14  7  1  0
 14 57  1  0
 15 58  1  0
 15 59  1  0
 15 60  1  0
 16 17  1  0
 16 61  1  0
 16 62  1  0
 17 18  2  0
 17 19  1  0
 19 21  1  0
 19 20  1  0
 21 22  2  0
 21 23  2  0
 21 24  1  0
 24 25  1  0
 24 26  1  0
 24 63  1  0
 25 64  1  0
 25 65  1  0
 25 66  1  0
 26 67  1  0
 26 68  1  0
 26 69  1  0
 27 28  1  0
 28 29  1  0
 28 70  1  6
 29 30  1  0
 29 71  1  0
 29 72  1  0
 30 31  1  0
 30 73  1  0
 30 74  1  0
 31 33  1  0
 31 32  1  0
 31 75  1  1
 32 28  1  0
 32 76  1  0
 32 77  1  0
 33 34  1  0
 33 36  1  0
 34 35  2  0
 34 37  1  0
 37 38  1  1
 37 39  1  0
 39 40  1  0
 39 78  1  0
 39 79  1  0
 40 41  1  0
 40 46  1  0
 41 42  1  0
 41 45  1  0
 42 43  1  0
 42 80  1  0
 42 81  1  0
 43 44  1  0
 43 82  1  0
 43 83  1  0
 44 41  1  0
 44 84  1  0
 44 85  1  0
 45 37  1  0
 45 86  1  0
 45 87  1  0
M  END
>  <minimizedAffinity>  (8) 
-8.29394

>  <mol_id>  (8) 
78328

>  <source_index>  (8) 
7

>  <layer>  (8) 
L3

>  <uniprot>  (8) 
Q92830

>  <paff>  (8) 
9.9586000000000006

>  <smiles>  (8) 
CC(C)c1ccccc1-c1cc(CC(=O)NS(=O)(=O)C(C)C)ccc1O[C@@H]1CC[C@@H](NC(=O)[C@@]2(F)CNC3(CCC3)C2)C1

>  <aimnet_interaction_kcal_mol>  (8) 
-77.482894663533457

$$$$
L3:Q92830:125008
     RDKit          3D

 86 93  0  0  0  0  0  0  0  0999 V2000
  -17.6736   -5.7229   13.6576 C   0  0  0  0  0  0  0  0  0  0  0  0
  -17.7375   -7.1116   13.7033 C   0  0  0  0  0  0  0  0  0  0  0  0
  -16.6979   -7.8888   14.1801 C   0  0  0  0  0  0  0  0  0  0  0  0
  -15.5733   -7.2739   14.7086 C   0  0  0  0  0  0  0  0  0  0  0  0
  -15.4346   -5.8726   14.6092 C   0  0  0  0  0  0  0  0  0  0  0  0
  -16.5077   -5.1261   14.1418 C   0  0  0  0  0  0  0  0  0  0  0  0
  -14.1700   -5.2199   14.9588 C   0  0  0  0  0  0  0  0  0  0  0  0
  -12.9629   -5.6894   14.4300 C   0  0  0  0  0  0  0  0  0  0  0  0
  -11.8003   -4.9526   14.5644 C   0  0  0  0  0  0  0  0  0  0  0  0
  -11.8224   -3.7429   15.2430 C   0  0  0  0  0  0  0  0  0  0  0  0
  -13.0024   -3.3368   15.8317 C   0  0  0  0  0  0  0  0  0  0  0  0
  -12.9960   -2.1406   16.4996 F   0  0  0  0  0  0  0  0  0  0  0  0
  -14.1763   -4.0778   15.7935 C   0  0  0  0  0  0  0  0  0  0  0  0
  -15.3483   -3.7446   16.6447 C   0  0  0  0  0  0  0  0  0  0  0  0
  -15.1011   -3.4615   18.1589 C   0  0  0  0  0  0  0  0  0  0  0  0
  -15.8721   -2.1300   18.0395 C   0  0  0  0  0  0  0  0  0  0  0  0
  -16.0257   -2.3527   16.5218 C   0  0  0  0  0  0  0  0  0  0  0  0
  -19.3064   -4.8449   11.8251 C   0  0  0  0  0  0  0  0  0  0  0  0
  -20.3188   -3.9846   11.7172 N   0  0  0  0  0  0  0  0  0  0  0  0
  -20.4873   -3.5125   12.9631 N   0  0  0  0  0  0  0  0  0  0  0  0
  -19.5736   -4.0075   13.8363 C   0  0  0  0  0  0  0  0  0  0  0  0
  -18.7826   -4.9079   13.1487 C   0  0  0  0  0  0  0  0  0  0  0  0
  -18.7675   -5.1661    9.5243 O   0  0  0  0  0  0  0  0  0  0  0  0
  -18.8723   -5.6126   10.6516 C   0  0  0  0  0  0  0  0  0  0  0  0
  -18.6244   -6.8886   10.9646 O   0  0  0  0  0  0  0  0  0  0  0  0
  -17.9459   -7.2810   10.3685 H   0  0  0  0  0  0  0  0  0  0  0  0
  -21.6091   -2.6821   13.3027 C   0  0  0  0  0  0  0  0  0  0  0  0
  -21.3660   -1.5077   14.1884 C   0  0  0  0  0  0  0  0  0  0  0  0
  -21.6659   -1.3029   12.7489 C   0  0  0  0  0  0  0  0  0  0  0  0
  -14.5894   -7.9152   15.3683 O   0  0  0  0  0  0  0  0  0  0  0  0
  -14.4793   -9.3587   15.3461 C   0  0  2  0  0  0  0  0  0  0  0  0
  -13.7368   -9.7393   16.6112 C   0  0  0  0  0  0  0  0  0  0  0  0
  -12.2954   -9.3678   16.2800 C   0  0  0  0  0  0  0  0  0  0  0  0
  -12.1182   -9.7531   14.8030 C   0  0  2  0  0  0  0  0  0  0  0  0
  -13.5470   -9.7806   14.2140 C   0  0  0  0  0  0  0  0  0  0  0  0
  -11.4731  -11.0562   14.6875 N   0  0  0  0  0  0  0  0  0  0  0  0
  -10.4601  -11.2820   13.8233 C   0  0  0  0  0  0  0  0  0  0  0  0
  -10.1221  -10.5007   12.9338 O   0  0  0  0  0  0  0  0  0  0  0  0
  -11.8621  -11.7855   15.2885 H   0  0  0  0  0  0  0  0  0  0  0  0
   -9.6244  -12.5455   14.0644 C   0  0  1  0  0  0  0  0  0  0  0  0
   -8.9967  -12.8486   12.8229 F   0  0  0  0  0  0  0  0  0  0  0  0
   -8.5000  -12.2920   15.0817 C   0  0  0  0  0  0  0  0  0  0  0  0
   -8.0766  -13.6115   15.5237 N   0  0  0  0  0  0  0  0  0  0  0  0
   -9.3480  -14.3457   15.6782 C   0  0  0  0  0  0  0  0  0  0  0  0
   -9.1672  -15.8711   15.8273 C   0  0  0  0  0  0  0  0  0  0  0  0
   -9.2618  -15.7093   17.3554 C   0  0  0  0  0  0  0  0  0  0  0  0
   -9.8478  -14.2999   17.1433 C   0  0  0  0  0  0  0  0  0  0  0  0
  -10.2797  -13.8128   14.5845 C   0  0  0  0  0  0  0  0  0  0  0  0
   -7.5762  -14.0338   14.7469 H   0  0  0  0  0  0  0  0  0  0  0  0
  -18.6023   -7.6270   13.3285 H   0  0  0  0  0  0  0  0  0  0  0  0
  -16.7914   -8.9609   14.1303 H   0  0  0  0  0  0  0  0  0  0  0  0
  -16.4190   -4.0458   14.1498 H   0  0  0  0  0  0  0  0  0  0  0  0
  -12.9464   -6.6397   13.9146 H   0  0  0  0  0  0  0  0  0  0  0  0
  -10.8703   -5.3015   14.1358 H   0  0  0  0  0  0  0  0  0  0  0  0
  -10.9413   -3.1239   15.3295 H   0  0  0  0  0  0  0  0  0  0  0  0
  -16.0746   -4.5412   16.5347 H   0  0  0  0  0  0  0  0  0  0  0  0
  -14.0544   -3.3492   18.4216 H   0  0  0  0  0  0  0  0  0  0  0  0
  -15.5361   -4.2123   18.8095 H   0  0  0  0  0  0  0  0  0  0  0  0
  -15.3005   -1.2458   18.3112 H   0  0  0  0  0  0  0  0  0  0  0  0
  -16.8136   -2.1035   18.5868 H   0  0  0  0  0  0  0  0  0  0  0  0
  -15.4692   -1.6531   15.9047 H   0  0  0  0  0  0  0  0  0  0  0  0
  -17.0538   -2.3877   16.1570 H   0  0  0  0  0  0  0  0  0  0  0  0
  -19.5737   -3.6850   14.8584 H   0  0  0  0  0  0  0  0  0  0  0  0
  -22.5120   -3.2634   13.3977 H   0  0  0  0  0  0  0  0  0  0  0  0
  -20.3588   -1.3213   14.5448 H   0  0  0  0  0  0  0  0  0  0  0  0
  -22.1286   -1.2920   14.9189 H   0  0  0  0  0  0  0  0  0  0  0  0
  -20.8962   -1.0286   12.0476 H   0  0  0  0  0  0  0  0  0  0  0  0
  -22.6310   -0.9173   12.4676 H   0  0  0  0  0  0  0  0  0  0  0  0
  -15.4669   -9.8072   15.2851 H   0  0  0  0  0  0  0  0  0  0  0  0
  -13.8182  -10.8119   16.7775 H   0  0  0  0  0  0  0  0  0  0  0  0
  -14.1339   -9.2092   17.4745 H   0  0  0  0  0  0  0  0  0  0  0  0
  -11.5701   -9.8699   16.9175 H   0  0  0  0  0  0  0  0  0  0  0  0
  -12.1556   -8.2939   16.3981 H   0  0  0  0  0  0  0  0  0  0  0  0
  -11.4863   -9.0480   14.2725 H   0  0  0  0  0  0  0  0  0  0  0  0
  -13.8003  -10.7892   13.8966 H   0  0  0  0  0  0  0  0  0  0  0  0
  -13.6403   -9.1326   13.3466 H   0  0  0  0  0  0  0  0  0  0  0  0
   -8.9187  -11.7412   15.9256 H   0  0  0  0  0  0  0  0  0  0  0  0
   -7.6883  -11.7081   14.6531 H   0  0  0  0  0  0  0  0  0  0  0  0
   -8.2467  -16.3011   15.4287 H   0  0  0  0  0  0  0  0  0  0  0  0
  -10.0185  -16.4091   15.4136 H   0  0  0  0  0  0  0  0  0  0  0  0
   -8.2810  -15.6810   17.8252 H   0  0  0  0  0  0  0  0  0  0  0  0
   -9.8989  -16.4143   17.8799 H   0  0  0  0  0  0  0  0  0  0  0  0
   -9.4403  -13.4963   17.7541 H   0  0  0  0  0  0  0  0  0  0  0  0
  -10.9345  -14.2820   17.1908 H   0  0  0  0  0  0  0  0  0  0  0  0
  -11.2637  -13.6536   14.9945 H   0  0  0  0  0  0  0  0  0  0  0  0
  -10.3710  -14.5180   13.7624 H   0  0  0  0  0  0  0  0  0  0  0  0
  1  2  2  0
  2  3  1  0
  2 50  1  0
  3  4  2  0
  3 51  1  0
  4 30  1  0
  4  5  1  0
  5  7  1  0
  5  6  2  0
  6  1  1  0
  6 52  1  0
  7  8  2  0
  8  9  1  0
  8 53  1  0
  9 10  2  0
  9 54  1  0
 10 11  1  0
 10 55  1  0
 11 12  1  0
 11 13  2  0
 13 14  1  0
 13  7  1  0
 14 15  1  0
 14 56  1  0
 15 16  1  0
 15 57  1  0
 15 58  1  0
 16 17  1  0
 16 59  1  0
 16 60  1  0
 17 14  1  0
 17 61  1  0
 17 62  1  0
 18 19  2  0
 19 20  1  0
 20 27  1  0
 20 21  1  0
 21 22  2  0
 21 63  1  0
 22  1  1  0
 22 18  1  0
 23 24  2  0
 24 25  1  0
 24 18  1  0
 25 26  1  0
 27 28  1  0
 27 64  1  0
 28 29  1  0
 28 65  1  0
 28 66  1  0
 29 27  1  0
 29 67  1  0
 29 68  1  0
 30 31  1  0
 31 32  1  0
 31 69  1  6
 32 33  1  0
 32 70  1  0
 32 71  1  0
 33 34  1  0
 33 72  1  0
 33 73  1  0
 34 36  1  0
 34 35  1  0
 34 74  1  6
 35 31  1  0
 35 75  1  0
 35 76  1  0
 36 37  1  0
 36 39  1  0
 37 38  2  0
 37 40  1  0
 40 41  1  6
 40 42  1  0
 42 43  1  0
 42 77  1  0
 42 78  1  0
 43 44  1  0
 43 49  1  0
 44 45  1  0
 44 48  1  0
 45 46  1  0
 45 79  1  0
 45 80  1  0
 46 47  1  0
 46 81  1  0
 46 82  1  0
 47 44  1  0
 47 83  1  0
 47 84  1  0
 48 40  1  0
 48 85  1  0
 48 86  1  0
M  END
>  <minimizedAffinity>  (9) 
-8.55964

>  <mol_id>  (9) 
125008

>  <source_index>  (9) 
8

>  <layer>  (9) 
L3

>  <uniprot>  (9) 
Q92830

>  <paff>  (9) 
10.0969

>  <smiles>  (9) 
O=C(O)c1nn(C2CC2)cc1-c1ccc(O[C@@H]2CC[C@@H](NC(=O)[C@@]3(F)CNC4(CCC4)C3)C2)c(-c2cccc(F)c2C2CCC2)c1

>  <aimnet_interaction_kcal_mol>  (9) 
-89.996771945547863

$$$$
L3:Q92830:127198
     RDKit          3D

 83 87  0  0  0  0  0  0  0  0999 V2000
  -21.4648   -9.2336    8.2776 C   0  0  0  0  0  0  0  0  0  0  0  0
  -21.7565   -7.9482    7.8487 C   0  0  0  0  0  0  0  0  0  0  0  0
  -21.2806   -6.8506    8.5408 C   0  0  0  0  0  0  0  0  0  0  0  0
  -20.3948   -7.0040    9.6058 C   0  0  0  0  0  0  0  0  0  0  0  0
  -20.0233   -8.2966    9.9557 C   0  0  0  0  0  0  0  0  0  0  0  0
  -20.6300   -9.4297    9.3846 C   0  0  0  0  0  0  0  0  0  0  0  0
  -20.3154  -10.7825    9.8743 C   0  0  0  0  0  0  0  0  0  0  0  0
  -18.9922  -11.1788   10.0599 C   0  0  0  0  0  0  0  0  0  0  0  0
  -18.6505  -12.5202    9.9981 C   0  0  0  0  0  0  0  0  0  0  0  0
  -19.6538  -13.4745    9.9283 C   0  0  0  0  0  0  0  0  0  0  0  0
  -20.9669  -13.0588   10.0168 C   0  0  0  0  0  0  0  0  0  0  0  0
  -21.9414  -14.0224    9.9830 F   0  0  0  0  0  0  0  0  0  0  0  0
  -21.3393  -11.7269   10.1275 C   0  0  0  0  0  0  0  0  0  0  0  0
  -22.7044  -11.3260   10.5698 C   0  0  0  0  0  0  0  0  0  0  0  0
  -23.9206  -11.7589    9.7021 C   0  0  0  0  0  0  0  0  0  0  0  0
  -24.5429  -12.5014   10.9004 C   0  0  0  0  0  0  0  0  0  0  0  0
  -23.3329  -12.0968   11.7757 C   0  0  0  0  0  0  0  0  0  0  0  0
  -19.8982   -5.7519   10.3418 C   0  0  0  0  0  0  0  0  0  0  0  0
  -19.3615   -4.7404    9.3211 C   0  0  0  0  0  0  0  0  0  0  0  0
  -18.7754   -6.0107   11.3308 C   0  0  0  0  0  0  0  0  0  0  0  0
  -21.1185   -5.0960   10.9759 C   0  0  0  0  0  0  0  0  0  0  0  0
  -22.0462   -4.6457   10.3356 O   0  0  0  0  0  0  0  0  0  0  0  0
  -21.0624   -5.0409   12.3039 O   0  0  0  0  0  0  0  0  0  0  0  0
  -21.9028   -4.6665   12.6213 H   0  0  0  0  0  0  0  0  0  0  0  0
  -22.0435  -10.3182    7.6249 O   0  0  0  0  0  0  0  0  0  0  0  0
  -19.8023  -12.0035    5.3511 C   0  0  2  0  0  0  0  0  0  0  0  0
  -21.1590  -12.2589    4.6854 C   0  0  0  0  0  0  0  0  0  0  0  0
  -22.1731  -11.7919    5.7180 C   0  0  0  0  0  0  0  0  0  0  0  0
  -21.5329  -10.5522    6.3198 C   0  0  2  0  0  0  0  0  0  0  0  0
  -20.0260  -10.8146    6.2900 C   0  0  0  0  0  0  0  0  0  0  0  0
  -18.1452  -12.7064    3.6679 C   0  0  0  0  0  0  0  0  0  0  0  0
  -18.4971  -13.8822    3.7219 O   0  0  0  0  0  0  0  0  0  0  0  0
  -18.7406  -11.7354    4.3978 N   0  0  0  0  0  0  0  0  0  0  0  0
  -18.3343  -10.8180    4.3921 H   0  0  0  0  0  0  0  0  0  0  0  0
  -18.1245  -14.0187    0.9505 H   0  0  0  0  0  0  0  0  0  0  0  0
  -18.5253  -13.0174    0.8238 C   0  0  0  0  0  0  0  0  0  0  0  0
  -19.5071  -12.9947    1.3167 H   0  0  0  0  0  0  0  0  0  0  0  0
  -18.6707  -12.8371   -0.2422 H   0  0  0  0  0  0  0  0  0  0  0  0
  -17.5865  -12.0404    1.3361 N   0  0  0  0  0  0  0  0  0  0  0  0
  -18.0559  -10.6711    1.3141 C   0  0  0  0  0  0  0  0  0  0  0  0
  -16.9495   -9.8821    2.0192 C   0  0  0  0  0  0  0  0  0  0  0  0
  -17.4935   -8.6515    2.7305 C   0  0  0  0  0  0  0  0  0  0  0  0
  -15.8921   -9.4561    1.0020 C   0  0  0  0  0  0  0  0  0  0  0  0
  -16.3411  -10.9322    2.9853 C   0  0  0  0  0  0  0  0  0  0  0  0
  -17.0549  -12.2596    2.6927 C   0  0  1  0  0  0  0  0  0  0  0  0
  -22.4145   -7.8090    7.0017 H   0  0  0  0  0  0  0  0  0  0  0  0
  -21.6534   -5.8711    8.2887 H   0  0  0  0  0  0  0  0  0  0  0  0
  -19.2569   -8.4487   10.7000 H   0  0  0  0  0  0  0  0  0  0  0  0
  -18.2423  -10.4400   10.2982 H   0  0  0  0  0  0  0  0  0  0  0  0
  -17.6202  -12.8288   10.0154 H   0  0  0  0  0  0  0  0  0  0  0  0
  -19.4275  -14.5267    9.8323 H   0  0  0  0  0  0  0  0  0  0  0  0
  -22.6998  -10.2564   10.7441 H   0  0  0  0  0  0  0  0  0  0  0  0
  -23.6453  -12.3927    8.8653 H   0  0  0  0  0  0  0  0  0  0  0  0
  -24.4880  -10.9134    9.3266 H   0  0  0  0  0  0  0  0  0  0  0  0
  -24.6632  -13.5718   10.7561 H   0  0  0  0  0  0  0  0  0  0  0  0
  -25.5010  -12.1069   11.2347 H   0  0  0  0  0  0  0  0  0  0  0  0
  -22.7394  -12.9338   12.1286 H   0  0  0  0  0  0  0  0  0  0  0  0
  -23.5663  -11.4718   12.6328 H   0  0  0  0  0  0  0  0  0  0  0  0
  -18.4872   -5.1421    8.8106 H   0  0  0  0  0  0  0  0  0  0  0  0
  -19.0693   -3.8184    9.8154 H   0  0  0  0  0  0  0  0  0  0  0  0
  -20.1215   -4.4929    8.5903 H   0  0  0  0  0  0  0  0  0  0  0  0
  -17.9468   -6.5046   10.8376 H   0  0  0  0  0  0  0  0  0  0  0  0
  -19.0676   -6.6281   12.1681 H   0  0  0  0  0  0  0  0  0  0  0  0
  -18.4190   -5.0662   11.7342 H   0  0  0  0  0  0  0  0  0  0  0  0
  -19.5205  -12.8869    5.9258 H   0  0  0  0  0  0  0  0  0  0  0  0
  -21.2861  -13.2962    4.3905 H   0  0  0  0  0  0  0  0  0  0  0  0
  -21.2290  -11.6494    3.7818 H   0  0  0  0  0  0  0  0  0  0  0  0
  -22.2879  -12.5400    6.5018 H   0  0  0  0  0  0  0  0  0  0  0  0
  -23.1613  -11.5866    5.3056 H   0  0  0  0  0  0  0  0  0  0  0  0
  -21.7658   -9.6789    5.6960 H   0  0  0  0  0  0  0  0  0  0  0  0
  -19.6570  -11.0517    7.2819 H   0  0  0  0  0  0  0  0  0  0  0  0
  -19.5152   -9.9137    5.9527 H   0  0  0  0  0  0  0  0  0  0  0  0
  -19.0216  -10.5399    1.8373 H   0  0  0  0  0  0  0  0  0  0  0  0
  -18.2103  -10.3362    0.2859 H   0  0  0  0  0  0  0  0  0  0  0  0
  -17.8437   -7.9081    2.0158 H   0  0  0  0  0  0  0  0  0  0  0  0
  -16.7378   -8.1787    3.3482 H   0  0  0  0  0  0  0  0  0  0  0  0
  -18.3326   -8.8978    3.3827 H   0  0  0  0  0  0  0  0  0  0  0  0
  -16.3058   -8.7511    0.2801 H   0  0  0  0  0  0  0  0  0  0  0  0
  -15.5173  -10.3193    0.4532 H   0  0  0  0  0  0  0  0  0  0  0  0
  -15.0509   -8.9695    1.4970 H   0  0  0  0  0  0  0  0  0  0  0  0
  -16.3923  -10.6192    4.0256 H   0  0  0  0  0  0  0  0  0  0  0  0
  -15.2833  -11.0613    2.7686 H   0  0  0  0  0  0  0  0  0  0  0  0
  -16.3533  -13.0914    2.6574 H   0  0  0  0  0  0  0  0  0  0  0  0
  1  2  2  0
  2  3  1  0
  2 46  1  0
  3  4  2  0
  3 47  1  0
  4 18  1  0
  4  5  1  0
  5  6  2  0
  5 48  1  0
  6  7  1  0
  6  1  1  0
  7  8  2  0
  8  9  1  0
  8 49  1  0
  9 10  2  0
  9 50  1  0
 10 11  1  0
 10 51  1  0
 11 12  1  0
 11 13  2  0
 13 14  1  0
 13  7  1  0
 14 15  1  0
 14 52  1  0
 15 16  1  0
 15 53  1  0
 15 54  1  0
 16 17  1  0
 16 55  1  0
 16 56  1  0
 17 14  1  0
 17 57  1  0
 17 58  1  0
 18 19  1  0
 18 20  1  0
 18 21  1  0
 19 59  1  0
 19 60  1  0
 19 61  1  0
 20 62  1  0
 20 63  1  0
 20 64  1  0
 21 22  2  0
 21 23  1  0
 23 24  1  0
 25  1  1  0
 26 27  1  0
 26 65  1  1
 27 28  1  0
 27 66  1  0
 27 67  1  0
 28 29  1  0
 28 68  1  0
 28 69  1  0
 29 25  1  0
 29 30  1  0
 29 70  1  6
 30 26  1  0
 30 71  1  0
 30 72  1  0
 31 32  2  0
 31 33  1  0
 33 26  1  0
 33 34  1  0
 35 36  1  0
 36 37  1  0
 36 38  1  0
 36 39  1  0
 39 40  1  0
 40 41  1  0
 40 73  1  0
 40 74  1  0
 41 42  1  0
 41 43  1  0
 41 44  1  0
 42 75  1  0
 42 76  1  0
 42 77  1  0
 43 78  1  0
 43 79  1  0
 43 80  1  0
 44 45  1  0
 44 81  1  0
 44 82  1  0
 45 31  1  0
 45 39  1  0
 45 83  1  6
M  ISO  3  35   2  37   2  38   2
M  END
>  <minimizedAffinity>  (10) 
-7.94658

>  <mol_id>  (10) 
127198

>  <source_index>  (10) 
9

>  <layer>  (10) 
L3

>  <uniprot>  (10) 
Q92830

>  <paff>  (10) 
8.0520999999999994

>  <smiles>  (10) 
[2H]C([2H])([2H])N1CC(C)(C)C[C@H]1C(=O)N[C@@H]1CC[C@@H](Oc2ccc(C(C)(C)C(=O)O)cc2-c2cccc(F)c2C2CCC2)C1

>  <aimnet_interaction_kcal_mol>  (10) 
-58.216028370214111

$$$$
