L3:Q92830:12327
     RDKit          3D

 81 85  0  0  0  0  0  0  0  0999 V2000
  -12.8722   -8.2141   14.8283 C   0  0  0  0  0  0  0  0  0  0  0  0
  -13.8488   -8.8713   14.0722 C   0  0  0  0  0  0  0  0  0  0  0  0
  -13.6058  -10.1460   13.5725 C   0  0  0  0  0  0  0  0  0  0  0  0
  -12.4028  -10.7822   13.8621 C   0  0  0  0  0  0  0  0  0  0  0  0
  -11.4349  -10.1558   14.6695 C   0  0  0  0  0  0  0  0  0  0  0  0
  -11.6485   -8.8456   15.1601 C   0  0  0  0  0  0  0  0  0  0  0  0
  -10.6344   -8.1153   15.9568 C   0  0  0  0  0  0  0  0  0  0  0  0
  -10.6857   -8.2345   17.3663 C   0  0  0  0  0  0  0  0  0  0  0  0
   -9.7396   -7.6221   18.1815 C   0  0  0  0  0  0  0  0  0  0  0  0
   -8.7295   -6.8746   17.5990 C   0  0  0  0  0  0  0  0  0  0  0  0
   -8.6869   -6.7289   16.2134 C   0  0  0  0  0  0  0  0  0  0  0  0
   -7.7020   -5.9730   15.7063 F   0  0  0  0  0  0  0  0  0  0  0  0
   -9.6251   -7.3196   15.3380 C   0  0  0  0  0  0  0  0  0  0  0  0
   -9.5458   -7.0800   13.7497 C   0  0  0  0  0  0  0  0  0  0  0  0
   -9.4074   -5.6359   13.2064 C   0  0  0  0  0  0  0  0  0  0  0  0
   -7.9794   -5.9519   12.7443 C   0  0  0  0  0  0  0  0  0  0  0  0
   -8.2361   -7.4408   13.0092 C   0  0  0  0  0  0  0  0  0  0  0  0
  -10.2248  -10.9739   14.9576 C   0  0  0  0  0  0  0  0  0  0  0  0
   -9.2369  -10.8918   14.2440 O   0  0  0  0  0  0  0  0  0  0  0  0
  -10.3424  -11.8976   15.9982 N   0  0  0  0  0  0  0  0  0  0  0  0
  -11.2133  -12.0369   16.5008 H   0  0  0  0  0  0  0  0  0  0  0  0
   -9.1106  -12.8358   16.5885 S   0  0  0  0  0  0  0  0  0  0  0  0
   -9.8727  -13.6834   17.9576 C   0  0  0  0  0  0  0  0  0  0  0  0
   -8.1554  -11.8951   17.1370 O   0  0  0  0  0  0  0  0  0  0  0  0
   -8.7135  -13.7963   15.5860 O   0  0  0  0  0  0  0  0  0  0  0  0
  -13.1152   -6.9685   15.3549 O   0  0  0  0  0  0  0  0  0  0  0  0
  -15.4407   -5.2842   14.8159 C   0  0  2  0  0  0  0  0  0  0  0  0
  -14.5475   -4.3698   15.6651 C   0  0  0  0  0  0  0  0  0  0  0  0
  -13.1316   -4.5372   15.1143 C   0  0  0  0  0  0  0  0  0  0  0  0
  -13.1439   -5.8916   14.4095 C   0  0  2  0  0  0  0  0  0  0  0  0
  -14.5200   -5.8912   13.7502 C   0  0  0  0  0  0  0  0  0  0  0  0
  -17.6718   -5.2510   13.7555 C   0  0  0  0  0  0  0  0  0  0  0  0
  -17.7590   -6.4736   13.8442 O   0  0  0  0  0  0  0  0  0  0  0  0
  -16.5594   -4.5702   14.2276 N   0  0  0  0  0  0  0  0  0  0  0  0
  -16.3978   -3.6298   13.8934 H   0  0  0  0  0  0  0  0  0  0  0  0
  -19.1557   -6.0882   11.3356 C   0  0  0  0  0  0  0  0  0  0  0  0
  -18.9626   -4.6629   11.6164 N   0  0  0  0  0  0  0  0  0  0  0  0
  -20.1743   -3.8927   11.2854 C   0  0  0  0  0  0  0  0  0  0  0  0
  -21.0293   -3.8100   12.5670 C   0  0  0  0  0  0  0  0  0  0  0  0
  -21.4162   -2.3514   12.8558 C   0  0  0  0  0  0  0  0  0  0  0  0
  -22.3059   -4.6534   12.4557 C   0  0  0  0  0  0  0  0  0  0  0  0
  -20.1101   -4.3573   13.6731 C   0  0  0  0  0  0  0  0  0  0  0  0
  -18.7141   -4.3509   13.0514 C   0  0  1  0  0  0  0  0  0  0  0  0
  -14.7521   -8.4087   13.8848 H   0  0  0  0  0  0  0  0  0  0  0  0
  -14.3145  -10.6180   12.9895 H   0  0  0  0  0  0  0  0  0  0  0  0
  -12.2182  -11.7233   13.4809 H   0  0  0  0  0  0  0  0  0  0  0  0
  -11.4418   -8.7880   17.7987 H   0  0  0  0  0  0  0  0  0  0  0  0
   -9.7896   -7.7234   19.2073 H   0  0  0  0  0  0  0  0  0  0  0  0
   -8.0107   -6.4270   18.1889 H   0  0  0  0  0  0  0  0  0  0  0  0
  -10.4447   -7.6377   13.5892 H   0  0  0  0  0  0  0  0  0  0  0  0
   -9.4660   -4.8777   13.9592 H   0  0  0  0  0  0  0  0  0  0  0  0
  -10.1266   -5.2432   12.5183 H   0  0  0  0  0  0  0  0  0  0  0  0
   -7.2149   -5.5228   13.3577 H   0  0  0  0  0  0  0  0  0  0  0  0
   -7.6293   -5.6203   11.7891 H   0  0  0  0  0  0  0  0  0  0  0  0
   -7.4987   -7.9084   13.6276 H   0  0  0  0  0  0  0  0  0  0  0  0
   -8.2453   -8.1420   12.2010 H   0  0  0  0  0  0  0  0  0  0  0  0
  -10.1664  -12.9705   18.6995 H   0  0  0  0  0  0  0  0  0  0  0  0
   -9.1746  -14.3738   18.3829 H   0  0  0  0  0  0  0  0  0  0  0  0
  -10.7349  -14.2150   17.6127 H   0  0  0  0  0  0  0  0  0  0  0  0
  -15.8934   -6.0448   15.4171 H   0  0  0  0  0  0  0  0  0  0  0  0
  -14.5841   -4.6643   16.6931 H   0  0  0  0  0  0  0  0  0  0  0  0
  -14.8698   -3.3507   15.6162 H   0  0  0  0  0  0  0  0  0  0  0  0
  -12.4152   -4.5325   15.9090 H   0  0  0  0  0  0  0  0  0  0  0  0
  -12.8588   -3.7409   14.4536 H   0  0  0  0  0  0  0  0  0  0  0  0
  -12.3100   -6.0214   13.7518 H   0  0  0  0  0  0  0  0  0  0  0  0
  -14.8253   -6.8873   13.5062 H   0  0  0  0  0  0  0  0  0  0  0  0
  -14.5365   -5.3438   12.8310 H   0  0  0  0  0  0  0  0  0  0  0  0
  -19.3275   -6.2253   10.2884 H   0  0  0  0  0  0  0  0  0  0  0  0
  -19.9996   -6.4490   11.8857 H   0  0  0  0  0  0  0  0  0  0  0  0
  -18.2811   -6.6310   11.6277 H   0  0  0  0  0  0  0  0  0  0  0  0
  -20.7224   -4.3872   10.5108 H   0  0  0  0  0  0  0  0  0  0  0  0
  -19.9179   -2.9140   10.9371 H   0  0  0  0  0  0  0  0  0  0  0  0
  -22.0542   -1.9906   12.0763 H   0  0  0  0  0  0  0  0  0  0  0  0
  -20.5323   -1.7500   12.9002 H   0  0  0  0  0  0  0  0  0  0  0  0
  -21.9315   -2.2978   13.7920 H   0  0  0  0  0  0  0  0  0  0  0  0
  -22.9295   -4.2562   11.6823 H   0  0  0  0  0  0  0  0  0  0  0  0
  -22.8325   -4.6279   13.3868 H   0  0  0  0  0  0  0  0  0  0  0  0
  -22.0461   -5.6644   12.2204 H   0  0  0  0  0  0  0  0  0  0  0  0
  -20.3977   -5.3512   13.9460 H   0  0  0  0  0  0  0  0  0  0  0  0
  -20.1588   -3.7725   14.5678 H   0  0  0  0  0  0  0  0  0  0  0  0
  -18.2304   -3.4041   13.1721 H   0  0  0  0  0  0  0  0  0  0  0  0
  1  2  2  0
  2  3  1  0
  2 44  1  0
  3  4  2  0
  3 45  1  0
  4  5  1  0
  4 46  1  0
  5 18  1  0
  5  6  2  0
  6  7  1  0
  6  1  1  0
  7  8  2  0
  8  9  1  0
  8 47  1  0
  9 10  2  0
  9 48  1  0
 10 11  1  0
 10 49  1  0
 11 12  1  0
 11 13  2  0
 13 14  1  0
 13  7  1  0
 14 15  1  0
 14 50  1  0
 15 16  1  0
 15 51  1  0
 15 52  1  0
 16 17  1  0
 16 53  1  0
 16 54  1  0
 17 14  1  0
 17 55  1  0
 17 56  1  0
 18 19  2  0
 18 20  1  0
 20 22  1  0
 20 21  1  0
 22 23  1  0
 22 24  2  0
 22 25  2  0
 23 57  1  0
 23 58  1  0
 23 59  1  0
 26  1  1  0
 27 28  1  0
 27 60  1  1
 28 29  1  0
 28 61  1  0
 28 62  1  0
 29 30  1  0
 29 63  1  0
 29 64  1  0
 30 26  1  0
 30 31  1  0
 30 65  1  6
 31 27  1  0
 31 66  1  0
 31 67  1  0
 32 33  2  0
 32 34  1  0
 34 27  1  0
 34 35  1  0
 36 37  1  0
 36 68  1  0
 36 69  1  0
 36 70  1  0
 37 38  1  0
 38 39  1  0
 38 71  1  0
 38 72  1  0
 39 40  1  0
 39 41  1  0
 39 42  1  0
 40 73  1  0
 40 74  1  0
 40 75  1  0
 41 76  1  0
 41 77  1  0
 41 78  1  0
 42 43  1  0
 42 79  1  0
 42 80  1  0
 43 32  1  0
 43 37  1  0
 43 81  1  6
M  END
>  <minimizedAffinity>  (1) 
-7.15577

>  <mol_id>  (1) 
12327

>  <source_index>  (1) 
0

>  <layer>  (1) 
L3

>  <uniprot>  (1) 
Q92830

>  <paff>  (1) 
7.6108000000000002

>  <smiles>  (1) 
CN1CC(C)(C)C[C@H]1C(=O)N[C@@H]1CC[C@@H](Oc2cccc(C(=O)NS(C)(=O)=O)c2-c2cccc(F)c2C2CCC2)C1

$$$$
L3:Q92830:23850
     RDKit          3D

 87 91  0  0  0  0  0  0  0  0999 V2000
  -17.5766   -5.7574   12.1734 C   0  0  0  0  0  0  0  0  0  0  0  0
  -18.1997   -6.8677   12.7560 C   0  0  0  0  0  0  0  0  0  0  0  0
  -17.5625   -7.5902   13.7661 C   0  0  0  0  0  0  0  0  0  0  0  0
  -16.2778   -7.2350   14.1828 C   0  0  0  0  0  0  0  0  0  0  0  0
  -15.6354   -6.1119   13.6322 C   0  0  0  0  0  0  0  0  0  0  0  0
  -16.3024   -5.3794   12.6342 C   0  0  0  0  0  0  0  0  0  0  0  0
  -14.2655   -5.7287   14.0151 C   0  0  0  0  0  0  0  0  0  0  0  0
  -13.2208   -6.6127   13.6741 C   0  0  0  0  0  0  0  0  0  0  0  0
  -11.8961   -6.3361   14.0090 C   0  0  0  0  0  0  0  0  0  0  0  0
  -11.5897   -5.1715   14.7005 C   0  0  0  0  0  0  0  0  0  0  0  0
  -12.6067   -4.2806   15.0456 C   0  0  0  0  0  0  0  0  0  0  0  0
  -13.9516   -4.5286   14.6998 C   0  0  0  0  0  0  0  0  0  0  0  0
  -15.0206   -3.5082   15.0782 C   0  0  0  0  0  0  0  0  0  0  0  0
  -14.5429   -2.0625   14.8886 C   0  0  0  0  0  0  0  0  0  0  0  0
  -15.5089   -3.7242   16.5117 C   0  0  0  0  0  0  0  0  0  0  0  0
  -18.2518   -5.0253   11.0202 C   0  0  1  0  0  0  0  0  0  0  0  0
  -18.4824   -5.9571    9.8267 C   0  0  0  0  0  0  0  0  0  0  0  0
  -19.7445   -3.9642   12.7412 N   0  0  0  0  0  0  0  0  0  0  0  0
  -19.5585   -4.3034   11.3882 C   0  0  0  0  0  0  0  0  0  0  0  0
  -20.3680   -3.9855   10.5279 O   0  0  0  0  0  0  0  0  0  0  0  0
  -19.0132   -4.1539   13.4259 H   0  0  0  0  0  0  0  0  0  0  0  0
  -21.1852   -3.5913   13.4628 S   0  0  0  0  0  0  0  0  0  0  0  0
  -20.9015   -3.6813   14.8834 O   0  0  0  0  0  0  0  0  0  0  0  0
  -22.2522   -4.3660   12.8775 O   0  0  0  0  0  0  0  0  0  0  0  0
  -22.0663   -1.0537   14.2056 C   0  0  0  0  0  0  0  0  0  0  0  0
  -21.4206   -1.8577   13.0954 C   0  0  0  0  0  0  0  0  0  0  0  0
  -15.6316   -7.9096   15.1829 O   0  0  0  0  0  0  0  0  0  0  0  0
  -15.6830   -9.3355   15.0974 C   0  0  2  0  0  0  0  0  0  0  0  0
  -15.2564   -9.9294   16.4343 C   0  0  0  0  0  0  0  0  0  0  0  0
  -13.7441   -9.7047   16.4731 C   0  0  0  0  0  0  0  0  0  0  0  0
  -13.2885   -9.7291   15.0088 C   0  0  2  0  0  0  0  0  0  0  0  0
  -14.5691   -9.7977   14.1633 C   0  0  0  0  0  0  0  0  0  0  0  0
  -12.4110  -10.8583   14.7410 N   0  0  0  0  0  0  0  0  0  0  0  0
  -11.2050  -10.6989   14.0799 C   0  0  0  0  0  0  0  0  0  0  0  0
  -10.8561   -9.6241   13.6022 O   0  0  0  0  0  0  0  0  0  0  0  0
  -12.5287  -11.6971   15.3002 H   0  0  0  0  0  0  0  0  0  0  0  0
  -10.3131  -11.9470   14.0234 C   0  0  1  0  0  0  0  0  0  0  0  0
  -11.0167  -13.0757   13.6899 F   0  0  0  0  0  0  0  0  0  0  0  0
   -9.2116  -11.7508   12.9704 C   0  0  0  0  0  0  0  0  0  0  0  0
   -7.9431  -11.5868   13.7052 N   0  0  0  0  0  0  0  0  0  0  0  0
   -8.1447  -12.3951   14.9122 C   0  0  0  0  0  0  0  0  0  0  0  0
   -6.9858  -12.1469   15.9061 C   0  0  0  0  0  0  0  0  0  0  0  0
   -6.9204  -13.6773   16.0995 C   0  0  0  0  0  0  0  0  0  0  0  0
   -7.5644  -13.8217   14.7008 C   0  0  0  0  0  0  0  0  0  0  0  0
   -9.5867  -12.2345   15.3425 C   0  0  0  0  0  0  0  0  0  0  0  0
   -7.1598  -11.8590   13.1065 H   0  0  0  0  0  0  0  0  0  0  0  0
  -19.1380   -7.1543   12.4359 H   0  0  0  0  0  0  0  0  0  0  0  0
  -18.0428   -8.3903   14.2068 H   0  0  0  0  0  0  0  0  0  0  0  0
  -15.8469   -4.5458   12.2308 H   0  0  0  0  0  0  0  0  0  0  0  0
  -13.4418   -7.4831   13.1657 H   0  0  0  0  0  0  0  0  0  0  0  0
  -11.1464   -6.9940   13.7442 H   0  0  0  0  0  0  0  0  0  0  0  0
  -10.6120   -4.9654   14.9586 H   0  0  0  0  0  0  0  0  0  0  0  0
  -12.3697   -3.4211   15.5654 H   0  0  0  0  0  0  0  0  0  0  0  0
  -15.8407   -3.6646   14.4089 H   0  0  0  0  0  0  0  0  0  0  0  0
  -13.7200   -1.8698   15.5449 H   0  0  0  0  0  0  0  0  0  0  0  0
  -15.3439   -1.3898   15.1139 H   0  0  0  0  0  0  0  0  0  0  0  0
  -14.2316   -1.9198   13.8749 H   0  0  0  0  0  0  0  0  0  0  0  0
  -14.6973   -3.5706   17.1919 H   0  0  0  0  0  0  0  0  0  0  0  0
  -15.8777   -4.7232   16.6162 H   0  0  0  0  0  0  0  0  0  0  0  0
  -16.2933   -3.0299   16.7297 H   0  0  0  0  0  0  0  0  0  0  0  0
  -17.5592   -4.2556   10.7506 H   0  0  0  0  0  0  0  0  0  0  0  0
  -19.1755   -6.7244   10.1020 H   0  0  0  0  0  0  0  0  0  0  0  0
  -17.5536   -6.4025    9.5373 H   0  0  0  0  0  0  0  0  0  0  0  0
  -18.8793   -5.3953    9.0071 H   0  0  0  0  0  0  0  0  0  0  0  0
  -22.1657   -0.0342   13.8963 H   0  0  0  0  0  0  0  0  0  0  0  0
  -21.4556   -1.1024   15.0828 H   0  0  0  0  0  0  0  0  0  0  0  0
  -23.0336   -1.4568   14.4217 H   0  0  0  0  0  0  0  0  0  0  0  0
  -20.4626   -1.4286   12.8878 H   0  0  0  0  0  0  0  0  0  0  0  0
  -22.0922   -1.8151   12.2635 H   0  0  0  0  0  0  0  0  0  0  0  0
  -16.6675   -9.6224   14.7917 H   0  0  0  0  0  0  0  0  0  0  0  0
  -15.4871  -10.9733   16.4777 H   0  0  0  0  0  0  0  0  0  0  0  0
  -15.7609   -9.4804   17.2642 H   0  0  0  0  0  0  0  0  0  0  0  0
  -13.2643  -10.4843   17.0271 H   0  0  0  0  0  0  0  0  0  0  0  0
  -13.4921   -8.7816   16.9519 H   0  0  0  0  0  0  0  0  0  0  0  0
  -12.7167   -8.8568   14.7701 H   0  0  0  0  0  0  0  0  0  0  0  0
  -14.7477  -10.7992   13.8315 H   0  0  0  0  0  0  0  0  0  0  0  0
  -14.5037   -9.1912   13.2842 H   0  0  0  0  0  0  0  0  0  0  0  0
   -9.4133  -10.8784   12.3846 H   0  0  0  0  0  0  0  0  0  0  0  0
   -9.1640  -12.5870   12.3046 H   0  0  0  0  0  0  0  0  0  0  0  0
   -7.2586  -11.5969   16.7824 H   0  0  0  0  0  0  0  0  0  0  0  0
   -6.1230  -11.5749   15.6355 H   0  0  0  0  0  0  0  0  0  0  0  0
   -7.5177  -14.0501   16.9052 H   0  0  0  0  0  0  0  0  0  0  0  0
   -6.0049  -14.1719   16.3485 H   0  0  0  0  0  0  0  0  0  0  0  0
   -8.2977  -14.5970   14.6228 H   0  0  0  0  0  0  0  0  0  0  0  0
   -6.9898  -14.0780   13.8353 H   0  0  0  0  0  0  0  0  0  0  0  0
   -9.6949  -11.4187   16.0263 H   0  0  0  0  0  0  0  0  0  0  0  0
   -9.9704  -13.0913   15.8559 H   0  0  0  0  0  0  0  0  0  0  0  0
  1  2  2  0
  2  3  1  0
  2 47  1  0
  3  4  2  0
  3 48  1  0
  4 27  1  0
  4  5  1  0
  5  7  1  0
  5  6  2  0
  6  1  1  0
  6 49  1  0
  7  8  2  0
  8  9  1  0
  8 50  1  0
  9 10  2  0
  9 51  1  0
 10 11  1  0
 10 52  1  0
 11 12  2  0
 11 53  1  0
 12 13  1  0
 12  7  1  0
 13 14  1  0
 13 15  1  0
 13 54  1  0
 14 55  1  0
 14 56  1  0
 14 57  1  0
 15 58  1  0
 15 59  1  0
 15 60  1  0
 16 17  1  0
 16  1  1  0
 16 61  1  6
 17 62  1  0
 17 63  1  0
 17 64  1  0
 18 19  1  0
 18 21  1  0
 19 20  2  0
 19 16  1  0
 22 23  2  0
 22 24  2  0
 22 18  1  0
 25 26  1  0
 25 65  1  0
 25 66  1  0
 25 67  1  0
 26 22  1  0
 26 68  1  0
 26 69  1  0
 27 28  1  0
 28 29  1  0
 28 70  1  6
 29 30  1  0
 29 71  1  0
 29 72  1  0
 30 31  1  0
 30 73  1  0
 30 74  1  0
 31 33  1  0
 31 32  1  0
 31 75  1  6
 32 28  1  0
 32 76  1  0
 32 77  1  0
 33 34  1  0
 33 36  1  0
 34 35  2  0
 34 37  1  0
 37 38  1  6
 37 39  1  0
 39 40  1  0
 39 78  1  0
 39 79  1  0
 40 41  1  0
 40 46  1  0
 41 42  1  0
 41 45  1  0
 42 43  1  0
 42 80  1  0
 42 81  1  0
 43 44  1  0
 43 82  1  0
 43 83  1  0
 44 41  1  0
 44 84  1  0
 44 85  1  0
 45 37  1  0
 45 86  1  0
 45 87  1  0
M  END
>  <minimizedAffinity>  (2) 
-7.85758

>  <mol_id>  (2) 
23850

>  <source_index>  (2) 
1

>  <layer>  (2) 
L3

>  <uniprot>  (2) 
Q92830

>  <paff>  (2) 
9.6777999999999995

>  <smiles>  (2) 
CCS(=O)(=O)NC(=O)[C@H](C)c1ccc(O[C@@H]2CC[C@@H](NC(=O)[C@@]3(F)CNC4(CCC4)C3)C2)c(-c2ccccc2C(C)C)c1

$$$$
L3:Q92830:30945
     RDKit          3D

 96100  0  0  0  0  0  0  0  0999 V2000
  -20.1936  -10.4394    7.4920 C   0  0  0  0  0  0  0  0  0  0  0  0
  -19.2678  -11.4970    7.5041 C   0  0  0  0  0  0  0  0  0  0  0  0
  -18.9168  -12.1837    6.3351 C   0  0  0  0  0  0  0  0  0  0  0  0
  -19.4999  -11.8536    5.1154 C   0  0  0  0  0  0  0  0  0  0  0  0
  -20.4343  -10.7997    5.0673 C   0  0  0  0  0  0  0  0  0  0  0  0
  -20.7630  -10.1082    6.2527 C   0  0  0  0  0  0  0  0  0  0  0  0
  -21.0930  -10.4001    3.8067 C   0  0  0  0  0  0  0  0  0  0  0  0
  -22.1908  -11.1650    3.3571 C   0  0  0  0  0  0  0  0  0  0  0  0
  -22.8385  -10.8623    2.1647 C   0  0  0  0  0  0  0  0  0  0  0  0
  -22.3897   -9.7926    1.4052 C   0  0  0  0  0  0  0  0  0  0  0  0
  -21.3072   -9.0294    1.8468 C   0  0  0  0  0  0  0  0  0  0  0  0
  -20.9137   -8.0209    1.0558 F   0  0  0  0  0  0  0  0  0  0  0  0
  -20.6210   -9.2845    3.0525 C   0  0  0  0  0  0  0  0  0  0  0  0
  -19.3782   -8.3972    3.5644 C   0  0  0  0  0  0  0  0  0  0  0  0
  -17.9537   -8.8898    3.1725 C   0  0  0  0  0  0  0  0  0  0  0  0
  -17.9444   -7.8166    2.0706 C   0  0  0  0  0  0  0  0  0  0  0  0
  -18.9926   -7.0494    2.8949 C   0  0  0  0  0  0  0  0  0  0  0  0
  -20.5802   -9.7216    8.8064 C   0  0  0  0  0  0  0  0  0  0  0  0
  -19.3258   -9.7347    9.7095 C   0  0  0  0  0  0  0  0  0  0  0  0
  -21.7307  -10.4247    9.5616 C   0  0  0  0  0  0  0  0  0  0  0  0
  -20.4688   -7.2853    9.4216 N   0  0  0  0  0  0  0  0  0  0  0  0
  -21.0425   -8.2548    8.5618 C   0  0  0  0  0  0  0  0  0  0  0  0
  -21.8659   -7.9451    7.7117 O   0  0  0  0  0  0  0  0  0  0  0  0
  -19.9784   -7.5896   10.2521 H   0  0  0  0  0  0  0  0  0  0  0  0
  -20.9289   -5.6814    9.3948 S   0  0  0  0  0  0  0  0  0  0  0  0
  -19.9606   -4.9293    8.6283 O   0  0  0  0  0  0  0  0  0  0  0  0
  -22.3468   -5.6565    9.1040 O   0  0  0  0  0  0  0  0  0  0  0  0
  -19.3409   -4.6494   11.4056 C   0  0  0  0  0  0  0  0  0  0  0  0
  -20.7292   -5.2204   11.1289 C   0  0  0  0  0  0  0  0  0  0  0  0
  -21.8131   -4.2218   11.5279 C   0  0  0  0  0  0  0  0  0  0  0  0
  -19.2241  -12.4495    3.9193 O   0  0  0  0  0  0  0  0  0  0  0  0
  -17.9462  -12.4438    3.3095 C   0  0  2  0  0  0  0  0  0  0  0  0
  -17.4724  -13.7269    2.6313 C   0  0  0  0  0  0  0  0  0  0  0  0
  -15.9899  -13.4538    2.4296 C   0  0  0  0  0  0  0  0  0  0  0  0
  -15.5698  -12.7593    3.7275 C   0  0  2  0  0  0  0  0  0  0  0  0
  -16.7896  -11.9397    4.1759 C   0  0  0  0  0  0  0  0  0  0  0  0
  -14.3906  -11.9345    3.5502 N   0  0  0  0  0  0  0  0  0  0  0  0
  -13.5347  -11.6814    4.6115 C   0  0  0  0  0  0  0  0  0  0  0  0
  -13.6376  -12.2838    5.6800 O   0  0  0  0  0  0  0  0  0  0  0  0
  -14.3632  -11.3199    2.7452 H   0  0  0  0  0  0  0  0  0  0  0  0
  -12.4590  -10.6037    4.3725 C   0  0  1  0  0  0  0  0  0  0  0  0
  -12.0100  -10.0993    5.5707 F   0  0  0  0  0  0  0  0  0  0  0  0
  -11.2353  -11.2081    3.6459 C   0  0  0  0  0  0  0  0  0  0  0  0
  -10.4874  -10.2598    2.7895 N   0  0  0  0  0  0  0  0  0  0  0  0
  -10.5333   -8.9125    3.3621 C   0  0  0  0  0  0  0  0  0  0  0  0
  -11.9681   -8.3281    3.2892 C   0  0  0  0  0  0  0  0  0  0  0  0
  -12.0849   -7.1777    4.3066 C   0  0  0  0  0  0  0  0  0  0  0  0
  -12.2347   -7.7505    1.8837 C   0  0  0  0  0  0  0  0  0  0  0  0
  -13.0379   -9.4176    3.5891 C   0  0  0  0  0  0  0  0  0  0  0  0
   -9.5162  -10.5691    2.7299 H   0  0  0  0  0  0  0  0  0  0  0  0
  -18.8350  -11.7750    8.3987 H   0  0  0  0  0  0  0  0  0  0  0  0
  -18.2185  -12.9423    6.3786 H   0  0  0  0  0  0  0  0  0  0  0  0
  -21.4439   -9.3341    6.2069 H   0  0  0  0  0  0  0  0  0  0  0  0
  -22.5185  -11.9630    3.9235 H   0  0  0  0  0  0  0  0  0  0  0  0
  -23.6429  -11.4265    1.8490 H   0  0  0  0  0  0  0  0  0  0  0  0
  -22.8555   -9.5607    0.5140 H   0  0  0  0  0  0  0  0  0  0  0  0
  -19.7679   -8.3975    4.5609 H   0  0  0  0  0  0  0  0  0  0  0  0
  -17.9151   -9.8967    2.8125 H   0  0  0  0  0  0  0  0  0  0  0  0
  -17.1670   -8.9556    3.8948 H   0  0  0  0  0  0  0  0  0  0  0  0
  -18.2892   -8.1553    1.1160 H   0  0  0  0  0  0  0  0  0  0  0  0
  -17.0361   -7.3528    1.7468 H   0  0  0  0  0  0  0  0  0  0  0  0
  -19.7730   -6.6025    2.3151 H   0  0  0  0  0  0  0  0  0  0  0  0
  -18.7253   -6.1934    3.4785 H   0  0  0  0  0  0  0  0  0  0  0  0
  -19.5476   -9.2460   10.6352 H   0  0  0  0  0  0  0  0  0  0  0  0
  -18.5266   -9.2208    9.2174 H   0  0  0  0  0  0  0  0  0  0  0  0
  -19.0348  -10.7464    9.9011 H   0  0  0  0  0  0  0  0  0  0  0  0
  -21.9518   -9.8840   10.4581 H   0  0  0  0  0  0  0  0  0  0  0  0
  -21.4364  -11.4229    9.8105 H   0  0  0  0  0  0  0  0  0  0  0  0
  -22.6005  -10.4541    8.9391 H   0  0  0  0  0  0  0  0  0  0  0  0
  -19.2621   -4.3891   12.4405 H   0  0  0  0  0  0  0  0  0  0  0  0
  -19.1881   -3.7767   10.8057 H   0  0  0  0  0  0  0  0  0  0  0  0
  -18.5993   -5.3822   11.1647 H   0  0  0  0  0  0  0  0  0  0  0  0
  -20.8311   -6.1052   11.7219 H   0  0  0  0  0  0  0  0  0  0  0  0
  -21.7156   -3.3347   10.9375 H   0  0  0  0  0  0  0  0  0  0  0  0
  -21.7065   -3.9745   12.5635 H   0  0  0  0  0  0  0  0  0  0  0  0
  -22.7768   -4.6563   11.3623 H   0  0  0  0  0  0  0  0  0  0  0  0
  -18.1726  -11.7307    2.5446 H   0  0  0  0  0  0  0  0  0  0  0  0
  -17.9699  -13.8782    1.6962 H   0  0  0  0  0  0  0  0  0  0  0  0
  -17.6733  -14.6121    3.1978 H   0  0  0  0  0  0  0  0  0  0  0  0
  -15.8308  -12.8150    1.5861 H   0  0  0  0  0  0  0  0  0  0  0  0
  -15.4272  -14.3425    2.2336 H   0  0  0  0  0  0  0  0  0  0  0  0
  -15.2892  -13.4729    4.4738 H   0  0  0  0  0  0  0  0  0  0  0  0
  -16.6228  -10.8959    4.0101 H   0  0  0  0  0  0  0  0  0  0  0  0
  -16.9898  -12.0560    5.2206 H   0  0  0  0  0  0  0  0  0  0  0  0
  -11.5787  -12.0126    3.0297 H   0  0  0  0  0  0  0  0  0  0  0  0
  -10.5562  -11.5207    4.4114 H   0  0  0  0  0  0  0  0  0  0  0  0
   -9.8681   -8.2769    2.8158 H   0  0  0  0  0  0  0  0  0  0  0  0
  -10.2387   -8.9676    4.3893 H   0  0  0  0  0  0  0  0  0  0  0  0
  -11.3455   -6.4348    4.0914 H   0  0  0  0  0  0  0  0  0  0  0  0
  -11.9310   -7.5584    5.2947 H   0  0  0  0  0  0  0  0  0  0  0  0
  -13.0593   -6.7407    4.2405 H   0  0  0  0  0  0  0  0  0  0  0  0
  -11.5059   -6.9988    1.6629 H   0  0  0  0  0  0  0  0  0  0  0  0
  -13.2130   -7.3180    1.8555 H   0  0  0  0  0  0  0  0  0  0  0  0
  -12.1701   -8.5341    1.1579 H   0  0  0  0  0  0  0  0  0  0  0  0
  -13.4317   -9.7774    2.6616 H   0  0  0  0  0  0  0  0  0  0  0  0
  -13.8010   -8.9696    4.1907 H   0  0  0  0  0  0  0  0  0  0  0  0
  1  2  2  0
  2  3  1  0
  2 51  1  0
  3  4  2  0
  3 52  1  0
  4 31  1  0
  4  5  1  0
  5  7  1  0
  5  6  2  0
  6  1  1  0
  6 53  1  0
  7  8  2  0
  8  9  1  0
  8 54  1  0
  9 10  2  0
  9 55  1  0
 10 11  1  0
 10 56  1  0
 11 12  1  0
 11 13  2  0
 13 14  1  0
 13  7  1  0
 14 15  1  0
 14 57  1  0
 15 16  1  0
 15 58  1  0
 15 59  1  0
 16 17  1  0
 16 60  1  0
 16 61  1  0
 17 14  1  0
 17 62  1  0
 17 63  1  0
 18 19  1  0
 18 20  1  0
 18  1  1  0
 19 64  1  0
 19 65  1  0
 19 66  1  0
 20 67  1  0
 20 68  1  0
 20 69  1  0
 21 22  1  0
 21 24  1  0
 22 23  2  0
 22 18  1  0
 25 26  2  0
 25 27  2  0
 25 21  1  0
 28 29  1  0
 28 70  1  0
 28 71  1  0
 28 72  1  0
 29 30  1  0
 29 25  1  0
 29 73  1  0
 30 74  1  0
 30 75  1  0
 30 76  1  0
 31 32  1  0
 32 33  1  0
 32 77  1  6
 33 34  1  0
 33 78  1  0
 33 79  1  0
 34 35  1  0
 34 80  1  0
 34 81  1  0
 35 37  1  0
 35 36  1  0
 35 82  1  1
 36 32  1  0
 36 83  1  0
 36 84  1  0
 37 38  1  0
 37 40  1  0
 38 39  2  0
 38 41  1  0
 41 42  1  1
 41 43  1  0
 43 44  1  0
 43 85  1  0
 43 86  1  0
 44 45  1  0
 44 50  1  0
 45 46  1  0
 45 87  1  0
 45 88  1  0
 46 47  1  0
 46 48  1  0
 46 49  1  0
 47 89  1  0
 47 90  1  0
 47 91  1  0
 48 92  1  0
 48 93  1  0
 48 94  1  0
 49 41  1  0
 49 95  1  0
 49 96  1  0
M  END
>  <minimizedAffinity>  (3) 
-8.00098

>  <mol_id>  (3) 
30945

>  <source_index>  (3) 
2

>  <layer>  (3) 
L3

>  <uniprot>  (3) 
Q92830

>  <paff>  (3) 
6.6555999999999997

>  <smiles>  (3) 
CC(C)S(=O)(=O)NC(=O)C(C)(C)c1ccc(O[C@@H]2CC[C@@H](NC(=O)[C@@]3(F)CNCC(C)(C)C3)C2)c(-c2cccc(F)c2C2CCC2)c1

$$$$
L3:Q92830:31993
     RDKit          3D

 93 98  0  0  0  0  0  0  0  0999 V2000
  -19.7406  -12.3335    5.4712 C   0  0  0  0  0  0  0  0  0  0  0  0
  -19.1363  -12.6209    6.6944 C   0  0  0  0  0  0  0  0  0  0  0  0
  -19.3434  -11.7942    7.8054 C   0  0  0  0  0  0  0  0  0  0  0  0
  -20.1546  -10.6497    7.7320 C   0  0  0  0  0  0  0  0  0  0  0  0
  -20.7742  -10.3856    6.4996 C   0  0  0  0  0  0  0  0  0  0  0  0
  -20.5783  -11.2043    5.3653 C   0  0  0  0  0  0  0  0  0  0  0  0
  -21.2732  -10.8587    4.1055 C   0  0  0  0  0  0  0  0  0  0  0  0
  -22.5623  -11.3968    3.8882 C   0  0  0  0  0  0  0  0  0  0  0  0
  -23.2997  -11.0812    2.7513 C   0  0  0  0  0  0  0  0  0  0  0  0
  -22.7597  -10.2124    1.8176 C   0  0  0  0  0  0  0  0  0  0  0  0
  -21.4883   -9.6789    2.0232 C   0  0  0  0  0  0  0  0  0  0  0  0
  -21.0260   -8.8219    1.1000 F   0  0  0  0  0  0  0  0  0  0  0  0
  -20.6883   -9.9836    3.1453 C   0  0  0  0  0  0  0  0  0  0  0  0
  -19.2289   -9.3520    3.3163 C   0  0  0  0  0  0  0  0  0  0  0  0
  -19.0164   -7.8164    3.1307 C   0  0  0  0  0  0  0  0  0  0  0  0
  -17.6214   -8.1436    2.5695 C   0  0  0  0  0  0  0  0  0  0  0  0
  -18.1994   -9.5087    2.1529 C   0  0  0  0  0  0  0  0  0  0  0  0
  -20.3591   -9.7612    8.9799 C   0  0  0  0  0  0  0  0  0  0  0  0
  -19.0315   -9.7744    9.7701 C   0  0  0  0  0  0  0  0  0  0  0  0
  -21.4823  -10.2671    9.9119 C   0  0  0  0  0  0  0  0  0  0  0  0
  -20.7480   -8.3033    8.5881 C   0  0  0  0  0  0  0  0  0  0  0  0
  -21.2471   -8.0143    7.5086 O   0  0  0  0  0  0  0  0  0  0  0  0
  -20.4980   -7.3296    9.5683 N   0  0  0  0  0  0  0  0  0  0  0  0
  -20.0673   -7.5550   10.4559 H   0  0  0  0  0  0  0  0  0  0  0  0
  -20.8774   -5.7295    9.4858 S   0  0  0  0  0  0  0  0  0  0  0  0
  -19.8788   -4.9992    8.7485 O   0  0  0  0  0  0  0  0  0  0  0  0
  -22.2692   -5.7014    9.0926 O   0  0  0  0  0  0  0  0  0  0  0  0
  -20.8089   -5.3052   11.1146 N   0  0  0  0  0  0  0  0  0  0  0  0
  -19.8041   -4.3481   11.6832 C   0  0  0  0  0  0  0  0  0  0  0  0
  -20.9192   -3.3453   12.0024 C   0  0  0  0  0  0  0  0  0  0  0  0
  -21.8897   -4.5116   11.7836 C   0  0  0  0  0  0  0  0  0  0  0  0
  -19.5867  -13.0743    4.3291 O   0  0  0  0  0  0  0  0  0  0  0  0
  -16.1063  -13.0557    4.8422 C   0  0  2  0  0  0  0  0  0  0  0  0
  -16.2052  -14.3418    4.0315 C   0  0  0  0  0  0  0  0  0  0  0  0
  -17.6989  -14.6027    4.0044 C   0  0  0  0  0  0  0  0  0  0  0  0
  -18.2996  -13.2210    3.7452 C   0  0  2  0  0  0  0  0  0  0  0  0
  -17.3348  -12.2364    4.4295 C   0  0  0  0  0  0  0  0  0  0  0  0
  -13.7417  -12.5631    5.3969 C   0  0  0  0  0  0  0  0  0  0  0  0
  -13.7122  -13.3671    6.3227 O   0  0  0  0  0  0  0  0  0  0  0  0
  -14.8623  -12.3517    4.6161 N   0  0  0  0  0  0  0  0  0  0  0  0
  -14.7935  -11.6621    3.8731 H   0  0  0  0  0  0  0  0  0  0  0  0
  -11.0935   -9.4497    2.5930 C   0  0  0  0  0  0  0  0  0  0  0  0
  -12.2640   -9.7412    3.5391 C   0  0  0  0  0  0  0  0  0  0  0  0
  -13.4823   -8.9133    3.1014 C   0  0  0  0  0  0  0  0  0  0  0  0
  -12.5962  -11.2467    3.5732 C   0  0  0  0  0  0  0  0  0  0  0  0
  -12.5875  -11.6272    5.0510 C   0  0  2  0  0  0  0  0  0  0  0  0
  -11.3707  -12.2105    5.3165 F   0  0  0  0  0  0  0  0  0  0  0  0
  -12.6573  -10.2977    5.7820 C   0  0  0  0  0  0  0  0  0  0  0  0
  -11.8984   -9.3663    4.9221 N   0  0  0  0  0  0  0  0  0  0  0  0
  -10.9039   -9.5589    5.0647 H   0  0  0  0  0  0  0  0  0  0  0  0
  -18.5301  -13.4515    6.7819 H   0  0  0  0  0  0  0  0  0  0  0  0
  -18.8886  -12.0317    8.7008 H   0  0  0  0  0  0  0  0  0  0  0  0
  -21.3944   -9.5646    6.4199 H   0  0  0  0  0  0  0  0  0  0  0  0
  -22.9656  -12.0383    4.5888 H   0  0  0  0  0  0  0  0  0  0  0  0
  -24.2365  -11.4890    2.6057 H   0  0  0  0  0  0  0  0  0  0  0  0
  -23.2965   -9.9609    0.9728 H   0  0  0  0  0  0  0  0  0  0  0  0
  -19.1143   -9.8300    4.2667 H   0  0  0  0  0  0  0  0  0  0  0  0
  -19.0103   -7.2538    4.0408 H   0  0  0  0  0  0  0  0  0  0  0  0
  -19.7139   -7.2139    2.5872 H   0  0  0  0  0  0  0  0  0  0  0  0
  -16.8432   -8.1911    3.3024 H   0  0  0  0  0  0  0  0  0  0  0  0
  -17.1252   -7.5010    1.8725 H   0  0  0  0  0  0  0  0  0  0  0  0
  -17.5241  -10.3314    2.2626 H   0  0  0  0  0  0  0  0  0  0  0  0
  -18.5113   -9.7046    1.1483 H   0  0  0  0  0  0  0  0  0  0  0  0
  -18.7811  -10.7817   10.0299 H   0  0  0  0  0  0  0  0  0  0  0  0
  -19.1412   -9.1929   10.6615 H   0  0  0  0  0  0  0  0  0  0  0  0
  -18.2527   -9.3578    9.1661 H   0  0  0  0  0  0  0  0  0  0  0  0
  -21.2687  -11.2706   10.2158 H   0  0  0  0  0  0  0  0  0  0  0  0
  -22.4162  -10.2436    9.3903 H   0  0  0  0  0  0  0  0  0  0  0  0
  -21.5400   -9.6376   10.7752 H   0  0  0  0  0  0  0  0  0  0  0  0
  -19.0904   -3.9923   10.9698 H   0  0  0  0  0  0  0  0  0  0  0  0
  -19.1332   -4.6682   12.4528 H   0  0  0  0  0  0  0  0  0  0  0  0
  -21.0160   -2.5407   11.3038 H   0  0  0  0  0  0  0  0  0  0  0  0
  -20.9225   -2.7557   12.8953 H   0  0  0  0  0  0  0  0  0  0  0  0
  -22.7150   -4.2762   11.1446 H   0  0  0  0  0  0  0  0  0  0  0  0
  -22.4256   -4.9263   12.6117 H   0  0  0  0  0  0  0  0  0  0  0  0
  -16.0991  -13.2498    5.8944 H   0  0  0  0  0  0  0  0  0  0  0  0
  -15.6821  -15.1422    4.5118 H   0  0  0  0  0  0  0  0  0  0  0  0
  -15.7692  -14.2651    3.0574 H   0  0  0  0  0  0  0  0  0  0  0  0
  -18.0352  -14.9961    4.9409 H   0  0  0  0  0  0  0  0  0  0  0  0
  -17.9819  -15.3245    3.2670 H   0  0  0  0  0  0  0  0  0  0  0  0
  -18.4165  -13.0562    2.6945 H   0  0  0  0  0  0  0  0  0  0  0  0
  -17.7975  -11.8026    5.2912 H   0  0  0  0  0  0  0  0  0  0  0  0
  -17.0658  -11.4354    3.7731 H   0  0  0  0  0  0  0  0  0  0  0  0
  -11.3651   -9.7232    1.5948 H   0  0  0  0  0  0  0  0  0  0  0  0
  -10.2387  -10.0164    2.8981 H   0  0  0  0  0  0  0  0  0  0  0  0
  -10.8598   -8.4060    2.6257 H   0  0  0  0  0  0  0  0  0  0  0  0
  -13.7532   -9.1789    2.1009 H   0  0  0  0  0  0  0  0  0  0  0  0
  -13.2387   -7.8721    3.1404 H   0  0  0  0  0  0  0  0  0  0  0  0
  -14.3033   -9.1123    3.7581 H   0  0  0  0  0  0  0  0  0  0  0  0
  -11.8575  -11.8058    3.0378 H   0  0  0  0  0  0  0  0  0  0  0  0
  -13.5384  -11.4580    3.1122 H   0  0  0  0  0  0  0  0  0  0  0  0
  -12.2061  -10.3731    6.7493 H   0  0  0  0  0  0  0  0  0  0  0  0
  -13.6640   -9.9741    5.9454 H   0  0  0  0  0  0  0  0  0  0  0  0
  1  2  2  0
  2  3  1  0
  2 51  1  0
  3  4  2  0
  3 52  1  0
  4 18  1  0
  4  5  1  0
  5  6  2  0
  5 53  1  0
  6  7  1  0
  6  1  1  0
  7  8  2  0
  8  9  1  0
  8 54  1  0
  9 10  2  0
  9 55  1  0
 10 11  1  0
 10 56  1  0
 11 12  1  0
 11 13  2  0
 13 14  1  0
 13  7  1  0
 14 15  1  0
 14 57  1  0
 15 16  1  0
 15 58  1  0
 15 59  1  0
 16 17  1  0
 16 60  1  0
 16 61  1  0
 17 14  1  0
 17 62  1  0
 17 63  1  0
 18 19  1  0
 18 20  1  0
 18 21  1  0
 19 64  1  0
 19 65  1  0
 19 66  1  0
 20 67  1  0
 20 68  1  0
 20 69  1  0
 21 22  2  0
 21 23  1  0
 23 25  1  0
 23 24  1  0
 25 26  2  0
 25 27  2  0
 25 28  1  0
 28 29  1  0
 29 30  1  0
 29 70  1  0
 29 71  1  0
 30 31  1  0
 30 72  1  0
 30 73  1  0
 31 28  1  0
 31 74  1  0
 31 75  1  0
 32  1  1  0
 33 34  1  0
 33 76  1  1
 34 35  1  0
 34 77  1  0
 34 78  1  0
 35 36  1  0
 35 79  1  0
 35 80  1  0
 36 32  1  0
 36 37  1  0
 36 81  1  6
 37 33  1  0
 37 82  1  0
 37 83  1  0
 38 39  2  0
 38 40  1  0
 40 33  1  0
 40 41  1  0
 42 43  1  0
 42 84  1  0
 42 85  1  0
 42 86  1  0
 43 44  1  0
 43 45  1  0
 44 87  1  0
 44 88  1  0
 44 89  1  0
 45 46  1  0
 45 90  1  0
 45 91  1  0
 46 47  1  1
 46 38  1  0
 46 48  1  0
 48 49  1  0
 48 92  1  0
 48 93  1  0
 49 43  1  0
 49 50  1  0
M  END
>  <minimizedAffinity>  (4) 
-7.72276

>  <mol_id>  (4) 
31993

>  <source_index>  (4) 
3

>  <layer>  (4) 
L3

>  <uniprot>  (4) 
Q92830

>  <paff>  (4) 
7.8665000000000003

>  <smiles>  (4) 
CC1(C)C[C@](F)(C(=O)N[C@@H]2CC[C@@H](Oc3ccc(C(C)(C)C(=O)NS(=O)(=O)N4CCC4)cc3-c3cccc(F)c3C3CCC3)C2)CN1

$$$$
L3:Q92830:45193
     RDKit          3D

 90 94  0  0  0  0  0  0  0  0999 V2000
  -20.7054  -10.2586    7.6667 C   0  0  0  0  0  0  0  0  0  0  0  0
  -21.2540   -8.9611    7.6074 C   0  0  0  0  0  0  0  0  0  0  0  0
  -20.8844   -7.9725    8.5277 C   0  0  0  0  0  0  0  0  0  0  0  0
  -19.9360   -8.2866    9.5053 C   0  0  0  0  0  0  0  0  0  0  0  0
  -19.3745   -9.5644    9.5747 C   0  0  0  0  0  0  0  0  0  0  0  0
  -19.7505  -10.5535    8.6625 C   0  0  0  0  0  0  0  0  0  0  0  0
  -20.4773  -11.4410    5.4269 C   0  0  0  0  0  0  0  0  0  0  0  0
  -20.9694  -12.4237    4.5409 C   0  0  0  0  0  0  0  0  0  0  0  0
  -22.0663  -13.2204    4.8752 C   0  0  0  0  0  0  0  0  0  0  0  0
  -22.6978  -13.0532    6.1010 C   0  0  0  0  0  0  0  0  0  0  0  0
  -22.2321  -12.0836    6.9887 C   0  0  0  0  0  0  0  0  0  0  0  0
  -21.1282  -11.2644    6.6735 C   0  0  0  0  0  0  0  0  0  0  0  0
  -18.1971  -11.4446    4.3241 C   0  0  0  0  0  0  0  0  0  0  0  0
  -19.2714  -10.5975    5.0200 C   0  0  0  0  0  0  0  0  0  0  0  0
  -19.6879   -9.4143    4.1384 C   0  0  0  0  0  0  0  0  0  0  0  0
  -21.4821   -6.5880    8.4545 C   0  0  0  0  0  0  0  0  0  0  0  0
  -20.8005   -5.5791    9.3640 C   0  0  0  0  0  0  0  0  0  0  0  0
  -19.9292   -4.8098    8.9815 O   0  0  0  0  0  0  0  0  0  0  0  0
  -21.2148   -5.6394   10.7025 N   0  0  0  0  0  0  0  0  0  0  0  0
  -21.9706   -6.2559   10.9907 H   0  0  0  0  0  0  0  0  0  0  0  0
  -20.8769   -4.5009   11.8675 S   0  0  0  0  0  0  0  0  0  0  0  0
  -20.6903   -3.2260   11.2139 O   0  0  0  0  0  0  0  0  0  0  0  0
  -21.9559   -4.6706   12.8220 O   0  0  0  0  0  0  0  0  0  0  0  0
  -19.3324   -4.9496   12.7141 C   0  0  0  0  0  0  0  0  0  0  0  0
  -19.1916   -4.3843   14.0821 C   0  0  0  0  0  0  0  0  0  0  0  0
  -18.7881   -6.3213   12.3970 C   0  0  0  0  0  0  0  0  0  0  0  0
  -18.1404   -5.0998   11.7978 C   0  0  0  0  0  0  0  0  0  0  0  0
  -19.2770  -11.8412    8.6948 O   0  0  0  0  0  0  0  0  0  0  0  0
  -19.1719  -12.4846    9.9658 C   0  0  2  0  0  0  0  0  0  0  0  0
  -19.1631  -13.9930    9.7280 C   0  0  0  0  0  0  0  0  0  0  0  0
  -20.6219  -14.3285    9.4301 C   0  0  0  0  0  0  0  0  0  0  0  0
  -21.4420  -13.3275   10.2532 C   0  0  2  0  0  0  0  0  0  0  0  0
  -20.4407  -12.2919   10.7898 C   0  0  0  0  0  0  0  0  0  0  0  0
  -22.1761  -13.9733   11.3281 N   0  0  0  0  0  0  0  0  0  0  0  0
  -23.3466  -13.4331   11.8252 C   0  0  0  0  0  0  0  0  0  0  0  0
  -23.9172  -12.4755   11.3149 O   0  0  0  0  0  0  0  0  0  0  0  0
  -21.6878  -14.6174   11.9428 H   0  0  0  0  0  0  0  0  0  0  0  0
  -23.8849  -14.1859   13.0473 C   0  0  1  0  0  0  0  0  0  0  0  0
  -23.6801  -13.4377   14.1836 F   0  0  0  0  0  0  0  0  0  0  0  0
  -25.3970  -14.4168   12.8933 C   0  0  0  0  0  0  0  0  0  0  0  0
  -25.9684  -15.2398   13.9780 N   0  0  0  0  0  0  0  0  0  0  0  0
  -25.3065  -16.5478   14.0218 C   0  0  0  0  0  0  0  0  0  0  0  0
  -23.7775  -16.4571   14.2582 C   0  0  0  0  0  0  0  0  0  0  0  0
  -23.4675  -15.9748   15.6892 C   0  0  0  0  0  0  0  0  0  0  0  0
  -23.1713  -17.8676   14.1007 C   0  0  0  0  0  0  0  0  0  0  0  0
  -23.1345  -15.5145   13.2077 C   0  0  0  0  0  0  0  0  0  0  0  0
  -25.8175  -14.7563   14.8657 H   0  0  0  0  0  0  0  0  0  0  0  0
  -21.9413   -8.7356    6.8714 H   0  0  0  0  0  0  0  0  0  0  0  0
  -19.6467   -7.5656   10.1846 H   0  0  0  0  0  0  0  0  0  0  0  0
  -18.6773   -9.7789   10.3048 H   0  0  0  0  0  0  0  0  0  0  0  0
  -20.5088  -12.5560    3.6269 H   0  0  0  0  0  0  0  0  0  0  0  0
  -22.4077  -13.9333    4.2117 H   0  0  0  0  0  0  0  0  0  0  0  0
  -23.5064  -13.6427    6.3533 H   0  0  0  0  0  0  0  0  0  0  0  0
  -22.7063  -11.9628    7.8973 H   0  0  0  0  0  0  0  0  0  0  0  0
  -17.3704  -10.8210    4.0546 H   0  0  0  0  0  0  0  0  0  0  0  0
  -18.6096  -11.8904    3.4432 H   0  0  0  0  0  0  0  0  0  0  0  0
  -17.8624  -12.2129    4.9894 H   0  0  0  0  0  0  0  0  0  0  0  0
  -18.8447  -10.2049    5.9193 H   0  0  0  0  0  0  0  0  0  0  0  0
  -20.1189   -9.7806    3.2301 H   0  0  0  0  0  0  0  0  0  0  0  0
  -18.8283   -8.8192    3.9107 H   0  0  0  0  0  0  0  0  0  0  0  0
  -20.4072   -8.8173    4.6591 H   0  0  0  0  0  0  0  0  0  0  0  0
  -22.5135   -6.6503    8.7322 H   0  0  0  0  0  0  0  0  0  0  0  0
  -21.3496   -6.2431    7.4503 H   0  0  0  0  0  0  0  0  0  0  0  0
  -20.1486   -4.3653   14.5604 H   0  0  0  0  0  0  0  0  0  0  0  0
  -18.8048   -3.3887   14.0185 H   0  0  0  0  0  0  0  0  0  0  0  0
  -18.5201   -4.9921   14.6518 H   0  0  0  0  0  0  0  0  0  0  0  0
  -19.3485   -6.9884   11.7759 H   0  0  0  0  0  0  0  0  0  0  0  0
  -18.4440   -7.1510   12.9785 H   0  0  0  0  0  0  0  0  0  0  0  0
  -18.2413   -4.8996   10.7516 H   0  0  0  0  0  0  0  0  0  0  0  0
  -17.1468   -4.7032   11.7779 H   0  0  0  0  0  0  0  0  0  0  0  0
  -18.3051  -12.0887   10.4525 H   0  0  0  0  0  0  0  0  0  0  0  0
  -18.8234  -14.5134   10.5991 H   0  0  0  0  0  0  0  0  0  0  0  0
  -18.5042  -14.2811    8.9357 H   0  0  0  0  0  0  0  0  0  0  0  0
  -20.8447  -15.3314    9.7291 H   0  0  0  0  0  0  0  0  0  0  0  0
  -20.8419  -14.2615    8.3851 H   0  0  0  0  0  0  0  0  0  0  0  0
  -22.1904  -12.8621    9.6464 H   0  0  0  0  0  0  0  0  0  0  0  0
  -20.2428  -12.4659   11.8268 H   0  0  0  0  0  0  0  0  0  0  0  0
  -20.8194  -11.2946   10.7071 H   0  0  0  0  0  0  0  0  0  0  0  0
  -25.5732  -14.9115   11.9610 H   0  0  0  0  0  0  0  0  0  0  0  0
  -25.8727  -13.4592   12.9335 H   0  0  0  0  0  0  0  0  0  0  0  0
  -25.4766  -17.0452   13.0898 H   0  0  0  0  0  0  0  0  0  0  0  0
  -25.7224  -17.0844   14.8488 H   0  0  0  0  0  0  0  0  0  0  0  0
  -23.9203  -16.6390   16.3954 H   0  0  0  0  0  0  0  0  0  0  0  0
  -23.8588  -14.9883   15.8257 H   0  0  0  0  0  0  0  0  0  0  0  0
  -22.4082  -15.9623   15.8397 H   0  0  0  0  0  0  0  0  0  0  0  0
  -23.6087  -18.5263   14.8216 H   0  0  0  0  0  0  0  0  0  0  0  0
  -22.1137  -17.8206   14.2559 H   0  0  0  0  0  0  0  0  0  0  0  0
  -23.3713  -18.2338   13.1154 H   0  0  0  0  0  0  0  0  0  0  0  0
  -23.1245  -16.0156   12.2623 H   0  0  0  0  0  0  0  0  0  0  0  0
  -22.1478  -15.2827   13.5506 H   0  0  0  0  0  0  0  0  0  0  0  0
  1  2  2  0
  2  3  1  0
  2 48  1  0
  3 16  1  0
  3  4  2  0
  4  5  1  0
  4 49  1  0
  5  6  2  0
  5 50  1  0
  6 28  1  0
  6  1  1  0
  7  8  2  0
  8  9  1  0
  8 51  1  0
  9 10  2  0
  9 52  1  0
 10 11  1  0
 10 53  1  0
 11 12  2  0
 11 54  1  0
 12  1  1  0
 12  7  1  0
 13 14  1  0
 13 55  1  0
 13 56  1  0
 13 57  1  0
 14 15  1  0
 14  7  1  0
 14 58  1  0
 15 59  1  0
 15 60  1  0
 15 61  1  0
 16 17  1  0
 16 62  1  0
 16 63  1  0
 17 18  2  0
 17 19  1  0
 19 21  1  0
 19 20  1  0
 21 22  2  0
 21 23  2  0
 21 24  1  0
 24 25  1  0
 24 26  1  0
 25 64  1  0
 25 65  1  0
 25 66  1  0
 26 27  1  0
 26 67  1  0
 26 68  1  0
 27 24  1  0
 27 69  1  0
 27 70  1  0
 28 29  1  0
 29 30  1  0
 29 71  1  1
 30 31  1  0
 30 72  1  0
 30 73  1  0
 31 32  1  0
 31 74  1  0
 31 75  1  0
 32 34  1  0
 32 33  1  0
 32 76  1  6
 33 29  1  0
 33 77  1  0
 33 78  1  0
 34 35  1  0
 34 37  1  0
 35 36  2  0
 35 38  1  0
 38 39  1  1
 38 40  1  0
 40 41  1  0
 40 79  1  0
 40 80  1  0
 41 42  1  0
 41 47  1  0
 42 43  1  0
 42 81  1  0
 42 82  1  0
 43 44  1  0
 43 45  1  0
 43 46  1  0
 44 83  1  0
 44 84  1  0
 44 85  1  0
 45 86  1  0
 45 87  1  0
 45 88  1  0
 46 38  1  0
 46 89  1  0
 46 90  1  0
M  END
>  <minimizedAffinity>  (5) 
-7.76744

>  <mol_id>  (5) 
45193

>  <source_index>  (5) 
4

>  <layer>  (5) 
L3

>  <uniprot>  (5) 
Q92830

>  <paff>  (5) 
9.9586000000000006

>  <smiles>  (5) 
CC(C)c1ccccc1-c1cc(CC(=O)NS(=O)(=O)C2(C)CC2)ccc1O[C@@H]1CC[C@@H](NC(=O)[C@@]2(F)CNCC(C)(C)C2)C1

$$$$
L3:Q92830:53417
     RDKit          3D

 94 99  0  0  0  0  0  0  0  0999 V2000
  -17.3347  -14.0465    4.7177 C   0  0  0  0  0  0  0  0  0  0  0  0
  -17.4167  -14.6001    6.0069 C   0  0  0  0  0  0  0  0  0  0  0  0
  -18.3575  -14.1427    6.9306 C   0  0  0  0  0  0  0  0  0  0  0  0
  -19.2107  -13.0875    6.6018 C   0  0  0  0  0  0  0  0  0  0  0  0
  -19.1533  -12.4922    5.3297 C   0  0  0  0  0  0  0  0  0  0  0  0
  -18.2255  -13.0052    4.4004 C   0  0  0  0  0  0  0  0  0  0  0  0
  -20.0618  -11.4141    4.8941 C   0  0  0  0  0  0  0  0  0  0  0  0
  -19.5540  -10.0953    4.8873 C   0  0  0  0  0  0  0  0  0  0  0  0
  -20.3384   -9.0172    4.4925 C   0  0  0  0  0  0  0  0  0  0  0  0
  -21.6423   -9.2468    4.0851 C   0  0  0  0  0  0  0  0  0  0  0  0
  -22.1512  -10.5457    4.0844 C   0  0  0  0  0  0  0  0  0  0  0  0
  -23.4101  -10.7023    3.6435 F   0  0  0  0  0  0  0  0  0  0  0  0
  -21.4099  -11.6760    4.4953 C   0  0  0  0  0  0  0  0  0  0  0  0
  -22.0319  -13.1566    4.4353 C   0  0  0  0  0  0  0  0  0  0  0  0
  -23.3901  -13.4562    5.1406 C   0  0  0  0  0  0  0  0  0  0  0  0
  -23.6362  -14.5207    4.0566 C   0  0  0  0  0  0  0  0  0  0  0  0
  -22.7363  -13.6737    3.1413 C   0  0  0  0  0  0  0  0  0  0  0  0
  -16.2999  -14.5885    3.7128 C   0  0  0  0  0  0  0  0  0  0  0  0
  -16.3723  -13.9293    2.3132 C   0  0  0  0  0  0  0  0  0  0  0  0
  -16.5650  -16.0939    3.4942 C   0  0  0  0  0  0  0  0  0  0  0  0
  -14.3748  -12.9705    4.0057 N   0  0  0  0  0  0  0  0  0  0  0  0
  -14.8665  -14.2709    4.2239 C   0  0  0  0  0  0  0  0  0  0  0  0
  -14.1688  -15.1314    4.7503 O   0  0  0  0  0  0  0  0  0  0  0  0
  -14.9300  -12.2616    3.5370 H   0  0  0  0  0  0  0  0  0  0  0  0
  -13.0848  -12.2882    4.7923 S   0  0  0  0  0  0  0  0  0  0  0  0
  -13.5033  -12.2831    6.1816 O   0  0  0  0  0  0  0  0  0  0  0  0
  -11.8803  -12.9900    4.4124 O   0  0  0  0  0  0  0  0  0  0  0  0
  -14.2098  -10.2015    3.3743 C   0  0  0  0  0  0  0  0  0  0  0  0
  -13.0160  -10.5623    4.2487 C   0  0  0  0  0  0  0  0  0  0  0  0
  -11.6967  -10.1874    3.5883 C   0  0  0  0  0  0  0  0  0  0  0  0
  -20.1780  -12.7912    7.5247 O   0  0  0  0  0  0  0  0  0  0  0  0
  -19.6813  -12.2710    8.7585 C   0  0  2  0  0  0  0  0  0  0  0  0
  -20.7602  -12.2283    9.8316 C   0  0  0  0  0  0  0  0  0  0  0  0
  -21.6577  -11.0658    9.4231 C   0  0  0  0  0  0  0  0  0  0  0  0
  -20.7501  -10.0942    8.6459 C   0  0  2  0  0  0  0  0  0  0  0  0
  -19.3841  -10.7910    8.5409 C   0  0  0  0  0  0  0  0  0  0  0  0
  -20.6137   -8.7901    9.2807 N   0  0  0  0  0  0  0  0  0  0  0  0
  -20.8849   -7.6282    8.5675 C   0  0  0  0  0  0  0  0  0  0  0  0
  -21.3873   -7.6157    7.4469 O   0  0  0  0  0  0  0  0  0  0  0  0
  -19.8268   -8.6723    9.9112 H   0  0  0  0  0  0  0  0  0  0  0  0
  -20.5282   -6.3691    9.3558 C   0  0  2  0  0  0  0  0  0  0  0  0
  -20.1861   -5.3522    8.4964 F   0  0  0  0  0  0  0  0  0  0  0  0
  -19.3428   -6.6232   10.2939 C   0  0  0  0  0  0  0  0  0  0  0  0
  -19.5288   -5.7806   11.4982 N   0  0  0  0  0  0  0  0  0  0  0  0
  -20.8025   -5.0643   11.2767 C   0  0  0  0  0  0  0  0  0  0  0  0
  -20.5035   -3.5648   10.9982 C   0  0  0  0  0  0  0  0  0  0  0  0
  -20.6172   -3.3101   12.5190 C   0  0  0  0  0  0  0  0  0  0  0  0
  -21.3972   -4.6376   12.6390 C   0  0  0  0  0  0  0  0  0  0  0  0
  -21.6130   -5.8606   10.2855 C   0  0  0  0  0  0  0  0  0  0  0  0
  -18.7071   -5.1959   11.6426 H   0  0  0  0  0  0  0  0  0  0  0  0
  -16.7698  -15.3581    6.2752 H   0  0  0  0  0  0  0  0  0  0  0  0
  -18.4228  -14.5861    7.8602 H   0  0  0  0  0  0  0  0  0  0  0  0
  -18.1989  -12.6013    3.4511 H   0  0  0  0  0  0  0  0  0  0  0  0
  -18.5791   -9.9286    5.1820 H   0  0  0  0  0  0  0  0  0  0  0  0
  -19.9545   -8.0593    4.5029 H   0  0  0  0  0  0  0  0  0  0  0  0
  -22.2360   -8.4587    3.7828 H   0  0  0  0  0  0  0  0  0  0  0  0
  -21.0980  -13.5541    4.7740 H   0  0  0  0  0  0  0  0  0  0  0  0
  -24.0857  -12.6431    5.1345 H   0  0  0  0  0  0  0  0  0  0  0  0
  -23.4448  -13.6898    6.1834 H   0  0  0  0  0  0  0  0  0  0  0  0
  -24.6526  -14.6051    3.7331 H   0  0  0  0  0  0  0  0  0  0  0  0
  -23.4531  -15.5607    4.2293 H   0  0  0  0  0  0  0  0  0  0  0  0
  -23.2507  -12.9210    2.5812 H   0  0  0  0  0  0  0  0  0  0  0  0
  -22.1849  -14.1078    2.3336 H   0  0  0  0  0  0  0  0  0  0  0  0
  -15.6258  -14.3582    1.6779 H   0  0  0  0  0  0  0  0  0  0  0  0
  -16.2007  -12.8772    2.4052 H   0  0  0  0  0  0  0  0  0  0  0  0
  -17.3404  -14.0971    1.8896 H   0  0  0  0  0  0  0  0  0  0  0  0
  -15.8527  -16.4840    2.7975 H   0  0  0  0  0  0  0  0  0  0  0  0
  -17.5534  -16.2295    3.1074 H   0  0  0  0  0  0  0  0  0  0  0  0
  -16.4726  -16.6113    4.4262 H   0  0  0  0  0  0  0  0  0  0  0  0
  -14.1349   -9.1775    3.0732 H   0  0  0  0  0  0  0  0  0  0  0  0
  -15.1140  -10.3452    3.9282 H   0  0  0  0  0  0  0  0  0  0  0  0
  -14.2192  -10.8284    2.5072 H   0  0  0  0  0  0  0  0  0  0  0  0
  -13.0725   -9.9712    5.1388 H   0  0  0  0  0  0  0  0  0  0  0  0
  -11.5780  -10.7483    2.6848 H   0  0  0  0  0  0  0  0  0  0  0  0
  -10.8889  -10.4087    4.2542 H   0  0  0  0  0  0  0  0  0  0  0  0
  -11.6958   -9.1417    3.3616 H   0  0  0  0  0  0  0  0  0  0  0  0
  -18.8519  -12.8815    9.0489 H   0  0  0  0  0  0  0  0  0  0  0  0
  -20.3289  -12.0529   10.7950 H   0  0  0  0  0  0  0  0  0  0  0  0
  -21.2972  -13.1508    9.9061 H   0  0  0  0  0  0  0  0  0  0  0  0
  -22.0640  -10.5857   10.2887 H   0  0  0  0  0  0  0  0  0  0  0  0
  -22.4853  -11.3944    8.8298 H   0  0  0  0  0  0  0  0  0  0  0  0
  -21.1814   -9.8868    7.6889 H   0  0  0  0  0  0  0  0  0  0  0  0
  -18.7166  -10.4264    9.2935 H   0  0  0  0  0  0  0  0  0  0  0  0
  -18.9104  -10.6094    7.5988 H   0  0  0  0  0  0  0  0  0  0  0  0
  -18.4284   -6.3610    9.8040 H   0  0  0  0  0  0  0  0  0  0  0  0
  -19.2961   -7.6572   10.5651 H   0  0  0  0  0  0  0  0  0  0  0  0
  -21.2444   -3.0668   10.4084 H   0  0  0  0  0  0  0  0  0  0  0  0
  -19.6382   -3.2626   10.4461 H   0  0  0  0  0  0  0  0  0  0  0  0
  -21.1814   -2.4396   12.7813 H   0  0  0  0  0  0  0  0  0  0  0  0
  -19.7502   -3.1195   13.1164 H   0  0  0  0  0  0  0  0  0  0  0  0
  -22.4614   -4.5267   12.6418 H   0  0  0  0  0  0  0  0  0  0  0  0
  -21.3022   -5.2598   13.5043 H   0  0  0  0  0  0  0  0  0  0  0  0
  -22.3153   -5.2420    9.7668 H   0  0  0  0  0  0  0  0  0  0  0  0
  -22.2097   -6.6318   10.7261 H   0  0  0  0  0  0  0  0  0  0  0  0
  1  2  2  0
  2  3  1  0
  2 51  1  0
  3  4  2  0
  3 52  1  0
  4 31  1  0
  4  5  1  0
  5  7  1  0
  5  6  2  0
  6  1  1  0
  6 53  1  0
  7  8  2  0
  8  9  1  0
  8 54  1  0
  9 10  2  0
  9 55  1  0
 10 11  1  0
 10 56  1  0
 11 12  1  0
 11 13  2  0
 13 14  1  0
 13  7  1  0
 14 15  1  0
 14 57  1  0
 15 16  1  0
 15 58  1  0
 15 59  1  0
 16 17  1  0
 16 60  1  0
 16 61  1  0
 17 14  1  0
 17 62  1  0
 17 63  1  0
 18 19  1  0
 18 20  1  0
 18  1  1  0
 19 64  1  0
 19 65  1  0
 19 66  1  0
 20 67  1  0
 20 68  1  0
 20 69  1  0
 21 22  1  0
 21 24  1  0
 22 23  2  0
 22 18  1  0
 25 26  2  0
 25 27  2  0
 25 21  1  0
 28 29  1  0
 28 70  1  0
 28 71  1  0
 28 72  1  0
 29 30  1  0
 29 25  1  0
 29 73  1  0
 30 74  1  0
 30 75  1  0
 30 76  1  0
 31 32  1  0
 32 33  1  0
 32 77  1  1
 33 34  1  0
 33 78  1  0
 33 79  1  0
 34 35  1  0
 34 80  1  0
 34 81  1  0
 35 37  1  0
 35 36  1  0
 35 82  1  6
 36 32  1  0
 36 83  1  0
 36 84  1  0
 37 38  1  0
 37 40  1  0
 38 39  2  0
 38 41  1  0
 41 42  1  6
 41 43  1  0
 43 44  1  0
 43 85  1  0
 43 86  1  0
 44 45  1  0
 44 50  1  0
 45 46  1  0
 45 49  1  0
 46 47  1  0
 46 87  1  0
 46 88  1  0
 47 48  1  0
 47 89  1  0
 47 90  1  0
 48 45  1  0
 48 91  1  0
 48 92  1  0
 49 41  1  0
 49 93  1  0
 49 94  1  0
M  END
>  <minimizedAffinity>  (6) 
-6.66147

>  <mol_id>  (6) 
53417

>  <source_index>  (6) 
5

>  <layer>  (6) 
L3

>  <uniprot>  (6) 
Q92830

>  <paff>  (6) 
9.8538999999999994

>  <smiles>  (6) 
CC(C)S(=O)(=O)NC(=O)C(C)(C)c1ccc(O[C@@H]2CC[C@@H](NC(=O)[C@]3(F)CNC4(CCC4)C3)C2)c(-c2cccc(F)c2C2CCC2)c1

$$$$
L3:Q92830:71683
     RDKit          3D

 94 99  0  0  0  0  0  0  0  0999 V2000
   -9.0686   -4.4227   14.0673 C   0  0  0  0  0  0  0  0  0  0  0  0
   -9.4171   -3.0983   14.3861 C   0  0  0  0  0  0  0  0  0  0  0  0
  -10.6272   -2.7913   15.0159 C   0  0  0  0  0  0  0  0  0  0  0  0
  -11.5397   -3.7988   15.3294 C   0  0  0  0  0  0  0  0  0  0  0  0
  -11.2314   -5.1361   15.0031 C   0  0  0  0  0  0  0  0  0  0  0  0
   -9.9949   -5.4280   14.3840 C   0  0  0  0  0  0  0  0  0  0  0  0
  -12.1475   -6.2456   15.3284 C   0  0  0  0  0  0  0  0  0  0  0  0
  -12.9040   -6.7815   14.2573 C   0  0  0  0  0  0  0  0  0  0  0  0
  -13.7588   -7.8649   14.4304 C   0  0  0  0  0  0  0  0  0  0  0  0
  -13.8617   -8.4441   15.6824 C   0  0  0  0  0  0  0  0  0  0  0  0
  -13.1255   -7.9198   16.7423 C   0  0  0  0  0  0  0  0  0  0  0  0
  -13.2429   -8.5345   17.9306 F   0  0  0  0  0  0  0  0  0  0  0  0
  -12.2637   -6.8002   16.6325 C   0  0  0  0  0  0  0  0  0  0  0  0
  -11.4661   -6.3274   17.9541 C   0  0  0  0  0  0  0  0  0  0  0  0
   -9.9013   -6.2251   17.8320 C   0  0  0  0  0  0  0  0  0  0  0  0
   -9.8210   -7.5928   18.5338 C   0  0  0  0  0  0  0  0  0  0  0  0
  -11.1739   -7.2530   19.1750 C   0  0  0  0  0  0  0  0  0  0  0  0
   -7.7255   -4.7150   13.3732 C   0  0  0  0  0  0  0  0  0  0  0  0
   -6.6706   -3.7550   13.9630 C   0  0  0  0  0  0  0  0  0  0  0  0
   -7.7401   -4.5185   11.8421 C   0  0  0  0  0  0  0  0  0  0  0  0
   -7.7570   -7.1143   12.6713 N   0  0  0  0  0  0  0  0  0  0  0  0
   -7.2799   -6.1777   13.6102 C   0  0  0  0  0  0  0  0  0  0  0  0
   -6.5301   -6.5118   14.5186 O   0  0  0  0  0  0  0  0  0  0  0  0
   -8.3768   -6.8158   11.9208 H   0  0  0  0  0  0  0  0  0  0  0  0
   -7.9194   -8.7349   12.9959 S   0  0  0  0  0  0  0  0  0  0  0  0
   -6.5624   -9.2400   13.0023 O   0  0  0  0  0  0  0  0  0  0  0  0
   -8.9053   -9.2808   12.0922 O   0  0  0  0  0  0  0  0  0  0  0  0
   -9.9991   -9.1710   14.7172 C   0  0  0  0  0  0  0  0  0  0  0  0
   -8.5388   -8.7588   14.6795 C   0  0  0  0  0  0  0  0  0  0  0  0
  -12.7463   -3.5992   15.9439 O   0  0  0  0  0  0  0  0  0  0  0  0
  -13.6526   -2.6296   15.4240 C   0  0  2  0  0  0  0  0  0  0  0  0
  -14.7494   -2.2982   16.4314 C   0  0  0  0  0  0  0  0  0  0  0  0
  -15.6737   -3.5161   16.4126 C   0  0  0  0  0  0  0  0  0  0  0  0
  -15.4568   -4.1840   15.0468 C   0  0  2  0  0  0  0  0  0  0  0  0
  -14.4497   -3.2992   14.3074 C   0  0  0  0  0  0  0  0  0  0  0  0
  -16.6973   -4.3249   14.3035 N   0  0  0  0  0  0  0  0  0  0  0  0
  -16.8300   -5.2652   13.2924 C   0  0  0  0  0  0  0  0  0  0  0  0
  -15.8852   -5.9633   12.9235 O   0  0  0  0  0  0  0  0  0  0  0  0
  -17.5344   -3.9102   14.6954 H   0  0  0  0  0  0  0  0  0  0  0  0
  -18.2356   -5.3960   12.6742 C   0  0  1  0  0  0  0  0  0  0  0  0
  -18.7697   -6.6360   12.9417 F   0  0  0  0  0  0  0  0  0  0  0  0
  -19.1810   -4.3427   13.3004 C   0  0  0  0  0  0  0  0  0  0  0  0
  -20.2119   -3.8214   12.3752 N   0  0  0  0  0  0  0  0  0  0  0  0
  -20.7181   -4.9029   11.5258 C   0  0  0  0  0  0  0  0  0  0  0  0
  -19.6160   -5.4069   10.5706 C   0  0  0  0  0  0  0  0  0  0  0  0
  -19.9306   -6.8107    9.9548 C   0  0  0  0  0  0  0  0  0  0  0  0
  -20.5955   -6.0857    8.7690 C   0  0  0  0  0  0  0  0  0  0  0  0
  -19.7277   -4.8603    9.1110 C   0  0  0  0  0  0  0  0  0  0  0  0
  -18.1961   -5.2583   11.1482 C   0  0  0  0  0  0  0  0  0  0  0  0
  -20.9833   -3.4402   12.9246 H   0  0  0  0  0  0  0  0  0  0  0  0
   -8.7643   -2.3348   14.1497 H   0  0  0  0  0  0  0  0  0  0  0  0
  -10.8472   -1.8108   15.2509 H   0  0  0  0  0  0  0  0  0  0  0  0
   -9.7667   -6.4088   14.1583 H   0  0  0  0  0  0  0  0  0  0  0  0
  -12.8183   -6.3556   13.3212 H   0  0  0  0  0  0  0  0  0  0  0  0
  -14.3079   -8.2311   13.6370 H   0  0  0  0  0  0  0  0  0  0  0  0
  -14.4788   -9.2580   15.8300 H   0  0  0  0  0  0  0  0  0  0  0  0
  -12.1495   -5.5118   18.0668 H   0  0  0  0  0  0  0  0  0  0  0  0
   -9.4634   -5.4168   18.3795 H   0  0  0  0  0  0  0  0  0  0  0  0
   -9.4217   -6.0470   16.8922 H   0  0  0  0  0  0  0  0  0  0  0  0
   -9.0106   -7.6949   19.2250 H   0  0  0  0  0  0  0  0  0  0  0  0
   -9.6635   -8.5007   17.9899 H   0  0  0  0  0  0  0  0  0  0  0  0
  -11.1044   -6.7418   20.1124 H   0  0  0  0  0  0  0  0  0  0  0  0
  -11.8593   -8.0206   19.4680 H   0  0  0  0  0  0  0  0  0  0  0  0
   -5.7241   -3.9358   13.4979 H   0  0  0  0  0  0  0  0  0  0  0  0
   -6.5875   -3.9204   15.0169 H   0  0  0  0  0  0  0  0  0  0  0  0
   -6.9689   -2.7433   13.7832 H   0  0  0  0  0  0  0  0  0  0  0  0
   -6.7722   -4.7421   11.4446 H   0  0  0  0  0  0  0  0  0  0  0  0
   -7.9933   -3.5040   11.6151 H   0  0  0  0  0  0  0  0  0  0  0  0
   -8.4650   -5.1733   11.4054 H   0  0  0  0  0  0  0  0  0  0  0  0
  -10.3420   -9.1769   15.7308 H   0  0  0  0  0  0  0  0  0  0  0  0
  -10.1041  -10.1505   14.2995 H   0  0  0  0  0  0  0  0  0  0  0  0
  -10.5806   -8.4763   14.1479 H   0  0  0  0  0  0  0  0  0  0  0  0
   -7.9640   -9.4550   15.2538 H   0  0  0  0  0  0  0  0  0  0  0  0
   -8.4525   -7.7736   15.0880 H   0  0  0  0  0  0  0  0  0  0  0  0
  -13.0769   -1.7720   15.1447 H   0  0  0  0  0  0  0  0  0  0  0  0
  -15.2798   -1.4172   16.1357 H   0  0  0  0  0  0  0  0  0  0  0  0
  -14.3572   -2.1024   17.4075 H   0  0  0  0  0  0  0  0  0  0  0  0
  -16.6937   -3.2116   16.5208 H   0  0  0  0  0  0  0  0  0  0  0  0
  -15.4583   -4.1868   17.2180 H   0  0  0  0  0  0  0  0  0  0  0  0
  -15.0893   -5.1823   15.1615 H   0  0  0  0  0  0  0  0  0  0  0  0
  -14.9532   -2.5686   13.7093 H   0  0  0  0  0  0  0  0  0  0  0  0
  -13.8291   -3.8556   13.6364 H   0  0  0  0  0  0  0  0  0  0  0  0
  -18.5876   -3.5192   13.6389 H   0  0  0  0  0  0  0  0  0  0  0  0
  -19.7031   -4.8340   14.0947 H   0  0  0  0  0  0  0  0  0  0  0  0
  -21.5435   -4.5401   10.9496 H   0  0  0  0  0  0  0  0  0  0  0  0
  -21.0296   -5.7140   12.1503 H   0  0  0  0  0  0  0  0  0  0  0  0
  -20.5969   -7.4118   10.5376 H   0  0  0  0  0  0  0  0  0  0  0  0
  -19.1606   -7.5379    9.8027 H   0  0  0  0  0  0  0  0  0  0  0  0
  -21.6486   -5.9296    8.8762 H   0  0  0  0  0  0  0  0  0  0  0  0
  -20.6053   -6.5095    7.7866 H   0  0  0  0  0  0  0  0  0  0  0  0
  -20.2335   -3.9212    9.0266 H   0  0  0  0  0  0  0  0  0  0  0  0
  -18.8563   -4.6184    8.5391 H   0  0  0  0  0  0  0  0  0  0  0  0
  -17.8067   -4.2960   10.8889 H   0  0  0  0  0  0  0  0  0  0  0  0
  -17.5690   -6.0242   10.7419 H   0  0  0  0  0  0  0  0  0  0  0  0
  1  2  2  0
  2  3  1  0
  2 51  1  0
  3  4  2  0
  3 52  1  0
  4 30  1  0
  4  5  1  0
  5  7  1  0
  5  6  2  0
  6  1  1  0
  6 53  1  0
  7  8  2  0
  8  9  1  0
  8 54  1  0
  9 10  2  0
  9 55  1  0
 10 11  1  0
 10 56  1  0
 11 12  1  0
 11 13  2  0
 13 14  1  0
 13  7  1  0
 14 15  1  0
 14 57  1  0
 15 16  1  0
 15 58  1  0
 15 59  1  0
 16 17  1  0
 16 60  1  0
 16 61  1  0
 17 14  1  0
 17 62  1  0
 17 63  1  0
 18 19  1  0
 18 20  1  0
 18  1  1  0
 19 64  1  0
 19 65  1  0
 19 66  1  0
 20 67  1  0
 20 68  1  0
 20 69  1  0
 21 22  1  0
 21 24  1  0
 22 23  2  0
 22 18  1  0
 25 26  2  0
 25 27  2  0
 25 21  1  0
 28 29  1  0
 28 70  1  0
 28 71  1  0
 28 72  1  0
 29 25  1  0
 29 73  1  0
 29 74  1  0
 30 31  1  0
 31 32  1  0
 31 75  1  6
 32 33  1  0
 32 76  1  0
 32 77  1  0
 33 34  1  0
 33 78  1  0
 33 79  1  0
 34 36  1  0
 34 35  1  0
 34 80  1  1
 35 31  1  0
 35 81  1  0
 35 82  1  0
 36 37  1  0
 36 39  1  0
 37 38  2  0
 37 40  1  0
 40 41  1  6
 40 42  1  0
 42 43  1  0
 42 83  1  0
 42 84  1  0
 43 44  1  0
 43 50  1  0
 44 45  1  0
 44 85  1  0
 44 86  1  0
 45 46  1  0
 45 49  1  0
 46 47  1  0
 46 87  1  0
 46 88  1  0
 47 48  1  0
 47 89  1  0
 47 90  1  0
 48 45  1  0
 48 91  1  0
 48 92  1  0
 49 40  1  0
 49 93  1  0
 49 94  1  0
M  END
>  <minimizedAffinity>  (7) 
-7.40211

>  <mol_id>  (7) 
71683

>  <source_index>  (7) 
6

>  <layer>  (7) 
L3

>  <uniprot>  (7) 
Q92830

>  <paff>  (7) 
10.3979

>  <smiles>  (7) 
CCS(=O)(=O)NC(=O)C(C)(C)c1ccc(O[C@@H]2CC[C@@H](NC(=O)[C@@]3(F)CNCC4(CCC4)C3)C2)c(-c2cccc(F)c2C2CCC2)c1

$$$$
L3:Q92830:78328
     RDKit          3D

 87 91  0  0  0  0  0  0  0  0999 V2000
  -18.7751   -5.1902   12.9543 C   0  0  0  0  0  0  0  0  0  0  0  0
  -19.4956   -4.4197   13.8875 C   0  0  0  0  0  0  0  0  0  0  0  0
  -20.4329   -3.4644   13.4742 C   0  0  0  0  0  0  0  0  0  0  0  0
  -20.6449   -3.2771   12.1055 C   0  0  0  0  0  0  0  0  0  0  0  0
  -19.9419   -4.0373   11.1659 C   0  0  0  0  0  0  0  0  0  0  0  0
  -19.0027   -4.9882   11.5770 C   0  0  0  0  0  0  0  0  0  0  0  0
  -16.5666   -5.7981   14.0478 C   0  0  0  0  0  0  0  0  0  0  0  0
  -15.7121   -6.8107   14.5299 C   0  0  0  0  0  0  0  0  0  0  0  0
  -16.0486   -8.1598   14.4155 C   0  0  0  0  0  0  0  0  0  0  0  0
  -17.2467   -8.5274   13.8174 C   0  0  0  0  0  0  0  0  0  0  0  0
  -18.1110   -7.5433   13.3408 C   0  0  0  0  0  0  0  0  0  0  0  0
  -17.7953   -6.1743   13.4506 C   0  0  0  0  0  0  0  0  0  0  0  0
  -14.6897   -4.1205   13.7702 C   0  0  0  0  0  0  0  0  0  0  0  0
  -16.1491   -4.3357   14.1826 C   0  0  0  0  0  0  0  0  0  0  0  0
  -16.4002   -3.8156   15.6006 C   0  0  0  0  0  0  0  0  0  0  0  0
  -21.1760   -2.6364   14.4915 C   0  0  0  0  0  0  0  0  0  0  0  0
  -20.7388   -1.1823   14.5454 C   0  0  0  0  0  0  0  0  0  0  0  0
  -21.1228   -0.3225   13.7657 O   0  0  0  0  0  0  0  0  0  0  0  0
  -19.9123   -0.8761   15.6397 N   0  0  0  0  0  0  0  0  0  0  0  0
  -19.6484   -1.5804   16.3228 H   0  0  0  0  0  0  0  0  0  0  0  0
  -19.0703    0.5392   15.8217 S   0  0  0  0  0  0  0  0  0  0  0  0
  -19.9900    1.5526   16.2854 O   0  0  0  0  0  0  0  0  0  0  0  0
  -18.3741    0.7032   14.5612 O   0  0  0  0  0  0  0  0  0  0  0  0
  -17.8486    0.1748   17.1080 C   0  0  0  0  0  0  0  0  0  0  0  0
  -16.4439    0.2965   16.5228 C   0  0  0  0  0  0  0  0  0  0  0  0
  -18.0619   -1.2089   17.7116 C   0  0  0  0  0  0  0  0  0  0  0  0
  -18.2820   -5.7822   10.7226 O   0  0  0  0  0  0  0  0  0  0  0  0
  -18.9316   -6.3244    9.5759 C   0  0  2  0  0  0  0  0  0  0  0  0
  -20.0044   -5.3656    9.0375 C   0  0  0  0  0  0  0  0  0  0  0  0
  -21.3409   -6.0785    9.2253 C   0  0  0  0  0  0  0  0  0  0  0  0
  -20.9879   -7.5606    9.2123 C   0  0  2  0  0  0  0  0  0  0  0  0
  -19.6895   -7.5870   10.0114 C   0  0  0  0  0  0  0  0  0  0  0  0
  -20.8086   -8.0552    7.8573 N   0  0  0  0  0  0  0  0  0  0  0  0
  -21.1587   -9.3442    7.4962 C   0  0  0  0  0  0  0  0  0  0  0  0
  -21.5429  -10.1888    8.2991 O   0  0  0  0  0  0  0  0  0  0  0  0
  -20.6781   -7.3986    7.0913 H   0  0  0  0  0  0  0  0  0  0  0  0
  -20.9662   -9.6176    6.0055 C   0  0  1  0  0  0  0  0  0  0  0  0
  -20.5577   -8.4840    5.3469 F   0  0  0  0  0  0  0  0  0  0  0  0
  -19.9111  -10.7144    5.8013 C   0  0  0  0  0  0  0  0  0  0  0  0
  -20.4667  -11.6812    4.8373 N   0  0  0  0  0  0  0  0  0  0  0  0
  -21.9212  -11.5764    5.0370 C   0  0  0  0  0  0  0  0  0  0  0  0
  -22.3997  -12.6963    5.9984 C   0  0  0  0  0  0  0  0  0  0  0  0
  -22.6349  -13.5953    4.7663 C   0  0  0  0  0  0  0  0  0  0  0  0
  -22.6525  -12.3198    3.8967 C   0  0  0  0  0  0  0  0  0  0  0  0
  -22.2355  -10.1305    5.3350 C   0  0  0  0  0  0  0  0  0  0  0  0
  -20.0487  -12.6014    4.9769 H   0  0  0  0  0  0  0  0  0  0  0  0
  -19.3296   -4.5618   14.8961 H   0  0  0  0  0  0  0  0  0  0  0  0
  -21.3265   -2.5713   11.7855 H   0  0  0  0  0  0  0  0  0  0  0  0
  -20.1179   -3.8952   10.1590 H   0  0  0  0  0  0  0  0  0  0  0  0
  -14.8195   -6.5485   14.9765 H   0  0  0  0  0  0  0  0  0  0  0  0
  -15.4075   -8.8841   14.7752 H   0  0  0  0  0  0  0  0  0  0  0  0
  -17.4960   -9.5247   13.7262 H   0  0  0  0  0  0  0  0  0  0  0  0
  -19.0004   -7.8229   12.8984 H   0  0  0  0  0  0  0  0  0  0  0  0
  -14.4372   -3.0864   13.8787 H   0  0  0  0  0  0  0  0  0  0  0  0
  -14.5605   -4.4140   12.7494 H   0  0  0  0  0  0  0  0  0  0  0  0
  -14.0519   -4.7108   14.3944 H   0  0  0  0  0  0  0  0  0  0  0  0
  -16.7591   -3.7703   13.5095 H   0  0  0  0  0  0  0  0  0  0  0  0
  -15.8000   -4.3666   16.2941 H   0  0  0  0  0  0  0  0  0  0  0  0
  -17.4340   -3.9383   15.8476 H   0  0  0  0  0  0  0  0  0  0  0  0
  -16.1421   -2.7784   15.6510 H   0  0  0  0  0  0  0  0  0  0  0  0
  -21.0198   -3.0704   15.4570 H   0  0  0  0  0  0  0  0  0  0  0  0
  -22.2053   -2.6388   14.1994 H   0  0  0  0  0  0  0  0  0  0  0  0
  -17.9684    0.8853   17.8990 H   0  0  0  0  0  0  0  0  0  0  0  0
  -16.3243   -0.4141   15.7318 H   0  0  0  0  0  0  0  0  0  0  0  0
  -15.7209    0.1038   17.2877 H   0  0  0  0  0  0  0  0  0  0  0  0
  -16.3019    1.2851   16.1387 H   0  0  0  0  0  0  0  0  0  0  0  0
  -17.9501   -1.9516   16.9495 H   0  0  0  0  0  0  0  0  0  0  0  0
  -19.0463   -1.2691   18.1267 H   0  0  0  0  0  0  0  0  0  0  0  0
  -17.3390   -1.3771   18.4823 H   0  0  0  0  0  0  0  0  0  0  0  0
  -18.1872   -6.5089    8.8297 H   0  0  0  0  0  0  0  0  0  0  0  0
  -19.8343   -5.1622    8.0009 H   0  0  0  0  0  0  0  0  0  0  0  0
  -19.9853   -4.4281    9.5528 H   0  0  0  0  0  0  0  0  0  0  0  0
  -22.0112   -5.8423    8.4254 H   0  0  0  0  0  0  0  0  0  0  0  0
  -21.8348   -5.7858   10.1282 H   0  0  0  0  0  0  0  0  0  0  0  0
  -21.7494   -8.1909    9.6218 H   0  0  0  0  0  0  0  0  0  0  0  0
  -19.1229   -8.4647    9.7801 H   0  0  0  0  0  0  0  0  0  0  0  0
  -19.8663   -7.6068   11.0665 H   0  0  0  0  0  0  0  0  0  0  0  0
  -19.7045  -11.2017    6.7312 H   0  0  0  0  0  0  0  0  0  0  0  0
  -18.9961  -10.2972    5.4357 H   0  0  0  0  0  0  0  0  0  0  0  0
  -23.2860  -12.4586    6.5487 H   0  0  0  0  0  0  0  0  0  0  0  0
  -21.7915  -13.0232    6.8158 H   0  0  0  0  0  0  0  0  0  0  0  0
  -23.5589  -14.1346    4.7810 H   0  0  0  0  0  0  0  0  0  0  0  0
  -21.9821  -14.4127    4.5415 H   0  0  0  0  0  0  0  0  0  0  0  0
  -23.6314  -11.9452    3.6814 H   0  0  0  0  0  0  0  0  0  0  0  0
  -22.2628  -12.3243    2.9002 H   0  0  0  0  0  0  0  0  0  0  0  0
  -23.0747  -10.0501    5.9939 H   0  0  0  0  0  0  0  0  0  0  0  0
  -22.4972   -9.5734    4.4598 H   0  0  0  0  0  0  0  0  0  0  0  0
  1  2  2  0
  2  3  1  0
  2 47  1  0
  3 16  1  0
  3  4  2  0
  4  5  1  0
  4 48  1  0
  5  6  2  0
  5 49  1  0
  6 27  1  0
  6  1  1  0
  7  8  2  0
  8  9  1  0
  8 50  1  0
  9 10  2  0
  9 51  1  0
 10 11  1  0
 10 52  1  0
 11 12  2  0
 11 53  1  0
 12  1  1  0
 12  7  1  0
 13 14  1  0
 13 54  1  0
 13 55  1  0
 13 56  1  0
 14 15  1  0
 14  7  1  0
 14 57  1  0
 15 58  1  0
 15 59  1  0
 15 60  1  0
 16 17  1  0
 16 61  1  0
 16 62  1  0
 17 18  2  0
 17 19  1  0
 19 21  1  0
 19 20  1  0
 21 22  2  0
 21 23  2  0
 21 24  1  0
 24 25  1  0
 24 26  1  0
 24 63  1  0
 25 64  1  0
 25 65  1  0
 25 66  1  0
 26 67  1  0
 26 68  1  0
 26 69  1  0
 27 28  1  0
 28 29  1  0
 28 70  1  6
 29 30  1  0
 29 71  1  0
 29 72  1  0
 30 31  1  0
 30 73  1  0
 30 74  1  0
 31 33  1  0
 31 32  1  0
 31 75  1  1
 32 28  1  0
 32 76  1  0
 32 77  1  0
 33 34  1  0
 33 36  1  0
 34 35  2  0
 34 37  1  0
 37 38  1  6
 37 39  1  0
 39 40  1  0
 39 78  1  0
 39 79  1  0
 40 41  1  0
 40 46  1  0
 41 42  1  0
 41 45  1  0
 42 43  1  0
 42 80  1  0
 42 81  1  0
 43 44  1  0
 43 82  1  0
 43 83  1  0
 44 41  1  0
 44 84  1  0
 44 85  1  0
 45 37  1  0
 45 86  1  0
 45 87  1  0
M  END
>  <minimizedAffinity>  (8) 
-8.13514

>  <mol_id>  (8) 
78328

>  <source_index>  (8) 
7

>  <layer>  (8) 
L3

>  <uniprot>  (8) 
Q92830

>  <paff>  (8) 
9.9586000000000006

>  <smiles>  (8) 
CC(C)c1ccccc1-c1cc(CC(=O)NS(=O)(=O)C(C)C)ccc1O[C@@H]1CC[C@@H](NC(=O)[C@@]2(F)CNC3(CCC3)C2)C1

$$$$
L3:Q92830:125008
     RDKit          3D

 86 93  0  0  0  0  0  0  0  0999 V2000
  -17.1551   -6.4433   13.3871 C   0  0  0  0  0  0  0  0  0  0  0  0
  -17.3702   -7.7085   13.9404 C   0  0  0  0  0  0  0  0  0  0  0  0
  -16.3637   -8.3428   14.6745 C   0  0  0  0  0  0  0  0  0  0  0  0
  -15.1315   -7.7130   14.8733 C   0  0  0  0  0  0  0  0  0  0  0  0
  -14.8936   -6.4404   14.3066 C   0  0  0  0  0  0  0  0  0  0  0  0
  -15.9147   -5.8217   13.5604 C   0  0  0  0  0  0  0  0  0  0  0  0
  -13.5948   -5.7561   14.4660 C   0  0  0  0  0  0  0  0  0  0  0  0
  -12.4336   -6.4294   14.0257 C   0  0  0  0  0  0  0  0  0  0  0  0
  -11.1728   -5.8609   14.1700 C   0  0  0  0  0  0  0  0  0  0  0  0
  -11.0605   -4.6131   14.7625 C   0  0  0  0  0  0  0  0  0  0  0  0
  -12.2042   -3.9414   15.1971 C   0  0  0  0  0  0  0  0  0  0  0  0
  -12.0198   -2.7449   15.7749 F   0  0  0  0  0  0  0  0  0  0  0  0
  -13.5078   -4.4633   15.0630 C   0  0  0  0  0  0  0  0  0  0  0  0
  -14.8234   -3.6771   15.5570 C   0  0  0  0  0  0  0  0  0  0  0  0
  -15.1510   -3.7290   17.0776 C   0  0  0  0  0  0  0  0  0  0  0  0
  -14.5639   -2.3115   17.2005 C   0  0  0  0  0  0  0  0  0  0  0  0
  -14.8544   -2.1294   15.7004 C   0  0  0  0  0  0  0  0  0  0  0  0
  -19.0942   -4.7198   12.9014 C   0  0  0  0  0  0  0  0  0  0  0  0
  -19.8729   -4.4594   11.8291 N   0  0  0  0  0  0  0  0  0  0  0  0
  -19.4956   -5.3553   10.9161 N   0  0  0  0  0  0  0  0  0  0  0  0
  -18.4963   -6.1807   11.3197 C   0  0  0  0  0  0  0  0  0  0  0  0
  -18.1972   -5.8009   12.6119 C   0  0  0  0  0  0  0  0  0  0  0  0
  -18.3552   -3.5198   14.8514 O   0  0  0  0  0  0  0  0  0  0  0  0
  -19.2545   -3.9445   14.1380 C   0  0  0  0  0  0  0  0  0  0  0  0
  -20.5326   -3.6724   14.4918 O   0  0  0  0  0  0  0  0  0  0  0  0
  -20.4186   -3.1547   15.3149 H   0  0  0  0  0  0  0  0  0  0  0  0
  -20.0966   -5.4059    9.5676 C   0  0  0  0  0  0  0  0  0  0  0  0
  -21.5692   -5.6634    9.3489 C   0  0  0  0  0  0  0  0  0  0  0  0
  -20.5650   -6.7037    8.9500 C   0  0  0  0  0  0  0  0  0  0  0  0
  -14.0859   -8.2544   15.5762 O   0  0  0  0  0  0  0  0  0  0  0  0
  -13.9006   -9.6719   15.5745 C   0  0  2  0  0  0  0  0  0  0  0  0
  -12.9786  -10.0096   16.7460 C   0  0  0  0  0  0  0  0  0  0  0  0
  -11.5969   -9.6598   16.2139 C   0  0  0  0  0  0  0  0  0  0  0  0
  -11.6279  -10.1569   14.7705 C   0  0  2  0  0  0  0  0  0  0  0  0
  -13.1039  -10.0953   14.3344 C   0  0  0  0  0  0  0  0  0  0  0  0
  -11.1072  -11.5136   14.6806 N   0  0  0  0  0  0  0  0  0  0  0  0
  -10.1467  -11.8600   13.7425 C   0  0  0  0  0  0  0  0  0  0  0  0
   -9.5907  -11.0392   13.0200 O   0  0  0  0  0  0  0  0  0  0  0  0
  -11.6723  -12.2779   15.0417 H   0  0  0  0  0  0  0  0  0  0  0  0
   -9.8354  -13.3578   13.7457 C   0  0  1  0  0  0  0  0  0  0  0  0
  -10.8939  -14.0565   13.2159 F   0  0  0  0  0  0  0  0  0  0  0  0
   -8.5663  -13.7094   12.9626 C   0  0  0  0  0  0  0  0  0  0  0  0
   -7.9007  -14.7883   13.7167 N   0  0  0  0  0  0  0  0  0  0  0  0
   -8.2027  -14.4563   15.1111 C   0  0  0  0  0  0  0  0  0  0  0  0
   -7.7860  -15.6254   16.0337 C   0  0  0  0  0  0  0  0  0  0  0  0
   -7.1507  -14.5671   16.9635 C   0  0  0  0  0  0  0  0  0  0  0  0
   -7.0288  -13.6465   15.7273 C   0  0  0  0  0  0  0  0  0  0  0  0
   -9.6055  -13.8866   15.1658 C   0  0  0  0  0  0  0  0  0  0  0  0
   -6.9149  -14.8387   13.4614 H   0  0  0  0  0  0  0  0  0  0  0  0
  -18.2792   -8.1782   13.8060 H   0  0  0  0  0  0  0  0  0  0  0  0
  -16.5311   -9.2805   15.0716 H   0  0  0  0  0  0  0  0  0  0  0  0
  -15.7453   -4.8966   13.1355 H   0  0  0  0  0  0  0  0  0  0  0  0
  -12.5226   -7.3602   13.5890 H   0  0  0  0  0  0  0  0  0  0  0  0
  -10.3325   -6.3612   13.8405 H   0  0  0  0  0  0  0  0  0  0  0  0
  -10.1312   -4.1806   14.8824 H   0  0  0  0  0  0  0  0  0  0  0  0
  -15.4087   -4.1500   14.7962 H   0  0  0  0  0  0  0  0  0  0  0  0
  -14.6166   -4.4796   17.6215 H   0  0  0  0  0  0  0  0  0  0  0  0
  -16.1358   -3.9571   17.4284 H   0  0  0  0  0  0  0  0  0  0  0  0
  -13.5265   -2.2798   17.4606 H   0  0  0  0  0  0  0  0  0  0  0  0
  -14.9230   -1.6164   17.9304 H   0  0  0  0  0  0  0  0  0  0  0  0
  -14.0863   -1.6181   15.1586 H   0  0  0  0  0  0  0  0  0  0  0  0
  -15.6909   -1.5552   15.3607 H   0  0  0  0  0  0  0  0  0  0  0  0
  -18.0525   -6.9355   10.7734 H   0  0  0  0  0  0  0  0  0  0  0  0
  -19.4133   -4.6315    9.2877 H   0  0  0  0  0  0  0  0  0  0  0  0
  -22.1010   -5.1183    8.5973 H   0  0  0  0  0  0  0  0  0  0  0  0
  -22.4383   -5.6530    9.9729 H   0  0  0  0  0  0  0  0  0  0  0  0
  -20.3812   -6.8996    7.9143 H   0  0  0  0  0  0  0  0  0  0  0  0
  -20.4227   -7.7406    9.1723 H   0  0  0  0  0  0  0  0  0  0  0  0
  -14.8577  -10.1486   15.6141 H   0  0  0  0  0  0  0  0  0  0  0  0
  -13.0415  -11.0479   16.9967 H   0  0  0  0  0  0  0  0  0  0  0  0
  -13.2288   -9.4815   17.6423 H   0  0  0  0  0  0  0  0  0  0  0  0
  -10.8346  -10.1604   16.7735 H   0  0  0  0  0  0  0  0  0  0  0  0
  -11.3764   -8.6154   16.2880 H   0  0  0  0  0  0  0  0  0  0  0  0
  -11.0125   -9.5564   14.1337 H   0  0  0  0  0  0  0  0  0  0  0  0
  -13.4303  -11.0558   13.9942 H   0  0  0  0  0  0  0  0  0  0  0  0
  -13.2432   -9.4059   13.5280 H   0  0  0  0  0  0  0  0  0  0  0  0
   -7.9251  -12.8556   12.8933 H   0  0  0  0  0  0  0  0  0  0  0  0
   -8.7979  -14.0179   11.9645 H   0  0  0  0  0  0  0  0  0  0  0  0
   -7.0913  -16.3129   15.5983 H   0  0  0  0  0  0  0  0  0  0  0  0
   -8.4951  -16.3411   16.3940 H   0  0  0  0  0  0  0  0  0  0  0  0
   -6.2164  -14.8577   17.3966 H   0  0  0  0  0  0  0  0  0  0  0  0
   -7.6371  -14.2425   17.8596 H   0  0  0  0  0  0  0  0  0  0  0  0
   -6.1023  -13.7270   15.1981 H   0  0  0  0  0  0  0  0  0  0  0  0
   -7.0569  -12.5800   15.8093 H   0  0  0  0  0  0  0  0  0  0  0  0
   -9.6687  -13.0951   15.8831 H   0  0  0  0  0  0  0  0  0  0  0  0
  -10.3363  -14.6091   15.4638 H   0  0  0  0  0  0  0  0  0  0  0  0
  1  2  2  0
  2  3  1  0
  2 50  1  0
  3  4  2  0
  3 51  1  0
  4 30  1  0
  4  5  1  0
  5  7  1  0
  5  6  2  0
  6  1  1  0
  6 52  1  0
  7  8  2  0
  8  9  1  0
  8 53  1  0
  9 10  2  0
  9 54  1  0
 10 11  1  0
 10 55  1  0
 11 12  1  0
 11 13  2  0
 13 14  1  0
 13  7  1  0
 14 15  1  0
 14 56  1  0
 15 16  1  0
 15 57  1  0
 15 58  1  0
 16 17  1  0
 16 59  1  0
 16 60  1  0
 17 14  1  0
 17 61  1  0
 17 62  1  0
 18 19  2  0
 19 20  1  0
 20 27  1  0
 20 21  1  0
 21 22  2  0
 21 63  1  0
 22  1  1  0
 22 18  1  0
 23 24  2  0
 24 25  1  0
 24 18  1  0
 25 26  1  0
 27 28  1  0
 27 64  1  0
 28 29  1  0
 28 65  1  0
 28 66  1  0
 29 27  1  0
 29 67  1  0
 29 68  1  0
 30 31  1  0
 31 32  1  0
 31 69  1  1
 32 33  1  0
 32 70  1  0
 32 71  1  0
 33 34  1  0
 33 72  1  0
 33 73  1  0
 34 36  1  0
 34 35  1  0
 34 74  1  6
 35 31  1  0
 35 75  1  0
 35 76  1  0
 36 37  1  0
 36 39  1  0
 37 38  2  0
 37 40  1  0
 40 41  1  6
 40 42  1  0
 42 43  1  0
 42 77  1  0
 42 78  1  0
 43 44  1  0
 43 49  1  0
 44 45  1  0
 44 48  1  0
 45 46  1  0
 45 79  1  0
 45 80  1  0
 46 47  1  0
 46 81  1  0
 46 82  1  0
 47 44  1  0
 47 83  1  0
 47 84  1  0
 48 40  1  0
 48 85  1  0
 48 86  1  0
M  END
>  <minimizedAffinity>  (9) 
-7.92155

>  <mol_id>  (9) 
125008

>  <source_index>  (9) 
8

>  <layer>  (9) 
L3

>  <uniprot>  (9) 
Q92830

>  <paff>  (9) 
10.0969

>  <smiles>  (9) 
O=C(O)c1nn(C2CC2)cc1-c1ccc(O[C@@H]2CC[C@@H](NC(=O)[C@@]3(F)CNC4(CCC4)C3)C2)c(-c2cccc(F)c2C2CCC2)c1

$$$$
L3:Q92830:127198
     RDKit          3D

 83 87  0  0  0  0  0  0  0  0999 V2000
  -12.2188   -5.8116   14.9417 C   0  0  0  0  0  0  0  0  0  0  0  0
  -11.1108   -5.0150   14.6486 C   0  0  0  0  0  0  0  0  0  0  0  0
   -9.9341   -5.5918   14.1688 C   0  0  0  0  0  0  0  0  0  0  0  0
   -9.8362   -6.9782   13.9581 C   0  0  0  0  0  0  0  0  0  0  0  0
  -10.9838   -7.7550   14.2084 C   0  0  0  0  0  0  0  0  0  0  0  0
  -12.1908   -7.1936   14.6858 C   0  0  0  0  0  0  0  0  0  0  0  0
  -13.3599   -8.0806   14.8672 C   0  0  0  0  0  0  0  0  0  0  0  0
  -14.0805   -8.4655   13.7109 C   0  0  0  0  0  0  0  0  0  0  0  0
  -15.1856   -9.3068   13.7894 C   0  0  0  0  0  0  0  0  0  0  0  0
  -15.5932   -9.7697   15.0299 C   0  0  0  0  0  0  0  0  0  0  0  0
  -14.8957   -9.3865   16.1767 C   0  0  0  0  0  0  0  0  0  0  0  0
  -15.3418   -9.8685   17.3474 F   0  0  0  0  0  0  0  0  0  0  0  0
  -13.7690   -8.5339   16.1574 C   0  0  0  0  0  0  0  0  0  0  0  0
  -13.0041   -8.1055   17.5090 C   0  0  0  0  0  0  0  0  0  0  0  0
  -11.7668   -8.9379   17.9383 C   0  0  0  0  0  0  0  0  0  0  0  0
  -12.5938   -9.5422   19.0830 C   0  0  0  0  0  0  0  0  0  0  0  0
  -13.6219   -8.4167   18.8976 C   0  0  0  0  0  0  0  0  0  0  0  0
   -8.5229   -7.5835   13.4333 C   0  0  0  0  0  0  0  0  0  0  0  0
   -8.7074   -8.7619   12.4529 C   0  0  0  0  0  0  0  0  0  0  0  0
   -7.7413   -6.4801   12.6873 C   0  0  0  0  0  0  0  0  0  0  0  0
   -7.6604   -8.1043   14.5935 C   0  0  0  0  0  0  0  0  0  0  0  0
   -7.6161   -7.6599   15.7311 O   0  0  0  0  0  0  0  0  0  0  0  0
   -6.9106   -9.1815   14.2701 O   0  0  0  0  0  0  0  0  0  0  0  0
   -6.4640   -9.4221   15.1095 H   0  0  0  0  0  0  0  0  0  0  0  0
  -13.3255   -5.1386   15.3931 O   0  0  0  0  0  0  0  0  0  0  0  0
  -16.0904   -5.2911   14.1849 C   0  0  2  0  0  0  0  0  0  0  0  0
  -16.1228   -4.2825   15.3453 C   0  0  0  0  0  0  0  0  0  0  0  0
  -14.9138   -3.3712   15.1382 C   0  0  0  0  0  0  0  0  0  0  0  0
  -13.9049   -4.2611   14.4151 C   0  0  2  0  0  0  0  0  0  0  0  0
  -14.7990   -4.9874   13.4111 C   0  0  0  0  0  0  0  0  0  0  0  0
  -18.1662   -6.2270   13.2112 C   0  0  0  0  0  0  0  0  0  0  0  0
  -17.9708   -7.3601   13.6415 O   0  0  0  0  0  0  0  0  0  0  0  0
  -17.2678   -5.1853   13.3452 N   0  0  0  0  0  0  0  0  0  0  0  0
  -17.7152   -4.2775   13.2252 H   0  0  0  0  0  0  0  0  0  0  0  0
  -20.0604   -2.5633   12.9545 H   0  0  0  0  0  0  0  0  0  0  0  0
  -20.0234   -3.6277   13.2137 C   0  0  0  0  0  0  0  0  0  0  0  0
  -19.4012   -3.7156   14.1128 H   0  0  0  0  0  0  0  0  0  0  0  0
  -21.0390   -3.9555   13.4653 H   0  0  0  0  0  0  0  0  0  0  0  0
  -19.4468   -4.3958   12.1137 N   0  0  0  0  0  0  0  0  0  0  0  0
  -20.2445   -4.2771   10.8879 C   0  0  0  0  0  0  0  0  0  0  0  0
  -19.6777   -5.3999   10.0096 C   0  0  0  0  0  0  0  0  0  0  0  0
  -20.6752   -5.8226    8.9257 C   0  0  0  0  0  0  0  0  0  0  0  0
  -18.3589   -4.9725    9.3365 C   0  0  0  0  0  0  0  0  0  0  0  0
  -19.4218   -6.5290   11.0273 C   0  0  0  0  0  0  0  0  0  0  0  0
  -19.4212   -5.8562   12.4079 C   0  0  1  0  0  0  0  0  0  0  0  0
  -11.1620   -3.9937   14.7875 H   0  0  0  0  0  0  0  0  0  0  0  0
   -9.1211   -4.9897   13.9650 H   0  0  0  0  0  0  0  0  0  0  0  0
  -10.9425   -8.7718   14.0371 H   0  0  0  0  0  0  0  0  0  0  0  0
  -13.7790   -8.1139   12.7887 H   0  0  0  0  0  0  0  0  0  0  0  0
  -15.6949   -9.5824   12.9352 H   0  0  0  0  0  0  0  0  0  0  0  0
  -16.4100  -10.3959   15.1059 H   0  0  0  0  0  0  0  0  0  0  0  0
  -12.9277   -7.0925   17.1729 H   0  0  0  0  0  0  0  0  0  0  0  0
  -10.9326   -8.3507   18.2612 H   0  0  0  0  0  0  0  0  0  0  0  0
  -11.2605   -9.5677   17.2369 H   0  0  0  0  0  0  0  0  0  0  0  0
  -12.1013   -9.5371   20.0329 H   0  0  0  0  0  0  0  0  0  0  0  0
  -12.8928  -10.5694   19.0632 H   0  0  0  0  0  0  0  0  0  0  0  0
  -13.5336   -7.6199   19.6063 H   0  0  0  0  0  0  0  0  0  0  0  0
  -14.6693   -8.6101   18.9996 H   0  0  0  0  0  0  0  0  0  0  0  0
   -9.3051   -8.4457   11.6236 H   0  0  0  0  0  0  0  0  0  0  0  0
   -9.1945   -9.5712   12.9556 H   0  0  0  0  0  0  0  0  0  0  0  0
   -7.7505   -9.0855   12.1001 H   0  0  0  0  0  0  0  0  0  0  0  0
   -8.3332   -6.1099   11.8765 H   0  0  0  0  0  0  0  0  0  0  0  0
   -6.8277   -6.8860   12.3058 H   0  0  0  0  0  0  0  0  0  0  0  0
   -7.5214   -5.6800   13.3628 H   0  0  0  0  0  0  0  0  0  0  0  0
  -16.0989   -6.2996   14.5423 H   0  0  0  0  0  0  0  0  0  0  0  0
  -16.0494   -4.7915   16.2836 H   0  0  0  0  0  0  0  0  0  0  0  0
  -17.0372   -3.7269   15.3590 H   0  0  0  0  0  0  0  0  0  0  0  0
  -14.5233   -3.0372   16.0767 H   0  0  0  0  0  0  0  0  0  0  0  0
  -15.1532   -2.4857   14.5874 H   0  0  0  0  0  0  0  0  0  0  0  0
  -13.0858   -3.7712   13.9313 H   0  0  0  0  0  0  0  0  0  0  0  0
  -14.3358   -5.8934   13.0802 H   0  0  0  0  0  0  0  0  0  0  0  0
  -14.9813   -4.4015   12.5345 H   0  0  0  0  0  0  0  0  0  0  0  0
  -20.1068   -3.3206   10.4286 H   0  0  0  0  0  0  0  0  0  0  0  0
  -21.2980   -4.3592   11.0562 H   0  0  0  0  0  0  0  0  0  0  0  0
  -20.8239   -5.0127    8.2424 H   0  0  0  0  0  0  0  0  0  0  0  0
  -21.6084   -6.0810    9.3810 H   0  0  0  0  0  0  0  0  0  0  0  0
  -20.2898   -6.6692    8.3969 H   0  0  0  0  0  0  0  0  0  0  0  0
  -18.5544   -4.1893    8.6342 H   0  0  0  0  0  0  0  0  0  0  0  0
  -17.9309   -5.8102    8.8266 H   0  0  0  0  0  0  0  0  0  0  0  0
  -17.6757   -4.6213   10.0814 H   0  0  0  0  0  0  0  0  0  0  0  0
  -18.4764   -6.9933   10.8387 H   0  0  0  0  0  0  0  0  0  0  0  0
  -20.1672   -7.2939   10.9624 H   0  0  0  0  0  0  0  0  0  0  0  0
  -20.2529   -6.1688   13.0041 H   0  0  0  0  0  0  0  0  0  0  0  0
  1  2  2  0
  2  3  1  0
  2 46  1  0
  3  4  2  0
  3 47  1  0
  4 18  1  0
  4  5  1  0
  5  6  2  0
  5 48  1  0
  6  7  1  0
  6  1  1  0
  7  8  2  0
  8  9  1  0
  8 49  1  0
  9 10  2  0
  9 50  1  0
 10 11  1  0
 10 51  1  0
 11 12  1  0
 11 13  2  0
 13 14  1  0
 13  7  1  0
 14 15  1  0
 14 52  1  0
 15 16  1  0
 15 53  1  0
 15 54  1  0
 16 17  1  0
 16 55  1  0
 16 56  1  0
 17 14  1  0
 17 57  1  0
 17 58  1  0
 18 19  1  0
 18 20  1  0
 18 21  1  0
 19 59  1  0
 19 60  1  0
 19 61  1  0
 20 62  1  0
 20 63  1  0
 20 64  1  0
 21 22  2  0
 21 23  1  0
 23 24  1  0
 25  1  1  0
 26 27  1  0
 26 65  1  1
 27 28  1  0
 27 66  1  0
 27 67  1  0
 28 29  1  0
 28 68  1  0
 28 69  1  0
 29 25  1  0
 29 30  1  0
 29 70  1  6
 30 26  1  0
 30 71  1  0
 30 72  1  0
 31 32  2  0
 31 33  1  0
 33 26  1  0
 33 34  1  0
 35 36  1  0
 36 37  1  0
 36 38  1  0
 36 39  1  0
 39 40  1  0
 40 41  1  0
 40 73  1  0
 40 74  1  0
 41 42  1  0
 41 43  1  0
 41 44  1  0
 42 75  1  0
 42 76  1  0
 42 77  1  0
 43 78  1  0
 43 79  1  0
 43 80  1  0
 44 45  1  0
 44 81  1  0
 44 82  1  0
 45 31  1  0
 45 39  1  0
 45 83  1  1
M  ISO  3  35   2  37   2  38   2
M  END
>  <minimizedAffinity>  (10) 
-7.09901

>  <mol_id>  (10) 
127198

>  <source_index>  (10) 
9

>  <layer>  (10) 
L3

>  <uniprot>  (10) 
Q92830

>  <paff>  (10) 
8.0520999999999994

>  <smiles>  (10) 
[2H]C([2H])([2H])N1CC(C)(C)C[C@H]1C(=O)N[C@@H]1CC[C@@H](Oc2ccc(C(C)(C)C(=O)O)cc2-c2cccc(F)c2C2CCC2)C1

$$$$
