L3:Q92830:12327
     RDKit          3D

 81 85  0  0  0  0  0  0  0  0999 V2000
  -20.2578  -12.3746    7.8250 C   0  0  0  0  0  0  0  0  0  0  0  0
  -20.6616  -13.4713    8.5947 C   0  0  0  0  0  0  0  0  0  0  0  0
  -21.4380  -14.4747    8.0270 C   0  0  0  0  0  0  0  0  0  0  0  0
  -21.8464  -14.3615    6.7013 C   0  0  0  0  0  0  0  0  0  0  0  0
  -21.4927  -13.2359    5.9328 C   0  0  0  0  0  0  0  0  0  0  0  0
  -20.6708  -12.2214    6.4792 C   0  0  0  0  0  0  0  0  0  0  0  0
  -20.2092  -11.0523    5.6932 C   0  0  0  0  0  0  0  0  0  0  0  0
  -20.9375   -9.8445    5.8133 C   0  0  0  0  0  0  0  0  0  0  0  0
  -20.5844   -8.7086    5.0928 C   0  0  0  0  0  0  0  0  0  0  0  0
  -19.4957   -8.7607    4.2394 C   0  0  0  0  0  0  0  0  0  0  0  0
  -18.7656   -9.9410    4.1221 C   0  0  0  0  0  0  0  0  0  0  0  0
  -17.7130   -9.9311    3.2895 F   0  0  0  0  0  0  0  0  0  0  0  0
  -19.0700  -11.1215    4.8364 C   0  0  0  0  0  0  0  0  0  0  0  0
  -18.1632  -12.4328    4.6760 C   0  0  0  0  0  0  0  0  0  0  0  0
  -16.6160  -12.2952    4.5611 C   0  0  0  0  0  0  0  0  0  0  0  0
  -16.6469  -13.5141    3.6178 C   0  0  0  0  0  0  0  0  0  0  0  0
  -18.1063  -13.1401    3.2916 C   0  0  0  0  0  0  0  0  0  0  0  0
  -22.0439  -13.2113    4.5502 C   0  0  0  0  0  0  0  0  0  0  0  0
  -21.5684  -13.9245    3.6805 O   0  0  0  0  0  0  0  0  0  0  0  0
  -23.1784  -12.4206    4.3551 N   0  0  0  0  0  0  0  0  0  0  0  0
  -23.6345  -11.9326    5.1193 H   0  0  0  0  0  0  0  0  0  0  0  0
  -23.8507  -12.0680    2.8835 S   0  0  0  0  0  0  0  0  0  0  0  0
  -24.6060  -13.6071    2.3996 C   0  0  0  0  0  0  0  0  0  0  0  0
  -24.9184  -11.1339    3.1762 O   0  0  0  0  0  0  0  0  0  0  0  0
  -22.8023  -11.7271    1.9510 O   0  0  0  0  0  0  0  0  0  0  0  0
  -19.5359  -11.3631    8.4115 O   0  0  0  0  0  0  0  0  0  0  0  0
  -19.4259   -8.7155    9.5773 C   0  0  2  0  0  0  0  0  0  0  0  0
  -20.9398   -8.8586    9.3723 C   0  0  0  0  0  0  0  0  0  0  0  0
  -21.2750  -10.3208    9.6838 C   0  0  0  0  0  0  0  0  0  0  0  0
  -19.9306  -11.0445    9.7540 C   0  0  2  0  0  0  0  0  0  0  0  0
  -19.0174   -9.9737   10.3398 C   0  0  0  0  0  0  0  0  0  0  0  0
  -19.4919   -6.2603    9.8330 C   0  0  0  0  0  0  0  0  0  0  0  0
  -20.2266   -6.1205    8.8584 O   0  0  0  0  0  0  0  0  0  0  0  0
  -19.0575   -7.5004   10.2704 N   0  0  0  0  0  0  0  0  0  0  0  0
  -18.4329   -7.5437   11.0654 H   0  0  0  0  0  0  0  0  0  0  0  0
  -21.2756   -4.4088   11.2003 C   0  0  0  0  0  0  0  0  0  0  0  0
  -19.9080   -4.5694   11.6663 N   0  0  0  0  0  0  0  0  0  0  0  0
  -19.8124   -5.4825   12.8083 C   0  0  0  0  0  0  0  0  0  0  0  0
  -18.2954   -5.6514   12.9740 C   0  0  0  0  0  0  0  0  0  0  0  0
  -17.7144   -4.5282   13.8524 C   0  0  0  0  0  0  0  0  0  0  0  0
  -17.9549   -7.0056   13.6006 C   0  0  0  0  0  0  0  0  0  0  0  0
  -17.7508   -5.5296   11.5330 C   0  0  0  0  0  0  0  0  0  0  0  0
  -18.9401   -5.0830   10.6711 C   0  0  1  0  0  0  0  0  0  0  0  0
  -20.3823  -13.5352    9.5861 H   0  0  0  0  0  0  0  0  0  0  0  0
  -21.7101  -15.2989    8.5853 H   0  0  0  0  0  0  0  0  0  0  0  0
  -22.4148  -15.1110    6.2768 H   0  0  0  0  0  0  0  0  0  0  0  0
  -21.7488   -9.8060    6.4499 H   0  0  0  0  0  0  0  0  0  0  0  0
  -21.1277   -7.8370    5.1932 H   0  0  0  0  0  0  0  0  0  0  0  0
  -19.2261   -7.9283    3.6922 H   0  0  0  0  0  0  0  0  0  0  0  0
  -18.6231  -12.8808    5.5319 H   0  0  0  0  0  0  0  0  0  0  0  0
  -16.0846  -12.4524    5.4764 H   0  0  0  0  0  0  0  0  0  0  0  0
  -16.1520  -11.3741    4.2762 H   0  0  0  0  0  0  0  0  0  0  0  0
  -16.5267  -14.4589    4.1055 H   0  0  0  0  0  0  0  0  0  0  0  0
  -15.9153  -13.6491    2.8488 H   0  0  0  0  0  0  0  0  0  0  0  0
  -18.7685  -13.9743    3.1892 H   0  0  0  0  0  0  0  0  0  0  0  0
  -18.3680  -12.6302    2.3880 H   0  0  0  0  0  0  0  0  0  0  0  0
  -25.3822  -13.8568    3.0924 H   0  0  0  0  0  0  0  0  0  0  0  0
  -23.8676  -14.3815    2.3970 H   0  0  0  0  0  0  0  0  0  0  0  0
  -25.0218  -13.5075    1.4188 H   0  0  0  0  0  0  0  0  0  0  0  0
  -18.9121   -8.6300    8.6426 H   0  0  0  0  0  0  0  0  0  0  0  0
  -21.2013   -8.6250    8.3614 H   0  0  0  0  0  0  0  0  0  0  0  0
  -21.4847   -8.1895   10.0050 H   0  0  0  0  0  0  0  0  0  0  0  0
  -21.8837  -10.7378    8.9088 H   0  0  0  0  0  0  0  0  0  0  0  0
  -21.8238  -10.4153   10.5975 H   0  0  0  0  0  0  0  0  0  0  0  0
  -19.9254  -11.9515   10.3217 H   0  0  0  0  0  0  0  0  0  0  0  0
  -17.9882  -10.2102   10.1674 H   0  0  0  0  0  0  0  0  0  0  0  0
  -19.1141   -9.8727   11.4006 H   0  0  0  0  0  0  0  0  0  0  0  0
  -21.8825   -4.0343   11.9980 H   0  0  0  0  0  0  0  0  0  0  0  0
  -21.6557   -5.3553   10.8770 H   0  0  0  0  0  0  0  0  0  0  0  0
  -21.2952   -3.7185   10.3829 H   0  0  0  0  0  0  0  0  0  0  0  0
  -20.2845   -6.4187   12.5952 H   0  0  0  0  0  0  0  0  0  0  0  0
  -20.2991   -5.1168   13.6882 H   0  0  0  0  0  0  0  0  0  0  0  0
  -18.0964   -4.6200   14.8477 H   0  0  0  0  0  0  0  0  0  0  0  0
  -17.9956   -3.5780   13.4487 H   0  0  0  0  0  0  0  0  0  0  0  0
  -16.6474   -4.6060   13.8713 H   0  0  0  0  0  0  0  0  0  0  0  0
  -18.3490   -7.0479   14.5945 H   0  0  0  0  0  0  0  0  0  0  0  0
  -16.8923   -7.1266   13.6328 H   0  0  0  0  0  0  0  0  0  0  0  0
  -18.3854   -7.7890   13.0125 H   0  0  0  0  0  0  0  0  0  0  0  0
  -17.3794   -6.4742   11.1942 H   0  0  0  0  0  0  0  0  0  0  0  0
  -16.9406   -4.8330   11.4764 H   0  0  0  0  0  0  0  0  0  0  0  0
  -18.6916   -4.3403    9.9421 H   0  0  0  0  0  0  0  0  0  0  0  0
  1  2  2  0
  2  3  1  0
  2 44  1  0
  3  4  2  0
  3 45  1  0
  4  5  1  0
  4 46  1  0
  5 18  1  0
  5  6  2  0
  6  7  1  0
  6  1  1  0
  7  8  2  0
  8  9  1  0
  8 47  1  0
  9 10  2  0
  9 48  1  0
 10 11  1  0
 10 49  1  0
 11 12  1  0
 11 13  2  0
 13 14  1  0
 13  7  1  0
 14 15  1  0
 14 50  1  0
 15 16  1  0
 15 51  1  0
 15 52  1  0
 16 17  1  0
 16 53  1  0
 16 54  1  0
 17 14  1  0
 17 55  1  0
 17 56  1  0
 18 19  2  0
 18 20  1  0
 20 22  1  0
 20 21  1  0
 22 23  1  0
 22 24  2  0
 22 25  2  0
 23 57  1  0
 23 58  1  0
 23 59  1  0
 26  1  1  0
 27 28  1  0
 27 60  1  6
 28 29  1  0
 28 61  1  0
 28 62  1  0
 29 30  1  0
 29 63  1  0
 29 64  1  0
 30 26  1  0
 30 31  1  0
 30 65  1  1
 31 27  1  0
 31 66  1  0
 31 67  1  0
 32 33  2  0
 32 34  1  0
 34 27  1  0
 34 35  1  0
 36 37  1  0
 36 68  1  0
 36 69  1  0
 36 70  1  0
 37 38  1  0
 38 39  1  0
 38 71  1  0
 38 72  1  0
 39 40  1  0
 39 41  1  0
 39 42  1  0
 40 73  1  0
 40 74  1  0
 40 75  1  0
 41 76  1  0
 41 77  1  0
 41 78  1  0
 42 43  1  0
 42 79  1  0
 42 80  1  0
 43 32  1  0
 43 37  1  0
 43 81  1  6
M  END
>  <minimizedAffinity>  (1) 
-7.28242

>  <mol_id>  (1) 
12327

>  <source_index>  (1) 
0

>  <layer>  (1) 
L3

>  <uniprot>  (1) 
Q92830

>  <paff>  (1) 
7.6108000000000002

>  <smiles>  (1) 
CN1CC(C)(C)C[C@H]1C(=O)N[C@@H]1CC[C@@H](Oc2cccc(C(=O)NS(C)(=O)=O)c2-c2cccc(F)c2C2CCC2)C1

$$$$
L3:Q92830:23850
     RDKit          3D

 87 91  0  0  0  0  0  0  0  0999 V2000
  -17.7546  -14.7837    5.7359 C   0  0  0  0  0  0  0  0  0  0  0  0
  -17.7477  -15.1669    7.0824 C   0  0  0  0  0  0  0  0  0  0  0  0
  -18.5794  -14.5301    8.0054 C   0  0  0  0  0  0  0  0  0  0  0  0
  -19.4250  -13.4937    7.6004 C   0  0  0  0  0  0  0  0  0  0  0  0
  -19.4911  -13.1252    6.2420 C   0  0  0  0  0  0  0  0  0  0  0  0
  -18.6225  -13.7573    5.3326 C   0  0  0  0  0  0  0  0  0  0  0  0
  -20.3834  -12.0585    5.7546 C   0  0  0  0  0  0  0  0  0  0  0  0
  -19.8065  -10.7805    5.5790 C   0  0  0  0  0  0  0  0  0  0  0  0
  -20.5453   -9.6937    5.1160 C   0  0  0  0  0  0  0  0  0  0  0  0
  -21.8830   -9.8630    4.8007 C   0  0  0  0  0  0  0  0  0  0  0  0
  -22.4741  -11.1174    4.9502 C   0  0  0  0  0  0  0  0  0  0  0  0
  -21.7506  -12.2365    5.4289 C   0  0  0  0  0  0  0  0  0  0  0  0
  -22.5312  -13.5482    5.5101 C   0  0  0  0  0  0  0  0  0  0  0  0
  -23.4743  -13.8373    4.3423 C   0  0  0  0  0  0  0  0  0  0  0  0
  -23.2491  -13.7015    6.8531 C   0  0  0  0  0  0  0  0  0  0  0  0
  -16.8839  -15.4898    4.7081 C   0  0  1  0  0  0  0  0  0  0  0  0
  -17.7352  -16.1125    3.6002 C   0  0  0  0  0  0  0  0  0  0  0  0
  -14.8986  -14.0583    5.0949 N   0  0  0  0  0  0  0  0  0  0  0  0
  -15.8014  -14.5647    4.1376 C   0  0  0  0  0  0  0  0  0  0  0  0
  -15.6868  -14.3345    2.9419 O   0  0  0  0  0  0  0  0  0  0  0  0
  -15.0673  -14.2429    6.0819 H   0  0  0  0  0  0  0  0  0  0  0  0
  -13.9122  -12.7452    4.8855 S   0  0  0  0  0  0  0  0  0  0  0  0
  -14.6022  -11.7273    4.1287 O   0  0  0  0  0  0  0  0  0  0  0  0
  -13.4204  -12.4557    6.2184 O   0  0  0  0  0  0  0  0  0  0  0  0
  -11.5340  -14.1812    4.7555 C   0  0  0  0  0  0  0  0  0  0  0  0
  -12.5260  -13.3762    3.9478 C   0  0  0  0  0  0  0  0  0  0  0  0
  -20.2907  -12.8845    8.4737 O   0  0  0  0  0  0  0  0  0  0  0  0
  -19.6858  -12.1086    9.5143 C   0  0  2  0  0  0  0  0  0  0  0  0
  -20.7236  -11.9203   10.6191 C   0  0  0  0  0  0  0  0  0  0  0  0
  -21.6616  -10.8395   10.0842 C   0  0  0  0  0  0  0  0  0  0  0  0
  -20.8340  -10.0290    9.0781 C   0  0  2  0  0  0  0  0  0  0  0  0
  -19.4425  -10.6730    9.0615 C   0  0  0  0  0  0  0  0  0  0  0  0
  -20.7712   -8.6205    9.4158 N   0  0  0  0  0  0  0  0  0  0  0  0
  -21.3804   -7.6500    8.6388 C   0  0  0  0  0  0  0  0  0  0  0  0
  -22.0197   -7.9063    7.6231 O   0  0  0  0  0  0  0  0  0  0  0  0
  -20.1757   -8.3097   10.1770 H   0  0  0  0  0  0  0  0  0  0  0  0
  -21.2186   -6.2449    9.2125 C   0  0  1  0  0  0  0  0  0  0  0  0
  -20.1539   -5.5980    8.6351 F   0  0  0  0  0  0  0  0  0  0  0  0
  -22.4665   -5.3759    9.0760 C   0  0  0  0  0  0  0  0  0  0  0  0
  -22.4617   -4.4092   10.2001 N   0  0  0  0  0  0  0  0  0  0  0  0
  -21.3985   -4.8788   11.1143 C   0  0  0  0  0  0  0  0  0  0  0  0
  -20.3199   -3.7707   11.2551 C   0  0  0  0  0  0  0  0  0  0  0  0
  -21.1253   -3.1979   12.4408 C   0  0  0  0  0  0  0  0  0  0  0  0
  -21.8128   -4.5740   12.5724 C   0  0  0  0  0  0  0  0  0  0  0  0
  -20.9839   -6.2737   10.7116 C   0  0  0  0  0  0  0  0  0  0  0  0
  -22.3280   -3.4683    9.8279 H   0  0  0  0  0  0  0  0  0  0  0  0
  -17.1228  -15.9262    7.3952 H   0  0  0  0  0  0  0  0  0  0  0  0
  -18.5697  -14.8268    8.9938 H   0  0  0  0  0  0  0  0  0  0  0  0
  -18.6239  -13.4586    4.3448 H   0  0  0  0  0  0  0  0  0  0  0  0
  -18.8073  -10.6481    5.8005 H   0  0  0  0  0  0  0  0  0  0  0  0
  -20.0989   -8.7694    5.0088 H   0  0  0  0  0  0  0  0  0  0  0  0
  -22.4398   -9.0650    4.4568 H   0  0  0  0  0  0  0  0  0  0  0  0
  -23.4696  -11.2335    4.7043 H   0  0  0  0  0  0  0  0  0  0  0  0
  -21.7724  -14.2984    5.4304 H   0  0  0  0  0  0  0  0  0  0  0  0
  -24.2734  -13.1258    4.3447 H   0  0  0  0  0  0  0  0  0  0  0  0
  -23.8751  -14.8242    4.4435 H   0  0  0  0  0  0  0  0  0  0  0  0
  -22.9344  -13.7643    3.4214 H   0  0  0  0  0  0  0  0  0  0  0  0
  -24.0094  -12.9535    6.9385 H   0  0  0  0  0  0  0  0  0  0  0  0
  -22.5441  -13.5860    7.6496 H   0  0  0  0  0  0  0  0  0  0  0  0
  -23.6957  -14.6722    6.9101 H   0  0  0  0  0  0  0  0  0  0  0  0
  -16.3749  -16.2837    5.2136 H   0  0  0  0  0  0  0  0  0  0  0  0
  -18.2579  -15.3403    3.0754 H   0  0  0  0  0  0  0  0  0  0  0  0
  -18.4410  -16.7913    4.0316 H   0  0  0  0  0  0  0  0  0  0  0  0
  -17.1022  -16.6415    2.9187 H   0  0  0  0  0  0  0  0  0  0  0  0
  -10.7432  -14.5165    4.1175 H   0  0  0  0  0  0  0  0  0  0  0  0
  -12.0277  -15.0271    5.1863 H   0  0  0  0  0  0  0  0  0  0  0  0
  -11.1288  -13.5698    5.5346 H   0  0  0  0  0  0  0  0  0  0  0  0
  -12.9076  -14.0020    3.1683 H   0  0  0  0  0  0  0  0  0  0  0  0
  -11.9956  -12.5230    3.5794 H   0  0  0  0  0  0  0  0  0  0  0  0
  -18.7846  -12.6088    9.8015 H   0  0  0  0  0  0  0  0  0  0  0  0
  -20.2559  -11.5996   11.5265 H   0  0  0  0  0  0  0  0  0  0  0  0
  -21.2400  -12.8284   10.8507 H   0  0  0  0  0  0  0  0  0  0  0  0
  -21.9989  -10.2108   10.8816 H   0  0  0  0  0  0  0  0  0  0  0  0
  -22.5316  -11.2634    9.6279 H   0  0  0  0  0  0  0  0  0  0  0  0
  -21.2879  -10.0547    8.1095 H   0  0  0  0  0  0  0  0  0  0  0  0
  -18.7836  -10.1690    9.7373 H   0  0  0  0  0  0  0  0  0  0  0  0
  -18.9798  -10.6213    8.0981 H   0  0  0  0  0  0  0  0  0  0  0  0
  -23.3438   -5.9866    9.1231 H   0  0  0  0  0  0  0  0  0  0  0  0
  -22.4672   -4.8623    8.1373 H   0  0  0  0  0  0  0  0  0  0  0  0
  -20.2455   -3.1154   10.4125 H   0  0  0  0  0  0  0  0  0  0  0  0
  -19.2829   -4.0147   11.3546 H   0  0  0  0  0  0  0  0  0  0  0  0
  -21.7843   -2.3952   12.1834 H   0  0  0  0  0  0  0  0  0  0  0  0
  -20.6386   -2.7357   13.2741 H   0  0  0  0  0  0  0  0  0  0  0  0
  -22.8699   -4.5266   12.7309 H   0  0  0  0  0  0  0  0  0  0  0  0
  -21.5640   -5.2429   13.3696 H   0  0  0  0  0  0  0  0  0  0  0  0
  -21.5926   -7.0140   11.1874 H   0  0  0  0  0  0  0  0  0  0  0  0
  -19.9817   -6.5257   10.9892 H   0  0  0  0  0  0  0  0  0  0  0  0
  1  2  2  0
  2  3  1  0
  2 47  1  0
  3  4  2  0
  3 48  1  0
  4 27  1  0
  4  5  1  0
  5  7  1  0
  5  6  2  0
  6  1  1  0
  6 49  1  0
  7  8  2  0
  8  9  1  0
  8 50  1  0
  9 10  2  0
  9 51  1  0
 10 11  1  0
 10 52  1  0
 11 12  2  0
 11 53  1  0
 12 13  1  0
 12  7  1  0
 13 14  1  0
 13 15  1  0
 13 54  1  0
 14 55  1  0
 14 56  1  0
 14 57  1  0
 15 58  1  0
 15 59  1  0
 15 60  1  0
 16 17  1  0
 16  1  1  0
 16 61  1  1
 17 62  1  0
 17 63  1  0
 17 64  1  0
 18 19  1  0
 18 21  1  0
 19 20  2  0
 19 16  1  0
 22 23  2  0
 22 24  2  0
 22 18  1  0
 25 26  1  0
 25 65  1  0
 25 66  1  0
 25 67  1  0
 26 22  1  0
 26 68  1  0
 26 69  1  0
 27 28  1  0
 28 29  1  0
 28 70  1  1
 29 30  1  0
 29 71  1  0
 29 72  1  0
 30 31  1  0
 30 73  1  0
 30 74  1  0
 31 33  1  0
 31 32  1  0
 31 75  1  6
 32 28  1  0
 32 76  1  0
 32 77  1  0
 33 34  1  0
 33 36  1  0
 34 35  2  0
 34 37  1  0
 37 38  1  6
 37 39  1  0
 39 40  1  0
 39 78  1  0
 39 79  1  0
 40 41  1  0
 40 46  1  0
 41 42  1  0
 41 45  1  0
 42 43  1  0
 42 80  1  0
 42 81  1  0
 43 44  1  0
 43 82  1  0
 43 83  1  0
 44 41  1  0
 44 84  1  0
 44 85  1  0
 45 37  1  0
 45 86  1  0
 45 87  1  0
M  END
>  <minimizedAffinity>  (2) 
-7.44383

>  <mol_id>  (2) 
23850

>  <source_index>  (2) 
1

>  <layer>  (2) 
L3

>  <uniprot>  (2) 
Q92830

>  <paff>  (2) 
9.6777999999999995

>  <smiles>  (2) 
CCS(=O)(=O)NC(=O)[C@H](C)c1ccc(O[C@@H]2CC[C@@H](NC(=O)[C@@]3(F)CNC4(CCC4)C3)C2)c(-c2ccccc2C(C)C)c1

$$$$
L3:Q92830:30945
     RDKit          3D

 96100  0  0  0  0  0  0  0  0999 V2000
  -21.2346  -11.1118    9.5014 C   0  0  0  0  0  0  0  0  0  0  0  0
  -21.9424  -10.7828   10.6697 C   0  0  0  0  0  0  0  0  0  0  0  0
  -22.9215  -11.6322   11.1942 C   0  0  0  0  0  0  0  0  0  0  0  0
  -23.2325  -12.8352   10.5603 C   0  0  0  0  0  0  0  0  0  0  0  0
  -22.5341  -13.1998    9.3903 C   0  0  0  0  0  0  0  0  0  0  0  0
  -21.5337  -12.3379    8.8898 C   0  0  0  0  0  0  0  0  0  0  0  0
  -22.8285  -14.4497    8.6583 C   0  0  0  0  0  0  0  0  0  0  0  0
  -23.7308  -14.3935    7.5728 C   0  0  0  0  0  0  0  0  0  0  0  0
  -24.0874  -15.5382    6.8664 C   0  0  0  0  0  0  0  0  0  0  0  0
  -23.5539  -16.7595    7.2447 C   0  0  0  0  0  0  0  0  0  0  0  0
  -22.6608  -16.8224    8.3133 C   0  0  0  0  0  0  0  0  0  0  0  0
  -22.1946  -18.0339    8.6536 F   0  0  0  0  0  0  0  0  0  0  0  0
  -22.2457  -15.6910    9.0478 C   0  0  0  0  0  0  0  0  0  0  0  0
  -21.2080  -15.8268   10.2595 C   0  0  0  0  0  0  0  0  0  0  0  0
  -21.4346  -16.9080   11.3631 C   0  0  0  0  0  0  0  0  0  0  0  0
  -19.9033  -17.0119   11.4800 C   0  0  0  0  0  0  0  0  0  0  0  0
  -19.8439  -16.5464   10.0140 C   0  0  0  0  0  0  0  0  0  0  0  0
  -20.2101  -10.1173    8.9256 C   0  0  0  0  0  0  0  0  0  0  0  0
  -19.5028  -10.5981    7.6411 C   0  0  0  0  0  0  0  0  0  0  0  0
  -19.1220   -9.8578    9.9885 C   0  0  0  0  0  0  0  0  0  0  0  0
  -20.9056   -7.8030    9.5654 N   0  0  0  0  0  0  0  0  0  0  0  0
  -20.9002   -8.7832    8.5527 C   0  0  0  0  0  0  0  0  0  0  0  0
  -21.4572   -8.5947    7.4790 O   0  0  0  0  0  0  0  0  0  0  0  0
  -20.4538   -7.9850   10.4588 H   0  0  0  0  0  0  0  0  0  0  0  0
  -21.0942   -6.1815    9.2829 S   0  0  0  0  0  0  0  0  0  0  0  0
  -22.4781   -5.9515    8.9314 O   0  0  0  0  0  0  0  0  0  0  0  0
  -20.0386   -5.8494    8.3478 O   0  0  0  0  0  0  0  0  0  0  0  0
  -21.8210   -4.4100   11.2286 C   0  0  0  0  0  0  0  0  0  0  0  0
  -20.7219   -5.4088   10.8756 C   0  0  0  0  0  0  0  0  0  0  0  0
  -19.3573   -4.7291   10.8640 C   0  0  0  0  0  0  0  0  0  0  0  0
  -24.1839  -13.7204   10.9954 O   0  0  0  0  0  0  0  0  0  0  0  0
  -25.5443  -13.3146   11.0401 C   0  0  2  0  0  0  0  0  0  0  0  0
  -26.3567  -14.3838   11.7648 C   0  0  0  0  0  0  0  0  0  0  0  0
  -27.7931  -14.1026   11.3446 C   0  0  0  0  0  0  0  0  0  0  0  0
  -27.6985  -13.4512    9.9545 C   0  0  2  0  0  0  0  0  0  0  0  0
  -26.2039  -13.3086    9.6631 C   0  0  0  0  0  0  0  0  0  0  0  0
  -28.3707  -12.1643    9.9255 N   0  0  0  0  0  0  0  0  0  0  0  0
  -28.7887  -11.5777    8.7440 C   0  0  0  0  0  0  0  0  0  0  0  0
  -28.6100  -12.0901    7.6433 O   0  0  0  0  0  0  0  0  0  0  0  0
  -28.6385  -11.7014   10.7898 H   0  0  0  0  0  0  0  0  0  0  0  0
  -29.4401  -10.2053    8.9546 C   0  0  1  0  0  0  0  0  0  0  0  0
  -30.3178   -9.9423    7.9258 F   0  0  0  0  0  0  0  0  0  0  0  0
  -30.2452  -10.2328   10.2728 C   0  0  0  0  0  0  0  0  0  0  0  0
  -30.4895   -8.9124   10.8922 N   0  0  0  0  0  0  0  0  0  0  0  0
  -30.4613   -7.8460    9.8948 C   0  0  0  0  0  0  0  0  0  0  0  0
  -29.0481   -7.6982    9.2702 C   0  0  0  0  0  0  0  0  0  0  0  0
  -28.1270   -6.9155   10.2277 C   0  0  0  0  0  0  0  0  0  0  0  0
  -29.1755   -6.8942    7.9629 C   0  0  0  0  0  0  0  0  0  0  0  0
  -28.4016   -9.0848    8.9798 C   0  0  0  0  0  0  0  0  0  0  0  0
  -31.3903   -8.9246   11.3707 H   0  0  0  0  0  0  0  0  0  0  0  0
  -21.7350   -9.8941   11.1516 H   0  0  0  0  0  0  0  0  0  0  0  0
  -23.4188  -11.3665   12.0586 H   0  0  0  0  0  0  0  0  0  0  0  0
  -21.0066  -12.6189    8.0482 H   0  0  0  0  0  0  0  0  0  0  0  0
  -24.1341  -13.4842    7.2978 H   0  0  0  0  0  0  0  0  0  0  0  0
  -24.7414  -15.4781    6.0703 H   0  0  0  0  0  0  0  0  0  0  0  0
  -23.8165  -17.6191    6.7376 H   0  0  0  0  0  0  0  0  0  0  0  0
  -21.2867  -14.7792   10.4627 H   0  0  0  0  0  0  0  0  0  0  0  0
  -21.9177  -17.7997   11.0218 H   0  0  0  0  0  0  0  0  0  0  0  0
  -22.0529  -16.7208   12.2161 H   0  0  0  0  0  0  0  0  0  0  0  0
  -19.5327  -18.0008   11.6520 H   0  0  0  0  0  0  0  0  0  0  0  0
  -19.3580  -16.5163   12.2558 H   0  0  0  0  0  0  0  0  0  0  0  0
  -19.8793  -17.3363    9.2931 H   0  0  0  0  0  0  0  0  0  0  0  0
  -18.9951  -16.0257    9.6226 H   0  0  0  0  0  0  0  0  0  0  0  0
  -18.8124   -9.8496    7.3126 H   0  0  0  0  0  0  0  0  0  0  0  0
  -20.2310  -10.7718    6.8766 H   0  0  0  0  0  0  0  0  0  0  0  0
  -18.9746  -11.5064    7.8434 H   0  0  0  0  0  0  0  0  0  0  0  0
  -18.4023   -9.1673    9.6010 H   0  0  0  0  0  0  0  0  0  0  0  0
  -18.6362  -10.7790   10.2339 H   0  0  0  0  0  0  0  0  0  0  0  0
  -19.5729   -9.4471   10.8677 H   0  0  0  0  0  0  0  0  0  0  0  0
  -21.5993   -3.9539   12.1708 H   0  0  0  0  0  0  0  0  0  0  0  0
  -22.7596   -4.9199   11.2912 H   0  0  0  0  0  0  0  0  0  0  0  0
  -21.8745   -3.6561   10.4712 H   0  0  0  0  0  0  0  0  0  0  0  0
  -20.6869   -6.1741   11.6225 H   0  0  0  0  0  0  0  0  0  0  0  0
  -19.3513   -3.9538   10.1266 H   0  0  0  0  0  0  0  0  0  0  0  0
  -18.6018   -5.4498   10.6299 H   0  0  0  0  0  0  0  0  0  0  0  0
  -19.1610   -4.3067   11.8273 H   0  0  0  0  0  0  0  0  0  0  0  0
  -25.5378  -12.3450   11.4925 H   0  0  0  0  0  0  0  0  0  0  0  0
  -26.2457  -14.2923   12.8251 H   0  0  0  0  0  0  0  0  0  0  0  0
  -26.0426  -15.3767   11.5193 H   0  0  0  0  0  0  0  0  0  0  0  0
  -28.2613  -13.4358   12.0382 H   0  0  0  0  0  0  0  0  0  0  0  0
  -28.3812  -14.9963   11.3234 H   0  0  0  0  0  0  0  0  0  0  0  0
  -28.1843  -14.0476    9.2107 H   0  0  0  0  0  0  0  0  0  0  0  0
  -26.0041  -12.3901    9.1519 H   0  0  0  0  0  0  0  0  0  0  0  0
  -25.8358  -14.0903    9.0319 H   0  0  0  0  0  0  0  0  0  0  0  0
  -29.7072  -10.8333   10.9762 H   0  0  0  0  0  0  0  0  0  0  0  0
  -31.2088  -10.6249   10.0226 H   0  0  0  0  0  0  0  0  0  0  0  0
  -30.7342   -6.9233   10.3627 H   0  0  0  0  0  0  0  0  0  0  0  0
  -31.1518   -8.0928    9.1156 H   0  0  0  0  0  0  0  0  0  0  0  0
  -28.5593   -5.9592   10.4363 H   0  0  0  0  0  0  0  0  0  0  0  0
  -27.1687   -6.7817    9.7709 H   0  0  0  0  0  0  0  0  0  0  0  0
  -28.0138   -7.4625   11.1403 H   0  0  0  0  0  0  0  0  0  0  0  0
  -29.6202   -5.9435    8.1708 H   0  0  0  0  0  0  0  0  0  0  0  0
  -29.7903   -7.4321    7.2718 H   0  0  0  0  0  0  0  0  0  0  0  0
  -28.2045   -6.7484    7.5378 H   0  0  0  0  0  0  0  0  0  0  0  0
  -27.6822   -9.2974    9.7428 H   0  0  0  0  0  0  0  0  0  0  0  0
  -27.9402   -9.0394    8.0155 H   0  0  0  0  0  0  0  0  0  0  0  0
  1  2  2  0
  2  3  1  0
  2 51  1  0
  3  4  2  0
  3 52  1  0
  4 31  1  0
  4  5  1  0
  5  7  1  0
  5  6  2  0
  6  1  1  0
  6 53  1  0
  7  8  2  0
  8  9  1  0
  8 54  1  0
  9 10  2  0
  9 55  1  0
 10 11  1  0
 10 56  1  0
 11 12  1  0
 11 13  2  0
 13 14  1  0
 13  7  1  0
 14 15  1  0
 14 57  1  0
 15 16  1  0
 15 58  1  0
 15 59  1  0
 16 17  1  0
 16 60  1  0
 16 61  1  0
 17 14  1  0
 17 62  1  0
 17 63  1  0
 18 19  1  0
 18 20  1  0
 18  1  1  0
 19 64  1  0
 19 65  1  0
 19 66  1  0
 20 67  1  0
 20 68  1  0
 20 69  1  0
 21 22  1  0
 21 24  1  0
 22 23  2  0
 22 18  1  0
 25 26  2  0
 25 27  2  0
 25 21  1  0
 28 29  1  0
 28 70  1  0
 28 71  1  0
 28 72  1  0
 29 30  1  0
 29 25  1  0
 29 73  1  0
 30 74  1  0
 30 75  1  0
 30 76  1  0
 31 32  1  0
 32 33  1  0
 32 77  1  1
 33 34  1  0
 33 78  1  0
 33 79  1  0
 34 35  1  0
 34 80  1  0
 34 81  1  0
 35 37  1  0
 35 36  1  0
 35 82  1  6
 36 32  1  0
 36 83  1  0
 36 84  1  0
 37 38  1  0
 37 40  1  0
 38 39  2  0
 38 41  1  0
 41 42  1  6
 41 43  1  0
 43 44  1  0
 43 85  1  0
 43 86  1  0
 44 45  1  0
 44 50  1  0
 45 46  1  0
 45 87  1  0
 45 88  1  0
 46 47  1  0
 46 48  1  0
 46 49  1  0
 47 89  1  0
 47 90  1  0
 47 91  1  0
 48 92  1  0
 48 93  1  0
 48 94  1  0
 49 41  1  0
 49 95  1  0
 49 96  1  0
M  END
>  <minimizedAffinity>  (3) 
-8.03337

>  <mol_id>  (3) 
30945

>  <source_index>  (3) 
2

>  <layer>  (3) 
L3

>  <uniprot>  (3) 
Q92830

>  <paff>  (3) 
6.6555999999999997

>  <smiles>  (3) 
CC(C)S(=O)(=O)NC(=O)C(C)(C)c1ccc(O[C@@H]2CC[C@@H](NC(=O)[C@@]3(F)CNCC(C)(C)C3)C2)c(-c2cccc(F)c2C2CCC2)c1

$$$$
L3:Q92830:31993
     RDKit          3D

 93 98  0  0  0  0  0  0  0  0999 V2000
  -22.2916  -11.4143    6.6738 C   0  0  0  0  0  0  0  0  0  0  0  0
  -22.3698  -11.2556    5.2911 C   0  0  0  0  0  0  0  0  0  0  0  0
  -22.5819  -12.3619    4.4657 C   0  0  0  0  0  0  0  0  0  0  0  0
  -22.7475  -13.6434    5.0105 C   0  0  0  0  0  0  0  0  0  0  0  0
  -22.6807  -13.7752    6.4158 C   0  0  0  0  0  0  0  0  0  0  0  0
  -22.4573  -12.6754    7.2654 C   0  0  0  0  0  0  0  0  0  0  0  0
  -22.4340  -12.8742    8.7265 C   0  0  0  0  0  0  0  0  0  0  0  0
  -23.5433  -12.4220    9.4748 C   0  0  0  0  0  0  0  0  0  0  0  0
  -23.5997  -12.5844   10.8546 C   0  0  0  0  0  0  0  0  0  0  0  0
  -22.5452  -13.2043   11.5044 C   0  0  0  0  0  0  0  0  0  0  0  0
  -21.4464  -13.6544   10.7724 C   0  0  0  0  0  0  0  0  0  0  0  0
  -20.4618  -14.2490   11.4617 F   0  0  0  0  0  0  0  0  0  0  0  0
  -21.3340  -13.5136    9.3725 C   0  0  0  0  0  0  0  0  0  0  0  0
  -20.0556  -14.0425    8.5475 C   0  0  0  0  0  0  0  0  0  0  0  0
  -18.7119  -14.3685    9.2519 C   0  0  0  0  0  0  0  0  0  0  0  0
  -19.0942  -15.8581    9.2099 C   0  0  0  0  0  0  0  0  0  0  0  0
  -20.0726  -15.5230    8.0724 C   0  0  0  0  0  0  0  0  0  0  0  0
  -23.0107  -14.8908    4.1450 C   0  0  0  0  0  0  0  0  0  0  0  0
  -23.1441  -16.2039    4.9445 C   0  0  0  0  0  0  0  0  0  0  0  0
  -24.3335  -14.6723    3.3793 C   0  0  0  0  0  0  0  0  0  0  0  0
  -21.8601  -15.1295    3.1353 C   0  0  0  0  0  0  0  0  0  0  0  0
  -22.0633  -15.5394    1.9993 O   0  0  0  0  0  0  0  0  0  0  0  0
  -20.5631  -14.8858    3.6388 N   0  0  0  0  0  0  0  0  0  0  0  0
  -20.4834  -14.4163    4.5363 H   0  0  0  0  0  0  0  0  0  0  0  0
  -19.2804  -14.4931    2.6743 S   0  0  0  0  0  0  0  0  0  0  0  0
  -19.7504  -13.4465    1.7950 O   0  0  0  0  0  0  0  0  0  0  0  0
  -18.7255  -15.7137    2.1421 O   0  0  0  0  0  0  0  0  0  0  0  0
  -18.2064  -13.8159    3.7628 N   0  0  0  0  0  0  0  0  0  0  0  0
  -18.2463  -14.0165    5.2401 C   0  0  0  0  0  0  0  0  0  0  0  0
  -18.5391  -12.5235    5.4429 C   0  0  0  0  0  0  0  0  0  0  0  0
  -18.0814  -12.3455    3.9885 C   0  0  0  0  0  0  0  0  0  0  0  0
  -22.1277  -10.2836    7.4326 O   0  0  0  0  0  0  0  0  0  0  0  0
  -20.7646   -8.3932    9.2385 C   0  0  2  0  0  0  0  0  0  0  0  0
  -20.0839   -9.7489    9.4719 C   0  0  0  0  0  0  0  0  0  0  0  0
  -19.8127  -10.3231    8.0820 C   0  0  0  0  0  0  0  0  0  0  0  0
  -20.8572   -9.6618    7.1874 C   0  0  2  0  0  0  0  0  0  0  0  0
  -20.8702   -8.2324    7.7174 C   0  0  0  0  0  0  0  0  0  0  0  0
  -20.6492   -6.1056   10.1884 C   0  0  0  0  0  0  0  0  0  0  0  0
  -21.8471   -5.8953   10.0215 O   0  0  0  0  0  0  0  0  0  0  0  0
  -20.0364   -7.2970    9.8466 N   0  0  0  0  0  0  0  0  0  0  0  0
  -19.0245   -7.3433    9.9272 H   0  0  0  0  0  0  0  0  0  0  0  0
  -17.9947   -4.7433   14.1311 C   0  0  0  0  0  0  0  0  0  0  0  0
  -18.3995   -5.5143   12.8698 C   0  0  0  0  0  0  0  0  0  0  0  0
  -18.3535   -7.0215   13.1675 C   0  0  0  0  0  0  0  0  0  0  0  0
  -19.7837   -5.0746   12.3686 C   0  0  0  0  0  0  0  0  0  0  0  0
  -19.6957   -5.1091   10.8454 C   0  0  2  0  0  0  0  0  0  0  0  0
  -19.9165   -3.8349   10.3790 F   0  0  0  0  0  0  0  0  0  0  0  0
  -18.2478   -5.4815   10.5342 C   0  0  0  0  0  0  0  0  0  0  0  0
  -17.4790   -5.1878   11.7606 N   0  0  0  0  0  0  0  0  0  0  0  0
  -17.2860   -4.1834   11.7783 H   0  0  0  0  0  0  0  0  0  0  0  0
  -22.2705  -10.3162    4.8755 H   0  0  0  0  0  0  0  0  0  0  0  0
  -22.6172  -12.2348    3.4422 H   0  0  0  0  0  0  0  0  0  0  0  0
  -22.7999  -14.7111    6.8341 H   0  0  0  0  0  0  0  0  0  0  0  0
  -24.3280  -11.9617    8.9875 H   0  0  0  0  0  0  0  0  0  0  0  0
  -24.4166  -12.2474   11.3876 H   0  0  0  0  0  0  0  0  0  0  0  0
  -22.5724  -13.3329   12.5280 H   0  0  0  0  0  0  0  0  0  0  0  0
  -20.1172  -13.2052    7.8842 H   0  0  0  0  0  0  0  0  0  0  0  0
  -18.6200  -13.9633   10.2379 H   0  0  0  0  0  0  0  0  0  0  0  0
  -17.7804  -14.0248    8.8531 H   0  0  0  0  0  0  0  0  0  0  0  0
  -19.5589  -16.2225   10.1022 H   0  0  0  0  0  0  0  0  0  0  0  0
  -18.3522  -16.6213    9.1004 H   0  0  0  0  0  0  0  0  0  0  0  0
  -21.0257  -16.0025    8.1531 H   0  0  0  0  0  0  0  0  0  0  0  0
  -19.8523  -15.7819    7.0578 H   0  0  0  0  0  0  0  0  0  0  0  0
  -23.9287  -16.1045    5.6652 H   0  0  0  0  0  0  0  0  0  0  0  0
  -22.2223  -16.4108    5.4469 H   0  0  0  0  0  0  0  0  0  0  0  0
  -23.3738  -17.0069    4.2757 H   0  0  0  0  0  0  0  0  0  0  0  0
  -25.1270  -14.5076    4.0780 H   0  0  0  0  0  0  0  0  0  0  0  0
  -24.5515  -15.5381    2.7896 H   0  0  0  0  0  0  0  0  0  0  0  0
  -24.2388  -13.8197    2.7397 H   0  0  0  0  0  0  0  0  0  0  0  0
  -17.3172  -14.3394    5.6612 H   0  0  0  0  0  0  0  0  0  0  0  0
  -18.8923  -14.7552    5.6665 H   0  0  0  0  0  0  0  0  0  0  0  0
  -17.9251  -12.0378    6.1723 H   0  0  0  0  0  0  0  0  0  0  0  0
  -19.4834  -12.1656    5.7965 H   0  0  0  0  0  0  0  0  0  0  0  0
  -17.0836  -11.9723    3.8881 H   0  0  0  0  0  0  0  0  0  0  0  0
  -18.5862  -11.6560    3.3446 H   0  0  0  0  0  0  0  0  0  0  0  0
  -21.7291   -8.3687    9.7011 H   0  0  0  0  0  0  0  0  0  0  0  0
  -20.7290  -10.3996   10.0245 H   0  0  0  0  0  0  0  0  0  0  0  0
  -19.1818   -9.6445   10.0379 H   0  0  0  0  0  0  0  0  0  0  0  0
  -19.9325  -11.3864    8.0817 H   0  0  0  0  0  0  0  0  0  0  0  0
  -18.8131  -10.1337    7.7505 H   0  0  0  0  0  0  0  0  0  0  0  0
  -20.6586   -9.7293    6.1382 H   0  0  0  0  0  0  0  0  0  0  0  0
  -21.7804   -7.7372    7.4506 H   0  0  0  0  0  0  0  0  0  0  0  0
  -20.0777   -7.6383    7.3125 H   0  0  0  0  0  0  0  0  0  0  0  0
  -18.6661   -4.9857   14.9282 H   0  0  0  0  0  0  0  0  0  0  0  0
  -18.0377   -3.6922   13.9358 H   0  0  0  0  0  0  0  0  0  0  0  0
  -16.9977   -5.0138   14.4099 H   0  0  0  0  0  0  0  0  0  0  0  0
  -19.0229   -7.2469   13.9713 H   0  0  0  0  0  0  0  0  0  0  0  0
  -17.3580   -7.3003   13.4435 H   0  0  0  0  0  0  0  0  0  0  0  0
  -18.6476   -7.5665   12.2950 H   0  0  0  0  0  0  0  0  0  0  0  0
  -20.0072   -4.0848   12.7079 H   0  0  0  0  0  0  0  0  0  0  0  0
  -20.5600   -5.7128   12.7359 H   0  0  0  0  0  0  0  0  0  0  0  0
  -17.8811   -4.8967    9.7166 H   0  0  0  0  0  0  0  0  0  0  0  0
  -18.1595   -6.5102   10.2534 H   0  0  0  0  0  0  0  0  0  0  0  0
  1  2  2  0
  2  3  1  0
  2 51  1  0
  3  4  2  0
  3 52  1  0
  4 18  1  0
  4  5  1  0
  5  6  2  0
  5 53  1  0
  6  7  1  0
  6  1  1  0
  7  8  2  0
  8  9  1  0
  8 54  1  0
  9 10  2  0
  9 55  1  0
 10 11  1  0
 10 56  1  0
 11 12  1  0
 11 13  2  0
 13 14  1  0
 13  7  1  0
 14 15  1  0
 14 57  1  0
 15 16  1  0
 15 58  1  0
 15 59  1  0
 16 17  1  0
 16 60  1  0
 16 61  1  0
 17 14  1  0
 17 62  1  0
 17 63  1  0
 18 19  1  0
 18 20  1  0
 18 21  1  0
 19 64  1  0
 19 65  1  0
 19 66  1  0
 20 67  1  0
 20 68  1  0
 20 69  1  0
 21 22  2  0
 21 23  1  0
 23 25  1  0
 23 24  1  0
 25 26  2  0
 25 27  2  0
 25 28  1  0
 28 29  1  0
 29 30  1  0
 29 70  1  0
 29 71  1  0
 30 31  1  0
 30 72  1  0
 30 73  1  0
 31 28  1  0
 31 74  1  0
 31 75  1  0
 32  1  1  0
 33 34  1  0
 33 76  1  1
 34 35  1  0
 34 77  1  0
 34 78  1  0
 35 36  1  0
 35 79  1  0
 35 80  1  0
 36 32  1  0
 36 37  1  0
 36 81  1  6
 37 33  1  0
 37 82  1  0
 37 83  1  0
 38 39  2  0
 38 40  1  0
 40 33  1  0
 40 41  1  0
 42 43  1  0
 42 84  1  0
 42 85  1  0
 42 86  1  0
 43 44  1  0
 43 45  1  0
 44 87  1  0
 44 88  1  0
 44 89  1  0
 45 46  1  0
 45 90  1  0
 45 91  1  0
 46 47  1  6
 46 38  1  0
 46 48  1  0
 48 49  1  0
 48 92  1  0
 48 93  1  0
 49 43  1  0
 49 50  1  0
M  END
>  <minimizedAffinity>  (4) 
-6.63045

>  <mol_id>  (4) 
31993

>  <source_index>  (4) 
3

>  <layer>  (4) 
L3

>  <uniprot>  (4) 
Q92830

>  <paff>  (4) 
7.8665000000000003

>  <smiles>  (4) 
CC1(C)C[C@](F)(C(=O)N[C@@H]2CC[C@@H](Oc3ccc(C(C)(C)C(=O)NS(=O)(=O)N4CCC4)cc3-c3cccc(F)c3C3CCC3)C2)CN1

$$$$
L3:Q92830:45193
     RDKit          3D

 90 94  0  0  0  0  0  0  0  0999 V2000
  -22.0725  -12.8837    9.2559 C   0  0  0  0  0  0  0  0  0  0  0  0
  -21.1656  -11.8819    8.8576 C   0  0  0  0  0  0  0  0  0  0  0  0
  -20.8194  -10.8232    9.7075 C   0  0  0  0  0  0  0  0  0  0  0  0
  -21.3599  -10.8053   10.9980 C   0  0  0  0  0  0  0  0  0  0  0  0
  -22.2348  -11.8093   11.4253 C   0  0  0  0  0  0  0  0  0  0  0  0
  -22.5876  -12.8556   10.5698 C   0  0  0  0  0  0  0  0  0  0  0  0
  -21.7597  -15.2366    8.2928 C   0  0  0  0  0  0  0  0  0  0  0  0
  -22.2090  -16.1944    7.3524 C   0  0  0  0  0  0  0  0  0  0  0  0
  -23.2362  -15.9190    6.4500 C   0  0  0  0  0  0  0  0  0  0  0  0
  -23.8472  -14.6755    6.4627 C   0  0  0  0  0  0  0  0  0  0  0  0
  -23.4318  -13.7166    7.3842 C   0  0  0  0  0  0  0  0  0  0  0  0
  -22.3961  -13.9710    8.3125 C   0  0  0  0  0  0  0  0  0  0  0  0
  -19.4754  -16.3331    8.4391 C   0  0  0  0  0  0  0  0  0  0  0  0
  -20.6253  -15.6868    9.2130 C   0  0  0  0  0  0  0  0  0  0  0  0
  -21.0433  -16.5444   10.4078 C   0  0  0  0  0  0  0  0  0  0  0  0
  -19.8326   -9.7544    9.2990 C   0  0  0  0  0  0  0  0  0  0  0  0
  -20.4563   -8.4121    8.9654 C   0  0  0  0  0  0  0  0  0  0  0  0
  -21.3502   -8.2859    8.1405 O   0  0  0  0  0  0  0  0  0  0  0  0
  -19.9004   -7.3209    9.6508 N   0  0  0  0  0  0  0  0  0  0  0  0
  -19.1795   -7.4498   10.3539 H   0  0  0  0  0  0  0  0  0  0  0  0
  -20.5906   -5.8115    9.7266 S   0  0  0  0  0  0  0  0  0  0  0  0
  -20.1163   -5.0678    8.5797 O   0  0  0  0  0  0  0  0  0  0  0  0
  -22.0080   -6.0673    9.8846 O   0  0  0  0  0  0  0  0  0  0  0  0
  -20.0596   -4.9745   11.2398 C   0  0  0  0  0  0  0  0  0  0  0  0
  -18.6659   -5.3038   11.6292 C   0  0  0  0  0  0  0  0  0  0  0  0
  -20.6742   -3.6282   11.5151 C   0  0  0  0  0  0  0  0  0  0  0  0
  -21.1428   -4.8392   12.2815 C   0  0  0  0  0  0  0  0  0  0  0  0
  -23.4345  -13.8809   10.8998 O   0  0  0  0  0  0  0  0  0  0  0  0
  -24.6367  -13.6006   11.6165 C   0  0  2  0  0  0  0  0  0  0  0  0
  -25.7024  -14.5763   11.1201 C   0  0  0  0  0  0  0  0  0  0  0  0
  -26.0917  -14.0093    9.7609 C   0  0  0  0  0  0  0  0  0  0  0  0
  -26.0440  -12.4908    9.9489 C   0  0  2  0  0  0  0  0  0  0  0  0
  -25.2075  -12.2400   11.2165 C   0  0  0  0  0  0  0  0  0  0  0  0
  -27.3787  -11.9312   10.0801 N   0  0  0  0  0  0  0  0  0  0  0  0
  -27.6738  -10.6275    9.7275 C   0  0  0  0  0  0  0  0  0  0  0  0
  -26.8425   -9.8540    9.2617 O   0  0  0  0  0  0  0  0  0  0  0  0
  -28.1189  -12.4726   10.5189 H   0  0  0  0  0  0  0  0  0  0  0  0
  -29.1551  -10.2759    9.9142 C   0  0  1  0  0  0  0  0  0  0  0  0
  -29.9162  -10.9402    8.9800 F   0  0  0  0  0  0  0  0  0  0  0  0
  -29.6384  -10.6767   11.3245 C   0  0  0  0  0  0  0  0  0  0  0  0
  -30.8391   -9.9681   11.8255 N   0  0  0  0  0  0  0  0  0  0  0  0
  -31.6216   -9.4129   10.7215 C   0  0  0  0  0  0  0  0  0  0  0  0
  -30.8357   -8.3446    9.9153 C   0  0  0  0  0  0  0  0  0  0  0  0
  -30.8479   -6.9950   10.6609 C   0  0  0  0  0  0  0  0  0  0  0  0
  -31.5408   -8.1464    8.5600 C   0  0  0  0  0  0  0  0  0  0  0  0
  -29.3591   -8.7764    9.6839 C   0  0  0  0  0  0  0  0  0  0  0  0
  -30.5454   -9.2122   12.4452 H   0  0  0  0  0  0  0  0  0  0  0  0
  -20.7457  -11.9290    7.9161 H   0  0  0  0  0  0  0  0  0  0  0  0
  -21.1094  -10.0403   11.6438 H   0  0  0  0  0  0  0  0  0  0  0  0
  -22.6231  -11.7768   12.3809 H   0  0  0  0  0  0  0  0  0  0  0  0
  -21.7629  -17.1248    7.3339 H   0  0  0  0  0  0  0  0  0  0  0  0
  -23.5400  -16.6386    5.7755 H   0  0  0  0  0  0  0  0  0  0  0  0
  -24.6041  -14.4612    5.7948 H   0  0  0  0  0  0  0  0  0  0  0  0
  -23.8936  -12.7937    7.3893 H   0  0  0  0  0  0  0  0  0  0  0  0
  -18.7081  -16.6308    9.1229 H   0  0  0  0  0  0  0  0  0  0  0  0
  -19.0761  -15.6288    7.7395 H   0  0  0  0  0  0  0  0  0  0  0  0
  -19.8375  -17.1919    7.9134 H   0  0  0  0  0  0  0  0  0  0  0  0
  -20.2756  -14.7730    9.6462 H   0  0  0  0  0  0  0  0  0  0  0  0
  -21.4097  -17.4873   10.0592 H   0  0  0  0  0  0  0  0  0  0  0  0
  -21.8138  -16.0425   10.9549 H   0  0  0  0  0  0  0  0  0  0  0  0
  -20.1989  -16.7035   11.0454 H   0  0  0  0  0  0  0  0  0  0  0  0
  -19.3043  -10.1007    8.4353 H   0  0  0  0  0  0  0  0  0  0  0  0
  -19.1960   -9.5912   10.1434 H   0  0  0  0  0  0  0  0  0  0  0  0
  -18.0534   -5.3546   10.7533 H   0  0  0  0  0  0  0  0  0  0  0  0
  -18.6496   -6.2486   12.1311 H   0  0  0  0  0  0  0  0  0  0  0  0
  -18.2899   -4.5456   12.2839 H   0  0  0  0  0  0  0  0  0  0  0  0
  -21.3151   -3.1743   10.7884 H   0  0  0  0  0  0  0  0  0  0  0  0
  -20.2946   -2.6643   11.7829 H   0  0  0  0  0  0  0  0  0  0  0  0
  -22.1156   -5.2454   12.0982 H   0  0  0  0  0  0  0  0  0  0  0  0
  -21.2332   -5.0917   13.3174 H   0  0  0  0  0  0  0  0  0  0  0  0
  -24.4170  -13.6534   12.6624 H   0  0  0  0  0  0  0  0  0  0  0  0
  -26.5427  -14.5954   11.7823 H   0  0  0  0  0  0  0  0  0  0  0  0
  -25.3532  -15.5863   11.0677 H   0  0  0  0  0  0  0  0  0  0  0  0
  -27.0767  -14.3255    9.4876 H   0  0  0  0  0  0  0  0  0  0  0  0
  -25.4403  -14.3425    8.9802 H   0  0  0  0  0  0  0  0  0  0  0  0
  -25.6067  -12.0128    9.0973 H   0  0  0  0  0  0  0  0  0  0  0  0
  -25.8247  -11.8505   11.9989 H   0  0  0  0  0  0  0  0  0  0  0  0
  -24.4317  -11.5244   11.0405 H   0  0  0  0  0  0  0  0  0  0  0  0
  -28.8383  -10.4900   12.0100 H   0  0  0  0  0  0  0  0  0  0  0  0
  -29.9208  -11.7061   11.2508 H   0  0  0  0  0  0  0  0  0  0  0  0
  -32.5053   -8.9604   11.1206 H   0  0  0  0  0  0  0  0  0  0  0  0
  -31.8580  -10.2153   10.0543 H   0  0  0  0  0  0  0  0  0  0  0  0
  -31.8595   -6.6877   10.8258 H   0  0  0  0  0  0  0  0  0  0  0  0
  -30.3426   -6.2579   10.0725 H   0  0  0  0  0  0  0  0  0  0  0  0
  -30.3501   -7.1029   11.6019 H   0  0  0  0  0  0  0  0  0  0  0  0
  -32.5554   -7.8497    8.7258 H   0  0  0  0  0  0  0  0  0  0  0  0
  -31.5229   -9.0646    8.0110 H   0  0  0  0  0  0  0  0  0  0  0  0
  -31.0338   -7.3872    8.0019 H   0  0  0  0  0  0  0  0  0  0  0  0
  -28.7312   -8.2349   10.3602 H   0  0  0  0  0  0  0  0  0  0  0  0
  -29.1087   -8.5622    8.6659 H   0  0  0  0  0  0  0  0  0  0  0  0
  1  2  2  0
  2  3  1  0
  2 48  1  0
  3 16  1  0
  3  4  2  0
  4  5  1  0
  4 49  1  0
  5  6  2  0
  5 50  1  0
  6 28  1  0
  6  1  1  0
  7  8  2  0
  8  9  1  0
  8 51  1  0
  9 10  2  0
  9 52  1  0
 10 11  1  0
 10 53  1  0
 11 12  2  0
 11 54  1  0
 12  1  1  0
 12  7  1  0
 13 14  1  0
 13 55  1  0
 13 56  1  0
 13 57  1  0
 14 15  1  0
 14  7  1  0
 14 58  1  0
 15 59  1  0
 15 60  1  0
 15 61  1  0
 16 17  1  0
 16 62  1  0
 16 63  1  0
 17 18  2  0
 17 19  1  0
 19 21  1  0
 19 20  1  0
 21 22  2  0
 21 23  2  0
 21 24  1  0
 24 25  1  0
 24 26  1  0
 25 64  1  0
 25 65  1  0
 25 66  1  0
 26 27  1  0
 26 67  1  0
 26 68  1  0
 27 24  1  0
 27 69  1  0
 27 70  1  0
 28 29  1  0
 29 30  1  0
 29 71  1  1
 30 31  1  0
 30 72  1  0
 30 73  1  0
 31 32  1  0
 31 74  1  0
 31 75  1  0
 32 34  1  0
 32 33  1  0
 32 76  1  6
 33 29  1  0
 33 77  1  0
 33 78  1  0
 34 35  1  0
 34 37  1  0
 35 36  2  0
 35 38  1  0
 38 39  1  6
 38 40  1  0
 40 41  1  0
 40 79  1  0
 40 80  1  0
 41 42  1  0
 41 47  1  0
 42 43  1  0
 42 81  1  0
 42 82  1  0
 43 44  1  0
 43 45  1  0
 43 46  1  0
 44 83  1  0
 44 84  1  0
 44 85  1  0
 45 86  1  0
 45 87  1  0
 45 88  1  0
 46 38  1  0
 46 89  1  0
 46 90  1  0
M  END
>  <minimizedAffinity>  (5) 
-7.55982

>  <mol_id>  (5) 
45193

>  <source_index>  (5) 
4

>  <layer>  (5) 
L3

>  <uniprot>  (5) 
Q92830

>  <paff>  (5) 
9.9586000000000006

>  <smiles>  (5) 
CC(C)c1ccccc1-c1cc(CC(=O)NS(=O)(=O)C2(C)CC2)ccc1O[C@@H]1CC[C@@H](NC(=O)[C@@]2(F)CNCC(C)(C)C2)C1

$$$$
L3:Q92830:53417
     RDKit          3D

 94 99  0  0  0  0  0  0  0  0999 V2000
  -17.5995  -14.3381    5.4435 C   0  0  0  0  0  0  0  0  0  0  0  0
  -17.6653  -14.8037    6.7690 C   0  0  0  0  0  0  0  0  0  0  0  0
  -18.5643  -14.2576    7.6887 C   0  0  0  0  0  0  0  0  0  0  0  0
  -19.4306  -13.2350    7.3050 C   0  0  0  0  0  0  0  0  0  0  0  0
  -19.4392  -12.7910    5.9674 C   0  0  0  0  0  0  0  0  0  0  0  0
  -18.5038  -13.3342    5.0630 C   0  0  0  0  0  0  0  0  0  0  0  0
  -20.3277  -11.7023    5.5169 C   0  0  0  0  0  0  0  0  0  0  0  0
  -19.8358  -10.3819    5.6691 C   0  0  0  0  0  0  0  0  0  0  0  0
  -20.5866   -9.2697    5.3039 C   0  0  0  0  0  0  0  0  0  0  0  0
  -21.8437   -9.4596    4.7612 C   0  0  0  0  0  0  0  0  0  0  0  0
  -22.3320  -10.7548    4.5966 C   0  0  0  0  0  0  0  0  0  0  0  0
  -23.5572  -10.8829    4.0609 F   0  0  0  0  0  0  0  0  0  0  0  0
  -21.6186  -11.9247    4.9594 C   0  0  0  0  0  0  0  0  0  0  0  0
  -22.3309  -13.3448    4.7138 C   0  0  0  0  0  0  0  0  0  0  0  0
  -22.3305  -14.4365    5.8032 C   0  0  0  0  0  0  0  0  0  0  0  0
  -21.5747  -15.3799    4.8592 C   0  0  0  0  0  0  0  0  0  0  0  0
  -21.7330  -14.3637    3.7213 C   0  0  0  0  0  0  0  0  0  0  0  0
  -16.5516  -14.9263    4.4812 C   0  0  0  0  0  0  0  0  0  0  0  0
  -15.6018  -15.8307    5.2935 C   0  0  0  0  0  0  0  0  0  0  0  0
  -17.1416  -15.7722    3.3337 C   0  0  0  0  0  0  0  0  0  0  0  0
  -16.1578  -13.4569    2.4964 N   0  0  0  0  0  0  0  0  0  0  0  0
  -15.7381  -13.8018    3.7972 C   0  0  0  0  0  0  0  0  0  0  0  0
  -14.7599  -13.2752    4.3110 O   0  0  0  0  0  0  0  0  0  0  0  0
  -16.9584  -13.9233    2.0751 H   0  0  0  0  0  0  0  0  0  0  0  0
  -15.8289  -12.0009    1.7771 S   0  0  0  0  0  0  0  0  0  0  0  0
  -16.9215  -11.6922    0.8816 O   0  0  0  0  0  0  0  0  0  0  0  0
  -14.4831  -12.1434    1.2590 O   0  0  0  0  0  0  0  0  0  0  0  0
  -17.1496  -10.1151    3.2439 C   0  0  0  0  0  0  0  0  0  0  0  0
  -15.8013  -10.8244    3.1513 C   0  0  0  0  0  0  0  0  0  0  0  0
  -14.6684   -9.8152    3.0034 C   0  0  0  0  0  0  0  0  0  0  0  0
  -20.3143  -12.6210    8.1533 O   0  0  0  0  0  0  0  0  0  0  0  0
  -19.8367  -12.1221    9.4047 C   0  0  2  0  0  0  0  0  0  0  0  0
  -21.0342  -12.0810   10.3575 C   0  0  0  0  0  0  0  0  0  0  0  0
  -21.7750  -10.7821   10.0223 C   0  0  0  0  0  0  0  0  0  0  0  0
  -20.7959   -9.9395    9.1957 C   0  0  2  0  0  0  0  0  0  0  0  0
  -19.4485  -10.6462    9.3322 C   0  0  0  0  0  0  0  0  0  0  0  0
  -20.7436   -8.5550    9.6246 N   0  0  0  0  0  0  0  0  0  0  0  0
  -21.4201   -7.5612    8.9350 C   0  0  0  0  0  0  0  0  0  0  0  0
  -22.0689   -7.8099    7.9192 O   0  0  0  0  0  0  0  0  0  0  0  0
  -20.2486   -8.3345   10.4785 H   0  0  0  0  0  0  0  0  0  0  0  0
  -21.3003   -6.1375    9.4995 C   0  0  2  0  0  0  0  0  0  0  0  0
  -22.4496   -5.4189    9.2895 F   0  0  0  0  0  0  0  0  0  0  0  0
  -20.1327   -5.3636    8.8719 C   0  0  0  0  0  0  0  0  0  0  0  0
  -19.5396   -4.4908    9.9111 N   0  0  0  0  0  0  0  0  0  0  0  0
  -20.3104   -4.7593   11.1311 C   0  0  0  0  0  0  0  0  0  0  0  0
  -19.4620   -4.4343   12.3840 C   0  0  0  0  0  0  0  0  0  0  0  0
  -20.6940   -3.6774   12.9289 C   0  0  0  0  0  0  0  0  0  0  0  0
  -21.1497   -3.4947   11.4638 C   0  0  0  0  0  0  0  0  0  0  0  0
  -21.0076   -6.0930   10.9924 C   0  0  0  0  0  0  0  0  0  0  0  0
  -18.5359   -4.6592    9.9725 H   0  0  0  0  0  0  0  0  0  0  0  0
  -17.0362  -15.5649    7.0687 H   0  0  0  0  0  0  0  0  0  0  0  0
  -18.5871  -14.6132    8.6572 H   0  0  0  0  0  0  0  0  0  0  0  0
  -18.4834  -12.9834    4.0927 H   0  0  0  0  0  0  0  0  0  0  0  0
  -18.8922  -10.2415    6.0627 H   0  0  0  0  0  0  0  0  0  0  0  0
  -20.2111   -8.3175    5.4360 H   0  0  0  0  0  0  0  0  0  0  0  0
  -22.4164   -8.6485    4.4800 H   0  0  0  0  0  0  0  0  0  0  0  0
  -23.2326  -12.8186    4.4795 H   0  0  0  0  0  0  0  0  0  0  0  0
  -23.3059  -14.7813    6.0762 H   0  0  0  0  0  0  0  0  0  0  0  0
  -21.9468  -14.2264    6.7797 H   0  0  0  0  0  0  0  0  0  0  0  0
  -22.0695  -16.3124    4.6846 H   0  0  0  0  0  0  0  0  0  0  0  0
  -20.6068  -15.7513    5.1240 H   0  0  0  0  0  0  0  0  0  0  0  0
  -22.4091  -14.6719    2.9514 H   0  0  0  0  0  0  0  0  0  0  0  0
  -20.8944  -14.0981    3.1121 H   0  0  0  0  0  0  0  0  0  0  0  0
  -14.8643  -16.2502    4.6415 H   0  0  0  0  0  0  0  0  0  0  0  0
  -16.1634  -16.6185    5.7505 H   0  0  0  0  0  0  0  0  0  0  0  0
  -15.1188  -15.2507    6.0519 H   0  0  0  0  0  0  0  0  0  0  0  0
  -16.3481  -16.1396    2.7170 H   0  0  0  0  0  0  0  0  0  0  0  0
  -17.7991  -15.1665    2.7457 H   0  0  0  0  0  0  0  0  0  0  0  0
  -17.6867  -16.5972    3.7426 H   0  0  0  0  0  0  0  0  0  0  0  0
  -17.1317   -9.4197    4.0570 H   0  0  0  0  0  0  0  0  0  0  0  0
  -17.9218  -10.8371    3.4090 H   0  0  0  0  0  0  0  0  0  0  0  0
  -17.3405   -9.5912    2.3307 H   0  0  0  0  0  0  0  0  0  0  0  0
  -15.6244  -11.3664    4.0567 H   0  0  0  0  0  0  0  0  0  0  0  0
  -14.8090   -9.2502    2.1057 H   0  0  0  0  0  0  0  0  0  0  0  0
  -13.7333  -10.3331    2.9561 H   0  0  0  0  0  0  0  0  0  0  0  0
  -14.6677   -9.1539    3.8446 H   0  0  0  0  0  0  0  0  0  0  0  0
  -19.0109  -12.7387    9.6925 H   0  0  0  0  0  0  0  0  0  0  0  0
  -20.7032  -12.0715   11.3750 H   0  0  0  0  0  0  0  0  0  0  0  0
  -21.6633  -12.9391   10.2440 H   0  0  0  0  0  0  0  0  0  0  0  0
  -22.0446  -10.2655   10.9197 H   0  0  0  0  0  0  0  0  0  0  0  0
  -22.6792  -10.9740    9.4834 H   0  0  0  0  0  0  0  0  0  0  0  0
  -21.1053   -9.8759    8.1734 H   0  0  0  0  0  0  0  0  0  0  0  0
  -18.9418  -10.3382   10.2228 H   0  0  0  0  0  0  0  0  0  0  0  0
  -18.7757  -10.4273    8.5295 H   0  0  0  0  0  0  0  0  0  0  0  0
  -20.4900   -4.7665    8.0591 H   0  0  0  0  0  0  0  0  0  0  0  0
  -19.3968   -6.0455    8.4999 H   0  0  0  0  0  0  0  0  0  0  0  0
  -18.6060   -3.8200   12.1976 H   0  0  0  0  0  0  0  0  0  0  0  0
  -18.9731   -5.1997   12.9497 H   0  0  0  0  0  0  0  0  0  0  0  0
  -20.4665   -2.7664   13.4419 H   0  0  0  0  0  0  0  0  0  0  0  0
  -21.3369   -4.1088   13.6674 H   0  0  0  0  0  0  0  0  0  0  0  0
  -20.8080   -2.5945   10.9971 H   0  0  0  0  0  0  0  0  0  0  0  0
  -22.1828   -3.4134   11.1972 H   0  0  0  0  0  0  0  0  0  0  0  0
  -21.9095   -6.1228   11.5673 H   0  0  0  0  0  0  0  0  0  0  0  0
  -20.4310   -6.9222   11.3458 H   0  0  0  0  0  0  0  0  0  0  0  0
  1  2  2  0
  2  3  1  0
  2 51  1  0
  3  4  2  0
  3 52  1  0
  4 31  1  0
  4  5  1  0
  5  7  1  0
  5  6  2  0
  6  1  1  0
  6 53  1  0
  7  8  2  0
  8  9  1  0
  8 54  1  0
  9 10  2  0
  9 55  1  0
 10 11  1  0
 10 56  1  0
 11 12  1  0
 11 13  2  0
 13 14  1  0
 13  7  1  0
 14 15  1  0
 14 57  1  0
 15 16  1  0
 15 58  1  0
 15 59  1  0
 16 17  1  0
 16 60  1  0
 16 61  1  0
 17 14  1  0
 17 62  1  0
 17 63  1  0
 18 19  1  0
 18 20  1  0
 18  1  1  0
 19 64  1  0
 19 65  1  0
 19 66  1  0
 20 67  1  0
 20 68  1  0
 20 69  1  0
 21 22  1  0
 21 24  1  0
 22 23  2  0
 22 18  1  0
 25 26  2  0
 25 27  2  0
 25 21  1  0
 28 29  1  0
 28 70  1  0
 28 71  1  0
 28 72  1  0
 29 30  1  0
 29 25  1  0
 29 73  1  0
 30 74  1  0
 30 75  1  0
 30 76  1  0
 31 32  1  0
 32 33  1  0
 32 77  1  1
 33 34  1  0
 33 78  1  0
 33 79  1  0
 34 35  1  0
 34 80  1  0
 34 81  1  0
 35 37  1  0
 35 36  1  0
 35 82  1  6
 36 32  1  0
 36 83  1  0
 36 84  1  0
 37 38  1  0
 37 40  1  0
 38 39  2  0
 38 41  1  0
 41 42  1  1
 41 43  1  0
 43 44  1  0
 43 85  1  0
 43 86  1  0
 44 45  1  0
 44 50  1  0
 45 46  1  0
 45 49  1  0
 46 47  1  0
 46 87  1  0
 46 88  1  0
 47 48  1  0
 47 89  1  0
 47 90  1  0
 48 45  1  0
 48 91  1  0
 48 92  1  0
 49 41  1  0
 49 93  1  0
 49 94  1  0
M  END
>  <minimizedAffinity>  (6) 
-7.43775

>  <mol_id>  (6) 
53417

>  <source_index>  (6) 
5

>  <layer>  (6) 
L3

>  <uniprot>  (6) 
Q92830

>  <paff>  (6) 
9.8538999999999994

>  <smiles>  (6) 
CC(C)S(=O)(=O)NC(=O)C(C)(C)c1ccc(O[C@@H]2CC[C@@H](NC(=O)[C@]3(F)CNC4(CCC4)C3)C2)c(-c2cccc(F)c2C2CCC2)c1

$$$$
L3:Q92830:71683
     RDKit          3D

 94 99  0  0  0  0  0  0  0  0999 V2000
   -9.5000   -6.2540   14.5142 C   0  0  0  0  0  0  0  0  0  0  0  0
   -9.8335   -4.9195   14.2134 C   0  0  0  0  0  0  0  0  0  0  0  0
  -10.9543   -4.3111   14.7787 C   0  0  0  0  0  0  0  0  0  0  0  0
  -11.7798   -5.0306   15.6391 C   0  0  0  0  0  0  0  0  0  0  0  0
  -11.4760   -6.3565   15.9880 C   0  0  0  0  0  0  0  0  0  0  0  0
  -10.3408   -6.9540   15.4001 C   0  0  0  0  0  0  0  0  0  0  0  0
  -12.2941   -7.1346   16.9375 C   0  0  0  0  0  0  0  0  0  0  0  0
  -12.0141   -7.0019   18.3174 C   0  0  0  0  0  0  0  0  0  0  0  0
  -12.7189   -7.7262   19.2734 C   0  0  0  0  0  0  0  0  0  0  0  0
  -13.7113   -8.6003   18.8611 C   0  0  0  0  0  0  0  0  0  0  0  0
  -13.9972   -8.7315   17.5026 C   0  0  0  0  0  0  0  0  0  0  0  0
  -14.9527   -9.6089   17.1601 F   0  0  0  0  0  0  0  0  0  0  0  0
  -13.3309   -8.0039   16.4932 C   0  0  0  0  0  0  0  0  0  0  0  0
  -13.7146   -8.1935   14.9503 C   0  0  0  0  0  0  0  0  0  0  0  0
  -13.4759   -9.5746   14.2612 C   0  0  0  0  0  0  0  0  0  0  0  0
  -14.7189   -9.2871   13.4017 C   0  0  0  0  0  0  0  0  0  0  0  0
  -15.2123   -8.3979   14.5573 C   0  0  0  0  0  0  0  0  0  0  0  0
   -8.2571   -6.8939   13.8620 C   0  0  0  0  0  0  0  0  0  0  0  0
   -7.1147   -6.8086   14.8960 C   0  0  0  0  0  0  0  0  0  0  0  0
   -7.7818   -6.1834   12.5765 C   0  0  0  0  0  0  0  0  0  0  0  0
   -7.9098   -9.3891   14.0793 N   0  0  0  0  0  0  0  0  0  0  0  0
   -8.5795   -8.3458   13.4150 C   0  0  0  0  0  0  0  0  0  0  0  0
   -9.3264   -8.5873   12.4739 O   0  0  0  0  0  0  0  0  0  0  0  0
   -7.2063   -9.2275   14.7913 H   0  0  0  0  0  0  0  0  0  0  0  0
   -8.3907  -10.9747   14.0371 S   0  0  0  0  0  0  0  0  0  0  0  0
   -7.5976  -11.7102   14.9957 O   0  0  0  0  0  0  0  0  0  0  0  0
   -8.3499  -11.3269   12.6323 O   0  0  0  0  0  0  0  0  0  0  0  0
  -10.2828  -10.4855   15.9900 C   0  0  0  0  0  0  0  0  0  0  0  0
  -10.1061  -10.9456   14.5573 C   0  0  0  0  0  0  0  0  0  0  0  0
  -12.8450   -4.3653   16.1898 O   0  0  0  0  0  0  0  0  0  0  0  0
  -13.4544   -3.4672   15.2528 C   0  0  2  0  0  0  0  0  0  0  0  0
  -14.3679   -2.4898   15.9876 C   0  0  0  0  0  0  0  0  0  0  0  0
  -15.6410   -3.2817   16.2894 C   0  0  0  0  0  0  0  0  0  0  0  0
  -15.6274   -4.4912   15.3425 C   0  0  2  0  0  0  0  0  0  0  0  0
  -14.4437   -4.2563   14.4014 C   0  0  0  0  0  0  0  0  0  0  0  0
  -16.8770   -4.6552   14.6201 N   0  0  0  0  0  0  0  0  0  0  0  0
  -16.9109   -5.2414   13.3647 C   0  0  0  0  0  0  0  0  0  0  0  0
  -15.8909   -5.6661   12.8242 O   0  0  0  0  0  0  0  0  0  0  0  0
  -17.7315   -4.3329   15.0539 H   0  0  0  0  0  0  0  0  0  0  0  0
  -18.2990   -5.3477   12.7019 C   0  0  1  0  0  0  0  0  0  0  0  0
  -18.8653   -6.5718   12.9668 F   0  0  0  0  0  0  0  0  0  0  0  0
  -19.2439   -4.2598   13.2682 C   0  0  0  0  0  0  0  0  0  0  0  0
  -20.2900   -3.7833   12.3344 N   0  0  0  0  0  0  0  0  0  0  0  0
  -20.7469   -4.8832   11.4796 C   0  0  0  0  0  0  0  0  0  0  0  0
  -19.6135   -5.3847   10.5590 C   0  0  0  0  0  0  0  0  0  0  0  0
  -19.6804   -4.8522    9.0911 C   0  0  0  0  0  0  0  0  0  0  0  0
  -20.5312   -6.0847    8.7323 C   0  0  0  0  0  0  0  0  0  0  0  0
  -19.9087   -6.7945    9.9484 C   0  0  0  0  0  0  0  0  0  0  0  0
  -18.2102   -5.2308   11.1774 C   0  0  0  0  0  0  0  0  0  0  0  0
  -19.9297   -3.0327   11.7468 H   0  0  0  0  0  0  0  0  0  0  0  0
   -9.2385   -4.3822   13.5635 H   0  0  0  0  0  0  0  0  0  0  0  0
  -11.1720   -3.3265   14.5590 H   0  0  0  0  0  0  0  0  0  0  0  0
  -10.1198   -7.9362   15.6270 H   0  0  0  0  0  0  0  0  0  0  0  0
  -11.2709   -6.3538   18.6217 H   0  0  0  0  0  0  0  0  0  0  0  0
  -12.5052   -7.6138   20.2767 H   0  0  0  0  0  0  0  0  0  0  0  0
  -14.2371   -9.1523   19.5567 H   0  0  0  0  0  0  0  0  0  0  0  0
  -13.1609   -7.3170   14.6856 H   0  0  0  0  0  0  0  0  0  0  0  0
  -13.5689  -10.4194   14.9113 H   0  0  0  0  0  0  0  0  0  0  0  0
  -12.5342   -9.8278   13.8207 H   0  0  0  0  0  0  0  0  0  0  0  0
  -15.3316  -10.1408   13.2001 H   0  0  0  0  0  0  0  0  0  0  0  0
  -14.6427   -8.9228   12.3985 H   0  0  0  0  0  0  0  0  0  0  0  0
  -15.8008   -8.9068   15.2919 H   0  0  0  0  0  0  0  0  0  0  0  0
  -15.8678   -7.5691   14.3889 H   0  0  0  0  0  0  0  0  0  0  0  0
   -6.2278   -7.2431   14.4843 H   0  0  0  0  0  0  0  0  0  0  0  0
   -7.3945   -7.3404   15.7813 H   0  0  0  0  0  0  0  0  0  0  0  0
   -6.9297   -5.7832   15.1393 H   0  0  0  0  0  0  0  0  0  0  0  0
   -6.9205   -6.6861   12.1888 H   0  0  0  0  0  0  0  0  0  0  0  0
   -7.5307   -5.1681   12.8022 H   0  0  0  0  0  0  0  0  0  0  0  0
   -8.5648   -6.2036   11.8475 H   0  0  0  0  0  0  0  0  0  0  0  0
  -11.3231  -10.4895   16.2402 H   0  0  0  0  0  0  0  0  0  0  0  0
   -9.8941   -9.4943   16.0968 H   0  0  0  0  0  0  0  0  0  0  0  0
   -9.7560  -11.1477   16.6448 H   0  0  0  0  0  0  0  0  0  0  0  0
  -10.6454  -10.2798   13.9164 H   0  0  0  0  0  0  0  0  0  0  0  0
  -10.4763  -11.9476   14.4951 H   0  0  0  0  0  0  0  0  0  0  0  0
  -12.6713   -2.9877   14.7035 H   0  0  0  0  0  0  0  0  0  0  0  0
  -14.5890   -1.6452   15.3690 H   0  0  0  0  0  0  0  0  0  0  0  0
  -13.9129   -2.1089   16.8780 H   0  0  0  0  0  0  0  0  0  0  0  0
  -16.5054   -2.6779   16.1075 H   0  0  0  0  0  0  0  0  0  0  0  0
  -15.6758   -3.5887   17.3138 H   0  0  0  0  0  0  0  0  0  0  0  0
  -15.5219   -5.4047   15.8896 H   0  0  0  0  0  0  0  0  0  0  0  0
  -14.7445   -3.6912   13.5440 H   0  0  0  0  0  0  0  0  0  0  0  0
  -14.0293   -5.1668   14.0218 H   0  0  0  0  0  0  0  0  0  0  0  0
  -18.6469   -3.4188   13.5532 H   0  0  0  0  0  0  0  0  0  0  0  0
  -19.7619   -4.7140   14.0869 H   0  0  0  0  0  0  0  0  0  0  0  0
  -21.5609   -4.5405   10.8756 H   0  0  0  0  0  0  0  0  0  0  0  0
  -21.0564   -5.6929   12.1069 H   0  0  0  0  0  0  0  0  0  0  0  0
  -18.7347   -4.8059    8.5927 H   0  0  0  0  0  0  0  0  0  0  0  0
  -20.0184   -3.8605    8.8739 H   0  0  0  0  0  0  0  0  0  0  0  0
  -20.2947   -6.5293    7.7882 H   0  0  0  0  0  0  0  0  0  0  0  0
  -21.5915   -6.0161    8.6058 H   0  0  0  0  0  0  0  0  0  0  0  0
  -19.0365   -7.3729    9.7258 H   0  0  0  0  0  0  0  0  0  0  0  0
  -20.4501   -7.5365   10.4972 H   0  0  0  0  0  0  0  0  0  0  0  0
  -17.8106   -4.2729   10.9173 H   0  0  0  0  0  0  0  0  0  0  0  0
  -17.5717   -6.0024   10.8007 H   0  0  0  0  0  0  0  0  0  0  0  0
  1  2  2  0
  2  3  1  0
  2 51  1  0
  3  4  2  0
  3 52  1  0
  4 30  1  0
  4  5  1  0
  5  7  1  0
  5  6  2  0
  6  1  1  0
  6 53  1  0
  7  8  2  0
  8  9  1  0
  8 54  1  0
  9 10  2  0
  9 55  1  0
 10 11  1  0
 10 56  1  0
 11 12  1  0
 11 13  2  0
 13 14  1  0
 13  7  1  0
 14 15  1  0
 14 57  1  0
 15 16  1  0
 15 58  1  0
 15 59  1  0
 16 17  1  0
 16 60  1  0
 16 61  1  0
 17 14  1  0
 17 62  1  0
 17 63  1  0
 18 19  1  0
 18 20  1  0
 18  1  1  0
 19 64  1  0
 19 65  1  0
 19 66  1  0
 20 67  1  0
 20 68  1  0
 20 69  1  0
 21 22  1  0
 21 24  1  0
 22 23  2  0
 22 18  1  0
 25 26  2  0
 25 27  2  0
 25 21  1  0
 28 29  1  0
 28 70  1  0
 28 71  1  0
 28 72  1  0
 29 25  1  0
 29 73  1  0
 29 74  1  0
 30 31  1  0
 31 32  1  0
 31 75  1  6
 32 33  1  0
 32 76  1  0
 32 77  1  0
 33 34  1  0
 33 78  1  0
 33 79  1  0
 34 36  1  0
 34 35  1  0
 34 80  1  1
 35 31  1  0
 35 81  1  0
 35 82  1  0
 36 37  1  0
 36 39  1  0
 37 38  2  0
 37 40  1  0
 40 41  1  6
 40 42  1  0
 42 43  1  0
 42 83  1  0
 42 84  1  0
 43 44  1  0
 43 50  1  0
 44 45  1  0
 44 85  1  0
 44 86  1  0
 45 46  1  0
 45 49  1  0
 46 47  1  0
 46 87  1  0
 46 88  1  0
 47 48  1  0
 47 89  1  0
 47 90  1  0
 48 45  1  0
 48 91  1  0
 48 92  1  0
 49 40  1  0
 49 93  1  0
 49 94  1  0
M  END
>  <minimizedAffinity>  (7) 
-7.95104

>  <mol_id>  (7) 
71683

>  <source_index>  (7) 
6

>  <layer>  (7) 
L3

>  <uniprot>  (7) 
Q92830

>  <paff>  (7) 
10.3979

>  <smiles>  (7) 
CCS(=O)(=O)NC(=O)C(C)(C)c1ccc(O[C@@H]2CC[C@@H](NC(=O)[C@@]3(F)CNCC4(CCC4)C3)C2)c(-c2cccc(F)c2C2CCC2)c1

$$$$
L3:Q92830:78328
     RDKit          3D

 87 91  0  0  0  0  0  0  0  0999 V2000
  -20.6090   -9.9748    8.7780 C   0  0  0  0  0  0  0  0  0  0  0  0
  -19.9982   -8.9068    9.4585 C   0  0  0  0  0  0  0  0  0  0  0  0
  -20.1941   -7.5726    9.0612 C   0  0  0  0  0  0  0  0  0  0  0  0
  -20.9769   -7.3035    7.9337 C   0  0  0  0  0  0  0  0  0  0  0  0
  -21.5921   -8.3475    7.2463 C   0  0  0  0  0  0  0  0  0  0  0  0
  -21.4425   -9.6638    7.6880 C   0  0  0  0  0  0  0  0  0  0  0  0
  -21.2650  -12.0248   10.1401 C   0  0  0  0  0  0  0  0  0  0  0  0
  -20.9455  -13.3392   10.5422 C   0  0  0  0  0  0  0  0  0  0  0  0
  -19.7968  -13.9840   10.0835 C   0  0  0  0  0  0  0  0  0  0  0  0
  -18.9453  -13.3340    9.2019 C   0  0  0  0  0  0  0  0  0  0  0  0
  -19.2413  -12.0365    8.7882 C   0  0  0  0  0  0  0  0  0  0  0  0
  -20.3880  -11.3550    9.2523 C   0  0  0  0  0  0  0  0  0  0  0  0
  -23.7501  -11.8002    9.7714 C   0  0  0  0  0  0  0  0  0  0  0  0
  -22.5585  -11.3893   10.6433 C   0  0  0  0  0  0  0  0  0  0  0  0
  -22.8238  -11.7160   12.1168 C   0  0  0  0  0  0  0  0  0  0  0  0
  -19.6194   -6.4480    9.8900 C   0  0  0  0  0  0  0  0  0  0  0  0
  -20.6854   -5.5798   10.5397 C   0  0  0  0  0  0  0  0  0  0  0  0
  -21.6748   -5.1986    9.9274 O   0  0  0  0  0  0  0  0  0  0  0  0
  -20.5146   -5.3205   11.9130 N   0  0  0  0  0  0  0  0  0  0  0  0
  -19.6994   -5.6802   12.4050 H   0  0  0  0  0  0  0  0  0  0  0  0
  -21.1918   -4.0286   12.7006 S   0  0  0  0  0  0  0  0  0  0  0  0
  -22.5615   -4.3701   13.0136 O   0  0  0  0  0  0  0  0  0  0  0  0
  -20.9007   -2.8907   11.8508 O   0  0  0  0  0  0  0  0  0  0  0  0
  -20.2236   -3.8784   14.2230 C   0  0  0  0  0  0  0  0  0  0  0  0
  -18.8417   -4.5045   14.0720 C   0  0  0  0  0  0  0  0  0  0  0  0
  -20.1139   -2.4078   14.6161 C   0  0  0  0  0  0  0  0  0  0  0  0
  -22.1020  -10.6331    6.9738 O   0  0  0  0  0  0  0  0  0  0  0  0
  -21.5205  -10.8055    5.6795 C   0  0  2  0  0  0  0  0  0  0  0  0
  -22.6225  -10.8548    4.6147 C   0  0  0  0  0  0  0  0  0  0  0  0
  -22.2699  -12.0201    3.6855 C   0  0  0  0  0  0  0  0  0  0  0  0
  -20.8458  -12.4288    4.0593 C   0  0  2  0  0  0  0  0  0  0  0  0
  -20.8061  -12.1512    5.5578 C   0  0  0  0  0  0  0  0  0  0  0  0
  -19.8633  -11.6426    3.3323 N   0  0  0  0  0  0  0  0  0  0  0  0
  -18.5415  -11.5481    3.7230 C   0  0  0  0  0  0  0  0  0  0  0  0
  -18.0913  -12.1108    4.7174 O   0  0  0  0  0  0  0  0  0  0  0  0
  -20.1279  -11.1429    2.4854 H   0  0  0  0  0  0  0  0  0  0  0  0
  -17.7076  -10.6740    2.7897 C   0  0  1  0  0  0  0  0  0  0  0  0
  -16.3972  -11.0810    2.7643 F   0  0  0  0  0  0  0  0  0  0  0  0
  -18.2653  -10.6687    1.3659 C   0  0  0  0  0  0  0  0  0  0  0  0
  -17.8934   -9.3713    0.7505 N   0  0  0  0  0  0  0  0  0  0  0  0
  -17.4255   -8.5325    1.8619 C   0  0  0  0  0  0  0  0  0  0  0  0
  -17.7932   -7.0472    1.6195 C   0  0  0  0  0  0  0  0  0  0  0  0
  -16.3389   -6.7053    2.0200 C   0  0  0  0  0  0  0  0  0  0  0  0
  -15.9514   -8.1322    1.5694 C   0  0  0  0  0  0  0  0  0  0  0  0
  -17.7478   -9.2072    3.1774 C   0  0  0  0  0  0  0  0  0  0  0  0
  -18.6912   -9.0175    0.2221 H   0  0  0  0  0  0  0  0  0  0  0  0
  -19.3916   -9.1071   10.2690 H   0  0  0  0  0  0  0  0  0  0  0  0
  -21.0988   -6.3309    7.6108 H   0  0  0  0  0  0  0  0  0  0  0  0
  -22.1601   -8.1475    6.4082 H   0  0  0  0  0  0  0  0  0  0  0  0
  -21.5766  -13.8351   11.1909 H   0  0  0  0  0  0  0  0  0  0  0  0
  -19.5808  -14.9425   10.3992 H   0  0  0  0  0  0  0  0  0  0  0  0
  -18.0974  -13.8087    8.8544 H   0  0  0  0  0  0  0  0  0  0  0  0
  -18.6071  -11.5621    8.1266 H   0  0  0  0  0  0  0  0  0  0  0  0
  -24.6412  -11.3415   10.1461 H   0  0  0  0  0  0  0  0  0  0  0  0
  -23.8595  -12.8643    9.7955 H   0  0  0  0  0  0  0  0  0  0  0  0
  -23.5815  -11.4817    8.7639 H   0  0  0  0  0  0  0  0  0  0  0  0
  -22.4365  -10.3289   10.5689 H   0  0  0  0  0  0  0  0  0  0  0  0
  -22.9515  -12.7722   12.2305 H   0  0  0  0  0  0  0  0  0  0  0  0
  -23.7111  -11.2126   12.4396 H   0  0  0  0  0  0  0  0  0  0  0  0
  -21.9940  -11.3912   12.7091 H   0  0  0  0  0  0  0  0  0  0  0  0
  -19.0177   -5.8309    9.2559 H   0  0  0  0  0  0  0  0  0  0  0  0
  -19.0470   -6.8925   10.6772 H   0  0  0  0  0  0  0  0  0  0  0  0
  -20.7285   -4.4135   14.9999 H   0  0  0  0  0  0  0  0  0  0  0  0
  -18.3019   -3.9955   13.3010 H   0  0  0  0  0  0  0  0  0  0  0  0
  -18.9446   -5.5376   13.8130 H   0  0  0  0  0  0  0  0  0  0  0  0
  -18.3088   -4.4198   14.9960 H   0  0  0  0  0  0  0  0  0  0  0  0
  -19.6094   -1.8683   13.8419 H   0  0  0  0  0  0  0  0  0  0  0  0
  -19.5613   -2.3227   15.5284 H   0  0  0  0  0  0  0  0  0  0  0  0
  -21.0941   -2.0013   14.7536 H   0  0  0  0  0  0  0  0  0  0  0  0
  -20.8421   -9.9892    5.5441 H   0  0  0  0  0  0  0  0  0  0  0  0
  -22.6480   -9.9371    4.0650 H   0  0  0  0  0  0  0  0  0  0  0  0
  -23.5868  -10.9892    5.0586 H   0  0  0  0  0  0  0  0  0  0  0  0
  -22.3125  -11.7082    2.6629 H   0  0  0  0  0  0  0  0  0  0  0  0
  -22.9562  -12.8339    3.7937 H   0  0  0  0  0  0  0  0  0  0  0  0
  -20.6103  -13.4437    3.8154 H   0  0  0  0  0  0  0  0  0  0  0  0
  -19.7978  -12.0841    5.9095 H   0  0  0  0  0  0  0  0  0  0  0  0
  -21.2618  -12.9238    6.1411 H   0  0  0  0  0  0  0  0  0  0  0  0
  -19.3302  -10.7707    1.3895 H   0  0  0  0  0  0  0  0  0  0  0  0
  -17.8661  -11.4843    0.8000 H   0  0  0  0  0  0  0  0  0  0  0  0
  -18.5422   -6.6580    2.2771 H   0  0  0  0  0  0  0  0  0  0  0  0
  -18.2207   -6.7124    0.6975 H   0  0  0  0  0  0  0  0  0  0  0  0
  -16.1968   -6.5126    3.0629 H   0  0  0  0  0  0  0  0  0  0  0  0
  -15.8389   -5.8394    1.6390 H   0  0  0  0  0  0  0  0  0  0  0  0
  -15.2241   -8.6159    2.1875 H   0  0  0  0  0  0  0  0  0  0  0  0
  -15.4876   -8.3233    0.6243 H   0  0  0  0  0  0  0  0  0  0  0  0
  -18.7163   -8.9244    3.5336 H   0  0  0  0  0  0  0  0  0  0  0  0
  -17.0795   -8.9499    3.9724 H   0  0  0  0  0  0  0  0  0  0  0  0
  1  2  2  0
  2  3  1  0
  2 47  1  0
  3 16  1  0
  3  4  2  0
  4  5  1  0
  4 48  1  0
  5  6  2  0
  5 49  1  0
  6 27  1  0
  6  1  1  0
  7  8  2  0
  8  9  1  0
  8 50  1  0
  9 10  2  0
  9 51  1  0
 10 11  1  0
 10 52  1  0
 11 12  2  0
 11 53  1  0
 12  1  1  0
 12  7  1  0
 13 14  1  0
 13 54  1  0
 13 55  1  0
 13 56  1  0
 14 15  1  0
 14  7  1  0
 14 57  1  0
 15 58  1  0
 15 59  1  0
 15 60  1  0
 16 17  1  0
 16 61  1  0
 16 62  1  0
 17 18  2  0
 17 19  1  0
 19 21  1  0
 19 20  1  0
 21 22  2  0
 21 23  2  0
 21 24  1  0
 24 25  1  0
 24 26  1  0
 24 63  1  0
 25 64  1  0
 25 65  1  0
 25 66  1  0
 26 67  1  0
 26 68  1  0
 26 69  1  0
 27 28  1  0
 28 29  1  0
 28 70  1  6
 29 30  1  0
 29 71  1  0
 29 72  1  0
 30 31  1  0
 30 73  1  0
 30 74  1  0
 31 33  1  0
 31 32  1  0
 31 75  1  1
 32 28  1  0
 32 76  1  0
 32 77  1  0
 33 34  1  0
 33 36  1  0
 34 35  2  0
 34 37  1  0
 37 38  1  6
 37 39  1  0
 39 40  1  0
 39 78  1  0
 39 79  1  0
 40 41  1  0
 40 46  1  0
 41 42  1  0
 41 45  1  0
 42 43  1  0
 42 80  1  0
 42 81  1  0
 43 44  1  0
 43 82  1  0
 43 83  1  0
 44 41  1  0
 44 84  1  0
 44 85  1  0
 45 37  1  0
 45 86  1  0
 45 87  1  0
M  END
>  <minimizedAffinity>  (8) 
-8.29394

>  <mol_id>  (8) 
78328

>  <source_index>  (8) 
7

>  <layer>  (8) 
L3

>  <uniprot>  (8) 
Q92830

>  <paff>  (8) 
9.9586000000000006

>  <smiles>  (8) 
CC(C)c1ccccc1-c1cc(CC(=O)NS(=O)(=O)C(C)C)ccc1O[C@@H]1CC[C@@H](NC(=O)[C@@]2(F)CNC3(CCC3)C2)C1

$$$$
L3:Q92830:125008
     RDKit          3D

 86 93  0  0  0  0  0  0  0  0999 V2000
  -17.8089   -5.6911   13.4468 C   0  0  0  0  0  0  0  0  0  0  0  0
  -17.9710   -7.0729   13.5795 C   0  0  0  0  0  0  0  0  0  0  0  0
  -16.9510   -7.8593   14.1247 C   0  0  0  0  0  0  0  0  0  0  0  0
  -15.7500   -7.2734   14.5323 C   0  0  0  0  0  0  0  0  0  0  0  0
  -15.5710   -5.8791   14.4037 C   0  0  0  0  0  0  0  0  0  0  0  0
  -16.6109   -5.1027   13.8608 C   0  0  0  0  0  0  0  0  0  0  0  0
  -14.3157   -5.2186   14.8095 C   0  0  0  0  0  0  0  0  0  0  0  0
  -13.1077   -5.6831   14.2458 C   0  0  0  0  0  0  0  0  0  0  0  0
  -11.8876   -5.1094   14.5849 C   0  0  0  0  0  0  0  0  0  0  0  0
  -11.8633   -4.0654   15.4959 C   0  0  0  0  0  0  0  0  0  0  0  0
  -13.0542   -3.6034   16.0579 C   0  0  0  0  0  0  0  0  0  0  0  0
  -12.9564   -2.5993   16.9415 F   0  0  0  0  0  0  0  0  0  0  0  0
  -14.3194   -4.1440   15.7473 C   0  0  0  0  0  0  0  0  0  0  0  0
  -15.6889   -3.6085   16.4064 C   0  0  0  0  0  0  0  0  0  0  0  0
  -15.6501   -3.2507   17.9211 C   0  0  0  0  0  0  0  0  0  0  0  0
  -15.5748   -1.7673   17.5194 C   0  0  0  0  0  0  0  0  0  0  0  0
  -16.2012   -2.1616   16.1701 C   0  0  0  0  0  0  0  0  0  0  0  0
  -19.3634   -4.7692   11.5330 C   0  0  0  0  0  0  0  0  0  0  0  0
  -20.3834   -3.8851   11.4853 N   0  0  0  0  0  0  0  0  0  0  0  0
  -20.5245   -3.4744   12.7479 N   0  0  0  0  0  0  0  0  0  0  0  0
  -19.6340   -4.0162   13.6177 C   0  0  0  0  0  0  0  0  0  0  0  0
  -18.8618   -4.8804   12.8702 C   0  0  0  0  0  0  0  0  0  0  0  0
  -18.4679   -4.9277    9.3107 O   0  0  0  0  0  0  0  0  0  0  0  0
  -18.8795   -5.4622   10.3330 C   0  0  0  0  0  0  0  0  0  0  0  0
  -18.9051   -6.8172   10.3974 O   0  0  0  0  0  0  0  0  0  0  0  0
  -18.5576   -7.0931    9.5276 H   0  0  0  0  0  0  0  0  0  0  0  0
  -21.5451   -2.4803   13.1386 C   0  0  0  0  0  0  0  0  0  0  0  0
  -21.4109   -1.6498   14.3937 C   0  0  0  0  0  0  0  0  0  0  0  0
  -21.2990   -0.9918   13.0509 C   0  0  0  0  0  0  0  0  0  0  0  0
  -14.7026   -7.9628   15.0853 O   0  0  0  0  0  0  0  0  0  0  0  0
  -14.7651   -9.3878   15.1498 C   0  0  2  0  0  0  0  0  0  0  0  0
  -14.2157   -9.8022   16.5150 C   0  0  0  0  0  0  0  0  0  0  0  0
  -12.7003   -9.6594   16.3748 C   0  0  0  0  0  0  0  0  0  0  0  0
  -12.4051   -9.8149   14.8769 C   0  0  2  0  0  0  0  0  0  0  0  0
  -13.7643  -10.0458   14.2046 C   0  0  0  0  0  0  0  0  0  0  0  0
  -11.4722  -10.8900   14.6038 N   0  0  0  0  0  0  0  0  0  0  0  0
  -10.5126  -10.7960   13.6109 C   0  0  0  0  0  0  0  0  0  0  0  0
  -10.3916   -9.8116   12.8885 O   0  0  0  0  0  0  0  0  0  0  0  0
  -11.5646  -11.7777   15.0876 H   0  0  0  0  0  0  0  0  0  0  0  0
   -9.5969  -12.0148   13.5522 C   0  0  1  0  0  0  0  0  0  0  0  0
   -9.0060  -12.1275   12.3180 F   0  0  0  0  0  0  0  0  0  0  0  0
   -8.5158  -12.0246   14.6289 C   0  0  0  0  0  0  0  0  0  0  0  0
   -8.1695  -13.4416   14.8932 N   0  0  0  0  0  0  0  0  0  0  0  0
   -9.2451  -14.2307   14.2530 C   0  0  0  0  0  0  0  0  0  0  0  0
   -8.6174  -15.2018   13.2164 C   0  0  0  0  0  0  0  0  0  0  0  0
   -8.4782  -16.2465   14.3441 C   0  0  0  0  0  0  0  0  0  0  0  0
   -9.5549  -15.4669   15.1290 C   0  0  0  0  0  0  0  0  0  0  0  0
  -10.3552  -13.3013   13.8226 C   0  0  0  0  0  0  0  0  0  0  0  0
   -7.2322  -13.6234   14.5323 H   0  0  0  0  0  0  0  0  0  0  0  0
  -18.8507   -7.5167   13.2726 H   0  0  0  0  0  0  0  0  0  0  0  0
  -17.0862   -8.8773   14.2264 H   0  0  0  0  0  0  0  0  0  0  0  0
  -16.4871   -4.0825   13.7668 H   0  0  0  0  0  0  0  0  0  0  0  0
  -13.1307   -6.4626   13.5698 H   0  0  0  0  0  0  0  0  0  0  0  0
  -11.0116   -5.4564   14.1638 H   0  0  0  0  0  0  0  0  0  0  0  0
  -10.9653   -3.6299   15.7585 H   0  0  0  0  0  0  0  0  0  0  0  0
  -16.2317   -4.4344   15.9963 H   0  0  0  0  0  0  0  0  0  0  0  0
  -14.7881   -3.6139   18.4407 H   0  0  0  0  0  0  0  0  0  0  0  0
  -16.3992   -3.6073   18.5968 H   0  0  0  0  0  0  0  0  0  0  0  0
  -14.5818   -1.3745   17.4513 H   0  0  0  0  0  0  0  0  0  0  0  0
  -15.9998   -0.9991   18.1311 H   0  0  0  0  0  0  0  0  0  0  0  0
  -15.7705   -1.6721   15.3217 H   0  0  0  0  0  0  0  0  0  0  0  0
  -17.2310   -1.9646   15.9568 H   0  0  0  0  0  0  0  0  0  0  0  0
  -19.5520   -3.8218   14.6279 H   0  0  0  0  0  0  0  0  0  0  0  0
  -22.2788   -3.1511   12.7430 H   0  0  0  0  0  0  0  0  0  0  0  0
  -20.5439   -1.7526   15.0122 H   0  0  0  0  0  0  0  0  0  0  0  0
  -22.0140   -1.4930   15.2635 H   0  0  0  0  0  0  0  0  0  0  0  0
  -20.3522   -0.6258   12.7125 H   0  0  0  0  0  0  0  0  0  0  0  0
  -21.7894   -0.1724   12.5682 H   0  0  0  0  0  0  0  0  0  0  0  0
  -15.7742   -9.6695   14.9323 H   0  0  0  0  0  0  0  0  0  0  0  0
  -14.4815  -10.8142   16.7387 H   0  0  0  0  0  0  0  0  0  0  0  0
  -14.6095   -9.2055   17.3111 H   0  0  0  0  0  0  0  0  0  0  0  0
  -12.2004  -10.4220   16.9347 H   0  0  0  0  0  0  0  0  0  0  0  0
  -12.3561   -8.7181   16.7494 H   0  0  0  0  0  0  0  0  0  0  0  0
  -11.9244   -8.9405   14.4907 H   0  0  0  0  0  0  0  0  0  0  0  0
  -13.9663  -11.0919   14.1062 H   0  0  0  0  0  0  0  0  0  0  0  0
  -13.8067   -9.6403   13.2153 H   0  0  0  0  0  0  0  0  0  0  0  0
   -8.8844  -11.5650   15.5221 H   0  0  0  0  0  0  0  0  0  0  0  0
   -7.6545  -11.4781   14.3058 H   0  0  0  0  0  0  0  0  0  0  0  0
   -7.6879  -14.8689   12.8039 H   0  0  0  0  0  0  0  0  0  0  0  0
   -9.1189  -15.4366   12.3008 H   0  0  0  0  0  0  0  0  0  0  0  0
   -7.5164  -16.2689   14.8124 H   0  0  0  0  0  0  0  0  0  0  0  0
   -8.5786  -17.2939   14.1497 H   0  0  0  0  0  0  0  0  0  0  0  0
   -9.3373  -15.3377   16.1686 H   0  0  0  0  0  0  0  0  0  0  0  0
  -10.5523  -15.8429   15.2225 H   0  0  0  0  0  0  0  0  0  0  0  0
  -11.0779  -13.1712   14.6009 H   0  0  0  0  0  0  0  0  0  0  0  0
  -10.9171  -13.6570   12.9844 H   0  0  0  0  0  0  0  0  0  0  0  0
  1  2  2  0
  2  3  1  0
  2 50  1  0
  3  4  2  0
  3 51  1  0
  4 30  1  0
  4  5  1  0
  5  7  1  0
  5  6  2  0
  6  1  1  0
  6 52  1  0
  7  8  2  0
  8  9  1  0
  8 53  1  0
  9 10  2  0
  9 54  1  0
 10 11  1  0
 10 55  1  0
 11 12  1  0
 11 13  2  0
 13 14  1  0
 13  7  1  0
 14 15  1  0
 14 56  1  0
 15 16  1  0
 15 57  1  0
 15 58  1  0
 16 17  1  0
 16 59  1  0
 16 60  1  0
 17 14  1  0
 17 61  1  0
 17 62  1  0
 18 19  2  0
 19 20  1  0
 20 27  1  0
 20 21  1  0
 21 22  2  0
 21 63  1  0
 22  1  1  0
 22 18  1  0
 23 24  2  0
 24 25  1  0
 24 18  1  0
 25 26  1  0
 27 28  1  0
 27 64  1  0
 28 29  1  0
 28 65  1  0
 28 66  1  0
 29 27  1  0
 29 67  1  0
 29 68  1  0
 30 31  1  0
 31 32  1  0
 31 69  1  6
 32 33  1  0
 32 70  1  0
 32 71  1  0
 33 34  1  0
 33 72  1  0
 33 73  1  0
 34 36  1  0
 34 35  1  0
 34 74  1  6
 35 31  1  0
 35 75  1  0
 35 76  1  0
 36 37  1  0
 36 39  1  0
 37 38  2  0
 37 40  1  0
 40 41  1  6
 40 42  1  0
 42 43  1  0
 42 77  1  0
 42 78  1  0
 43 44  1  0
 43 49  1  0
 44 45  1  0
 44 48  1  0
 45 46  1  0
 45 79  1  0
 45 80  1  0
 46 47  1  0
 46 81  1  0
 46 82  1  0
 47 44  1  0
 47 83  1  0
 47 84  1  0
 48 40  1  0
 48 85  1  0
 48 86  1  0
M  END
>  <minimizedAffinity>  (9) 
-8.55964

>  <mol_id>  (9) 
125008

>  <source_index>  (9) 
8

>  <layer>  (9) 
L3

>  <uniprot>  (9) 
Q92830

>  <paff>  (9) 
10.0969

>  <smiles>  (9) 
O=C(O)c1nn(C2CC2)cc1-c1ccc(O[C@@H]2CC[C@@H](NC(=O)[C@@]3(F)CNC4(CCC4)C3)C2)c(-c2cccc(F)c2C2CCC2)c1

$$$$
L3:Q92830:127198
     RDKit          3D

 83 87  0  0  0  0  0  0  0  0999 V2000
  -21.3077   -9.5560    7.8639 C   0  0  0  0  0  0  0  0  0  0  0  0
  -21.6350   -8.2793    7.4077 C   0  0  0  0  0  0  0  0  0  0  0  0
  -21.2048   -7.1483    8.1062 C   0  0  0  0  0  0  0  0  0  0  0  0
  -20.4612   -7.2702    9.2883 C   0  0  0  0  0  0  0  0  0  0  0  0
  -20.1796   -8.5738    9.7522 C   0  0  0  0  0  0  0  0  0  0  0  0
  -20.5842   -9.7290    9.0550 C   0  0  0  0  0  0  0  0  0  0  0  0
  -20.2558  -11.0655    9.5939 C   0  0  0  0  0  0  0  0  0  0  0  0
  -18.9822  -11.6046    9.3016 C   0  0  0  0  0  0  0  0  0  0  0  0
  -18.6022  -12.8613    9.7598 C   0  0  0  0  0  0  0  0  0  0  0  0
  -19.4950  -13.6005   10.5170 C   0  0  0  0  0  0  0  0  0  0  0  0
  -20.7541  -13.0775   10.8115 C   0  0  0  0  0  0  0  0  0  0  0  0
  -21.5709  -13.8455   11.5471 F   0  0  0  0  0  0  0  0  0  0  0  0
  -21.1914  -11.8069   10.3775 C   0  0  0  0  0  0  0  0  0  0  0  0
  -22.6519  -11.2298   10.7414 C   0  0  0  0  0  0  0  0  0  0  0  0
  -23.8569  -11.7293    9.8973 C   0  0  0  0  0  0  0  0  0  0  0  0
  -24.2765  -12.6148   11.0806 C   0  0  0  0  0  0  0  0  0  0  0  0
  -23.4231  -11.7197   11.9951 C   0  0  0  0  0  0  0  0  0  0  0  0
  -19.9719   -6.0549   10.0948 C   0  0  0  0  0  0  0  0  0  0  0  0
  -19.1631   -5.1316    9.1580 C   0  0  0  0  0  0  0  0  0  0  0  0
  -19.0567   -6.4034   11.2888 C   0  0  0  0  0  0  0  0  0  0  0  0
  -21.1646   -5.2707   10.6596 C   0  0  0  0  0  0  0  0  0  0  0  0
  -22.1231   -4.8436   10.0339 O   0  0  0  0  0  0  0  0  0  0  0  0
  -21.1099   -5.0891   11.9965 O   0  0  0  0  0  0  0  0  0  0  0  0
  -21.9404   -4.6138   12.2073 H   0  0  0  0  0  0  0  0  0  0  0  0
  -21.7855  -10.6451    7.1900 O   0  0  0  0  0  0  0  0  0  0  0  0
  -19.3646  -11.8630    4.7720 C   0  0  2  0  0  0  0  0  0  0  0  0
  -20.6421  -12.1602    3.9882 C   0  0  0  0  0  0  0  0  0  0  0  0
  -21.7191  -12.0757    5.0572 C   0  0  0  0  0  0  0  0  0  0  0  0
  -21.2992  -10.8409    5.8617 C   0  0  2  0  0  0  0  0  0  0  0  0
  -19.7655  -10.8025    5.8029 C   0  0  0  0  0  0  0  0  0  0  0  0
  -17.3905  -12.3426    3.3628 C   0  0  0  0  0  0  0  0  0  0  0  0
  -17.4509  -13.5492    3.5850 O   0  0  0  0  0  0  0  0  0  0  0  0
  -18.2785  -11.4367    3.9168 N   0  0  0  0  0  0  0  0  0  0  0  0
  -18.1817  -10.4569    3.6808 H   0  0  0  0  0  0  0  0  0  0  0  0
  -16.8197  -13.5267    0.5120 H   0  0  0  0  0  0  0  0  0  0  0  0
  -17.4340  -12.6213    0.4651 C   0  0  0  0  0  0  0  0  0  0  0  0
  -18.4030  -12.8301    0.9311 H   0  0  0  0  0  0  0  0  0  0  0  0
  -17.6144  -12.4200   -0.5968 H   0  0  0  0  0  0  0  0  0  0  0  0
  -16.7373  -11.4994    1.0708 N   0  0  0  0  0  0  0  0  0  0  0  0
  -17.5348  -10.2706    1.0649 C   0  0  0  0  0  0  0  0  0  0  0  0
  -16.6843   -9.3185    1.9179 C   0  0  0  0  0  0  0  0  0  0  0  0
  -17.5530   -8.2567    2.5967 C   0  0  0  0  0  0  0  0  0  0  0  0
  -15.6157   -8.6210    1.0557 C   0  0  0  0  0  0  0  0  0  0  0  0
  -16.0070  -10.2526    2.9458 C   0  0  0  0  0  0  0  0  0  0  0  0
  -16.3079  -11.6831    2.4754 C   0  0  1  0  0  0  0  0  0  0  0  0
  -22.1979   -8.1694    6.5497 H   0  0  0  0  0  0  0  0  0  0  0  0
  -21.4379   -6.2095    7.7466 H   0  0  0  0  0  0  0  0  0  0  0  0
  -19.6576   -8.6844   10.6355 H   0  0  0  0  0  0  0  0  0  0  0  0
  -18.3191  -11.0528    8.7351 H   0  0  0  0  0  0  0  0  0  0  0  0
  -17.6672  -13.2379    9.5384 H   0  0  0  0  0  0  0  0  0  0  0  0
  -19.2296  -14.5360   10.8626 H   0  0  0  0  0  0  0  0  0  0  0  0
  -22.2823  -10.2265   10.7019 H   0  0  0  0  0  0  0  0  0  0  0  0
  -23.5841  -12.2708    9.0157 H   0  0  0  0  0  0  0  0  0  0  0  0
  -24.5437  -11.0393    9.4534 H   0  0  0  0  0  0  0  0  0  0  0  0
  -23.9418  -13.6290   11.0157 H   0  0  0  0  0  0  0  0  0  0  0  0
  -25.3076  -12.8050   11.2942 H   0  0  0  0  0  0  0  0  0  0  0  0
  -22.8231  -12.2548   12.7012 H   0  0  0  0  0  0  0  0  0  0  0  0
  -23.8793  -11.0248   12.6688 H   0  0  0  0  0  0  0  0  0  0  0  0
  -18.3290   -5.6703    8.7593 H   0  0  0  0  0  0  0  0  0  0  0  0
  -18.8104   -4.2849    9.7091 H   0  0  0  0  0  0  0  0  0  0  0  0
  -19.7894   -4.7997    8.3564 H   0  0  0  0  0  0  0  0  0  0  0  0
  -18.2080   -6.9533   10.9391 H   0  0  0  0  0  0  0  0  0  0  0  0
  -19.6005   -6.9970   11.9937 H   0  0  0  0  0  0  0  0  0  0  0  0
  -18.7274   -5.5014   11.7610 H   0  0  0  0  0  0  0  0  0  0  0  0
  -18.9805  -12.7401    5.2496 H   0  0  0  0  0  0  0  0  0  0  0  0
  -20.6082  -13.1364    3.5514 H   0  0  0  0  0  0  0  0  0  0  0  0
  -20.8032  -11.4897    3.1700 H   0  0  0  0  0  0  0  0  0  0  0  0
  -21.7236  -12.9525    5.6705 H   0  0  0  0  0  0  0  0  0  0  0  0
  -22.7092  -12.0056    4.6577 H   0  0  0  0  0  0  0  0  0  0  0  0
  -21.7920  -10.0158    5.3914 H   0  0  0  0  0  0  0  0  0  0  0  0
  -19.3493  -11.0366    6.7604 H   0  0  0  0  0  0  0  0  0  0  0  0
  -19.4043   -9.8322    5.5329 H   0  0  0  0  0  0  0  0  0  0  0  0
  -18.4960  -10.4313    1.5066 H   0  0  0  0  0  0  0  0  0  0  0  0
  -17.7368   -9.8979    0.0825 H   0  0  0  0  0  0  0  0  0  0  0  0
  -18.0018   -7.6334    1.8517 H   0  0  0  0  0  0  0  0  0  0  0  0
  -16.9453   -7.6587    3.2432 H   0  0  0  0  0  0  0  0  0  0  0  0
  -18.3192   -8.7357    3.1697 H   0  0  0  0  0  0  0  0  0  0  0  0
  -16.0936   -7.9768    0.3475 H   0  0  0  0  0  0  0  0  0  0  0  0
  -15.0401   -9.3580    0.5358 H   0  0  0  0  0  0  0  0  0  0  0  0
  -14.9710   -8.0435    1.6848 H   0  0  0  0  0  0  0  0  0  0  0  0
  -16.4130  -10.0886    3.9221 H   0  0  0  0  0  0  0  0  0  0  0  0
  -14.9541  -10.0721    3.0072 H   0  0  0  0  0  0  0  0  0  0  0  0
  -15.4715  -12.3464    2.5482 H   0  0  0  0  0  0  0  0  0  0  0  0
  1  2  2  0
  2  3  1  0
  2 46  1  0
  3  4  2  0
  3 47  1  0
  4 18  1  0
  4  5  1  0
  5  6  2  0
  5 48  1  0
  6  7  1  0
  6  1  1  0
  7  8  2  0
  8  9  1  0
  8 49  1  0
  9 10  2  0
  9 50  1  0
 10 11  1  0
 10 51  1  0
 11 12  1  0
 11 13  2  0
 13 14  1  0
 13  7  1  0
 14 15  1  0
 14 52  1  0
 15 16  1  0
 15 53  1  0
 15 54  1  0
 16 17  1  0
 16 55  1  0
 16 56  1  0
 17 14  1  0
 17 57  1  0
 17 58  1  0
 18 19  1  0
 18 20  1  0
 18 21  1  0
 19 59  1  0
 19 60  1  0
 19 61  1  0
 20 62  1  0
 20 63  1  0
 20 64  1  0
 21 22  2  0
 21 23  1  0
 23 24  1  0
 25  1  1  0
 26 27  1  0
 26 65  1  1
 27 28  1  0
 27 66  1  0
 27 67  1  0
 28 29  1  0
 28 68  1  0
 28 69  1  0
 29 25  1  0
 29 30  1  0
 29 70  1  6
 30 26  1  0
 30 71  1  0
 30 72  1  0
 31 32  2  0
 31 33  1  0
 33 26  1  0
 33 34  1  0
 35 36  1  0
 36 37  1  0
 36 38  1  0
 36 39  1  0
 39 40  1  0
 40 41  1  0
 40 73  1  0
 40 74  1  0
 41 42  1  0
 41 43  1  0
 41 44  1  0
 42 75  1  0
 42 76  1  0
 42 77  1  0
 43 78  1  0
 43 79  1  0
 43 80  1  0
 44 45  1  0
 44 81  1  0
 44 82  1  0
 45 31  1  0
 45 39  1  0
 45 83  1  6
M  ISO  3  35   2  37   2  38   2
M  END
>  <minimizedAffinity>  (10) 
-7.94658

>  <mol_id>  (10) 
127198

>  <source_index>  (10) 
9

>  <layer>  (10) 
L3

>  <uniprot>  (10) 
Q92830

>  <paff>  (10) 
8.0520999999999994

>  <smiles>  (10) 
[2H]C([2H])([2H])N1CC(C)(C)C[C@H]1C(=O)N[C@@H]1CC[C@@H](Oc2ccc(C(C)(C)C(=O)O)cc2-c2cccc(F)c2C2CCC2)C1

$$$$
