L1:P49759:474
     RDKit          3D

 39 42  0  0  0  0  0  0  0  0999 V2000
   35.9989   30.8280    1.2348 C   0  0  0  0  0  0  0  0  0  0  0  0
   37.3272   30.9274    0.5604 C   0  0  0  0  0  0  0  0  0  0  0  0
   38.4198   31.6063    1.1092 C   0  0  0  0  0  0  0  0  0  0  0  0
   38.2202   32.3542    2.8604 Br  0  0  0  0  0  0  0  0  0  0  0  0
   39.6488   31.7734    0.4312 C   0  0  0  0  0  0  0  0  0  0  0  0
   41.1251   32.6774    1.2271 Br  0  0  0  0  0  0  0  0  0  0  0  0
   39.8215   31.2680   -0.8507 C   0  0  0  0  0  0  0  0  0  0  0  0
   38.7322   30.6130   -1.3707 C   0  0  0  0  0  0  0  0  0  0  0  0
   37.5262   30.3782   -0.7100 C   0  0  0  0  0  0  0  0  0  0  0  0
   36.6951   29.6043   -1.5233 N   0  0  0  0  0  0  0  0  0  0  0  0
   37.3636   29.4617   -2.6531 C   0  0  0  0  0  0  0  0  0  0  0  0
   38.6089   30.0526   -2.6260 N   0  0  0  0  0  0  0  0  0  0  0  0
   39.6813   30.2208   -3.5937 C   0  0  0  0  0  0  0  0  0  0  0  0
   40.9967   30.2860   -2.8279 C   0  0  0  0  0  0  0  0  0  0  0  0
   41.0263   31.3482   -1.7241 C   0  0  0  0  0  0  0  0  0  0  0  0
   36.9388   28.7977   -3.7735 N   0  0  0  0  0  0  0  0  0  0  0  0
   35.6953   28.0481   -3.6236 C   0  0  0  0  0  0  0  0  0  0  0  0
   35.3664   27.2889   -4.8970 C   0  0  0  0  0  0  0  0  0  0  0  0
   35.2449   28.1509   -6.0553 N   0  0  0  0  0  0  0  0  0  0  0  0
   35.7835   29.4919   -5.8438 C   0  0  0  0  0  0  0  0  0  0  0  0
   37.0830   29.4856   -5.0778 C   0  0  0  0  0  0  0  0  0  0  0  0
   35.6796   27.7536   -6.8761 H   0  0  0  0  0  0  0  0  0  0  0  0
   36.0735   30.4062    2.2353 H   0  0  0  0  0  0  0  0  0  0  0  0
   35.3390   30.2057    0.6375 H   0  0  0  0  0  0  0  0  0  0  0  0
   35.5512   31.8164    1.3375 H   0  0  0  0  0  0  0  0  0  0  0  0
   39.5055   31.1279   -4.1667 H   0  0  0  0  0  0  0  0  0  0  0  0
   39.6878   29.3957   -4.3001 H   0  0  0  0  0  0  0  0  0  0  0  0
   41.8082   30.4486   -3.5336 H   0  0  0  0  0  0  0  0  0  0  0  0
   41.1696   29.3109   -2.3763 H   0  0  0  0  0  0  0  0  0  0  0  0
   41.0870   32.3419   -2.1582 H   0  0  0  0  0  0  0  0  0  0  0  0
   41.9286   31.2335   -1.1336 H   0  0  0  0  0  0  0  0  0  0  0  0
   34.8698   28.7141   -3.3665 H   0  0  0  0  0  0  0  0  0  0  0  0
   35.8053   27.3605   -2.7898 H   0  0  0  0  0  0  0  0  0  0  0  0
   34.4314   26.7506   -4.7272 H   0  0  0  0  0  0  0  0  0  0  0  0
   36.1402   26.5205   -5.0522 H   0  0  0  0  0  0  0  0  0  0  0  0
   35.0612   30.1089   -5.3099 H   0  0  0  0  0  0  0  0  0  0  0  0
   35.9600   29.9667   -6.8040 H   0  0  0  0  0  0  0  0  0  0  0  0
   37.3899   30.5106   -4.9035 H   0  0  0  0  0  0  0  0  0  0  0  0
   37.8630   29.0052   -5.6757 H   0  0  0  0  0  0  0  0  0  0  0  0
  1  2  1  0
  1 23  1  0
  1 24  1  0
  1 25  1  0
  2  3  2  0
  3  4  1  0
  3  5  1  0
  5  6  1  0
  5  7  2  0
  7  8  1  0
  8  9  2  0
  9 10  1  0
  9  2  1  0
 10 11  2  0
 11 16  1  0
 11 12  1  0
 12 13  1  0
 12  8  1  0
 13 14  1  0
 13 26  1  0
 13 27  1  0
 14 15  1  0
 14 28  1  0
 14 29  1  0
 15  7  1  0
 15 30  1  0
 15 31  1  0
 16 17  1  0
 17 18  1  0
 17 32  1  0
 17 33  1  0
 18 19  1  0
 18 34  1  0
 18 35  1  0
 19 20  1  0
 19 22  1  0
 20 21  1  0
 20 36  1  0
 20 37  1  0
 21 16  1  0
 21 38  1  0
 21 39  1  0
M  END
>  <minimizedAffinity>  (1) 
-8.35501

>  <mol_id>  (1) 
474

>  <source_index>  (1) 
0

>  <layer>  (1) 
L1

>  <uniprot>  (1) 
P49759

>  <paff>  (1) 
8.2757000000000005

>  <smiles>  (1) 
Cc1c(Br)c(Br)c2CCCn3c(nc1c23)N1CCNCC1

>  <aimnet_interaction_kcal_mol>  (1) 
-51.362876510926817

$$$$
L1:P49759:1812
     RDKit          3D

 61 68  0  0  0  0  0  0  0  0999 V2000
   33.6196   30.5366   -2.5414 C   0  0  2  0  0  0  0  0  0  0  0  0
   33.1782   30.0008   -1.1873 C   0  0  0  0  0  0  0  0  0  0  0  0
   34.3334   29.4664   -0.3678 C   0  0  1  0  0  0  0  0  0  0  0  0
   35.0739   28.4932   -1.0885 O   0  0  0  0  0  0  0  0  0  0  0  0
   35.5059   28.7593   -2.4258 C   0  0  1  0  0  0  0  0  0  0  0  0
   35.7703   27.3688   -2.9745 C   0  0  0  0  0  0  0  0  0  0  0  0
   34.3879   29.4214   -3.2530 C   0  0  2  0  0  0  0  0  0  0  0  0
   36.7615   29.5308   -2.4316 N   0  0  0  0  0  0  0  0  0  0  0  0
   37.8527   29.3367   -3.3075 C   0  0  0  0  0  0  0  0  0  0  0  0
   37.9083   28.8391   -4.6087 C   0  0  0  0  0  0  0  0  0  0  0  0
   39.1623   28.7022   -5.2015 C   0  0  0  0  0  0  0  0  0  0  0  0
   40.3390   29.0504   -4.5155 C   0  0  0  0  0  0  0  0  0  0  0  0
   40.2629   29.6589   -3.2714 C   0  0  0  0  0  0  0  0  0  0  0  0
   39.0183   29.8459   -2.6734 C   0  0  0  0  0  0  0  0  0  0  0  0
   38.5995   30.4804   -1.4475 C   0  0  0  0  0  0  0  0  0  0  0  0
   39.2379   31.2563   -0.4766 C   0  0  0  0  0  0  0  0  0  0  0  0
   38.5724   31.6683    0.6598 C   0  0  0  0  0  0  0  0  0  0  0  0
   37.2021   31.4204    0.8114 C   0  0  0  0  0  0  0  0  0  0  0  0
   36.1997   31.7823    1.7841 C   0  0  0  0  0  0  0  0  0  0  0  0
   36.2016   32.6403    2.8772 C   0  0  0  0  0  0  0  0  0  0  0  0
   35.0175   32.8216    3.5719 C   0  0  0  0  0  0  0  0  0  0  0  0
   33.8448   32.1633    3.1941 C   0  0  0  0  0  0  0  0  0  0  0  0
   33.8087   31.3176    2.0994 C   0  0  0  0  0  0  0  0  0  0  0  0
   34.9855   31.1619    1.3787 C   0  0  0  0  0  0  0  0  0  0  0  0
   35.2155   30.4900    0.1753 N   0  0  0  0  0  0  0  0  0  0  0  0
   36.5458   30.6677   -0.1788 C   0  0  0  0  0  0  0  0  0  0  0  0
   37.2166   30.2308   -1.3165 C   0  0  0  0  0  0  0  0  0  0  0  0
   39.5374   32.4092    1.5391 C   0  0  0  0  0  0  0  0  0  0  0  0
   39.3762   32.7966    2.6905 O   0  0  0  0  0  0  0  0  0  0  0  0
   40.6742   32.5348    0.8011 N   0  0  0  0  0  0  0  0  0  0  0  0
   40.6404   31.8068   -0.4554 C   0  0  0  0  0  0  0  0  0  0  0  0
   41.4957   32.9675    1.1987 H   0  0  0  0  0  0  0  0  0  0  0  0
   33.6108   32.8642   -1.8480 C   0  0  0  0  0  0  0  0  0  0  0  0
   34.3261   31.7927   -2.5106 N   0  0  0  0  0  0  0  0  0  0  0  0
   35.2613   31.6742   -2.1469 H   0  0  0  0  0  0  0  0  0  0  0  0
   34.9545   29.7611   -4.4821 O   0  0  0  0  0  0  0  0  0  0  0  0
   34.0578   30.3786   -5.4036 C   0  0  0  0  0  0  0  0  0  0  0  0
   32.7156   30.6886   -3.1396 H   0  0  0  0  0  0  0  0  0  0  0  0
   32.4793   29.1758   -1.3322 H   0  0  0  0  0  0  0  0  0  0  0  0
   32.6450   30.7689   -0.6348 H   0  0  0  0  0  0  0  0  0  0  0  0
   33.9455   28.9095    0.4853 H   0  0  0  0  0  0  0  0  0  0  0  0
   34.9320   26.7358   -2.7095 H   0  0  0  0  0  0  0  0  0  0  0  0
   36.6711   26.9708   -2.5198 H   0  0  0  0  0  0  0  0  0  0  0  0
   35.8668   27.3702   -4.0521 H   0  0  0  0  0  0  0  0  0  0  0  0
   33.6543   28.6094   -3.4005 H   0  0  0  0  0  0  0  0  0  0  0  0
   37.0036   28.6916   -5.1734 H   0  0  0  0  0  0  0  0  0  0  0  0
   39.2340   28.4971   -6.2671 H   0  0  0  0  0  0  0  0  0  0  0  0
   41.2939   28.8930   -5.0073 H   0  0  0  0  0  0  0  0  0  0  0  0
   41.1707   29.9960   -2.7934 H   0  0  0  0  0  0  0  0  0  0  0  0
   37.0915   33.1814    3.1591 H   0  0  0  0  0  0  0  0  0  0  0  0
   34.9980   33.5161    4.3982 H   0  0  0  0  0  0  0  0  0  0  0  0
   32.9381   32.3256    3.7565 H   0  0  0  0  0  0  0  0  0  0  0  0
   32.8876   30.8246    1.8282 H   0  0  0  0  0  0  0  0  0  0  0  0
   41.3856   31.0103   -0.4963 H   0  0  0  0  0  0  0  0  0  0  0  0
   40.8209   32.4587   -1.3106 H   0  0  0  0  0  0  0  0  0  0  0  0
   32.5496   32.8627   -2.1176 H   0  0  0  0  0  0  0  0  0  0  0  0
   34.0186   33.7869   -2.2200 H   0  0  0  0  0  0  0  0  0  0  0  0
   33.6780   32.8605   -0.7552 H   0  0  0  0  0  0  0  0  0  0  0  0
   34.5827   30.4545   -6.3490 H   0  0  0  0  0  0  0  0  0  0  0  0
   33.7868   31.3798   -5.0783 H   0  0  0  0  0  0  0  0  0  0  0  0
   33.1518   29.7710   -5.5320 H   0  0  0  0  0  0  0  0  0  0  0  0
  1  2  1  0
  1 38  1  6
  2  3  1  0
  2 39  1  0
  2 40  1  0
  3  4  1  0
  3 41  1  1
  4  5  1  0
  5  6  1  6
  5  7  1  0
  5  8  1  0
  6 42  1  0
  6 43  1  0
  6 44  1  0
  7 36  1  0
  7  1  1  0
  7 45  1  6
  8  9  1  0
  9 10  2  0
 10 11  1  0
 10 46  1  0
 11 12  2  0
 11 47  1  0
 12 13  1  0
 12 48  1  0
 13 14  2  0
 13 49  1  0
 14 15  1  0
 14  9  1  0
 15 16  2  0
 16 17  1  0
 17 18  2  0
 17 28  1  0
 18 19  1  0
 19 20  2  0
 20 21  1  0
 20 50  1  0
 21 22  2  0
 21 51  1  0
 22 23  1  0
 22 52  1  0
 23 24  2  0
 23 53  1  0
 24 25  1  0
 24 19  1  0
 25 26  1  0
 25  3  1  0
 26 27  2  0
 26 18  1  0
 27  8  1  0
 27 15  1  0
 28 29  2  0
 28 30  1  0
 30 31  1  0
 30 32  1  0
 31 16  1  0
 31 54  1  0
 31 55  1  0
 33 34  1  0
 33 56  1  0
 33 57  1  0
 33 58  1  0
 34  1  1  0
 34 35  1  0
 36 37  1  0
 37 59  1  0
 37 60  1  0
 37 61  1  0
M  END
>  <minimizedAffinity>  (2) 
-11.34079

>  <mol_id>  (2) 
1812

>  <source_index>  (2) 
1

>  <layer>  (2) 
L1

>  <uniprot>  (2) 
P49759

>  <paff>  (2) 
9

>  <smiles>  (2) 
C[C@@]12[C@@H]([C@@H](C[C@@H](O1)n3c4ccccc4c5c3c6n2c7ccccc7c6c8c5C(=O)NC8)NC)OC

>  <aimnet_interaction_kcal_mol>  (2) 
-65.926729594156697

$$$$
L1:P49759:1813
     RDKit          3D

 69 73  0  0  0  0  0  0  0  0999 V2000
   34.0599   33.4745    2.6956 N   0  0  0  0  0  0  0  0  0  0  0  0
   33.2270   33.0814    3.7219 C   0  0  0  0  0  0  0  0  0  0  0  0
   33.5518   32.2174    4.5301 O   0  0  0  0  0  0  0  0  0  0  0  0
   32.0184   33.7573    3.7298 N   0  0  0  0  0  0  0  0  0  0  0  0
   34.1090   34.4541    2.4408 H   0  0  0  0  0  0  0  0  0  0  0  0
   31.6745   34.0846    2.7939 H   0  0  0  0  0  0  0  0  0  0  0  0
   37.4030   31.2856    1.4701 C   0  0  0  0  0  0  0  0  0  0  0  0
   36.2711   31.3001    0.6761 C   0  0  0  0  0  0  0  0  0  0  0  0
   35.1509   31.9775    1.1239 C   0  0  0  0  0  0  0  0  0  0  0  0
   35.1627   32.6752    2.3261 C   0  0  0  0  0  0  0  0  0  0  0  0
   36.3110   32.6129    3.1113 C   0  0  0  0  0  0  0  0  0  0  0  0
   36.3405   33.2185    4.3102 F   0  0  0  0  0  0  0  0  0  0  0  0
   37.4381   31.9378    2.6866 C   0  0  0  0  0  0  0  0  0  0  0  0
   38.4786   30.4875    1.0882 O   0  0  0  0  0  0  0  0  0  0  0  0
   40.7341   31.0655   -1.6883 C   0  0  0  0  0  0  0  0  0  0  0  0
   39.6394   30.6068   -0.9707 C   0  0  0  0  0  0  0  0  0  0  0  0
   39.4777   31.0556    0.3346 C   0  0  0  0  0  0  0  0  0  0  0  0
   40.3707   31.9713    0.8471 C   0  0  0  0  0  0  0  0  0  0  0  0
   41.4176   32.3775    0.0396 C   0  0  0  0  0  0  0  0  0  0  0  0
   41.6014   31.9452   -1.2052 N   0  0  0  0  0  0  0  0  0  0  0  0
   40.6233   28.7640   -4.6841 C   0  0  0  0  0  0  0  0  0  0  0  0
   40.4855   29.3678   -3.3757 N   0  0  0  0  0  0  0  0  0  0  0  0
   40.9941   30.6014   -3.1020 C   0  0  0  0  0  0  0  0  0  0  0  0
   41.5962   31.2866   -3.9082 O   0  0  0  0  0  0  0  0  0  0  0  0
   40.2324   28.8082   -2.5817 H   0  0  0  0  0  0  0  0  0  0  0  0
   31.0278   33.4787    4.6526 C   0  0  0  0  0  0  0  0  0  0  0  0
   29.8407   32.8002    4.5044 C   0  0  0  0  0  0  0  0  0  0  0  0
   29.1043   33.0432    5.6797 C   0  0  0  0  0  0  0  0  0  0  0  0
   29.7893   33.8242    6.5143 N   0  0  0  0  0  0  0  0  0  0  0  0
   30.9719   34.0699    5.8954 N   0  0  0  0  0  0  0  0  0  0  0  0
   31.9480   34.8453    6.5541 C   0  0  0  0  0  0  0  0  0  0  0  0
   31.5360   36.0553    7.1543 C   0  0  0  0  0  0  0  0  0  0  0  0
   32.4334   36.8357    7.8247 C   0  0  0  0  0  0  0  0  0  0  0  0
   33.7788   36.4247    7.9724 C   0  0  0  0  0  0  0  0  0  0  0  0
   34.6368   37.2158    8.6670 N   0  0  0  0  0  0  0  0  0  0  0  0
   35.8749   36.7901    8.8108 C   0  0  0  0  0  0  0  0  0  0  0  0
   36.3609   35.5832    8.2857 C   0  0  0  0  0  0  0  0  0  0  0  0
   35.5134   34.7854    7.5649 C   0  0  0  0  0  0  0  0  0  0  0  0
   34.1774   35.1885    7.3860 C   0  0  0  0  0  0  0  0  0  0  0  0
   33.2477   34.4219    6.6577 C   0  0  0  0  0  0  0  0  0  0  0  0
   27.7324   32.5349    6.0346 C   0  0  0  0  0  0  0  0  0  0  0  0
   27.7798   31.0089    6.1445 C   0  0  0  0  0  0  0  0  0  0  0  0
   26.7490   32.9328    4.9316 C   0  0  0  0  0  0  0  0  0  0  0  0
   27.2630   33.1232    7.3637 C   0  0  0  0  0  0  0  0  0  0  0  0
   36.2586   30.7785   -0.2703 H   0  0  0  0  0  0  0  0  0  0  0  0
   34.2492   31.9922    0.5260 H   0  0  0  0  0  0  0  0  0  0  0  0
   38.3026   31.8858    3.3313 H   0  0  0  0  0  0  0  0  0  0  0  0
   38.8894   29.9570   -1.4010 H   0  0  0  0  0  0  0  0  0  0  0  0
   40.2894   32.3572    1.8503 H   0  0  0  0  0  0  0  0  0  0  0  0
   42.1244   33.0955    0.4294 H   0  0  0  0  0  0  0  0  0  0  0  0
   41.3535   29.3189   -5.2641 H   0  0  0  0  0  0  0  0  0  0  0  0
   39.6726   28.7676   -5.2250 H   0  0  0  0  0  0  0  0  0  0  0  0
   41.0336   27.7595   -4.6027 H   0  0  0  0  0  0  0  0  0  0  0  0
   29.5699   32.2311    3.6318 H   0  0  0  0  0  0  0  0  0  0  0  0
   30.4946   36.3306    7.0783 H   0  0  0  0  0  0  0  0  0  0  0  0
   32.1366   37.7727    8.2744 H   0  0  0  0  0  0  0  0  0  0  0  0
   36.5427   37.4404    9.3674 H   0  0  0  0  0  0  0  0  0  0  0  0
   37.3995   35.3212    8.4119 H   0  0  0  0  0  0  0  0  0  0  0  0
   35.8666   33.8751    7.1050 H   0  0  0  0  0  0  0  0  0  0  0  0
   33.5557   33.4985    6.1924 H   0  0  0  0  0  0  0  0  0  0  0  0
   28.1006   30.5583    5.2077 H   0  0  0  0  0  0  0  0  0  0  0  0
   26.7946   30.6134    6.3950 H   0  0  0  0  0  0  0  0  0  0  0  0
   28.4805   30.7005    6.9182 H   0  0  0  0  0  0  0  0  0  0  0  0
   27.0462   32.5217    3.9687 H   0  0  0  0  0  0  0  0  0  0  0  0
   26.7004   34.0157    4.8307 H   0  0  0  0  0  0  0  0  0  0  0  0
   25.7487   32.5656    5.1636 H   0  0  0  0  0  0  0  0  0  0  0  0
   27.9328   32.8547    8.1766 H   0  0  0  0  0  0  0  0  0  0  0  0
   26.2656   32.7470    7.5964 H   0  0  0  0  0  0  0  0  0  0  0  0
   27.2200   34.2091    7.3215 H   0  0  0  0  0  0  0  0  0  0  0  0
  1  2  1  0
  1  5  1  0
  2  3  2  0
  2  4  1  0
  4 26  1  0
  4  6  1  0
  7  8  2  0
  8  9  1  0
  8 45  1  0
  9 10  2  0
  9 46  1  0
 10  1  1  0
 10 11  1  0
 11 12  1  0
 11 13  2  0
 13  7  1  0
 13 47  1  0
 14  7  1  0
 15 16  2  0
 16 17  1  0
 16 48  1  0
 17 14  1  0
 17 18  2  0
 18 19  1  0
 18 49  1  0
 19 20  2  0
 19 50  1  0
 20 15  1  0
 21 22  1  0
 21 51  1  0
 21 52  1  0
 21 53  1  0
 22 23  1  0
 22 25  1  0
 23 24  2  0
 23 15  1  0
 26 27  2  0
 27 28  1  0
 27 54  1  0
 28 41  1  0
 28 29  2  0
 29 30  1  0
 30 31  1  0
 30 26  1  0
 31 32  2  0
 32 33  1  0
 32 55  1  0
 33 34  2  0
 33 56  1  0
 34 35  1  0
 35 36  2  0
 36 37  1  0
 36 57  1  0
 37 38  2  0
 37 58  1  0
 38 39  1  0
 38 59  1  0
 39 40  2  0
 39 34  1  0
 40 31  1  0
 40 60  1  0
 41 42  1  0
 41 43  1  0
 41 44  1  0
 42 61  1  0
 42 62  1  0
 42 63  1  0
 43 64  1  0
 43 65  1  0
 43 66  1  0
 44 67  1  0
 44 68  1  0
 44 69  1  0
M  END
>  <minimizedAffinity>  (3) 
-9.34981

>  <mol_id>  (3) 
1813

>  <source_index>  (3) 
2

>  <layer>  (3) 
L1

>  <uniprot>  (3) 
P49759

>  <paff>  (3) 
6

>  <smiles>  (3) 
CNC(=O)c1cc(Oc2ccc(NC(=O)Nc3cc(nn3-c3ccc4ncccc4c3)C(C)(C)C)c(F)c2)ccn1

>  <aimnet_interaction_kcal_mol>  (3) 
-71.088798059661173

$$$$
L1:P49759:1814
     RDKit          3D

 53 56  0  0  0  0  0  0  0  0999 V2000
   39.4623   30.0941   -2.2000 C   0  0  0  0  0  0  0  0  0  0  0  0
   40.8159   30.3426   -2.4099 C   0  0  0  0  0  0  0  0  0  0  0  0
   41.4694   31.1302   -1.4789 C   0  0  0  0  0  0  0  0  0  0  0  0
   40.8710   31.5575   -0.3839 N   0  0  0  0  0  0  0  0  0  0  0  0
   39.5781   31.1962   -0.2148 C   0  0  0  0  0  0  0  0  0  0  0  0
   38.8347   30.4876   -1.0661 N   0  0  0  0  0  0  0  0  0  0  0  0
   37.2769   28.0724   -5.2906 C   0  0  0  0  0  0  0  0  0  0  0  0
   36.7156   28.2300   -4.0275 C   0  0  0  0  0  0  0  0  0  0  0  0
   37.4111   28.8990   -3.0300 C   0  0  0  0  0  0  0  0  0  0  0  0
   38.6951   29.3888   -3.2557 C   0  0  0  0  0  0  0  0  0  0  0  0
   39.2554   29.2074   -4.5257 C   0  0  0  0  0  0  0  0  0  0  0  0
   38.5478   28.5946   -5.5411 C   0  0  0  0  0  0  0  0  0  0  0  0
   35.9967   27.9506   -7.3383 N   0  0  0  0  0  0  0  0  0  0  0  0
   36.5995   27.2670   -6.3612 C   0  0  0  0  0  0  0  0  0  0  0  0
   36.6421   26.0146   -6.3543 O   0  0  0  0  0  0  0  0  0  0  0  0
   36.3677   28.8860   -7.5777 H   0  0  0  0  0  0  0  0  0  0  0  0
   35.5323   27.2421   -8.5129 C   0  0  0  0  0  0  0  0  0  0  0  0
   33.7508   25.3996   -8.0014 N   0  0  0  0  0  0  0  0  0  0  0  0
   34.5466   26.2148   -8.1981 C   0  0  0  0  0  0  0  0  0  0  0  0
   39.1136   31.6315    0.9944 N   0  0  0  0  0  0  0  0  0  0  0  0
   39.8630   32.0631    1.5175 H   0  0  0  0  0  0  0  0  0  0  0  0
   37.8474   31.8191    1.5459 C   0  0  0  0  0  0  0  0  0  0  0  0
   37.7727   32.5942    2.7120 C   0  0  0  0  0  0  0  0  0  0  0  0
   36.5786   32.8669    3.3297 C   0  0  0  0  0  0  0  0  0  0  0  0
   35.3810   32.3001    2.8521 C   0  0  0  0  0  0  0  0  0  0  0  0
   35.4547   31.5655    1.6562 C   0  0  0  0  0  0  0  0  0  0  0  0
   36.6595   31.3153    1.0203 C   0  0  0  0  0  0  0  0  0  0  0  0
   34.1985   32.4511    3.5399 N   0  0  0  0  0  0  0  0  0  0  0  0
   32.9184   32.5558    2.8523 C   0  0  0  0  0  0  0  0  0  0  0  0
   31.8662   33.0918    3.7994 C   0  0  0  0  0  0  0  0  0  0  0  0
   32.3164   34.2430    4.5136 O   0  0  0  0  0  0  0  0  0  0  0  0
   33.5182   34.0454    5.2444 C   0  0  0  0  0  0  0  0  0  0  0  0
   34.1420   32.6937    4.9507 C   0  0  0  0  0  0  0  0  0  0  0  0
   41.3657   29.9218   -3.2322 H   0  0  0  0  0  0  0  0  0  0  0  0
   42.5025   31.4066   -1.6064 H   0  0  0  0  0  0  0  0  0  0  0  0
   35.7237   27.8501   -3.8272 H   0  0  0  0  0  0  0  0  0  0  0  0
   36.9588   29.0661   -2.0631 H   0  0  0  0  0  0  0  0  0  0  0  0
   40.2464   29.5664   -4.7616 H   0  0  0  0  0  0  0  0  0  0  0  0
   38.9907   28.5655   -6.5320 H   0  0  0  0  0  0  0  0  0  0  0  0
   35.0869   27.9657   -9.1908 H   0  0  0  0  0  0  0  0  0  0  0  0
   36.3654   26.7747   -9.0447 H   0  0  0  0  0  0  0  0  0  0  0  0
   38.6743   33.0440    3.1138 H   0  0  0  0  0  0  0  0  0  0  0  0
   36.5597   33.5622    4.1554 H   0  0  0  0  0  0  0  0  0  0  0  0
   34.5489   31.1795    1.2111 H   0  0  0  0  0  0  0  0  0  0  0  0
   36.6869   30.7451    0.1043 H   0  0  0  0  0  0  0  0  0  0  0  0
   32.5854   31.5825    2.4816 H   0  0  0  0  0  0  0  0  0  0  0  0
   32.9889   33.2281    1.9988 H   0  0  0  0  0  0  0  0  0  0  0  0
   31.5424   32.3096    4.4961 H   0  0  0  0  0  0  0  0  0  0  0  0
   31.0174   33.4317    3.2199 H   0  0  0  0  0  0  0  0  0  0  0  0
   33.2993   34.1309    6.3144 H   0  0  0  0  0  0  0  0  0  0  0  0
   34.2284   34.8311    4.9797 H   0  0  0  0  0  0  0  0  0  0  0  0
   33.5507   31.9218    5.4501 H   0  0  0  0  0  0  0  0  0  0  0  0
   35.1380   32.6623    5.3760 H   0  0  0  0  0  0  0  0  0  0  0  0
  1  2  2  0
  2  3  1  0
  2 34  1  0
  3  4  2  0
  3 35  1  0
  4  5  1  0
  5 20  1  0
  5  6  2  0
  6  1  1  0
  7  8  2  0
  8  9  1  0
  8 36  1  0
  9 10  2  0
  9 37  1  0
 10  1  1  0
 10 11  1  0
 11 12  2  0
 11 38  1  0
 12  7  1  0
 12 39  1  0
 13 14  1  0
 13 16  1  0
 14 15  2  0
 14  7  1  0
 17 13  1  0
 17 40  1  0
 17 41  1  0
 18 19  3  0
 19 17  1  0
 20 22  1  0
 20 21  1  0
 22 23  2  0
 23 24  1  0
 23 42  1  0
 24 25  2  0
 24 43  1  0
 25 28  1  0
 25 26  1  0
 26 27  2  0
 26 44  1  0
 27 22  1  0
 27 45  1  0
 28 29  1  0
 29 30  1  0
 29 46  1  0
 29 47  1  0
 30 31  1  0
 30 48  1  0
 30 49  1  0
 31 32  1  0
 32 33  1  0
 32 50  1  0
 32 51  1  0
 33 28  1  0
 33 52  1  0
 33 53  1  0
M  END
>  <minimizedAffinity>  (4) 
-8.61555

>  <mol_id>  (4) 
1814

>  <source_index>  (4) 
3

>  <layer>  (4) 
L1

>  <uniprot>  (4) 
P49759

>  <paff>  (4) 
6

>  <smiles>  (4) 
O=C(NCC#N)c1ccc(cc1)-c1ccnc(Nc2ccc(cc2)N2CCOCC2)n1

>  <aimnet_interaction_kcal_mol>  (4) 
-106.17953909496678

$$$$
L1:P49759:4296
     RDKit          3D

 28 30  0  0  0  0  0  0  0  0999 V2000
   38.2609   29.0549   -4.4195 C   0  0  0  0  0  0  0  0  0  0  0  0
   39.2791   28.7028   -5.3251 C   0  0  0  0  0  0  0  0  0  0  0  0
   39.0104   27.8767   -6.3723 O   0  0  0  0  0  0  0  0  0  0  0  0
   40.5900   29.1334   -5.1512 C   0  0  0  0  0  0  0  0  0  0  0  0
   40.9364   30.0352   -4.1612 C   0  0  0  0  0  0  0  0  0  0  0  0
   42.1041   30.7160   -4.1737 O   0  0  0  0  0  0  0  0  0  0  0  0
   39.9843   30.3048   -3.1718 C   0  0  0  0  0  0  0  0  0  0  0  0
   38.6708   29.8440   -3.3538 C   0  0  0  0  0  0  0  0  0  0  0  0
   37.8690   30.2088   -2.2831 O   0  0  0  0  0  0  0  0  0  0  0  0
   38.7117   30.8565   -1.3858 C   0  0  0  0  0  0  0  0  0  0  0  0
   38.3394   31.3401   -0.1529 C   0  0  0  0  0  0  0  0  0  0  0  0
   39.3524   31.8679    0.6420 C   0  0  0  0  0  0  0  0  0  0  0  0
   39.0920   32.3522    1.9043 O   0  0  0  0  0  0  0  0  0  0  0  0
   40.6823   31.8975    0.2025 C   0  0  0  0  0  0  0  0  0  0  0  0
   41.0172   31.4457   -1.0631 C   0  0  0  0  0  0  0  0  0  0  0  0
   40.0214   30.9222   -1.8827 C   0  0  0  0  0  0  0  0  0  0  0  0
   39.3152   28.3195   -7.3529 H   0  0  0  0  0  0  0  0  0  0  0  0
   42.6770   30.3575   -4.9096 H   0  0  0  0  0  0  0  0  0  0  0  0
   38.1617   32.6077    1.9496 H   0  0  0  0  0  0  0  0  0  0  0  0
   35.9394   29.4668   -4.8664 N   0  0  0  0  0  0  0  0  0  0  0  0
   36.8833   28.5373   -4.6355 C   0  0  0  0  0  0  0  0  0  0  0  0
   36.6312   27.3230   -4.6129 O   0  0  0  0  0  0  0  0  0  0  0  0
   36.1580   30.4007   -5.1766 H   0  0  0  0  0  0  0  0  0  0  0  0
   35.0126   29.1358   -5.0774 H   0  0  0  0  0  0  0  0  0  0  0  0
   41.3422   28.7950   -5.8530 H   0  0  0  0  0  0  0  0  0  0  0  0
   37.3113   31.3093    0.1795 H   0  0  0  0  0  0  0  0  0  0  0  0
   41.4380   32.2802    0.8724 H   0  0  0  0  0  0  0  0  0  0  0  0
   42.0364   31.4960   -1.4212 H   0  0  0  0  0  0  0  0  0  0  0  0
  1  2  2  0
  2  3  1  0
  2  4  1  0
  3 17  1  0
  4  5  2  0
  4 25  1  0
  5  6  1  0
  5  7  1  0
  6 18  1  0
  7  8  2  0
  8  9  1  0
  8  1  1  0
  9 10  1  0
 10 11  2  0
 11 12  1  0
 11 26  1  0
 12 13  1  0
 12 14  2  0
 13 19  1  0
 14 15  1  0
 14 27  1  0
 15 16  2  0
 15 28  1  0
 16 10  1  0
 16  7  1  0
 20 21  1  0
 20 23  1  0
 20 24  1  0
 21 22  2  0
 21  1  1  0
M  END
>  <minimizedAffinity>  (5) 
-9.20353

>  <mol_id>  (5) 
4296

>  <source_index>  (5) 
4

>  <layer>  (5) 
L1

>  <uniprot>  (5) 
P49759

>  <paff>  (5) 
7.585

>  <smiles>  (5) 
NC(=O)c1c(O)cc(O)c2c1oc1cc(O)ccc12

>  <aimnet_interaction_kcal_mol>  (5) 
-110.63485575199495

$$$$
L1:P49759:60031
     RDKit          3D

 36 39  0  0  0  0  0  0  0  0999 V2000
   36.8368   30.9801    0.2986 O   0  0  0  0  0  0  0  0  0  0  0  0
   37.2014   31.6364    1.2466 C   0  0  0  0  0  0  0  0  0  0  0  0
   36.3687   32.2207    2.2045 N   0  0  0  0  0  0  0  0  0  0  0  0
   37.1593   32.8116    3.1804 C   0  0  0  0  0  0  0  0  0  0  0  0
   38.4522   32.7022    2.9480 N   0  0  0  0  0  0  0  0  0  0  0  0
   38.5732   32.0074    1.7409 C   0  0  0  0  0  0  0  0  0  0  0  0
   39.7188   31.8091    1.0569 C   0  0  0  0  0  0  0  0  0  0  0  0
   35.3983   32.4391    2.0502 H   0  0  0  0  0  0  0  0  0  0  0  0
   39.9059   30.9488   -0.1123 C   0  0  0  0  0  0  0  0  0  0  0  0
   39.4015   29.6459   -0.1074 C   0  0  0  0  0  0  0  0  0  0  0  0
   39.5624   28.7964   -1.1919 C   0  0  0  0  0  0  0  0  0  0  0  0
   40.1838   29.3005   -2.3073 C   0  0  0  0  0  0  0  0  0  0  0  0
   40.6539   30.6012   -2.3555 C   0  0  0  0  0  0  0  0  0  0  0  0
   40.5892   31.4255   -1.2479 C   0  0  0  0  0  0  0  0  0  0  0  0
   41.1382   30.8639   -3.6150 O   0  0  0  0  0  0  0  0  0  0  0  0
   40.8518   29.6949   -4.4147 C   0  0  0  0  0  0  0  0  0  0  0  0
   40.4131   28.6602   -3.4994 O   0  0  0  0  0  0  0  0  0  0  0  0
   36.6543   33.4181    4.2700 N   0  0  0  0  0  0  0  0  0  0  0  0
   37.3134   34.0505    4.7458 H   0  0  0  0  0  0  0  0  0  0  0  0
   35.3943   33.2994    4.8482 C   0  0  0  0  0  0  0  0  0  0  0  0
   34.3884   32.4361    4.4037 C   0  0  0  0  0  0  0  0  0  0  0  0
   33.1248   32.4827    4.9688 C   0  0  0  0  0  0  0  0  0  0  0  0
   32.8624   33.3307    6.0340 C   0  0  0  0  0  0  0  0  0  0  0  0
   33.8880   34.1104    6.5520 C   0  0  0  0  0  0  0  0  0  0  0  0
   35.1489   34.0783    5.9878 C   0  0  0  0  0  0  0  0  0  0  0  0
   40.5771   32.3655    1.4123 H   0  0  0  0  0  0  0  0  0  0  0  0
   38.8309   29.3222    0.7425 H   0  0  0  0  0  0  0  0  0  0  0  0
   39.1641   27.7954   -1.1730 H   0  0  0  0  0  0  0  0  0  0  0  0
   41.0328   32.4128   -1.2641 H   0  0  0  0  0  0  0  0  0  0  0  0
   41.7486   29.3789   -4.9461 H   0  0  0  0  0  0  0  0  0  0  0  0
   40.0196   29.9057   -5.0846 H   0  0  0  0  0  0  0  0  0  0  0  0
   34.6048   31.6676    3.6845 H   0  0  0  0  0  0  0  0  0  0  0  0
   32.3496   31.8365    4.5802 H   0  0  0  0  0  0  0  0  0  0  0  0
   31.8720   33.3778    6.4647 H   0  0  0  0  0  0  0  0  0  0  0  0
   33.6975   34.7425    7.4100 H   0  0  0  0  0  0  0  0  0  0  0  0
   35.9623   34.6369    6.4287 H   0  0  0  0  0  0  0  0  0  0  0  0
  1  2  2  0
  2  3  1  0
  3  4  1  0
  3  8  1  0
  4 18  1  0
  4  5  2  0
  5  6  1  0
  6  7  2  0
  6  2  1  0
  7  9  1  0
  7 26  1  0
  9 10  2  0
 10 11  1  0
 10 27  1  0
 11 12  2  0
 11 28  1  0
 12 13  1  0
 13 14  2  0
 13 15  1  0
 14  9  1  0
 14 29  1  0
 15 16  1  0
 16 17  1  0
 16 30  1  0
 16 31  1  0
 17 12  1  0
 18 20  1  0
 18 19  1  0
 20 21  2  0
 21 22  1  0
 21 32  1  0
 22 23  2  0
 22 33  1  0
 23 24  1  0
 23 34  1  0
 24 25  2  0
 24 35  1  0
 25 20  1  0
 25 36  1  0
M  END
>  <minimizedAffinity>  (6) 
-8.99566

>  <mol_id>  (6) 
60031

>  <source_index>  (6) 
5

>  <layer>  (6) 
L1

>  <uniprot>  (6) 
P49759

>  <paff>  (6) 
7.4558999999999997

>  <smiles>  (6) 
O=C1NC(Nc2ccccc2)=NC1=Cc1ccc2c(c1)OCO2

>  <aimnet_interaction_kcal_mol>  (6) 
-49.358817936606883

$$$$
L1:P49759:94228
     RDKit          3D

 35 36  0  0  0  0  0  0  0  0999 V2000
   38.2729   30.3228   -1.5380 C   0  0  0  0  0  0  0  0  0  0  0  0
   38.5870   29.9751   -2.8309 C   0  0  0  0  0  0  0  0  0  0  0  0
   37.3847   30.0503   -3.5911 C   0  0  0  0  0  0  0  0  0  0  0  0
   37.0583   29.8031   -4.9279 C   0  0  0  0  0  0  0  0  0  0  0  0
   35.7735   29.9999   -5.3587 C   0  0  0  0  0  0  0  0  0  0  0  0
   34.7724   30.4021   -4.4661 C   0  0  0  0  0  0  0  0  0  0  0  0
   33.1489   30.5223   -5.0711 Cl  0  0  0  0  0  0  0  0  0  0  0  0
   35.0504   30.6815   -3.1360 C   0  0  0  0  0  0  0  0  0  0  0  0
   33.8010   31.2973   -2.1007 Cl  0  0  0  0  0  0  0  0  0  0  0  0
   36.3623   30.4781   -2.6867 C   0  0  0  0  0  0  0  0  0  0  0  0
   36.9247   30.6149   -1.4417 N   0  0  0  0  0  0  0  0  0  0  0  0
   36.1920   30.8502   -0.2042 C   0  0  0  0  0  0  0  0  0  0  0  0
   39.2475   30.3895   -0.4507 C   0  0  0  0  0  0  0  0  0  0  0  0
   40.1827   29.6061   -0.3677 O   0  0  0  0  0  0  0  0  0  0  0  0
   39.0091   31.3928    0.3950 O   0  0  0  0  0  0  0  0  0  0  0  0
   39.5394   32.3972    2.4939 C   0  0  0  0  0  0  0  0  0  0  0  0
   40.1164   31.8644    1.2211 C   0  0  0  0  0  0  0  0  0  0  0  0
   39.9924   29.6000   -3.2185 C   0  0  2  0  0  0  0  0  0  0  0  0
   40.9760   30.7866   -3.3102 C   0  0  0  0  0  0  0  0  0  0  0  0
   41.8160   30.9836   -4.2124 N   0  0  0  0  0  0  0  0  0  0  0  0
   42.1296   30.1727   -4.7687 H   0  0  0  0  0  0  0  0  0  0  0  0
   40.0379   28.8267   -4.4278 C   0  0  0  0  0  0  0  0  0  0  0  0
   39.9863   28.1041   -5.3249 N   0  0  0  0  0  0  0  0  0  0  0  0
   37.8013   29.4742   -5.6341 H   0  0  0  0  0  0  0  0  0  0  0  0
   35.5316   29.8950   -6.4032 H   0  0  0  0  0  0  0  0  0  0  0  0
   35.3596   30.1586   -0.1303 H   0  0  0  0  0  0  0  0  0  0  0  0
   35.8145   31.8630   -0.1742 H   0  0  0  0  0  0  0  0  0  0  0  0
   36.8608   30.6949    0.6269 H   0  0  0  0  0  0  0  0  0  0  0  0
   40.3433   32.7513    3.1358 H   0  0  0  0  0  0  0  0  0  0  0  0
   38.9896   31.6297    3.0334 H   0  0  0  0  0  0  0  0  0  0  0  0
   38.8684   33.2248    2.2984 H   0  0  0  0  0  0  0  0  0  0  0  0
   40.7986   31.0383    1.3806 H   0  0  0  0  0  0  0  0  0  0  0  0
   40.6239   32.6446    0.6582 H   0  0  0  0  0  0  0  0  0  0  0  0
   40.4032   28.9995   -2.3994 H   0  0  0  0  0  0  0  0  0  0  0  0
   40.8891   31.5021   -2.4913 H   0  0  0  0  0  0  0  0  0  0  0  0
  1  2  2  0
  2 18  1  0
  2  3  1  0
  3  4  2  0
  4  5  1  0
  4 24  1  0
  5  6  2  0
  5 25  1  0
  6  7  1  0
  6  8  1  0
  8  9  1  0
  8 10  2  0
 10 11  1  0
 10  3  1  0
 11 12  1  0
 11  1  1  0
 12 26  1  0
 12 27  1  0
 12 28  1  0
 13 14  2  0
 13  1  1  0
 15 13  1  0
 16 17  1  0
 16 29  1  0
 16 30  1  0
 16 31  1  0
 17 15  1  0
 17 32  1  0
 17 33  1  0
 18 22  1  0
 18 19  1  0
 18 34  1  1
 19 20  2  0
 19 35  1  0
 20 21  1  0
 22 23  3  0
M  END
>  <minimizedAffinity>  (7) 
-7.06279

>  <mol_id>  (7) 
94228

>  <source_index>  (7) 
6

>  <layer>  (7) 
L1

>  <uniprot>  (7) 
P49759

>  <paff>  (7) 
6.8239000000000001

>  <smiles>  (7) 
CCOC(=O)c1c(C(C=N)C#N)c2ccc(Cl)c(Cl)c2n1C

>  <aimnet_interaction_kcal_mol>  (7) 
-55.036891399612777

$$$$
L1:P49759:114565
     RDKit          3D

 32 33  0  0  0  0  0  0  0  0999 V2000
   38.9884   30.8656   -0.2128 N   0  0  0  0  0  0  0  0  0  0  0  0
   39.2033   30.6149   -1.5418 C   0  0  0  0  0  0  0  0  0  0  0  0
   40.4047   30.7286   -2.1440 C   0  0  0  0  0  0  0  0  0  0  0  0
   37.6568   30.2616   -2.3469 S   0  0  0  0  0  0  0  0  0  0  0  0
   36.7823   30.6920   -0.8798 C   0  0  0  0  0  0  0  0  0  0  0  0
   35.4158   30.8046   -0.7008 C   0  0  0  0  0  0  0  0  0  0  0  0
   34.9157   31.2423    0.5138 C   0  0  0  0  0  0  0  0  0  0  0  0
   35.7900   31.5579    1.5566 C   0  0  0  0  0  0  0  0  0  0  0  0
   37.1663   31.4248    1.3854 C   0  0  0  0  0  0  0  0  0  0  0  0
   37.6613   31.0002    0.1674 C   0  0  0  0  0  0  0  0  0  0  0  0
   40.7384   30.4155   -3.5162 C   0  0  0  0  0  0  0  0  0  0  0  0
   40.0627   29.2523   -4.1990 C   0  0  0  0  0  0  0  0  0  0  0  0
   41.6135   31.0686   -4.0846 O   0  0  0  0  0  0  0  0  0  0  0  0
   40.5294   32.5057    0.8162 C   0  0  0  0  0  0  0  0  0  0  0  0
   40.0938   31.0659    0.7103 C   0  0  0  0  0  0  0  0  0  0  0  0
   35.3955   31.9878    2.7818 O   0  0  0  0  0  0  0  0  0  0  0  0
   34.0661   32.5051    2.9050 C   0  0  0  0  0  0  0  0  0  0  0  0
   41.2061   31.1892   -1.5956 H   0  0  0  0  0  0  0  0  0  0  0  0
   34.7372   30.5743   -1.5109 H   0  0  0  0  0  0  0  0  0  0  0  0
   33.8502   31.3532    0.6330 H   0  0  0  0  0  0  0  0  0  0  0  0
   37.8184   31.7013    2.1987 H   0  0  0  0  0  0  0  0  0  0  0  0
   39.5934   28.5781   -3.4857 H   0  0  0  0  0  0  0  0  0  0  0  0
   40.8196   28.7310   -4.7793 H   0  0  0  0  0  0  0  0  0  0  0  0
   39.3001   29.6117   -4.8902 H   0  0  0  0  0  0  0  0  0  0  0  0
   41.3503   32.5858    1.5251 H   0  0  0  0  0  0  0  0  0  0  0  0
   39.7193   33.1422    1.1610 H   0  0  0  0  0  0  0  0  0  0  0  0
   40.8637   32.8923   -0.1415 H   0  0  0  0  0  0  0  0  0  0  0  0
   39.7636   30.7017    1.6765 H   0  0  0  0  0  0  0  0  0  0  0  0
   40.9141   30.4252    0.4013 H   0  0  0  0  0  0  0  0  0  0  0  0
   34.0281   32.9694    3.8845 H   0  0  0  0  0  0  0  0  0  0  0  0
   33.3228   31.7083    2.8536 H   0  0  0  0  0  0  0  0  0  0  0  0
   33.8666   33.2568    2.1416 H   0  0  0  0  0  0  0  0  0  0  0  0
  1  2  1  0
  2  3  2  0
  2  4  1  0
  3 11  1  0
  3 18  1  0
  4  5  1  0
  5  6  2  0
  6  7  1  0
  6 19  1  0
  7  8  2  0
  7 20  1  0
  8 16  1  0
  8  9  1  0
  9 10  2  0
  9 21  1  0
 10  1  1  0
 10  5  1  0
 11 12  1  0
 11 13  2  0
 12 22  1  0
 12 23  1  0
 12 24  1  0
 14 15  1  0
 14 25  1  0
 14 26  1  0
 14 27  1  0
 15  1  1  0
 15 28  1  0
 15 29  1  0
 16 17  1  0
 17 30  1  0
 17 31  1  0
 17 32  1  0
M  END
>  <minimizedAffinity>  (8) 
-6.70429

>  <mol_id>  (8) 
114565

>  <source_index>  (8) 
7

>  <layer>  (8) 
L1

>  <uniprot>  (8) 
P49759

>  <paff>  (8) 
7.585

>  <smiles>  (8) 
CCN\1c2cc(ccc2S/C1=C\C(=O)C)OC

>  <aimnet_interaction_kcal_mol>  (8) 
-37.480239687639191

$$$$
L1:P49759:135630
     RDKit          3D

 66 70  0  0  0  0  0  0  0  0999 V2000
   35.5173   32.2961    3.4299 C   0  0  0  0  0  0  0  0  0  0  0  0
   35.0610   31.2796    2.9170 O   0  0  0  0  0  0  0  0  0  0  0  0
   36.7667   32.7778    3.1121 N   0  0  0  0  0  0  0  0  0  0  0  0
   37.0854   33.6408    3.5350 H   0  0  0  0  0  0  0  0  0  0  0  0
   37.5375   32.2631    2.0805 C   0  0  0  0  0  0  0  0  0  0  0  0
   37.1058   31.4656    1.0349 C   0  0  0  0  0  0  0  0  0  0  0  0
   38.1805   31.3920    0.1906 N   0  0  0  0  0  0  0  0  0  0  0  0
   38.2859   30.8305   -1.0404 C   0  0  0  0  0  0  0  0  0  0  0  0
   39.4685   30.8627   -1.7293 C   0  0  0  0  0  0  0  0  0  0  0  0
   40.5837   31.5063   -1.1191 C   0  0  0  0  0  0  0  0  0  0  0  0
   40.4668   32.1246    0.0949 C   0  0  0  0  0  0  0  0  0  0  0  0
   39.2477   32.0870    0.7938 C   0  0  0  0  0  0  0  0  0  0  0  0
   38.8511   32.6013    1.9522 N   0  0  0  0  0  0  0  0  0  0  0  0
   39.5617   30.1846   -3.0406 C   0  0  0  0  0  0  0  0  0  0  0  0
   38.4211   29.9406   -3.8126 C   0  0  0  0  0  0  0  0  0  0  0  0
   38.4607   28.9713   -4.7961 C   0  0  0  0  0  0  0  0  0  0  0  0
   39.5618   28.2527   -5.0596 N   0  0  0  0  0  0  0  0  0  0  0  0
   40.7155   28.6635   -4.5068 C   0  0  0  0  0  0  0  0  0  0  0  0
   40.7551   29.6346   -3.5148 C   0  0  0  0  0  0  0  0  0  0  0  0
   33.2111   34.4052    6.3807 C   0  0  0  0  0  0  0  0  0  0  0  0
   34.5950   34.2887    6.5104 C   0  0  0  0  0  0  0  0  0  0  0  0
   35.3622   33.6667    5.5462 C   0  0  0  0  0  0  0  0  0  0  0  0
   34.7512   33.0760    4.4435 C   0  0  0  0  0  0  0  0  0  0  0  0
   33.3712   33.1838    4.3027 C   0  0  0  0  0  0  0  0  0  0  0  0
   32.6159   33.8634    5.2456 C   0  0  0  0  0  0  0  0  0  0  0  0
   32.4227   35.1455    7.4575 C   0  0  0  0  0  0  0  0  0  0  0  0
   30.9171   35.2133    7.1852 C   0  0  0  0  0  0  0  0  0  0  0  0
   32.9335   36.5870    7.5270 C   0  0  0  0  0  0  0  0  0  0  0  0
   32.0051   29.2301   10.3363 C   0  0  0  0  0  0  0  0  0  0  0  0
   32.4999   30.3985    9.6627 N   0  0  0  0  0  0  0  0  0  0  0  0
   33.0325   31.4374   10.5402 C   0  0  0  0  0  0  0  0  0  0  0  0
   32.2479   32.7280   10.4502 C   0  0  0  0  0  0  0  0  0  0  0  0
   32.2263   33.2246    9.0798 N   0  0  0  0  0  0  0  0  0  0  0  0
   32.6310   34.5128    8.8601 C   0  0  0  0  0  0  0  0  0  0  0  0
   33.0703   35.1986    9.7845 O   0  0  0  0  0  0  0  0  0  0  0  0
   32.0206   32.1910    8.0554 C   0  0  0  0  0  0  0  0  0  0  0  0
   31.5484   30.9015    8.6879 C   0  0  0  0  0  0  0  0  0  0  0  0
   36.1637   30.9906    0.8590 H   0  0  0  0  0  0  0  0  0  0  0  0
   37.4011   30.3464   -1.4162 H   0  0  0  0  0  0  0  0  0  0  0  0
   41.5404   31.4976   -1.6245 H   0  0  0  0  0  0  0  0  0  0  0  0
   41.2932   32.6620    0.5326 H   0  0  0  0  0  0  0  0  0  0  0  0
   37.5111   30.5093   -3.6747 H   0  0  0  0  0  0  0  0  0  0  0  0
   37.5827   28.7661   -5.3998 H   0  0  0  0  0  0  0  0  0  0  0  0
   41.6267   28.2235   -4.9158 H   0  0  0  0  0  0  0  0  0  0  0  0
   41.7144   29.9506   -3.1316 H   0  0  0  0  0  0  0  0  0  0  0  0
   35.0889   34.7024    7.3805 H   0  0  0  0  0  0  0  0  0  0  0  0
   36.4358   33.6560    5.6590 H   0  0  0  0  0  0  0  0  0  0  0  0
   32.8894   32.7503    3.4370 H   0  0  0  0  0  0  0  0  0  0  0  0
   31.5600   33.9802    5.0610 H   0  0  0  0  0  0  0  0  0  0  0  0
   30.4184   35.7298    8.0042 H   0  0  0  0  0  0  0  0  0  0  0  0
   30.4523   34.2382    7.0899 H   0  0  0  0  0  0  0  0  0  0  0  0
   30.7168   35.7697    6.2743 H   0  0  0  0  0  0  0  0  0  0  0  0
   32.3740   37.1558    8.2636 H   0  0  0  0  0  0  0  0  0  0  0  0
   32.8087   37.0549    6.5544 H   0  0  0  0  0  0  0  0  0  0  0  0
   33.9807   36.6347    7.8076 H   0  0  0  0  0  0  0  0  0  0  0  0
   32.7879   28.8264   10.9818 H   0  0  0  0  0  0  0  0  0  0  0  0
   31.7528   28.4713    9.6022 H   0  0  0  0  0  0  0  0  0  0  0  0
   31.1148   29.4211   10.9648 H   0  0  0  0  0  0  0  0  0  0  0  0
   34.0772   31.6566   10.2907 H   0  0  0  0  0  0  0  0  0  0  0  0
   33.0164   31.0881   11.5757 H   0  0  0  0  0  0  0  0  0  0  0  0
   32.6972   33.4952   11.0694 H   0  0  0  0  0  0  0  0  0  0  0  0
   31.2247   32.5637   10.8049 H   0  0  0  0  0  0  0  0  0  0  0  0
   32.9427   32.0163    7.5048 H   0  0  0  0  0  0  0  0  0  0  0  0
   31.2854   32.5063    7.3254 H   0  0  0  0  0  0  0  0  0  0  0  0
   31.4245   30.1614    7.9044 H   0  0  0  0  0  0  0  0  0  0  0  0
   30.5457   31.0650    9.1240 H   0  0  0  0  0  0  0  0  0  0  0  0
  1  2  2  0
  1  3  1  0
  3  5  1  0
  3  4  1  0
  5  6  2  0
  6  7  1  0
  6 38  1  0
  7  8  1  0
  8  9  2  0
  8 39  1  0
  9 14  1  0
  9 10  1  0
 10 11  2  0
 10 40  1  0
 11 12  1  0
 11 41  1  0
 12 13  2  0
 12  7  1  0
 13  5  1  0
 14 15  2  0
 15 16  1  0
 15 42  1  0
 16 17  2  0
 16 43  1  0
 17 18  1  0
 18 19  2  0
 18 44  1  0
 19 14  1  0
 19 45  1  0
 20 21  2  0
 21 22  1  0
 21 46  1  0
 22 23  2  0
 22 47  1  0
 23  1  1  0
 23 24  1  0
 24 25  2  0
 24 48  1  0
 25 20  1  0
 25 49  1  0
 26 27  1  0
 26 28  1  0
 26 20  1  0
 27 50  1  0
 27 51  1  0
 27 52  1  0
 28 53  1  0
 28 54  1  0
 28 55  1  0
 29 30  1  0
 29 56  1  0
 29 57  1  0
 29 58  1  0
 30 31  1  0
 31 32  1  0
 31 59  1  0
 31 60  1  0
 32 33  1  0
 32 61  1  0
 32 62  1  0
 33 34  1  0
 33 36  1  0
 34 35  2  0
 34 26  1  0
 36 37  1  0
 36 63  1  0
 36 64  1  0
 37 30  1  0
 37 65  1  0
 37 66  1  0
M  END
>  <minimizedAffinity>  (9) 
-9.56613

>  <mol_id>  (9) 
135630

>  <source_index>  (9) 
8

>  <layer>  (9) 
L1

>  <uniprot>  (9) 
P49759

>  <paff>  (9) 
9.1738999999999997

>  <smiles>  (9) 
CN1CCN(CC1)C(=O)C(C)(C)c1ccc(cc1)C(=O)Nc1cn2cc(ccc2n1)-c1ccncc1

>  <aimnet_interaction_kcal_mol>  (9) 
-83.235626048645102

$$$$
L1:P49759:142923
     RDKit          3D

 62 67  0  0  0  0  0  0  0  0999 V2000
   39.3659   30.9661   -1.6531 C   0  0  0  0  0  0  0  0  0  0  0  0
   40.7628   31.0466   -1.9187 C   0  0  0  0  0  0  0  0  0  0  0  0
   41.3523   30.4767   -3.0205 C   0  0  0  0  0  0  0  0  0  0  0  0
   40.5276   29.7150   -3.8572 C   0  0  0  0  0  0  0  0  0  0  0  0
   40.8146   28.7940   -4.8233 N   0  0  0  0  0  0  0  0  0  0  0  0
   39.6936   28.2551   -5.3199 N   0  0  0  0  0  0  0  0  0  0  0  0
   38.6550   28.8757   -4.7510 C   0  0  0  0  0  0  0  0  0  0  0  0
   39.1138   29.7655   -3.7288 C   0  0  0  0  0  0  0  0  0  0  0  0
   38.5405   30.4521   -2.6456 C   0  0  0  0  0  0  0  0  0  0  0  0
   41.7120   28.5268   -5.3027 H   0  0  0  0  0  0  0  0  0  0  0  0
   37.3252   28.5291   -5.1784 C   0  0  0  0  0  0  0  0  0  0  0  0
   36.9622   27.3086   -5.5513 N   0  0  0  0  0  0  0  0  0  0  0  0
   35.5879   27.3428   -5.6385 C   0  0  0  0  0  0  0  0  0  0  0  0
   34.6729   26.3431   -5.9456 C   0  0  0  0  0  0  0  0  0  0  0  0
   33.3630   26.5579   -5.8458 N   0  0  0  0  0  0  0  0  0  0  0  0
   32.9347   27.7670   -5.4451 C   0  0  0  0  0  0  0  0  0  0  0  0
   33.7456   28.8523   -5.1042 C   0  0  0  0  0  0  0  0  0  0  0  0
   35.1108   28.6284   -5.3058 C   0  0  0  0  0  0  0  0  0  0  0  0
   36.2395   29.3852   -5.0956 N   0  0  0  0  0  0  0  0  0  0  0  0
   36.2754   30.3874   -5.2305 H   0  0  0  0  0  0  0  0  0  0  0  0
   33.2131   30.0516   -4.4414 C   0  0  0  0  0  0  0  0  0  0  0  0
   31.8650   30.4055   -4.5537 C   0  0  0  0  0  0  0  0  0  0  0  0
   31.3291   31.3967   -3.7464 C   0  0  0  0  0  0  0  0  0  0  0  0
   32.1243   32.0931   -2.8498 C   0  0  0  0  0  0  0  0  0  0  0  0
   33.4713   31.7966   -2.8152 C   0  0  0  0  0  0  0  0  0  0  0  0
   34.2920   32.4692   -1.9816 F   0  0  0  0  0  0  0  0  0  0  0  0
   34.0244   30.7971   -3.5849 C   0  0  0  0  0  0  0  0  0  0  0  0
   37.0186   31.6322    1.2522 C   0  0  0  0  0  0  0  0  0  0  0  0
   37.8906   32.3275    2.0764 C   0  0  0  0  0  0  0  0  0  0  0  0
   39.1842   32.4489    1.8022 N   0  0  0  0  0  0  0  0  0  0  0  0
   39.6369   31.9796    0.6390 C   0  0  0  0  0  0  0  0  0  0  0  0
   38.8319   31.3680   -0.3274 C   0  0  0  0  0  0  0  0  0  0  0  0
   37.4991   31.1643    0.0373 C   0  0  0  0  0  0  0  0  0  0  0  0
   34.5939   32.1960    1.5046 C   0  0  0  0  0  0  0  0  0  0  0  0
   34.6799   33.2800    0.9582 O   0  0  0  0  0  0  0  0  0  0  0  0
   35.6865   31.3572    1.6734 N   0  0  0  0  0  0  0  0  0  0  0  0
   35.4598   30.4047    1.9036 H   0  0  0  0  0  0  0  0  0  0  0  0
   33.2791   31.6654    2.0204 C   0  0  0  0  0  0  0  0  0  0  0  0
   32.8428   30.0843    0.0890 C   0  0  0  0  0  0  0  0  0  0  0  0
   32.3189   31.2695    0.8862 C   0  0  0  0  0  0  0  0  0  0  0  0
   30.9324   31.0085    1.4440 C   0  0  0  0  0  0  0  0  0  0  0  0
   41.4008   31.5835   -1.2355 H   0  0  0  0  0  0  0  0  0  0  0  0
   42.3953   30.6077   -3.2374 H   0  0  0  0  0  0  0  0  0  0  0  0
   37.4671   30.5793   -2.5903 H   0  0  0  0  0  0  0  0  0  0  0  0
   34.9951   25.3580   -6.2613 H   0  0  0  0  0  0  0  0  0  0  0  0
   31.8596   27.8586   -5.3546 H   0  0  0  0  0  0  0  0  0  0  0  0
   31.2317   29.9256   -5.2853 H   0  0  0  0  0  0  0  0  0  0  0  0
   30.2798   31.6432   -3.8157 H   0  0  0  0  0  0  0  0  0  0  0  0
   31.7102   32.8461   -2.1964 H   0  0  0  0  0  0  0  0  0  0  0  0
   35.0745   30.5777   -3.4694 H   0  0  0  0  0  0  0  0  0  0  0  0
   37.5220   32.7965    2.9807 H   0  0  0  0  0  0  0  0  0  0  0  0
   40.6982   32.1042    0.4815 H   0  0  0  0  0  0  0  0  0  0  0  0
   36.8126   30.6480   -0.6161 H   0  0  0  0  0  0  0  0  0  0  0  0
   33.4030   30.8269    2.7084 H   0  0  0  0  0  0  0  0  0  0  0  0
   32.8277   32.4791    2.5809 H   0  0  0  0  0  0  0  0  0  0  0  0
   32.1835   29.8409   -0.7429 H   0  0  0  0  0  0  0  0  0  0  0  0
   32.9226   29.2006    0.7277 H   0  0  0  0  0  0  0  0  0  0  0  0
   33.8286   30.2827   -0.3288 H   0  0  0  0  0  0  0  0  0  0  0  0
   32.2556   32.1320    0.2257 H   0  0  0  0  0  0  0  0  0  0  0  0
   30.9548   30.1987    2.1736 H   0  0  0  0  0  0  0  0  0  0  0  0
   30.2383   30.7337    0.6505 H   0  0  0  0  0  0  0  0  0  0  0  0
   30.5430   31.8996    1.9242 H   0  0  0  0  0  0  0  0  0  0  0  0
  1  2  2  0
  2  3  1  0
  2 42  1  0
  3  4  2  0
  3 43  1  0
  4  5  1  0
  5  6  1  0
  5 10  1  0
  6  7  2  0
  7 11  1  0
  7  8  1  0
  8  9  2  0
  8  4  1  0
  9  1  1  0
  9 44  1  0
 11 12  2  0
 12 13  1  0
 13 14  2  0
 14 15  1  0
 14 45  1  0
 15 16  2  0
 16 17  1  0
 16 46  1  0
 17 21  1  0
 17 18  2  0
 18 19  1  0
 18 13  1  0
 19 11  1  0
 19 20  1  0
 21 22  2  0
 22 23  1  0
 22 47  1  0
 23 24  2  0
 23 48  1  0
 24 25  1  0
 24 49  1  0
 25 26  1  0
 25 27  2  0
 27 21  1  0
 27 50  1  0
 28 29  2  0
 29 30  1  0
 29 51  1  0
 30 31  2  0
 31 32  1  0
 31 52  1  0
 32  1  1  0
 32 33  2  0
 33 28  1  0
 33 53  1  0
 34 35  2  0
 34 36  1  0
 36 28  1  0
 36 37  1  0
 38 34  1  0
 38 54  1  0
 38 55  1  0
 39 40  1  0
 39 56  1  0
 39 57  1  0
 39 58  1  0
 40 41  1  0
 40 38  1  0
 40 59  1  0
 41 60  1  0
 41 61  1  0
 41 62  1  0
M  END
>  <minimizedAffinity>  (10) 
-10.71527

>  <mol_id>  (10) 
142923

>  <source_index>  (10) 
9

>  <layer>  (10) 
L1

>  <uniprot>  (10) 
P49759

>  <paff>  (10) 
6.6215999999999999

>  <smiles>  (10) 
CC(C)CC(=O)Nc1cncc(-c2ccc3[nH]nc(-c4nc5cncc(-c6cccc(F)c6)c5[nH]4)c3c2)c1

>  <aimnet_interaction_kcal_mol>  (10) 
-103.56775793675165

$$$$
