L1:P49759:474
     RDKit          3D

 39 42  0  0  0  0  0  0  0  0999 V2000
   36.1754   30.5146    1.0888 C   0  0  0  0  0  0  0  0  0  0  0  0
   37.4191   30.7533    0.2819 C   0  0  0  0  0  0  0  0  0  0  0  0
   38.5621   31.4341    0.8002 C   0  0  0  0  0  0  0  0  0  0  0  0
   38.4779   32.0775    2.6090 Br  0  0  0  0  0  0  0  0  0  0  0  0
   39.7354   31.6395    0.0229 C   0  0  0  0  0  0  0  0  0  0  0  0
   41.2483   32.5790    0.7212 Br  0  0  0  0  0  0  0  0  0  0  0  0
   39.8180   31.1619   -1.2953 C   0  0  0  0  0  0  0  0  0  0  0  0
   40.9628   31.2832   -2.2623 C   0  0  0  0  0  0  0  0  0  0  0  0
   40.8765   30.1881   -3.3570 C   0  0  0  0  0  0  0  0  0  0  0  0
   39.4816   30.0713   -4.0077 C   0  0  0  0  0  0  0  0  0  0  0  0
   38.4351   30.0301   -3.0062 N   0  0  0  0  0  0  0  0  0  0  0  0
   37.1744   29.5014   -3.0310 C   0  0  0  0  0  0  0  0  0  0  0  0
   36.6063   29.6380   -1.8478 N   0  0  0  0  0  0  0  0  0  0  0  0
   37.5068   30.3144   -1.0519 C   0  0  0  0  0  0  0  0  0  0  0  0
   38.6602   30.5488   -1.7595 C   0  0  0  0  0  0  0  0  0  0  0  0
   36.6703   28.8829   -4.1353 N   0  0  0  0  0  0  0  0  0  0  0  0
   35.9907   27.5909   -3.8691 C   0  0  0  0  0  0  0  0  0  0  0  0
   34.5112   27.7790   -3.4594 C   0  0  0  0  0  0  0  0  0  0  0  0
   33.7326   28.5750   -4.4357 N   0  0  0  0  0  0  0  0  0  0  0  0
   34.4154   29.8718   -4.6200 C   0  0  0  0  0  0  0  0  0  0  0  0
   35.8900   29.7302   -5.0661 C   0  0  0  0  0  0  0  0  0  0  0  0
   33.7429   28.0777   -5.3257 H   0  0  0  0  0  0  0  0  0  0  0  0
   36.3041   30.9196    2.0708 H   0  0  0  0  0  0  0  0  0  0  0  0
   35.9916   29.4628    1.1581 H   0  0  0  0  0  0  0  0  0  0  0  0
   35.3443   30.9913    0.6125 H   0  0  0  0  0  0  0  0  0  0  0  0
   41.8847   31.1754   -1.7300 H   0  0  0  0  0  0  0  0  0  0  0  0
   40.9147   32.2431   -2.7325 H   0  0  0  0  0  0  0  0  0  0  0  0
   41.1223   29.2461   -2.9129 H   0  0  0  0  0  0  0  0  0  0  0  0
   41.5611   30.4648   -4.1314 H   0  0  0  0  0  0  0  0  0  0  0  0
   39.4425   29.1743   -4.5897 H   0  0  0  0  0  0  0  0  0  0  0  0
   39.3241   30.9306   -4.6255 H   0  0  0  0  0  0  0  0  0  0  0  0
   36.5057   27.0880   -3.0774 H   0  0  0  0  0  0  0  0  0  0  0  0
   36.0097   27.0188   -4.7731 H   0  0  0  0  0  0  0  0  0  0  0  0
   34.4810   28.2774   -2.5130 H   0  0  0  0  0  0  0  0  0  0  0  0
   34.0671   26.8065   -3.4156 H   0  0  0  0  0  0  0  0  0  0  0  0
   34.3912   30.4031   -3.6916 H   0  0  0  0  0  0  0  0  0  0  0  0
   33.8983   30.3941   -5.3976 H   0  0  0  0  0  0  0  0  0  0  0  0
   36.3347   30.7027   -5.1039 H   0  0  0  0  0  0  0  0  0  0  0  0
   35.9016   29.2627   -6.0285 H   0  0  0  0  0  0  0  0  0  0  0  0
  1  2  1  0
  1 23  1  0
  1 24  1  0
  1 25  1  0
  2  3  2  0
  3  4  1  0
  3  5  1  0
  5  6  1  0
  5  7  2  0
  7  8  1  0
  8  9  1  0
  8 26  1  0
  8 27  1  0
  9 10  1  0
  9 28  1  0
  9 29  1  0
 10 11  1  0
 10 30  1  0
 10 31  1  0
 11 12  1  0
 12 13  2  0
 12 16  1  0
 13 14  1  0
 14 15  2  0
 14  2  1  0
 15  7  1  0
 15 11  1  0
 16 17  1  0
 17 18  1  0
 17 32  1  0
 17 33  1  0
 18 19  1  0
 18 34  1  0
 18 35  1  0
 19 20  1  0
 19 22  1  0
 20 21  1  0
 20 36  1  0
 20 37  1  0
 21 16  1  0
 21 38  1  0
 21 39  1  0
M  END
>  <minimizedAffinity>  (1) 
-7.81364

>  <mol_id>  (1) 
474

>  <source_index>  (1) 
0

>  <layer>  (1) 
L1

>  <uniprot>  (1) 
P49759

>  <paff>  (1) 
8.2757000000000005

>  <smiles>  (1) 
Cc1c(Br)c(Br)c2CCCn3c(nc1c23)N1CCNCC1

$$$$
L1:P49759:1812
     RDKit          3D

 61 68  0  0  0  0  0  0  0  0999 V2000
   33.6569   29.3106    1.6454 C   0  0  0  0  0  0  0  0  0  0  0  0
   34.6394   30.2541    0.9120 C   0  0  1  0  0  0  0  0  0  0  0  0
   34.0761   31.7149    0.9230 C   0  0  1  0  0  0  0  0  0  0  0  0
   34.5064   32.3914    2.2487 C   0  0  1  0  0  0  0  0  0  0  0  0
   36.0362   32.5082    2.2365 C   0  0  0  0  0  0  0  0  0  0  0  0
   36.7097   31.1797    1.8691 C   0  0  1  0  0  0  0  0  0  0  0  0
   35.8146   30.0768    1.7418 O   0  0  0  0  0  0  0  0  0  0  0  0
   37.6431   31.2199    0.7495 N   0  0  0  0  0  0  0  0  0  0  0  0
   38.9237   31.7500    0.8078 C   0  0  0  0  0  0  0  0  0  0  0  0
   39.5809   32.4529    1.8341 C   0  0  0  0  0  0  0  0  0  0  0  0
   40.8977   32.8657    1.6194 C   0  0  0  0  0  0  0  0  0  0  0  0
   41.5440   32.5864    0.4224 C   0  0  0  0  0  0  0  0  0  0  0  0
   40.8859   31.8854   -0.5935 C   0  0  0  0  0  0  0  0  0  0  0  0
   39.5538   31.4537   -0.4127 C   0  0  0  0  0  0  0  0  0  0  0  0
   38.6164   30.7387   -1.2200 C   0  0  0  0  0  0  0  0  0  0  0  0
   37.4578   30.6411   -0.4676 C   0  0  0  0  0  0  0  0  0  0  0  0
   36.1831   29.9487   -1.0363 C   0  0  0  0  0  0  0  0  0  0  0  0
   34.9508   29.7934   -0.4537 N   0  0  0  0  0  0  0  0  0  0  0  0
   34.0846   29.2600   -1.4082 C   0  0  0  0  0  0  0  0  0  0  0  0
   32.6970   29.0210   -1.4083 C   0  0  0  0  0  0  0  0  0  0  0  0
   32.1074   28.4240   -2.5278 C   0  0  0  0  0  0  0  0  0  0  0  0
   32.8658   28.0806   -3.6369 C   0  0  0  0  0  0  0  0  0  0  0  0
   34.2347   28.3491   -3.6600 C   0  0  0  0  0  0  0  0  0  0  0  0
   34.8571   28.9549   -2.5458 C   0  0  0  0  0  0  0  0  0  0  0  0
   36.1798   29.4200   -2.3091 C   0  0  0  0  0  0  0  0  0  0  0  0
   37.3830   29.5059   -3.0290 C   0  0  0  0  0  0  0  0  0  0  0  0
   38.5426   30.1460   -2.4900 C   0  0  0  0  0  0  0  0  0  0  0  0
   39.5922   30.0701   -3.5174 C   0  0  0  0  0  0  0  0  0  0  0  0
   40.7300   30.4905   -3.4595 O   0  0  0  0  0  0  0  0  0  0  0  0
   39.0552   29.4151   -4.6041 N   0  0  0  0  0  0  0  0  0  0  0  0
   37.6854   29.0277   -4.4180 C   0  0  0  0  0  0  0  0  0  0  0  0
   39.6060   29.2568   -5.4364 H   0  0  0  0  0  0  0  0  0  0  0  0
   33.8534   33.7068    2.4292 N   0  0  0  0  0  0  0  0  0  0  0  0
   33.2540   33.8788    3.7461 C   0  0  0  0  0  0  0  0  0  0  0  0
   33.1317   33.8357    1.7208 H   0  0  0  0  0  0  0  0  0  0  0  0
   34.6296   32.4865   -0.1626 O   0  0  0  0  0  0  0  0  0  0  0  0
   33.6493   32.9971   -1.0528 C   0  0  0  0  0  0  0  0  0  0  0  0
   33.4651   29.6890    2.6277 H   0  0  0  0  0  0  0  0  0  0  0  0
   34.0872   28.3336    1.7173 H   0  0  0  0  0  0  0  0  0  0  0  0
   32.7388   29.2566    1.0985 H   0  0  0  0  0  0  0  0  0  0  0  0
   33.0115   31.6746    0.8230 H   0  0  0  0  0  0  0  0  0  0  0  0
   34.1940   31.7975    3.0821 H   0  0  0  0  0  0  0  0  0  0  0  0
   36.3679   32.8066    3.2090 H   0  0  0  0  0  0  0  0  0  0  0  0
   36.3071   33.2324    1.4969 H   0  0  0  0  0  0  0  0  0  0  0  0
   37.3102   31.0105    2.7384 H   0  0  0  0  0  0  0  0  0  0  0  0
   39.1013   32.6586    2.7245 H   0  0  0  0  0  0  0  0  0  0  0  0
   41.3964   33.3845    2.3591 H   0  0  0  0  0  0  0  0  0  0  0  0
   42.5175   32.8985    0.2813 H   0  0  0  0  0  0  0  0  0  0  0  0
   41.3760   31.6829   -1.4788 H   0  0  0  0  0  0  0  0  0  0  0  0
   32.1219   29.2830   -0.5925 H   0  0  0  0  0  0  0  0  0  0  0  0
   31.0926   28.2363   -2.5283 H   0  0  0  0  0  0  0  0  0  0  0  0
   32.4166   27.6255   -4.4469 H   0  0  0  0  0  0  0  0  0  0  0  0
   34.7936   28.1047   -4.4925 H   0  0  0  0  0  0  0  0  0  0  0  0
   37.5729   27.9662   -4.4919 H   0  0  0  0  0  0  0  0  0  0  0  0
   37.0282   29.4372   -5.1565 H   0  0  0  0  0  0  0  0  0  0  0  0
   34.0027   33.7457    4.4989 H   0  0  0  0  0  0  0  0  0  0  0  0
   32.4784   33.1543    3.8824 H   0  0  0  0  0  0  0  0  0  0  0  0
   32.8407   34.8627    3.8241 H   0  0  0  0  0  0  0  0  0  0  0  0
   34.1289   33.5560   -1.8290 H   0  0  0  0  0  0  0  0  0  0  0  0
   32.9782   33.6350   -0.5165 H   0  0  0  0  0  0  0  0  0  0  0  0
   33.1017   32.1853   -1.4840 H   0  0  0  0  0  0  0  0  0  0  0  0
  1 38  1  0
  1 39  1  0
  1 40  1  0
  2  1  1  1
  2  3  1  0
  3  4  1  0
  3 36  1  0
  3 41  1  6
  4  5  1  0
  4 33  1  0
  4 42  1  1
  5  6  1  0
  5 43  1  0
  5 44  1  0
  6  7  1  0
  6  8  1  0
  6 45  1  1
  7  2  1  0
  8  9  1  0
  9 10  2  0
 10 11  1  0
 10 46  1  0
 11 12  2  0
 11 47  1  0
 12 13  1  0
 12 48  1  0
 13 14  2  0
 13 49  1  0
 14 15  1  0
 14  9  1  0
 15 16  2  0
 16 17  1  0
 16  8  1  0
 17 18  1  0
 18 19  1  0
 18  2  1  0
 19 20  2  0
 20 21  1  0
 20 50  1  0
 21 22  2  0
 21 51  1  0
 22 23  1  0
 22 52  1  0
 23 24  2  0
 23 53  1  0
 24 25  1  0
 24 19  1  0
 25 26  1  0
 25 17  2  0
 26 27  2  0
 27 28  1  0
 27 15  1  0
 28 29  2  0
 28 30  1  0
 30 31  1  0
 30 32  1  0
 31 26  1  0
 31 54  1  0
 31 55  1  0
 33 34  1  0
 33 35  1  0
 34 56  1  0
 34 57  1  0
 34 58  1  0
 36 37  1  0
 37 59  1  0
 37 60  1  0
 37 61  1  0
M  END
>  <minimizedAffinity>  (2) 
-10.65210

>  <mol_id>  (2) 
1812

>  <source_index>  (2) 
1

>  <layer>  (2) 
L1

>  <uniprot>  (2) 
P49759

>  <paff>  (2) 
9

>  <smiles>  (2) 
C[C@@]12[C@@H]([C@@H](C[C@@H](O1)n3c4ccccc4c5c3c6n2c7ccccc7c6c8c5C(=O)NC8)NC)OC

$$$$
L1:P49759:1813
     RDKit          3D

 69 73  0  0  0  0  0  0  0  0999 V2000
   36.9952   28.5106   -5.1963 N   0  0  0  0  0  0  0  0  0  0  0  0
   35.9292   29.3198   -5.5508 C   0  0  0  0  0  0  0  0  0  0  0  0
   35.5723   30.3154   -4.9340 O   0  0  0  0  0  0  0  0  0  0  0  0
   35.3293   28.8566   -6.7147 N   0  0  0  0  0  0  0  0  0  0  0  0
   37.0273   27.5870   -5.6078 H   0  0  0  0  0  0  0  0  0  0  0  0
   35.8064   28.1435   -7.2461 H   0  0  0  0  0  0  0  0  0  0  0  0
   39.5452   29.0283   -1.8712 C   0  0  0  0  0  0  0  0  0  0  0  0
   40.0037   29.3799   -3.1427 C   0  0  0  0  0  0  0  0  0  0  0  0
   39.1860   29.2148   -4.2667 C   0  0  0  0  0  0  0  0  0  0  0  0
   37.8944   28.7101   -4.1244 C   0  0  0  0  0  0  0  0  0  0  0  0
   37.4505   28.3667   -2.8398 C   0  0  0  0  0  0  0  0  0  0  0  0
   36.2090   27.8788   -2.6832 F   0  0  0  0  0  0  0  0  0  0  0  0
   38.2532   28.5306   -1.7140 C   0  0  0  0  0  0  0  0  0  0  0  0
   40.4107   29.2733   -0.8305 O   0  0  0  0  0  0  0  0  0  0  0  0
   39.5124   32.0119    1.3488 C   0  0  0  0  0  0  0  0  0  0  0  0
   39.5505   30.7384    0.8072 C   0  0  0  0  0  0  0  0  0  0  0  0
   40.4062   30.5249   -0.2649 C   0  0  0  0  0  0  0  0  0  0  0  0
   41.1566   31.5753   -0.7878 C   0  0  0  0  0  0  0  0  0  0  0  0
   41.0507   32.8125   -0.1765 C   0  0  0  0  0  0  0  0  0  0  0  0
   40.2556   33.0606    0.8860 N   0  0  0  0  0  0  0  0  0  0  0  0
   36.2634   32.3392    3.2516 C   0  0  0  0  0  0  0  0  0  0  0  0
   37.2837   32.0393    2.2841 N   0  0  0  0  0  0  0  0  0  0  0  0
   38.6184   32.2953    2.5169 C   0  0  0  0  0  0  0  0  0  0  0  0
   39.0621   32.7277    3.5735 O   0  0  0  0  0  0  0  0  0  0  0  0
   37.0365   31.7846    1.3305 H   0  0  0  0  0  0  0  0  0  0  0  0
   34.1199   29.3515   -7.1923 C   0  0  0  0  0  0  0  0  0  0  0  0
   33.8383   30.0068   -8.3730 C   0  0  0  0  0  0  0  0  0  0  0  0
   32.5285   30.5191   -8.2349 C   0  0  0  0  0  0  0  0  0  0  0  0
   32.0052   30.1748   -7.0538 N   0  0  0  0  0  0  0  0  0  0  0  0
   32.9149   29.3388   -6.4869 N   0  0  0  0  0  0  0  0  0  0  0  0
   32.5377   28.5828   -5.3369 C   0  0  0  0  0  0  0  0  0  0  0  0
   32.3374   27.2018   -5.3939 C   0  0  0  0  0  0  0  0  0  0  0  0
   31.9488   26.5029   -4.2424 C   0  0  0  0  0  0  0  0  0  0  0  0
   31.7335   27.1431   -3.0304 C   0  0  0  0  0  0  0  0  0  0  0  0
   31.3593   26.4225   -1.9589 N   0  0  0  0  0  0  0  0  0  0  0  0
   31.1354   27.0816   -0.8002 C   0  0  0  0  0  0  0  0  0  0  0  0
   31.2745   28.4489   -0.6505 C   0  0  0  0  0  0  0  0  0  0  0  0
   31.6656   29.1882   -1.7598 C   0  0  0  0  0  0  0  0  0  0  0  0
   31.9042   28.5417   -2.9792 C   0  0  0  0  0  0  0  0  0  0  0  0
   32.2964   29.2523   -4.1285 C   0  0  0  0  0  0  0  0  0  0  0  0
   31.7672   31.3880   -9.2238 C   0  0  0  0  0  0  0  0  0  0  0  0
   30.2689   31.4071   -8.8586 C   0  0  0  0  0  0  0  0  0  0  0  0
   32.2734   32.8471   -9.2293 C   0  0  0  0  0  0  0  0  0  0  0  0
   31.9260   30.8254  -10.6513 C   0  0  0  0  0  0  0  0  0  0  0  0
   40.9545   29.7651   -3.2546 H   0  0  0  0  0  0  0  0  0  0  0  0
   39.5400   29.4672   -5.2026 H   0  0  0  0  0  0  0  0  0  0  0  0
   37.8965   28.2870   -0.7768 H   0  0  0  0  0  0  0  0  0  0  0  0
   38.9654   29.9772    1.1858 H   0  0  0  0  0  0  0  0  0  0  0  0
   41.7717   31.4356   -1.6046 H   0  0  0  0  0  0  0  0  0  0  0  0
   41.6125   33.5910   -0.5551 H   0  0  0  0  0  0  0  0  0  0  0  0
   36.7203   32.5823    4.1881 H   0  0  0  0  0  0  0  0  0  0  0  0
   35.6278   31.4874    3.3754 H   0  0  0  0  0  0  0  0  0  0  0  0
   35.6827   33.1711    2.9114 H   0  0  0  0  0  0  0  0  0  0  0  0
   34.4589   30.1034   -9.1919 H   0  0  0  0  0  0  0  0  0  0  0  0
   32.4753   26.6962   -6.2829 H   0  0  0  0  0  0  0  0  0  0  0  0
   31.8189   25.4806   -4.2979 H   0  0  0  0  0  0  0  0  0  0  0  0
   30.8430   26.5310    0.0222 H   0  0  0  0  0  0  0  0  0  0  0  0
   31.0935   28.9061    0.2568 H   0  0  0  0  0  0  0  0  0  0  0  0
   31.7800   30.2111   -1.6856 H   0  0  0  0  0  0  0  0  0  0  0  0
   32.4077   30.2772   -4.0817 H   0  0  0  0  0  0  0  0  0  0  0  0
   30.1479   31.7961   -7.8692 H   0  0  0  0  0  0  0  0  0  0  0  0
   29.8788   30.4116   -8.9006 H   0  0  0  0  0  0  0  0  0  0  0  0
   29.7405   32.0268   -9.5526 H   0  0  0  0  0  0  0  0  0  0  0  0
   32.1743   33.2627   -8.2483 H   0  0  0  0  0  0  0  0  0  0  0  0
   31.6944   33.4229   -9.9208 H   0  0  0  0  0  0  0  0  0  0  0  0
   33.3022   32.8666   -9.5227 H   0  0  0  0  0  0  0  0  0  0  0  0
   31.5817   29.8126  -10.6759 H   0  0  0  0  0  0  0  0  0  0  0  0
   32.9572   30.8585  -10.9351 H   0  0  0  0  0  0  0  0  0  0  0  0
   31.3493   31.4148  -11.3332 H   0  0  0  0  0  0  0  0  0  0  0  0
  1  2  1  0
  1  5  1  0
  2  3  2  0
  2  4  1  0
  4 26  1  0
  4  6  1  0
  7  8  2  0
  8  9  1  0
  8 45  1  0
  9 10  2  0
  9 46  1  0
 10  1  1  0
 10 11  1  0
 11 12  1  0
 11 13  2  0
 13  7  1  0
 13 47  1  0
 14  7  1  0
 15 16  2  0
 16 17  1  0
 16 48  1  0
 17 14  1  0
 17 18  2  0
 18 19  1  0
 18 49  1  0
 19 20  2  0
 19 50  1  0
 20 15  1  0
 21 22  1  0
 21 51  1  0
 21 52  1  0
 21 53  1  0
 22 23  1  0
 22 25  1  0
 23 24  2  0
 23 15  1  0
 26 27  2  0
 27 28  1  0
 27 54  1  0
 28 29  2  0
 28 41  1  0
 29 30  1  0
 30 31  1  0
 30 26  1  0
 31 32  2  0
 32 33  1  0
 32 55  1  0
 33 34  2  0
 33 56  1  0
 34 35  1  0
 35 36  2  0
 36 37  1  0
 36 57  1  0
 37 38  2  0
 37 58  1  0
 38 39  1  0
 38 59  1  0
 39 40  2  0
 39 34  1  0
 40 31  1  0
 40 60  1  0
 41 42  1  0
 41 43  1  0
 41 44  1  0
 42 61  1  0
 42 62  1  0
 42 63  1  0
 43 64  1  0
 43 65  1  0
 43 66  1  0
 44 67  1  0
 44 68  1  0
 44 69  1  0
M  END
>  <minimizedAffinity>  (3) 
-8.39625

>  <mol_id>  (3) 
1813

>  <source_index>  (3) 
2

>  <layer>  (3) 
L1

>  <uniprot>  (3) 
P49759

>  <paff>  (3) 
6

>  <smiles>  (3) 
CNC(=O)c1cc(Oc2ccc(NC(=O)Nc3cc(nn3-c3ccc4ncccc4c3)C(C)(C)C)c(F)c2)ccn1

$$$$
L1:P49759:1814
     RDKit          3D

 53 56  0  0  0  0  0  0  0  0999 V2000
   39.3493   30.7375   -2.4605 C   0  0  0  0  0  0  0  0  0  0  0  0
   40.5812   31.1669   -2.9082 C   0  0  0  0  0  0  0  0  0  0  0  0
   41.4565   31.5932   -1.9423 C   0  0  0  0  0  0  0  0  0  0  0  0
   41.1652   31.6054   -0.6322 N   0  0  0  0  0  0  0  0  0  0  0  0
   39.9486   31.1817   -0.2670 C   0  0  0  0  0  0  0  0  0  0  0  0
   39.0290   30.7504   -1.1462 N   0  0  0  0  0  0  0  0  0  0  0  0
   36.2371   29.3241   -5.0974 C   0  0  0  0  0  0  0  0  0  0  0  0
   37.4694   28.6646   -5.0526 C   0  0  0  0  0  0  0  0  0  0  0  0
   38.4809   29.1212   -4.1953 C   0  0  0  0  0  0  0  0  0  0  0  0
   38.2925   30.2454   -3.3691 C   0  0  0  0  0  0  0  0  0  0  0  0
   37.0456   30.8943   -3.4362 C   0  0  0  0  0  0  0  0  0  0  0  0
   36.0336   30.4494   -4.2948 C   0  0  0  0  0  0  0  0  0  0  0  0
   34.5536   27.8206   -5.7968 O   0  0  0  0  0  0  0  0  0  0  0  0
   35.1337   28.8819   -5.9941 C   0  0  0  0  0  0  0  0  0  0  0  0
   34.8373   29.7036   -7.0597 N   0  0  0  0  0  0  0  0  0  0  0  0
   35.5124   30.4051   -7.3380 H   0  0  0  0  0  0  0  0  0  0  0  0
   33.8575   29.2734   -8.0421 C   0  0  0  0  0  0  0  0  0  0  0  0
   33.8810   30.1242   -9.2408 C   0  0  0  0  0  0  0  0  0  0  0  0
   33.8793   30.7682  -10.2073 N   0  0  0  0  0  0  0  0  0  0  0  0
   39.5398   31.1604    1.0629 N   0  0  0  0  0  0  0  0  0  0  0  0
   40.3028   30.8272    1.6330 H   0  0  0  0  0  0  0  0  0  0  0  0
   38.3695   31.5345    1.7271 C   0  0  0  0  0  0  0  0  0  0  0  0
   38.4442   32.5064    2.7304 C   0  0  0  0  0  0  0  0  0  0  0  0
   37.3044   32.9189    3.4401 C   0  0  0  0  0  0  0  0  0  0  0  0
   36.0360   32.3827    3.1863 C   0  0  0  0  0  0  0  0  0  0  0  0
   35.9773   31.4003    2.1894 C   0  0  0  0  0  0  0  0  0  0  0  0
   37.1155   30.9855    1.4752 C   0  0  0  0  0  0  0  0  0  0  0  0
   34.9174   32.7891    3.8906 N   0  0  0  0  0  0  0  0  0  0  0  0
   35.0107   33.3544    5.2459 C   0  0  0  0  0  0  0  0  0  0  0  0
   33.7254   34.1306    5.5809 C   0  0  0  0  0  0  0  0  0  0  0  0
   32.5319   33.3351    5.5343 O   0  0  0  0  0  0  0  0  0  0  0  0
   32.6283   32.2238    4.6324 C   0  0  0  0  0  0  0  0  0  0  0  0
   33.5558   32.4688    3.4288 C   0  0  0  0  0  0  0  0  0  0  0  0
   40.8294   31.1674   -3.9099 H   0  0  0  0  0  0  0  0  0  0  0  0
   42.3887   31.9221   -2.2386 H   0  0  0  0  0  0  0  0  0  0  0  0
   37.6347   27.8405   -5.6514 H   0  0  0  0  0  0  0  0  0  0  0  0
   39.3837   28.6219   -4.1695 H   0  0  0  0  0  0  0  0  0  0  0  0
   36.8733   31.7176   -2.8383 H   0  0  0  0  0  0  0  0  0  0  0  0
   35.1344   30.9542   -4.3351 H   0  0  0  0  0  0  0  0  0  0  0  0
   32.8828   29.3194   -7.6031 H   0  0  0  0  0  0  0  0  0  0  0  0
   34.0977   28.2734   -8.3376 H   0  0  0  0  0  0  0  0  0  0  0  0
   39.3581   32.9303    2.9544 H   0  0  0  0  0  0  0  0  0  0  0  0
   37.4049   33.6399    4.1716 H   0  0  0  0  0  0  0  0  0  0  0  0
   35.0670   30.9658    1.9715 H   0  0  0  0  0  0  0  0  0  0  0  0
   37.0190   30.2587    0.7490 H   0  0  0  0  0  0  0  0  0  0  0  0
   35.8488   34.0177    5.2964 H   0  0  0  0  0  0  0  0  0  0  0  0
   35.1349   32.5591    5.9508 H   0  0  0  0  0  0  0  0  0  0  0  0
   33.6234   34.9311    4.8782 H   0  0  0  0  0  0  0  0  0  0  0  0
   33.8271   34.4759    6.5885 H   0  0  0  0  0  0  0  0  0  0  0  0
   31.6483   32.0056    4.2623 H   0  0  0  0  0  0  0  0  0  0  0  0
   33.0512   31.4124    5.1872 H   0  0  0  0  0  0  0  0  0  0  0  0
   33.1771   33.2865    2.8518 H   0  0  0  0  0  0  0  0  0  0  0  0
   33.5905   31.5830    2.8296 H   0  0  0  0  0  0  0  0  0  0  0  0
  1  2  2  0
  2  3  1  0
  2 34  1  0
  3  4  2  0
  3 35  1  0
  4  5  1  0
  5 20  1  0
  5  6  2  0
  6  1  1  0
  7  8  2  0
  8  9  1  0
  8 36  1  0
  9 10  2  0
  9 37  1  0
 10 11  1  0
 10  1  1  0
 11 12  2  0
 11 38  1  0
 12  7  1  0
 12 39  1  0
 13 14  2  0
 14 15  1  0
 14  7  1  0
 15 17  1  0
 15 16  1  0
 17 18  1  0
 17 40  1  0
 17 41  1  0
 18 19  3  0
 20 22  1  0
 20 21  1  0
 22 23  2  0
 23 24  1  0
 23 42  1  0
 24 25  2  0
 24 43  1  0
 25 26  1  0
 25 28  1  0
 26 27  2  0
 26 44  1  0
 27 22  1  0
 27 45  1  0
 28 29  1  0
 29 30  1  0
 29 46  1  0
 29 47  1  0
 30 31  1  0
 30 48  1  0
 30 49  1  0
 31 32  1  0
 32 33  1  0
 32 50  1  0
 32 51  1  0
 33 28  1  0
 33 52  1  0
 33 53  1  0
M  END
>  <minimizedAffinity>  (4) 
-7.68443

>  <mol_id>  (4) 
1814

>  <source_index>  (4) 
3

>  <layer>  (4) 
L1

>  <uniprot>  (4) 
P49759

>  <paff>  (4) 
6

>  <smiles>  (4) 
O=C(NCC#N)c1ccc(cc1)-c1ccnc(Nc2ccc(cc2)N2CCOCC2)n1

$$$$
L1:P49759:4296
     RDKit          3D

 28 30  0  0  0  0  0  0  0  0999 V2000
   37.8157   29.2234   -2.9062 C   0  0  0  0  0  0  0  0  0  0  0  0
   38.3835   28.9653   -4.1726 C   0  0  0  0  0  0  0  0  0  0  0  0
   37.7100   28.1992   -5.0961 O   0  0  0  0  0  0  0  0  0  0  0  0
   39.6309   29.4751   -4.5368 C   0  0  0  0  0  0  0  0  0  0  0  0
   40.3576   30.2651   -3.6451 C   0  0  0  0  0  0  0  0  0  0  0  0
   41.5757   30.7202   -4.0979 O   0  0  0  0  0  0  0  0  0  0  0  0
   39.8419   30.5564   -2.3666 C   0  0  0  0  0  0  0  0  0  0  0  0
   38.5888   30.0242   -2.0448 C   0  0  0  0  0  0  0  0  0  0  0  0
   38.2495   30.3968   -0.7768 O   0  0  0  0  0  0  0  0  0  0  0  0
   39.2518   31.1607   -0.2798 C   0  0  0  0  0  0  0  0  0  0  0  0
   39.2625   31.7286    0.9917 C   0  0  0  0  0  0  0  0  0  0  0  0
   40.3860   32.4820    1.3193 C   0  0  0  0  0  0  0  0  0  0  0  0
   40.4178   33.0484    2.5615 O   0  0  0  0  0  0  0  0  0  0  0  0
   41.4392   32.6566    0.4249 C   0  0  0  0  0  0  0  0  0  0  0  0
   41.3954   32.0689   -0.8502 C   0  0  0  0  0  0  0  0  0  0  0  0
   40.2703   31.2985   -1.2156 C   0  0  0  0  0  0  0  0  0  0  0  0
   38.2367   28.1505   -5.9141 H   0  0  0  0  0  0  0  0  0  0  0  0
   41.9789   31.2527   -3.3951 H   0  0  0  0  0  0  0  0  0  0  0  0
   41.2456   33.5453    2.6644 H   0  0  0  0  0  0  0  0  0  0  0  0
   35.7135   29.5587   -1.7084 N   0  0  0  0  0  0  0  0  0  0  0  0
   36.4891   28.7166   -2.4540 C   0  0  0  0  0  0  0  0  0  0  0  0
   36.0759   27.5939   -2.7135 O   0  0  0  0  0  0  0  0  0  0  0  0
   36.0861   30.4380   -1.3664 H   0  0  0  0  0  0  0  0  0  0  0  0
   34.8568   29.1929   -1.3188 H   0  0  0  0  0  0  0  0  0  0  0  0
   40.0178   29.2666   -5.4706 H   0  0  0  0  0  0  0  0  0  0  0  0
   38.4816   31.5982    1.6536 H   0  0  0  0  0  0  0  0  0  0  0  0
   42.2575   33.2217    0.7009 H   0  0  0  0  0  0  0  0  0  0  0  0
   42.1765   32.1988   -1.5121 H   0  0  0  0  0  0  0  0  0  0  0  0
  1  2  2  0
  2  3  1  0
  2  4  1  0
  3 17  1  0
  4  5  2  0
  4 25  1  0
  5  6  1  0
  5  7  1  0
  6 18  1  0
  7  8  2  0
  8  9  1  0
  8  1  1  0
  9 10  1  0
 10 11  2  0
 11 12  1  0
 11 26  1  0
 12 13  1  0
 12 14  2  0
 13 19  1  0
 14 15  1  0
 14 27  1  0
 15 16  2  0
 15 28  1  0
 16 10  1  0
 16  7  1  0
 20 21  1  0
 20 23  1  0
 20 24  1  0
 21 22  2  0
 21  1  1  0
M  END
>  <minimizedAffinity>  (5) 
-8.61601

>  <mol_id>  (5) 
4296

>  <source_index>  (5) 
4

>  <layer>  (5) 
L1

>  <uniprot>  (5) 
P49759

>  <paff>  (5) 
7.585

>  <smiles>  (5) 
NC(=O)c1c(O)cc(O)c2c1oc1cc(O)ccc12

$$$$
L1:P49759:60031
     RDKit          3D

 36 39  0  0  0  0  0  0  0  0999 V2000
   36.7774   30.8077    0.4409 O   0  0  0  0  0  0  0  0  0  0  0  0
   37.1457   31.5049    1.3628 C   0  0  0  0  0  0  0  0  0  0  0  0
   36.3676   32.1035    2.3011 N   0  0  0  0  0  0  0  0  0  0  0  0
   37.1488   32.7876    3.1774 C   0  0  0  0  0  0  0  0  0  0  0  0
   38.4160   32.7089    2.9072 N   0  0  0  0  0  0  0  0  0  0  0  0
   38.5126   31.9233    1.7762 C   0  0  0  0  0  0  0  0  0  0  0  0
   39.6774   31.6080    1.1970 C   0  0  0  0  0  0  0  0  0  0  0  0
   35.3687   32.0090    2.3047 H   0  0  0  0  0  0  0  0  0  0  0  0
   39.8584   30.7834    0.0013 C   0  0  0  0  0  0  0  0  0  0  0  0
   39.8269   29.3777    0.1268 C   0  0  0  0  0  0  0  0  0  0  0  0
   40.0195   28.5539   -0.9873 C   0  0  0  0  0  0  0  0  0  0  0  0
   40.2464   29.1634   -2.2018 C   0  0  0  0  0  0  0  0  0  0  0  0
   40.2872   30.5320   -2.3286 C   0  0  0  0  0  0  0  0  0  0  0  0
   40.1009   31.3696   -1.2486 C   0  0  0  0  0  0  0  0  0  0  0  0
   40.5316   30.9269   -3.6074 O   0  0  0  0  0  0  0  0  0  0  0  0
   40.6135   29.6505   -4.2735 C   0  0  0  0  0  0  0  0  0  0  0  0
   40.4558   28.5254   -3.3841 O   0  0  0  0  0  0  0  0  0  0  0  0
   36.5165   33.4441    4.1925 N   0  0  0  0  0  0  0  0  0  0  0  0
   36.9750   34.2646    4.5589 H   0  0  0  0  0  0  0  0  0  0  0  0
   35.2970   33.1460    4.8292 C   0  0  0  0  0  0  0  0  0  0  0  0
   34.2405   32.4608    4.2208 C   0  0  0  0  0  0  0  0  0  0  0  0
   33.0519   32.1979    4.9122 C   0  0  0  0  0  0  0  0  0  0  0  0
   32.8987   32.6182    6.2294 C   0  0  0  0  0  0  0  0  0  0  0  0
   33.9344   33.3018    6.8560 C   0  0  0  0  0  0  0  0  0  0  0  0
   35.1199   33.5620    6.1613 C   0  0  0  0  0  0  0  0  0  0  0  0
   40.5322   31.9833    1.6369 H   0  0  0  0  0  0  0  0  0  0  0  0
   39.6597   28.9524    1.0521 H   0  0  0  0  0  0  0  0  0  0  0  0
   39.9926   27.5258   -0.9024 H   0  0  0  0  0  0  0  0  0  0  0  0
   40.1389   32.3952   -1.3574 H   0  0  0  0  0  0  0  0  0  0  0  0
   41.5702   29.5764   -4.7469 H   0  0  0  0  0  0  0  0  0  0  0  0
   39.8082   29.6106   -4.9769 H   0  0  0  0  0  0  0  0  0  0  0  0
   34.3389   32.1430    3.2439 H   0  0  0  0  0  0  0  0  0  0  0  0
   32.2860   31.6901    4.4426 H   0  0  0  0  0  0  0  0  0  0  0  0
   32.0220   32.4238    6.7380 H   0  0  0  0  0  0  0  0  0  0  0  0
   33.8285   33.6170    7.8330 H   0  0  0  0  0  0  0  0  0  0  0  0
   35.8818   34.0706    6.6365 H   0  0  0  0  0  0  0  0  0  0  0  0
  1  2  2  0
  2  3  1  0
  3  4  1  0
  3  8  1  0
  4 18  1  0
  4  5  2  0
  5  6  1  0
  6  7  2  0
  6  2  1  0
  7  9  1  0
  7 26  1  0
  9 10  2  0
 10 11  1  0
 10 27  1  0
 11 12  2  0
 11 28  1  0
 12 13  1  0
 13 14  2  0
 13 15  1  0
 14  9  1  0
 14 29  1  0
 15 16  1  0
 16 17  1  0
 16 30  1  0
 16 31  1  0
 17 12  1  0
 18 20  1  0
 18 19  1  0
 20 21  2  0
 21 22  1  0
 21 32  1  0
 22 23  2  0
 22 33  1  0
 23 24  1  0
 23 34  1  0
 24 25  2  0
 24 35  1  0
 25 20  1  0
 25 36  1  0
M  END
>  <minimizedAffinity>  (6) 
-8.05404

>  <mol_id>  (6) 
60031

>  <source_index>  (6) 
5

>  <layer>  (6) 
L1

>  <uniprot>  (6) 
P49759

>  <paff>  (6) 
7.4558999999999997

>  <smiles>  (6) 
O=C1NC(Nc2ccccc2)=NC1=Cc1ccc2c(c1)OCO2

$$$$
L1:P49759:94228
     RDKit          3D

 35 36  0  0  0  0  0  0  0  0999 V2000
   36.1239   30.2210   -1.1044 C   0  0  0  0  0  0  0  0  0  0  0  0
   37.0486   30.2403   -2.1534 C   0  0  0  0  0  0  0  0  0  0  0  0
   38.2848   30.7450   -1.6166 C   0  0  0  0  0  0  0  0  0  0  0  0
   39.5633   30.9522   -2.1824 C   0  0  0  0  0  0  0  0  0  0  0  0
   40.5823   31.5354   -1.4289 C   0  0  0  0  0  0  0  0  0  0  0  0
   40.3473   31.9337   -0.1190 C   0  0  0  0  0  0  0  0  0  0  0  0
   41.6675   32.6787    0.7208 Cl  0  0  0  0  0  0  0  0  0  0  0  0
   39.0909   31.7326    0.4837 C   0  0  0  0  0  0  0  0  0  0  0  0
   38.8027   32.2940    2.0953 Cl  0  0  0  0  0  0  0  0  0  0  0  0
   38.0715   31.0994   -0.2781 C   0  0  0  0  0  0  0  0  0  0  0  0
   36.7793   30.6922    0.0254 N   0  0  0  0  0  0  0  0  0  0  0  0
   36.2106   30.6628    1.3629 C   0  0  0  0  0  0  0  0  0  0  0  0
   34.7287   29.8050   -1.1070 C   0  0  0  0  0  0  0  0  0  0  0  0
   34.3113   28.7137   -0.7464 O   0  0  0  0  0  0  0  0  0  0  0  0
   33.9491   30.8039   -1.6030 O   0  0  0  0  0  0  0  0  0  0  0  0
   33.7948   32.9779   -0.6309 C   0  0  0  0  0  0  0  0  0  0  0  0
   33.2523   31.5622   -0.6062 C   0  0  0  0  0  0  0  0  0  0  0  0
   36.7997   29.8282   -3.5925 C   0  0  2  0  0  0  0  0  0  0  0  0
   35.8295   30.7312   -4.3285 C   0  0  0  0  0  0  0  0  0  0  0  0
   35.5164   31.9549   -4.0322 N   0  0  0  0  0  0  0  0  0  0  0  0
   36.0081   32.2903   -3.1954 H   0  0  0  0  0  0  0  0  0  0  0  0
   36.3287   28.4340   -3.6967 C   0  0  0  0  0  0  0  0  0  0  0  0
   35.9336   27.3445   -3.7736 N   0  0  0  0  0  0  0  0  0  0  0  0
   39.7441   30.6704   -3.1586 H   0  0  0  0  0  0  0  0  0  0  0  0
   41.5159   31.6717   -1.8470 H   0  0  0  0  0  0  0  0  0  0  0  0
   36.9092   31.0815    2.0568 H   0  0  0  0  0  0  0  0  0  0  0  0
   35.9978   29.6509    1.6378 H   0  0  0  0  0  0  0  0  0  0  0  0
   35.3062   31.2344    1.3786 H   0  0  0  0  0  0  0  0  0  0  0  0
   33.2896   33.5664    0.1063 H   0  0  0  0  0  0  0  0  0  0  0  0
   33.6344   33.4045   -1.5990 H   0  0  0  0  0  0  0  0  0  0  0  0
   34.8432   32.9619   -0.4174 H   0  0  0  0  0  0  0  0  0  0  0  0
   32.2045   31.5709   -0.8230 H   0  0  0  0  0  0  0  0  0  0  0  0
   33.3953   31.1260    0.3603 H   0  0  0  0  0  0  0  0  0  0  0  0
   37.7556   29.9218   -4.0640 H   0  0  0  0  0  0  0  0  0  0  0  0
   35.3664   30.3275   -5.1577 H   0  0  0  0  0  0  0  0  0  0  0  0
  1  2  2  0
  2 18  1  0
  2  3  1  0
  3  4  2  0
  4  5  1  0
  4 24  1  0
  5  6  2  0
  5 25  1  0
  6  7  1  0
  6  8  1  0
  8  9  1  0
  8 10  2  0
 10 11  1  0
 10  3  1  0
 11 12  1  0
 11  1  1  0
 12 26  1  0
 12 27  1  0
 12 28  1  0
 13 14  2  0
 13  1  1  0
 15 13  1  0
 16 17  1  0
 16 29  1  0
 16 30  1  0
 16 31  1  0
 17 15  1  0
 17 32  1  0
 17 33  1  0
 18 19  1  0
 18 22  1  0
 18 34  1  6
 19 20  2  0
 19 35  1  0
 20 21  1  0
 22 23  3  0
M  END
>  <minimizedAffinity>  (7) 
-5.94075

>  <mol_id>  (7) 
94228

>  <source_index>  (7) 
6

>  <layer>  (7) 
L1

>  <uniprot>  (7) 
P49759

>  <paff>  (7) 
6.8239000000000001

>  <smiles>  (7) 
CCOC(=O)c1c(C(C=N)C#N)c2ccc(Cl)c(Cl)c2n1C

$$$$
L1:P49759:114565
     RDKit          3D

 32 33  0  0  0  0  0  0  0  0999 V2000
   37.7734   30.5361   -0.9399 N   0  0  0  0  0  0  0  0  0  0  0  0
   38.8814   31.2373   -0.4228 C   0  0  0  0  0  0  0  0  0  0  0  0
   39.0310   31.7758    0.8512 C   0  0  0  0  0  0  0  0  0  0  0  0
   40.2137   32.4459    1.2023 C   0  0  0  0  0  0  0  0  0  0  0  0
   41.2506   32.5776    0.2694 C   0  0  0  0  0  0  0  0  0  0  0  0
   41.1150   32.0465   -1.0151 C   0  0  0  0  0  0  0  0  0  0  0  0
   39.9385   31.3882   -1.3420 C   0  0  0  0  0  0  0  0  0  0  0  0
   39.5591   30.6549   -2.9239 S   0  0  0  0  0  0  0  0  0  0  0  0
   37.9567   30.1897   -2.2905 C   0  0  0  0  0  0  0  0  0  0  0  0
   37.0636   29.5429   -3.0597 C   0  0  0  0  0  0  0  0  0  0  0  0
   37.1784   29.1505   -4.4871 C   0  0  0  0  0  0  0  0  0  0  0  0
   38.1222   28.4340   -4.8225 O   0  0  0  0  0  0  0  0  0  0  0  0
   36.1060   29.5410   -5.4689 C   0  0  0  0  0  0  0  0  0  0  0  0
   35.5868   31.4643   -0.3162 C   0  0  0  0  0  0  0  0  0  0  0  0
   36.5770   30.3243   -0.1313 C   0  0  0  0  0  0  0  0  0  0  0  0
   40.2283   32.9262    2.4851 O   0  0  0  0  0  0  0  0  0  0  0  0
   39.0310   32.7874    3.2400 C   0  0  0  0  0  0  0  0  0  0  0  0
   38.2693   31.6823    1.5412 H   0  0  0  0  0  0  0  0  0  0  0  0
   42.1188   33.0695    0.5327 H   0  0  0  0  0  0  0  0  0  0  0  0
   41.8747   32.1418   -1.7071 H   0  0  0  0  0  0  0  0  0  0  0  0
   36.1790   29.2843   -2.5954 H   0  0  0  0  0  0  0  0  0  0  0  0
   35.3839   30.1613   -4.9803 H   0  0  0  0  0  0  0  0  0  0  0  0
   35.6259   28.6604   -5.8416 H   0  0  0  0  0  0  0  0  0  0  0  0
   36.5460   30.0788   -6.2825 H   0  0  0  0  0  0  0  0  0  0  0  0
   34.7205   31.2854    0.2858 H   0  0  0  0  0  0  0  0  0  0  0  0
   35.2998   31.5241   -1.3453 H   0  0  0  0  0  0  0  0  0  0  0  0
   36.0436   32.3852   -0.0192 H   0  0  0  0  0  0  0  0  0  0  0  0
   36.1131   29.4063   -0.4262 H   0  0  0  0  0  0  0  0  0  0  0  0
   36.8637   30.2847    0.8988 H   0  0  0  0  0  0  0  0  0  0  0  0
   39.1754   33.1997    4.2168 H   0  0  0  0  0  0  0  0  0  0  0  0
   38.7805   31.7505    3.3240 H   0  0  0  0  0  0  0  0  0  0  0  0
   38.2363   33.3075    2.7472 H   0  0  0  0  0  0  0  0  0  0  0  0
  1  2  1  0
  2  3  2  0
  3  4  1  0
  3 18  1  0
  4  5  2  0
  4 16  1  0
  5  6  1  0
  5 19  1  0
  6  7  2  0
  6 20  1  0
  7  8  1  0
  7  2  1  0
  8  9  1  0
  9 10  2  0
  9  1  1  0
 10 11  1  0
 10 21  1  0
 11 12  2  0
 11 13  1  0
 13 22  1  0
 13 23  1  0
 13 24  1  0
 14 15  1  0
 14 25  1  0
 14 26  1  0
 14 27  1  0
 15  1  1  0
 15 28  1  0
 15 29  1  0
 16 17  1  0
 17 30  1  0
 17 31  1  0
 17 32  1  0
M  END
>  <minimizedAffinity>  (8) 
-6.29348

>  <mol_id>  (8) 
114565

>  <source_index>  (8) 
7

>  <layer>  (8) 
L1

>  <uniprot>  (8) 
P49759

>  <paff>  (8) 
7.585

>  <smiles>  (8) 
CCN\1c2cc(ccc2S/C1=C\C(=O)C)OC

$$$$
L1:P49759:135630
     RDKit          3D

 66 70  0  0  0  0  0  0  0  0999 V2000
   35.5767   33.0272    4.3102 C   0  0  0  0  0  0  0  0  0  0  0  0
   34.8524   33.0249    3.3207 O   0  0  0  0  0  0  0  0  0  0  0  0
   36.9410   32.8513    4.3248 N   0  0  0  0  0  0  0  0  0  0  0  0
   37.4764   32.9958    5.1687 H   0  0  0  0  0  0  0  0  0  0  0  0
   37.7154   32.5476    3.2373 C   0  0  0  0  0  0  0  0  0  0  0  0
   37.4342   31.7751    2.1375 C   0  0  0  0  0  0  0  0  0  0  0  0
   38.5777   31.7907    1.3837 N   0  0  0  0  0  0  0  0  0  0  0  0
   38.8532   31.1543    0.1761 C   0  0  0  0  0  0  0  0  0  0  0  0
   40.0672   31.3055   -0.3941 C   0  0  0  0  0  0  0  0  0  0  0  0
   41.0466   32.1513    0.2954 C   0  0  0  0  0  0  0  0  0  0  0  0
   40.7699   32.7611    1.4644 C   0  0  0  0  0  0  0  0  0  0  0  0
   39.4922   32.5878    2.0638 C   0  0  0  0  0  0  0  0  0  0  0  0
   38.9871   33.0487    3.1891 N   0  0  0  0  0  0  0  0  0  0  0  0
   40.3609   30.6062   -1.6549 C   0  0  0  0  0  0  0  0  0  0  0  0
   39.9132   29.3024   -1.8739 C   0  0  0  0  0  0  0  0  0  0  0  0
   40.2070   28.7037   -3.0876 C   0  0  0  0  0  0  0  0  0  0  0  0
   40.9074   29.3058   -4.0730 N   0  0  0  0  0  0  0  0  0  0  0  0
   41.3312   30.5653   -3.8361 C   0  0  0  0  0  0  0  0  0  0  0  0
   41.0842   31.2517   -2.6593 C   0  0  0  0  0  0  0  0  0  0  0  0
   33.7395   33.7379    8.1524 C   0  0  0  0  0  0  0  0  0  0  0  0
   32.9883   33.2989    7.0480 C   0  0  0  0  0  0  0  0  0  0  0  0
   33.5956   33.0704    5.8089 C   0  0  0  0  0  0  0  0  0  0  0  0
   34.9673   33.2790    5.6461 C   0  0  0  0  0  0  0  0  0  0  0  0
   35.7367   33.6815    6.7412 C   0  0  0  0  0  0  0  0  0  0  0  0
   35.1282   33.9019    7.9806 C   0  0  0  0  0  0  0  0  0  0  0  0
   33.0957   33.9780    9.5309 C   0  0  0  0  0  0  0  0  0  0  0  0
   31.5515   34.0115    9.5318 C   0  0  0  0  0  0  0  0  0  0  0  0
   33.5069   32.7631   10.4054 C   0  0  0  0  0  0  0  0  0  0  0  0
   32.5285   40.2800    7.9946 C   0  0  0  0  0  0  0  0  0  0  0  0
   33.4659   39.2788    8.4939 N   0  0  0  0  0  0  0  0  0  0  0  0
   33.2372   39.0134    9.9278 C   0  0  0  0  0  0  0  0  0  0  0  0
   33.8758   37.6980   10.4057 C   0  0  0  0  0  0  0  0  0  0  0  0
   33.3828   36.5273    9.6672 N   0  0  0  0  0  0  0  0  0  0  0  0
   32.7858   36.8254    8.3595 C   0  0  0  0  0  0  0  0  0  0  0  0
   33.4477   38.0447    7.6842 C   0  0  0  0  0  0  0  0  0  0  0  0
   33.6148   35.2765   10.2247 C   0  0  0  0  0  0  0  0  0  0  0  0
   34.2372   35.1934   11.2931 O   0  0  0  0  0  0  0  0  0  0  0  0
   36.5502   31.2871    1.9244 H   0  0  0  0  0  0  0  0  0  0  0  0
   38.1341   30.5711   -0.2797 H   0  0  0  0  0  0  0  0  0  0  0  0
   41.9781   32.2838   -0.1286 H   0  0  0  0  0  0  0  0  0  0  0  0
   41.4818   33.3512    1.9226 H   0  0  0  0  0  0  0  0  0  0  0  0
   39.3774   28.7979   -1.1504 H   0  0  0  0  0  0  0  0  0  0  0  0
   39.8711   27.7412   -3.2485 H   0  0  0  0  0  0  0  0  0  0  0  0
   41.8702   31.0441   -4.5745 H   0  0  0  0  0  0  0  0  0  0  0  0
   41.4263   32.2165   -2.5280 H   0  0  0  0  0  0  0  0  0  0  0  0
   31.9736   33.1429    7.1532 H   0  0  0  0  0  0  0  0  0  0  0  0
   33.0274   32.7460    5.0108 H   0  0  0  0  0  0  0  0  0  0  0  0
   36.7544   33.8161    6.6350 H   0  0  0  0  0  0  0  0  0  0  0  0
   35.7072   34.1902    8.7847 H   0  0  0  0  0  0  0  0  0  0  0  0
   31.1990   34.1825   10.5275 H   0  0  0  0  0  0  0  0  0  0  0  0
   31.1742   33.0757    9.1757 H   0  0  0  0  0  0  0  0  0  0  0  0
   31.2115   34.7995    8.8928 H   0  0  0  0  0  0  0  0  0  0  0  0
   33.0879   32.8700   11.3841 H   0  0  0  0  0  0  0  0  0  0  0  0
   34.5736   32.7199   10.4769 H   0  0  0  0  0  0  0  0  0  0  0  0
   33.1426   31.8620    9.9580 H   0  0  0  0  0  0  0  0  0  0  0  0
   32.5773   41.1532    8.6111 H   0  0  0  0  0  0  0  0  0  0  0  0
   31.5356   39.8820    8.0180 H   0  0  0  0  0  0  0  0  0  0  0  0
   32.7854   40.5388    6.9887 H   0  0  0  0  0  0  0  0  0  0  0  0
   32.1825   38.9629   10.1011 H   0  0  0  0  0  0  0  0  0  0  0  0
   33.6950   39.8092   10.4773 H   0  0  0  0  0  0  0  0  0  0  0  0
   33.6528   37.5666   11.4439 H   0  0  0  0  0  0  0  0  0  0  0  0
   34.9294   37.7688   10.2332 H   0  0  0  0  0  0  0  0  0  0  0  0
   31.7440   37.0288    8.4940 H   0  0  0  0  0  0  0  0  0  0  0  0
   32.9367   35.9758    7.7268 H   0  0  0  0  0  0  0  0  0  0  0  0
   32.9160   38.2507    6.7788 H   0  0  0  0  0  0  0  0  0  0  0  0
   34.4718   37.7775    7.5273 H   0  0  0  0  0  0  0  0  0  0  0  0
  1  2  2  0
  1  3  1  0
  3  5  1  0
  3  4  1  0
  5  6  2  0
  6  7  1  0
  6 38  1  0
  7  8  1  0
  8  9  2  0
  8 39  1  0
  9 10  1  0
  9 14  1  0
 10 11  2  0
 10 40  1  0
 11 12  1  0
 11 41  1  0
 12 13  2  0
 12  7  1  0
 13  5  1  0
 14 15  2  0
 15 16  1  0
 15 42  1  0
 16 17  2  0
 16 43  1  0
 17 18  1  0
 18 19  2  0
 18 44  1  0
 19 14  1  0
 19 45  1  0
 20 21  2  0
 21 22  1  0
 21 46  1  0
 22 23  2  0
 22 47  1  0
 23 24  1  0
 23  1  1  0
 24 25  2  0
 24 48  1  0
 25 20  1  0
 25 49  1  0
 26 27  1  0
 26 28  1  0
 26 20  1  0
 27 50  1  0
 27 51  1  0
 27 52  1  0
 28 53  1  0
 28 54  1  0
 28 55  1  0
 29 30  1  0
 29 56  1  0
 29 57  1  0
 29 58  1  0
 30 31  1  0
 31 32  1  0
 31 59  1  0
 31 60  1  0
 32 33  1  0
 32 61  1  0
 32 62  1  0
 33 34  1  0
 33 36  1  0
 34 35  1  0
 34 63  1  0
 34 64  1  0
 35 30  1  0
 35 65  1  0
 35 66  1  0
 36 37  2  0
 36 26  1  0
M  END
>  <minimizedAffinity>  (9) 
-8.05932

>  <mol_id>  (9) 
135630

>  <source_index>  (9) 
8

>  <layer>  (9) 
L1

>  <uniprot>  (9) 
P49759

>  <paff>  (9) 
9.1738999999999997

>  <smiles>  (9) 
CN1CCN(CC1)C(=O)C(C)(C)c1ccc(cc1)C(=O)Nc1cn2cc(ccc2n1)-c1ccncc1

$$$$
L1:P49759:142923
     RDKit          3D

 62 67  0  0  0  0  0  0  0  0999 V2000
   39.3778   31.0117   -1.7539 C   0  0  0  0  0  0  0  0  0  0  0  0
   40.7545   31.2845   -1.8432 C   0  0  0  0  0  0  0  0  0  0  0  0
   41.4678   31.8884   -0.7984 C   0  0  0  0  0  0  0  0  0  0  0  0
   40.7492   32.2157    0.3528 C   0  0  0  0  0  0  0  0  0  0  0  0
   41.1332   32.7992    1.5309 N   0  0  0  0  0  0  0  0  0  0  0  0
   40.1370   32.9585    2.4219 N   0  0  0  0  0  0  0  0  0  0  0  0
   39.0715   32.4477    1.7867 C   0  0  0  0  0  0  0  0  0  0  0  0
   39.3893   31.9680    0.4916 C   0  0  0  0  0  0  0  0  0  0  0  0
   38.6941   31.3590   -0.5719 C   0  0  0  0  0  0  0  0  0  0  0  0
   42.0626   33.1124    1.7871 H   0  0  0  0  0  0  0  0  0  0  0  0
   37.6687   32.4191    2.4667 C   0  0  0  0  0  0  0  0  0  0  0  0
   37.3437   32.9835    3.6112 N   0  0  0  0  0  0  0  0  0  0  0  0
   36.0104   32.6892    3.7955 C   0  0  0  0  0  0  0  0  0  0  0  0
   35.1494   33.0235    4.8444 C   0  0  0  0  0  0  0  0  0  0  0  0
   33.8538   32.6148    4.8235 N   0  0  0  0  0  0  0  0  0  0  0  0
   33.4185   31.8862    3.7639 C   0  0  0  0  0  0  0  0  0  0  0  0
   34.1861   31.4995    2.6605 C   0  0  0  0  0  0  0  0  0  0  0  0
   35.5132   31.9374    2.7328 C   0  0  0  0  0  0  0  0  0  0  0  0
   36.5981   31.7731    1.9095 N   0  0  0  0  0  0  0  0  0  0  0  0
   36.6349   31.2657    1.0364 H   0  0  0  0  0  0  0  0  0  0  0  0
   33.6694   30.7110    1.5452 C   0  0  0  0  0  0  0  0  0  0  0  0
   32.9337   31.3198    0.5127 C   0  0  0  0  0  0  0  0  0  0  0  0
   32.4331   30.5703   -0.5573 C   0  0  0  0  0  0  0  0  0  0  0  0
   32.6636   29.1986   -0.6113 C   0  0  0  0  0  0  0  0  0  0  0  0
   33.3931   28.5906    0.4019 C   0  0  0  0  0  0  0  0  0  0  0  0
   33.6180   27.2711    0.3511 F   0  0  0  0  0  0  0  0  0  0  0  0
   33.8951   29.3281    1.4703 C   0  0  0  0  0  0  0  0  0  0  0  0
   36.7354   30.2037   -4.3539 C   0  0  0  0  0  0  0  0  0  0  0  0
   37.3815   29.1404   -4.9754 C   0  0  0  0  0  0  0  0  0  0  0  0
   38.6015   28.6749   -4.6069 N   0  0  0  0  0  0  0  0  0  0  0  0
   39.2059   29.2982   -3.5694 C   0  0  0  0  0  0  0  0  0  0  0  0
   38.6645   30.3752   -2.8700 C   0  0  0  0  0  0  0  0  0  0  0  0
   37.4007   30.8203   -3.2880 C   0  0  0  0  0  0  0  0  0  0  0  0
   34.2354   30.1534   -4.3799 C   0  0  0  0  0  0  0  0  0  0  0  0
   34.0592   29.1181   -3.7502 O   0  0  0  0  0  0  0  0  0  0  0  0
   35.4638   30.7041   -4.7077 N   0  0  0  0  0  0  0  0  0  0  0  0
   35.4531   31.5548   -5.2560 H   0  0  0  0  0  0  0  0  0  0  0  0
   33.0850   30.9850   -4.9349 C   0  0  0  0  0  0  0  0  0  0  0  0
   31.0347   30.2452   -6.1858 C   0  0  0  0  0  0  0  0  0  0  0  0
   31.7128   30.3037   -4.8154 C   0  0  0  0  0  0  0  0  0  0  0  0
   30.8085   31.0412   -3.8244 C   0  0  0  0  0  0  0  0  0  0  0  0
   41.2572   31.0312   -2.7082 H   0  0  0  0  0  0  0  0  0  0  0  0
   42.4784   32.0822   -0.8767 H   0  0  0  0  0  0  0  0  0  0  0  0
   37.6838   31.1673   -0.4851 H   0  0  0  0  0  0  0  0  0  0  0  0
   35.4991   33.5830    5.6379 H   0  0  0  0  0  0  0  0  0  0  0  0
   32.4299   31.5903    3.7735 H   0  0  0  0  0  0  0  0  0  0  0  0
   32.7602   32.3366    0.5449 H   0  0  0  0  0  0  0  0  0  0  0  0
   31.8938   31.0336   -1.3053 H   0  0  0  0  0  0  0  0  0  0  0  0
   32.2960   28.6390   -1.3966 H   0  0  0  0  0  0  0  0  0  0  0  0
   34.4361   28.8554    2.2112 H   0  0  0  0  0  0  0  0  0  0  0  0
   36.9041   28.6775   -5.7646 H   0  0  0  0  0  0  0  0  0  0  0  0
   40.1326   28.9520   -3.2753 H   0  0  0  0  0  0  0  0  0  0  0  0
   36.9552   31.6143   -2.8020 H   0  0  0  0  0  0  0  0  0  0  0  0
   33.0495   31.9111   -4.4001 H   0  0  0  0  0  0  0  0  0  0  0  0
   33.2750   31.1219   -5.9790 H   0  0  0  0  0  0  0  0  0  0  0  0
   30.0809   29.7695   -6.0918 H   0  0  0  0  0  0  0  0  0  0  0  0
   31.6466   29.6867   -6.8630 H   0  0  0  0  0  0  0  0  0  0  0  0
   30.9024   31.2385   -6.5610 H   0  0  0  0  0  0  0  0  0  0  0  0
   31.8706   29.3104   -4.4502 H   0  0  0  0  0  0  0  0  0  0  0  0
   30.6378   32.0388   -4.1716 H   0  0  0  0  0  0  0  0  0  0  0  0
   31.2819   31.0734   -2.8654 H   0  0  0  0  0  0  0  0  0  0  0  0
   29.8737   30.5268   -3.7436 H   0  0  0  0  0  0  0  0  0  0  0  0
  1  2  2  0
  2  3  1  0
  2 42  1  0
  3  4  2  0
  3 43  1  0
  4  5  1  0
  5  6  1  0
  5 10  1  0
  6  7  2  0
  7 11  1  0
  7  8  1  0
  8  9  2  0
  8  4  1  0
  9  1  1  0
  9 44  1  0
 11 12  2  0
 12 13  1  0
 13 14  2  0
 14 15  1  0
 14 45  1  0
 15 16  2  0
 16 17  1  0
 16 46  1  0
 17 21  1  0
 17 18  2  0
 18 19  1  0
 18 13  1  0
 19 11  1  0
 19 20  1  0
 21 22  2  0
 22 23  1  0
 22 47  1  0
 23 24  2  0
 23 48  1  0
 24 25  1  0
 24 49  1  0
 25 26  1  0
 25 27  2  0
 27 21  1  0
 27 50  1  0
 28 29  2  0
 29 30  1  0
 29 51  1  0
 30 31  2  0
 31 32  1  0
 31 52  1  0
 32  1  1  0
 32 33  2  0
 33 28  1  0
 33 53  1  0
 34 35  2  0
 34 36  1  0
 36 28  1  0
 36 37  1  0
 38 34  1  0
 38 54  1  0
 38 55  1  0
 39 40  1  0
 39 56  1  0
 39 57  1  0
 39 58  1  0
 40 41  1  0
 40 38  1  0
 40 59  1  0
 41 60  1  0
 41 61  1  0
 41 62  1  0
M  END
>  <minimizedAffinity>  (10) 
-9.50539

>  <mol_id>  (10) 
142923

>  <source_index>  (10) 
9

>  <layer>  (10) 
L1

>  <uniprot>  (10) 
P49759

>  <paff>  (10) 
6.6215999999999999

>  <smiles>  (10) 
CC(C)CC(=O)Nc1cncc(-c2ccc3[nH]nc(-c4nc5cncc(-c6cccc(F)c6)c5[nH]4)c3c2)c1

$$$$
