L1:P49759:474
     RDKit          3D

 39 42  0  0  0  0  0  0  0  0999 V2000
   36.1474   30.6441    1.3552 C   0  0  0  0  0  0  0  0  0  0  0  0
   37.4006   30.8718    0.5599 C   0  0  0  0  0  0  0  0  0  0  0  0
   38.5391   31.5549    1.0845 C   0  0  0  0  0  0  0  0  0  0  0  0
   38.4428   32.2004    2.8919 Br  0  0  0  0  0  0  0  0  0  0  0  0
   39.7130   31.7692    0.3109 C   0  0  0  0  0  0  0  0  0  0  0  0
   41.2110   32.7327    1.0096 Br  0  0  0  0  0  0  0  0  0  0  0  0
   39.8061   31.2886   -1.0062 C   0  0  0  0  0  0  0  0  0  0  0  0
   38.6644   30.6420   -1.4658 C   0  0  0  0  0  0  0  0  0  0  0  0
   37.5002   30.4238   -0.7702 C   0  0  0  0  0  0  0  0  0  0  0  0
   36.5924   29.7751   -1.5803 N   0  0  0  0  0  0  0  0  0  0  0  0
   37.1930   29.5785   -2.7386 C   0  0  0  0  0  0  0  0  0  0  0  0
   38.4495   30.1145   -2.7124 N   0  0  0  0  0  0  0  0  0  0  0  0
   39.4440   30.3066   -3.7480 C   0  0  0  0  0  0  0  0  0  0  0  0
   40.8545   30.4359   -3.1359 C   0  0  0  0  0  0  0  0  0  0  0  0
   40.9397   31.4642   -1.9790 C   0  0  0  0  0  0  0  0  0  0  0  0
   36.6762   28.9837   -3.8422 N   0  0  0  0  0  0  0  0  0  0  0  0
   36.0854   27.6406   -3.6723 C   0  0  0  0  0  0  0  0  0  0  0  0
   35.3412   27.1937   -4.9497 C   0  0  0  0  0  0  0  0  0  0  0  0
   34.2390   28.0835   -5.3639 N   0  0  0  0  0  0  0  0  0  0  0  0
   34.4799   29.4730   -4.9218 C   0  0  0  0  0  0  0  0  0  0  0  0
   35.9688   29.8592   -4.7980 C   0  0  0  0  0  0  0  0  0  0  0  0
   34.1670   28.0580   -6.3802 H   0  0  0  0  0  0  0  0  0  0  0  0
   36.2677   31.0549    2.3359 H   0  0  0  0  0  0  0  0  0  0  0  0
   35.9579   29.5936    1.4293 H   0  0  0  0  0  0  0  0  0  0  0  0
   35.3236   31.1216    0.8671 H   0  0  0  0  0  0  0  0  0  0  0  0
   39.2151   31.1984   -4.2931 H   0  0  0  0  0  0  0  0  0  0  0  0
   39.4293   29.4578   -4.3993 H   0  0  0  0  0  0  0  0  0  0  0  0
   41.5312   30.7386   -3.9075 H   0  0  0  0  0  0  0  0  0  0  0  0
   41.1057   29.4806   -2.7244 H   0  0  0  0  0  0  0  0  0  0  0  0
   40.8984   32.4523   -2.3874 H   0  0  0  0  0  0  0  0  0  0  0  0
   41.8602   31.3084   -1.4562 H   0  0  0  0  0  0  0  0  0  0  0  0
   35.3945   27.6637   -2.8556 H   0  0  0  0  0  0  0  0  0  0  0  0
   36.8747   26.9447   -3.4783 H   0  0  0  0  0  0  0  0  0  0  0  0
   34.9353   26.2191   -4.7754 H   0  0  0  0  0  0  0  0  0  0  0  0
   36.0605   27.2144   -5.7416 H   0  0  0  0  0  0  0  0  0  0  0  0
   34.0208   29.6028   -3.9641 H   0  0  0  0  0  0  0  0  0  0  0  0
   34.0639   30.1075   -5.6763 H   0  0  0  0  0  0  0  0  0  0  0  0
   36.0385   30.8718   -4.4595 H   0  0  0  0  0  0  0  0  0  0  0  0
   36.4262   29.7469   -5.7588 H   0  0  0  0  0  0  0  0  0  0  0  0
  1  2  1  0
  1 23  1  0
  1 24  1  0
  1 25  1  0
  2  3  2  0
  3  4  1  0
  3  5  1  0
  5  6  1  0
  5  7  2  0
  7  8  1  0
  8  9  2  0
  9 10  1  0
  9  2  1  0
 10 11  2  0
 11 16  1  0
 11 12  1  0
 12 13  1  0
 12  8  1  0
 13 14  1  0
 13 26  1  0
 13 27  1  0
 14 15  1  0
 14 28  1  0
 14 29  1  0
 15  7  1  0
 15 30  1  0
 15 31  1  0
 16 17  1  0
 17 18  1  0
 17 32  1  0
 17 33  1  0
 18 19  1  0
 18 34  1  0
 18 35  1  0
 19 20  1  0
 19 22  1  0
 20 21  1  0
 20 36  1  0
 20 37  1  0
 21 16  1  0
 21 38  1  0
 21 39  1  0
M  END
>  <minimizedAffinity>  (1) 
-8.35501

>  <mol_id>  (1) 
474

>  <source_index>  (1) 
0

>  <layer>  (1) 
L1

>  <uniprot>  (1) 
P49759

>  <paff>  (1) 
8.2757000000000005

>  <smiles>  (1) 
Cc1c(Br)c(Br)c2CCCn3c(nc1c23)N1CCNCC1

$$$$
L1:P49759:1812
     RDKit          3D

 61 68  0  0  0  0  0  0  0  0999 V2000
   34.1308   30.8314   -2.6481 C   0  0  2  0  0  0  0  0  0  0  0  0
   33.4311   30.3840   -1.3628 C   0  0  0  0  0  0  0  0  0  0  0  0
   34.3079   29.5847   -0.4089 C   0  0  1  0  0  0  0  0  0  0  0  0
   35.0817   28.5564   -1.0205 O   0  0  0  0  0  0  0  0  0  0  0  0
   35.7654   28.8398   -2.2691 C   0  0  1  0  0  0  0  0  0  0  0  0
   36.0087   27.3976   -2.7820 C   0  0  0  0  0  0  0  0  0  0  0  0
   34.8231   29.5850   -3.2732 C   0  0  2  0  0  0  0  0  0  0  0  0
   37.0601   29.5107   -2.0011 N   0  0  0  0  0  0  0  0  0  0  0  0
   38.2006   29.5155   -2.8158 C   0  0  0  0  0  0  0  0  0  0  0  0
   38.4377   29.0471   -4.1236 C   0  0  0  0  0  0  0  0  0  0  0  0
   39.7197   29.1534   -4.6729 C   0  0  0  0  0  0  0  0  0  0  0  0
   40.7578   29.7221   -3.9524 C   0  0  0  0  0  0  0  0  0  0  0  0
   40.5274   30.2184   -2.6692 C   0  0  0  0  0  0  0  0  0  0  0  0
   39.2401   30.1281   -2.0927 C   0  0  0  0  0  0  0  0  0  0  0  0
   38.6959   30.5893   -0.8669 C   0  0  0  0  0  0  0  0  0  0  0  0
   39.1579   31.3142    0.2451 C   0  0  0  0  0  0  0  0  0  0  0  0
   38.2936   31.6859    1.3186 C   0  0  0  0  0  0  0  0  0  0  0  0
   36.9284   31.3767    1.3857 C   0  0  0  0  0  0  0  0  0  0  0  0
   35.8090   31.6024    2.2441 C   0  0  0  0  0  0  0  0  0  0  0  0
   35.6232   32.2825    3.4671 C   0  0  0  0  0  0  0  0  0  0  0  0
   34.3591   32.3254    4.0641 C   0  0  0  0  0  0  0  0  0  0  0  0
   33.2737   31.7013    3.4633 C   0  0  0  0  0  0  0  0  0  0  0  0
   33.4205   31.0187    2.2538 C   0  0  0  0  0  0  0  0  0  0  0  0
   34.6942   30.9795    1.6578 C   0  0  0  0  0  0  0  0  0  0  0  0
   35.1290   30.3855    0.4844 N   0  0  0  0  0  0  0  0  0  0  0  0
   36.4504   30.6358    0.3187 C   0  0  0  0  0  0  0  0  0  0  0  0
   37.3669   30.2165   -0.8630 C   0  0  0  0  0  0  0  0  0  0  0  0
   39.1014   32.4478    2.2816 C   0  0  0  0  0  0  0  0  0  0  0  0
   38.7427   32.9440    3.3300 O   0  0  0  0  0  0  0  0  0  0  0  0
   40.3824   32.5117    1.7797 N   0  0  0  0  0  0  0  0  0  0  0  0
   40.5352   31.8450    0.5170 C   0  0  0  0  0  0  0  0  0  0  0  0
   41.1135   32.9938    2.2843 H   0  0  0  0  0  0  0  0  0  0  0  0
   34.5486   33.0356   -1.6285 C   0  0  0  0  0  0  0  0  0  0  0  0
   35.0019   32.0070   -2.5495 N   0  0  0  0  0  0  0  0  0  0  0  0
   35.9744   31.7750   -2.3541 H   0  0  0  0  0  0  0  0  0  0  0  0
   35.4792   29.8322   -4.5245 O   0  0  0  0  0  0  0  0  0  0  0  0
   34.7997   29.3352   -5.6671 C   0  0  0  0  0  0  0  0  0  0  0  0
   33.3755   31.2098   -3.3048 H   0  0  0  0  0  0  0  0  0  0  0  0
   32.5926   29.7769   -1.6333 H   0  0  0  0  0  0  0  0  0  0  0  0
   33.1527   31.2767   -0.8427 H   0  0  0  0  0  0  0  0  0  0  0  0
   33.5751   29.0967    0.1992 H   0  0  0  0  0  0  0  0  0  0  0  0
   35.0686   26.9233   -2.9720 H   0  0  0  0  0  0  0  0  0  0  0  0
   36.5456   26.8417   -2.0420 H   0  0  0  0  0  0  0  0  0  0  0  0
   36.5799   27.4322   -3.6861 H   0  0  0  0  0  0  0  0  0  0  0  0
   34.0098   28.9273   -3.4988 H   0  0  0  0  0  0  0  0  0  0  0  0
   37.6705   28.6284   -4.6724 H   0  0  0  0  0  0  0  0  0  0  0  0
   39.8948   28.8035   -5.6278 H   0  0  0  0  0  0  0  0  0  0  0  0
   41.7019   29.7785   -4.3653 H   0  0  0  0  0  0  0  0  0  0  0  0
   41.2991   30.6528   -2.1393 H   0  0  0  0  0  0  0  0  0  0  0  0
   36.4229   32.7497    3.9223 H   0  0  0  0  0  0  0  0  0  0  0  0
   34.2319   32.8248    4.9582 H   0  0  0  0  0  0  0  0  0  0  0  0
   32.3473   31.7424    3.9161 H   0  0  0  0  0  0  0  0  0  0  0  0
   32.6140   30.5542    1.8080 H   0  0  0  0  0  0  0  0  0  0  0  0
   41.2471   31.0492    0.5862 H   0  0  0  0  0  0  0  0  0  0  0  0
   40.8993   32.4876   -0.2572 H   0  0  0  0  0  0  0  0  0  0  0  0
   33.5271   33.2762   -1.8372 H   0  0  0  0  0  0  0  0  0  0  0  0
   35.1524   33.9111   -1.7463 H   0  0  0  0  0  0  0  0  0  0  0  0
   34.6325   32.6770   -0.6239 H   0  0  0  0  0  0  0  0  0  0  0  0
   35.3636   29.5671   -6.5464 H   0  0  0  0  0  0  0  0  0  0  0  0
   33.8333   29.7897   -5.7331 H   0  0  0  0  0  0  0  0  0  0  0  0
   34.6899   28.2742   -5.5833 H   0  0  0  0  0  0  0  0  0  0  0  0
  1  2  1  0
  1 38  1  6
  2  3  1  0
  2 39  1  0
  2 40  1  0
  3  4  1  0
  3 41  1  1
  4  5  1  0
  5  6  1  6
  5  7  1  0
  5  8  1  0
  6 42  1  0
  6 43  1  0
  6 44  1  0
  7 36  1  0
  7  1  1  0
  7 45  1  6
  8  9  1  0
  9 10  2  0
 10 11  1  0
 10 46  1  0
 11 12  2  0
 11 47  1  0
 12 13  1  0
 12 48  1  0
 13 14  2  0
 13 49  1  0
 14 15  1  0
 14  9  1  0
 15 16  2  0
 16 17  1  0
 17 18  2  0
 17 28  1  0
 18 19  1  0
 19 20  2  0
 20 21  1  0
 20 50  1  0
 21 22  2  0
 21 51  1  0
 22 23  1  0
 22 52  1  0
 23 24  2  0
 23 53  1  0
 24 25  1  0
 24 19  1  0
 25 26  1  0
 25  3  1  0
 26 27  2  0
 26 18  1  0
 27  8  1  0
 27 15  1  0
 28 29  2  0
 28 30  1  0
 30 31  1  0
 30 32  1  0
 31 16  1  0
 31 54  1  0
 31 55  1  0
 33 34  1  0
 33 56  1  0
 33 57  1  0
 33 58  1  0
 34  1  1  0
 34 35  1  0
 36 37  1  0
 37 59  1  0
 37 60  1  0
 37 61  1  0
M  END
>  <minimizedAffinity>  (2) 
-11.34079

>  <mol_id>  (2) 
1812

>  <source_index>  (2) 
1

>  <layer>  (2) 
L1

>  <uniprot>  (2) 
P49759

>  <paff>  (2) 
9

>  <smiles>  (2) 
C[C@@]12[C@@H]([C@@H](C[C@@H](O1)n3c4ccccc4c5c3c6n2c7ccccc7c6c8c5C(=O)NC8)NC)OC

$$$$
L1:P49759:1813
     RDKit          3D

 69 73  0  0  0  0  0  0  0  0999 V2000
   34.3575   33.1793    2.6796 N   0  0  0  0  0  0  0  0  0  0  0  0
   33.4343   32.8445    3.6566 C   0  0  0  0  0  0  0  0  0  0  0  0
   33.4965   31.8458    4.3623 O   0  0  0  0  0  0  0  0  0  0  0  0
   32.4232   33.7955    3.7154 N   0  0  0  0  0  0  0  0  0  0  0  0
   34.2408   34.0648    2.2061 H   0  0  0  0  0  0  0  0  0  0  0  0
   32.4625   34.5719    3.0734 H   0  0  0  0  0  0  0  0  0  0  0  0
   37.8543   31.0571    1.6592 C   0  0  0  0  0  0  0  0  0  0  0  0
   36.7483   30.9775    0.8117 C   0  0  0  0  0  0  0  0  0  0  0  0
   35.5677   31.6639    1.1226 C   0  0  0  0  0  0  0  0  0  0  0  0
   35.4954   32.4464    2.2753 C   0  0  0  0  0  0  0  0  0  0  0  0
   36.6290   32.5326    3.0966 C   0  0  0  0  0  0  0  0  0  0  0  0
   36.5809   33.2942    4.2024 F   0  0  0  0  0  0  0  0  0  0  0  0
   37.8064   31.8541    2.8004 C   0  0  0  0  0  0  0  0  0  0  0  0
   38.9903   30.3824    1.2764 O   0  0  0  0  0  0  0  0  0  0  0  0
   40.7652   31.1232   -1.7850 C   0  0  0  0  0  0  0  0  0  0  0  0
   39.8997   30.5056   -0.8970 C   0  0  0  0  0  0  0  0  0  0  0  0
   39.8274   31.0211    0.3901 C   0  0  0  0  0  0  0  0  0  0  0  0
   40.6350   32.0939    0.7628 C   0  0  0  0  0  0  0  0  0  0  0  0
   41.4703   32.6419   -0.1953 C   0  0  0  0  0  0  0  0  0  0  0  0
   41.5542   32.1905   -1.4648 N   0  0  0  0  0  0  0  0  0  0  0  0
   40.0270   28.9126   -4.7623 C   0  0  0  0  0  0  0  0  0  0  0  0
   40.0760   29.5267   -3.4647 N   0  0  0  0  0  0  0  0  0  0  0  0
   40.8714   30.6188   -3.1926 C   0  0  0  0  0  0  0  0  0  0  0  0
   41.6099   31.1526   -4.0118 O   0  0  0  0  0  0  0  0  0  0  0  0
   39.4921   29.1894   -2.7034 H   0  0  0  0  0  0  0  0  0  0  0  0
   31.3947   33.7703    4.6527 C   0  0  0  0  0  0  0  0  0  0  0  0
   30.0735   33.3975    4.5201 C   0  0  0  0  0  0  0  0  0  0  0  0
   29.5492   33.3344    5.8307 C   0  0  0  0  0  0  0  0  0  0  0  0
   30.4813   33.6666    6.7317 N   0  0  0  0  0  0  0  0  0  0  0  0
   31.5504   34.0819    6.0049 N   0  0  0  0  0  0  0  0  0  0  0  0
   32.6220   34.7508    6.6670 C   0  0  0  0  0  0  0  0  0  0  0  0
   32.5496   36.1043    7.0041 C   0  0  0  0  0  0  0  0  0  0  0  0
   33.6261   36.7204    7.6564 C   0  0  0  0  0  0  0  0  0  0  0  0
   34.7750   36.0223    8.0008 C   0  0  0  0  0  0  0  0  0  0  0  0
   35.7785   36.6675    8.6193 N   0  0  0  0  0  0  0  0  0  0  0  0
   36.8770   35.9552    8.9547 C   0  0  0  0  0  0  0  0  0  0  0  0
   37.0291   34.6057    8.6988 C   0  0  0  0  0  0  0  0  0  0  0  0
   35.9898   33.9434    8.0574 C   0  0  0  0  0  0  0  0  0  0  0  0
   34.8347   34.6476    7.6929 C   0  0  0  0  0  0  0  0  0  0  0  0
   33.7586   34.0185    7.0400 C   0  0  0  0  0  0  0  0  0  0  0  0
   28.1637   32.9079    6.2902 C   0  0  0  0  0  0  0  0  0  0  0  0
   28.1656   31.4061    6.6405 C   0  0  0  0  0  0  0  0  0  0  0  0
   27.0983   33.1433    5.1992 C   0  0  0  0  0  0  0  0  0  0  0  0
   27.7431   33.7127    7.5381 C   0  0  0  0  0  0  0  0  0  0  0  0
   36.8007   30.4099   -0.0486 H   0  0  0  0  0  0  0  0  0  0  0  0
   34.7496   31.5907    0.4977 H   0  0  0  0  0  0  0  0  0  0  0  0
   38.6305   31.9397    3.4157 H   0  0  0  0  0  0  0  0  0  0  0  0
   39.3303   29.6932   -1.1814 H   0  0  0  0  0  0  0  0  0  0  0  0
   40.6110   32.4685    1.7241 H   0  0  0  0  0  0  0  0  0  0  0  0
   42.0631   33.4417    0.0765 H   0  0  0  0  0  0  0  0  0  0  0  0
   40.7111   29.4094   -5.4181 H   0  0  0  0  0  0  0  0  0  0  0  0
   39.0352   28.9901   -5.1563 H   0  0  0  0  0  0  0  0  0  0  0  0
   40.2982   27.8809   -4.6791 H   0  0  0  0  0  0  0  0  0  0  0  0
   29.5693   33.2037    3.6407 H   0  0  0  0  0  0  0  0  0  0  0  0
   31.7046   36.6499    6.7732 H   0  0  0  0  0  0  0  0  0  0  0  0
   33.5625   37.7241    7.8878 H   0  0  0  0  0  0  0  0  0  0  0  0
   37.6485   36.4487    9.4304 H   0  0  0  0  0  0  0  0  0  0  0  0
   37.8882   34.1053    8.9756 H   0  0  0  0  0  0  0  0  0  0  0  0
   36.0684   32.9355    7.8500 H   0  0  0  0  0  0  0  0  0  0  0  0
   33.8061   33.0085    6.8336 H   0  0  0  0  0  0  0  0  0  0  0  0
   28.4563   30.8396    5.7805 H   0  0  0  0  0  0  0  0  0  0  0  0
   27.1842   31.1102    6.9475 H   0  0  0  0  0  0  0  0  0  0  0  0
   28.8576   31.2264    7.4366 H   0  0  0  0  0  0  0  0  0  0  0  0
   27.3629   32.5964    4.3184 H   0  0  0  0  0  0  0  0  0  0  0  0
   27.0479   34.1871    4.9692 H   0  0  0  0  0  0  0  0  0  0  0  0
   26.1453   32.8097    5.5534 H   0  0  0  0  0  0  0  0  0  0  0  0
   28.4648   33.5693    8.3149 H   0  0  0  0  0  0  0  0  0  0  0  0
   26.7852   33.3747    7.8743 H   0  0  0  0  0  0  0  0  0  0  0  0
   27.6877   34.7521    7.2902 H   0  0  0  0  0  0  0  0  0  0  0  0
  1  2  1  0
  1  5  1  0
  2  3  2  0
  2  4  1  0
  4 26  1  0
  4  6  1  0
  7  8  2  0
  8  9  1  0
  8 45  1  0
  9 10  2  0
  9 46  1  0
 10  1  1  0
 10 11  1  0
 11 12  1  0
 11 13  2  0
 13  7  1  0
 13 47  1  0
 14  7  1  0
 15 16  2  0
 16 17  1  0
 16 48  1  0
 17 14  1  0
 17 18  2  0
 18 19  1  0
 18 49  1  0
 19 20  2  0
 19 50  1  0
 20 15  1  0
 21 22  1  0
 21 51  1  0
 21 52  1  0
 21 53  1  0
 22 23  1  0
 22 25  1  0
 23 24  2  0
 23 15  1  0
 26 27  2  0
 27 28  1  0
 27 54  1  0
 28 41  1  0
 28 29  2  0
 29 30  1  0
 30 31  1  0
 30 26  1  0
 31 32  2  0
 32 33  1  0
 32 55  1  0
 33 34  2  0
 33 56  1  0
 34 35  1  0
 35 36  2  0
 36 37  1  0
 36 57  1  0
 37 38  2  0
 37 58  1  0
 38 39  1  0
 38 59  1  0
 39 40  2  0
 39 34  1  0
 40 31  1  0
 40 60  1  0
 41 42  1  0
 41 43  1  0
 41 44  1  0
 42 61  1  0
 42 62  1  0
 42 63  1  0
 43 64  1  0
 43 65  1  0
 43 66  1  0
 44 67  1  0
 44 68  1  0
 44 69  1  0
M  END
>  <minimizedAffinity>  (3) 
-9.34981

>  <mol_id>  (3) 
1813

>  <source_index>  (3) 
2

>  <layer>  (3) 
L1

>  <uniprot>  (3) 
P49759

>  <paff>  (3) 
6

>  <smiles>  (3) 
CNC(=O)c1cc(Oc2ccc(NC(=O)Nc3cc(nn3-c3ccc4ncccc4c3)C(C)(C)C)c(F)c2)ccn1

$$$$
L1:P49759:1814
     RDKit          3D

 53 56  0  0  0  0  0  0  0  0999 V2000
   39.3747   30.7670   -2.4198 C   0  0  0  0  0  0  0  0  0  0  0  0
   40.5945   31.2452   -2.8507 C   0  0  0  0  0  0  0  0  0  0  0  0
   41.4521   31.6748   -1.8704 C   0  0  0  0  0  0  0  0  0  0  0  0
   41.1551   31.6480   -0.5616 N   0  0  0  0  0  0  0  0  0  0  0  0
   39.9552   31.1673   -0.2124 C   0  0  0  0  0  0  0  0  0  0  0  0
   39.0570   30.7207   -1.1058 N   0  0  0  0  0  0  0  0  0  0  0  0
   36.3174   29.3213   -5.1051 C   0  0  0  0  0  0  0  0  0  0  0  0
   36.0930   30.4473   -4.3092 C   0  0  0  0  0  0  0  0  0  0  0  0
   37.0895   30.9076   -3.4409 C   0  0  0  0  0  0  0  0  0  0  0  0
   38.3369   30.2636   -3.3443 C   0  0  0  0  0  0  0  0  0  0  0  0
   38.5510   29.1454   -4.1722 C   0  0  0  0  0  0  0  0  0  0  0  0
   37.5574   28.6782   -5.0446 C   0  0  0  0  0  0  0  0  0  0  0  0
   34.8662   29.7314   -7.0261 N   0  0  0  0  0  0  0  0  0  0  0  0
   35.2281   28.8712   -6.0150 C   0  0  0  0  0  0  0  0  0  0  0  0
   34.7104   27.7695   -5.8730 O   0  0  0  0  0  0  0  0  0  0  0  0
   35.3846   30.5835   -7.1939 H   0  0  0  0  0  0  0  0  0  0  0  0
   33.8132   29.3574   -7.9536 C   0  0  0  0  0  0  0  0  0  0  0  0
   33.0371   31.4001   -9.4185 N   0  0  0  0  0  0  0  0  0  0  0  0
   33.3923   30.4915   -8.7887 C   0  0  0  0  0  0  0  0  0  0  0  0
   39.5422   31.0947    1.1141 N   0  0  0  0  0  0  0  0  0  0  0  0
   40.2226   30.5650    1.6380 H   0  0  0  0  0  0  0  0  0  0  0  0
   38.4364   31.5769    1.8179 C   0  0  0  0  0  0  0  0  0  0  0  0
   38.5074   32.5185    2.8409 C   0  0  0  0  0  0  0  0  0  0  0  0
   37.3521   32.9624    3.5077 C   0  0  0  0  0  0  0  0  0  0  0  0
   36.0738   32.4875    3.1874 C   0  0  0  0  0  0  0  0  0  0  0  0
   36.0139   31.5402    2.1584 C   0  0  0  0  0  0  0  0  0  0  0  0
   37.1650   31.0954    1.4883 C   0  0  0  0  0  0  0  0  0  0  0  0
   34.9417   32.9271    3.8461 N   0  0  0  0  0  0  0  0  0  0  0  0
   33.6818   33.2026    3.1388 C   0  0  0  0  0  0  0  0  0  0  0  0
   32.4897   33.0176    4.0935 C   0  0  0  0  0  0  0  0  0  0  0  0
   32.5290   33.8620    5.2522 O   0  0  0  0  0  0  0  0  0  0  0  0
   33.8616   34.2030    5.6592 C   0  0  0  0  0  0  0  0  0  0  0  0
   34.9203   33.1460    5.3007 C   0  0  0  0  0  0  0  0  0  0  0  0
   40.8468   31.2778   -3.8509 H   0  0  0  0  0  0  0  0  0  0  0  0
   42.3754   32.0382   -2.1542 H   0  0  0  0  0  0  0  0  0  0  0  0
   35.1887   30.9417   -4.3617 H   0  0  0  0  0  0  0  0  0  0  0  0
   36.9051   31.7389   -2.8578 H   0  0  0  0  0  0  0  0  0  0  0  0
   39.4601   28.6582   -4.1363 H   0  0  0  0  0  0  0  0  0  0  0  0
   37.7418   27.8580   -5.6432 H   0  0  0  0  0  0  0  0  0  0  0  0
   34.1728   28.5747   -8.5884 H   0  0  0  0  0  0  0  0  0  0  0  0
   32.9680   29.0328   -7.3834 H   0  0  0  0  0  0  0  0  0  0  0  0
   39.4269   32.8984    3.1153 H   0  0  0  0  0  0  0  0  0  0  0  0
   37.4492   33.6627    4.2595 H   0  0  0  0  0  0  0  0  0  0  0  0
   35.0958   31.1571    1.8839 H   0  0  0  0  0  0  0  0  0  0  0  0
   37.0708   30.3966    0.7347 H   0  0  0  0  0  0  0  0  0  0  0  0
   33.5835   32.5275    2.3145 H   0  0  0  0  0  0  0  0  0  0  0  0
   33.6928   34.2116    2.7828 H   0  0  0  0  0  0  0  0  0  0  0  0
   32.4766   31.9989    4.4207 H   0  0  0  0  0  0  0  0  0  0  0  0
   31.6114   33.2878    3.5453 H   0  0  0  0  0  0  0  0  0  0  0  0
   33.8649   34.3345    6.7211 H   0  0  0  0  0  0  0  0  0  0  0  0
   34.1260   35.0948    5.1303 H   0  0  0  0  0  0  0  0  0  0  0  0
   34.6837   32.2263    5.7938 H   0  0  0  0  0  0  0  0  0  0  0  0
   35.8822   33.4913    5.6177 H   0  0  0  0  0  0  0  0  0  0  0  0
  1  2  2  0
  2  3  1  0
  2 34  1  0
  3  4  2  0
  3 35  1  0
  4  5  1  0
  5 20  1  0
  5  6  2  0
  6  1  1  0
  7  8  2  0
  8  9  1  0
  8 36  1  0
  9 10  2  0
  9 37  1  0
 10  1  1  0
 10 11  1  0
 11 12  2  0
 11 38  1  0
 12  7  1  0
 12 39  1  0
 13 14  1  0
 13 16  1  0
 14 15  2  0
 14  7  1  0
 17 13  1  0
 17 40  1  0
 17 41  1  0
 18 19  3  0
 19 17  1  0
 20 22  1  0
 20 21  1  0
 22 23  2  0
 23 24  1  0
 23 42  1  0
 24 25  2  0
 24 43  1  0
 25 28  1  0
 25 26  1  0
 26 27  2  0
 26 44  1  0
 27 22  1  0
 27 45  1  0
 28 29  1  0
 29 30  1  0
 29 46  1  0
 29 47  1  0
 30 31  1  0
 30 48  1  0
 30 49  1  0
 31 32  1  0
 32 33  1  0
 32 50  1  0
 32 51  1  0
 33 28  1  0
 33 52  1  0
 33 53  1  0
M  END
>  <minimizedAffinity>  (4) 
-8.61555

>  <mol_id>  (4) 
1814

>  <source_index>  (4) 
3

>  <layer>  (4) 
L1

>  <uniprot>  (4) 
P49759

>  <paff>  (4) 
6

>  <smiles>  (4) 
O=C(NCC#N)c1ccc(cc1)-c1ccnc(Nc2ccc(cc2)N2CCOCC2)n1

$$$$
L1:P49759:4296
     RDKit          3D

 28 30  0  0  0  0  0  0  0  0999 V2000
   37.8755   29.2280   -2.8991 C   0  0  0  0  0  0  0  0  0  0  0  0
   38.4505   28.9898   -4.1665 C   0  0  0  0  0  0  0  0  0  0  0  0
   37.7931   28.2196   -5.0982 O   0  0  0  0  0  0  0  0  0  0  0  0
   39.6929   29.5184   -4.5218 C   0  0  0  0  0  0  0  0  0  0  0  0
   40.4084   30.3074   -3.6200 C   0  0  0  0  0  0  0  0  0  0  0  0
   41.6222   30.7814   -4.0640 O   0  0  0  0  0  0  0  0  0  0  0  0
   39.8853   30.5795   -2.3406 C   0  0  0  0  0  0  0  0  0  0  0  0
   38.6377   30.0291   -2.0281 C   0  0  0  0  0  0  0  0  0  0  0  0
   38.2873   30.3914   -0.7601 O   0  0  0  0  0  0  0  0  0  0  0  0
   39.2796   31.1603   -0.2521 C   0  0  0  0  0  0  0  0  0  0  0  0
   39.2724   31.7162    1.0265 C   0  0  0  0  0  0  0  0  0  0  0  0
   40.3881   32.4781    1.3632 C   0  0  0  0  0  0  0  0  0  0  0  0
   40.4876   33.0700    2.5899 O   0  0  0  0  0  0  0  0  0  0  0  0
   41.4419   32.6695    0.4748 C   0  0  0  0  0  0  0  0  0  0  0  0
   41.4156   32.0946   -0.8052 C   0  0  0  0  0  0  0  0  0  0  0  0
   40.3010   31.3158   -1.1816 C   0  0  0  0  0  0  0  0  0  0  0  0
   38.3355   28.1648   -5.9055 H   0  0  0  0  0  0  0  0  0  0  0  0
   42.0184   31.3105   -3.3542 H   0  0  0  0  0  0  0  0  0  0  0  0
   39.6904   32.8558    3.1035 H   0  0  0  0  0  0  0  0  0  0  0  0
   35.7802   29.5098   -1.6743 N   0  0  0  0  0  0  0  0  0  0  0  0
   36.5559   28.6974   -2.4509 C   0  0  0  0  0  0  0  0  0  0  0  0
   36.1457   27.5819   -2.7454 O   0  0  0  0  0  0  0  0  0  0  0  0
   36.0905   30.4392   -1.4125 H   0  0  0  0  0  0  0  0  0  0  0  0
   34.8834   29.1680   -1.3612 H   0  0  0  0  0  0  0  0  0  0  0  0
   40.0845   29.3246   -5.4567 H   0  0  0  0  0  0  0  0  0  0  0  0
   38.4889   31.5719    1.6825 H   0  0  0  0  0  0  0  0  0  0  0  0
   42.2523   33.2409    0.7606 H   0  0  0  0  0  0  0  0  0  0  0  0
   42.1993   32.2393   -1.4609 H   0  0  0  0  0  0  0  0  0  0  0  0
  1  2  2  0
  2  3  1  0
  2  4  1  0
  3 17  1  0
  4  5  2  0
  4 25  1  0
  5  6  1  0
  5  7  1  0
  6 18  1  0
  7  8  2  0
  8  9  1  0
  8  1  1  0
  9 10  1  0
 10 11  2  0
 11 12  1  0
 11 26  1  0
 12 13  1  0
 12 14  2  0
 13 19  1  0
 14 15  1  0
 14 27  1  0
 15 16  2  0
 15 28  1  0
 16 10  1  0
 16  7  1  0
 20 21  1  0
 20 23  1  0
 20 24  1  0
 21 22  2  0
 21  1  1  0
M  END
>  <minimizedAffinity>  (5) 
-9.20353

>  <mol_id>  (5) 
4296

>  <source_index>  (5) 
4

>  <layer>  (5) 
L1

>  <uniprot>  (5) 
P49759

>  <paff>  (5) 
7.585

>  <smiles>  (5) 
NC(=O)c1c(O)cc(O)c2c1oc1cc(O)ccc12

$$$$
L1:P49759:60031
     RDKit          3D

 36 39  0  0  0  0  0  0  0  0999 V2000
   36.7613   30.7966    0.4627 O   0  0  0  0  0  0  0  0  0  0  0  0
   37.1198   31.5038    1.3807 C   0  0  0  0  0  0  0  0  0  0  0  0
   36.3332   32.0985    2.3145 N   0  0  0  0  0  0  0  0  0  0  0  0
   37.1045   32.8020    3.1843 C   0  0  0  0  0  0  0  0  0  0  0  0
   38.3729   32.7376    2.9156 N   0  0  0  0  0  0  0  0  0  0  0  0
   38.4807   31.9432    1.7918 C   0  0  0  0  0  0  0  0  0  0  0  0
   39.6502   31.6376    1.2167 C   0  0  0  0  0  0  0  0  0  0  0  0
   35.3353   31.9945    2.3155 H   0  0  0  0  0  0  0  0  0  0  0  0
   39.8431   30.8046    0.0289 C   0  0  0  0  0  0  0  0  0  0  0  0
   39.8523   29.4001    0.1704 C   0  0  0  0  0  0  0  0  0  0  0  0
   40.0575   28.5692   -0.9361 C   0  0  0  0  0  0  0  0  0  0  0  0
   40.2555   29.1707   -2.1596 C   0  0  0  0  0  0  0  0  0  0  0  0
   40.2566   30.5384   -2.3023 C   0  0  0  0  0  0  0  0  0  0  0  0
   40.0570   31.3828   -1.2301 C   0  0  0  0  0  0  0  0  0  0  0  0
   40.4776   30.9252   -3.5877 O   0  0  0  0  0  0  0  0  0  0  0  0
   40.5890   29.6439   -4.2402 C   0  0  0  0  0  0  0  0  0  0  0  0
   40.4716   28.5253   -3.3367 O   0  0  0  0  0  0  0  0  0  0  0  0
   36.4626   33.4601    4.1922 N   0  0  0  0  0  0  0  0  0  0  0  0
   36.9018   34.2989    4.5402 H   0  0  0  0  0  0  0  0  0  0  0  0
   35.2534   33.1445    4.8401 C   0  0  0  0  0  0  0  0  0  0  0  0
   34.2108   32.4234    4.2491 C   0  0  0  0  0  0  0  0  0  0  0  0
   33.0323   32.1442    4.9512 C   0  0  0  0  0  0  0  0  0  0  0  0
   32.8754   32.5834    6.2618 C   0  0  0  0  0  0  0  0  0  0  0  0
   33.8975   33.3023    6.8712 C   0  0  0  0  0  0  0  0  0  0  0  0
   35.0729   33.5788    6.1659 C   0  0  0  0  0  0  0  0  0  0  0  0
   40.4996   32.0279    1.6540 H   0  0  0  0  0  0  0  0  0  0  0  0
   39.7058   28.9810    1.1020 H   0  0  0  0  0  0  0  0  0  0  0  0
   40.0605   27.5418   -0.8393 H   0  0  0  0  0  0  0  0  0  0  0  0
   40.0649   32.4077   -1.3509 H   0  0  0  0  0  0  0  0  0  0  0  0
   41.5428   29.5912   -4.7222 H   0  0  0  0  0  0  0  0  0  0  0  0
   39.7784   29.5733   -4.9351 H   0  0  0  0  0  0  0  0  0  0  0  0
   34.3122   32.0910    3.2774 H   0  0  0  0  0  0  0  0  0  0  0  0
   32.2765   31.6102    4.4945 H   0  0  0  0  0  0  0  0  0  0  0  0
   32.0061   32.3770    6.7783 H   0  0  0  0  0  0  0  0  0  0  0  0
   33.7889   33.6316    7.8432 H   0  0  0  0  0  0  0  0  0  0  0  0
   35.8248   34.1134    6.6284 H   0  0  0  0  0  0  0  0  0  0  0  0
  1  2  2  0
  2  3  1  0
  3  4  1  0
  3  8  1  0
  4 18  1  0
  4  5  2  0
  5  6  1  0
  6  7  2  0
  6  2  1  0
  7  9  1  0
  7 26  1  0
  9 10  2  0
 10 11  1  0
 10 27  1  0
 11 12  2  0
 11 28  1  0
 12 13  1  0
 13 14  2  0
 13 15  1  0
 14  9  1  0
 14 29  1  0
 15 16  1  0
 16 17  1  0
 16 30  1  0
 16 31  1  0
 17 12  1  0
 18 20  1  0
 18 19  1  0
 20 21  2  0
 21 22  1  0
 21 32  1  0
 22 23  2  0
 22 33  1  0
 23 24  1  0
 23 34  1  0
 24 25  2  0
 24 35  1  0
 25 20  1  0
 25 36  1  0
M  END
>  <minimizedAffinity>  (6) 
-8.99566

>  <mol_id>  (6) 
60031

>  <source_index>  (6) 
5

>  <layer>  (6) 
L1

>  <uniprot>  (6) 
P49759

>  <paff>  (6) 
7.4558999999999997

>  <smiles>  (6) 
O=C1NC(Nc2ccccc2)=NC1=Cc1ccc2c(c1)OCO2

$$$$
L1:P49759:94228
     RDKit          3D

 35 36  0  0  0  0  0  0  0  0999 V2000
   38.8869   30.7358   -0.8084 C   0  0  0  0  0  0  0  0  0  0  0  0
   39.0768   30.3466   -2.1408 C   0  0  0  0  0  0  0  0  0  0  0  0
   37.8061   30.4904   -2.8007 C   0  0  0  0  0  0  0  0  0  0  0  0
   37.3897   30.3696   -4.1462 C   0  0  0  0  0  0  0  0  0  0  0  0
   36.0624   30.6179   -4.5020 C   0  0  0  0  0  0  0  0  0  0  0  0
   35.1369   31.0069   -3.5421 C   0  0  0  0  0  0  0  0  0  0  0  0
   33.5233   31.3205   -4.0898 Cl  0  0  0  0  0  0  0  0  0  0  0  0
   35.5109   31.1401   -2.1929 C   0  0  0  0  0  0  0  0  0  0  0  0
   34.3673   31.7019   -1.0213 Cl  0  0  0  0  0  0  0  0  0  0  0  0
   36.8550   30.8527   -1.8356 C   0  0  0  0  0  0  0  0  0  0  0  0
   37.5174   30.8219   -0.6171 N   0  0  0  0  0  0  0  0  0  0  0  0
   36.8671   30.7885    0.6812 C   0  0  0  0  0  0  0  0  0  0  0  0
   39.9302   30.9808    0.1809 C   0  0  0  0  0  0  0  0  0  0  0  0
   40.5515   30.1015    0.7649 O   0  0  0  0  0  0  0  0  0  0  0  0
   40.1710   32.3123    0.3130 O   0  0  0  0  0  0  0  0  0  0  0  0
   39.2717   32.8156    2.5031 C   0  0  0  0  0  0  0  0  0  0  0  0
   40.5127   32.7644    1.6320 C   0  0  0  0  0  0  0  0  0  0  0  0
   40.4153   29.9747   -2.7560 C   0  0  2  0  0  0  0  0  0  0  0  0
   41.1939   31.2312   -3.0743 C   0  0  0  0  0  0  0  0  0  0  0  0
   41.9482   31.3725   -4.1202 N   0  0  0  0  0  0  0  0  0  0  0  0
   41.9429   30.5154   -4.6999 H   0  0  0  0  0  0  0  0  0  0  0  0
   40.2995   29.1412   -3.9618 C   0  0  0  0  0  0  0  0  0  0  0  0
   40.2043   28.4929   -4.9212 N   0  0  0  0  0  0  0  0  0  0  0  0
   38.0716   30.0959   -4.8708 H   0  0  0  0  0  0  0  0  0  0  0  0
   35.7670   30.5116   -5.4851 H   0  0  0  0  0  0  0  0  0  0  0  0
   35.8082   30.8721    0.5520 H   0  0  0  0  0  0  0  0  0  0  0  0
   37.2192   31.6042    1.2775 H   0  0  0  0  0  0  0  0  0  0  0  0
   37.0948   29.8646    1.1705 H   0  0  0  0  0  0  0  0  0  0  0  0
   39.5374   33.1535    3.4830 H   0  0  0  0  0  0  0  0  0  0  0  0
   38.8406   31.8384    2.5675 H   0  0  0  0  0  0  0  0  0  0  0  0
   38.5618   33.4910    2.0732 H   0  0  0  0  0  0  0  0  0  0  0  0
   41.2214   32.0897    2.0649 H   0  0  0  0  0  0  0  0  0  0  0  0
   40.9361   33.7449    1.5675 H   0  0  0  0  0  0  0  0  0  0  0  0
   40.9321   29.3835   -2.0292 H   0  0  0  0  0  0  0  0  0  0  0  0
   41.1207   32.0252   -2.4192 H   0  0  0  0  0  0  0  0  0  0  0  0
  1  2  2  0
  2 18  1  0
  2  3  1  0
  3  4  2  0
  4  5  1  0
  4 24  1  0
  5  6  2  0
  5 25  1  0
  6  7  1  0
  6  8  1  0
  8  9  1  0
  8 10  2  0
 10 11  1  0
 10  3  1  0
 11 12  1  0
 11  1  1  0
 12 26  1  0
 12 27  1  0
 12 28  1  0
 13 14  2  0
 13  1  1  0
 15 13  1  0
 16 17  1  0
 16 29  1  0
 16 30  1  0
 16 31  1  0
 17 15  1  0
 17 32  1  0
 17 33  1  0
 18 22  1  0
 18 19  1  0
 18 34  1  1
 19 20  2  0
 19 35  1  0
 20 21  1  0
 22 23  3  0
M  END
>  <minimizedAffinity>  (7) 
-7.06279

>  <mol_id>  (7) 
94228

>  <source_index>  (7) 
6

>  <layer>  (7) 
L1

>  <uniprot>  (7) 
P49759

>  <paff>  (7) 
6.8239000000000001

>  <smiles>  (7) 
CCOC(=O)c1c(C(C=N)C#N)c2ccc(Cl)c(Cl)c2n1C

$$$$
L1:P49759:114565
     RDKit          3D

 32 33  0  0  0  0  0  0  0  0999 V2000
   39.5238   31.0976    0.0100 N   0  0  0  0  0  0  0  0  0  0  0  0
   39.6770   30.9012   -1.3737 C   0  0  0  0  0  0  0  0  0  0  0  0
   40.8501   30.8215   -2.0259 C   0  0  0  0  0  0  0  0  0  0  0  0
   38.1239   30.8335   -2.2506 S   0  0  0  0  0  0  0  0  0  0  0  0
   37.2740   31.1113   -0.7063 C   0  0  0  0  0  0  0  0  0  0  0  0
   35.9000   31.2125   -0.5438 C   0  0  0  0  0  0  0  0  0  0  0  0
   35.3922   31.4421    0.7368 C   0  0  0  0  0  0  0  0  0  0  0  0
   36.2598   31.5686    1.8298 C   0  0  0  0  0  0  0  0  0  0  0  0
   37.6472   31.4626    1.6437 C   0  0  0  0  0  0  0  0  0  0  0  0
   38.1692   31.2312    0.3751 C   0  0  0  0  0  0  0  0  0  0  0  0
   41.0956   30.6160   -3.4756 C   0  0  0  0  0  0  0  0  0  0  0  0
   40.6233   29.3576   -4.1537 C   0  0  0  0  0  0  0  0  0  0  0  0
   41.7609   31.4573   -4.0808 O   0  0  0  0  0  0  0  0  0  0  0  0
   41.1212   32.6616    1.0287 C   0  0  0  0  0  0  0  0  0  0  0  0
   40.5849   31.2381    1.0021 C   0  0  0  0  0  0  0  0  0  0  0  0
   35.8820   31.7966    3.1266 O   0  0  0  0  0  0  0  0  0  0  0  0
   34.6225   32.4248    3.3311 C   0  0  0  0  0  0  0  0  0  0  0  0
   41.6940   30.9160   -1.4394 H   0  0  0  0  0  0  0  0  0  0  0  0
   35.2660   31.1200   -1.3528 H   0  0  0  0  0  0  0  0  0  0  0  0
   34.3729   31.5190    0.8788 H   0  0  0  0  0  0  0  0  0  0  0  0
   38.2826   31.5567    2.4514 H   0  0  0  0  0  0  0  0  0  0  0  0
   40.0660   28.7654   -3.4583 H   0  0  0  0  0  0  0  0  0  0  0  0
   41.4685   28.8002   -4.4999 H   0  0  0  0  0  0  0  0  0  0  0  0
   39.9997   29.6128   -4.9849 H   0  0  0  0  0  0  0  0  0  0  0  0
   41.8961   32.7371    1.7627 H   0  0  0  0  0  0  0  0  0  0  0  0
   40.3287   33.3367    1.2759 H   0  0  0  0  0  0  0  0  0  0  0  0
   41.5160   32.9121    0.0662 H   0  0  0  0  0  0  0  0  0  0  0  0
   40.1955   30.9927    1.9681 H   0  0  0  0  0  0  0  0  0  0  0  0
   41.3850   30.5771    0.7416 H   0  0  0  0  0  0  0  0  0  0  0  0
   34.4495   32.5438    4.3803 H   0  0  0  0  0  0  0  0  0  0  0  0
   33.8487   31.8185    2.9085 H   0  0  0  0  0  0  0  0  0  0  0  0
   34.6218   33.3847    2.8584 H   0  0  0  0  0  0  0  0  0  0  0  0
  1  2  1  0
  2  3  2  0
  2  4  1  0
  3 11  1  0
  3 18  1  0
  4  5  1  0
  5  6  2  0
  6  7  1  0
  6 19  1  0
  7  8  2  0
  7 20  1  0
  8 16  1  0
  8  9  1  0
  9 10  2  0
  9 21  1  0
 10  1  1  0
 10  5  1  0
 11 12  1  0
 11 13  2  0
 12 22  1  0
 12 23  1  0
 12 24  1  0
 14 15  1  0
 14 25  1  0
 14 26  1  0
 14 27  1  0
 15  1  1  0
 15 28  1  0
 15 29  1  0
 16 17  1  0
 17 30  1  0
 17 31  1  0
 17 32  1  0
M  END
>  <minimizedAffinity>  (8) 
-6.70429

>  <mol_id>  (8) 
114565

>  <source_index>  (8) 
7

>  <layer>  (8) 
L1

>  <uniprot>  (8) 
P49759

>  <paff>  (8) 
7.585

>  <smiles>  (8) 
CCN\1c2cc(ccc2S/C1=C\C(=O)C)OC

$$$$
L1:P49759:135630
     RDKit          3D

 66 70  0  0  0  0  0  0  0  0999 V2000
   35.5552   33.0679    4.2804 C   0  0  0  0  0  0  0  0  0  0  0  0
   34.8422   32.9501    3.2888 O   0  0  0  0  0  0  0  0  0  0  0  0
   36.9267   32.9443    4.3102 N   0  0  0  0  0  0  0  0  0  0  0  0
   37.4534   33.1478    5.1465 H   0  0  0  0  0  0  0  0  0  0  0  0
   37.7149   32.5957    3.2457 C   0  0  0  0  0  0  0  0  0  0  0  0
   37.4358   31.8009    2.1620 C   0  0  0  0  0  0  0  0  0  0  0  0
   38.5818   31.7932    1.4131 N   0  0  0  0  0  0  0  0  0  0  0  0
   38.8494   31.1463    0.2099 C   0  0  0  0  0  0  0  0  0  0  0  0
   40.0654   31.2784   -0.3603 C   0  0  0  0  0  0  0  0  0  0  0  0
   41.0584   32.1081    0.3293 C   0  0  0  0  0  0  0  0  0  0  0  0
   40.7879   32.7296    1.4938 C   0  0  0  0  0  0  0  0  0  0  0  0
   39.5037   32.5859    2.0875 C   0  0  0  0  0  0  0  0  0  0  0  0
   38.9947   33.0775    3.1985 N   0  0  0  0  0  0  0  0  0  0  0  0
   40.3407   30.5842   -1.6278 C   0  0  0  0  0  0  0  0  0  0  0  0
   39.8690   29.2895   -1.8504 C   0  0  0  0  0  0  0  0  0  0  0  0
   40.1502   28.6882   -3.0657 C   0  0  0  0  0  0  0  0  0  0  0  0
   40.8553   29.2822   -4.0519 N   0  0  0  0  0  0  0  0  0  0  0  0
   41.2990   30.5347   -3.8134 C   0  0  0  0  0  0  0  0  0  0  0  0
   41.0690   31.2215   -2.6331 C   0  0  0  0  0  0  0  0  0  0  0  0
   33.6356   34.0786    8.0255 C   0  0  0  0  0  0  0  0  0  0  0  0
   35.0271   33.8916    7.9655 C   0  0  0  0  0  0  0  0  0  0  0  0
   35.6638   33.5596    6.7618 C   0  0  0  0  0  0  0  0  0  0  0  0
   34.9212   33.4156    5.5855 C   0  0  0  0  0  0  0  0  0  0  0  0
   33.5346   33.5742    5.6307 C   0  0  0  0  0  0  0  0  0  0  0  0
   32.9023   33.9049    6.8329 C   0  0  0  0  0  0  0  0  0  0  0  0
   32.8815   34.4659    9.3351 C   0  0  0  0  0  0  0  0  0  0  0  0
   31.3830   34.3662    8.9800 C   0  0  0  0  0  0  0  0  0  0  0  0
   33.1929   35.9063    9.7930 C   0  0  0  0  0  0  0  0  0  0  0  0
   32.3517   28.1587   11.5197 C   0  0  0  0  0  0  0  0  0  0  0  0
   32.8281   29.1655   10.5749 N   0  0  0  0  0  0  0  0  0  0  0  0
   34.0107   29.8866   11.0881 C   0  0  0  0  0  0  0  0  0  0  0  0
   33.7530   31.3397   11.5286 C   0  0  0  0  0  0  0  0  0  0  0  0
   33.1210   32.1470   10.4744 N   0  0  0  0  0  0  0  0  0  0  0  0
   33.3549   33.5145   10.4919 C   0  0  0  0  0  0  0  0  0  0  0  0
   33.9212   34.0043   11.4802 O   0  0  0  0  0  0  0  0  0  0  0  0
   32.2482   31.3952    9.5669 C   0  0  0  0  0  0  0  0  0  0  0  0
   31.7387   30.0830   10.1956 C   0  0  0  0  0  0  0  0  0  0  0  0
   36.5502   31.3128    1.9556 H   0  0  0  0  0  0  0  0  0  0  0  0
   38.1230   30.5698   -0.2429 H   0  0  0  0  0  0  0  0  0  0  0  0
   41.9944   32.2196   -0.0907 H   0  0  0  0  0  0  0  0  0  0  0  0
   41.5094   33.3073    1.9528 H   0  0  0  0  0  0  0  0  0  0  0  0
   39.3246   28.7931   -1.1278 H   0  0  0  0  0  0  0  0  0  0  0  0
   39.8006   27.7307   -3.2268 H   0  0  0  0  0  0  0  0  0  0  0  0
   41.8409   31.0077   -4.5534 H   0  0  0  0  0  0  0  0  0  0  0  0
   41.4271   32.1802   -2.5004 H   0  0  0  0  0  0  0  0  0  0  0  0
   35.5904   34.0007    8.8233 H   0  0  0  0  0  0  0  0  0  0  0  0
   36.6862   33.4206    6.7434 H   0  0  0  0  0  0  0  0  0  0  0  0
   32.9744   33.4468    4.7734 H   0  0  0  0  0  0  0  0  0  0  0  0
   31.8774   34.0245    6.8483 H   0  0  0  0  0  0  0  0  0  0  0  0
   30.7956   34.6201    9.8375 H   0  0  0  0  0  0  0  0  0  0  0  0
   31.1546   33.3665    8.6745 H   0  0  0  0  0  0  0  0  0  0  0  0
   31.1598   35.0429    8.1817 H   0  0  0  0  0  0  0  0  0  0  0  0
   32.6524   36.1196   10.6915 H   0  0  0  0  0  0  0  0  0  0  0  0
   32.8996   36.5949    9.0283 H   0  0  0  0  0  0  0  0  0  0  0  0
   34.2426   36.0031    9.9767 H   0  0  0  0  0  0  0  0  0  0  0  0
   33.1575   27.5049   11.7807 H   0  0  0  0  0  0  0  0  0  0  0  0
   31.5638   27.5917   11.0696 H   0  0  0  0  0  0  0  0  0  0  0  0
   31.9848   28.6420   12.4010 H   0  0  0  0  0  0  0  0  0  0  0  0
   34.7505   29.9013   10.3152 H   0  0  0  0  0  0  0  0  0  0  0  0
   34.3207   29.3607   11.9668 H   0  0  0  0  0  0  0  0  0  0  0  0
   34.6880   31.7893   11.7903 H   0  0  0  0  0  0  0  0  0  0  0  0
   33.0816   31.3115   12.3613 H   0  0  0  0  0  0  0  0  0  0  0  0
   32.7964   31.1606    8.6785 H   0  0  0  0  0  0  0  0  0  0  0  0
   31.3967   32.0064    9.3517 H   0  0  0  0  0  0  0  0  0  0  0  0
   31.1072   29.5883    9.4875 H   0  0  0  0  0  0  0  0  0  0  0  0
   31.2108   30.3403   11.0900 H   0  0  0  0  0  0  0  0  0  0  0  0
  1  2  2  0
  1  3  1  0
  3  5  1  0
  3  4  1  0
  5  6  2  0
  6  7  1  0
  6 38  1  0
  7  8  1  0
  8  9  2  0
  8 39  1  0
  9 14  1  0
  9 10  1  0
 10 11  2  0
 10 40  1  0
 11 12  1  0
 11 41  1  0
 12 13  2  0
 12  7  1  0
 13  5  1  0
 14 15  2  0
 15 16  1  0
 15 42  1  0
 16 17  2  0
 16 43  1  0
 17 18  1  0
 18 19  2  0
 18 44  1  0
 19 14  1  0
 19 45  1  0
 20 21  2  0
 21 22  1  0
 21 46  1  0
 22 23  2  0
 22 47  1  0
 23  1  1  0
 23 24  1  0
 24 25  2  0
 24 48  1  0
 25 20  1  0
 25 49  1  0
 26 27  1  0
 26 28  1  0
 26 20  1  0
 27 50  1  0
 27 51  1  0
 27 52  1  0
 28 53  1  0
 28 54  1  0
 28 55  1  0
 29 30  1  0
 29 56  1  0
 29 57  1  0
 29 58  1  0
 30 31  1  0
 31 32  1  0
 31 59  1  0
 31 60  1  0
 32 33  1  0
 32 61  1  0
 32 62  1  0
 33 34  1  0
 33 36  1  0
 34 35  2  0
 34 26  1  0
 36 37  1  0
 36 63  1  0
 36 64  1  0
 37 30  1  0
 37 65  1  0
 37 66  1  0
M  END
>  <minimizedAffinity>  (9) 
-9.56613

>  <mol_id>  (9) 
135630

>  <source_index>  (9) 
8

>  <layer>  (9) 
L1

>  <uniprot>  (9) 
P49759

>  <paff>  (9) 
9.1738999999999997

>  <smiles>  (9) 
CN1CCN(CC1)C(=O)C(C)(C)c1ccc(cc1)C(=O)Nc1cn2cc(ccc2n1)-c1ccncc1

$$$$
L1:P49759:142923
     RDKit          3D

 62 67  0  0  0  0  0  0  0  0999 V2000
   39.6922   31.6158   -0.2834 C   0  0  0  0  0  0  0  0  0  0  0  0
   41.0237   31.9861   -0.5463 C   0  0  0  0  0  0  0  0  0  0  0  0
   41.6610   31.6888   -1.7596 C   0  0  0  0  0  0  0  0  0  0  0  0
   40.9122   31.0032   -2.7173 C   0  0  0  0  0  0  0  0  0  0  0  0
   41.2240   30.5682   -3.9779 N   0  0  0  0  0  0  0  0  0  0  0  0
   40.2184   29.9349   -4.6111 N   0  0  0  0  0  0  0  0  0  0  0  0
   39.2211   29.9689   -3.7146 C   0  0  0  0  0  0  0  0  0  0  0  0
   39.5939   30.6181   -2.5115 C   0  0  0  0  0  0  0  0  0  0  0  0
   38.9776   30.9237   -1.2820 C   0  0  0  0  0  0  0  0  0  0  0  0
   42.1080   30.6742   -4.4630 H   0  0  0  0  0  0  0  0  0  0  0  0
   37.8286   29.3450   -4.0363 C   0  0  0  0  0  0  0  0  0  0  0  0
   37.6066   28.2246   -4.6926 N   0  0  0  0  0  0  0  0  0  0  0  0
   36.2358   28.0878   -4.7229 C   0  0  0  0  0  0  0  0  0  0  0  0
   35.4412   27.0815   -5.2788 C   0  0  0  0  0  0  0  0  0  0  0  0
   34.0877   27.1445   -5.1805 N   0  0  0  0  0  0  0  0  0  0  0  0
   33.5301   28.2055   -4.5426 C   0  0  0  0  0  0  0  0  0  0  0  0
   34.2239   29.2700   -3.9587 C   0  0  0  0  0  0  0  0  0  0  0  0
   35.6130   29.1537   -4.0775 C   0  0  0  0  0  0  0  0  0  0  0  0
   36.6559   29.9305   -3.6414 N   0  0  0  0  0  0  0  0  0  0  0  0
   36.6012   30.7903   -3.1130 H   0  0  0  0  0  0  0  0  0  0  0  0
   33.5782   30.3920   -3.2840 C   0  0  0  0  0  0  0  0  0  0  0  0
   32.2717   30.7874   -3.6253 C   0  0  0  0  0  0  0  0  0  0  0  0
   31.6517   31.8641   -2.9832 C   0  0  0  0  0  0  0  0  0  0  0  0
   32.3303   32.5613   -1.9876 C   0  0  0  0  0  0  0  0  0  0  0  0
   33.6187   32.1745   -1.6422 C   0  0  0  0  0  0  0  0  0  0  0  0
   34.2728   32.8447   -0.6847 F   0  0  0  0  0  0  0  0  0  0  0  0
   34.2436   31.1034   -2.2749 C   0  0  0  0  0  0  0  0  0  0  0  0
   37.1375   31.8951    2.5144 C   0  0  0  0  0  0  0  0  0  0  0  0
   37.9117   32.6026    3.4273 C   0  0  0  0  0  0  0  0  0  0  0  0
   39.1925   32.9866    3.1977 N   0  0  0  0  0  0  0  0  0  0  0  0
   39.7265   32.6466    2.0020 C   0  0  0  0  0  0  0  0  0  0  0  0
   39.0541   31.9458    1.0018 C   0  0  0  0  0  0  0  0  0  0  0  0
   37.7317   31.5710    1.2890 C   0  0  0  0  0  0  0  0  0  0  0  0
   34.6619   32.2525    2.5883 C   0  0  0  0  0  0  0  0  0  0  0  0
   34.6357   33.4287    2.2526 O   0  0  0  0  0  0  0  0  0  0  0  0
   35.8051   31.4790    2.7238 N   0  0  0  0  0  0  0  0  0  0  0  0
   35.6756   30.5145    3.0034 H   0  0  0  0  0  0  0  0  0  0  0  0
   33.4085   31.4450    2.9121 C   0  0  0  0  0  0  0  0  0  0  0  0
   32.9482   29.6421    1.1651 C   0  0  0  0  0  0  0  0  0  0  0  0
   32.5352   31.0019    1.7283 C   0  0  0  0  0  0  0  0  0  0  0  0
   31.0410   31.0395    2.0484 C   0  0  0  0  0  0  0  0  0  0  0  0
   41.5508   32.4952    0.1804 H   0  0  0  0  0  0  0  0  0  0  0  0
   42.6396   31.9646   -1.9364 H   0  0  0  0  0  0  0  0  0  0  0  0
   38.0000   30.6400   -1.1120 H   0  0  0  0  0  0  0  0  0  0  0  0
   35.8845   26.2871   -5.7661 H   0  0  0  0  0  0  0  0  0  0  0  0
   32.5001   28.2284   -4.4832 H   0  0  0  0  0  0  0  0  0  0  0  0
   31.7624   30.2743   -4.3618 H   0  0  0  0  0  0  0  0  0  0  0  0
   30.6932   32.1411   -3.2469 H   0  0  0  0  0  0  0  0  0  0  0  0
   31.8802   33.3581   -1.5106 H   0  0  0  0  0  0  0  0  0  0  0  0
   35.2006   30.8317   -2.0002 H   0  0  0  0  0  0  0  0  0  0  0  0
   37.4864   32.8506    4.3343 H   0  0  0  0  0  0  0  0  0  0  0  0
   40.7025   32.9263    1.8169 H   0  0  0  0  0  0  0  0  0  0  0  0
   37.1885   31.0477    0.5847 H   0  0  0  0  0  0  0  0  0  0  0  0
   33.7190   30.5625    3.4314 H   0  0  0  0  0  0  0  0  0  0  0  0
   32.7900   32.1097    3.4783 H   0  0  0  0  0  0  0  0  0  0  0  0
   32.3084   29.3858    0.3467 H   0  0  0  0  0  0  0  0  0  0  0  0
   32.8640   28.8987    1.9301 H   0  0  0  0  0  0  0  0  0  0  0  0
   33.9614   29.6900    0.8243 H   0  0  0  0  0  0  0  0  0  0  0  0
   32.7097   31.7261    0.9602 H   0  0  0  0  0  0  0  0  0  0  0  0
   30.8226   30.3265    2.8158 H   0  0  0  0  0  0  0  0  0  0  0  0
   30.4816   30.7991    1.1685 H   0  0  0  0  0  0  0  0  0  0  0  0
   30.7729   32.0192    2.3850 H   0  0  0  0  0  0  0  0  0  0  0  0
  1  2  2  0
  2  3  1  0
  2 42  1  0
  3  4  2  0
  3 43  1  0
  4  5  1  0
  5  6  1  0
  5 10  1  0
  6  7  2  0
  7 11  1  0
  7  8  1  0
  8  9  2  0
  8  4  1  0
  9  1  1  0
  9 44  1  0
 11 12  2  0
 12 13  1  0
 13 14  2  0
 14 15  1  0
 14 45  1  0
 15 16  2  0
 16 17  1  0
 16 46  1  0
 17 21  1  0
 17 18  2  0
 18 19  1  0
 18 13  1  0
 19 11  1  0
 19 20  1  0
 21 22  2  0
 22 23  1  0
 22 47  1  0
 23 24  2  0
 23 48  1  0
 24 25  1  0
 24 49  1  0
 25 26  1  0
 25 27  2  0
 27 21  1  0
 27 50  1  0
 28 29  2  0
 29 30  1  0
 29 51  1  0
 30 31  2  0
 31 32  1  0
 31 52  1  0
 32  1  1  0
 32 33  2  0
 33 28  1  0
 33 53  1  0
 34 35  2  0
 34 36  1  0
 36 28  1  0
 36 37  1  0
 38 34  1  0
 38 54  1  0
 38 55  1  0
 39 40  1  0
 39 56  1  0
 39 57  1  0
 39 58  1  0
 40 41  1  0
 40 38  1  0
 40 59  1  0
 41 60  1  0
 41 61  1  0
 41 62  1  0
M  END
>  <minimizedAffinity>  (10) 
-10.71527

>  <mol_id>  (10) 
142923

>  <source_index>  (10) 
9

>  <layer>  (10) 
L1

>  <uniprot>  (10) 
P49759

>  <paff>  (10) 
6.6215999999999999

>  <smiles>  (10) 
CC(C)CC(=O)Nc1cncc(-c2ccc3[nH]nc(-c4nc5cncc(-c6cccc(F)c6)c5[nH]4)c3c2)c1

$$$$
