L2:Q92793:104318
     RDKit          3D

 65 69  0  0  0  0  0  0  0  0999 V2000
    8.2678    2.0937   -1.2898 C   0  0  0  0  0  0  0  0  0  0  0  0
    7.2679    1.1006   -1.0613 O   0  0  0  0  0  0  0  0  0  0  0  0
    6.0346    1.6049   -0.7808 C   0  0  0  0  0  0  0  0  0  0  0  0
    5.7953    2.8055   -0.7235 O   0  0  0  0  0  0  0  0  0  0  0  0
    5.0940    0.6179   -0.5694 N   0  0  0  0  0  0  0  0  0  0  0  0
    5.3950   -0.8033   -0.5274 C   0  0  0  0  0  0  0  0  0  0  0  0
    4.4664   -1.5717   -1.4638 C   0  0  0  0  0  0  0  0  0  0  0  0
    3.0067   -1.2505   -1.2157 C   0  0  0  0  0  0  0  0  0  0  0  0
    1.9753   -2.1388   -1.5923 C   0  0  0  0  0  0  0  0  0  0  0  0
    2.2060   -3.4298   -2.2886 C   0  0  0  0  0  0  0  0  0  0  0  0
    1.5599   -4.4479   -2.1215 O   0  0  0  0  0  0  0  0  0  0  0  0
    3.1641   -3.3544   -3.2264 O   0  0  0  0  0  0  0  0  0  0  0  0
    0.6275   -1.8543   -1.3071 C   0  0  0  0  0  0  0  0  0  0  0  0
    0.3373   -0.6405   -0.6750 C   0  0  0  0  0  0  0  0  0  0  0  0
    1.3260    0.2651   -0.3283 C   0  0  0  0  0  0  0  0  0  0  0  0
    0.7776    1.3575    0.2830 N   0  0  0  0  0  0  0  0  0  0  0  0
   -0.5284    1.1590    0.3370 C   0  0  0  0  0  0  0  0  0  0  0  0
   -1.4344    2.1385    1.0434 C   0  0  0  0  0  0  0  0  0  0  0  0
   -1.5668    1.7980    2.5401 C   0  0  0  0  0  0  0  0  0  0  0  0
   -2.8336    2.3740    3.1797 C   0  0  0  0  0  0  0  0  0  0  0  0
   -3.2123    3.7190    2.5707 C   0  0  0  0  0  0  0  0  0  0  0  0
   -3.4734    3.6228    1.0645 C   0  0  0  0  0  0  0  0  0  0  0  0
   -2.7914    2.4191    0.4045 C   0  0  0  0  0  0  0  0  0  0  0  0
   -0.8448   -0.0445   -0.2682 N   0  0  0  0  0  0  0  0  0  0  0  0
   -2.1507   -0.6335   -0.5028 C   0  0  0  0  0  0  0  0  0  0  0  0
   -2.6887   -1.3927    0.7066 C   0  0  0  0  0  0  0  0  0  0  0  0
   -3.9996   -2.0679    0.3907 C   0  0  0  0  0  0  0  0  0  0  0  0
   -4.0190   -3.3671   -0.1343 C   0  0  0  0  0  0  0  0  0  0  0  0
   -5.2310   -3.9823   -0.4504 C   0  0  0  0  0  0  0  0  0  0  0  0
   -6.4319   -3.3049   -0.2480 C   0  0  0  0  0  0  0  0  0  0  0  0
   -6.4226   -2.0115    0.2707 C   0  0  0  0  0  0  0  0  0  0  0  0
   -5.2122   -1.3936    0.5877 C   0  0  0  0  0  0  0  0  0  0  0  0
    2.6834   -0.0078   -0.5999 C   0  0  0  0  0  0  0  0  0  0  0  0
    3.7372    1.0043   -0.2166 C   0  0  0  0  0  0  0  0  0  0  0  0
    8.4077    2.7108   -0.3967 H   0  0  0  0  0  0  0  0  0  0  0  0
    8.0050    2.7123   -2.1537 H   0  0  0  0  0  0  0  0  0  0  0  0
    9.2096    1.5817   -1.5061 H   0  0  0  0  0  0  0  0  0  0  0  0
    6.4350   -1.0102   -0.7952 H   0  0  0  0  0  0  0  0  0  0  0  0
    5.2582   -1.1328    0.5104 H   0  0  0  0  0  0  0  0  0  0  0  0
    4.6562   -2.6397   -1.3105 H   0  0  0  0  0  0  0  0  0  0  0  0
    4.7034   -1.3162   -2.5037 H   0  0  0  0  0  0  0  0  0  0  0  0
    3.1606   -4.2405   -3.6448 H   0  0  0  0  0  0  0  0  0  0  0  0
   -0.1549   -2.5564   -1.5805 H   0  0  0  0  0  0  0  0  0  0  0  0
   -0.8906    3.0960    0.9966 H   0  0  0  0  0  0  0  0  0  0  0  0
   -0.6874    2.1959    3.0646 H   0  0  0  0  0  0  0  0  0  0  0  0
   -1.5437    0.7166    2.7156 H   0  0  0  0  0  0  0  0  0  0  0  0
   -3.6635    1.6690    3.0443 H   0  0  0  0  0  0  0  0  0  0  0  0
   -2.6842    2.4768    4.2605 H   0  0  0  0  0  0  0  0  0  0  0  0
   -2.3987    4.4332    2.7502 H   0  0  0  0  0  0  0  0  0  0  0  0
   -4.0977    4.1264    3.0719 H   0  0  0  0  0  0  0  0  0  0  0  0
   -3.1347    4.5504    0.5871 H   0  0  0  0  0  0  0  0  0  0  0  0
   -4.5526    3.5603    0.8789 H   0  0  0  0  0  0  0  0  0  0  0  0
   -2.6975    2.5967   -0.6732 H   0  0  0  0  0  0  0  0  0  0  0  0
   -3.4576    1.5603    0.5344 H   0  0  0  0  0  0  0  0  0  0  0  0
   -2.0615   -1.3098   -1.3616 H   0  0  0  0  0  0  0  0  0  0  0  0
   -2.8287    0.1490   -0.8474 H   0  0  0  0  0  0  0  0  0  0  0  0
   -1.9621   -2.1436    1.0431 H   0  0  0  0  0  0  0  0  0  0  0  0
   -2.8312   -0.7195    1.5582 H   0  0  0  0  0  0  0  0  0  0  0  0
   -3.0912   -3.9114   -0.2988 H   0  0  0  0  0  0  0  0  0  0  0  0
   -5.2384   -4.9917   -0.8541 H   0  0  0  0  0  0  0  0  0  0  0  0
   -7.3752   -3.7859   -0.4934 H   0  0  0  0  0  0  0  0  0  0  0  0
   -7.3600   -1.4845    0.4294 H   0  0  0  0  0  0  0  0  0  0  0  0
   -5.2249   -0.3842    0.9926 H   0  0  0  0  0  0  0  0  0  0  0  0
    3.7215    1.1384    0.8720 H   0  0  0  0  0  0  0  0  0  0  0  0
    3.4976    1.9695   -0.6776 H   0  0  0  0  0  0  0  0  0  0  0  0
  1  2  1  0
  2  3  1  0
  3  4  2  0
  3  5  1  0
  5  6  1  0
  6  7  1  0
  7  8  1  0
  8  9  2  0
  9 10  1  0
 10 11  2  0
 10 12  1  0
  9 13  1  0
 13 14  2  0
 14 15  1  0
 15 16  1  0
 16 17  2  0
 17 18  1  0
 18 19  1  0
 19 20  1  0
 20 21  1  0
 21 22  1  0
 22 23  1  0
 17 24  1  0
 24 25  1  0
 25 26  1  0
 26 27  1  0
 27 28  2  0
 28 29  1  0
 29 30  2  0
 30 31  1  0
 31 32  2  0
 15 33  2  0
 33 34  1  0
 34  5  1  0
 33  8  1  0
 24 14  1  0
 32 27  1  0
 23 18  1  0
  1 35  1  0
  1 36  1  0
  1 37  1  0
  6 38  1  0
  6 39  1  0
  7 40  1  0
  7 41  1  0
 12 42  1  0
 13 43  1  0
 18 44  1  0
 19 45  1  0
 19 46  1  0
 20 47  1  0
 20 48  1  0
 21 49  1  0
 21 50  1  0
 22 51  1  0
 22 52  1  0
 23 53  1  0
 23 54  1  0
 25 55  1  0
 25 56  1  0
 26 57  1  0
 26 58  1  0
 28 59  1  0
 29 60  1  0
 30 61  1  0
 31 62  1  0
 32 63  1  0
 34 64  1  0
 34 65  1  0
M  END
>  <mol_id>  (1) 
104318

>  <source_index>  (1) 
7

>  <layer>  (1) 
L2

>  <uniprot>  (1) 
Q92793

>  <paff>  (1) 
8.2596000000000007

>  <smiles>  (1) 
COC(=O)N1CCc2c(C(=O)O)cc3c(nc(C4CCCCC4)n3CCc3ccccc3)c2C1

$$$$
