L2:Q92793:113888
 OpenBabel09212617523D

 68 72  0  0  0  0  0  0  0  0999 V2000
   -1.8307   -2.6848   16.7239 C   0  0  0  0  0  0  0  0  0  0  0  0
   -2.4446   -2.6595   15.6634 O   0  0  0  0  0  0  0  0  0  0  0  0
   -0.7317   -3.4845   16.9634 N   0  0  0  0  0  0  0  0  0  0  0  0
    0.0699   -3.4270   18.1788 C   0  0  0  0  0  0  0  0  0  0  0  0
    0.2832   -4.8257   18.7507 C   0  0  0  0  0  0  0  0  0  0  0  0
    0.8285   -5.7688   17.7055 C   0  0  0  0  0  0  0  0  0  0  0  0
    1.5446   -6.9062   18.1035 C   0  0  0  0  0  0  0  0  0  0  0  0
    2.0488   -7.8149   17.1689 C   0  0  0  0  0  0  0  0  0  0  0  0
    1.8041   -7.5464   15.8165 C   0  0  0  0  0  0  0  0  0  0  0  0
    1.0797   -6.4409   15.4002 C   0  0  0  0  0  0  0  0  0  0  0  0
    0.9758   -6.4275   14.0384 N   0  0  0  0  0  0  0  0  0  0  0  0
    1.5942   -7.5057   13.5840 C   0  0  0  0  0  0  0  0  0  0  0  0
    2.1535   -8.2013   14.6434 N   0  0  0  0  0  0  0  0  0  0  0  0
    0.5639   -5.5225   16.3368 C   0  0  0  0  0  0  0  0  0  0  0  0
   -0.2308   -4.3238   15.8807 C   0  0  0  0  0  0  0  0  0  0  0  0
    1.6216   -7.7816   12.0962 C   0  0  1  0  0  0  0  0  0  0  0  0
    2.9532   -7.3147   11.4766 C   0  0  0  0  0  0  0  0  0  0  0  0
    3.2384   -7.9423   10.1103 C   0  0  0  0  0  0  0  0  0  0  0  0
    1.9563   -8.2134    9.3319 C   0  0  0  0  0  0  0  0  0  0  0  0
    1.0242   -9.1896   10.0702 C   0  0  1  0  0  0  0  0  0  0  0  0
    1.2418   -9.1747   11.5998 C   0  0  0  0  0  0  0  0  0  0  0  0
   -0.4220   -8.9068    9.7138 C   0  0  0  0  0  0  0  0  0  0  0  0
   -1.4020   -9.5525   10.0415 O   0  0  0  0  0  0  0  0  0  0  0  0
   -0.5537   -7.8304    8.9137 O   0  0  0  0  0  0  0  0  0  0  0  0
   -1.5199   -7.7673    8.7581 H   0  0  0  0  0  0  0  0  0  0  0  0
   -3.4182   -2.2537   18.3908 C   0  0  0  0  0  0  0  0  0  0  0  0
   -2.1636   -1.9173   17.7985 O   0  0  0  0  0  0  0  0  0  0  0  0
    2.9405   -9.4203   14.6517 C   0  0  0  0  0  0  0  0  0  0  0  0
    4.2013   -9.3772   13.7627 C   0  0  2  0  0  0  0  0  0  0  0  0
    4.3825  -10.6410   12.9178 C   0  0  0  0  0  0  0  0  0  0  0  0
    5.4351   -9.1095   14.6158 C   0  0  0  0  0  0  0  0  0  0  0  0
    6.5720   -9.9254   14.4723 C   0  0  0  0  0  0  0  0  0  0  0  0
    7.7187   -9.6934   15.2376 C   0  0  0  0  0  0  0  0  0  0  0  0
    7.7368   -8.6446   16.1490 C   0  0  0  0  0  0  0  0  0  0  0  0
    8.8387   -8.4261   16.8794 F   0  0  0  0  0  0  0  0  0  0  0  0
    6.6232   -7.8302   16.2999 C   0  0  0  0  0  0  0  0  0  0  0  0
    6.6406   -6.8169   17.1768 F   0  0  0  0  0  0  0  0  0  0  0  0
    5.4760   -8.0533   15.5416 C   0  0  0  0  0  0  0  0  0  0  0  0
   -0.4350   -2.8240   18.9044 H   0  0  0  0  0  0  0  0  0  0  0  0
    1.0234   -3.0028   17.9424 H   0  0  0  0  0  0  0  0  0  0  0  0
   -0.6527   -5.2032   19.1064 H   0  0  0  0  0  0  0  0  0  0  0  0
    0.9928   -4.7595   19.5488 H   0  0  0  0  0  0  0  0  0  0  0  0
    1.7030   -7.0764   19.1090 H   0  0  0  0  0  0  0  0  0  0  0  0
    2.5796   -8.6495   17.4634 H   0  0  0  0  0  0  0  0  0  0  0  0
   -1.0682   -4.6736   15.3138 H   0  0  0  0  0  0  0  0  0  0  0  0
    0.4369   -3.7155   15.3071 H   0  0  0  0  0  0  0  0  0  0  0  0
    0.7998   -7.1938   11.7440 H   0  0  0  0  0  0  0  0  0  0  0  0
    3.7482   -7.5766   12.1432 H   0  0  0  0  0  0  0  0  0  0  0  0
    2.8811   -6.2572   11.3306 H   0  0  0  0  0  0  0  0  0  0  0  0
    3.7572   -8.8668   10.2555 H   0  0  0  0  0  0  0  0  0  0  0  0
    3.8305   -7.2530    9.5453 H   0  0  0  0  0  0  0  0  0  0  0  0
    2.2123   -8.6333    8.3816 H   0  0  0  0  0  0  0  0  0  0  0  0
    1.4372   -7.2845    9.2198 H   0  0  0  0  0  0  0  0  0  0  0  0
    1.2708  -10.1780    9.7430 H   0  0  0  0  0  0  0  0  0  0  0  0
    2.0275   -9.8580   11.8461 H   0  0  0  0  0  0  0  0  0  0  0  0
    0.3259   -9.4620   12.0725 H   0  0  0  0  0  0  0  0  0  0  0  0
   -3.6041   -1.6079   19.2235 H   0  0  0  0  0  0  0  0  0  0  0  0
   -3.3935   -3.2696   18.7259 H   0  0  0  0  0  0  0  0  0  0  0  0
   -4.1974   -2.1357   17.6670 H   0  0  0  0  0  0  0  0  0  0  0  0
    2.3187  -10.2213   14.3103 H   0  0  0  0  0  0  0  0  0  0  0  0
    3.2826   -9.5535   15.6568 H   0  0  0  0  0  0  0  0  0  0  0  0
    4.0694   -8.5728   13.0695 H   0  0  0  0  0  0  0  0  0  0  0  0
    4.5197  -11.4842   13.5621 H   0  0  0  0  0  0  0  0  0  0  0  0
    5.2408  -10.5295   12.2888 H   0  0  0  0  0  0  0  0  0  0  0  0
    3.5136  -10.7927   12.3120 H   0  0  0  0  0  0  0  0  0  0  0  0
    6.5594  -10.7037   13.7947 H   0  0  0  0  0  0  0  0  0  0  0  0
    8.5476  -10.2980   15.1262 H   0  0  0  0  0  0  0  0  0  0  0  0
    4.6538   -7.4410   15.6602 H   0  0  0  0  0  0  0  0  0  0  0  0
  1  2  2  0  0  0  0
  1  3  1  0  0  0  0
  3  4  1  0  0  0  0
  4  5  1  0  0  0  0
  4 39  1  0  0  0  0
  4 40  1  0  0  0  0
  5  6  1  0  0  0  0
  5 41  1  0  0  0  0
  5 42  1  0  0  0  0
  6  7  2  0  0  0  0
  7  8  1  0  0  0  0
  7 43  1  0  0  0  0
  8  9  2  0  0  0  0
  8 44  1  0  0  0  0
  9 10  1  0  0  0  0
 10 11  1  0  0  0  0
 10 14  2  0  0  0  0
 11 12  2  0  0  0  0
 12 16  1  0  0  0  0
 12 13  1  0  0  0  0
 13 28  1  0  0  0  0
 13  9  1  0  0  0  0
 14 15  1  0  0  0  0
 14  6  1  0  0  0  0
 15  3  1  0  0  0  0
 15 45  1  0  0  0  0
 15 46  1  0  0  0  0
 16 17  1  0  0  0  0
 16 47  1  6  0  0  0
 17 18  1  0  0  0  0
 17 48  1  0  0  0  0
 17 49  1  0  0  0  0
 18 19  1  0  0  0  0
 18 50  1  0  0  0  0
 18 51  1  0  0  0  0
 19 20  1  0  0  0  0
 19 52  1  0  0  0  0
 19 53  1  0  0  0  0
 20 22  1  0  0  0  0
 20 21  1  0  0  0  0
 20 54  1  6  0  0  0
 21 16  1  0  0  0  0
 21 55  1  0  0  0  0
 21 56  1  0  0  0  0
 22 23  2  0  0  0  0
 22 24  1  0  0  0  0
 24 25  1  0  0  0  0
 26 27  1  0  0  0  0
 26 57  1  0  0  0  0
 26 58  1  0  0  0  0
 26 59  1  0  0  0  0
 27  1  1  0  0  0  0
 28 29  1  0  0  0  0
 28 60  1  0  0  0  0
 28 61  1  0  0  0  0
 29 30  1  0  0  0  0
 29 31  1  0  0  0  0
 29 62  1  6  0  0  0
 30 63  1  0  0  0  0
 30 64  1  0  0  0  0
 30 65  1  0  0  0  0
 31 32  2  0  0  0  0
 32 33  1  0  0  0  0
 32 66  1  0  0  0  0
 33 34  2  0  0  0  0
 33 67  1  0  0  0  0
 34 35  1  0  0  0  0
 34 36  1  0  0  0  0
 36 37  1  0  0  0  0
 36 38  2  0  0  0  0
 38 31  1  0  0  0  0
 38 68  1  0  0  0  0
M  END
>  <minimizedAffinity>
-9.14963

$$$$
