L2:Q92793:113888
     RDKit          3D

 68 72  0  0  0  0  0  0  0  0999 V2000
    8.7405    1.4851    0.2034 C   0  0  0  0  0  0  0  0  0  0  0  0
    7.6814    0.5737   -0.0894 O   0  0  0  0  0  0  0  0  0  0  0  0
    6.4354    1.1114    0.0256 C   0  0  0  0  0  0  0  0  0  0  0  0
    6.2329    2.2767    0.3468 O   0  0  0  0  0  0  0  0  0  0  0  0
    5.4371    0.2026   -0.2610 N   0  0  0  0  0  0  0  0  0  0  0  0
    5.6791   -1.1452   -0.7589 C   0  0  0  0  0  0  0  0  0  0  0  0
    4.8865   -2.1689    0.0491 C   0  0  0  0  0  0  0  0  0  0  0  0
    3.4245   -1.7992    0.1202 C   0  0  0  0  0  0  0  0  0  0  0  0
    2.4680   -2.7955    0.3593 C   0  0  0  0  0  0  0  0  0  0  0  0
    1.1067   -2.4926    0.4525 C   0  0  0  0  0  0  0  0  0  0  0  0
    0.7365   -1.1503    0.3033 C   0  0  0  0  0  0  0  0  0  0  0  0
    1.6660   -0.1452    0.0889 C   0  0  0  0  0  0  0  0  0  0  0  0
    1.0416    1.0661   -0.0035 N   0  0  0  0  0  0  0  0  0  0  0  0
   -0.2537    0.8575    0.1698 C   0  0  0  0  0  0  0  0  0  0  0  0
   -1.2099    2.0304    0.1496 C   0  0  1  0  0  0  0  0  0  0  0  0
   -1.4512    2.5161   -1.2929 C   0  0  0  0  0  0  0  0  0  0  0  0
   -2.7086    3.3759   -1.4400 C   0  0  0  0  0  0  0  0  0  0  0  0
   -2.9899    4.1894   -0.1822 C   0  0  0  0  0  0  0  0  0  0  0  0
   -3.2190    3.2951    1.0485 C   0  0  2  0  0  0  0  0  0  0  0  0
   -2.7907    4.0177    2.3106 C   0  0  0  0  0  0  0  0  0  0  0  0
   -1.9880    3.6345    3.1434 O   0  0  0  0  0  0  0  0  0  0  0  0
   -3.4406    5.1860    2.4802 O   0  0  0  0  0  0  0  0  0  0  0  0
   -2.5232    1.9215    0.9209 C   0  0  0  0  0  0  0  0  0  0  0  0
   -0.4894   -0.4991    0.3215 N   0  0  0  0  0  0  0  0  0  0  0  0
   -1.7355   -1.2172    0.5132 C   0  0  0  0  0  0  0  0  0  0  0  0
   -2.2320   -1.9857   -0.7297 C   0  0  2  0  0  0  0  0  0  0  0  0
   -2.5552   -1.0685   -1.9121 C   0  0  0  0  0  0  0  0  0  0  0  0
   -3.4325   -2.8507   -0.3660 C   0  0  0  0  0  0  0  0  0  0  0  0
   -3.3063   -4.2517   -0.3618 C   0  0  0  0  0  0  0  0  0  0  0  0
   -4.3914   -5.0654   -0.0228 C   0  0  0  0  0  0  0  0  0  0  0  0
   -5.6076   -4.4845    0.3153 C   0  0  0  0  0  0  0  0  0  0  0  0
   -6.6441   -5.2690    0.6403 F   0  0  0  0  0  0  0  0  0  0  0  0
   -5.7463   -3.1036    0.3174 C   0  0  0  0  0  0  0  0  0  0  0  0
   -6.9181   -2.5424    0.6458 F   0  0  0  0  0  0  0  0  0  0  0  0
   -4.6707   -2.2844   -0.0187 C   0  0  0  0  0  0  0  0  0  0  0  0
    3.0409   -0.4420   -0.0016 C   0  0  0  0  0  0  0  0  0  0  0  0
    4.0511    0.6557   -0.2277 C   0  0  0  0  0  0  0  0  0  0  0  0
    8.6707    1.8363    1.2377 H   0  0  0  0  0  0  0  0  0  0  0  0
    8.7274    2.3270   -0.4959 H   0  0  0  0  0  0  0  0  0  0  0  0
    9.6879    0.9521    0.0836 H   0  0  0  0  0  0  0  0  0  0  0  0
    6.7410   -1.4052   -0.7319 H   0  0  0  0  0  0  0  0  0  0  0  0
    5.3705   -1.1593   -1.8119 H   0  0  0  0  0  0  0  0  0  0  0  0
    5.2768   -2.2213    1.0729 H   0  0  0  0  0  0  0  0  0  0  0  0
    5.0065   -3.1562   -0.4119 H   0  0  0  0  0  0  0  0  0  0  0  0
    2.7827   -3.8312    0.4777 H   0  0  0  0  0  0  0  0  0  0  0  0
    0.3802   -3.2758    0.6381 H   0  0  0  0  0  0  0  0  0  0  0  0
   -0.6457    2.8339    0.6503 H   0  0  0  0  0  0  0  0  0  0  0  0
   -0.5778    3.0985   -1.6158 H   0  0  0  0  0  0  0  0  0  0  0  0
   -1.5198    1.6775   -1.9935 H   0  0  0  0  0  0  0  0  0  0  0  0
   -3.5697    2.7294   -1.6516 H   0  0  0  0  0  0  0  0  0  0  0  0
   -2.5994    4.0407   -2.3044 H   0  0  0  0  0  0  0  0  0  0  0  0
   -2.1537    4.8798   -0.0098 H   0  0  0  0  0  0  0  0  0  0  0  0
   -3.8746    4.8178   -0.3426 H   0  0  0  0  0  0  0  0  0  0  0  0
   -4.2935    3.0983    1.1640 H   0  0  0  0  0  0  0  0  0  0  0  0
   -3.0801    5.5381    3.3216 H   0  0  0  0  0  0  0  0  0  0  0  0
   -3.2134    1.2686    0.3738 H   0  0  0  0  0  0  0  0  0  0  0  0
   -2.3643    1.4721    1.9080 H   0  0  0  0  0  0  0  0  0  0  0  0
   -2.4959   -0.5425    0.8920 H   0  0  0  0  0  0  0  0  0  0  0  0
   -1.5605   -1.9214    1.3385 H   0  0  0  0  0  0  0  0  0  0  0  0
   -1.4295   -2.6520   -1.0721 H   0  0  0  0  0  0  0  0  0  0  0  0
   -2.9972   -1.6355   -2.7394 H   0  0  0  0  0  0  0  0  0  0  0  0
   -1.6444   -0.5976   -2.2938 H   0  0  0  0  0  0  0  0  0  0  0  0
   -3.2593   -0.2764   -1.6378 H   0  0  0  0  0  0  0  0  0  0  0  0
   -2.3611   -4.7234   -0.6265 H   0  0  0  0  0  0  0  0  0  0  0  0
   -4.2951   -6.1470   -0.0217 H   0  0  0  0  0  0  0  0  0  0  0  0
   -4.8203   -1.2086   -0.0055 H   0  0  0  0  0  0  0  0  0  0  0  0
    3.9363    1.4214    0.5483 H   0  0  0  0  0  0  0  0  0  0  0  0
    3.8513    1.1276   -1.1976 H   0  0  0  0  0  0  0  0  0  0  0  0
  1  2  1  0
  2  3  1  0
  3  4  2  0
  3  5  1  0
  5  6  1  0
  6  7  1  0
  7  8  1  0
  8  9  2  0
  9 10  1  0
 10 11  2  0
 11 12  1  0
 12 13  1  0
 13 14  2  0
 14 15  1  0
 15 16  1  0
 16 17  1  0
 17 18  1  0
 18 19  1  0
 19 20  1  0
 20 21  2  0
 20 22  1  0
 19 23  1  0
 14 24  1  0
 24 25  1  0
 25 26  1  0
 26 27  1  0
 26 28  1  0
 28 29  2  0
 29 30  1  0
 30 31  2  0
 31 32  1  0
 31 33  1  0
 33 34  1  0
 33 35  2  0
 12 36  2  0
 36 37  1  0
 37  5  1  0
 36  8  1  0
 24 11  1  0
 35 28  1  0
 23 15  1  0
  1 38  1  0
  1 39  1  0
  1 40  1  0
  6 41  1  0
  6 42  1  0
  7 43  1  0
  7 44  1  0
  9 45  1  0
 10 46  1  0
 15 47  1  1
 16 48  1  0
 16 49  1  0
 17 50  1  0
 17 51  1  0
 18 52  1  0
 18 53  1  0
 19 54  1  1
 22 55  1  0
 23 56  1  0
 23 57  1  0
 25 58  1  0
 25 59  1  0
 26 60  1  6
 27 61  1  0
 27 62  1  0
 27 63  1  0
 29 64  1  0
 30 65  1  0
 35 66  1  0
 37 67  1  0
 37 68  1  0
M  END
>  <mol_id>  (1) 
113888

>  <source_index>  (1) 
8

>  <layer>  (1) 
L2

>  <uniprot>  (1) 
Q92793

>  <paff>  (1) 
8.2596000000000007

>  <smiles>  (1) 
COC(=O)N1CCc2ccc3c(nc([C@H]4CCC[C@H](C(=O)O)C4)n3C[C@H](C)c3ccc(F)c(F)c3)c2C1

$$$$
