L2:Q92793:128208
 OpenBabel09212617523D

 69 73  0  0  0  0  0  0  0  0999 V2000
    7.5686   -7.7619   16.6502 C   0  0  0  0  0  0  0  0  0  0  0  0
    8.4868   -7.8026   15.8394 O   0  0  0  0  0  0  0  0  0  0  0  0
    6.3140   -8.2907   16.4265 N   0  0  0  0  0  0  0  0  0  0  0  0
    5.2580   -8.3431   17.4293 C   0  0  0  0  0  0  0  0  0  0  0  0
    3.9564   -7.7770   16.8682 C   0  0  0  0  0  0  0  0  0  0  0  0
    3.5934   -8.4281   15.5553 C   0  0  0  0  0  0  0  0  0  0  0  0
    2.2590   -8.4290   15.1284 C   0  0  0  0  0  0  0  0  0  0  0  0
    1.8823   -9.0012   13.9098 C   0  0  0  0  0  0  0  0  0  0  0  0
    2.8930   -9.5671   13.1235 C   0  0  0  0  0  0  0  0  0  0  0  0
    4.2215   -9.5697   13.5220 C   0  0  0  0  0  0  0  0  0  0  0  0
    4.9990  -10.1893   12.5845 N   0  0  0  0  0  0  0  0  0  0  0  0
    4.1993  -10.5770   11.6057 C   0  0  0  0  0  0  0  0  0  0  0  0
    2.8953  -10.2015   11.8915 N   0  0  0  0  0  0  0  0  0  0  0  0
    4.6107   -8.9869   14.7455 C   0  0  0  0  0  0  0  0  0  0  0  0
    6.0590   -8.9831   15.1686 C   0  0  0  0  0  0  0  0  0  0  0  0
    4.7701  -11.2763   10.3918 C   0  0  0  0  0  0  0  0  0  0  0  0
    5.5304  -10.3019    9.4807 C   0  0  0  0  0  0  0  0  0  0  0  0
    6.2713  -11.0423    8.3661 C   0  0  0  0  0  0  0  0  0  0  0  0
    5.3494  -11.9729    7.5820 C   0  0  0  0  0  0  0  0  0  0  0  0
    4.5939  -12.9306    8.5013 C   0  0  0  0  0  0  0  0  0  0  0  0
    3.8276  -12.1659    9.5822 C   0  0  0  0  0  0  0  0  0  0  0  0
    8.9849   -6.6800   18.1698 C   0  0  0  0  0  0  0  0  0  0  0  0
    7.6819   -7.1854   17.8789 O   0  0  0  0  0  0  0  0  0  0  0  0
    1.6880  -10.4200   11.1041 C   0  0  0  0  0  0  0  0  0  0  0  0
    1.2258   -9.1611   10.3502 C   0  0  1  0  0  0  0  0  0  0  0  0
    2.1152   -8.8106    9.1577 C   0  0  0  0  0  0  0  0  0  0  0  0
    2.0503   -9.6196    8.0081 C   0  0  0  0  0  0  0  0  0  0  0  0
    2.8433   -9.3376    6.9009 C   0  0  0  0  0  0  0  0  0  0  0  0
    2.7455  -10.1264    5.8212 F   0  0  0  0  0  0  0  0  0  0  0  0
    3.7163   -8.2571    6.9180 C   0  0  0  0  0  0  0  0  0  0  0  0
    4.6947   -7.8984    5.5470 Cl  0  0  0  0  0  0  0  0  0  0  0  0
    3.8069   -7.4509    8.0541 C   0  0  0  0  0  0  0  0  0  0  0  0
    3.0177   -7.7262    9.1774 C   0  0  0  0  0  0  0  0  0  0  0  0
    3.0387   -6.9914   10.3307 O   0  0  0  0  0  0  0  0  0  0  0  0
    4.2913   -6.8236   10.9857 C   0  0  0  0  0  0  0  0  0  0  0  0
   -0.2256   -9.2839    9.9200 C   0  0  0  0  0  0  0  0  0  0  0  0
   -0.9134  -10.2903    9.8801 O   0  0  0  0  0  0  0  0  0  0  0  0
   -0.7434   -8.0988    9.5279 O   0  0  0  0  0  0  0  0  0  0  0  0
   -1.6674   -8.3091    9.2753 H   0  0  0  0  0  0  0  0  0  0  0  0
    5.5534   -7.7675   18.2815 H   0  0  0  0  0  0  0  0  0  0  0  0
    5.0983   -9.3634   17.7093 H   0  0  0  0  0  0  0  0  0  0  0  0
    4.0722   -6.7244   16.7146 H   0  0  0  0  0  0  0  0  0  0  0  0
    3.1731   -7.9743   17.5699 H   0  0  0  0  0  0  0  0  0  0  0  0
    1.5377   -7.9974   15.7272 H   0  0  0  0  0  0  0  0  0  0  0  0
    0.8974   -9.0063   13.6018 H   0  0  0  0  0  0  0  0  0  0  0  0
    6.6313   -8.5055   14.4010 H   0  0  0  0  0  0  0  0  0  0  0  0
    6.3374  -10.0052   15.3191 H   0  0  0  0  0  0  0  0  0  0  0  0
    5.4499  -11.9776   10.8288 H   0  0  0  0  0  0  0  0  0  0  0  0
    6.2398   -9.7575   10.0683 H   0  0  0  0  0  0  0  0  0  0  0  0
    4.8213   -9.6388    9.0308 H   0  0  0  0  0  0  0  0  0  0  0  0
    7.0580  -11.6226    8.8013 H   0  0  0  0  0  0  0  0  0  0  0  0
    6.6574  -10.3120    7.6861 H   0  0  0  0  0  0  0  0  0  0  0  0
    5.9375  -12.5444    6.8947 H   0  0  0  0  0  0  0  0  0  0  0  0
    4.6307  -11.3713    7.0659 H   0  0  0  0  0  0  0  0  0  0  0  0
    5.2938  -13.5906    8.9697 H   0  0  0  0  0  0  0  0  0  0  0  0
    3.8916  -13.4835    7.9132 H   0  0  0  0  0  0  0  0  0  0  0  0
    3.3560  -12.8663   10.2394 H   0  0  0  0  0  0  0  0  0  0  0  0
    3.0949  -11.5464    9.1087 H   0  0  0  0  0  0  0  0  0  0  0  0
    8.9890   -6.2460   19.1478 H   0  0  0  0  0  0  0  0  0  0  0  0
    9.2479   -5.9352   17.4480 H   0  0  0  0  0  0  0  0  0  0  0  0
    9.6945   -7.4800   18.1316 H   0  0  0  0  0  0  0  0  0  0  0  0
    0.9034  -10.7307   11.7620 H   0  0  0  0  0  0  0  0  0  0  0  0
    1.9144  -11.1665   10.3717 H   0  0  0  0  0  0  0  0  0  0  0  0
    1.3144   -8.3511   11.0437 H   0  0  0  0  0  0  0  0  0  0  0  0
    1.4095  -10.4282    7.9864 H   0  0  0  0  0  0  0  0  0  0  0  0
    4.4574   -6.6498    8.0660 H   0  0  0  0  0  0  0  0  0  0  0  0
    4.1565   -6.2318   11.8669 H   0  0  0  0  0  0  0  0  0  0  0  0
    4.9753   -6.3312   10.3265 H   0  0  0  0  0  0  0  0  0  0  0  0
    4.6836   -7.7817   11.2560 H   0  0  0  0  0  0  0  0  0  0  0  0
  1  2  2  0  0  0  0
  1  3  1  0  0  0  0
  3  4  1  0  0  0  0
  4  5  1  0  0  0  0
  4 40  1  0  0  0  0
  4 41  1  0  0  0  0
  5  6  1  0  0  0  0
  5 42  1  0  0  0  0
  5 43  1  0  0  0  0
  6  7  2  0  0  0  0
  7  8  1  0  0  0  0
  7 44  1  0  0  0  0
  8  9  2  0  0  0  0
  8 45  1  0  0  0  0
  9 10  1  0  0  0  0
 10 11  1  0  0  0  0
 10 14  2  0  0  0  0
 11 12  2  0  0  0  0
 12 16  1  0  0  0  0
 12 13  1  0  0  0  0
 13 24  1  0  0  0  0
 13  9  1  0  0  0  0
 14 15  1  0  0  0  0
 14  6  1  0  0  0  0
 15  3  1  0  0  0  0
 15 46  1  0  0  0  0
 15 47  1  0  0  0  0
 16 17  1  0  0  0  0
 16 48  1  0  0  0  0
 17 18  1  0  0  0  0
 17 49  1  0  0  0  0
 17 50  1  0  0  0  0
 18 19  1  0  0  0  0
 18 51  1  0  0  0  0
 18 52  1  0  0  0  0
 19 20  1  0  0  0  0
 19 53  1  0  0  0  0
 19 54  1  0  0  0  0
 20 21  1  0  0  0  0
 20 55  1  0  0  0  0
 20 56  1  0  0  0  0
 21 16  1  0  0  0  0
 21 57  1  0  0  0  0
 21 58  1  0  0  0  0
 22 23  1  0  0  0  0
 22 59  1  0  0  0  0
 22 60  1  0  0  0  0
 22 61  1  0  0  0  0
 23  1  1  0  0  0  0
 24 25  1  0  0  0  0
 24 62  1  0  0  0  0
 24 63  1  0  0  0  0
 25 36  1  0  0  0  0
 25 26  1  0  0  0  0
 25 64  1  1  0  0  0
 26 27  2  0  0  0  0
 27 28  1  0  0  0  0
 27 65  1  0  0  0  0
 28 29  1  0  0  0  0
 28 30  2  0  0  0  0
 30 31  1  0  0  0  0
 30 32  1  0  0  0  0
 32 33  2  0  0  0  0
 32 66  1  0  0  0  0
 33 34  1  0  0  0  0
 33 26  1  0  0  0  0
 34 35  1  0  0  0  0
 35 67  1  0  0  0  0
 35 68  1  0  0  0  0
 35 69  1  0  0  0  0
 36 37  2  0  0  0  0
 36 38  1  0  0  0  0
 38 39  1  0  0  0  0
M  END
>  <minimizedAffinity>
-8.03050

$$$$
