L2:Q92793:128208
     RDKit          3D

 69 73  0  0  0  0  0  0  0  0999 V2000
    8.8385   -0.6922    2.0403 C   0  0  0  0  0  0  0  0  0  0  0  0
    7.7204   -1.3477    1.4417 O   0  0  0  0  0  0  0  0  0  0  0  0
    6.6704   -0.5238    1.1703 C   0  0  0  0  0  0  0  0  0  0  0  0
    6.6781    0.6774    1.4134 O   0  0  0  0  0  0  0  0  0  0  0  0
    5.6085   -1.1907    0.5947 N   0  0  0  0  0  0  0  0  0  0  0  0
    5.6398   -2.5938    0.2025 C   0  0  0  0  0  0  0  0  0  0  0  0
    4.4280   -3.3345    0.7613 C   0  0  0  0  0  0  0  0  0  0  0  0
    3.1410   -2.6254    0.4145 C   0  0  0  0  0  0  0  0  0  0  0  0
    1.9389   -3.3447    0.3902 C   0  0  0  0  0  0  0  0  0  0  0  0
    0.7218   -2.7234    0.0956 C   0  0  0  0  0  0  0  0  0  0  0  0
    0.7465   -1.3483   -0.1658 C   0  0  0  0  0  0  0  0  0  0  0  0
    1.9233   -0.6146   -0.1386 C   0  0  0  0  0  0  0  0  0  0  0  0
    1.6751    0.6955   -0.4375 N   0  0  0  0  0  0  0  0  0  0  0  0
    0.3755    0.8096   -0.6518 C   0  0  0  0  0  0  0  0  0  0  0  0
   -0.2234    2.1592   -0.9806 C   0  0  0  0  0  0  0  0  0  0  0  0
   -0.5775    2.9475    0.2886 C   0  0  0  0  0  0  0  0  0  0  0  0
   -0.9938    4.3815   -0.0426 C   0  0  0  0  0  0  0  0  0  0  0  0
   -2.1058    4.4310   -1.0875 C   0  0  0  0  0  0  0  0  0  0  0  0
   -1.7434    3.6364   -2.3406 C   0  0  0  0  0  0  0  0  0  0  0  0
   -1.3708    2.1948   -1.9893 C   0  0  0  0  0  0  0  0  0  0  0  0
   -0.2360   -0.4233   -0.4814 N   0  0  0  0  0  0  0  0  0  0  0  0
   -1.6453   -0.7709   -0.6169 C   0  0  0  0  0  0  0  0  0  0  0  0
   -2.4678   -0.4490    0.6427 C   0  0  2  0  0  0  0  0  0  0  0  0
   -2.5047   -1.6362    1.5893 C   0  0  0  0  0  0  0  0  0  0  0  0
   -2.3969   -2.8192    1.3131 O   0  0  0  0  0  0  0  0  0  0  0  0
   -2.7054   -1.2599    2.8717 O   0  0  0  0  0  0  0  0  0  0  0  0
   -3.8825    0.0386    0.3319 C   0  0  0  0  0  0  0  0  0  0  0  0
   -4.3179    1.2497    0.9010 C   0  0  0  0  0  0  0  0  0  0  0  0
   -5.5982    1.7295    0.6458 C   0  0  0  0  0  0  0  0  0  0  0  0
   -5.9722    2.8921    1.1990 F   0  0  0  0  0  0  0  0  0  0  0  0
   -6.4675    1.0151   -0.1689 C   0  0  0  0  0  0  0  0  0  0  0  0
   -8.0509    1.6083   -0.4949 Cl  0  0  0  0  0  0  0  0  0  0  0  0
   -6.0604   -0.1961   -0.7313 C   0  0  0  0  0  0  0  0  0  0  0  0
   -4.7759   -0.6930   -0.4789 C   0  0  0  0  0  0  0  0  0  0  0  0
   -4.2919   -1.8667   -0.9874 O   0  0  0  0  0  0  0  0  0  0  0  0
   -5.2208   -2.7572   -1.5959 C   0  0  0  0  0  0  0  0  0  0  0  0
    3.1536   -1.2322    0.1662 C   0  0  0  0  0  0  0  0  0  0  0  0
    4.4290   -0.4268    0.2050 C   0  0  0  0  0  0  0  0  0  0  0  0
    9.6158   -1.4413    2.2147 H   0  0  0  0  0  0  0  0  0  0  0  0
    8.5576   -0.2556    3.0038 H   0  0  0  0  0  0  0  0  0  0  0  0
    9.2407    0.0725    1.3683 H   0  0  0  0  0  0  0  0  0  0  0  0
    5.6392   -2.6215   -0.8945 H   0  0  0  0  0  0  0  0  0  0  0  0
    6.5551   -3.0907    0.5359 H   0  0  0  0  0  0  0  0  0  0  0  0
    4.4191   -4.3550    0.3613 H   0  0  0  0  0  0  0  0  0  0  0  0
    4.4999   -3.3977    1.8541 H   0  0  0  0  0  0  0  0  0  0  0  0
    1.9401   -4.4127    0.6026 H   0  0  0  0  0  0  0  0  0  0  0  0
   -0.1950   -3.3034    0.0753 H   0  0  0  0  0  0  0  0  0  0  0  0
    0.6034    2.7093   -1.4589 H   0  0  0  0  0  0  0  0  0  0  0  0
    0.2785    2.9733    0.9745 H   0  0  0  0  0  0  0  0  0  0  0  0
   -1.3922    2.4560    0.8282 H   0  0  0  0  0  0  0  0  0  0  0  0
   -0.1223    4.9334   -0.4160 H   0  0  0  0  0  0  0  0  0  0  0  0
   -1.3235    4.8891    0.8709 H   0  0  0  0  0  0  0  0  0  0  0  0
   -3.0289    4.0264   -0.6544 H   0  0  0  0  0  0  0  0  0  0  0  0
   -2.3109    5.4728   -1.3582 H   0  0  0  0  0  0  0  0  0  0  0  0
   -0.9052    4.1206   -2.8562 H   0  0  0  0  0  0  0  0  0  0  0  0
   -2.5916    3.6387   -3.0345 H   0  0  0  0  0  0  0  0  0  0  0  0
   -1.1023    1.6490   -2.9010 H   0  0  0  0  0  0  0  0  0  0  0  0
   -2.2688    1.7304   -1.5753 H   0  0  0  0  0  0  0  0  0  0  0  0
   -1.6931   -1.8341   -0.8775 H   0  0  0  0  0  0  0  0  0  0  0  0
   -2.0101   -0.2615   -1.5095 H   0  0  0  0  0  0  0  0  0  0  0  0
   -1.9426    0.3436    1.1900 H   0  0  0  0  0  0  0  0  0  0  0  0
   -2.7129   -2.1024    3.3737 H   0  0  0  0  0  0  0  0  0  0  0  0
   -3.6714    1.8323    1.5529 H   0  0  0  0  0  0  0  0  0  0  0  0
   -6.7602   -0.7293   -1.3666 H   0  0  0  0  0  0  0  0  0  0  0  0
   -4.6895   -3.6850   -1.8286 H   0  0  0  0  0  0  0  0  0  0  0  0
   -5.5975   -2.3438   -2.5368 H   0  0  0  0  0  0  0  0  0  0  0  0
   -6.0413   -3.0040   -0.9139 H   0  0  0  0  0  0  0  0  0  0  0  0
    4.6287   -0.0299   -0.7978 H   0  0  0  0  0  0  0  0  0  0  0  0
    4.3018    0.4241    0.8842 H   0  0  0  0  0  0  0  0  0  0  0  0
  1  2  1  0
  2  3  1  0
  3  4  2  0
  3  5  1  0
  5  6  1  0
  6  7  1  0
  7  8  1  0
  8  9  2  0
  9 10  1  0
 10 11  2  0
 11 12  1  0
 12 13  1  0
 13 14  2  0
 14 15  1  0
 15 16  1  0
 16 17  1  0
 17 18  1  0
 18 19  1  0
 19 20  1  0
 14 21  1  0
 21 22  1  0
 22 23  1  0
 23 24  1  0
 24 25  2  0
 24 26  1  0
 23 27  1  0
 27 28  2  0
 28 29  1  0
 29 30  1  0
 29 31  2  0
 31 32  1  0
 31 33  1  0
 33 34  2  0
 34 35  1  0
 35 36  1  0
 12 37  2  0
 37 38  1  0
 38  5  1  0
 37  8  1  0
 21 11  1  0
 34 27  1  0
 20 15  1  0
  1 39  1  0
  1 40  1  0
  1 41  1  0
  6 42  1  0
  6 43  1  0
  7 44  1  0
  7 45  1  0
  9 46  1  0
 10 47  1  0
 15 48  1  0
 16 49  1  0
 16 50  1  0
 17 51  1  0
 17 52  1  0
 18 53  1  0
 18 54  1  0
 19 55  1  0
 19 56  1  0
 20 57  1  0
 20 58  1  0
 22 59  1  0
 22 60  1  0
 23 61  1  1
 26 62  1  0
 28 63  1  0
 33 64  1  0
 36 65  1  0
 36 66  1  0
 36 67  1  0
 38 68  1  0
 38 69  1  0
M  END
>  <mol_id>  (1) 
128208

>  <source_index>  (1) 
9

>  <layer>  (1) 
L2

>  <uniprot>  (1) 
Q92793

>  <paff>  (1) 
8.2596000000000007

>  <smiles>  (1) 
COC(=O)N1CCc2ccc3c(nc(C4CCCCC4)n3C[C@H](C(=O)O)c3cc(F)c(Cl)cc3OC)c2C1

$$$$
