L2:Q92793:30981
     RDKit          3D

 65 69  0  0  0  0  0  0  0  0999 V2000
    8.6725   -2.0228    0.0997 C   0  0  0  0  0  0  0  0  0  0  0  0
    7.6336   -1.2238   -0.4664 O   0  0  0  0  0  0  0  0  0  0  0  0
    6.3802   -1.5697   -0.0614 C   0  0  0  0  0  0  0  0  0  0  0  0
    6.1546   -2.4883    0.7179 O   0  0  0  0  0  0  0  0  0  0  0  0
    5.4027   -0.7757   -0.6256 N   0  0  0  0  0  0  0  0  0  0  0  0
    5.6589    0.2392   -1.6394 C   0  0  0  0  0  0  0  0  0  0  0  0
    5.0040    1.5624   -1.2530 C   0  0  0  0  0  0  0  0  0  0  0  0
    3.5423    1.3775   -0.9231 C   0  0  0  0  0  0  0  0  0  0  0  0
    2.6664    2.4654   -1.0237 C   0  0  0  0  0  0  0  0  0  0  0  0
    1.3102    2.3441   -0.7059 C   0  0  0  0  0  0  0  0  0  0  0  0
    0.8548    1.0918   -0.2749 C   0  0  0  0  0  0  0  0  0  0  0  0
    1.7111    0.0038   -0.1525 C   0  0  0  0  0  0  0  0  0  0  0  0
    1.0300   -1.0978    0.2852 N   0  0  0  0  0  0  0  0  0  0  0  0
   -0.2258   -0.7310    0.4521 C   0  0  0  0  0  0  0  0  0  0  0  0
   -1.2775   -1.7009    0.9338 C   0  0  1  0  0  0  0  0  0  0  0  0
   -1.9093   -1.3391    2.2886 C   0  0  0  0  0  0  0  0  0  0  0  0
   -3.4352   -1.2384    2.2697 C   0  0  0  0  0  0  0  0  0  0  0  0
   -4.1399   -2.4027    1.5612 C   0  0  1  0  0  0  0  0  0  0  0  0
   -5.4667   -1.9030    1.0315 C   0  0  0  0  0  0  0  0  0  0  0  0
   -5.6515   -1.3352   -0.0325 O   0  0  0  0  0  0  0  0  0  0  0  0
   -6.4801   -2.1037    1.8929 O   0  0  0  0  0  0  0  0  0  0  0  0
   -3.3311   -3.0324    0.4174 C   0  0  0  0  0  0  0  0  0  0  0  0
   -2.2894   -2.0744   -0.1528 C   0  0  0  0  0  0  0  0  0  0  0  0
   -0.3833    0.6044    0.1127 N   0  0  0  0  0  0  0  0  0  0  0  0
   -1.6263    1.3775    0.1418 C   0  0  1  0  0  0  0  0  0  0  0  0
   -1.5638    2.5127    1.1693 C   0  0  0  0  0  0  0  0  0  0  0  0
   -2.0420    1.8222   -1.2665 C   0  0  0  0  0  0  0  0  0  0  0  0
   -3.4024    2.3271   -1.3121 N   0  0  0  0  0  0  0  0  0  0  0  0
   -4.5387    1.6040   -1.5264 C   0  0  0  0  0  0  0  0  0  0  0  0
   -5.5721    2.5062   -1.4731 C   0  0  0  0  0  0  0  0  0  0  0  0
   -7.2270    2.2165   -1.6539 Cl  0  0  0  0  0  0  0  0  0  0  0  0
   -4.9587    3.7472   -1.2310 C   0  0  0  0  0  0  0  0  0  0  0  0
   -3.6285    3.6433   -1.1296 N   0  0  0  0  0  0  0  0  0  0  0  0
    3.0815    0.1214   -0.4640 C   0  0  0  0  0  0  0  0  0  0  0  0
    4.0062   -1.0627   -0.3199 C   0  0  0  0  0  0  0  0  0  0  0  0
    8.5557   -3.0704   -0.1954 H   0  0  0  0  0  0  0  0  0  0  0  0
    8.6831   -1.9238    1.1897 H   0  0  0  0  0  0  0  0  0  0  0  0
    9.6280   -1.6597   -0.2888 H   0  0  0  0  0  0  0  0  0  0  0  0
    5.2447   -0.1374   -2.5833 H   0  0  0  0  0  0  0  0  0  0  0  0
    6.7294    0.3963   -1.7983 H   0  0  0  0  0  0  0  0  0  0  0  0
    5.1197    2.2718   -2.0806 H   0  0  0  0  0  0  0  0  0  0  0  0
    5.5031    1.9831   -0.3715 H   0  0  0  0  0  0  0  0  0  0  0  0
    3.0403    3.4335   -1.3542 H   0  0  0  0  0  0  0  0  0  0  0  0
    0.6588    3.2062   -0.7928 H   0  0  0  0  0  0  0  0  0  0  0  0
   -0.7146   -2.6284    1.1305 H   0  0  0  0  0  0  0  0  0  0  0  0
   -1.4898   -0.4120    2.6972 H   0  0  0  0  0  0  0  0  0  0  0  0
   -1.6390   -2.1220    3.0107 H   0  0  0  0  0  0  0  0  0  0  0  0
   -3.8019   -1.1740    3.3025 H   0  0  0  0  0  0  0  0  0  0  0  0
   -3.7272   -0.2870    1.8107 H   0  0  0  0  0  0  0  0  0  0  0  0
   -4.3525   -3.2012    2.2842 H   0  0  0  0  0  0  0  0  0  0  0  0
   -7.2640   -1.7240    1.4422 H   0  0  0  0  0  0  0  0  0  0  0  0
   -2.8136   -3.9221    0.8001 H   0  0  0  0  0  0  0  0  0  0  0  0
   -3.9858   -3.3870   -0.3878 H   0  0  0  0  0  0  0  0  0  0  0  0
   -1.7701   -2.5571   -0.9904 H   0  0  0  0  0  0  0  0  0  0  0  0
   -2.7874   -1.1940   -0.5709 H   0  0  0  0  0  0  0  0  0  0  0  0
   -2.3960    0.6971    0.5013 H   0  0  0  0  0  0  0  0  0  0  0  0
   -1.1458    2.1603    2.1189 H   0  0  0  0  0  0  0  0  0  0  0  0
   -0.9503    3.3498    0.8252 H   0  0  0  0  0  0  0  0  0  0  0  0
   -2.5649    2.9027    1.3801 H   0  0  0  0  0  0  0  0  0  0  0  0
   -1.9934    0.9817   -1.9702 H   0  0  0  0  0  0  0  0  0  0  0  0
   -1.3937    2.6097   -1.6646 H   0  0  0  0  0  0  0  0  0  0  0  0
   -4.5267    0.5351   -1.6894 H   0  0  0  0  0  0  0  0  0  0  0  0
   -5.4215    4.7193   -1.1228 H   0  0  0  0  0  0  0  0  0  0  0  0
    3.6872   -1.8485   -1.0157 H   0  0  0  0  0  0  0  0  0  0  0  0
    3.9287   -1.4630    0.6976 H   0  0  0  0  0  0  0  0  0  0  0  0
  1  2  1  0
  2  3  1  0
  3  4  2  0
  3  5  1  0
  5  6  1  0
  6  7  1  0
  7  8  1  0
  8  9  2  0
  9 10  1  0
 10 11  2  0
 11 12  1  0
 12 13  1  0
 13 14  2  0
 14 15  1  0
 15 16  1  0
 16 17  1  0
 17 18  1  0
 18 19  1  0
 19 20  2  0
 19 21  1  0
 18 22  1  0
 22 23  1  0
 14 24  1  0
 24 25  1  0
 25 26  1  0
 25 27  1  0
 27 28  1  0
 28 29  1  0
 29 30  2  0
 30 31  1  0
 30 32  1  0
 32 33  2  0
 12 34  2  0
 34 35  1  0
 35  5  1  0
 34  8  1  0
 24 11  1  0
 33 28  1  0
 23 15  1  0
  1 36  1  0
  1 37  1  0
  1 38  1  0
  6 39  1  0
  6 40  1  0
  7 41  1  0
  7 42  1  0
  9 43  1  0
 10 44  1  0
 15 45  1  1
 16 46  1  0
 16 47  1  0
 17 48  1  0
 17 49  1  0
 18 50  1  1
 21 51  1  0
 22 52  1  0
 22 53  1  0
 23 54  1  0
 23 55  1  0
 25 56  1  1
 26 57  1  0
 26 58  1  0
 26 59  1  0
 27 60  1  0
 27 61  1  0
 29 62  1  0
 32 63  1  0
 35 64  1  0
 35 65  1  0
M  END
>  <mol_id>  (1) 
30981

>  <source_index>  (1) 
1

>  <layer>  (1) 
L2

>  <uniprot>  (1) 
Q92793

>  <paff>  (1) 
7.2595999999999998

>  <smiles>  (1) 
COC(=O)N1CCc2ccc3c(nc([C@H]4CC[C@@H](C(=O)O)CC4)n3[C@@H](C)Cn3cc(Cl)cn3)c2C1

$$$$
