L2:Q92793:30981
 OpenBabel09212617503D

 65 69  0  0  0  0  0  0  0  0999 V2000
    8.1655   -7.2282   17.0575 C   0  0  0  0  0  0  0  0  0  0  0  0
    7.8138   -6.1262   17.4626 O   0  0  0  0  0  0  0  0  0  0  0  0
    7.2994   -8.1877   16.5743 N   0  0  0  0  0  0  0  0  0  0  0  0
    7.7015   -9.5378   16.2016 C   0  0  0  0  0  0  0  0  0  0  0  0
    7.1687   -9.8944   14.8166 C   0  0  0  0  0  0  0  0  0  0  0  0
    5.6828   -9.6455   14.7176 C   0  0  0  0  0  0  0  0  0  0  0  0
    4.9276  -10.3330   13.7596 C   0  0  0  0  0  0  0  0  0  0  0  0
    3.5536  -10.1160   13.6182 C   0  0  0  0  0  0  0  0  0  0  0  0
    2.9546   -9.1776   14.4679 C   0  0  0  0  0  0  0  0  0  0  0  0
    3.6894   -8.4726   15.4140 C   0  0  0  0  0  0  0  0  0  0  0  0
    2.8813   -7.6205   16.1138 N   0  0  0  0  0  0  0  0  0  0  0  0
    1.6633   -7.7611   15.6277 C   0  0  0  0  0  0  0  0  0  0  0  0
    1.6576   -8.7133   14.6193 N   0  0  0  0  0  0  0  0  0  0  0  0
    5.0769   -8.6811   15.5565 C   0  0  0  0  0  0  0  0  0  0  0  0
    5.8690   -7.9051   16.5803 C   0  0  0  0  0  0  0  0  0  0  0  0
    0.4983   -6.9664   16.1661 C   0  0  1  0  0  0  0  0  0  0  0  0
    0.5656   -6.6742   17.6747 C   0  0  0  0  0  0  0  0  0  0  0  0
    0.4587   -5.1926   18.0387 C   0  0  0  0  0  0  0  0  0  0  0  0
   -0.6729   -4.4429   17.3235 C   0  0  2  0  0  0  0  0  0  0  0  0
   -1.0097   -4.9852   15.9266 C   0  0  0  0  0  0  0  0  0  0  0  0
    0.1554   -5.7486   15.3039 C   0  0  0  0  0  0  0  0  0  0  0  0
   -0.2861   -2.9831   17.2233 C   0  0  0  0  0  0  0  0  0  0  0  0
   -0.1835   -2.3324   16.1963 O   0  0  0  0  0  0  0  0  0  0  0  0
   -0.0035   -2.4360   18.4192 O   0  0  0  0  0  0  0  0  0  0  0  0
    0.2456   -1.5102   18.2127 H   0  0  0  0  0  0  0  0  0  0  0  0
   10.2218   -7.2331   18.1789 C   0  0  0  0  0  0  0  0  0  0  0  0
    9.4640   -7.6383   17.0388 O   0  0  0  0  0  0  0  0  0  0  0  0
    0.4998   -9.1684   13.8474 C   0  0  1  0  0  0  0  0  0  0  0  0
   -0.6606   -9.5840   14.7579 C   0  0  0  0  0  0  0  0  0  0  0  0
    0.1184   -8.1550   12.7604 C   0  0  0  0  0  0  0  0  0  0  0  0
    1.2559   -7.7468   11.9559 N   0  0  0  0  0  0  0  0  0  0  0  0
    1.7938   -8.4168   10.8967 C   0  0  0  0  0  0  0  0  0  0  0  0
    2.8396   -7.6437   10.4569 C   0  0  0  0  0  0  0  0  0  0  0  0
    3.8894   -7.9368    9.1657 Cl  0  0  0  0  0  0  0  0  0  0  0  0
    2.8583   -6.5338   11.3186 C   0  0  0  0  0  0  0  0  0  0  0  0
    1.8884   -6.5907   12.2387 N   0  0  0  0  0  0  0  0  0  0  0  0
    7.3117  -10.2310   16.9174 H   0  0  0  0  0  0  0  0  0  0  0  0
    8.7702   -9.5865   16.1829 H   0  0  0  0  0  0  0  0  0  0  0  0
    7.3620  -10.9292   14.6250 H   0  0  0  0  0  0  0  0  0  0  0  0
    7.6626   -9.2764   14.0962 H   0  0  0  0  0  0  0  0  0  0  0  0
    5.3960  -11.0157   13.1436 H   0  0  0  0  0  0  0  0  0  0  0  0
    3.0010  -10.6287   12.9134 H   0  0  0  0  0  0  0  0  0  0  0  0
    5.4850   -8.1419   17.5505 H   0  0  0  0  0  0  0  0  0  0  0  0
    5.7607   -6.8703   16.3306 H   0  0  0  0  0  0  0  0  0  0  0  0
   -0.3443   -7.6201   16.0792 H   0  0  0  0  0  0  0  0  0  0  0  0
    1.4992   -7.0429   18.0453 H   0  0  0  0  0  0  0  0  0  0  0  0
   -0.2802   -7.1581   18.1166 H   0  0  0  0  0  0  0  0  0  0  0  0
    1.3847   -4.7189   17.7876 H   0  0  0  0  0  0  0  0  0  0  0  0
    0.2383   -5.1509   19.0849 H   0  0  0  0  0  0  0  0  0  0  0  0
   -1.5588   -4.5835   17.9069 H   0  0  0  0  0  0  0  0  0  0  0  0
   -1.2614   -4.1628   15.2900 H   0  0  0  0  0  0  0  0  0  0  0  0
   -1.8289   -5.6659   16.0291 H   0  0  0  0  0  0  0  0  0  0  0  0
    1.0085   -5.1058   15.2420 H   0  0  0  0  0  0  0  0  0  0  0  0
   -0.1211   -6.0766   14.3237 H   0  0  0  0  0  0  0  0  0  0  0  0
   11.2251   -7.5935   18.0868 H   0  0  0  0  0  0  0  0  0  0  0  0
    9.7776   -7.6373   19.0645 H   0  0  0  0  0  0  0  0  0  0  0  0
   10.2307   -6.1649   18.2400 H   0  0  0  0  0  0  0  0  0  0  0  0
    0.7734  -10.0594   13.3219 H   0  0  0  0  0  0  0  0  0  0  0  0
   -0.9925   -8.7373   15.3217 H   0  0  0  0  0  0  0  0  0  0  0  0
   -0.3317  -10.3514   15.4271 H   0  0  0  0  0  0  0  0  0  0  0  0
   -1.4679   -9.9535   14.1607 H   0  0  0  0  0  0  0  0  0  0  0  0
   -0.2980   -7.2885   13.2302 H   0  0  0  0  0  0  0  0  0  0  0  0
   -0.5871   -8.6274   12.1092 H   0  0  0  0  0  0  0  0  0  0  0  0
    1.4795   -9.3189   10.5063 H   0  0  0  0  0  0  0  0  0  0  0  0
    3.5415   -5.7634   11.2497 H   0  0  0  0  0  0  0  0  0  0  0  0
  1  2  2  0  0  0  0
  1  3  1  0  0  0  0
  3  4  1  0  0  0  0
  4  5  1  0  0  0  0
  4 37  1  0  0  0  0
  4 38  1  0  0  0  0
  5  6  1  0  0  0  0
  5 39  1  0  0  0  0
  5 40  1  0  0  0  0
  6  7  2  0  0  0  0
  7  8  1  0  0  0  0
  7 41  1  0  0  0  0
  8  9  2  0  0  0  0
  8 42  1  0  0  0  0
  9 10  1  0  0  0  0
 10 11  1  0  0  0  0
 10 14  2  0  0  0  0
 11 12  2  0  0  0  0
 12 16  1  0  0  0  0
 12 13  1  0  0  0  0
 13 28  1  0  0  0  0
 13  9  1  0  0  0  0
 14 15  1  0  0  0  0
 14  6  1  0  0  0  0
 15  3  1  0  0  0  0
 15 43  1  0  0  0  0
 15 44  1  0  0  0  0
 16 17  1  0  0  0  0
 16 45  1  6  0  0  0
 17 18  1  0  0  0  0
 17 46  1  0  0  0  0
 17 47  1  0  0  0  0
 18 19  1  0  0  0  0
 18 48  1  0  0  0  0
 18 49  1  0  0  0  0
 19 22  1  0  0  0  0
 19 20  1  0  0  0  0
 19 50  1  1  0  0  0
 20 21  1  0  0  0  0
 20 51  1  0  0  0  0
 20 52  1  0  0  0  0
 21 16  1  0  0  0  0
 21 53  1  0  0  0  0
 21 54  1  0  0  0  0
 22 23  2  0  0  0  0
 22 24  1  0  0  0  0
 24 25  1  0  0  0  0
 26 27  1  0  0  0  0
 26 55  1  0  0  0  0
 26 56  1  0  0  0  0
 26 57  1  0  0  0  0
 27  1  1  0  0  0  0
 28 29  1  0  0  0  0
 28 30  1  0  0  0  0
 28 58  1  6  0  0  0
 29 59  1  0  0  0  0
 29 60  1  0  0  0  0
 29 61  1  0  0  0  0
 30 31  1  0  0  0  0
 30 62  1  0  0  0  0
 30 63  1  0  0  0  0
 31 32  1  0  0  0  0
 32 33  2  0  0  0  0
 32 64  1  0  0  0  0
 33 34  1  0  0  0  0
 33 35  1  0  0  0  0
 35 36  2  0  0  0  0
 35 65  1  0  0  0  0
 36 31  1  0  0  0  0
M  END
>  <minimizedAffinity>
-7.95693

$$$$
