L2:Q92793:46473
     RDKit          3D

 68 73  0  0  0  0  0  0  0  0999 V2000
   -0.8436   -4.7394   -3.5447 C   0  0  0  0  0  0  0  0  0  0  0  0
   -0.9957   -3.4919   -2.8484 N   0  0  0  0  0  0  0  0  0  0  0  0
   -2.1674   -3.1268   -2.2219 C   0  0  0  0  0  0  0  0  0  0  0  0
   -3.1851   -3.8090   -2.2082 O   0  0  0  0  0  0  0  0  0  0  0  0
   -2.1044   -1.8000   -1.5284 C   0  0  0  0  0  0  0  0  0  0  0  0
   -3.2120   -1.3212   -0.8509 C   0  0  0  0  0  0  0  0  0  0  0  0
   -3.1108   -0.0935   -0.1962 C   0  0  0  0  0  0  0  0  0  0  0  0
   -4.2044    0.4272    0.5208 C   0  0  0  0  0  0  0  0  0  0  0  0
   -4.1174    1.6488    1.1995 C   0  0  0  0  0  0  0  0  0  0  0  0
   -5.2639    2.1807    1.9548 C   0  0  0  0  0  0  0  0  0  0  0  0
   -5.7475    3.4121    1.7083 C   0  0  0  0  0  0  0  0  0  0  0  0
   -6.9024    3.9985    2.4671 C   0  0  0  0  0  0  0  0  0  0  0  0
   -7.2167    3.2538    3.6469 O   0  0  0  0  0  0  0  0  0  0  0  0
   -7.2936    1.8526    3.3833 C   0  0  0  0  0  0  0  0  0  0  0  0
   -5.9146    1.3113    3.0017 C   0  0  0  0  0  0  0  0  0  0  0  0
   -2.9105    2.3512    1.1606 C   0  0  0  0  0  0  0  0  0  0  0  0
   -1.8170    1.8462    0.4511 C   0  0  0  0  0  0  0  0  0  0  0  0
   -1.8945    0.6228   -0.2523 C   0  0  0  0  0  0  0  0  0  0  0  0
   -0.8224    0.0565   -0.9954 C   0  0  0  0  0  0  0  0  0  0  0  0
    0.4044    0.7530   -1.1235 N   0  0  0  0  0  0  0  0  0  0  0  0
    0.3448    1.7613   -2.1914 C   0  0  0  0  0  0  0  0  0  0  0  0
    1.4411    2.7992   -2.0031 C   0  0  0  0  0  0  0  0  0  0  0  0
    2.7983    2.1212   -2.0947 C   0  0  0  0  0  0  0  0  0  0  0  0
    2.8574    0.8894   -1.2293 C   0  0  0  0  0  0  0  0  0  0  0  0
    4.1168    0.3611   -0.8974 C   0  0  0  0  0  0  0  0  0  0  0  0
    4.2432   -0.7934   -0.1105 C   0  0  0  0  0  0  0  0  0  0  0  0
    5.5762   -1.2859    0.1724 C   0  0  0  0  0  0  0  0  0  0  0  0
    6.2058   -2.5094   -0.1444 C   0  0  0  0  0  0  0  0  0  0  0  0
    7.4723   -2.5577    0.2801 N   0  0  0  0  0  0  0  0  0  0  0  0
    7.6440   -1.3729    0.8936 N   0  0  0  0  0  0  0  0  0  0  0  0
    8.9105   -1.0744    1.5156 C   0  0  0  0  0  0  0  0  0  0  0  0
    6.5452   -0.5655    0.8382 C   0  0  0  0  0  0  0  0  0  0  0  0
    3.0859   -1.4283    0.3625 C   0  0  0  0  0  0  0  0  0  0  0  0
    3.1311   -2.6609    1.2288 C   0  0  0  0  0  0  0  0  0  0  0  0
    3.5386   -3.7679    0.5468 F   0  0  0  0  0  0  0  0  0  0  0  0
    3.9611   -2.5423    2.3022 F   0  0  0  0  0  0  0  0  0  0  0  0
    1.8266   -0.8975    0.0071 C   0  0  0  0  0  0  0  0  0  0  0  0
    1.6835    0.2450   -0.8006 C   0  0  0  0  0  0  0  0  0  0  0  0
   -0.9198   -1.1435   -1.6132 N   0  0  0  0  0  0  0  0  0  0  0  0
   -0.6195   -5.5208   -2.8140 H   0  0  0  0  0  0  0  0  0  0  0  0
   -0.0157   -4.6462   -4.2511 H   0  0  0  0  0  0  0  0  0  0  0  0
   -1.7639   -4.9921   -4.0778 H   0  0  0  0  0  0  0  0  0  0  0  0
   -0.2150   -2.8441   -2.7644 H   0  0  0  0  0  0  0  0  0  0  0  0
   -4.1277   -1.9050   -0.8289 H   0  0  0  0  0  0  0  0  0  0  0  0
   -5.1418   -0.1266    0.5388 H   0  0  0  0  0  0  0  0  0  0  0  0
   -5.3162    4.0389    0.9328 H   0  0  0  0  0  0  0  0  0  0  0  0
   -6.6547    5.0165    2.7834 H   0  0  0  0  0  0  0  0  0  0  0  0
   -7.7897    4.0514    1.8267 H   0  0  0  0  0  0  0  0  0  0  0  0
   -8.0340    1.6655    2.5953 H   0  0  0  0  0  0  0  0  0  0  0  0
   -7.6480    1.3565    4.2927 H   0  0  0  0  0  0  0  0  0  0  0  0
   -6.0260    0.2741    2.6699 H   0  0  0  0  0  0  0  0  0  0  0  0
   -5.2677    1.3090    3.8880 H   0  0  0  0  0  0  0  0  0  0  0  0
   -2.8032    3.2916    1.6976 H   0  0  0  0  0  0  0  0  0  0  0  0
   -0.8873    2.4123    0.4628 H   0  0  0  0  0  0  0  0  0  0  0  0
   -0.6192    2.2857   -2.1949 H   0  0  0  0  0  0  0  0  0  0  0  0
    0.4443    1.2742   -3.1712 H   0  0  0  0  0  0  0  0  0  0  0  0
    1.3628    3.5807   -2.7669 H   0  0  0  0  0  0  0  0  0  0  0  0
    1.3290    3.2854   -1.0254 H   0  0  0  0  0  0  0  0  0  0  0  0
    2.9989    1.8265   -3.1322 H   0  0  0  0  0  0  0  0  0  0  0  0
    3.5741    2.8346   -1.7928 H   0  0  0  0  0  0  0  0  0  0  0  0
    5.0137    0.8554   -1.2696 H   0  0  0  0  0  0  0  0  0  0  0  0
    5.7966   -3.3620   -0.6715 H   0  0  0  0  0  0  0  0  0  0  0  0
    9.6882   -1.1091    0.7486 H   0  0  0  0  0  0  0  0  0  0  0  0
    9.0992   -1.8224    2.2897 H   0  0  0  0  0  0  0  0  0  0  0  0
    8.8709   -0.0777    1.9620 H   0  0  0  0  0  0  0  0  0  0  0  0
    6.5385    0.4212    1.2793 H   0  0  0  0  0  0  0  0  0  0  0  0
    2.1395   -2.8869    1.6329 H   0  0  0  0  0  0  0  0  0  0  0  0
    0.9309   -1.3970    0.3734 H   0  0  0  0  0  0  0  0  0  0  0  0
  1  2  1  0
  2  3  1  0
  3  4  2  0
  3  5  1  0
  5  6  2  0
  6  7  1  0
  7  8  2  0
  8  9  1  0
  9 10  1  0
 10 11  2  0
 11 12  1  0
 12 13  1  0
 13 14  1  0
 14 15  1  0
  9 16  2  0
 16 17  1  0
 17 18  2  0
 18 19  1  0
 19 20  1  0
 20 21  1  0
 21 22  1  0
 22 23  1  0
 23 24  1  0
 24 25  2  0
 25 26  1  0
 26 27  1  0
 27 28  1  0
 28 29  2  0
 29 30  1  0
 30 31  1  0
 30 32  1  0
 26 33  2  0
 33 34  1  0
 34 35  1  0
 34 36  1  0
 33 37  1  0
 37 38  2  0
 19 39  2  0
 39  5  1  0
 18  7  1  0
 38 20  1  0
 15 10  1  0
 38 24  1  0
 32 27  2  0
  1 40  1  0
  1 41  1  0
  1 42  1  0
  2 43  1  0
  6 44  1  0
  8 45  1  0
 11 46  1  0
 12 47  1  0
 12 48  1  0
 14 49  1  0
 14 50  1  0
 15 51  1  0
 15 52  1  0
 16 53  1  0
 17 54  1  0
 21 55  1  0
 21 56  1  0
 22 57  1  0
 22 58  1  0
 23 59  1  0
 23 60  1  0
 25 61  1  0
 28 62  1  0
 31 63  1  0
 31 64  1  0
 31 65  1  0
 32 66  1  0
 34 67  1  0
 37 68  1  0
M  END
>  <mol_id>  (1) 
46473

>  <source_index>  (1) 
2

>  <layer>  (1) 
L2

>  <uniprot>  (1) 
Q92793

>  <paff>  (1) 
7.7446999999999999

>  <smiles>  (1) 
CNC(=O)c6cc2cc(C1=CCOCC1)ccc2c(N5CCCc4cc(c3cnn(C)c3)c(C(F)F)cc45)n6

$$$$
