L2:Q92793:56089
     RDKit          3D

 71 75  0  0  0  0  0  0  0  0999 V2000
    7.0279   -3.3924   -3.2240 C   0  0  0  0  0  0  0  0  0  0  0  0
    6.5889   -2.3551   -2.3469 O   0  0  0  0  0  0  0  0  0  0  0  0
    5.2777   -2.4444   -1.9897 C   0  0  0  0  0  0  0  0  0  0  0  0
    4.5334   -3.3358   -2.3814 O   0  0  0  0  0  0  0  0  0  0  0  0
    4.8886   -1.4262   -1.1438 N   0  0  0  0  0  0  0  0  0  0  0  0
    5.7968   -0.4306   -0.5900 C   0  0  0  0  0  0  0  0  0  0  0  0
    5.2527    0.9772   -0.8176 C   0  0  0  0  0  0  0  0  0  0  0  0
    3.8274    1.1026   -0.3348 C   0  0  0  0  0  0  0  0  0  0  0  0
    3.3169    2.3638   -0.0027 C   0  0  0  0  0  0  0  0  0  0  0  0
    1.9960    2.5286    0.4253 C   0  0  0  0  0  0  0  0  0  0  0  0
    1.1932    1.3843    0.5053 C   0  0  0  0  0  0  0  0  0  0  0  0
    1.6784    0.1234    0.1739 C   0  0  0  0  0  0  0  0  0  0  0  0
    0.7120   -0.8292    0.3476 N   0  0  0  0  0  0  0  0  0  0  0  0
   -0.3573   -0.2018    0.7938 C   0  0  0  0  0  0  0  0  0  0  0  0
   -1.6562   -0.8893    1.1404 C   0  0  1  0  0  0  0  0  0  0  0  0
   -2.5700   -0.9211   -0.0990 C   0  0  0  0  0  0  0  0  0  0  0  0
   -3.5767   -2.0656   -0.0384 C   0  0  0  0  0  0  0  0  0  0  0  0
   -2.8923   -3.4539   -0.0129 C   0  0  2  0  0  0  0  0  0  0  0  0
   -2.7180   -4.0073   -1.4393 C   0  0  0  0  0  0  0  0  0  0  0  0
   -3.7944   -4.4029    0.7756 C   0  0  0  0  0  0  0  0  0  0  0  0
   -3.5855   -4.8676    1.8842 O   0  0  0  0  0  0  0  0  0  0  0  0
   -4.9558   -4.6805    0.1486 O   0  0  0  0  0  0  0  0  0  0  0  0
   -1.4917   -3.3880    0.6517 C   0  0  0  0  0  0  0  0  0  0  0  0
   -1.4142   -2.2989    1.7224 C   0  0  0  0  0  0  0  0  0  0  0  0
   -0.1252    1.1631    0.8641 N   0  0  0  0  0  0  0  0  0  0  0  0
   -1.1089    2.1892    1.2265 C   0  0  1  0  0  0  0  0  0  0  0  0
   -0.7483    2.8620    2.5545 C   0  0  0  0  0  0  0  0  0  0  0  0
   -1.3477    3.1846    0.0713 C   0  0  0  0  0  0  0  0  0  0  0  0
   -2.6153    3.9915    0.2345 C   0  0  0  0  0  0  0  0  0  0  0  0
   -3.8565    3.4400   -0.1123 C   0  0  0  0  0  0  0  0  0  0  0  0
   -5.0294    4.1777    0.0539 C   0  0  0  0  0  0  0  0  0  0  0  0
   -4.9734    5.4717    0.5674 C   0  0  0  0  0  0  0  0  0  0  0  0
   -3.7446    6.0305    0.9130 C   0  0  0  0  0  0  0  0  0  0  0  0
   -2.5701    5.2949    0.7473 C   0  0  0  0  0  0  0  0  0  0  0  0
    3.0059   -0.0474   -0.2701 C   0  0  0  0  0  0  0  0  0  0  0  0
    3.5204   -1.4172   -0.6396 C   0  0  0  0  0  0  0  0  0  0  0  0
    6.4699   -3.3619   -4.1652 H   0  0  0  0  0  0  0  0  0  0  0  0
    8.0855   -3.2234   -3.4447 H   0  0  0  0  0  0  0  0  0  0  0  0
    6.9277   -4.3705   -2.7430 H   0  0  0  0  0  0  0  0  0  0  0  0
    6.7991   -0.5072   -1.0208 H   0  0  0  0  0  0  0  0  0  0  0  0
    5.8901   -0.6413    0.4830 H   0  0  0  0  0  0  0  0  0  0  0  0
    5.8950    1.6958   -0.2955 H   0  0  0  0  0  0  0  0  0  0  0  0
    5.2732    1.2169   -1.8878 H   0  0  0  0  0  0  0  0  0  0  0  0
    3.9554    3.2430   -0.0759 H   0  0  0  0  0  0  0  0  0  0  0  0
    1.6308    3.5156    0.6826 H   0  0  0  0  0  0  0  0  0  0  0  0
   -2.1531   -0.3272    1.9400 H   0  0  0  0  0  0  0  0  0  0  0  0
   -3.1044    0.0328   -0.1823 H   0  0  0  0  0  0  0  0  0  0  0  0
   -1.9796   -1.0156   -1.0202 H   0  0  0  0  0  0  0  0  0  0  0  0
   -4.2017   -1.9287    0.8548 H   0  0  0  0  0  0  0  0  0  0  0  0
   -4.2613   -1.9930   -0.8928 H   0  0  0  0  0  0  0  0  0  0  0  0
   -3.6736   -4.0736   -1.9715 H   0  0  0  0  0  0  0  0  0  0  0  0
   -2.0571   -3.3690   -2.0361 H   0  0  0  0  0  0  0  0  0  0  0  0
   -2.2878   -5.0154   -1.4184 H   0  0  0  0  0  0  0  0  0  0  0  0
   -5.4191   -5.2791    0.7714 H   0  0  0  0  0  0  0  0  0  0  0  0
   -0.7204   -3.1859   -0.1028 H   0  0  0  0  0  0  0  0  0  0  0  0
   -1.2253   -4.3543    1.0975 H   0  0  0  0  0  0  0  0  0  0  0  0
   -2.1795   -2.5030    2.4828 H   0  0  0  0  0  0  0  0  0  0  0  0
   -0.4511   -2.3547    2.2444 H   0  0  0  0  0  0  0  0  0  0  0  0
   -2.0532    1.6648    1.3972 H   0  0  0  0  0  0  0  0  0  0  0  0
    0.1201    3.5203    2.4608 H   0  0  0  0  0  0  0  0  0  0  0  0
   -1.5823    3.4650    2.9273 H   0  0  0  0  0  0  0  0  0  0  0  0
   -0.5171    2.1133    3.3207 H   0  0  0  0  0  0  0  0  0  0  0  0
   -0.5010    3.8711   -0.0405 H   0  0  0  0  0  0  0  0  0  0  0  0
   -1.4106    2.6435   -0.8830 H   0  0  0  0  0  0  0  0  0  0  0  0
   -3.9193    2.4342   -0.5211 H   0  0  0  0  0  0  0  0  0  0  0  0
   -5.9877    3.7440   -0.2205 H   0  0  0  0  0  0  0  0  0  0  0  0
   -5.8872    6.0463    0.6949 H   0  0  0  0  0  0  0  0  0  0  0  0
   -3.7011    7.0413    1.3106 H   0  0  0  0  0  0  0  0  0  0  0  0
   -1.6204    5.7485    1.0221 H   0  0  0  0  0  0  0  0  0  0  0  0
    3.5104   -2.0530    0.2543 H   0  0  0  0  0  0  0  0  0  0  0  0
    2.8519   -1.8694   -1.3813 H   0  0  0  0  0  0  0  0  0  0  0  0
  1  2  1  0
  2  3  1  0
  3  4  2  0
  3  5  1  0
  5  6  1  0
  6  7  1  0
  7  8  1  0
  8  9  2  0
  9 10  1  0
 10 11  2  0
 11 12  1  0
 12 13  1  0
 13 14  2  0
 14 15  1  0
 15 16  1  0
 16 17  1  0
 17 18  1  0
 18 19  1  6
 18 20  1  0
 20 21  2  0
 20 22  1  0
 18 23  1  0
 23 24  1  0
 14 25  1  0
 25 26  1  0
 26 27  1  0
 26 28  1  0
 28 29  1  0
 29 30  2  0
 30 31  1  0
 31 32  2  0
 32 33  1  0
 33 34  2  0
 12 35  2  0
 35 36  1  0
 36  5  1  0
 35  8  1  0
 25 11  1  0
 34 29  1  0
 24 15  1  0
  1 37  1  0
  1 38  1  0
  1 39  1  0
  6 40  1  0
  6 41  1  0
  7 42  1  0
  7 43  1  0
  9 44  1  0
 10 45  1  0
 15 46  1  1
 16 47  1  0
 16 48  1  0
 17 49  1  0
 17 50  1  0
 19 51  1  0
 19 52  1  0
 19 53  1  0
 22 54  1  0
 23 55  1  0
 23 56  1  0
 24 57  1  0
 24 58  1  0
 26 59  1  1
 27 60  1  0
 27 61  1  0
 27 62  1  0
 28 63  1  0
 28 64  1  0
 30 65  1  0
 31 66  1  0
 32 67  1  0
 33 68  1  0
 34 69  1  0
 36 70  1  0
 36 71  1  0
M  END
>  <mol_id>  (1) 
56089

>  <source_index>  (1) 
3

>  <layer>  (1) 
L2

>  <uniprot>  (1) 
Q92793

>  <paff>  (1) 
7.2595999999999998

>  <smiles>  (1) 
COC(=O)N1CCc2ccc3c(nc([C@H]4CC[C@](C)(C(=O)O)CC4)n3[C@@H](C)Cc3ccccc3)c2C1

$$$$
