L2:Q92793:56089
 OpenBabel09212617513D

 71 75  0  0  0  0  0  0  0  0999 V2000
   -0.6637   -8.9343   11.4682 C   0  0  0  0  0  0  0  0  0  0  0  0
   -1.1309   -7.9536   12.0356 O   0  0  0  0  0  0  0  0  0  0  0  0
    0.4245   -9.6486   11.9257 N   0  0  0  0  0  0  0  0  0  0  0  0
    0.9124  -10.8775   11.3137 C   0  0  0  0  0  0  0  0  0  0  0  0
    2.4141  -10.7886   11.0555 C   0  0  0  0  0  0  0  0  0  0  0  0
    3.1643  -10.3760   12.2994 C   0  0  0  0  0  0  0  0  0  0  0  0
    4.5221  -10.6947   12.4272 C   0  0  0  0  0  0  0  0  0  0  0  0
    5.2608  -10.3111   13.5508 C   0  0  0  0  0  0  0  0  0  0  0  0
    4.5954   -9.5874   14.5476 C   0  0  0  0  0  0  0  0  0  0  0  0
    3.2491   -9.2548   14.4375 C   0  0  0  0  0  0  0  0  0  0  0  0
    2.8286   -8.5633   15.5405 N   0  0  0  0  0  0  0  0  0  0  0  0
    3.8690   -8.4692   16.3435 C   0  0  0  0  0  0  0  0  0  0  0  0
    4.9872   -9.0429   15.7583 N   0  0  0  0  0  0  0  0  0  0  0  0
    2.5021   -9.6282   13.3013 C   0  0  0  0  0  0  0  0  0  0  0  0
    1.0452   -9.2523   13.1842 C   0  0  0  0  0  0  0  0  0  0  0  0
    3.8348   -7.7945   17.6939 C   0  0  1  0  0  0  0  0  0  0  0  0
    2.3737   -7.6336   18.1535 C   0  0  0  0  0  0  0  0  0  0  0  0
    2.2582   -7.5430   19.6718 C   0  0  0  0  0  0  0  0  0  0  0  0
    2.7591   -8.8251   20.3801 C   0  0  1  0  0  0  0  0  0  0  0  0
    1.6045   -9.8207   20.5963 C   0  0  0  0  0  0  0  0  0  0  0  0
    3.8619   -9.5396   19.5549 C   0  0  0  0  0  0  0  0  0  0  0  0
    4.6912   -8.5548   18.7297 C   0  0  0  0  0  0  0  0  0  0  0  0
    3.3169   -8.4159   21.7431 C   0  0  0  0  0  0  0  0  0  0  0  0
    2.9718   -7.4653   22.4256 O   0  0  0  0  0  0  0  0  0  0  0  0
    4.2539   -9.2643   22.2136 O   0  0  0  0  0  0  0  0  0  0  0  0
    4.5007   -8.8805   23.0811 H   0  0  0  0  0  0  0  0  0  0  0  0
   -2.4709  -10.0127   10.4402 C   0  0  0  0  0  0  0  0  0  0  0  0
   -1.1704   -9.4386   10.3090 O   0  0  0  0  0  0  0  0  0  0  0  0
    6.3459   -9.0465   16.3113 C   0  0  1  0  0  0  0  0  0  0  0  0
    7.1301  -10.2801   15.8538 C   0  0  0  0  0  0  0  0  0  0  0  0
    7.0752   -7.7129   16.0429 C   0  0  0  0  0  0  0  0  0  0  0  0
    8.1336   -7.3962   17.0744 C   0  0  0  0  0  0  0  0  0  0  0  0
    7.7832   -6.7807   18.2841 C   0  0  0  0  0  0  0  0  0  0  0  0
    8.7569   -6.5032   19.2445 C   0  0  0  0  0  0  0  0  0  0  0  0
   10.0882   -6.8376   19.0057 C   0  0  0  0  0  0  0  0  0  0  0  0
   10.4479   -7.4474   17.8055 C   0  0  0  0  0  0  0  0  0  0  0  0
    9.4760   -7.7255   16.8432 C   0  0  0  0  0  0  0  0  0  0  0  0
    0.4044  -11.0338   10.3850 H   0  0  0  0  0  0  0  0  0  0  0  0
    0.7243  -11.6934   11.9799 H   0  0  0  0  0  0  0  0  0  0  0  0
    2.5928  -10.0670   10.2859 H   0  0  0  0  0  0  0  0  0  0  0  0
    2.7621  -11.7557   10.7579 H   0  0  0  0  0  0  0  0  0  0  0  0
    4.9883  -11.2250   11.6746 H   0  0  0  0  0  0  0  0  0  0  0  0
    6.2600  -10.5526   13.6420 H   0  0  0  0  0  0  0  0  0  0  0  0
    0.9644   -8.1895   13.2781 H   0  0  0  0  0  0  0  0  0  0  0  0
    0.5290   -9.7777   13.9603 H   0  0  0  0  0  0  0  0  0  0  0  0
    4.2683   -6.8202   17.6065 H   0  0  0  0  0  0  0  0  0  0  0  0
    1.8100   -8.4774   17.8140 H   0  0  0  0  0  0  0  0  0  0  0  0
    1.9955   -6.7227   17.7386 H   0  0  0  0  0  0  0  0  0  0  0  0
    1.2315   -7.3871   19.9295 H   0  0  0  0  0  0  0  0  0  0  0  0
    2.8725   -6.7296   19.9974 H   0  0  0  0  0  0  0  0  0  0  0  0
    0.8295   -9.3502   21.1645 H   0  0  0  0  0  0  0  0  0  0  0  0
    1.9662  -10.6766   21.1268 H   0  0  0  0  0  0  0  0  0  0  0  0
    1.2155  -10.1272   19.6478 H   0  0  0  0  0  0  0  0  0  0  0  0
    3.3979  -10.2400   18.8923 H   0  0  0  0  0  0  0  0  0  0  0  0
    4.5201  -10.0314   20.2404 H   0  0  0  0  0  0  0  0  0  0  0  0
    5.4558   -9.0966   18.2133 H   0  0  0  0  0  0  0  0  0  0  0  0
    5.1096   -7.8347   19.4015 H   0  0  0  0  0  0  0  0  0  0  0  0
   -2.7946  -10.3835    9.4901 H   0  0  0  0  0  0  0  0  0  0  0  0
   -3.1568   -9.2672   10.7847 H   0  0  0  0  0  0  0  0  0  0  0  0
   -2.4360  -10.8178   11.1442 H   0  0  0  0  0  0  0  0  0  0  0  0
    6.2729   -9.1230   17.3761 H   0  0  0  0  0  0  0  0  0  0  0  0
    7.2368  -10.2603   14.7893 H   0  0  0  0  0  0  0  0  0  0  0  0
    6.6031  -11.1652   16.1430 H   0  0  0  0  0  0  0  0  0  0  0  0
    8.0982  -10.2765   16.3095 H   0  0  0  0  0  0  0  0  0  0  0  0
    6.3526   -6.9238   16.0435 H   0  0  0  0  0  0  0  0  0  0  0  0
    7.5688   -7.8045   15.0980 H   0  0  0  0  0  0  0  0  0  0  0  0
    6.7984   -6.5311   18.4657 H   0  0  0  0  0  0  0  0  0  0  0  0
    8.4906   -6.0498   20.1325 H   0  0  0  0  0  0  0  0  0  0  0  0
   10.8074   -6.6338   19.7172 H   0  0  0  0  0  0  0  0  0  0  0  0
   11.4342   -7.6937   17.6279 H   0  0  0  0  0  0  0  0  0  0  0  0
    9.7477   -8.1766   15.9556 H   0  0  0  0  0  0  0  0  0  0  0  0
  1  2  2  0  0  0  0
  1  3  1  0  0  0  0
  3  4  1  0  0  0  0
  4  5  1  0  0  0  0
  4 38  1  0  0  0  0
  4 39  1  0  0  0  0
  5  6  1  0  0  0  0
  5 40  1  0  0  0  0
  5 41  1  0  0  0  0
  6  7  2  0  0  0  0
  7  8  1  0  0  0  0
  7 42  1  0  0  0  0
  8  9  2  0  0  0  0
  8 43  1  0  0  0  0
  9 10  1  0  0  0  0
 10 11  1  0  0  0  0
 10 14  2  0  0  0  0
 11 12  2  0  0  0  0
 12 16  1  0  0  0  0
 12 13  1  0  0  0  0
 13 29  1  0  0  0  0
 13  9  1  0  0  0  0
 14 15  1  0  0  0  0
 14  6  1  0  0  0  0
 15  3  1  0  0  0  0
 15 44  1  0  0  0  0
 15 45  1  0  0  0  0
 16 17  1  0  0  0  0
 16 46  1  6  0  0  0
 17 18  1  0  0  0  0
 17 47  1  0  0  0  0
 17 48  1  0  0  0  0
 18 19  1  0  0  0  0
 18 49  1  0  0  0  0
 18 50  1  0  0  0  0
 19 20  1  0  0  0  0
 19 23  1  1  0  0  0
 19 21  1  0  0  0  0
 20 51  1  0  0  0  0
 20 52  1  0  0  0  0
 20 53  1  0  0  0  0
 21 22  1  0  0  0  0
 21 54  1  0  0  0  0
 21 55  1  0  0  0  0
 22 16  1  0  0  0  0
 22 56  1  0  0  0  0
 22 57  1  0  0  0  0
 23 24  2  0  0  0  0
 23 25  1  0  0  0  0
 25 26  1  0  0  0  0
 27 28  1  0  0  0  0
 27 58  1  0  0  0  0
 27 59  1  0  0  0  0
 27 60  1  0  0  0  0
 28  1  1  0  0  0  0
 29 30  1  0  0  0  0
 29 31  1  0  0  0  0
 29 61  1  1  0  0  0
 30 62  1  0  0  0  0
 30 63  1  0  0  0  0
 30 64  1  0  0  0  0
 31 32  1  0  0  0  0
 31 65  1  0  0  0  0
 31 66  1  0  0  0  0
 32 33  2  0  0  0  0
 33 34  1  0  0  0  0
 33 67  1  0  0  0  0
 34 35  2  0  0  0  0
 34 68  1  0  0  0  0
 35 36  1  0  0  0  0
 35 69  1  0  0  0  0
 36 37  2  0  0  0  0
 36 70  1  0  0  0  0
 37 32  1  0  0  0  0
 37 71  1  0  0  0  0
M  END
>  <minimizedAffinity>
-9.66298

$$$$
