L2:Q92793:74284


 36 40  0  0  0  0  0  0  0  0999 V2000
    0.3973   -3.3107   16.0506 C   0  0  0  0  0  0  0  0  0  0  0  0
    0.4616   -2.5874   15.0633 O   0  0  0  0  0  0  0  0  0  0  0  0
    0.5838   -4.6776   16.0223 N   0  0  0  0  0  0  0  0  0  0  0  0
    0.3936   -5.5521   17.1722 C   0  0  0  0  0  0  0  0  0  0  0  0
    1.5999   -6.4688   17.3559 C   0  0  0  0  0  0  0  0  0  0  0  0
    1.9353   -7.1992   16.0778 C   0  0  0  0  0  0  0  0  0  0  0  0
    2.6486   -8.4033   16.1345 C   0  0  0  0  0  0  0  0  0  0  0  0
    2.9974   -9.1017   14.9746 C   0  0  0  0  0  0  0  0  0  0  0  0
    2.6127   -8.5506   13.7465 C   0  0  0  0  0  0  0  0  0  0  0  0
    1.9223   -7.3454   13.6665 C   0  0  0  0  0  0  0  0  0  0  0  0
    1.6762   -7.0127   12.3617 N   0  0  0  0  0  0  0  0  0  0  0  0
    2.2126   -7.9643   11.6252 C   0  0  0  0  0  0  0  0  0  0  0  0
    2.7656   -8.9481   12.4304 N   0  0  0  0  0  0  0  0  0  0  0  0
    1.5729   -6.6337   14.8328 C   0  0  0  0  0  0  0  0  0  0  0  0
    0.8299   -5.3235   14.7382 C   0  0  0  0  0  0  0  0  0  0  0  0
    2.2074   -7.9754   10.1183 C   0  0  0  0  0  0  0  0  0  0  0  0
    3.5265   -7.4081    9.5727 C   0  0  0  0  0  0  0  0  0  0  0  0
    3.5683   -7.4390    8.0461 C   0  0  0  0  0  0  0  0  0  0  0  0
    3.3083   -8.8441    7.4971 C   0  0  0  0  0  0  0  0  0  0  0  0
    1.9971   -9.4180    8.0460 C   0  0  0  0  0  0  0  0  0  0  0  0
    1.9720   -9.3956    9.5730 C   0  0  0  0  0  0  0  0  0  0  0  0
    3.2838   -8.8060    5.9859 C   0  0  0  0  0  0  0  0  0  0  0  0
    3.6824   -9.6667    5.2198 O   0  0  0  0  0  0  0  0  0  0  0  0
    2.7308   -7.6726    5.5110 O   0  0  0  0  0  0  0  0  0  0  0  0
    2.7793   -7.7735    4.5373 H   0  0  0  0  0  0  0  0  0  0  0  0
    0.0856   -1.4212   17.3988 C   0  0  0  0  0  0  0  0  0  0  0  0
    0.1300   -2.8449   17.3021 O   0  0  0  0  0  0  0  0  0  0  0  0
    3.4051  -10.1825   11.9639 C   0  0  0  0  0  0  0  0  0  0  0  0
    2.9844  -11.3985   12.7980 C   0  0  0  0  0  0  0  0  0  0  0  0
    4.9322  -10.0095   11.8490 C   0  0  0  0  0  0  0  0  0  0  0  0
    5.4607  -10.3290   10.4702 C   0  0  0  0  0  0  0  0  0  0  0  0
    6.3918   -9.4801    9.8552 C   0  0  0  0  0  0  0  0  0  0  0  0
    6.8681   -9.7633    8.5745 C   0  0  0  0  0  0  0  0  0  0  0  0
    6.4193  -10.8954    7.8974 C   0  0  0  0  0  0  0  0  0  0  0  0
    5.4955  -11.7465    8.5005 C   0  0  0  0  0  0  0  0  0  0  0  0
    5.0177  -11.4659    9.7815 C   0  0  0  0  0  0  0  0  0  0  0  0
 26 27  1  0  0  0
 27  1  1  0  0  0
  1  2  2  0  0  0
  1  3  1  0  0  0
  3  4  1  0  0  0
  4  5  1  0  0  0
  5  6  1  0  0  0
  6  7  2  0  0  0
  7  8  1  0  0  0
  8  9  2  0  0  0
  9 10  1  0  0  0
 10 11  1  0  0  0
 11 12  2  0  0  0
 12 16  1  0  0  0
 16 17  1  0  0  0
 17 18  1  0  0  0
 18 19  1  0  0  0
 19 22  1  0  0  0
 22 23  2  0  0  0
 22 24  1  0  0  0
 19 20  1  0  0  0
 20 21  1  0  0  0
 12 13  1  0  0  0
 13 28  1  0  0  0
 28 29  1  0  0  0
 28 30  1  0  0  0
 30 31  1  0  0  0
 31 32  2  0  0  0
 32 33  1  0  0  0
 33 34  2  0  0  0
 34 35  1  0  0  0
 35 36  2  0  0  0
 10 14  2  0  0  0
 14 15  1  0  0  0
 15  3  1  0  0  0
 14  6  1  0  0  0
 13  9  1  0  0  0
 36 31  1  0  0  0
 21 16  1  0  0  0
 24 25  1  0  0  0
M  END
> <minimizedAffinity>
-7.76606

$$$$
