L2:Q92793:74284
     RDKit          3D

 68 72  0  0  0  0  0  0  0  0999 V2000
    8.2899    2.4025   -1.3373 C   0  0  0  0  0  0  0  0  0  0  0  0
    7.4474    1.4727   -0.6562 O   0  0  0  0  0  0  0  0  0  0  0  0
    6.1193    1.7643   -0.7320 C   0  0  0  0  0  0  0  0  0  0  0  0
    5.6780    2.7401   -1.3280 O   0  0  0  0  0  0  0  0  0  0  0  0
    5.3357    0.8446   -0.0656 N   0  0  0  0  0  0  0  0  0  0  0  0
    5.8648   -0.2488    0.7392 C   0  0  0  0  0  0  0  0  0  0  0  0
    5.2057   -1.5696    0.3516 C   0  0  0  0  0  0  0  0  0  0  0  0
    3.7000   -1.4612    0.3770 C   0  0  0  0  0  0  0  0  0  0  0  0
    2.9247   -2.6165    0.5378 C   0  0  0  0  0  0  0  0  0  0  0  0
    1.5275   -2.5640    0.5469 C   0  0  0  0  0  0  0  0  0  0  0  0
    0.9256   -1.3108    0.3827 C   0  0  0  0  0  0  0  0  0  0  0  0
    1.6763   -0.1537    0.2003 C   0  0  0  0  0  0  0  0  0  0  0  0
    0.8608    0.9351    0.0481 N   0  0  0  0  0  0  0  0  0  0  0  0
   -0.3767    0.4871    0.1080 C   0  0  0  0  0  0  0  0  0  0  0  0
   -1.6006    1.3516   -0.0527 C   0  0  1  0  0  0  0  0  0  0  0  0
   -2.0929    1.8449    1.3161 C   0  0  0  0  0  0  0  0  0  0  0  0
   -3.3127    2.7549    1.1854 C   0  0  0  0  0  0  0  0  0  0  0  0
   -3.0478    3.9314    0.2426 C   0  0  2  0  0  0  0  0  0  0  0  0
   -4.3057    4.7556    0.0876 C   0  0  0  0  0  0  0  0  0  0  0  0
   -5.0842    4.7440   -0.8507 O   0  0  0  0  0  0  0  0  0  0  0  0
   -4.5306    5.5519    1.1512 O   0  0  0  0  0  0  0  0  0  0  0  0
   -2.5476    3.4442   -1.1221 C   0  0  0  0  0  0  0  0  0  0  0  0
   -1.3195    2.5472   -0.9806 C   0  0  0  0  0  0  0  0  0  0  0  0
   -0.3879   -0.8780    0.3494 N   0  0  0  0  0  0  0  0  0  0  0  0
   -1.5820   -1.7103    0.5274 C   0  0  2  0  0  0  0  0  0  0  0  0
   -1.6079   -2.3923    1.9005 C   0  0  0  0  0  0  0  0  0  0  0  0
   -1.7613   -2.6864   -0.6517 C   0  0  0  0  0  0  0  0  0  0  0  0
   -3.1559   -3.2612   -0.7358 C   0  0  0  0  0  0  0  0  0  0  0  0
   -4.2022   -2.5027   -1.2797 C   0  0  0  0  0  0  0  0  0  0  0  0
   -5.4949   -3.0244   -1.3422 C   0  0  0  0  0  0  0  0  0  0  0  0
   -5.7540   -4.3068   -0.8627 C   0  0  0  0  0  0  0  0  0  0  0  0
   -4.7208   -5.0696   -0.3220 C   0  0  0  0  0  0  0  0  0  0  0  0
   -3.4268   -4.5504   -0.2585 C   0  0  0  0  0  0  0  0  0  0  0  0
    3.0857   -0.2015    0.1845 C   0  0  0  0  0  0  0  0  0  0  0  0
    3.8936    1.0566   -0.0206 C   0  0  0  0  0  0  0  0  0  0  0  0
    8.1912    3.4015   -0.9013 H   0  0  0  0  0  0  0  0  0  0  0  0
    8.0581    2.4194   -2.4069 H   0  0  0  0  0  0  0  0  0  0  0  0
    9.3254    2.0733   -1.2142 H   0  0  0  0  0  0  0  0  0  0  0  0
    6.9499   -0.3412    0.6391 H   0  0  0  0  0  0  0  0  0  0  0  0
    5.6575   -0.0053    1.7890 H   0  0  0  0  0  0  0  0  0  0  0  0
    5.5111   -1.8566   -0.6621 H   0  0  0  0  0  0  0  0  0  0  0  0
    5.5418   -2.3513    1.0425 H   0  0  0  0  0  0  0  0  0  0  0  0
    3.4115   -3.5830    0.6598 H   0  0  0  0  0  0  0  0  0  0  0  0
    0.9533   -3.4737    0.6746 H   0  0  0  0  0  0  0  0  0  0  0  0
   -2.3961    0.7673   -0.5316 H   0  0  0  0  0  0  0  0  0  0  0  0
   -1.2899    2.3904    1.8298 H   0  0  0  0  0  0  0  0  0  0  0  0
   -2.3479    0.9946    1.9603 H   0  0  0  0  0  0  0  0  0  0  0  0
   -4.1664    2.1684    0.8207 H   0  0  0  0  0  0  0  0  0  0  0  0
   -3.5966    3.1242    2.1785 H   0  0  0  0  0  0  0  0  0  0  0  0
   -2.2752    4.5838    0.6711 H   0  0  0  0  0  0  0  0  0  0  0  0
   -5.3588    6.0244    0.9243 H   0  0  0  0  0  0  0  0  0  0  0  0
   -2.3027    4.3034   -1.7586 H   0  0  0  0  0  0  0  0  0  0  0  0
   -3.3401    2.8901   -1.6418 H   0  0  0  0  0  0  0  0  0  0  0  0
   -1.0151    2.1896   -1.9722 H   0  0  0  0  0  0  0  0  0  0  0  0
   -0.4841    3.1458   -0.5938 H   0  0  0  0  0  0  0  0  0  0  0  0
   -2.4353   -1.0258    0.5329 H   0  0  0  0  0  0  0  0  0  0  0  0
   -2.6013   -2.8015    2.1121 H   0  0  0  0  0  0  0  0  0  0  0  0
   -0.8939   -3.2172    1.9692 H   0  0  0  0  0  0  0  0  0  0  0  0
   -1.3714   -1.6772    2.6964 H   0  0  0  0  0  0  0  0  0  0  0  0
   -1.0335   -3.5047   -0.5966 H   0  0  0  0  0  0  0  0  0  0  0  0
   -1.5494   -2.1742   -1.6005 H   0  0  0  0  0  0  0  0  0  0  0  0
   -4.0175   -1.5019   -1.6643 H   0  0  0  0  0  0  0  0  0  0  0  0
   -6.3002   -2.4314   -1.7684 H   0  0  0  0  0  0  0  0  0  0  0  0
   -6.7609   -4.7131   -0.9137 H   0  0  0  0  0  0  0  0  0  0  0  0
   -4.9231   -6.0711    0.0490 H   0  0  0  0  0  0  0  0  0  0  0  0
   -2.6333   -5.1610    0.1665 H   0  0  0  0  0  0  0  0  0  0  0  0
    3.5676    1.5522   -0.9424 H   0  0  0  0  0  0  0  0  0  0  0  0
    3.7024    1.7412    0.8149 H   0  0  0  0  0  0  0  0  0  0  0  0
  1  2  1  0
  2  3  1  0
  3  4  2  0
  3  5  1  0
  5  6  1  0
  6  7  1  0
  7  8  1  0
  8  9  2  0
  9 10  1  0
 10 11  2  0
 11 12  1  0
 12 13  1  0
 13 14  2  0
 14 15  1  0
 15 16  1  0
 16 17  1  0
 17 18  1  0
 18 19  1  0
 19 20  2  0
 19 21  1  0
 18 22  1  0
 22 23  1  0
 14 24  1  0
 24 25  1  0
 25 26  1  0
 25 27  1  0
 27 28  1  0
 28 29  2  0
 29 30  1  0
 30 31  2  0
 31 32  1  0
 32 33  2  0
 12 34  2  0
 34 35  1  0
 35  5  1  0
 34  8  1  0
 24 11  1  0
 33 28  1  0
 23 15  1  0
  1 36  1  0
  1 37  1  0
  1 38  1  0
  6 39  1  0
  6 40  1  0
  7 41  1  0
  7 42  1  0
  9 43  1  0
 10 44  1  0
 15 45  1  6
 16 46  1  0
 16 47  1  0
 17 48  1  0
 17 49  1  0
 18 50  1  1
 21 51  1  0
 22 52  1  0
 22 53  1  0
 23 54  1  0
 23 55  1  0
 25 56  1  1
 26 57  1  0
 26 58  1  0
 26 59  1  0
 27 60  1  0
 27 61  1  0
 29 62  1  0
 30 63  1  0
 31 64  1  0
 32 65  1  0
 33 66  1  0
 35 67  1  0
 35 68  1  0
M  END
>  <mol_id>  (1) 
74284

>  <source_index>  (1) 
4

>  <layer>  (1) 
L2

>  <uniprot>  (1) 
Q92793

>  <paff>  (1) 
6.2595999999999998

>  <smiles>  (1) 
COC(=O)N1CCc2ccc3c(nc([C@H]4CC[C@H](C(=O)O)CC4)n3[C@H](C)Cc3ccccc3)c2C1

$$$$
