L2:Q92793:7699
     RDKit          3D

 62 66  0  0  0  0  0  0  0  0999 V2000
    8.4251    0.6924    0.3585 C   0  0  0  0  0  0  0  0  0  0  0  0
    7.3148   -0.1863    0.1759 O   0  0  0  0  0  0  0  0  0  0  0  0
    6.1016    0.4303    0.2267 C   0  0  0  0  0  0  0  0  0  0  0  0
    5.9663    1.6347    0.4081 O   0  0  0  0  0  0  0  0  0  0  0  0
    5.0521   -0.4484    0.0498 N   0  0  0  0  0  0  0  0  0  0  0  0
    5.2151   -1.8578   -0.2817 C   0  0  0  0  0  0  0  0  0  0  0  0
    4.3794   -2.7296    0.6512 C   0  0  0  0  0  0  0  0  0  0  0  0
    2.9407   -2.2725    0.6884 C   0  0  0  0  0  0  0  0  0  0  0  0
    1.9364   -3.1774    1.0583 C   0  0  0  0  0  0  0  0  0  0  0  0
    0.5944   -2.7924    1.1259 C   0  0  0  0  0  0  0  0  0  0  0  0
    0.2925   -1.4611    0.8158 C   0  0  0  0  0  0  0  0  0  0  0  0
    1.2726   -0.5401    0.4669 C   0  0  0  0  0  0  0  0  0  0  0  0
    0.7161    0.6862    0.2221 N   0  0  0  0  0  0  0  0  0  0  0  0
   -0.5772    0.5673    0.4491 C   0  0  0  0  0  0  0  0  0  0  0  0
   -1.5163    1.6779    0.3245 C   0  0  0  0  0  0  0  0  0  0  0  0
   -2.0827    2.2717    1.4557 C   0  0  0  0  0  0  0  0  0  0  0  0
   -2.9866    3.3252    1.3181 C   0  0  0  0  0  0  0  0  0  0  0  0
   -3.3168    3.8035    0.0497 C   0  0  0  0  0  0  0  0  0  0  0  0
   -2.7337    3.2449   -1.0955 C   0  0  0  0  0  0  0  0  0  0  0  0
   -3.0616    3.7865   -2.4669 C   0  0  0  0  0  0  0  0  0  0  0  0
   -2.3951    5.1024   -2.7871 C   0  0  0  0  0  0  0  0  0  0  0  0
   -1.9324    5.9236   -2.0141 O   0  0  0  0  0  0  0  0  0  0  0  0
   -2.3927    5.3542   -4.1147 O   0  0  0  0  0  0  0  0  0  0  0  0
   -1.8235    2.1875   -0.9453 C   0  0  0  0  0  0  0  0  0  0  0  0
   -0.8927   -0.7445    0.7626 N   0  0  0  0  0  0  0  0  0  0  0  0
   -2.2173   -1.3447    0.9583 C   0  0  1  0  0  0  0  0  0  0  0  0
   -2.7288   -1.1158    2.3824 C   0  0  0  0  0  0  0  0  0  0  0  0
   -3.2295   -0.9501   -0.1271 C   0  0  0  0  0  0  0  0  0  0  0  0
   -4.2540   -1.9645   -0.3188 N   0  0  0  0  0  0  0  0  0  0  0  0
   -4.2747   -2.9303   -1.2839 C   0  0  0  0  0  0  0  0  0  0  0  0
   -5.4302   -3.6418   -1.0752 C   0  0  0  0  0  0  0  0  0  0  0  0
   -6.0170   -4.9646   -1.9474 Cl  0  0  0  0  0  0  0  0  0  0  0  0
   -6.0378   -3.0312    0.0352 C   0  0  0  0  0  0  0  0  0  0  0  0
   -5.3190   -2.0050    0.5043 N   0  0  0  0  0  0  0  0  0  0  0  0
    2.6284   -0.9219    0.4020 C   0  0  0  0  0  0  0  0  0  0  0  0
    3.6936    0.0814    0.0309 C   0  0  0  0  0  0  0  0  0  0  0  0
    8.3822    1.1666    1.3440 H   0  0  0  0  0  0  0  0  0  0  0  0
    8.4540    1.4452   -0.4355 H   0  0  0  0  0  0  0  0  0  0  0  0
    9.3404    0.0966    0.3021 H   0  0  0  0  0  0  0  0  0  0  0  0
    4.8917   -1.9829   -1.3228 H   0  0  0  0  0  0  0  0  0  0  0  0
    6.2617   -2.1707   -0.2305 H   0  0  0  0  0  0  0  0  0  0  0  0
    4.4383   -3.7707    0.3132 H   0  0  0  0  0  0  0  0  0  0  0  0
    4.7812   -2.6791    1.6706 H   0  0  0  0  0  0  0  0  0  0  0  0
    2.1974   -4.2064    1.3018 H   0  0  0  0  0  0  0  0  0  0  0  0
   -0.1658   -3.5092    1.4171 H   0  0  0  0  0  0  0  0  0  0  0  0
   -1.8085    1.9326    2.4519 H   0  0  0  0  0  0  0  0  0  0  0  0
   -3.4207    3.7873    2.2014 H   0  0  0  0  0  0  0  0  0  0  0  0
   -4.0102    4.6382   -0.0370 H   0  0  0  0  0  0  0  0  0  0  0  0
   -2.7608    3.0532   -3.2251 H   0  0  0  0  0  0  0  0  0  0  0  0
   -4.1462    3.9194   -2.5550 H   0  0  0  0  0  0  0  0  0  0  0  0
   -1.9469    6.2254   -4.1824 H   0  0  0  0  0  0  0  0  0  0  0  0
   -1.3377    1.7568   -1.8198 H   0  0  0  0  0  0  0  0  0  0  0  0
   -2.0565   -2.4258    0.8589 H   0  0  0  0  0  0  0  0  0  0  0  0
   -3.5596   -1.7903    2.6120 H   0  0  0  0  0  0  0  0  0  0  0  0
   -3.0877   -0.0945    2.5297 H   0  0  0  0  0  0  0  0  0  0  0  0
   -1.9419   -1.3040    3.1212 H   0  0  0  0  0  0  0  0  0  0  0  0
   -3.7515   -0.0166    0.1091 H   0  0  0  0  0  0  0  0  0  0  0  0
   -2.7392   -0.8240   -1.1001 H   0  0  0  0  0  0  0  0  0  0  0  0
   -3.4905   -3.0282   -2.0210 H   0  0  0  0  0  0  0  0  0  0  0  0
   -6.9695   -3.2885    0.5219 H   0  0  0  0  0  0  0  0  0  0  0  0
    3.6287    0.9456    0.7021 H   0  0  0  0  0  0  0  0  0  0  0  0
    3.5078    0.4344   -0.9909 H   0  0  0  0  0  0  0  0  0  0  0  0
  1  2  1  0
  2  3  1  0
  3  4  2  0
  3  5  1  0
  5  6  1  0
  6  7  1  0
  7  8  1  0
  8  9  2  0
  9 10  1  0
 10 11  2  0
 11 12  1  0
 12 13  1  0
 13 14  2  0
 14 15  1  0
 15 16  2  0
 16 17  1  0
 17 18  2  0
 18 19  1  0
 19 20  1  0
 20 21  1  0
 21 22  2  0
 21 23  1  0
 19 24  2  0
 14 25  1  0
 25 26  1  0
 26 27  1  0
 26 28  1  0
 28 29  1  0
 29 30  1  0
 30 31  2  0
 31 32  1  0
 31 33  1  0
 33 34  2  0
 12 35  2  0
 35 36  1  0
 36  5  1  0
 35  8  1  0
 25 11  1  0
 34 29  1  0
 24 15  1  0
  1 37  1  0
  1 38  1  0
  1 39  1  0
  6 40  1  0
  6 41  1  0
  7 42  1  0
  7 43  1  0
  9 44  1  0
 10 45  1  0
 16 46  1  0
 17 47  1  0
 18 48  1  0
 20 49  1  0
 20 50  1  0
 23 51  1  0
 24 52  1  0
 26 53  1  1
 27 54  1  0
 27 55  1  0
 27 56  1  0
 28 57  1  0
 28 58  1  0
 30 59  1  0
 33 60  1  0
 36 61  1  0
 36 62  1  0
M  END
>  <mol_id>  (1) 
7699

>  <source_index>  (1) 
0

>  <layer>  (1) 
L2

>  <uniprot>  (1) 
Q92793

>  <paff>  (1) 
8.2596000000000007

>  <smiles>  (1) 
COC(=O)N1CCc2ccc3c(nc(-c4cccc(CC(=O)O)c4)n3[C@@H](C)Cn3cc(Cl)cn3)c2C1

$$$$
