L2:Q92793:7699
 OpenBabel09212617503D

 62 66  0  0  0  0  0  0  0  0999 V2000
    7.5710   -7.4596   16.9844 C   0  0  0  0  0  0  0  0  0  0  0  0
    8.5280   -7.3381   16.2287 O   0  0  0  0  0  0  0  0  0  0  0  0
    6.3915   -8.0904   16.6442 N   0  0  0  0  0  0  0  0  0  0  0  0
    5.3000   -8.3378   17.5771 C   0  0  0  0  0  0  0  0  0  0  0  0
    3.9714   -7.8770   16.9845 C   0  0  0  0  0  0  0  0  0  0  0  0
    3.7482   -8.4659   15.6121 C   0  0  0  0  0  0  0  0  0  0  0  0
    2.4435   -8.5855   15.1142 C   0  0  0  0  0  0  0  0  0  0  0  0
    2.1918   -9.1058   13.8416 C   0  0  0  0  0  0  0  0  0  0  0  0
    3.2979   -9.4972   13.0781 C   0  0  0  0  0  0  0  0  0  0  0  0
    4.6016   -9.3690   13.5412 C   0  0  0  0  0  0  0  0  0  0  0  0
    5.4924   -9.8145   12.6023 N   0  0  0  0  0  0  0  0  0  0  0  0
    4.7845  -10.1776   11.5509 C   0  0  0  0  0  0  0  0  0  0  0  0
    3.4306  -10.0528   11.8153 N   0  0  0  0  0  0  0  0  0  0  0  0
    4.8615   -8.8402   14.8222 C   0  0  0  0  0  0  0  0  0  0  0  0
    6.2787   -8.6936   15.3213 C   0  0  0  0  0  0  0  0  0  0  0  0
    5.3835  -10.6840   10.3198 C   0  0  0  0  0  0  0  0  0  0  0  0
    6.2067   -9.8732    9.5336 C   0  0  0  0  0  0  0  0  0  0  0  0
    6.7624  -10.3698    8.3544 C   0  0  0  0  0  0  0  0  0  0  0  0
    6.5132  -11.6855    7.9626 C   0  0  0  0  0  0  0  0  0  0  0  0
    5.7188  -12.5255    8.7544 C   0  0  0  0  0  0  0  0  0  0  0  0
    5.1672  -12.0164    9.9400 C   0  0  0  0  0  0  0  0  0  0  0  0
    5.4789  -13.9611    8.3507 C   0  0  0  0  0  0  0  0  0  0  0  0
    6.6628  -14.8710    8.5712 C   0  0  0  0  0  0  0  0  0  0  0  0
    7.7894  -14.7699    8.1166 O   0  0  0  0  0  0  0  0  0  0  0  0
    6.3422  -15.9350    9.3400 O   0  0  0  0  0  0  0  0  0  0  0  0
    7.1819  -16.4389    9.3965 H   0  0  0  0  0  0  0  0  0  0  0  0
    8.8589   -6.7471   18.8060 C   0  0  0  0  0  0  0  0  0  0  0  0
    7.5610   -6.9839   18.2604 O   0  0  0  0  0  0  0  0  0  0  0  0
    2.2946  -10.4647   10.9828 C   0  0  1  0  0  0  0  0  0  0  0  0
    1.2488  -11.2243   11.8021 C   0  0  0  0  0  0  0  0  0  0  0  0
    1.7048   -9.3177   10.1491 C   0  0  0  0  0  0  0  0  0  0  0  0
    2.4784   -9.0586    8.9450 N   0  0  0  0  0  0  0  0  0  0  0  0
    3.0916   -7.8865    8.6063 C   0  0  0  0  0  0  0  0  0  0  0  0
    3.6860   -8.1142    7.3898 C   0  0  0  0  0  0  0  0  0  0  0  0
    4.5955   -7.0425    6.4522 Cl  0  0  0  0  0  0  0  0  0  0  0  0
    3.3758   -9.4489    7.0776 C   0  0  0  0  0  0  0  0  0  0  0  0
    2.6389  -10.0328    8.0293 N   0  0  0  0  0  0  0  0  0  0  0  0
    5.4849   -7.8019   18.4846 H   0  0  0  0  0  0  0  0  0  0  0  0
    5.2446   -9.3884   17.7721 H   0  0  0  0  0  0  0  0  0  0  0  0
    3.9750   -6.8097   16.9092 H   0  0  0  0  0  0  0  0  0  0  0  0
    3.1824   -8.2090   17.6265 H   0  0  0  0  0  0  0  0  0  0  0  0
    1.6504   -8.2824   15.7008 H   0  0  0  0  0  0  0  0  0  0  0  0
    1.2297   -9.1977   13.4796 H   0  0  0  0  0  0  0  0  0  0  0  0
    6.8164   -8.0817   14.6274 H   0  0  0  0  0  0  0  0  0  0  0  0
    6.6784   -9.6829   15.4014 H   0  0  0  0  0  0  0  0  0  0  0  0
    6.4042   -8.9035    9.8265 H   0  0  0  0  0  0  0  0  0  0  0  0
    7.3590   -9.7628    7.7707 H   0  0  0  0  0  0  0  0  0  0  0  0
    6.9171  -12.0429    7.0827 H   0  0  0  0  0  0  0  0  0  0  0  0
    4.5949  -12.6306   10.5402 H   0  0  0  0  0  0  0  0  0  0  0  0
    5.2300  -13.9801    7.3102 H   0  0  0  0  0  0  0  0  0  0  0  0
    4.6889  -14.3278    8.9722 H   0  0  0  0  0  0  0  0  0  0  0  0
    8.7636   -6.3768   19.8053 H   0  0  0  0  0  0  0  0  0  0  0  0
    9.3719   -6.0252   18.2055 H   0  0  0  0  0  0  0  0  0  0  0  0
    9.4139   -7.6618   18.8160 H   0  0  0  0  0  0  0  0  0  0  0  0
    2.6747  -11.1532   10.2572 H   0  0  0  0  0  0  0  0  0  0  0  0
    0.8371  -10.5742   12.5456 H   0  0  0  0  0  0  0  0  0  0  0  0
    1.7100  -12.0641   12.2785 H   0  0  0  0  0  0  0  0  0  0  0  0
    0.4680  -11.5658   11.1551 H   0  0  0  0  0  0  0  0  0  0  0  0
    1.6897   -8.4301   10.7464 H   0  0  0  0  0  0  0  0  0  0  0  0
    0.7179   -9.6031    9.8500 H   0  0  0  0  0  0  0  0  0  0  0  0
    3.1054   -7.0106    9.1519 H   0  0  0  0  0  0  0  0  0  0  0  0
    3.6813   -9.9238    6.2138 H   0  0  0  0  0  0  0  0  0  0  0  0
  1  2  2  0  0  0  0
  1  3  1  0  0  0  0
  3  4  1  0  0  0  0
  4  5  1  0  0  0  0
  4 38  1  0  0  0  0
  4 39  1  0  0  0  0
  5  6  1  0  0  0  0
  5 40  1  0  0  0  0
  5 41  1  0  0  0  0
  6  7  2  0  0  0  0
  7  8  1  0  0  0  0
  7 42  1  0  0  0  0
  8  9  2  0  0  0  0
  8 43  1  0  0  0  0
  9 10  1  0  0  0  0
 10 11  1  0  0  0  0
 10 14  2  0  0  0  0
 11 12  2  0  0  0  0
 12 16  1  0  0  0  0
 12 13  1  0  0  0  0
 13 29  1  0  0  0  0
 13  9  1  0  0  0  0
 14 15  1  0  0  0  0
 14  6  1  0  0  0  0
 15  3  1  0  0  0  0
 15 44  1  0  0  0  0
 15 45  1  0  0  0  0
 16 17  2  0  0  0  0
 17 18  1  0  0  0  0
 17 46  1  0  0  0  0
 18 19  2  0  0  0  0
 18 47  1  0  0  0  0
 19 20  1  0  0  0  0
 19 48  1  0  0  0  0
 20 22  1  0  0  0  0
 20 21  2  0  0  0  0
 21 16  1  0  0  0  0
 21 49  1  0  0  0  0
 22 23  1  0  0  0  0
 22 50  1  0  0  0  0
 22 51  1  0  0  0  0
 23 24  2  0  0  0  0
 23 25  1  0  0  0  0
 25 26  1  0  0  0  0
 27 28  1  0  0  0  0
 27 52  1  0  0  0  0
 27 53  1  0  0  0  0
 27 54  1  0  0  0  0
 28  1  1  0  0  0  0
 29 30  1  0  0  0  0
 29 31  1  0  0  0  0
 29 55  1  6  0  0  0
 30 56  1  0  0  0  0
 30 57  1  0  0  0  0
 30 58  1  0  0  0  0
 31 32  1  0  0  0  0
 31 59  1  0  0  0  0
 31 60  1  0  0  0  0
 32 33  1  0  0  0  0
 33 34  2  0  0  0  0
 33 61  1  0  0  0  0
 34 35  1  0  0  0  0
 34 36  1  0  0  0  0
 36 37  2  0  0  0  0
 36 62  1  0  0  0  0
 37 32  1  0  0  0  0
M  END
>  <minimizedAffinity>
-7.89982

$$$$
