L2:Q92793:92633
 OpenBabel09212617513D

 69 73  0  0  0  0  0  0  0  0999 V2000
   -0.4474   -2.7215   16.1559 C   0  0  0  0  0  0  0  0  0  0  0  0
   -0.1413   -2.2140   15.0830 O   0  0  0  0  0  0  0  0  0  0  0  0
   -0.2144   -4.0422   16.4813 N   0  0  0  0  0  0  0  0  0  0  0  0
   -0.6814   -4.6761   17.7073 C   0  0  0  0  0  0  0  0  0  0  0  0
    0.4584   -5.4228   18.3947 C   0  0  0  0  0  0  0  0  0  0  0  0
    1.1539   -6.3646   17.4412 C   0  0  0  0  0  0  0  0  0  0  0  0
    1.8632   -7.4621   17.9459 C   0  0  0  0  0  0  0  0  0  0  0  0
    2.5435   -8.3444   17.1013 C   0  0  0  0  0  0  0  0  0  0  0  0
    2.4931   -8.0906   15.7255 C   0  0  0  0  0  0  0  0  0  0  0  0
    1.8046   -7.0001   15.2025 C   0  0  0  0  0  0  0  0  0  0  0  0
    1.9022   -6.9710   13.8373 N   0  0  0  0  0  0  0  0  0  0  0  0
    2.5941   -8.0311   13.4942 C   0  0  0  0  0  0  0  0  0  0  0  0
    3.0426   -8.7094   14.6156 N   0  0  0  0  0  0  0  0  0  0  0  0
    1.1273   -6.0999   16.0517 C   0  0  0  0  0  0  0  0  0  0  0  0
    0.3926   -4.9116   15.4806 C   0  0  0  0  0  0  0  0  0  0  0  0
    2.8830   -8.4038   12.2206 N   0  0  0  0  0  0  0  0  0  0  0  0
    3.8094   -7.5294   11.4741 C   0  0  0  0  0  0  0  0  0  0  0  0
    4.0520   -8.0550   10.0507 C   0  0  0  0  0  0  0  0  0  0  0  0
    2.8053   -8.2137    9.2913 N   0  0  0  0  0  0  0  0  0  0  0  0
    2.8428   -8.1177    7.9131 C   0  0  0  0  0  0  0  0  0  0  0  0
    3.8936   -7.9745    7.2817 O   0  0  0  0  0  0  0  0  0  0  0  0
    1.5901   -8.4358   10.0852 C   0  0  0  0  0  0  0  0  0  0  0  0
    1.8796   -9.1310   11.4294 C   0  0  0  0  0  0  0  0  0  0  0  0
    1.5137   -8.1967    7.1535 C   0  0  0  0  0  0  0  0  0  0  0  0
    1.6913   -8.0580    5.7501 O   0  0  0  0  0  0  0  0  0  0  0  0
    2.6560   -8.1364    5.5966 H   0  0  0  0  0  0  0  0  0  0  0  0
   -0.2637   -0.9967   17.7295 C   0  0  0  0  0  0  0  0  0  0  0  0
   -1.0604   -2.0354   17.1598 O   0  0  0  0  0  0  0  0  0  0  0  0
    4.0150   -9.8066   14.6248 C   0  0  1  0  0  0  0  0  0  0  0  0
    3.4516  -11.0713   13.9631 C   0  0  0  0  0  0  0  0  0  0  0  0
    5.3685   -9.3575   14.0397 C   0  0  0  0  0  0  0  0  0  0  0  0
    6.3426   -8.8568   15.0807 C   0  0  0  0  0  0  0  0  0  0  0  0
    7.6345   -9.3931   15.1655 C   0  0  0  0  0  0  0  0  0  0  0  0
    8.5368   -8.9182   16.1185 C   0  0  0  0  0  0  0  0  0  0  0  0
    8.1572   -7.9044   16.9956 C   0  0  0  0  0  0  0  0  0  0  0  0
    6.8746   -7.3654   16.9217 C   0  0  0  0  0  0  0  0  0  0  0  0
    5.9708   -7.8386   15.9695 C   0  0  0  0  0  0  0  0  0  0  0  0
   -1.4622   -5.3681   17.4698 H   0  0  0  0  0  0  0  0  0  0  0  0
   -1.0461   -3.9189   18.3695 H   0  0  0  0  0  0  0  0  0  0  0  0
    0.0618   -5.9863   19.2133 H   0  0  0  0  0  0  0  0  0  0  0  0
    1.1725   -4.7042   18.7391 H   0  0  0  0  0  0  0  0  0  0  0  0
    1.8841   -7.6231   18.9650 H   0  0  0  0  0  0  0  0  0  0  0  0
    3.0633   -9.1525   17.4779 H   0  0  0  0  0  0  0  0  0  0  0  0
   -0.3822   -5.2742   14.8379 H   0  0  0  0  0  0  0  0  0  0  0  0
    1.1204   -4.3215   14.9639 H   0  0  0  0  0  0  0  0  0  0  0  0
    4.7438   -7.4878   11.9938 H   0  0  0  0  0  0  0  0  0  0  0  0
    3.3706   -6.5561   11.4035 H   0  0  0  0  0  0  0  0  0  0  0  0
    4.5389   -9.0057   10.1140 H   0  0  0  0  0  0  0  0  0  0  0  0
    4.6571   -7.3373    9.5372 H   0  0  0  0  0  0  0  0  0  0  0  0
    0.9188   -9.0482    9.5202 H   0  0  0  0  0  0  0  0  0  0  0  0
    1.1641   -7.4782   10.3006 H   0  0  0  0  0  0  0  0  0  0  0  0
    2.2418  -10.1192   11.2363 H   0  0  0  0  0  0  0  0  0  0  0  0
    0.9696   -9.1554   11.9917 H   0  0  0  0  0  0  0  0  0  0  0  0
    0.8716   -7.4137    7.4991 H   0  0  0  0  0  0  0  0  0  0  0  0
    1.0853   -9.1597    7.3380 H   0  0  0  0  0  0  0  0  0  0  0  0
   -0.8152   -0.5096   18.5063 H   0  0  0  0  0  0  0  0  0  0  0  0
   -0.0105   -0.2850   16.9717 H   0  0  0  0  0  0  0  0  0  0  0  0
    0.6317   -1.4170   18.1375 H   0  0  0  0  0  0  0  0  0  0  0  0
    4.2048  -10.0752   15.6430 H   0  0  0  0  0  0  0  0  0  0  0  0
    3.2381  -10.8705   12.9340 H   0  0  0  0  0  0  0  0  0  0  0  0
    2.5524  -11.3651   14.4631 H   0  0  0  0  0  0  0  0  0  0  0  0
    4.1714  -11.8601   14.0307 H   0  0  0  0  0  0  0  0  0  0  0  0
    5.1889   -8.5698   13.3382 H   0  0  0  0  0  0  0  0  0  0  0  0
    5.8128  -10.2169   13.5826 H   0  0  0  0  0  0  0  0  0  0  0  0
    7.9207  -10.1446   14.5187 H   0  0  0  0  0  0  0  0  0  0  0  0
    9.4864   -9.3185   16.1736 H   0  0  0  0  0  0  0  0  0  0  0  0
    8.8254   -7.5531   17.6993 H   0  0  0  0  0  0  0  0  0  0  0  0
    6.5926   -6.6153   17.5719 H   0  0  0  0  0  0  0  0  0  0  0  0
    5.0219   -7.4360   15.9193 H   0  0  0  0  0  0  0  0  0  0  0  0
  1  2  2  0  0  0  0
  1  3  1  0  0  0  0
  3  4  1  0  0  0  0
  4  5  1  0  0  0  0
  4 38  1  0  0  0  0
  4 39  1  0  0  0  0
  5  6  1  0  0  0  0
  5 40  1  0  0  0  0
  5 41  1  0  0  0  0
  6  7  2  0  0  0  0
  7  8  1  0  0  0  0
  7 42  1  0  0  0  0
  8  9  2  0  0  0  0
  8 43  1  0  0  0  0
  9 10  1  0  0  0  0
 10 11  1  0  0  0  0
 10 14  2  0  0  0  0
 11 12  2  0  0  0  0
 12 16  1  0  0  0  0
 12 13  1  0  0  0  0
 13 29  1  0  0  0  0
 13  9  1  0  0  0  0
 14 15  1  0  0  0  0
 14  6  1  0  0  0  0
 15  3  1  0  0  0  0
 15 44  1  0  0  0  0
 15 45  1  0  0  0  0
 16 17  1  0  0  0  0
 17 18  1  0  0  0  0
 17 46  1  0  0  0  0
 17 47  1  0  0  0  0
 18 19  1  0  0  0  0
 18 48  1  0  0  0  0
 18 49  1  0  0  0  0
 19 20  1  0  0  0  0
 19 22  1  0  0  0  0
 20 21  2  0  0  0  0
 20 24  1  0  0  0  0
 22 23  1  0  0  0  0
 22 50  1  0  0  0  0
 22 51  1  0  0  0  0
 23 16  1  0  0  0  0
 23 52  1  0  0  0  0
 23 53  1  0  0  0  0
 24 25  1  0  0  0  0
 24 54  1  0  0  0  0
 24 55  1  0  0  0  0
 25 26  1  0  0  0  0
 27 28  1  0  0  0  0
 27 56  1  0  0  0  0
 27 57  1  0  0  0  0
 27 58  1  0  0  0  0
 28  1  1  0  0  0  0
 29 30  1  0  0  0  0
 29 31  1  0  0  0  0
 29 59  1  1  0  0  0
 30 60  1  0  0  0  0
 30 61  1  0  0  0  0
 30 62  1  0  0  0  0
 31 32  1  0  0  0  0
 31 63  1  0  0  0  0
 31 64  1  0  0  0  0
 32 33  2  0  0  0  0
 33 34  1  0  0  0  0
 33 65  1  0  0  0  0
 34 35  2  0  0  0  0
 34 66  1  0  0  0  0
 35 36  1  0  0  0  0
 35 67  1  0  0  0  0
 36 37  2  0  0  0  0
 36 68  1  0  0  0  0
 37 32  1  0  0  0  0
 37 69  1  0  0  0  0
M  END
>  <minimizedAffinity>
-8.53567

$$$$
