L2:Q92793:92633
     RDKit          3D

 69 73  0  0  0  0  0  0  0  0999 V2000
    8.0481    3.7439    0.5057 C   0  0  0  0  0  0  0  0  0  0  0  0
    7.2270    2.6583    0.9364 O   0  0  0  0  0  0  0  0  0  0  0  0
    5.9416    2.7204    0.4913 C   0  0  0  0  0  0  0  0  0  0  0  0
    5.5169    3.6279   -0.2147 O   0  0  0  0  0  0  0  0  0  0  0  0
    5.1784    1.6552    0.9240 N   0  0  0  0  0  0  0  0  0  0  0  0
    5.6481    0.6394    1.8571 C   0  0  0  0  0  0  0  0  0  0  0  0
    5.3619   -0.7595    1.3182 C   0  0  0  0  0  0  0  0  0  0  0  0
    3.9129   -0.9111    0.9215 C   0  0  0  0  0  0  0  0  0  0  0  0
    3.3373   -2.1874    0.8755 C   0  0  0  0  0  0  0  0  0  0  0  0
    2.0073   -2.3764    0.4884 C   0  0  0  0  0  0  0  0  0  0  0  0
    1.2665   -1.2396    0.1440 C   0  0  0  0  0  0  0  0  0  0  0  0
    1.8207    0.0367    0.1710 C   0  0  0  0  0  0  0  0  0  0  0  0
    0.8988    0.9766   -0.2041 N   0  0  0  0  0  0  0  0  0  0  0  0
   -0.2206    0.3288   -0.4228 C   0  0  0  0  0  0  0  0  0  0  0  0
   -1.4030    0.8973   -0.7735 N   0  0  0  0  0  0  0  0  0  0  0  0
   -1.3249    2.1446   -1.5597 C   0  0  0  0  0  0  0  0  0  0  0  0
   -2.7239    2.6883   -1.8891 C   0  0  0  0  0  0  0  0  0  0  0  0
   -3.5352    2.9145   -0.6863 N   0  0  0  0  0  0  0  0  0  0  0  0
   -4.5266    3.8769   -0.7175 C   0  0  0  0  0  0  0  0  0  0  0  0
   -4.8111    4.5102   -1.7379 O   0  0  0  0  0  0  0  0  0  0  0  0
   -5.2960    4.1544    0.5790 C   0  0  0  0  0  0  0  0  0  0  0  0
   -6.1486    5.2858    0.4626 O   0  0  0  0  0  0  0  0  0  0  0  0
   -3.1932    2.0984    0.4856 C   0  0  0  0  0  0  0  0  0  0  0  0
   -2.5741    0.7408    0.1016 C   0  0  0  0  0  0  0  0  0  0  0  0
   -0.0306   -1.0374   -0.2960 N   0  0  0  0  0  0  0  0  0  0  0  0
   -0.9922   -2.0777   -0.6736 C   0  0  1  0  0  0  0  0  0  0  0  0
   -0.4546   -2.9657   -1.8037 C   0  0  0  0  0  0  0  0  0  0  0  0
   -1.4677   -2.8718    0.5590 C   0  0  0  0  0  0  0  0  0  0  0  0
   -2.6618   -3.7566    0.2861 C   0  0  0  0  0  0  0  0  0  0  0  0
   -3.9498   -3.2109    0.2016 C   0  0  0  0  0  0  0  0  0  0  0  0
   -5.0489   -4.0287   -0.0653 C   0  0  0  0  0  0  0  0  0  0  0  0
   -4.8719   -5.3983   -0.2495 C   0  0  0  0  0  0  0  0  0  0  0  0
   -3.5962   -5.9519   -0.1657 C   0  0  0  0  0  0  0  0  0  0  0  0
   -2.4958   -5.1361    0.1010 C   0  0  0  0  0  0  0  0  0  0  0  0
    3.1660    0.2311    0.5486 C   0  0  0  0  0  0  0  0  0  0  0  0
    3.7661    1.6158    0.5641 C   0  0  0  0  0  0  0  0  0  0  0  0
    8.1205    3.7616   -0.5863 H   0  0  0  0  0  0  0  0  0  0  0  0
    9.0507    3.5927    0.9154 H   0  0  0  0  0  0  0  0  0  0  0  0
    7.6596    4.6940    0.8859 H   0  0  0  0  0  0  0  0  0  0  0  0
    6.7177    0.7376    2.0630 H   0  0  0  0  0  0  0  0  0  0  0  0
    5.1207    0.8049    2.8051 H   0  0  0  0  0  0  0  0  0  0  0  0
    5.6247   -1.4971    2.0852 H   0  0  0  0  0  0  0  0  0  0  0  0
    5.9807   -0.9530    0.4334 H   0  0  0  0  0  0  0  0  0  0  0  0
    3.9323   -3.0597    1.1422 H   0  0  0  0  0  0  0  0  0  0  0  0
    1.5885   -3.3753    0.4602 H   0  0  0  0  0  0  0  0  0  0  0  0
   -0.7823    1.9593   -2.4945 H   0  0  0  0  0  0  0  0  0  0  0  0
   -0.7740    2.9070   -0.9931 H   0  0  0  0  0  0  0  0  0  0  0  0
   -3.2729    1.9671   -2.5068 H   0  0  0  0  0  0  0  0  0  0  0  0
   -2.6392    3.6177   -2.4625 H   0  0  0  0  0  0  0  0  0  0  0  0
   -5.9177    3.2868    0.8167 H   0  0  0  0  0  0  0  0  0  0  0  0
   -4.5940    4.3411    1.3960 H   0  0  0  0  0  0  0  0  0  0  0  0
   -6.1756    5.4993   -0.4935 H   0  0  0  0  0  0  0  0  0  0  0  0
   -2.4812    2.6832    1.0803 H   0  0  0  0  0  0  0  0  0  0  0  0
   -4.0828    1.9338    1.1001 H   0  0  0  0  0  0  0  0  0  0  0  0
   -2.3210    0.1995    1.0209 H   0  0  0  0  0  0  0  0  0  0  0  0
   -3.3259    0.1492   -0.4339 H   0  0  0  0  0  0  0  0  0  0  0  0
   -1.8558   -1.5596   -1.1034 H   0  0  0  0  0  0  0  0  0  0  0  0
   -0.0266   -2.3579   -2.6088 H   0  0  0  0  0  0  0  0  0  0  0  0
    0.3202   -3.6552   -1.4569 H   0  0  0  0  0  0  0  0  0  0  0  0
   -1.2577   -3.5682   -2.2408 H   0  0  0  0  0  0  0  0  0  0  0  0
   -0.6545   -3.4843    0.9653 H   0  0  0  0  0  0  0  0  0  0  0  0
   -1.7357   -2.1818    1.3705 H   0  0  0  0  0  0  0  0  0  0  0  0
   -4.1099   -2.1460    0.3459 H   0  0  0  0  0  0  0  0  0  0  0  0
   -6.0451   -3.5983   -0.1290 H   0  0  0  0  0  0  0  0  0  0  0  0
   -5.7283   -6.0347   -0.4571 H   0  0  0  0  0  0  0  0  0  0  0  0
   -3.4584   -7.0208   -0.3084 H   0  0  0  0  0  0  0  0  0  0  0  0
   -1.5078   -5.5874    0.1609 H   0  0  0  0  0  0  0  0  0  0  0  0
    3.6248    2.0843   -0.4168 H   0  0  0  0  0  0  0  0  0  0  0  0
    3.2353    2.2241    1.3068 H   0  0  0  0  0  0  0  0  0  0  0  0
  1  2  1  0
  2  3  1  0
  3  4  2  0
  3  5  1  0
  5  6  1  0
  6  7  1  0
  7  8  1  0
  8  9  2  0
  9 10  1  0
 10 11  2  0
 11 12  1  0
 12 13  1  0
 13 14  2  0
 14 15  1  0
 15 16  1  0
 16 17  1  0
 17 18  1  0
 18 19  1  0
 19 20  2  0
 19 21  1  0
 21 22  1  0
 18 23  1  0
 23 24  1  0
 14 25  1  0
 25 26  1  0
 26 27  1  0
 26 28  1  0
 28 29  1  0
 29 30  2  0
 30 31  1  0
 31 32  2  0
 32 33  1  0
 33 34  2  0
 12 35  2  0
 35 36  1  0
 36  5  1  0
 35  8  1  0
 25 11  1  0
 34 29  1  0
 24 15  1  0
  1 37  1  0
  1 38  1  0
  1 39  1  0
  6 40  1  0
  6 41  1  0
  7 42  1  0
  7 43  1  0
  9 44  1  0
 10 45  1  0
 16 46  1  0
 16 47  1  0
 17 48  1  0
 17 49  1  0
 21 50  1  0
 21 51  1  0
 22 52  1  0
 23 53  1  0
 23 54  1  0
 24 55  1  0
 24 56  1  0
 26 57  1  6
 27 58  1  0
 27 59  1  0
 27 60  1  0
 28 61  1  0
 28 62  1  0
 30 63  1  0
 31 64  1  0
 32 65  1  0
 33 66  1  0
 34 67  1  0
 36 68  1  0
 36 69  1  0
M  END
>  <mol_id>  (1) 
92633

>  <source_index>  (1) 
5

>  <layer>  (1) 
L2

>  <uniprot>  (1) 
Q92793

>  <paff>  (1) 
8.2596000000000007

>  <smiles>  (1) 
COC(=O)N1CCc2ccc3c(nc(N4CCN(C(=O)CO)CC4)n3[C@@H](C)Cc3ccccc3)c2C1

$$$$
