L2:Q92793:92633


 37 41  0  0  0  0  0  0  0  0999 V2000
   -0.4474   -2.7215   16.1559 C   0  0  0  0  0  0  0  0  0  0  0  0
   -0.1413   -2.2140   15.0830 O   0  0  0  0  0  0  0  0  0  0  0  0
   -0.2144   -4.0422   16.4813 N   0  0  0  0  0  0  0  0  0  0  0  0
   -0.6814   -4.6761   17.7073 C   0  0  0  0  0  0  0  0  0  0  0  0
    0.4584   -5.4228   18.3947 C   0  0  0  0  0  0  0  0  0  0  0  0
    1.1539   -6.3646   17.4412 C   0  0  0  0  0  0  0  0  0  0  0  0
    1.8632   -7.4621   17.9459 C   0  0  0  0  0  0  0  0  0  0  0  0
    2.5435   -8.3444   17.1013 C   0  0  0  0  0  0  0  0  0  0  0  0
    2.4931   -8.0906   15.7255 C   0  0  0  0  0  0  0  0  0  0  0  0
    1.8046   -7.0001   15.2025 C   0  0  0  0  0  0  0  0  0  0  0  0
    1.9022   -6.9710   13.8373 N   0  0  0  0  0  0  0  0  0  0  0  0
    2.5941   -8.0311   13.4942 C   0  0  0  0  0  0  0  0  0  0  0  0
    3.0426   -8.7094   14.6156 N   0  0  0  0  0  0  0  0  0  0  0  0
    1.1273   -6.0999   16.0517 C   0  0  0  0  0  0  0  0  0  0  0  0
    0.3926   -4.9116   15.4806 C   0  0  0  0  0  0  0  0  0  0  0  0
    2.8830   -8.4038   12.2206 N   0  0  0  0  0  0  0  0  0  0  0  0
    3.8094   -7.5294   11.4741 C   0  0  0  0  0  0  0  0  0  0  0  0
    4.0520   -8.0550   10.0507 C   0  0  0  0  0  0  0  0  0  0  0  0
    2.8053   -8.2137    9.2913 N   0  0  0  0  0  0  0  0  0  0  0  0
    2.8428   -8.1177    7.9131 C   0  0  0  0  0  0  0  0  0  0  0  0
    3.8936   -7.9745    7.2817 O   0  0  0  0  0  0  0  0  0  0  0  0
    1.5901   -8.4358   10.0852 C   0  0  0  0  0  0  0  0  0  0  0  0
    1.8796   -9.1310   11.4294 C   0  0  0  0  0  0  0  0  0  0  0  0
    1.5137   -8.1967    7.1535 C   0  0  0  0  0  0  0  0  0  0  0  0
    1.6913   -8.0580    5.7501 O   0  0  0  0  0  0  0  0  0  0  0  0
    2.6560   -8.1364    5.5966 H   0  0  0  0  0  0  0  0  0  0  0  0
   -0.2637   -0.9967   17.7295 C   0  0  0  0  0  0  0  0  0  0  0  0
   -1.0604   -2.0354   17.1598 O   0  0  0  0  0  0  0  0  0  0  0  0
    4.0150   -9.8066   14.6248 C   0  0  0  0  0  0  0  0  0  0  0  0
    3.4516  -11.0713   13.9631 C   0  0  0  0  0  0  0  0  0  0  0  0
    5.3685   -9.3575   14.0397 C   0  0  0  0  0  0  0  0  0  0  0  0
    6.3426   -8.8568   15.0807 C   0  0  0  0  0  0  0  0  0  0  0  0
    7.6345   -9.3931   15.1655 C   0  0  0  0  0  0  0  0  0  0  0  0
    8.5368   -8.9182   16.1185 C   0  0  0  0  0  0  0  0  0  0  0  0
    8.1572   -7.9044   16.9956 C   0  0  0  0  0  0  0  0  0  0  0  0
    6.8746   -7.3654   16.9217 C   0  0  0  0  0  0  0  0  0  0  0  0
    5.9708   -7.8386   15.9695 C   0  0  0  0  0  0  0  0  0  0  0  0
 27 28  1  0  0  0
 28  1  1  0  0  0
  1  2  2  0  0  0
  1  3  1  0  0  0
  3  4  1  0  0  0
  4  5  1  0  0  0
  5  6  1  0  0  0
  6  7  2  0  0  0
  7  8  1  0  0  0
  8  9  2  0  0  0
  9 10  1  0  0  0
 10 11  1  0  0  0
 11 12  2  0  0  0
 12 16  1  0  0  0
 16 17  1  0  0  0
 17 18  1  0  0  0
 18 19  1  0  0  0
 19 20  1  0  0  0
 20 21  2  0  0  0
 20 24  1  0  0  0
 24 25  1  0  0  0
 19 22  1  0  0  0
 22 23  1  0  0  0
 12 13  1  0  0  0
 13 29  1  0  0  0
 29 30  1  0  0  0
 29 31  1  0  0  0
 31 32  1  0  0  0
 32 33  2  0  0  0
 33 34  1  0  0  0
 34 35  2  0  0  0
 35 36  1  0  0  0
 36 37  2  0  0  0
 10 14  2  0  0  0
 14 15  1  0  0  0
 15  3  1  0  0  0
 14  6  1  0  0  0
 13  9  1  0  0  0
 37 32  1  0  0  0
 23 16  1  0  0  0
 25 26  1  0  0  0
M  END
> <minimizedAffinity>
-8.53567

$$$$
