L2:Q92793:99659
     RDKit          3D

 65 69  0  0  0  0  0  0  0  0999 V2000
    8.4217    0.0901    0.7436 C   0  0  0  0  0  0  0  0  0  0  0  0
    7.2826   -0.4780    0.0972 O   0  0  0  0  0  0  0  0  0  0  0  0
    6.1304    0.2252    0.2781 C   0  0  0  0  0  0  0  0  0  0  0  0
    6.0692    1.2583    0.9345 O   0  0  0  0  0  0  0  0  0  0  0  0
    5.0510   -0.3531   -0.3578 N   0  0  0  0  0  0  0  0  0  0  0  0
    5.1439   -1.5156   -1.2313 C   0  0  0  0  0  0  0  0  0  0  0  0
    4.1158   -2.5706   -0.8324 C   0  0  0  0  0  0  0  0  0  0  0  0
    2.7290   -1.9805   -0.7398 C   0  0  0  0  0  0  0  0  0  0  0  0
    1.6113   -2.8142   -0.8779 C   0  0  0  0  0  0  0  0  0  0  0  0
    0.3096   -2.3143   -0.7784 C   0  0  0  0  0  0  0  0  0  0  0  0
    0.1633   -0.9451   -0.5265 C   0  0  0  0  0  0  0  0  0  0  0  0
    1.2573   -0.0998   -0.3749 C   0  0  0  0  0  0  0  0  0  0  0  0
    0.8469    1.1863   -0.1467 N   0  0  0  0  0  0  0  0  0  0  0  0
   -0.4682    1.1580   -0.1451 C   0  0  0  0  0  0  0  0  0  0  0  0
   -1.3035    2.4620    0.0575 C   0  0  1  0  0  0  0  0  0  0  0  0
   -0.5903    3.6018    0.8257 C   0  0  0  0  0  0  0  0  0  0  0  0
   -1.2454    4.5960   -0.1706 C   0  0  1  0  0  0  0  0  0  0  0  0
   -0.4338    5.8534   -0.5515 C   0  0  0  0  0  0  0  0  0  0  0  0
    0.0844    6.6695    0.2008 O   0  0  0  0  0  0  0  0  0  0  0  0
   -0.3211    6.0489   -1.8872 O   0  0  0  0  0  0  0  0  0  0  0  0
   -1.3112    3.4069   -1.1671 C   0  0  0  0  0  0  0  0  0  0  0  0
   -0.9369   -0.1198   -0.3662 N   0  0  0  0  0  0  0  0  0  0  0  0
   -2.3304   -0.5728   -0.4117 C   0  0  2  0  0  0  0  0  0  0  0  0
   -3.1398    0.1529   -1.4913 C   0  0  0  0  0  0  0  0  0  0  0  0
   -2.9738   -0.5365    0.9905 C   0  0  0  0  0  0  0  0  0  0  0  0
   -4.2432   -1.3584    1.0971 C   0  0  0  0  0  0  0  0  0  0  0  0
   -5.4762   -0.7258    0.8553 C   0  0  0  0  0  0  0  0  0  0  0  0
   -6.6733   -1.4367    0.9223 C   0  0  0  0  0  0  0  0  0  0  0  0
   -6.6576   -2.7903    1.2365 C   0  0  0  0  0  0  0  0  0  0  0  0
   -5.4453   -3.4318    1.4869 C   0  0  0  0  0  0  0  0  0  0  0  0
   -4.2290   -2.7320    1.4194 C   0  0  0  0  0  0  0  0  0  0  0  0
   -2.9548   -3.4684    1.7331 C   0  0  0  0  0  0  0  0  0  0  0  0
    2.5724   -0.6007   -0.4657 C   0  0  0  0  0  0  0  0  0  0  0  0
    3.7576    0.3172   -0.2911 C   0  0  0  0  0  0  0  0  0  0  0  0
    9.2830   -0.5507    0.5354 H   0  0  0  0  0  0  0  0  0  0  0  0
    8.2713    0.1247    1.8272 H   0  0  0  0  0  0  0  0  0  0  0  0
    8.6305    1.0886    0.3470 H   0  0  0  0  0  0  0  0  0  0  0  0
    6.1437   -1.9585   -1.2165 H   0  0  0  0  0  0  0  0  0  0  0  0
    4.9620   -1.1644   -2.2550 H   0  0  0  0  0  0  0  0  0  0  0  0
    4.1348   -3.3823   -1.5688 H   0  0  0  0  0  0  0  0  0  0  0  0
    4.3739   -2.9928    0.1466 H   0  0  0  0  0  0  0  0  0  0  0  0
    1.7488   -3.8774   -1.0692 H   0  0  0  0  0  0  0  0  0  0  0  0
   -0.5397   -2.9774   -0.8978 H   0  0  0  0  0  0  0  0  0  0  0  0
   -2.3046    2.2804    0.4603 H   0  0  0  0  0  0  0  0  0  0  0  0
    0.5053    3.5957    0.7833 H   0  0  0  0  0  0  0  0  0  0  0  0
   -0.8959    3.7206    1.8695 H   0  0  0  0  0  0  0  0  0  0  0  0
   -2.2514    4.8907    0.1651 H   0  0  0  0  0  0  0  0  0  0  0  0
    0.2267    6.8595   -1.9527 H   0  0  0  0  0  0  0  0  0  0  0  0
   -2.2136    3.3675   -1.7838 H   0  0  0  0  0  0  0  0  0  0  0  0
   -0.4359    3.3180   -1.8223 H   0  0  0  0  0  0  0  0  0  0  0  0
   -2.2907   -1.6187   -0.7362 H   0  0  0  0  0  0  0  0  0  0  0  0
   -3.4297    1.1611   -1.1849 H   0  0  0  0  0  0  0  0  0  0  0  0
   -2.5697    0.2341   -2.4235 H   0  0  0  0  0  0  0  0  0  0  0  0
   -4.0601   -0.3950   -1.7188 H   0  0  0  0  0  0  0  0  0  0  0  0
   -3.1990    0.4938    1.2890 H   0  0  0  0  0  0  0  0  0  0  0  0
   -2.2578   -0.8869    1.7448 H   0  0  0  0  0  0  0  0  0  0  0  0
   -5.5130    0.3344    0.6125 H   0  0  0  0  0  0  0  0  0  0  0  0
   -7.6176   -0.9330    0.7330 H   0  0  0  0  0  0  0  0  0  0  0  0
   -7.5891   -3.3472    1.2941 H   0  0  0  0  0  0  0  0  0  0  0  0
   -5.4572   -4.4896    1.7426 H   0  0  0  0  0  0  0  0  0  0  0  0
   -2.2367   -3.3640    0.9161 H   0  0  0  0  0  0  0  0  0  0  0  0
   -3.1332   -4.5406    1.8688 H   0  0  0  0  0  0  0  0  0  0  0  0
   -2.5153   -3.0857    2.6595 H   0  0  0  0  0  0  0  0  0  0  0  0
    3.6688    0.8486    0.6636 H   0  0  0  0  0  0  0  0  0  0  0  0
    3.7489    1.0645   -1.0940 H   0  0  0  0  0  0  0  0  0  0  0  0
  1  2  1  0
  2  3  1  0
  3  4  2  0
  3  5  1  0
  5  6  1  0
  6  7  1  0
  7  8  1  0
  8  9  2  0
  9 10  1  0
 10 11  2  0
 11 12  1  0
 12 13  1  0
 13 14  2  0
 14 15  1  0
 15 16  1  0
 16 17  1  0
 17 18  1  0
 18 19  2  0
 18 20  1  0
 17 21  1  0
 14 22  1  0
 22 23  1  0
 23 24  1  0
 23 25  1  0
 25 26  1  0
 26 27  2  0
 27 28  1  0
 28 29  2  0
 29 30  1  0
 30 31  2  0
 31 32  1  0
 12 33  2  0
 33 34  1  0
 34  5  1  0
 33  8  1  0
 22 11  1  0
 31 26  1  0
 21 15  1  0
  1 35  1  0
  1 36  1  0
  1 37  1  0
  6 38  1  0
  6 39  1  0
  7 40  1  0
  7 41  1  0
  9 42  1  0
 10 43  1  0
 15 44  1  1
 16 45  1  0
 16 46  1  0
 17 47  1  1
 20 48  1  0
 21 49  1  0
 21 50  1  0
 23 51  1  6
 24 52  1  0
 24 53  1  0
 24 54  1  0
 25 55  1  0
 25 56  1  0
 27 57  1  0
 28 58  1  0
 29 59  1  0
 30 60  1  0
 32 61  1  0
 32 62  1  0
 32 63  1  0
 34 64  1  0
 34 65  1  0
M  END
>  <mol_id>  (1) 
99659

>  <source_index>  (1) 
6

>  <layer>  (1) 
L2

>  <uniprot>  (1) 
Q92793

>  <paff>  (1) 
6.2595999999999998

>  <smiles>  (1) 
COC(=O)N1CCc2ccc3c(nc([C@H]4C[C@@H](C(=O)O)C4)n3[C@H](C)Cc3ccccc3C)c2C1

$$$$
