L2:Q92793:99659


 35 39  0  0  0  0  0  0  0  0999 V2000
    8.7657   -6.7819   19.0690 C   0  0  0  0  0  0  0  0  0  0  0  0
    7.9643   -6.4184   19.9220 O   0  0  0  0  0  0  0  0  0  0  0  0
    8.4117   -7.2035   17.8038 N   0  0  0  0  0  0  0  0  0  0  0  0
    9.3678   -7.5261   16.7527 C   0  0  0  0  0  0  0  0  0  0  0  0
    9.0496   -8.8853   16.1358 C   0  0  0  0  0  0  0  0  0  0  0  0
    7.6061   -8.9677   15.7003 C   0  0  0  0  0  0  0  0  0  0  0  0
    7.2346   -9.8809   14.7045 C   0  0  0  0  0  0  0  0  0  0  0  0
    5.9068  -10.0056   14.2855 C   0  0  0  0  0  0  0  0  0  0  0  0
    4.9562   -9.1864   14.9061 C   0  0  0  0  0  0  0  0  0  0  0  0
    5.2991   -8.2805   15.9042 C   0  0  0  0  0  0  0  0  0  0  0  0
    4.1945   -7.5980   16.3382 N   0  0  0  0  0  0  0  0  0  0  0  0
    3.1787   -8.0617   15.6428 C   0  0  0  0  0  0  0  0  0  0  0  0
    3.5875   -9.0377   14.7586 N   0  0  0  0  0  0  0  0  0  0  0  0
    6.6357   -8.1571   16.3364 C   0  0  0  0  0  0  0  0  0  0  0  0
    7.0033   -7.1801   17.4265 C   0  0  0  0  0  0  0  0  0  0  0  0
    1.7376   -7.4938   15.8420 C   0  0  0  0  0  0  0  0  0  0  0  0
    1.6338   -6.2233   16.7212 C   0  0  0  0  0  0  0  0  0  0  0  0
    0.5633   -5.7002   15.7260 C   0  0  0  0  0  0  0  0  0  0  0  0
    1.2324   -6.6206   14.6694 C   0  0  0  0  0  0  0  0  0  0  0  0
    0.5150   -4.1772   15.4752 C   0  0  0  0  0  0  0  0  0  0  0  0
    1.4277   -3.4469   15.1087 O   0  0  0  0  0  0  0  0  0  0  0  0
   -0.6953   -3.6198   15.7189 O   0  0  0  0  0  0  0  0  0  0  0  0
   -0.5591   -2.6746   15.4965 H   0  0  0  0  0  0  0  0  0  0  0  0
   10.4931   -7.0058   20.6345 C   0  0  0  0  0  0  0  0  0  0  0  0
   10.1120   -6.8108   19.2726 O   0  0  0  0  0  0  0  0  0  0  0  0
    2.7614   -9.8151   13.8301 C   0  0  0  0  0  0  0  0  0  0  0  0
    3.1140  -11.3060   13.8511 C   0  0  0  0  0  0  0  0  0  0  0  0
    2.7647   -9.1858   12.4211 C   0  0  0  0  0  0  0  0  0  0  0  0
    3.3562  -10.0872   11.3553 C   0  0  0  0  0  0  0  0  0  0  0  0
    4.7450  -10.0464   11.1350 C   0  0  0  0  0  0  0  0  0  0  0  0
    5.3449  -10.8656   10.1801 C   0  0  0  0  0  0  0  0  0  0  0  0
    4.5658  -11.7356    9.4270 C   0  0  0  0  0  0  0  0  0  0  0  0
    3.1868  -11.7837    9.6264 C   0  0  0  0  0  0  0  0  0  0  0  0
    2.5659  -10.9685   10.5874 C   0  0  0  0  0  0  0  0  0  0  0  0
    1.0700  -11.0385   10.7348 C   0  0  0  0  0  0  0  0  0  0  0  0
 24 25  1  0  0  0
 25  1  1  0  0  0
  1  2  2  0  0  0
  1  3  1  0  0  0
  3  4  1  0  0  0
  4  5  1  0  0  0
  5  6  1  0  0  0
  6  7  2  0  0  0
  7  8  1  0  0  0
  8  9  2  0  0  0
  9 10  1  0  0  0
 10 11  1  0  0  0
 11 12  2  0  0  0
 12 16  1  0  0  0
 16 17  1  0  0  0
 17 18  1  0  0  0
 18 20  1  0  0  0
 20 21  2  0  0  0
 20 22  1  0  0  0
 18 19  1  0  0  0
 12 13  1  0  0  0
 13 26  1  0  0  0
 26 27  1  0  0  0
 26 28  1  0  0  0
 28 29  1  0  0  0
 29 30  2  0  0  0
 30 31  1  0  0  0
 31 32  2  0  0  0
 32 33  1  0  0  0
 33 34  2  0  0  0
 34 35  1  0  0  0
 10 14  2  0  0  0
 14 15  1  0  0  0
 15  3  1  0  0  0
 14  6  1  0  0  0
 13  9  1  0  0  0
 34 29  1  0  0  0
 19 16  1  0  0  0
 22 23  1  0  0  0
M  END
> <minimizedAffinity>
-8.18958

$$$$
