L1:P35354:18361
     RDKit          3D

 45 48  0  0  0  0  0  0  0  0999 V2000
   17.2679   55.3015   12.3550 C   0  0  0  0  0  0  0  0  0  0  0  0
   16.4773   55.3579   13.2884 O   0  0  0  0  0  0  0  0  0  0  0  0
   18.6015   54.9465   12.4462 N   0  0  0  0  0  0  0  0  0  0  0  0
   19.1701   55.1073   11.6267 H   0  0  0  0  0  0  0  0  0  0  0  0
   17.4746   58.2317   10.7553 C   0  0  0  0  0  0  0  0  0  0  0  0
   16.9393   56.9052   10.3903 C   0  0  0  0  0  0  0  0  0  0  0  0
   16.4257   56.8097    9.1360 O   0  0  0  0  0  0  0  0  0  0  0  0
   16.0139   55.5170    8.8979 N   0  0  0  0  0  0  0  0  0  0  0  0
   16.2923   54.8276   10.0139 C   0  0  0  0  0  0  0  0  0  0  0  0
   16.8499   55.6771   11.0156 C   0  0  0  0  0  0  0  0  0  0  0  0
   15.9887   53.4063   10.1064 C   0  0  0  0  0  0  0  0  0  0  0  0
   14.7321   52.9692   10.5597 C   0  0  0  0  0  0  0  0  0  0  0  0
   13.4818   54.0747   11.0279 Cl  0  0  0  0  0  0  0  0  0  0  0  0
   14.4423   51.6027   10.6507 C   0  0  0  0  0  0  0  0  0  0  0  0
   15.4013   50.6570   10.2945 C   0  0  0  0  0  0  0  0  0  0  0  0
   16.6533   51.0764    9.8497 C   0  0  0  0  0  0  0  0  0  0  0  0
   16.9491   52.4419    9.7568 C   0  0  0  0  0  0  0  0  0  0  0  0
   18.5395   52.8692    9.2190 Cl  0  0  0  0  0  0  0  0  0  0  0  0
   19.2942   54.4911   13.5868 C   0  0  0  0  0  0  0  0  0  0  0  0
   20.3864   53.6432   13.3738 C   0  0  0  0  0  0  0  0  0  0  0  0
   21.1237   53.1404   14.4528 C   0  0  0  0  0  0  0  0  0  0  0  0
   20.7870   53.4673   15.7738 C   0  0  0  0  0  0  0  0  0  0  0  0
   19.6873   54.3141   15.9750 C   0  0  0  0  0  0  0  0  0  0  0  0
   18.9486   54.8200   14.8962 C   0  0  0  0  0  0  0  0  0  0  0  0
   21.5590   52.9381   16.9098 C   0  0  0  0  0  0  0  0  0  0  0  0
   22.7688   52.2528   16.7066 C   0  0  0  0  0  0  0  0  0  0  0  0
   23.5034   51.7512   17.7845 C   0  0  0  0  0  0  0  0  0  0  0  0
   23.0394   51.9255   19.0858 C   0  0  0  0  0  0  0  0  0  0  0  0
   21.8425   52.6006   19.3099 C   0  0  0  0  0  0  0  0  0  0  0  0
   21.1096   53.1026   18.2308 C   0  0  0  0  0  0  0  0  0  0  0  0
   17.3273   58.9117    9.9424 H   0  0  0  0  0  0  0  0  0  0  0  0
   18.5204   58.1487   10.9659 H   0  0  0  0  0  0  0  0  0  0  0  0
   16.9641   58.5961   11.6222 H   0  0  0  0  0  0  0  0  0  0  0  0
   13.5150   51.2947   10.9828 H   0  0  0  0  0  0  0  0  0  0  0  0
   15.1852   49.6500   10.3598 H   0  0  0  0  0  0  0  0  0  0  0  0
   17.3659   50.3775    9.5875 H   0  0  0  0  0  0  0  0  0  0  0  0
   20.6517   53.3853   12.4104 H   0  0  0  0  0  0  0  0  0  0  0  0
   21.9279   52.5192   14.2727 H   0  0  0  0  0  0  0  0  0  0  0  0
   19.4162   54.5702   16.9373 H   0  0  0  0  0  0  0  0  0  0  0  0
   18.1431   55.4404   15.0730 H   0  0  0  0  0  0  0  0  0  0  0  0
   23.1205   52.1177   15.7458 H   0  0  0  0  0  0  0  0  0  0  0  0
   24.3904   51.2513   17.6159 H   0  0  0  0  0  0  0  0  0  0  0  0
   23.5814   51.5552   19.8822 H   0  0  0  0  0  0  0  0  0  0  0  0
   21.4963   52.7304   20.2734 H   0  0  0  0  0  0  0  0  0  0  0  0
   20.2240   53.6022   18.4072 H   0  0  0  0  0  0  0  0  0  0  0  0
  1  2  2  0
  1  3  1  0
  3 19  1  0
  3  4  1  0
  5  6  1  0
  5 31  1  0
  5 32  1  0
  5 33  1  0
  6  7  1  0
  7  8  1  0
  8  9  2  0
  9 11  1  0
  9 10  1  0
 10  1  1  0
 10  6  2  0
 11 12  2  0
 12 13  1  0
 12 14  1  0
 14 15  2  0
 14 34  1  0
 15 16  1  0
 15 35  1  0
 16 17  2  0
 16 36  1  0
 17 18  1  0
 17 11  1  0
 19 20  2  0
 20 21  1  0
 20 37  1  0
 21 22  2  0
 21 38  1  0
 22 25  1  0
 22 23  1  0
 23 24  2  0
 23 39  1  0
 24 19  1  0
 24 40  1  0
 25 26  2  0
 26 27  1  0
 26 41  1  0
 27 28  2  0
 27 42  1  0
 28 29  1  0
 28 43  1  0
 29 30  2  0
 29 44  1  0
 30 25  1  0
 30 45  1  0
M  END
>  <minimizedAffinity>  (1) 
-6.96204

>  <mol_id>  (1) 
18361

>  <source_index>  (1) 
0

>  <layer>  (1) 
L1

>  <uniprot>  (1) 
P35354

>  <paff>  (1) 
6.2765000000000004

>  <smiles>  (1) 
Cc1onc(-c2c(Cl)cccc2Cl)c1C(=O)Nc1ccc(-c2ccccc2)cc1

$$$$
L1:P35354:26932
     RDKit          3D

 40 42  0  0  0  0  0  0  0  0999 V2000
   34.8324   50.8270   17.1137 C   0  0  0  0  0  0  0  0  0  0  0  0
   34.9760   51.5882   15.9581 C   0  0  0  0  0  0  0  0  0  0  0  0
   34.3257   51.2409   14.7691 C   0  0  0  0  0  0  0  0  0  0  0  0
   33.5285   50.0813   14.7510 C   0  0  0  0  0  0  0  0  0  0  0  0
   33.3860   49.2910   15.8918 C   0  0  0  0  0  0  0  0  0  0  0  0
   34.0423   49.6747   17.0859 C   0  0  0  0  0  0  0  0  0  0  0  0
   32.5509   48.1867   15.5527 C   0  0  0  0  0  0  0  0  0  0  0  0
   32.2223   48.3159   14.2104 C   0  0  0  0  0  0  0  0  0  0  0  0
   31.5064   47.3283   13.3482 C   0  0  0  0  0  0  0  0  0  0  0  0
   32.7036   49.5470   13.7557 N   0  0  0  0  0  0  0  0  0  0  0  0
   32.4105   50.1781   12.5192 C   0  0  0  0  0  0  0  0  0  0  0  0
   33.2683   50.9057   12.0202 O   0  0  0  0  0  0  0  0  0  0  0  0
   31.1212   50.0545   11.7949 C   0  0  0  0  0  0  0  0  0  0  0  0
   31.0968   49.4050   10.5540 C   0  0  0  0  0  0  0  0  0  0  0  0
   29.8987   49.3041    9.8429 C   0  0  0  0  0  0  0  0  0  0  0  0
   28.7335   49.8652   10.3654 C   0  0  0  0  0  0  0  0  0  0  0  0
   27.2591   49.7389    9.4883 Cl  0  0  0  0  0  0  0  0  0  0  0  0
   28.7565   50.5341   11.5893 C   0  0  0  0  0  0  0  0  0  0  0  0
   29.9535   50.6385   12.3032 C   0  0  0  0  0  0  0  0  0  0  0  0
   36.5814   50.4956   18.6861 C   0  0  0  0  0  0  0  0  0  0  0  0
   35.5129   51.3023   18.2031 O   0  0  0  0  0  0  0  0  0  0  0  0
   32.1523   47.0791   16.4852 C   0  0  0  0  0  0  0  0  0  0  0  0
   33.2779   46.0830   16.6825 C   0  0  0  0  0  0  0  0  0  0  0  0
   33.8641   45.9028   17.7441 O   0  0  0  0  0  0  0  0  0  0  0  0
   33.8239   45.0164   15.3115 S   0  0  0  0  0  0  0  0  0  0  0  0
   35.5757   52.4279   15.9784 H   0  0  0  0  0  0  0  0  0  0  0  0
   34.4284   51.8228   13.9230 H   0  0  0  0  0  0  0  0  0  0  0  0
   33.9370   49.1021   17.9380 H   0  0  0  0  0  0  0  0  0  0  0  0
   31.2428   46.4708   13.9314 H   0  0  0  0  0  0  0  0  0  0  0  0
   32.1444   47.0295   12.5428 H   0  0  0  0  0  0  0  0  0  0  0  0
   30.6192   47.7772   12.9528 H   0  0  0  0  0  0  0  0  0  0  0  0
   31.9634   49.0013   10.1654 H   0  0  0  0  0  0  0  0  0  0  0  0
   29.8757   48.8160    8.9339 H   0  0  0  0  0  0  0  0  0  0  0  0
   27.8913   50.9511   11.9669 H   0  0  0  0  0  0  0  0  0  0  0  0
   29.9772   51.1444   13.2024 H   0  0  0  0  0  0  0  0  0  0  0  0
   37.0316   50.9698   19.5331 H   0  0  0  0  0  0  0  0  0  0  0  0
   37.3130   50.3736   17.9149 H   0  0  0  0  0  0  0  0  0  0  0  0
   36.2028   49.5369   18.9734 H   0  0  0  0  0  0  0  0  0  0  0  0
   31.3051   46.5691   16.0764 H   0  0  0  0  0  0  0  0  0  0  0  0
   31.9169   47.5105   17.4357 H   0  0  0  0  0  0  0  0  0  0  0  0
  1  2  2  0
  2  3  1  0
  2 26  1  0
  3  4  2  0
  3 27  1  0
  4  5  1  0
  5  6  2  0
  5  7  1  0
  6  1  1  0
  6 28  1  0
  7 22  1  0
  7  8  2  0
  8  9  1  0
  8 10  1  0
  9 29  1  0
  9 30  1  0
  9 31  1  0
 10 11  1  0
 10  4  1  0
 11 12  2  0
 11 13  1  0
 13 14  2  0
 14 15  1  0
 14 32  1  0
 15 16  2  0
 15 33  1  0
 16 17  1  0
 16 18  1  0
 18 19  2  0
 18 34  1  0
 19 13  1  0
 19 35  1  0
 20 21  1  0
 20 36  1  0
 20 37  1  0
 20 38  1  0
 21  1  1  0
 22 23  1  0
 22 39  1  0
 22 40  1  0
 23 24  2  0
 23 25  1  0
M  CHG  1  25  -1
M  END
>  <minimizedAffinity>  (2) 
-5.16032

>  <mol_id>  (2) 
26932

>  <source_index>  (2) 
1

>  <layer>  (2) 
L1

>  <uniprot>  (2) 
P35354

>  <paff>  (2) 
8.0222999999999995

>  <smiles>  (2) 
COc1ccc2c(c1)c(CC(=O)[S-])c(C)n2C(=O)c1ccc(Cl)cc1

$$$$
L1:P35354:34171
     RDKit          3D

 47 49  0  0  0  0  0  0  0  0999 V2000
   32.9234   52.1192   12.9831 C   0  0  0  0  0  0  0  0  0  0  0  0
   32.8809   50.6455   13.0500 C   0  0  0  0  0  0  0  0  0  0  0  0
   34.0269   50.0239   13.4275 O   0  0  0  0  0  0  0  0  0  0  0  0
   33.8237   48.6597   13.4627 N   0  0  0  0  0  0  0  0  0  0  0  0
   32.5420   48.4666   13.1184 C   0  0  0  0  0  0  0  0  0  0  0  0
   31.9059   49.7029   12.7997 C   0  0  0  0  0  0  0  0  0  0  0  0
   31.9726   47.1254   13.1512 C   0  0  0  0  0  0  0  0  0  0  0  0
   31.5751   46.5470   14.3688 C   0  0  0  0  0  0  0  0  0  0  0  0
   31.7019   47.3875   15.8768 Cl  0  0  0  0  0  0  0  0  0  0  0  0
   31.0409   45.2537   14.4020 C   0  0  0  0  0  0  0  0  0  0  0  0
   30.8958   44.5228   13.2247 C   0  0  0  0  0  0  0  0  0  0  0  0
   31.2778   45.0866   12.0097 C   0  0  0  0  0  0  0  0  0  0  0  0
   31.8114   46.3796   11.9713 C   0  0  0  0  0  0  0  0  0  0  0  0
   32.1957   47.0315   10.4138 Cl  0  0  0  0  0  0  0  0  0  0  0  0
   30.5513   49.9951   12.3717 C   0  0  0  0  0  0  0  0  0  0  0  0
   29.6666   50.1975   13.1941 O   0  0  0  0  0  0  0  0  0  0  0  0
   30.4147   50.0687   10.9985 N   0  0  0  0  0  0  0  0  0  0  0  0
   31.2694   50.0930   10.4579 H   0  0  0  0  0  0  0  0  0  0  0  0
   29.2274   50.2406   10.2600 C   0  0  0  0  0  0  0  0  0  0  0  0
   28.9440   51.5273    9.7953 C   0  0  0  0  0  0  0  0  0  0  0  0
   27.7902   51.7841    9.0420 C   0  0  0  0  0  0  0  0  0  0  0  0
   26.8848   50.7612    8.7257 C   0  0  0  0  0  0  0  0  0  0  0  0
   27.1901   49.4711    9.1976 C   0  0  0  0  0  0  0  0  0  0  0  0
   28.3432   49.2125    9.9513 C   0  0  0  0  0  0  0  0  0  0  0  0
   25.6074   51.0016    7.9030 C   0  0  0  0  0  0  0  0  0  0  0  0
   25.8593   52.1189    6.8676 C   0  0  0  0  0  0  0  0  0  0  0  0
   25.2132   49.7042    7.1645 C   0  0  0  0  0  0  0  0  0  0  0  0
   24.3899   51.4317    8.7522 C   0  0  0  0  0  0  0  0  0  0  0  0
   33.8971   52.4611   13.2656 H   0  0  0  0  0  0  0  0  0  0  0  0
   32.1942   52.5277   13.6511 H   0  0  0  0  0  0  0  0  0  0  0  0
   32.7097   52.4372   11.9840 H   0  0  0  0  0  0  0  0  0  0  0  0
   30.7532   44.8397   15.3025 H   0  0  0  0  0  0  0  0  0  0  0  0
   30.5068   43.5673   13.2528 H   0  0  0  0  0  0  0  0  0  0  0  0
   31.1670   44.5494   11.1356 H   0  0  0  0  0  0  0  0  0  0  0  0
   29.5936   52.3000   10.0098 H   0  0  0  0  0  0  0  0  0  0  0  0
   27.6035   52.7445    8.7138 H   0  0  0  0  0  0  0  0  0  0  0  0
   26.5467   48.6933    8.9826 H   0  0  0  0  0  0  0  0  0  0  0  0
   28.5372   48.2534   10.2791 H   0  0  0  0  0  0  0  0  0  0  0  0
   26.6985   51.8572    6.2575 H   0  0  0  0  0  0  0  0  0  0  0  0
   26.0613   53.0381    7.3768 H   0  0  0  0  0  0  0  0  0  0  0  0
   24.9927   52.2357    6.2510 H   0  0  0  0  0  0  0  0  0  0  0  0
   26.0337   49.3729    6.5629 H   0  0  0  0  0  0  0  0  0  0  0  0
   24.3659   49.8932    6.5391 H   0  0  0  0  0  0  0  0  0  0  0  0
   24.9669   48.9475    7.8797 H   0  0  0  0  0  0  0  0  0  0  0  0
   24.6244   52.3314    9.2818 H   0  0  0  0  0  0  0  0  0  0  0  0
   24.1517   50.6579    9.4517 H   0  0  0  0  0  0  0  0  0  0  0  0
   23.5507   51.6036    8.1111 H   0  0  0  0  0  0  0  0  0  0  0  0
  1  2  1  0
  1 29  1  0
  1 30  1  0
  1 31  1  0
  2  3  1  0
  3  4  1  0
  4  5  2  0
  5  7  1  0
  5  6  1  0
  6 15  1  0
  6  2  2  0
  7  8  2  0
  8  9  1  0
  8 10  1  0
 10 11  2  0
 10 32  1  0
 11 12  1  0
 11 33  1  0
 12 13  2  0
 12 34  1  0
 13 14  1  0
 13  7  1  0
 15 16  2  0
 15 17  1  0
 17 19  1  0
 17 18  1  0
 19 20  2  0
 20 21  1  0
 20 35  1  0
 21 22  2  0
 21 36  1  0
 22 25  1  0
 22 23  1  0
 23 24  2  0
 23 37  1  0
 24 19  1  0
 24 38  1  0
 25 26  1  0
 25 27  1  0
 25 28  1  0
 26 39  1  0
 26 40  1  0
 26 41  1  0
 27 42  1  0
 27 43  1  0
 27 44  1  0
 28 45  1  0
 28 46  1  0
 28 47  1  0
M  END
>  <minimizedAffinity>  (3) 
-5.65640

>  <mol_id>  (3) 
34171

>  <source_index>  (3) 
2

>  <layer>  (3) 
L1

>  <uniprot>  (3) 
P35354

>  <paff>  (3) 
6.5213999999999999

>  <smiles>  (3) 
Cc1onc(-c2c(Cl)cccc2Cl)c1C(=O)Nc1ccc(C(C)(C)C)cc1

$$$$
L1:P35354:34316
     RDKit          3D

 29 30  0  0  0  0  0  0  0  0999 V2000
   22.8386   49.7691   17.2663 C   0  0  0  0  0  0  0  0  0  0  0  0
   22.7569   48.3989   16.9587 C   0  0  0  0  0  0  0  0  0  0  0  0
   22.1541   47.9641   15.7801 C   0  0  0  0  0  0  0  0  0  0  0  0
   21.6182   48.8931   14.8962 C   0  0  0  0  0  0  0  0  0  0  0  0
   21.7030   50.2580   15.1821 C   0  0  0  0  0  0  0  0  0  0  0  0
   22.3374   50.7198   16.3471 C   0  0  0  0  0  0  0  0  0  0  0  0
   22.4160   52.1082   16.6581 N   0  0  0  0  0  0  0  0  0  0  0  0
   23.1045   52.5402   15.9990 H   0  0  0  0  0  0  0  0  0  0  0  0
   21.3230   52.9795   16.8976 C   0  0  0  0  0  0  0  0  0  0  0  0
   20.6441   53.6016   15.8292 C   0  0  0  0  0  0  0  0  0  0  0  0
   21.0458   53.2760   14.1745 Cl  0  0  0  0  0  0  0  0  0  0  0  0
   19.5917   54.4981   16.0603 C   0  0  0  0  0  0  0  0  0  0  0  0
   19.2027   54.8033   17.3613 C   0  0  0  0  0  0  0  0  0  0  0  0
   19.8718   54.2172   18.4320 C   0  0  0  0  0  0  0  0  0  0  0  0
   20.9256   53.3211   18.2048 C   0  0  0  0  0  0  0  0  0  0  0  0
   21.7296   52.6911   19.5993 Cl  0  0  0  0  0  0  0  0  0  0  0  0
   23.4470   50.1751   18.5935 C   0  0  0  0  0  0  0  0  0  0  0  0
   25.6784   49.5957   19.1319 O   0  0  0  0  0  0  0  0  0  0  0  0
   24.9522   50.4130   18.4983 C   0  0  0  0  0  0  0  0  0  0  0  0
   25.2895   51.4307   17.8186 O   0  0  0  0  0  0  0  0  0  0  0  0
   23.1490   47.7059   17.6152 H   0  0  0  0  0  0  0  0  0  0  0  0
   22.1058   46.9561   15.5643 H   0  0  0  0  0  0  0  0  0  0  0  0
   21.1579   48.5749   14.0291 H   0  0  0  0  0  0  0  0  0  0  0  0
   21.2919   50.9395   14.5252 H   0  0  0  0  0  0  0  0  0  0  0  0
   19.1032   54.9337   15.2624 H   0  0  0  0  0  0  0  0  0  0  0  0
   18.4241   55.4591   17.5309 H   0  0  0  0  0  0  0  0  0  0  0  0
   19.5904   54.4437   19.3987 H   0  0  0  0  0  0  0  0  0  0  0  0
   22.9772   51.0776   18.9246 H   0  0  0  0  0  0  0  0  0  0  0  0
   23.2876   49.3728   19.2832 H   0  0  0  0  0  0  0  0  0  0  0  0
  1  2  2  0
  2  3  1  0
  2 21  1  0
  3  4  2  0
  3 22  1  0
  4  5  1  0
  4 23  1  0
  5  6  2  0
  5 24  1  0
  6  7  1  0
  6  1  1  0
  7  9  1  0
  7  8  1  0
  9 10  2  0
 10 11  1  0
 10 12  1  0
 12 13  2  0
 12 25  1  0
 13 14  1  0
 13 26  1  0
 14 15  2  0
 14 27  1  0
 15 16  1  0
 15  9  1  0
 17  1  1  0
 17 28  1  0
 17 29  1  0
 18 19  1  0
 19 20  2  0
 19 17  1  0
M  CHG  1  18  -1
M  END
>  <minimizedAffinity>  (4) 
-7.90487

>  <mol_id>  (4) 
34316

>  <source_index>  (4) 
3

>  <layer>  (4) 
L1

>  <uniprot>  (4) 
P35354

>  <paff>  (4) 
6.0757000000000003

>  <smiles>  (4) 
[O-]C(=O)Cc1ccccc1Nc1c(Cl)cccc1Cl

$$$$
L1:P35354:53979
     RDKit          3D

 42 45  0  0  0  0  0  0  0  0999 V2000
   24.8987   47.0071   27.2785 C   0  0  0  0  0  0  0  0  0  0  0  0
   24.8308   46.3425   25.9253 C   0  0  0  0  0  0  0  0  0  0  0  0
   23.7569   45.8374   25.3892 N   0  0  0  0  0  0  0  0  0  0  0  0
   22.5979   45.9592   26.1021 C   0  0  0  0  0  0  0  0  0  0  0  0
   21.2993   45.5698   25.8633 C   0  0  0  0  0  0  0  0  0  0  0  0
   20.5589   45.9328   27.0048 C   0  0  0  0  0  0  0  0  0  0  0  0
   19.2483   45.6974   27.1817 N   0  0  0  0  0  0  0  0  0  0  0  0
   21.3108   46.5557   27.9060 N   0  0  0  0  0  0  0  0  0  0  0  0
   22.5592   46.5814   27.3490 N   0  0  0  0  0  0  0  0  0  0  0  0
   23.7296   47.1172   27.9491 C   0  0  0  0  0  0  0  0  0  0  0  0
   23.5630   47.7031   29.2087 N   0  0  0  0  0  0  0  0  0  0  0  0
   18.7767   46.2293   27.9044 H   0  0  0  0  0  0  0  0  0  0  0  0
   18.6672   45.4903   26.3761 H   0  0  0  0  0  0  0  0  0  0  0  0
   24.3456   47.5974   29.8507 H   0  0  0  0  0  0  0  0  0  0  0  0
   22.6658   47.4341   29.6290 H   0  0  0  0  0  0  0  0  0  0  0  0
   26.0899   46.2323   25.1437 C   0  0  0  0  0  0  0  0  0  0  0  0
   26.8395   45.0532   25.2482 C   0  0  0  0  0  0  0  0  0  0  0  0
   28.0144   44.9130   24.5088 C   0  0  0  0  0  0  0  0  0  0  0  0
   28.4202   45.9416   23.6643 C   0  0  0  0  0  0  0  0  0  0  0  0
   29.5469   45.8042   22.9539 F   0  0  0  0  0  0  0  0  0  0  0  0
   27.6689   47.1062   23.5371 C   0  0  0  0  0  0  0  0  0  0  0  0
   26.4912   47.2533   24.2725 C   0  0  0  0  0  0  0  0  0  0  0  0
   27.1330   47.8167   28.2836 N   0  0  0  0  0  0  0  0  0  0  0  0
   26.1262   47.4594   27.8303 C   0  0  0  0  0  0  0  0  0  0  0  0
   20.7905   44.8892   24.7510 N   0  0  0  0  0  0  0  0  0  0  0  0
   20.6532   43.6661   24.9698 N   0  0  0  0  0  0  0  0  0  0  0  0
   20.0940   43.0315   23.8479 C   0  0  0  0  0  0  0  0  0  0  0  0
   19.9523   43.7411   22.6491 C   0  0  0  0  0  0  0  0  0  0  0  0
   19.4234   43.1226   21.5126 C   0  0  0  0  0  0  0  0  0  0  0  0
   19.0451   41.7853   21.5786 C   0  0  0  0  0  0  0  0  0  0  0  0
   18.5254   41.1402   20.4963 O   0  0  0  0  0  0  0  0  0  0  0  0
   19.1902   41.0599   22.7555 C   0  0  0  0  0  0  0  0  0  0  0  0
   19.7195   41.6819   23.8878 C   0  0  0  0  0  0  0  0  0  0  0  0
   18.4891   41.7609   19.7501 H   0  0  0  0  0  0  0  0  0  0  0  0
   26.5240   44.2918   25.8693 H   0  0  0  0  0  0  0  0  0  0  0  0
   28.5785   44.0524   24.5877 H   0  0  0  0  0  0  0  0  0  0  0  0
   27.9808   47.8576   22.9022 H   0  0  0  0  0  0  0  0  0  0  0  0
   25.9207   48.1077   24.1750 H   0  0  0  0  0  0  0  0  0  0  0  0
   20.2413   44.7308   22.6042 H   0  0  0  0  0  0  0  0  0  0  0  0
   19.3146   43.6524   20.6337 H   0  0  0  0  0  0  0  0  0  0  0  0
   18.9084   40.0678   22.7920 H   0  0  0  0  0  0  0  0  0  0  0  0
   19.8358   41.1437   24.7606 H   0  0  0  0  0  0  0  0  0  0  0  0
  1  2  1  0
  2 16  1  0
  2  3  2  0
  3  4  1  0
  4  5  2  0
  5 25  1  0
  5  6  1  0
  6  7  1  0
  6  8  2  0
  7 12  1  0
  7 13  1  0
  8  9  1  0
  9 10  1  0
  9  4  1  0
 10 11  1  0
 10  1  2  0
 11 14  1  0
 11 15  1  0
 16 17  2  0
 17 18  1  0
 17 35  1  0
 18 19  2  0
 18 36  1  0
 19 20  1  0
 19 21  1  0
 21 22  2  0
 21 37  1  0
 22 16  1  0
 22 38  1  0
 23 24  3  0
 24  1  1  0
 25 26  2  0
 26 27  1  0
 27 28  2  0
 28 29  1  0
 28 39  1  0
 29 30  2  0
 29 40  1  0
 30 31  1  0
 30 32  1  0
 31 34  1  0
 32 33  2  0
 32 41  1  0
 33 27  1  0
 33 42  1  0
M  END
>  <minimizedAffinity>  (5) 
-5.82768

>  <mol_id>  (5) 
53979

>  <source_index>  (5) 
4

>  <layer>  (5) 
L1

>  <uniprot>  (5) 
P35354

>  <paff>  (5) 
7.0555000000000003

>  <smiles>  (5) 
N#Cc1c(-c2ccc(F)cc2)nc2c(/N=N/c3ccc(O)cc3)c(N)nn2c1N

$$$$
L1:P35354:86098
     RDKit          3D

 33 34  0  0  0  0  0  0  0  0999 V2000
   20.3430   53.6468   16.3472 C   0  0  0  0  0  0  0  0  0  0  0  0
   20.5111   52.2199   16.4071 O   0  0  0  0  0  0  0  0  0  0  0  0
   21.6127   52.2004   14.3934 O   0  0  0  0  0  0  0  0  0  0  0  0
   21.3337   51.6913   15.4671 C   0  0  0  0  0  0  0  0  0  0  0  0
   21.8777   50.3819   15.9211 C   0  0  0  0  0  0  0  0  0  0  0  0
   22.5857   50.2369   17.1247 C   0  0  0  0  0  0  0  0  0  0  0  0
   23.0752   48.9835   17.5026 C   0  0  0  0  0  0  0  0  0  0  0  0
   22.8570   47.8829   16.6810 C   0  0  0  0  0  0  0  0  0  0  0  0
   23.3278   46.6840   17.0468 F   0  0  0  0  0  0  0  0  0  0  0  0
   22.1577   48.0087   15.4863 C   0  0  0  0  0  0  0  0  0  0  0  0
   21.6666   49.2594   15.1046 C   0  0  0  0  0  0  0  0  0  0  0  0
   19.2099   54.0918   17.2706 C   0  0  0  0  0  0  0  0  0  0  0  0
   19.7159   54.9074   18.4322 C   0  0  0  0  0  0  0  0  0  0  0  0
   19.6095   56.3034   18.4247 C   0  0  0  0  0  0  0  0  0  0  0  0
   20.0964   57.0540   19.4982 C   0  0  0  0  0  0  0  0  0  0  0  0
   20.7140   56.4263   20.5866 C   0  0  0  0  0  0  0  0  0  0  0  0
   20.8027   55.0293   20.5997 C   0  0  0  0  0  0  0  0  0  0  0  0
   20.3170   54.2757   19.5282 C   0  0  0  0  0  0  0  0  0  0  0  0
   21.1806   57.1823   21.6750 N   0  0  0  0  0  0  0  0  0  0  0  0
   22.3237   57.0004   21.8776 C   0  0  0  0  0  0  0  0  0  0  0  0
   24.0753   56.7396   22.2051 S   0  0  0  0  0  0  0  0  0  0  0  0
   20.1109   53.9321   15.3424 H   0  0  0  0  0  0  0  0  0  0  0  0
   21.2513   54.1157   16.6635 H   0  0  0  0  0  0  0  0  0  0  0  0
   22.7449   51.0567   17.7311 H   0  0  0  0  0  0  0  0  0  0  0  0
   23.5960   48.8753   18.3870 H   0  0  0  0  0  0  0  0  0  0  0  0
   22.0025   47.1840   14.8856 H   0  0  0  0  0  0  0  0  0  0  0  0
   21.1465   49.3588   14.2188 H   0  0  0  0  0  0  0  0  0  0  0  0
   18.7115   53.2238   17.6490 H   0  0  0  0  0  0  0  0  0  0  0  0
   18.5418   54.7048   16.7024 H   0  0  0  0  0  0  0  0  0  0  0  0
   19.1693   56.7805   17.6224 H   0  0  0  0  0  0  0  0  0  0  0  0
   19.9997   58.0814   19.4886 H   0  0  0  0  0  0  0  0  0  0  0  0
   21.2308   54.5517   21.4082 H   0  0  0  0  0  0  0  0  0  0  0  0
   20.4017   53.2473   19.5444 H   0  0  0  0  0  0  0  0  0  0  0  0
  1 12  1  0
  1 22  1  0
  1 23  1  0
  2  1  1  0
  3  4  2  0
  4  2  1  0
  4  5  1  0
  5  6  2  0
  6  7  1  0
  6 24  1  0
  7  8  2  0
  7 25  1  0
  8  9  1  0
  8 10  1  0
 10 11  2  0
 10 26  1  0
 11  5  1  0
 11 27  1  0
 12 13  1  0
 12 28  1  0
 12 29  1  0
 13 14  2  0
 14 15  1  0
 14 30  1  0
 15 16  2  0
 15 31  1  0
 16 19  1  0
 16 17  1  0
 17 18  2  0
 17 32  1  0
 18 13  1  0
 18 33  1  0
 19 20  2  0
 20 21  2  0
M  END
>  <minimizedAffinity>  (6) 
-7.24145

>  <mol_id>  (6) 
86098

>  <source_index>  (6) 
5

>  <layer>  (6) 
L1

>  <uniprot>  (6) 
P35354

>  <paff>  (6) 
7.6021000000000001

>  <smiles>  (6) 
O=C(OCCc1ccc(N=C=S)cc1)c1ccc(F)cc1

$$$$
L1:P35354:90716
     RDKit          3D

 33 35  0  0  0  0  0  0  0  0999 V2000
   22.8138   45.1287   25.8449 C   0  0  0  0  0  0  0  0  0  0  0  0
   23.2127   46.4440   26.0919 C   0  0  0  0  0  0  0  0  0  0  0  0
   24.5615   46.7214   26.3292 C   0  0  0  0  0  0  0  0  0  0  0  0
   25.5173   45.6937   26.3136 C   0  0  0  0  0  0  0  0  0  0  0  0
   25.1000   44.3795   26.0493 C   0  0  0  0  0  0  0  0  0  0  0  0
   23.7526   44.0950   25.8118 C   0  0  0  0  0  0  0  0  0  0  0  0
   20.3290   45.8995   26.4789 N   0  0  0  0  0  0  0  0  0  0  0  0
   21.1129   44.7768   25.5087 S   0  0  0  0  0  0  0  0  0  0  0  0
   20.7818   43.4799   26.0508 O   0  0  0  0  0  0  0  0  0  0  0  0
   20.8111   45.1478   24.1462 O   0  0  0  0  0  0  0  0  0  0  0  0
   19.7686   45.4183   27.1830 H   0  0  0  0  0  0  0  0  0  0  0  0
   19.7927   46.5448   25.8981 H   0  0  0  0  0  0  0  0  0  0  0  0
   26.9298   46.0001   26.5464 C   0  0  0  0  0  0  0  0  0  0  0  0
   27.6389   45.6574   28.0767 S   0  0  0  0  0  0  0  0  0  0  0  0
   29.1436   46.2498   27.7207 N   0  0  0  0  0  0  0  0  0  0  0  0
   29.1257   46.7049   26.4725 C   0  0  0  0  0  0  0  0  0  0  0  0
   27.8973   46.5930   25.7439 C   0  0  0  0  0  0  0  0  0  0  0  0
   27.6630   47.0293   24.3746 C   0  0  0  0  0  0  0  0  0  0  0  0
   28.0663   46.2372   23.2892 C   0  0  0  0  0  0  0  0  0  0  0  0
   27.8383   46.6693   21.9810 C   0  0  0  0  0  0  0  0  0  0  0  0
   27.2150   47.8918   21.7614 C   0  0  0  0  0  0  0  0  0  0  0  0
   26.9974   48.3057   20.5065 F   0  0  0  0  0  0  0  0  0  0  0  0
   26.8158   48.6931   22.8247 C   0  0  0  0  0  0  0  0  0  0  0  0
   27.0415   48.2638   24.1343 C   0  0  0  0  0  0  0  0  0  0  0  0
   22.5164   47.2056   26.0991 H   0  0  0  0  0  0  0  0  0  0  0  0
   24.8579   47.6918   26.5178 H   0  0  0  0  0  0  0  0  0  0  0  0
   25.7947   43.6166   26.0302 H   0  0  0  0  0  0  0  0  0  0  0  0
   23.4532   43.1276   25.6133 H   0  0  0  0  0  0  0  0  0  0  0  0
   29.9658   47.1236   26.0436 H   0  0  0  0  0  0  0  0  0  0  0  0
   28.5329   45.3323   23.4581 H   0  0  0  0  0  0  0  0  0  0  0  0
   28.1308   46.0846   21.1825 H   0  0  0  0  0  0  0  0  0  0  0  0
   26.3555   49.5996   22.6475 H   0  0  0  0  0  0  0  0  0  0  0  0
   26.7503   48.8563   24.9275 H   0  0  0  0  0  0  0  0  0  0  0  0
  1  2  2  0
  2  3  1  0
  2 25  1  0
  3  4  2  0
  3 26  1  0
  4 13  1  0
  4  5  1  0
  5  6  2  0
  5 27  1  0
  6  1  1  0
  6 28  1  0
  7  8  1  0
  7 11  1  0
  7 12  1  0
  8  9  2  0
  8 10  2  0
  8  1  1  0
 13 14  1  0
 14 15  1  0
 15 16  2  0
 16 17  1  0
 16 29  1  0
 17 18  1  0
 17 13  2  0
 18 19  2  0
 19 20  1  0
 19 30  1  0
 20 21  2  0
 20 31  1  0
 21 22  1  0
 21 23  1  0
 23 24  2  0
 23 32  1  0
 24 18  1  0
 24 33  1  0
M  END
>  <minimizedAffinity>  (7) 
-5.78080

>  <mol_id>  (7) 
90716

>  <source_index>  (7) 
6

>  <layer>  (7) 
L1

>  <uniprot>  (7) 
P35354

>  <paff>  (7) 
7.1612

>  <smiles>  (7) 
NS(=O)(=O)c1ccc(-c2sncc2-c2ccc(F)cc2)cc1

$$$$
L1:P35354:110734
     RDKit          3D

 42 44  0  0  0  0  0  0  0  0999 V2000
   20.0363   53.2190   15.6066 C   0  0  0  0  0  0  0  0  0  0  0  0
   20.1592   53.3885   14.2827 C   0  0  0  0  0  0  0  0  0  0  0  0
   19.2411   54.5712   13.4048 S   0  0  0  0  0  0  0  0  0  0  0  0
   20.0297   54.1809   11.8922 C   0  0  0  0  0  0  0  0  0  0  0  0
   19.6687   54.7404   10.7892 N   0  0  0  0  0  0  0  0  0  0  0  0
   20.9895   53.2395   12.1034 N   0  0  0  0  0  0  0  0  0  0  0  0
   21.0626   52.6617   13.3401 C   0  0  0  0  0  0  0  0  0  0  0  0
   21.6965   51.6506   13.5788 O   0  0  0  0  0  0  0  0  0  0  0  0
   21.5369   52.8605   11.3391 H   0  0  0  0  0  0  0  0  0  0  0  0
   22.2544   51.8030   18.3014 C   0  0  0  0  0  0  0  0  0  0  0  0
   21.5402   52.7071   17.5050 C   0  0  0  0  0  0  0  0  0  0  0  0
   20.7961   52.2608   16.4116 C   0  0  0  0  0  0  0  0  0  0  0  0
   20.7996   50.9050   16.0933 C   0  0  0  0  0  0  0  0  0  0  0  0
   21.5592   50.0102   16.8516 C   0  0  0  0  0  0  0  0  0  0  0  0
   22.2590   50.4348   17.9909 C   0  0  0  0  0  0  0  0  0  0  0  0
   22.1623   52.7991   20.4287 C   0  0  0  0  0  0  0  0  0  0  0  0
   22.9642   52.3860   19.3239 O   0  0  0  0  0  0  0  0  0  0  0  0
   21.5851   48.6995   16.4405 O   0  0  0  0  0  0  0  0  0  0  0  0
   22.2821   48.6027   15.1948 C   0  0  0  0  0  0  0  0  0  0  0  0
   23.0469   49.6086   18.7505 O   0  0  0  0  0  0  0  0  0  0  0  0
   24.3765   49.4396   18.2726 C   0  0  0  0  0  0  0  0  0  0  0  0
   20.3259   54.3876    9.6553 C   0  0  0  0  0  0  0  0  0  0  0  0
   20.5166   53.1811    9.1545 N   0  0  0  0  0  0  0  0  0  0  0  0
   21.2612   53.1776    7.9958 N   0  0  0  0  0  0  0  0  0  0  0  0
   21.5880   54.3965    7.6236 C   0  0  0  0  0  0  0  0  0  0  0  0
   22.3754   54.7288    6.4072 C   0  0  0  0  0  0  0  0  0  0  0  0
   21.0255   55.6247    8.6776 S   0  0  0  0  0  0  0  0  0  0  0  0
   19.3501   53.8123   16.0986 H   0  0  0  0  0  0  0  0  0  0  0  0
   21.5644   53.7142   17.7290 H   0  0  0  0  0  0  0  0  0  0  0  0
   20.2408   50.5609   15.2968 H   0  0  0  0  0  0  0  0  0  0  0  0
   22.7866   53.2404   21.1773 H   0  0  0  0  0  0  0  0  0  0  0  0
   21.6576   51.9501   20.8403 H   0  0  0  0  0  0  0  0  0  0  0  0
   21.4411   53.5167   20.0974 H   0  0  0  0  0  0  0  0  0  0  0  0
   22.3017   47.5816   14.8755 H   0  0  0  0  0  0  0  0  0  0  0  0
   23.2841   48.9571   15.3183 H   0  0  0  0  0  0  0  0  0  0  0  0
   21.7817   49.1969   14.4590 H   0  0  0  0  0  0  0  0  0  0  0  0
   24.9100   48.7825   18.9272 H   0  0  0  0  0  0  0  0  0  0  0  0
   24.8681   50.3895   18.2425 H   0  0  0  0  0  0  0  0  0  0  0  0
   24.3512   49.0197   17.2888 H   0  0  0  0  0  0  0  0  0  0  0  0
   22.6285   53.8276    5.8889 H   0  0  0  0  0  0  0  0  0  0  0  0
   23.2712   55.2406    6.6910 H   0  0  0  0  0  0  0  0  0  0  0  0
   21.7933   55.3574    5.7662 H   0  0  0  0  0  0  0  0  0  0  0  0
  1  2  2  0
  1 28  1  0
  2  3  1  0
  3  4  1  0
  4  5  2  0
  4  6  1  0
  5 22  1  0
  6  7  1  0
  6  9  1  0
  7  8  2  0
  7  2  1  0
 10 11  2  0
 11 12  1  0
 11 29  1  0
 12  1  1  0
 12 13  2  0
 13 14  1  0
 13 30  1  0
 14 18  1  0
 14 15  2  0
 15 20  1  0
 15 10  1  0
 16 17  1  0
 16 31  1  0
 16 32  1  0
 16 33  1  0
 17 10  1  0
 18 19  1  0
 19 34  1  0
 19 35  1  0
 19 36  1  0
 20 21  1  0
 21 37  1  0
 21 38  1  0
 21 39  1  0
 22 23  2  0
 23 24  1  0
 24 25  2  0
 25 26  1  0
 25 27  1  0
 26 40  1  0
 26 41  1  0
 26 42  1  0
 27 22  1  0
M  END
>  <minimizedAffinity>  (8) 
-5.89616

>  <mol_id>  (8) 
110734

>  <source_index>  (8) 
7

>  <layer>  (8) 
L1

>  <uniprot>  (8) 
P35354

>  <paff>  (8) 
7

>  <smiles>  (8) 
COc1cc(/C=C2S/C(=N/c3nnc(C)s3)NC2=O)cc(OC)c1OC

$$$$
L1:P35354:138737
     RDKit          3D

 55 58  0  0  0  0  0  0  0  0999 V2000
   27.2209   48.2033   21.8433 C   0  0  0  0  0  0  0  0  0  0  0  0
   27.8120   46.9772   21.5519 C   0  0  0  0  0  0  0  0  0  0  0  0
   27.9397   46.0191   22.5628 C   0  0  0  0  0  0  0  0  0  0  0  0
   27.4640   46.2751   23.8642 C   0  0  0  0  0  0  0  0  0  0  0  0
   26.8992   47.5294   24.1418 C   0  0  0  0  0  0  0  0  0  0  0  0
   26.7650   48.4870   23.1300 C   0  0  0  0  0  0  0  0  0  0  0  0
   27.5990   45.2555   24.8612 N   0  0  0  0  0  0  0  0  0  0  0  0
   26.5945   44.3356   25.0079 N   0  0  0  0  0  0  0  0  0  0  0  0
   27.0457   43.4237   25.8815 C   0  0  0  0  0  0  0  0  0  0  0  0
   28.3103   43.7953   26.3797 C   0  0  0  0  0  0  0  0  0  0  0  0
   28.6267   45.0007   25.7796 C   0  0  0  0  0  0  0  0  0  0  0  0
   29.7694   45.8509   26.1021 C   0  0  0  0  0  0  0  0  0  0  0  0
   30.9254   45.8183   25.3134 C   0  0  0  0  0  0  0  0  0  0  0  0
   32.0118   46.6439   25.6170 C   0  0  0  0  0  0  0  0  0  0  0  0
   31.9561   47.5196   26.7088 C   0  0  0  0  0  0  0  0  0  0  0  0
   33.1230   48.4098   27.0219 C   0  0  0  0  0  0  0  0  0  0  0  0
   30.7860   47.5775   27.4739 C   0  0  0  0  0  0  0  0  0  0  0  0
   29.7006   46.7485   27.1731 C   0  0  0  0  0  0  0  0  0  0  0  0
   26.2534   42.2071   26.2691 C   0  0  0  0  0  0  0  0  0  0  0  0
   24.9535   42.2759   25.8740 F   0  0  0  0  0  0  0  0  0  0  0  0
   26.2518   41.9743   27.6103 F   0  0  0  0  0  0  0  0  0  0  0  0
   26.7609   41.0750   25.6946 F   0  0  0  0  0  0  0  0  0  0  0  0
   26.9791   49.4429   20.5368 S   0  0  0  0  0  0  0  0  0  0  0  0
   28.2155   49.2705   19.7666 O   0  0  0  0  0  0  0  0  0  0  0  0
   26.9425   50.7095   21.2686 O   0  0  0  0  0  0  0  0  0  0  0  0
   25.6768   49.0511   19.7162 N   0  0  0  0  0  0  0  0  0  0  0  0
   25.0853   49.9653   18.9419 C   0  0  0  0  0  0  0  0  0  0  0  0
   25.1865   51.1917   18.9967 O   0  0  0  0  0  0  0  0  0  0  0  0
   22.5362   49.7613   16.1075 C   0  0  0  0  0  0  0  0  0  0  0  0
   23.4583   50.2617   17.0555 C   0  0  0  0  0  0  0  0  0  0  0  0
   24.1637   49.3906   17.8851 C   0  0  0  0  0  0  0  0  0  0  0  0
   23.9517   48.0222   17.7184 C   0  0  0  0  0  0  0  0  0  0  0  0
   23.0334   47.5456   16.7588 C   0  0  0  0  0  0  0  0  0  0  0  0
   22.2741   48.3779   15.9111 C   0  0  0  0  0  0  0  0  0  0  0  0
   21.4362   47.8877   15.0757 O   0  0  0  0  0  0  0  0  0  0  0  0
   20.8164   51.2672   16.0858 C   0  0  0  0  0  0  0  0  0  0  0  0
   21.9006   50.7226   15.3377 O   0  0  0  0  0  0  0  0  0  0  0  0
   28.1529   46.7770   20.5986 H   0  0  0  0  0  0  0  0  0  0  0  0
   28.3879   45.1135   22.3530 H   0  0  0  0  0  0  0  0  0  0  0  0
   26.5805   47.7473   25.0989 H   0  0  0  0  0  0  0  0  0  0  0  0
   26.3301   49.4000   23.3356 H   0  0  0  0  0  0  0  0  0  0  0  0
   28.8861   43.2720   27.0577 H   0  0  0  0  0  0  0  0  0  0  0  0
   30.9759   45.1811   24.5032 H   0  0  0  0  0  0  0  0  0  0  0  0
   32.8614   46.6079   25.0323 H   0  0  0  0  0  0  0  0  0  0  0  0
   33.9151   48.2165   26.3290 H   0  0  0  0  0  0  0  0  0  0  0  0
   33.4640   48.2141   28.0171 H   0  0  0  0  0  0  0  0  0  0  0  0
   32.8219   49.4335   26.9429 H   0  0  0  0  0  0  0  0  0  0  0  0
   30.7235   48.2365   28.2656 H   0  0  0  0  0  0  0  0  0  0  0  0
   28.8431   46.7992   27.7450 H   0  0  0  0  0  0  0  0  0  0  0  0
   23.6104   51.2794   17.1341 H   0  0  0  0  0  0  0  0  0  0  0  0
   24.4725   47.3504   18.3037 H   0  0  0  0  0  0  0  0  0  0  0  0
   22.9100   46.5247   16.6721 H   0  0  0  0  0  0  0  0  0  0  0  0
   20.3176   52.0114   15.5008 H   0  0  0  0  0  0  0  0  0  0  0  0
   21.1907   51.7116   16.9843 H   0  0  0  0  0  0  0  0  0  0  0  0
   20.1270   50.4874   16.3339 H   0  0  0  0  0  0  0  0  0  0  0  0
  1  2  2  0
  2  3  1  0
  2 38  1  0
  3  4  2  0
  3 39  1  0
  4  5  1  0
  4  7  1  0
  5  6  2  0
  5 40  1  0
  6  1  1  0
  6 41  1  0
  7  8  1  0
  8  9  2  0
  9 10  1  0
  9 19  1  0
 10 11  2  0
 10 42  1  0
 11 12  1  0
 11  7  1  0
 12 13  2  0
 13 14  1  0
 13 43  1  0
 14 15  2  0
 14 44  1  0
 15 16  1  0
 15 17  1  0
 16 45  1  0
 16 46  1  0
 16 47  1  0
 17 18  2  0
 17 48  1  0
 18 12  1  0
 18 49  1  0
 19 20  1  0
 19 21  1  0
 19 22  1  0
 23 24  2  0
 23 25  2  0
 23  1  1  0
 26 23  1  0
 27 28  2  0
 27 26  1  0
 29 30  2  0
 30 31  1  0
 30 50  1  0
 31 32  2  0
 31 27  1  0
 32 33  1  0
 32 51  1  0
 33 34  2  0
 33 52  1  0
 34 35  1  0
 34 29  1  0
 36 37  1  0
 36 53  1  0
 36 54  1  0
 36 55  1  0
 37 29  1  0
M  CHG  2  26  -1  35  -1
M  END
>  <minimizedAffinity>  (9) 
-7.06842

>  <mol_id>  (9) 
138737

>  <source_index>  (9) 
8

>  <layer>  (9) 
L1

>  <uniprot>  (9) 
P35354

>  <paff>  (9) 
7.9585999999999997

>  <smiles>  (9) 
COc1cc(ccc1[O-])C(=O)[N-]S(=O)(=O)c1ccc(cc1)-n1nc(cc1-c1ccc(C)cc1)C(F)(F)F

$$$$
L1:P35354:138741
     RDKit          3D

 57 60  0  0  0  0  0  0  0  0999 V2000
   30.2769   55.0676   13.0019 C   0  0  0  0  0  0  0  0  0  0  0  0
   29.2836   54.1927   12.5812 C   0  0  0  0  0  0  0  0  0  0  0  0
   29.5588   52.8333   12.3816 C   0  0  0  0  0  0  0  0  0  0  0  0
   30.8660   52.3568   12.6036 C   0  0  0  0  0  0  0  0  0  0  0  0
   31.8747   53.2191   13.0319 C   0  0  0  0  0  0  0  0  0  0  0  0
   31.5696   54.5842   13.2306 C   0  0  0  0  0  0  0  0  0  0  0  0
   33.0716   52.4586   13.1586 C   0  0  0  0  0  0  0  0  0  0  0  0
   32.7757   51.1558   12.7794 C   0  0  0  0  0  0  0  0  0  0  0  0
   33.7431   50.0368   12.5662 C   0  0  0  0  0  0  0  0  0  0  0  0
   31.4018   51.0650   12.5252 N   0  0  0  0  0  0  0  0  0  0  0  0
   30.6538   49.8925   12.2338 C   0  0  0  0  0  0  0  0  0  0  0  0
   29.6119   50.0081   11.5895 O   0  0  0  0  0  0  0  0  0  0  0  0
   31.0065   48.5263   12.6809 C   0  0  0  0  0  0  0  0  0  0  0  0
   31.1204   48.2655   14.0518 C   0  0  0  0  0  0  0  0  0  0  0  0
   31.4834   46.9895   14.4886 C   0  0  0  0  0  0  0  0  0  0  0  0
   31.7485   45.9873   13.5552 C   0  0  0  0  0  0  0  0  0  0  0  0
   32.1942   44.4156   14.0934 Cl  0  0  0  0  0  0  0  0  0  0  0  0
   31.6629   46.2512   12.1874 C   0  0  0  0  0  0  0  0  0  0  0  0
   31.2994   47.5260   11.7459 C   0  0  0  0  0  0  0  0  0  0  0  0
   30.8420   57.2906   12.3762 C   0  0  0  0  0  0  0  0  0  0  0  0
   30.1253   56.4087   13.2313 O   0  0  0  0  0  0  0  0  0  0  0  0
   34.4075   53.0046   13.5693 C   0  0  0  0  0  0  0  0  0  0  0  0
   34.5193   53.2096   15.0674 C   0  0  0  0  0  0  0  0  0  0  0  0
   33.7990   53.9299   15.7470 O   0  0  0  0  0  0  0  0  0  0  0  0
   35.6247   52.4871   15.5230 O   0  0  0  0  0  0  0  0  0  0  0  0
   35.4060   51.1260   15.7549 C   0  0  0  0  0  0  0  0  0  0  0  0
   36.2417   50.1554   15.2166 C   0  0  0  0  0  0  0  0  0  0  0  0
   35.9563   48.8010   15.4337 C   0  0  0  0  0  0  0  0  0  0  0  0
   34.8288   48.3871   16.1740 C   0  0  0  0  0  0  0  0  0  0  0  0
   33.9922   49.4110   16.6750 C   0  0  0  0  0  0  0  0  0  0  0  0
   34.2713   50.7664   16.4680 C   0  0  0  0  0  0  0  0  0  0  0  0
   34.5121   47.0132   16.4090 N   0  0  0  0  0  0  0  0  0  0  0  0
   35.1445   46.0504   15.4961 C   0  0  0  0  0  0  0  0  0  0  0  0
   33.6298   46.6700   17.3854 N   0  0  0  0  0  0  0  0  0  0  0  0
   33.7809   45.5261   17.8258 O   0  0  0  0  0  0  0  0  0  0  0  0
   28.3296   54.5487   12.4133 H   0  0  0  0  0  0  0  0  0  0  0  0
   28.8130   52.1889   12.0757 H   0  0  0  0  0  0  0  0  0  0  0  0
   32.3081   55.2315   13.5478 H   0  0  0  0  0  0  0  0  0  0  0  0
   34.7273   50.3603   12.8340 H   0  0  0  0  0  0  0  0  0  0  0  0
   33.7310   49.7462   11.5365 H   0  0  0  0  0  0  0  0  0  0  0  0
   33.4637   49.2028   13.1755 H   0  0  0  0  0  0  0  0  0  0  0  0
   30.9366   49.0142   14.7378 H   0  0  0  0  0  0  0  0  0  0  0  0
   31.5552   46.7888   15.4983 H   0  0  0  0  0  0  0  0  0  0  0  0
   31.8677   45.5061   11.5034 H   0  0  0  0  0  0  0  0  0  0  0  0
   31.2470   47.7294   10.7355 H   0  0  0  0  0  0  0  0  0  0  0  0
   30.6398   58.3029   12.6576 H   0  0  0  0  0  0  0  0  0  0  0  0
   30.5345   57.1337   11.3634 H   0  0  0  0  0  0  0  0  0  0  0  0
   31.8910   57.0987   12.4643 H   0  0  0  0  0  0  0  0  0  0  0  0
   34.5571   53.9458   13.0827 H   0  0  0  0  0  0  0  0  0  0  0  0
   35.1508   52.2897   13.2842 H   0  0  0  0  0  0  0  0  0  0  0  0
   37.0667   50.4301   14.6608 H   0  0  0  0  0  0  0  0  0  0  0  0
   36.5885   48.0860   15.0411 H   0  0  0  0  0  0  0  0  0  0  0  0
   33.1492   49.1504   17.2102 H   0  0  0  0  0  0  0  0  0  0  0  0
   33.6394   51.4915   16.8420 H   0  0  0  0  0  0  0  0  0  0  0  0
   35.7945   46.5704   14.8238 H   0  0  0  0  0  0  0  0  0  0  0  0
   34.3886   45.5391   14.9374 H   0  0  0  0  0  0  0  0  0  0  0  0
   35.7107   45.3408   16.0625 H   0  0  0  0  0  0  0  0  0  0  0  0
  1  2  2  0
  2  3  1  0
  2 36  1  0
  3  4  2  0
  3 37  1  0
  4  5  1  0
  5  6  2  0
  5  7  1  0
  6  1  1  0
  6 38  1  0
  7 22  1  0
  7  8  2  0
  8  9  1  0
  8 10  1  0
  9 39  1  0
  9 40  1  0
  9 41  1  0
 10 11  1  0
 10  4  1  0
 11 12  2  0
 11 13  1  0
 13 14  2  0
 14 15  1  0
 14 42  1  0
 15 16  2  0
 15 43  1  0
 16 17  1  0
 16 18  1  0
 18 19  2  0
 18 44  1  0
 19 13  1  0
 19 45  1  0
 20 21  1  0
 20 46  1  0
 20 47  1  0
 20 48  1  0
 21  1  1  0
 22 23  1  0
 22 49  1  0
 22 50  1  0
 23 24  2  0
 23 25  1  0
 25 26  1  0
 26 27  2  0
 27 28  1  0
 27 51  1  0
 28 29  2  0
 28 52  1  0
 29 32  1  0
 29 30  1  0
 30 31  2  0
 30 53  1  0
 31 26  1  0
 31 54  1  0
 32 33  1  0
 32 34  1  0
 33 55  1  0
 33 56  1  0
 33 57  1  0
 34 35  2  0
M  END
>  <minimizedAffinity>  (10) 
-5.37295

>  <mol_id>  (10) 
138741

>  <source_index>  (10) 
9

>  <layer>  (10) 
L1

>  <uniprot>  (10) 
P35354

>  <paff>  (10) 
7.0968999999999998

>  <smiles>  (10) 
COc1ccc2c(c1)c(CC(=O)Oc1ccc(N(C)N=O)cc1)c(C)n2C(=O)c1ccc(Cl)cc1

$$$$
