L2:O75460:4142
     RDKit          3D

 81 85  0  0  0  0  0  0  0  0999 V2000
   17.0812   34.4053   22.7483 N   0  0  0  0  0  0  0  0  0  0  0  0
   17.7489   34.0393   23.9158 C   0  0  0  0  0  0  0  0  0  0  0  0
   18.6886   33.2551   23.9737 O   0  0  0  0  0  0  0  0  0  0  0  0
   17.2673   34.6889   25.2146 C   0  0  0  0  0  0  0  0  0  0  0  0
   16.3373   35.6005   25.2429 N   0  0  0  0  0  0  0  0  0  0  0  0
   15.7105   35.9198   24.0306 C   0  0  0  0  0  0  0  0  0  0  0  0
   14.6608   36.8116   24.0022 C   0  0  0  0  0  0  0  0  0  0  0  0
   13.9626   37.1275   22.8934 N   0  0  0  0  0  0  0  0  0  0  0  0
   14.3462   36.5413   21.7575 C   0  0  0  0  0  0  0  0  0  0  0  0
   15.3659   35.6775   21.6710 N   0  0  0  0  0  0  0  0  0  0  0  0
   16.0289   35.3616   22.8016 C   0  0  0  0  0  0  0  0  0  0  0  0
   17.8668   34.2644   26.5029 C   0  0  0  0  0  0  0  0  0  0  0  0
   19.1670   34.6535   26.8447 C   0  0  0  0  0  0  0  0  0  0  0  0
   19.7670   34.1569   28.0068 C   0  0  0  0  0  0  0  0  0  0  0  0
   19.0628   33.2944   28.8467 C   0  0  0  0  0  0  0  0  0  0  0  0
   17.7703   32.9031   28.4794 C   0  0  0  0  0  0  0  0  0  0  0  0
   17.1055   32.0283   29.2523 F   0  0  0  0  0  0  0  0  0  0  0  0
   17.1660   33.3753   27.3198 C   0  0  0  0  0  0  0  0  0  0  0  0
   19.6654   32.6650   29.9951 N   0  0  0  0  0  0  0  0  0  0  0  0
   19.1213   31.8330   30.2552 H   0  0  0  0  0  0  0  0  0  0  0  0
   19.8700   33.5815   31.3983 S   0  0  0  0  0  0  0  0  0  0  0  0
   20.5790   32.8357   32.4125 O   0  0  0  0  0  0  0  0  0  0  0  0
   20.3490   34.8708   30.9474 O   0  0  0  0  0  0  0  0  0  0  0  0
   18.1861   33.8018   31.9388 C   0  0  0  0  0  0  0  0  0  0  0  0
   17.8734   34.9816   32.8511 C   0  0  0  0  0  0  0  0  0  0  0  0
   16.6875   34.9835   33.8516 C   0  0  0  0  0  0  0  0  0  0  0  0
   17.4929   35.9967   34.7044 C   0  0  0  0  0  0  0  0  0  0  0  0
   17.4062   35.8358   36.0440 F   0  0  0  0  0  0  0  0  0  0  0  0
   17.2387   37.3001   34.4453 F   0  0  0  0  0  0  0  0  0  0  0  0
   18.7691   35.4245   34.0378 C   0  0  0  0  0  0  0  0  0  0  0  0
   18.7232   34.4807   20.8486 C   0  0  0  0  0  0  0  0  0  0  0  0
   17.4986   33.8088   21.4684 C   0  0  0  0  0  0  0  0  0  0  0  0
   17.6442   32.2860   21.5361 C   0  0  0  0  0  0  0  0  0  0  0  0
   13.5864   36.8494   20.6471 N   0  0  0  0  0  0  0  0  0  0  0  0
   13.7098   37.8391   20.4626 H   0  0  0  0  0  0  0  0  0  0  0  0
   12.2278   36.3220   20.5731 C   0  0  1  0  0  0  0  0  0  0  0  0
   11.2838   37.2770   19.8308 C   0  0  0  0  0  0  0  0  0  0  0  0
   11.6077   37.4183   18.3425 C   0  0  0  0  0  0  0  0  0  0  0  0
   12.0060   36.0858   17.6644 C   0  0  1  0  0  0  0  0  0  0  0  0
   11.6153   34.8725   18.5239 C   0  0  0  0  0  0  0  0  0  0  0  0
   12.2719   34.9323   19.9081 C   0  0  0  0  0  0  0  0  0  0  0  0
   11.5274   36.0592   16.2664 N   0  0  0  0  0  0  0  0  0  0  0  0
   10.1015   36.3809   16.1772 C   0  0  0  0  0  0  0  0  0  0  0  0
   12.3320   36.8862   15.3411 C   0  0  0  0  0  0  0  0  0  0  0  0
   11.5196   37.7651   14.3813 C   0  0  0  0  0  0  0  0  0  0  0  0
   11.6725   39.0764   14.7015 F   0  0  0  0  0  0  0  0  0  0  0  0
   14.3914   37.2676   24.8879 H   0  0  0  0  0  0  0  0  0  0  0  0
   19.6845   35.3085   26.2379 H   0  0  0  0  0  0  0  0  0  0  0  0
   20.7338   34.4296   28.2434 H   0  0  0  0  0  0  0  0  0  0  0  0
   16.2125   33.0727   27.0664 H   0  0  0  0  0  0  0  0  0  0  0  0
   17.9011   32.9123   32.4608 H   0  0  0  0  0  0  0  0  0  0  0  0
   17.6432   34.0090   31.0403 H   0  0  0  0  0  0  0  0  0  0  0  0
   17.8528   35.5327   31.9342 H   0  0  0  0  0  0  0  0  0  0  0  0
   16.5059   34.0435   34.3295 H   0  0  0  0  0  0  0  0  0  0  0  0
   15.6858   35.1867   33.5351 H   0  0  0  0  0  0  0  0  0  0  0  0
   19.2293   34.6205   34.5732 H   0  0  0  0  0  0  0  0  0  0  0  0
   19.6422   36.0248   33.8888 H   0  0  0  0  0  0  0  0  0  0  0  0
   18.9668   33.9968   19.9259 H   0  0  0  0  0  0  0  0  0  0  0  0
   19.5515   34.4031   21.5215 H   0  0  0  0  0  0  0  0  0  0  0  0
   18.5088   35.5127   20.6644 H   0  0  0  0  0  0  0  0  0  0  0  0
   16.6888   34.0066   20.7975 H   0  0  0  0  0  0  0  0  0  0  0  0
   18.4459   32.0334   22.1982 H   0  0  0  0  0  0  0  0  0  0  0  0
   17.8548   31.9041   20.5590 H   0  0  0  0  0  0  0  0  0  0  0  0
   16.7336   31.8564   21.8983 H   0  0  0  0  0  0  0  0  0  0  0  0
   11.8334   36.2279   21.5633 H   0  0  0  0  0  0  0  0  0  0  0  0
   11.3524   38.2430   20.2858 H   0  0  0  0  0  0  0  0  0  0  0  0
   10.2988   36.8650   19.9015 H   0  0  0  0  0  0  0  0  0  0  0  0
   12.4198   38.1071   18.2372 H   0  0  0  0  0  0  0  0  0  0  0  0
   10.7168   37.7614   17.8594 H   0  0  0  0  0  0  0  0  0  0  0  0
   13.0718   36.0169   17.5988 H   0  0  0  0  0  0  0  0  0  0  0  0
   11.9303   33.9784   18.0276 H   0  0  0  0  0  0  0  0  0  0  0  0
   10.5533   34.8805   18.6545 H   0  0  0  0  0  0  0  0  0  0  0  0
   13.2968   34.6427   19.8053 H   0  0  0  0  0  0  0  0  0  0  0  0
   11.7140   34.2731   20.5399 H   0  0  0  0  0  0  0  0  0  0  0  0
    9.5535   35.7645   16.8588 H   0  0  0  0  0  0  0  0  0  0  0  0
    9.7574   36.2030   15.1798 H   0  0  0  0  0  0  0  0  0  0  0  0
    9.9518   37.4103   16.4278 H   0  0  0  0  0  0  0  0  0  0  0  0
   12.9414   36.2305   14.7549 H   0  0  0  0  0  0  0  0  0  0  0  0
   12.8964   37.5570   15.9546 H   0  0  0  0  0  0  0  0  0  0  0  0
   10.4847   37.5025   14.4521 H   0  0  0  0  0  0  0  0  0  0  0  0
   11.8696   37.6068   13.3826 H   0  0  0  0  0  0  0  0  0  0  0  0
  1  2  1  0
  2  3  2  0
  2  4  1  0
  4 12  1  0
  4  5  2  0
  5  6  1  0
  6  7  2  0
  7  8  1  0
  7 47  1  0
  8  9  2  0
  9 34  1  0
  9 10  1  0
 10 11  2  0
 11  1  1  0
 11  6  1  0
 12 13  2  0
 13 14  1  0
 13 48  1  0
 14 15  2  0
 14 49  1  0
 15 19  1  0
 15 16  1  0
 16 17  1  0
 16 18  2  0
 18 12  1  0
 18 50  1  0
 19 21  1  0
 19 20  1  0
 21 22  2  0
 21 23  2  0
 21 24  1  0
 24 25  1  0
 24 51  1  0
 24 52  1  0
 25 26  1  0
 25 53  1  0
 26 27  1  0
 26 54  1  0
 26 55  1  0
 27 28  1  0
 27 29  1  0
 27 30  1  0
 30 25  1  0
 30 56  1  0
 30 57  1  0
 31 32  1  0
 31 58  1  0
 31 59  1  0
 31 60  1  0
 32 33  1  0
 32  1  1  0
 32 61  1  0
 33 62  1  0
 33 63  1  0
 33 64  1  0
 34 36  1  0
 34 35  1  0
 36 37  1  0
 36 65  1  1
 37 38  1  0
 37 66  1  0
 37 67  1  0
 38 39  1  0
 38 68  1  0
 38 69  1  0
 39 42  1  0
 39 40  1  0
 39 70  1  6
 40 41  1  0
 40 71  1  0
 40 72  1  0
 41 36  1  0
 41 73  1  0
 41 74  1  0
 42 43  1  0
 42 44  1  0
 43 75  1  0
 43 76  1  0
 43 77  1  0
 44 45  1  0
 44 78  1  0
 44 79  1  0
 45 46  1  0
 45 80  1  0
 45 81  1  0
M  END
>  <minimizedAffinity>  (1) 
-9.31291

>  <mol_id>  (1) 
4142

>  <source_index>  (1) 
0

>  <layer>  (1) 
L2

>  <uniprot>  (1) 
O75460

>  <paff>  (1) 
9.5375999999999994

>  <smiles>  (1) 
CC(C)n1c(=O)c(-c2ccc(NS(=O)(=O)CC3CC(F)(F)C3)c(F)c2)nc2cnc(N[C@H]3CC[C@H](N(C)CCF)CC3)nc21

$$$$
L2:O75460:6730
     RDKit          3D

 68 71  0  0  0  0  0  0  0  0999 V2000
   17.5854   34.9764   25.4444 N   0  0  0  0  0  0  0  0  0  0  0  0
   17.0397   35.3119   24.2063 C   0  0  0  0  0  0  0  0  0  0  0  0
   17.6888   35.7237   23.2522 O   0  0  0  0  0  0  0  0  0  0  0  0
   15.5222   35.1614   24.0530 C   0  0  0  0  0  0  0  0  0  0  0  0
   14.7619   34.8098   25.0496 N   0  0  0  0  0  0  0  0  0  0  0  0
   15.3762   34.5184   26.2743 C   0  0  0  0  0  0  0  0  0  0  0  0
   14.6151   34.1254   27.3509 C   0  0  0  0  0  0  0  0  0  0  0  0
   15.1171   33.8075   28.5583 N   0  0  0  0  0  0  0  0  0  0  0  0
   16.4447   33.8838   28.6988 C   0  0  0  0  0  0  0  0  0  0  0  0
   17.2758   34.2492   27.7170 N   0  0  0  0  0  0  0  0  0  0  0  0
   16.7408   34.5673   26.5155 C   0  0  0  0  0  0  0  0  0  0  0  0
   14.8729   35.4242   22.7349 C   0  0  0  0  0  0  0  0  0  0  0  0
   15.1037   34.5224   21.6822 C   0  0  0  0  0  0  0  0  0  0  0  0
   14.5515   34.7450   20.4154 C   0  0  0  0  0  0  0  0  0  0  0  0
   13.7557   35.8668   20.1934 C   0  0  0  0  0  0  0  0  0  0  0  0
   13.5582   36.7761   21.2367 C   0  0  0  0  0  0  0  0  0  0  0  0
   12.8418   37.8892   21.0146 F   0  0  0  0  0  0  0  0  0  0  0  0
   14.1054   36.5675   22.5000 C   0  0  0  0  0  0  0  0  0  0  0  0
   13.2212   36.1726   18.9013 N   0  0  0  0  0  0  0  0  0  0  0  0
   13.3559   37.1514   18.6140 H   0  0  0  0  0  0  0  0  0  0  0  0
   11.6420   35.7253   18.5262 S   0  0  0  0  0  0  0  0  0  0  0  0
   10.8879   35.8284   19.7548 O   0  0  0  0  0  0  0  0  0  0  0  0
   11.6406   34.4997   17.7569 O   0  0  0  0  0  0  0  0  0  0  0  0
   11.1260   37.0491   17.4410 C   0  0  0  0  0  0  0  0  0  0  0  0
   10.3347   36.6437   16.2028 C   0  0  0  0  0  0  0  0  0  0  0  0
   11.1328   36.6799   14.9165 C   0  0  0  0  0  0  0  0  0  0  0  0
   12.4559   36.5670   15.1695 F   0  0  0  0  0  0  0  0  0  0  0  0
   10.9320   37.8570   14.2824 F   0  0  0  0  0  0  0  0  0  0  0  0
   19.7806   33.8134   25.0609 C   0  0  0  0  0  0  0  0  0  0  0  0
   19.0446   35.0358   25.6116 C   0  0  0  0  0  0  0  0  0  0  0  0
   19.6300   36.3689   25.1463 C   0  0  0  0  0  0  0  0  0  0  0  0
   16.8830   33.5706   29.9660 N   0  0  0  0  0  0  0  0  0  0  0  0
   16.6713   32.5851   30.0862 H   0  0  0  0  0  0  0  0  0  0  0  0
   18.1935   33.9752   30.4590 C   0  0  2  0  0  0  0  0  0  0  0  0
   19.3289   32.9655   30.1570 C   0  0  0  0  0  0  0  0  0  0  0  0
   20.0372   32.4549   31.3279 N   0  0  0  0  0  0  0  0  0  0  0  0
   20.4719   33.4556   32.2959 C   0  0  0  0  0  0  0  0  0  0  0  0
   19.6337   34.7459   32.3333 C   0  0  1  0  0  0  0  0  0  0  0  0
   18.1867   34.4686   31.9108 C   0  0  0  0  0  0  0  0  0  0  0  0
   20.8023   31.8406   31.0575 H   0  0  0  0  0  0  0  0  0  0  0  0
   19.7049   35.3998   33.7082 C   0  0  0  0  0  0  0  0  0  0  0  0
   18.5368   36.0388   33.9770 F   0  0  0  0  0  0  0  0  0  0  0  0
   13.5924   34.0708   27.2242 H   0  0  0  0  0  0  0  0  0  0  0  0
   15.6869   33.6866   21.8449 H   0  0  0  0  0  0  0  0  0  0  0  0
   14.7334   34.0798   19.6477 H   0  0  0  0  0  0  0  0  0  0  0  0
   13.9454   37.2515   23.2560 H   0  0  0  0  0  0  0  0  0  0  0  0
   12.0059   37.5610   17.1114 H   0  0  0  0  0  0  0  0  0  0  0  0
   10.4557   37.6471   18.0224 H   0  0  0  0  0  0  0  0  0  0  0  0
    9.5047   37.3114   16.1016 H   0  0  0  0  0  0  0  0  0  0  0  0
   10.0339   35.6274   16.3494 H   0  0  0  0  0  0  0  0  0  0  0  0
   10.8078   35.8619   14.3081 H   0  0  0  0  0  0  0  0  0  0  0  0
   20.8325   33.9295   25.2186 H   0  0  0  0  0  0  0  0  0  0  0  0
   19.5850   33.7215   24.0129 H   0  0  0  0  0  0  0  0  0  0  0  0
   19.4391   32.9340   25.5659 H   0  0  0  0  0  0  0  0  0  0  0  0
   19.2187   34.9917   26.6664 H   0  0  0  0  0  0  0  0  0  0  0  0
   19.4860   36.4728   24.0911 H   0  0  0  0  0  0  0  0  0  0  0  0
   20.6765   36.3956   25.3678 H   0  0  0  0  0  0  0  0  0  0  0  0
   19.1373   37.1715   25.6543 H   0  0  0  0  0  0  0  0  0  0  0  0
   18.4355   34.8368   29.8725 H   0  0  0  0  0  0  0  0  0  0  0  0
   20.0427   33.4501   29.5241 H   0  0  0  0  0  0  0  0  0  0  0  0
   18.8588   32.1185   29.7026 H   0  0  0  0  0  0  0  0  0  0  0  0
   21.4810   33.7242   32.0625 H   0  0  0  0  0  0  0  0  0  0  0  0
   20.3591   33.0028   33.2588 H   0  0  0  0  0  0  0  0  0  0  0  0
   20.0467   35.4369   31.6284 H   0  0  0  0  0  0  0  0  0  0  0  0
   17.6100   35.3669   31.9847 H   0  0  0  0  0  0  0  0  0  0  0  0
   17.7524   33.7278   32.5492 H   0  0  0  0  0  0  0  0  0  0  0  0
   20.5079   36.1068   33.7237 H   0  0  0  0  0  0  0  0  0  0  0  0
   19.8727   34.6459   34.4487 H   0  0  0  0  0  0  0  0  0  0  0  0
  1  2  1  0
  2  3  2  0
  2  4  1  0
  4 12  1  0
  4  5  2  0
  5  6  1  0
  6  7  2  0
  7  8  1  0
  7 43  1  0
  8  9  2  0
  9 32  1  0
  9 10  1  0
 10 11  2  0
 11  1  1  0
 11  6  1  0
 12 13  2  0
 13 14  1  0
 13 44  1  0
 14 15  2  0
 14 45  1  0
 15 19  1  0
 15 16  1  0
 16 17  1  0
 16 18  2  0
 18 12  1  0
 18 46  1  0
 19 21  1  0
 19 20  1  0
 21 22  2  0
 21 23  2  0
 21 24  1  0
 24 25  1  0
 24 47  1  0
 24 48  1  0
 25 26  1  0
 25 49  1  0
 25 50  1  0
 26 27  1  0
 26 28  1  0
 26 51  1  0
 29 30  1  0
 29 52  1  0
 29 53  1  0
 29 54  1  0
 30 31  1  0
 30  1  1  0
 30 55  1  0
 31 56  1  0
 31 57  1  0
 31 58  1  0
 32 34  1  0
 32 33  1  0
 34 35  1  0
 34 59  1  6
 35 36  1  0
 35 60  1  0
 35 61  1  0
 36 37  1  0
 36 40  1  0
 37 38  1  0
 37 62  1  0
 37 63  1  0
 38 41  1  0
 38 39  1  0
 38 64  1  6
 39 34  1  0
 39 65  1  0
 39 66  1  0
 41 42  1  0
 41 67  1  0
 41 68  1  0
M  END
>  <minimizedAffinity>  (2) 
-9.44712

>  <mol_id>  (2) 
6730

>  <source_index>  (2) 
1

>  <layer>  (2) 
L2

>  <uniprot>  (2) 
O75460

>  <paff>  (2) 
9

>  <smiles>  (2) 
CC(C)n1c(=O)c(-c2ccc(NS(=O)(=O)CCC(F)F)c(F)c2)nc2cnc(N[C@@H]3CNC[C@H](CF)C3)nc21

$$$$
L2:O75460:14710
     RDKit          3D

 74 77  0  0  0  0  0  0  0  0999 V2000
   14.7263   35.3261   21.8354 C   0  0  0  0  0  0  0  0  0  0  0  0
   14.4846   35.4001   23.1125 N   0  0  0  0  0  0  0  0  0  0  0  0
   15.4813   34.9524   23.9900 C   0  0  0  0  0  0  0  0  0  0  0  0
   15.3195   35.0604   25.3529 C   0  0  0  0  0  0  0  0  0  0  0  0
   16.2312   34.6555   26.2606 N   0  0  0  0  0  0  0  0  0  0  0  0
   17.3507   34.1026   25.7853 C   0  0  0  0  0  0  0  0  0  0  0  0
   17.5995   33.9387   24.4815 N   0  0  0  0  0  0  0  0  0  0  0  0
   16.6726   34.3651   23.5980 C   0  0  0  0  0  0  0  0  0  0  0  0
   16.9386   34.2444   22.2041 N   0  0  0  0  0  0  0  0  0  0  0  0
   16.0733   34.8359   21.2892 C   0  0  0  0  0  0  0  0  0  0  0  0
   16.3139   35.0029   20.0997 O   0  0  0  0  0  0  0  0  0  0  0  0
   11.6517   36.4495   19.0449 C   0  0  0  0  0  0  0  0  0  0  0  0
   12.4304   37.4286   19.6623 C   0  0  0  0  0  0  0  0  0  0  0  0
   12.2319   38.7251   19.3822 F   0  0  0  0  0  0  0  0  0  0  0  0
   13.4224   37.0887   20.5816 C   0  0  0  0  0  0  0  0  0  0  0  0
   13.6524   35.7431   20.8892 C   0  0  0  0  0  0  0  0  0  0  0  0
   12.8958   34.7495   20.2524 C   0  0  0  0  0  0  0  0  0  0  0  0
   11.9068   35.1112   19.3420 C   0  0  0  0  0  0  0  0  0  0  0  0
   11.1856   34.1502   18.7454 F   0  0  0  0  0  0  0  0  0  0  0  0
   10.6773   36.7830   18.0393 N   0  0  0  0  0  0  0  0  0  0  0  0
    9.8232   36.2188   18.0995 H   0  0  0  0  0  0  0  0  0  0  0  0
   11.2329   36.6901   16.4353 S   0  0  0  0  0  0  0  0  0  0  0  0
   10.0422   36.4409   15.6502 O   0  0  0  0  0  0  0  0  0  0  0  0
   12.3813   35.8130   16.3711 O   0  0  0  0  0  0  0  0  0  0  0  0
   11.7458   38.3819   16.1526 C   0  0  0  0  0  0  0  0  0  0  0  0
   13.7455   39.9125   16.5595 C   0  0  0  0  0  0  0  0  0  0  0  0
   13.2617   38.5455   16.1004 C   0  0  0  0  0  0  0  0  0  0  0  0
   18.2404   33.6939   21.7830 C   0  0  0  0  0  0  0  0  0  0  0  0
   18.1049   32.4756   20.8618 C   0  0  0  0  0  0  0  0  0  0  0  0
   19.1273   34.7651   21.1487 C   0  0  0  0  0  0  0  0  0  0  0  0
   18.2664   33.7243   26.7439 N   0  0  0  0  0  0  0  0  0  0  0  0
   18.2891   32.7100   26.7236 H   0  0  0  0  0  0  0  0  0  0  0  0
   18.2658   34.3138   28.0785 C   0  0  1  0  0  0  0  0  0  0  0  0
   17.0970   33.8047   28.9303 C   0  0  0  0  0  0  0  0  0  0  0  0
   17.0835   34.4516   30.3164 C   0  0  0  0  0  0  0  0  0  0  0  0
   18.4335   34.2614   31.0353 C   0  0  1  0  0  0  0  0  0  0  0  0
   19.5780   34.8419   30.1789 C   0  0  0  0  0  0  0  0  0  0  0  0
   19.6189   34.1994   28.7919 C   0  0  0  0  0  0  0  0  0  0  0  0
   18.5004   34.7897   32.4124 N   0  0  0  0  0  0  0  0  0  0  0  0
   19.3365   33.9561   33.2783 C   0  0  0  0  0  0  0  0  0  0  0  0
   17.2048   35.0268   33.0461 C   0  0  0  0  0  0  0  0  0  0  0  0
   14.4433   35.4785   25.7029 H   0  0  0  0  0  0  0  0  0  0  0  0
   13.9848   37.8267   21.0334 H   0  0  0  0  0  0  0  0  0  0  0  0
   13.0714   33.7535   20.4578 H   0  0  0  0  0  0  0  0  0  0  0  0
   11.3352   38.7113   15.2210 H   0  0  0  0  0  0  0  0  0  0  0  0
   11.3895   38.9657   16.9755 H   0  0  0  0  0  0  0  0  0  0  0  0
   14.8128   39.9530   16.4957 H   0  0  0  0  0  0  0  0  0  0  0  0
   13.4422   40.0765   17.5724 H   0  0  0  0  0  0  0  0  0  0  0  0
   13.3218   40.6696   15.9333 H   0  0  0  0  0  0  0  0  0  0  0  0
   13.7036   37.8018   16.7301 H   0  0  0  0  0  0  0  0  0  0  0  0
   13.5526   38.4387   15.0763 H   0  0  0  0  0  0  0  0  0  0  0  0
   18.7188   33.3517   22.6768 H   0  0  0  0  0  0  0  0  0  0  0  0
   17.6292   32.7694   19.9495 H   0  0  0  0  0  0  0  0  0  0  0  0
   17.5148   31.7260   21.3463 H   0  0  0  0  0  0  0  0  0  0  0  0
   19.0761   32.0813   20.6468 H   0  0  0  0  0  0  0  0  0  0  0  0
   18.6678   35.1229   20.2511 H   0  0  0  0  0  0  0  0  0  0  0  0
   20.0837   34.3449   20.9169 H   0  0  0  0  0  0  0  0  0  0  0  0
   19.2513   35.5773   21.8342 H   0  0  0  0  0  0  0  0  0  0  0  0
   18.1101   35.3635   27.9414 H   0  0  0  0  0  0  0  0  0  0  0  0
   17.1862   32.7444   29.0433 H   0  0  0  0  0  0  0  0  0  0  0  0
   16.1850   34.0618   28.4332 H   0  0  0  0  0  0  0  0  0  0  0  0
   16.3096   34.0026   30.9033 H   0  0  0  0  0  0  0  0  0  0  0  0
   16.9082   35.5005   30.1983 H   0  0  0  0  0  0  0  0  0  0  0  0
   18.5431   33.2027   31.1450 H   0  0  0  0  0  0  0  0  0  0  0  0
   20.5092   34.6610   30.6738 H   0  0  0  0  0  0  0  0  0  0  0  0
   19.4092   35.8916   30.0586 H   0  0  0  0  0  0  0  0  0  0  0  0
   19.8708   33.1646   28.8955 H   0  0  0  0  0  0  0  0  0  0  0  0
   20.3517   34.7134   28.2056 H   0  0  0  0  0  0  0  0  0  0  0  0
   20.2821   33.7880   32.8065 H   0  0  0  0  0  0  0  0  0  0  0  0
   18.8505   33.0180   33.4475 H   0  0  0  0  0  0  0  0  0  0  0  0
   19.4879   34.4531   34.2137 H   0  0  0  0  0  0  0  0  0  0  0  0
   16.6012   35.6363   32.4066 H   0  0  0  0  0  0  0  0  0  0  0  0
   17.3511   35.5264   33.9809 H   0  0  0  0  0  0  0  0  0  0  0  0
   16.7137   34.0912   33.2147 H   0  0  0  0  0  0  0  0  0  0  0  0
  1  2  2  0
  2  3  1  0
  3  4  2  0
  4  5  1  0
  4 42  1  0
  5  6  2  0
  6 31  1  0
  6  7  1  0
  7  8  2  0
  8  9  1  0
  8  3  1  0
  9 28  1  0
  9 10  1  0
 10 11  2  0
 10  1  1  0
 12 13  2  0
 13 14  1  0
 13 15  1  0
 15 16  2  0
 15 43  1  0
 16  1  1  0
 16 17  1  0
 17 18  2  0
 17 44  1  0
 18 19  1  0
 18 12  1  0
 20 12  1  0
 20 21  1  0
 22 23  2  0
 22 24  2  0
 22 20  1  0
 25 22  1  0
 25 45  1  0
 25 46  1  0
 26 27  1  0
 26 47  1  0
 26 48  1  0
 26 49  1  0
 27 25  1  0
 27 50  1  0
 27 51  1  0
 28 29  1  0
 28 30  1  0
 28 52  1  0
 29 53  1  0
 29 54  1  0
 29 55  1  0
 30 56  1  0
 30 57  1  0
 30 58  1  0
 31 33  1  0
 31 32  1  0
 33 34  1  0
 33 59  1  6
 34 35  1  0
 34 60  1  0
 34 61  1  0
 35 36  1  0
 35 62  1  0
 35 63  1  0
 36 39  1  0
 36 37  1  0
 36 64  1  1
 37 38  1  0
 37 65  1  0
 37 66  1  0
 38 33  1  0
 38 67  1  0
 38 68  1  0
 39 40  1  0
 39 41  1  0
 40 69  1  0
 40 70  1  0
 40 71  1  0
 41 72  1  0
 41 73  1  0
 41 74  1  0
M  END
>  <minimizedAffinity>  (3) 
-9.20146

>  <mol_id>  (3) 
14710

>  <source_index>  (3) 
2

>  <layer>  (3) 
L2

>  <uniprot>  (3) 
O75460

>  <paff>  (3) 
10

>  <smiles>  (3) 
CCCS(=O)(=O)Nc1c(F)cc(-c2nc3cnc(N[C@H]4CC[C@H](N(C)C)CC4)nc3n(C(C)C)c2=O)cc1F

$$$$
L2:O75460:25683
     RDKit          3D

 68 73  0  0  0  0  0  0  0  0999 V2000
   17.8612   35.7991   23.5777 O   0  0  0  0  0  0  0  0  0  0  0  0
   17.1804   35.4185   24.5343 C   0  0  0  0  0  0  0  0  0  0  0  0
   15.7231   35.1436   24.2985 C   0  0  0  0  0  0  0  0  0  0  0  0
   14.9464   34.7544   25.3170 C   0  0  0  0  0  0  0  0  0  0  0  0
   15.5160   34.5804   26.6383 C   0  0  0  0  0  0  0  0  0  0  0  0
   14.7390   34.1830   27.7027 C   0  0  0  0  0  0  0  0  0  0  0  0
   15.2120   34.0147   28.9455 N   0  0  0  0  0  0  0  0  0  0  0  0
   16.5136   34.2437   29.1338 C   0  0  0  0  0  0  0  0  0  0  0  0
   17.3526   34.6202   28.1593 N   0  0  0  0  0  0  0  0  0  0  0  0
   16.8555   34.8020   26.9099 C   0  0  0  0  0  0  0  0  0  0  0  0
   17.7004   35.2362   25.8269 N   0  0  0  0  0  0  0  0  0  0  0  0
   15.1233   35.3198   22.9585 C   0  0  0  0  0  0  0  0  0  0  0  0
   15.3229   34.3539   21.9577 C   0  0  0  0  0  0  0  0  0  0  0  0
   14.7688   34.5164   20.6816 C   0  0  0  0  0  0  0  0  0  0  0  0
   14.0165   35.6535   20.3917 C   0  0  0  0  0  0  0  0  0  0  0  0
   13.7973   36.6079   21.3850 C   0  0  0  0  0  0  0  0  0  0  0  0
   13.0752   37.7039   21.1036 F   0  0  0  0  0  0  0  0  0  0  0  0
   14.3468   36.4448   22.6521 C   0  0  0  0  0  0  0  0  0  0  0  0
   14.1383   37.3925   23.5804 F   0  0  0  0  0  0  0  0  0  0  0  0
   13.4114   35.8111   19.0997 N   0  0  0  0  0  0  0  0  0  0  0  0
   13.4504   36.7781   18.7564 H   0  0  0  0  0  0  0  0  0  0  0  0
   11.7725   35.3310   18.9834 S   0  0  0  0  0  0  0  0  0  0  0  0
   11.6414   34.3653   17.9146 O   0  0  0  0  0  0  0  0  0  0  0  0
   11.3959   35.0237   20.3477 O   0  0  0  0  0  0  0  0  0  0  0  0
   11.0242   36.8927   18.5045 C   0  0  0  0  0  0  0  0  0  0  0  0
   11.3795   37.2015   17.0744 C   0  0  0  0  0  0  0  0  0  0  0  0
   12.4158   38.0977   16.7749 C   0  0  0  0  0  0  0  0  0  0  0  0
   12.7431   38.3835   15.4486 C   0  0  0  0  0  0  0  0  0  0  0  0
   12.0390   37.7791   14.4096 C   0  0  0  0  0  0  0  0  0  0  0  0
   11.0032   36.8923   14.6948 C   0  0  0  0  0  0  0  0  0  0  0  0
   10.6726   36.6051   16.0200 C   0  0  0  0  0  0  0  0  0  0  0  0
   19.1239   35.5330   25.9985 C   0  0  0  0  0  0  0  0  0  0  0  0
   20.1846   34.5108   26.2910 C   0  0  0  0  0  0  0  0  0  0  0  0
   20.1958   35.2630   24.9838 C   0  0  0  0  0  0  0  0  0  0  0  0
   16.9178   34.0672   30.4388 N   0  0  0  0  0  0  0  0  0  0  0  0
   16.4662   33.2097   30.7444 H   0  0  0  0  0  0  0  0  0  0  0  0
   18.3146   34.1738   30.8486 C   0  0  2  0  0  0  0  0  0  0  0  0
   19.0964   32.8567   30.6597 C   0  0  0  0  0  0  0  0  0  0  0  0
   20.5288   32.9869   30.9866 N   0  0  0  0  0  0  0  0  0  0  0  0
   20.6959   33.4973   32.3580 C   0  0  0  0  0  0  0  0  0  0  0  0
   19.9840   34.8362   32.5901 C   0  0  1  0  0  0  0  0  0  0  0  0
   20.5556   35.7743   31.7771 F   0  0  0  0  0  0  0  0  0  0  0  0
   18.5007   34.7588   32.2525 C   0  0  0  0  0  0  0  0  0  0  0  0
   20.9436   33.6692   30.3474 H   0  0  0  0  0  0  0  0  0  0  0  0
   13.9416   34.5782   25.1613 H   0  0  0  0  0  0  0  0  0  0  0  0
   13.7365   34.0047   27.5345 H   0  0  0  0  0  0  0  0  0  0  0  0
   15.8851   33.5138   22.1656 H   0  0  0  0  0  0  0  0  0  0  0  0
   14.9172   33.7960   19.9577 H   0  0  0  0  0  0  0  0  0  0  0  0
   11.3895   37.6728   19.1392 H   0  0  0  0  0  0  0  0  0  0  0  0
    9.9608   36.8232   18.6009 H   0  0  0  0  0  0  0  0  0  0  0  0
   12.9401   38.5491   17.5407 H   0  0  0  0  0  0  0  0  0  0  0  0
   13.5078   39.0435   15.2373 H   0  0  0  0  0  0  0  0  0  0  0  0
   12.2846   37.9882   13.4293 H   0  0  0  0  0  0  0  0  0  0  0  0
   10.4795   36.4470   13.9250 H   0  0  0  0  0  0  0  0  0  0  0  0
    9.9027   35.9494   16.2255 H   0  0  0  0  0  0  0  0  0  0  0  0
   18.7548   36.4081   26.4913 H   0  0  0  0  0  0  0  0  0  0  0  0
   19.9355   33.4703   26.3080 H   0  0  0  0  0  0  0  0  0  0  0  0
   20.8888   34.3544   27.0813 H   0  0  0  0  0  0  0  0  0  0  0  0
   19.9550   34.7564   24.0726 H   0  0  0  0  0  0  0  0  0  0  0  0
   20.9118   35.8621   24.4610 H   0  0  0  0  0  0  0  0  0  0  0  0
   18.7452   34.8868   30.1770 H   0  0  0  0  0  0  0  0  0  0  0  0
   19.0059   32.5495   29.6388 H   0  0  0  0  0  0  0  0  0  0  0  0
   18.6782   32.1362   31.3312 H   0  0  0  0  0  0  0  0  0  0  0  0
   21.7406   33.6292   32.5478 H   0  0  0  0  0  0  0  0  0  0  0  0
   20.2566   32.7820   33.0215 H   0  0  0  0  0  0  0  0  0  0  0  0
   20.0818   35.0898   33.6250 H   0  0  0  0  0  0  0  0  0  0  0  0
   18.0775   35.7410   32.2864 H   0  0  0  0  0  0  0  0  0  0  0  0
   18.0101   34.1284   32.9644 H   0  0  0  0  0  0  0  0  0  0  0  0
  1  2  2  0
  2  3  1  0
  3 12  1  0
  3  4  2  0
  4  5  1  0
  4 45  1  0
  5  6  2  0
  6  7  1  0
  6 46  1  0
  7  8  2  0
  8 35  1  0
  8  9  1  0
  9 10  2  0
 10 11  1  0
 10  5  1  0
 11 32  1  0
 11  2  1  0
 12 13  2  0
 13 14  1  0
 13 47  1  0
 14 15  2  0
 14 48  1  0
 15 20  1  0
 15 16  1  0
 16 17  1  0
 16 18  2  0
 18 19  1  0
 18 12  1  0
 20 22  1  0
 20 21  1  0
 22 23  2  0
 22 24  2  0
 22 25  1  0
 25 26  1  0
 25 49  1  0
 25 50  1  0
 26 27  2  0
 27 28  1  0
 27 51  1  0
 28 29  2  0
 28 52  1  0
 29 30  1  0
 29 53  1  0
 30 31  2  0
 30 54  1  0
 31 26  1  0
 31 55  1  0
 32 33  1  0
 32 56  1  0
 33 34  1  0
 33 57  1  0
 33 58  1  0
 34 32  1  0
 34 59  1  0
 34 60  1  0
 35 37  1  0
 35 36  1  0
 37 38  1  0
 37 61  1  6
 38 39  1  0
 38 62  1  0
 38 63  1  0
 39 40  1  0
 39 44  1  0
 40 41  1  0
 40 64  1  0
 40 65  1  0
 41 42  1  0
 41 43  1  0
 41 66  1  1
 43 37  1  0
 43 67  1  0
 43 68  1  0
M  END
>  <minimizedAffinity>  (4) 
-11.90853

>  <mol_id>  (4) 
25683

>  <source_index>  (4) 
3

>  <layer>  (4) 
L2

>  <uniprot>  (4) 
O75460

>  <paff>  (4) 
8.9586000000000006

>  <smiles>  (4) 
O=c1c(-c2ccc(NS(=O)(=O)Cc3ccccc3)c(F)c2F)cc2cnc(N[C@@H]3CNC[C@@H](F)C3)nc2n1C1CC1

$$$$
L2:O75460:48303
     RDKit          3D

 70 74  0  0  0  0  0  0  0  0999 V2000
   14.4664   38.8080    9.9454 C   0  0  0  0  0  0  0  0  0  0  0  0
   14.0650   38.7664   11.3919 C   0  0  0  0  0  0  0  0  0  0  0  0
   12.8431   38.2110   11.7636 C   0  0  0  0  0  0  0  0  0  0  0  0
   12.4563   38.1826   13.1077 C   0  0  0  0  0  0  0  0  0  0  0  0
   13.2720   38.7078   14.1409 C   0  0  0  0  0  0  0  0  0  0  0  0
   12.9003   38.7099   15.5179 C   0  0  0  0  0  0  0  0  0  0  0  0
   13.7745   39.2061   16.4913 C   0  0  0  0  0  0  0  0  0  0  0  0
   15.0208   39.7006   16.1300 C   0  0  0  0  0  0  0  0  0  0  0  0
   15.3890   39.7278   14.7878 C   0  0  0  0  0  0  0  0  0  0  0  0
   14.5312   39.2505   13.7726 C   0  0  0  0  0  0  0  0  0  0  0  0
   14.8863   39.3021   12.3977 C   0  0  0  0  0  0  0  0  0  0  0  0
   11.5814   38.3082   15.9178 N   0  0  0  0  0  0  0  0  0  0  0  0
   10.8059   38.5702   15.3072 H   0  0  0  0  0  0  0  0  0  0  0  0
   11.3059   36.8152   16.6329 S   0  0  0  0  0  0  0  0  0  0  0  0
    9.9847   36.4088   16.2108 O   0  0  0  0  0  0  0  0  0  0  0  0
   12.4471   35.9472   16.4520 O   0  0  0  0  0  0  0  0  0  0  0  0
   11.2066   37.2460   18.3656 C   0  0  0  0  0  0  0  0  0  0  0  0
   12.4871   37.0617   19.1686 C   0  0  0  0  0  0  0  0  0  0  0  0
   12.2867   36.3940   20.5096 C   0  0  0  0  0  0  0  0  0  0  0  0
   13.3722   35.6770   20.8675 F   0  0  0  0  0  0  0  0  0  0  0  0
   12.0906   37.3389   21.4593 F   0  0  0  0  0  0  0  0  0  0  0  0
   11.2034   35.5895   20.5228 F   0  0  0  0  0  0  0  0  0  0  0  0
   16.1110   39.8177   12.0152 O   0  0  0  0  0  0  0  0  0  0  0  0
   16.2262   41.2092   11.9898 C   0  0  0  0  0  0  0  0  0  0  0  0
   15.1658   41.9361   11.5426 N   0  0  0  0  0  0  0  0  0  0  0  0
   15.2976   43.2760   11.5169 C   0  0  0  0  0  0  0  0  0  0  0  0
   16.4405   43.9368   11.9213 C   0  0  0  0  0  0  0  0  0  0  0  0
   17.5111   43.1727   12.3788 C   0  0  0  0  0  0  0  0  0  0  0  0
   17.4344   41.7673   12.4329 C   0  0  0  0  0  0  0  0  0  0  0  0
   18.5948   40.9897   12.9095 C   0  0  0  0  0  0  0  0  0  0  0  0
   19.1111   39.8899   12.2547 C   0  0  0  0  0  0  0  0  0  0  0  0
   20.1887   39.2816   12.8519 C   0  0  0  0  0  0  0  0  0  0  0  0
   20.7260   39.6927   14.0129 N   0  0  0  0  0  0  0  0  0  0  0  0
   20.1522   40.7456   14.6021 C   0  0  0  0  0  0  0  0  0  0  0  0
   19.1143   41.4134   14.0862 N   0  0  0  0  0  0  0  0  0  0  0  0
   20.5945   41.2089   15.8247 N   0  0  0  0  0  0  0  0  0  0  0  0
   20.9886   40.4172   16.3195 H   0  0  0  0  0  0  0  0  0  0  0  0
   19.7163   42.0821   16.5936 C   0  0  1  0  0  0  0  0  0  0  0  0
   19.1588   41.3494   17.8212 C   0  0  0  0  0  0  0  0  0  0  0  0
   18.3470   42.2816   18.7288 C   0  0  0  0  0  0  0  0  0  0  0  0
   18.6056   43.7647   18.4641 C   0  0  0  0  0  0  0  0  0  0  0  0
   20.0271   44.0281   18.2495 N   0  0  0  0  0  0  0  0  0  0  0  0
   20.5283   43.3283   17.0529 C   0  0  0  0  0  0  0  0  0  0  0  0
   20.5481   43.7022   19.0648 H   0  0  0  0  0  0  0  0  0  0  0  0
   13.7044   38.3494    9.3505 H   0  0  0  0  0  0  0  0  0  0  0  0
   15.3872   38.2788    9.8154 H   0  0  0  0  0  0  0  0  0  0  0  0
   14.5936   39.8255    9.6397 H   0  0  0  0  0  0  0  0  0  0  0  0
   12.2186   37.8176   11.0423 H   0  0  0  0  0  0  0  0  0  0  0  0
   11.5457   37.7649   13.3554 H   0  0  0  0  0  0  0  0  0  0  0  0
   13.4913   39.2046   17.4837 H   0  0  0  0  0  0  0  0  0  0  0  0
   15.6709   40.0463   16.8531 H   0  0  0  0  0  0  0  0  0  0  0  0
   16.3131   40.1067   14.5278 H   0  0  0  0  0  0  0  0  0  0  0  0
   10.4485   36.6373   18.8123 H   0  0  0  0  0  0  0  0  0  0  0  0
   10.9949   38.2945   18.3927 H   0  0  0  0  0  0  0  0  0  0  0  0
   12.9204   38.0257   19.3352 H   0  0  0  0  0  0  0  0  0  0  0  0
   13.1194   36.4164   18.5953 H   0  0  0  0  0  0  0  0  0  0  0  0
   14.5022   43.8388   11.1769 H   0  0  0  0  0  0  0  0  0  0  0  0
   16.4996   44.9665   11.8856 H   0  0  0  0  0  0  0  0  0  0  0  0
   18.3766   43.6448   12.6838 H   0  0  0  0  0  0  0  0  0  0  0  0
   18.7111   39.5446   11.3683 H   0  0  0  0  0  0  0  0  0  0  0  0
   20.6086   38.4638   12.3829 H   0  0  0  0  0  0  0  0  0  0  0  0
   18.8928   42.3808   15.9792 H   0  0  0  0  0  0  0  0  0  0  0  0
   19.9754   40.9459   18.3827 H   0  0  0  0  0  0  0  0  0  0  0  0
   18.5062   40.5753   17.4752 H   0  0  0  0  0  0  0  0  0  0  0  0
   18.6008   42.0696   19.7464 H   0  0  0  0  0  0  0  0  0  0  0  0
   17.3127   42.1001   18.5232 H   0  0  0  0  0  0  0  0  0  0  0  0
   18.2696   44.3324   19.3065 H   0  0  0  0  0  0  0  0  0  0  0  0
   18.0736   44.0467   17.5796 H   0  0  0  0  0  0  0  0  0  0  0  0
   21.5288   43.0087   17.2570 H   0  0  0  0  0  0  0  0  0  0  0  0
   20.4453   44.0343   16.2531 H   0  0  0  0  0  0  0  0  0  0  0  0
  1  2  1  0
  1 45  1  0
  1 46  1  0
  1 47  1  0
  2  3  2  0
  3  4  1  0
  3 48  1  0
  4  5  2  0
  4 49  1  0
  5  6  1  0
  6 12  1  0
  6  7  2  0
  7  8  1  0
  7 50  1  0
  8  9  2  0
  8 51  1  0
  9 10  1  0
  9 52  1  0
 10 11  2  0
 10  5  1  0
 11 23  1  0
 11  2  1  0
 12 14  1  0
 12 13  1  0
 14 15  2  0
 14 16  2  0
 14 17  1  0
 17 18  1  0
 17 53  1  0
 17 54  1  0
 18 19  1  0
 18 55  1  0
 18 56  1  0
 19 20  1  0
 19 21  1  0
 19 22  1  0
 23 24  1  0
 24 25  2  0
 25 26  1  0
 26 27  2  0
 26 57  1  0
 27 28  1  0
 27 58  1  0
 28 29  2  0
 28 59  1  0
 29 30  1  0
 29 24  1  0
 30 31  2  0
 31 32  1  0
 31 60  1  0
 32 33  2  0
 32 61  1  0
 33 34  1  0
 34 36  1  0
 34 35  2  0
 35 30  1  0
 36 38  1  0
 36 37  1  0
 38 39  1  0
 38 62  1  6
 39 40  1  0
 39 63  1  0
 39 64  1  0
 40 41  1  0
 40 65  1  0
 40 66  1  0
 41 42  1  0
 41 67  1  0
 41 68  1  0
 42 43  1  0
 42 44  1  0
 43 38  1  0
 43 69  1  0
 43 70  1  0
M  END
>  <minimizedAffinity>  (5) 
-6.75467

>  <mol_id>  (5) 
48303

>  <source_index>  (5) 
4

>  <layer>  (5) 
L2

>  <uniprot>  (5) 
O75460

>  <paff>  (5) 
7.0757000000000003

>  <smiles>  (5) 
Cc1ccc2c(NS(=O)(=O)CCC(F)(F)F)cccc2c1Oc1ncccc1-c1ccnc(N[C@H]2CCCNC2)n1

$$$$
L2:O75460:72342
     RDKit          3D

 84 88  0  0  0  0  0  0  0  0999 V2000
   17.6777   34.7963   25.4259 N   0  0  0  0  0  0  0  0  0  0  0  0
   17.1138   35.1372   24.1973 C   0  0  0  0  0  0  0  0  0  0  0  0
   17.7732   35.5226   23.2321 O   0  0  0  0  0  0  0  0  0  0  0  0
   15.6203   35.0178   24.0500 C   0  0  0  0  0  0  0  0  0  0  0  0
   14.8692   34.6582   25.1022 C   0  0  0  0  0  0  0  0  0  0  0  0
   15.4997   34.3653   26.3761 C   0  0  0  0  0  0  0  0  0  0  0  0
   14.7832   34.0071   27.4959 C   0  0  0  0  0  0  0  0  0  0  0  0
   15.3459   33.7271   28.6840 N   0  0  0  0  0  0  0  0  0  0  0  0
   16.6765   33.8165   28.7564 C   0  0  0  0  0  0  0  0  0  0  0  0
   17.4549   34.1518   27.7223 N   0  0  0  0  0  0  0  0  0  0  0  0
   16.8694   34.4263   26.5403 C   0  0  0  0  0  0  0  0  0  0  0  0
   14.9580   35.3234   22.7688 C   0  0  0  0  0  0  0  0  0  0  0  0
   14.4546   36.5971   22.4882 C   0  0  0  0  0  0  0  0  0  0  0  0
   13.8573   36.8502   21.2535 C   0  0  0  0  0  0  0  0  0  0  0  0
   13.7616   35.8152   20.3372 C   0  0  0  0  0  0  0  0  0  0  0  0
   14.2765   34.5943   20.5503 N   0  0  0  0  0  0  0  0  0  0  0  0
   14.8236   34.3621   21.7701 C   0  0  0  0  0  0  0  0  0  0  0  0
   13.3144   36.0863   19.0279 N   0  0  0  0  0  0  0  0  0  0  0  0
   13.5806   36.9782   18.6220 H   0  0  0  0  0  0  0  0  0  0  0  0
   11.7359   35.7160   18.6337 S   0  0  0  0  0  0  0  0  0  0  0  0
   11.0066   35.8687   19.8782 O   0  0  0  0  0  0  0  0  0  0  0  0
   11.6960   34.4428   17.9468 O   0  0  0  0  0  0  0  0  0  0  0  0
   11.2121   37.0272   17.5203 C   0  0  0  0  0  0  0  0  0  0  0  0
   12.2193   37.4141   16.4284 C   0  0  0  0  0  0  0  0  0  0  0  0
   12.8430   38.7989   16.6358 C   0  0  0  0  0  0  0  0  0  0  0  0
   13.9116   39.1117   15.5818 C   0  0  0  0  0  0  0  0  0  0  0  0
   13.7057   38.3732   14.2601 C   0  0  0  0  0  0  0  0  0  0  0  0
   12.2281   38.1705   13.9619 C   0  0  0  0  0  0  0  0  0  0  0  0
   11.5268   37.3526   15.0491 C   0  0  0  0  0  0  0  0  0  0  0  0
   19.7338   36.2196   25.1088 C   0  0  0  0  0  0  0  0  0  0  0  0
   19.1446   34.8841   25.5745 C   0  0  0  0  0  0  0  0  0  0  0  0
   19.8777   33.6800   24.9788 C   0  0  0  0  0  0  0  0  0  0  0  0
   17.3405   33.5543   29.9393 N   0  0  0  0  0  0  0  0  0  0  0  0
   16.7553   32.9350   30.4874 H   0  0  0  0  0  0  0  0  0  0  0  0
   17.9395   34.6792   30.6479 C   0  0  1  0  0  0  0  0  0  0  0  0
   17.5541   34.6442   32.1387 C   0  0  0  0  0  0  0  0  0  0  0  0
   18.6567   35.2208   33.0206 C   0  0  0  0  0  0  0  0  0  0  0  0
   19.9355   34.3574   32.9356 C   0  0  1  0  0  0  0  0  0  0  0  0
   20.1767   33.8108   31.5087 C   0  0  0  0  0  0  0  0  0  0  0  0
   19.4660   34.6304   30.4337 C   0  0  0  0  0  0  0  0  0  0  0  0
   21.0653   35.0660   33.5698 N   0  0  0  0  0  0  0  0  0  0  0  0
   21.2092   34.7056   34.9824 C   0  0  0  0  0  0  0  0  0  0  0  0
   22.3481   34.9211   32.8828 C   0  0  0  0  0  0  0  0  0  0  0  0
   13.8440   34.5900   25.0056 H   0  0  0  0  0  0  0  0  0  0  0  0
   13.7557   33.9504   27.4186 H   0  0  0  0  0  0  0  0  0  0  0  0
   14.5248   37.3480   23.1927 H   0  0  0  0  0  0  0  0  0  0  0  0
   13.4940   37.7892   21.0270 H   0  0  0  0  0  0  0  0  0  0  0  0
   15.1631   33.4086   21.9714 H   0  0  0  0  0  0  0  0  0  0  0  0
   11.0139   37.8987   18.1087 H   0  0  0  0  0  0  0  0  0  0  0  0
   10.3545   36.6477   17.0052 H   0  0  0  0  0  0  0  0  0  0  0  0
   13.0229   36.7096   16.4818 H   0  0  0  0  0  0  0  0  0  0  0  0
   13.2940   38.8328   17.6055 H   0  0  0  0  0  0  0  0  0  0  0  0
   12.0655   39.5284   16.5446 H   0  0  0  0  0  0  0  0  0  0  0  0
   14.8669   38.8363   15.9773 H   0  0  0  0  0  0  0  0  0  0  0  0
   13.8439   40.1581   15.3690 H   0  0  0  0  0  0  0  0  0  0  0  0
   14.1836   37.4176   14.3172 H   0  0  0  0  0  0  0  0  0  0  0  0
   14.1298   38.9636   13.4749 H   0  0  0  0  0  0  0  0  0  0  0  0
   12.1321   37.6568   13.0282 H   0  0  0  0  0  0  0  0  0  0  0  0
   11.7648   39.1343   13.9250 H   0  0  0  0  0  0  0  0  0  0  0  0
   11.4959   36.3306   14.7337 H   0  0  0  0  0  0  0  0  0  0  0  0
   10.5519   37.7757   15.1736 H   0  0  0  0  0  0  0  0  0  0  0  0
   20.7949   36.2086   25.2464 H   0  0  0  0  0  0  0  0  0  0  0  0
   19.3080   37.0165   25.6820 H   0  0  0  0  0  0  0  0  0  0  0  0
   19.5100   36.3663   24.0728 H   0  0  0  0  0  0  0  0  0  0  0  0
   19.3169   34.8503   26.6300 H   0  0  0  0  0  0  0  0  0  0  0  0
   19.7372   33.6659   23.9182 H   0  0  0  0  0  0  0  0  0  0  0  0
   19.4863   32.7788   25.4025 H   0  0  0  0  0  0  0  0  0  0  0  0
   20.9222   33.7535   25.1993 H   0  0  0  0  0  0  0  0  0  0  0  0
   17.5703   35.6066   30.2626 H   0  0  0  0  0  0  0  0  0  0  0  0
   17.3749   33.6294   32.4267 H   0  0  0  0  0  0  0  0  0  0  0  0
   16.6758   35.2411   32.2700 H   0  0  0  0  0  0  0  0  0  0  0  0
   18.3173   35.2460   34.0350 H   0  0  0  0  0  0  0  0  0  0  0  0
   18.8867   36.2087   32.6800 H   0  0  0  0  0  0  0  0  0  0  0  0
   19.8133   33.4617   33.5081 H   0  0  0  0  0  0  0  0  0  0  0  0
   19.8187   32.8035   31.4633 H   0  0  0  0  0  0  0  0  0  0  0  0
   21.2275   33.8673   31.3151 H   0  0  0  0  0  0  0  0  0  0  0  0
   19.6655   34.1915   29.4785 H   0  0  0  0  0  0  0  0  0  0  0  0
   19.8362   35.6328   30.4884 H   0  0  0  0  0  0  0  0  0  0  0  0
   20.2662   34.8147   35.4762 H   0  0  0  0  0  0  0  0  0  0  0  0
   21.9296   35.3489   35.4430 H   0  0  0  0  0  0  0  0  0  0  0  0
   21.5369   33.6900   35.0598 H   0  0  0  0  0  0  0  0  0  0  0  0
   22.2329   35.1864   31.8526 H   0  0  0  0  0  0  0  0  0  0  0  0
   22.6787   33.9060   32.9549 H   0  0  0  0  0  0  0  0  0  0  0  0
   23.0713   35.5649   33.3382 H   0  0  0  0  0  0  0  0  0  0  0  0
  1  2  1  0
  2  3  2  0
  2  4  1  0
  4 12  1  0
  4  5  2  0
  5  6  1  0
  5 44  1  0
  6  7  2  0
  7  8  1  0
  7 45  1  0
  8  9  2  0
  9 33  1  0
  9 10  1  0
 10 11  2  0
 11  1  1  0
 11  6  1  0
 12 13  2  0
 13 14  1  0
 13 46  1  0
 14 15  2  0
 14 47  1  0
 15 18  1  0
 15 16  1  0
 16 17  2  0
 17 12  1  0
 17 48  1  0
 18 20  1  0
 18 19  1  0
 20 21  2  0
 20 22  2  0
 20 23  1  0
 23 24  1  0
 23 49  1  0
 23 50  1  0
 24 25  1  0
 24 51  1  0
 25 26  1  0
 25 52  1  0
 25 53  1  0
 26 27  1  0
 26 54  1  0
 26 55  1  0
 27 28  1  0
 27 56  1  0
 27 57  1  0
 28 29  1  0
 28 58  1  0
 28 59  1  0
 29 24  1  0
 29 60  1  0
 29 61  1  0
 30 31  1  0
 30 62  1  0
 30 63  1  0
 30 64  1  0
 31 32  1  0
 31  1  1  0
 31 65  1  0
 32 66  1  0
 32 67  1  0
 32 68  1  0
 33 35  1  0
 33 34  1  0
 35 36  1  0
 35 69  1  6
 36 37  1  0
 36 70  1  0
 36 71  1  0
 37 38  1  0
 37 72  1  0
 37 73  1  0
 38 41  1  0
 38 39  1  0
 38 74  1  1
 39 40  1  0
 39 75  1  0
 39 76  1  0
 40 35  1  0
 40 77  1  0
 40 78  1  0
 41 42  1  0
 41 43  1  0
 42 79  1  0
 42 80  1  0
 42 81  1  0
 43 82  1  0
 43 83  1  0
 43 84  1  0
M  END
>  <minimizedAffinity>  (6) 
-9.91985

>  <mol_id>  (6) 
72342

>  <source_index>  (6) 
5

>  <layer>  (6) 
L2

>  <uniprot>  (6) 
O75460

>  <paff>  (6) 
9.7446999999999999

>  <smiles>  (6) 
CC(C)n1c(=O)c(-c2ccc(NS(=O)(=O)CC3CCCCC3)nc2)cc2cnc(N[C@H]3CC[C@H](N(C)C)CC3)nc21

$$$$
L2:O75460:84980
     RDKit          3D

 68 72  0  0  0  0  0  0  0  0999 V2000
   17.4077   35.0420   25.5586 N   0  0  0  0  0  0  0  0  0  0  0  0
   16.9673   35.3469   24.2730 C   0  0  0  0  0  0  0  0  0  0  0  0
   17.6841   35.7761   23.3761 O   0  0  0  0  0  0  0  0  0  0  0  0
   15.4741   35.1507   23.9896 C   0  0  0  0  0  0  0  0  0  0  0  0
   14.6277   34.8150   24.9203 N   0  0  0  0  0  0  0  0  0  0  0  0
   15.1319   34.5910   26.2091 C   0  0  0  0  0  0  0  0  0  0  0  0
   14.2900   34.2349   27.2393 C   0  0  0  0  0  0  0  0  0  0  0  0
   14.6941   34.0075   28.5052 N   0  0  0  0  0  0  0  0  0  0  0  0
   15.9991   34.1409   28.7526 C   0  0  0  0  0  0  0  0  0  0  0  0
   16.8997   34.4873   27.8267 N   0  0  0  0  0  0  0  0  0  0  0  0
   16.4674   34.6932   26.5658 C   0  0  0  0  0  0  0  0  0  0  0  0
   14.9603   35.3762   22.6118 C   0  0  0  0  0  0  0  0  0  0  0  0
   15.2723   34.5036   21.5616 C   0  0  0  0  0  0  0  0  0  0  0  0
   14.7701   34.7386   20.2766 C   0  0  0  0  0  0  0  0  0  0  0  0
   13.9651   35.8502   20.0339 C   0  0  0  0  0  0  0  0  0  0  0  0
   13.6335   36.6956   21.0961 C   0  0  0  0  0  0  0  0  0  0  0  0
   12.8454   37.7600   20.8748 F   0  0  0  0  0  0  0  0  0  0  0  0
   14.1168   36.4675   22.3800 C   0  0  0  0  0  0  0  0  0  0  0  0
   13.4383   36.1290   18.7387 N   0  0  0  0  0  0  0  0  0  0  0  0
   14.0763   35.9618   17.9625 H   0  0  0  0  0  0  0  0  0  0  0  0
   11.8851   35.6633   18.3222 S   0  0  0  0  0  0  0  0  0  0  0  0
   11.0126   36.5716   19.0304 O   0  0  0  0  0  0  0  0  0  0  0  0
   11.7501   34.2324   18.4495 O   0  0  0  0  0  0  0  0  0  0  0  0
   11.8078   36.0626   16.7160 N   0  0  0  0  0  0  0  0  0  0  0  0
   12.9569   36.6098   15.9817 C   0  0  0  0  0  0  0  0  0  0  0  0
   12.3305   37.5345   14.9442 C   0  0  0  0  0  0  0  0  0  0  0  0
   10.9756   36.8988   14.6839 C   0  0  0  0  0  0  0  0  0  0  0  0
   10.5446   36.4423   16.0728 C   0  0  0  0  0  0  0  0  0  0  0  0
   19.4731   36.4606   25.2773 C   0  0  0  0  0  0  0  0  0  0  0  0
   18.8349   35.2037   25.8772 C   0  0  0  0  0  0  0  0  0  0  0  0
   19.6462   33.9417   25.5843 C   0  0  0  0  0  0  0  0  0  0  0  0
   16.5126   33.9291   30.0214 N   0  0  0  0  0  0  0  0  0  0  0  0
   16.0645   33.0815   30.3581 H   0  0  0  0  0  0  0  0  0  0  0  0
   17.9676   33.9914   30.1619 C   0  0  2  0  0  0  0  0  0  0  0  0
   18.5329   32.5441   30.3034 C   0  0  0  0  0  0  0  0  0  0  0  0
   19.8363   32.4111   30.9779 N   0  0  0  0  0  0  0  0  0  0  0  0
   20.5882   33.6679   30.9183 C   0  0  0  0  0  0  0  0  0  0  0  0
   19.8626   34.8486   31.5818 C   0  0  1  0  0  0  0  0  0  0  0  0
   20.3203   35.9962   31.0015 F   0  0  0  0  0  0  0  0  0  0  0  0
   18.3446   34.7942   31.4130 C   0  0  0  0  0  0  0  0  0  0  0  0
   19.6763   32.1642   31.9568 H   0  0  0  0  0  0  0  0  0  0  0  0
   13.2846   34.1357   27.0285 H   0  0  0  0  0  0  0  0  0  0  0  0
   15.8749   33.6841   21.7360 H   0  0  0  0  0  0  0  0  0  0  0  0
   14.9961   34.0881   19.5079 H   0  0  0  0  0  0  0  0  0  0  0  0
   13.8555   37.0976   23.1545 H   0  0  0  0  0  0  0  0  0  0  0  0
   13.5117   35.8275   15.5073 H   0  0  0  0  0  0  0  0  0  0  0  0
   13.6476   37.1188   16.6210 H   0  0  0  0  0  0  0  0  0  0  0  0
   12.9188   37.5629   14.0509 H   0  0  0  0  0  0  0  0  0  0  0  0
   12.2606   38.5496   15.2753 H   0  0  0  0  0  0  0  0  0  0  0  0
   11.0616   36.0684   14.0147 H   0  0  0  0  0  0  0  0  0  0  0  0
   10.2773   37.5643   14.2210 H   0  0  0  0  0  0  0  0  0  0  0  0
    9.8801   35.6059   16.0114 H   0  0  0  0  0  0  0  0  0  0  0  0
   10.0123   37.1971   16.6130 H   0  0  0  0  0  0  0  0  0  0  0  0
   20.5057   36.5033   25.5544 H   0  0  0  0  0  0  0  0  0  0  0  0
   18.9683   37.3284   25.6476 H   0  0  0  0  0  0  0  0  0  0  0  0
   19.3910   36.4281   24.2109 H   0  0  0  0  0  0  0  0  0  0  0  0
   18.8650   35.3560   26.9359 H   0  0  0  0  0  0  0  0  0  0  0  0
   19.6423   33.7515   24.5313 H   0  0  0  0  0  0  0  0  0  0  0  0
   19.2108   33.1105   26.0985 H   0  0  0  0  0  0  0  0  0  0  0  0
   20.6534   34.0797   25.9180 H   0  0  0  0  0  0  0  0  0  0  0  0
   18.3798   34.4681   29.2971 H   0  0  0  0  0  0  0  0  0  0  0  0
   18.6329   32.1364   29.3192 H   0  0  0  0  0  0  0  0  0  0  0  0
   17.8357   32.0274   30.9294 H   0  0  0  0  0  0  0  0  0  0  0  0
   20.7608   33.9108   29.8906 H   0  0  0  0  0  0  0  0  0  0  0  0
   21.4994   33.5152   31.4580 H   0  0  0  0  0  0  0  0  0  0  0  0
   20.0642   34.8088   32.6319 H   0  0  0  0  0  0  0  0  0  0  0  0
   17.9656   35.7904   31.3187 H   0  0  0  0  0  0  0  0  0  0  0  0
   17.9197   34.3154   32.2704 H   0  0  0  0  0  0  0  0  0  0  0  0
  1  2  1  0
  2  3  2  0
  2  4  1  0
  4 12  1  0
  4  5  2  0
  5  6  1  0
  6  7  2  0
  7  8  1  0
  7 42  1  0
  8  9  2  0
  9 32  1  0
  9 10  1  0
 10 11  2  0
 11  1  1  0
 11  6  1  0
 12 13  2  0
 13 14  1  0
 13 43  1  0
 14 15  2  0
 14 44  1  0
 15 19  1  0
 15 16  1  0
 16 17  1  0
 16 18  2  0
 18 12  1  0
 18 45  1  0
 19 21  1  0
 19 20  1  0
 21 22  2  0
 21 23  2  0
 21 24  1  0
 24 25  1  0
 25 26  1  0
 25 46  1  0
 25 47  1  0
 26 27  1  0
 26 48  1  0
 26 49  1  0
 27 28  1  0
 27 50  1  0
 27 51  1  0
 28 24  1  0
 28 52  1  0
 28 53  1  0
 29 30  1  0
 29 54  1  0
 29 55  1  0
 29 56  1  0
 30 31  1  0
 30  1  1  0
 30 57  1  0
 31 58  1  0
 31 59  1  0
 31 60  1  0
 32 34  1  0
 32 33  1  0
 34 35  1  0
 34 61  1  6
 35 36  1  0
 35 62  1  0
 35 63  1  0
 36 37  1  0
 36 41  1  0
 37 38  1  0
 37 64  1  0
 37 65  1  0
 38 39  1  0
 38 40  1  0
 38 66  1  1
 40 34  1  0
 40 67  1  0
 40 68  1  0
M  END
>  <minimizedAffinity>  (7) 
-10.40610

>  <mol_id>  (7) 
84980

>  <source_index>  (7) 
6

>  <layer>  (7) 
L2

>  <uniprot>  (7) 
O75460

>  <paff>  (7) 
9.0131999999999994

>  <smiles>  (7) 
CC(C)n1c(=O)c(-c2ccc(NS(=O)(=O)N3CCCC3)c(F)c2)nc2cnc(N[C@@H]3CNC[C@@H](F)C3)nc21

$$$$
L2:O75460:96586
     RDKit          3D

 72 76  0  0  0  0  0  0  0  0999 V2000
   17.8638   34.9074   25.5995 N   0  0  0  0  0  0  0  0  0  0  0  0
   17.2569   35.1787   24.3734 C   0  0  0  0  0  0  0  0  0  0  0  0
   17.8524   35.5765   23.3789 O   0  0  0  0  0  0  0  0  0  0  0  0
   15.7393   34.9790   24.2926 C   0  0  0  0  0  0  0  0  0  0  0  0
   15.0360   34.5991   25.3199 N   0  0  0  0  0  0  0  0  0  0  0  0
   15.7114   34.3361   26.5173 C   0  0  0  0  0  0  0  0  0  0  0  0
   15.0196   33.8992   27.6253 C   0  0  0  0  0  0  0  0  0  0  0  0
   15.5881   33.6245   28.8159 N   0  0  0  0  0  0  0  0  0  0  0  0
   16.9093   33.7932   28.9004 C   0  0  0  0  0  0  0  0  0  0  0  0
   17.6759   34.2129   27.8857 N   0  0  0  0  0  0  0  0  0  0  0  0
   17.0779   34.4724   26.7036 C   0  0  0  0  0  0  0  0  0  0  0  0
   15.0256   35.2300   23.0102 C   0  0  0  0  0  0  0  0  0  0  0  0
   15.1318   34.2750   21.9875 C   0  0  0  0  0  0  0  0  0  0  0  0
   14.5379   34.4984   20.7406 C   0  0  0  0  0  0  0  0  0  0  0  0
   13.8694   35.6948   20.4942 C   0  0  0  0  0  0  0  0  0  0  0  0
   13.7390   36.6240   21.5332 C   0  0  0  0  0  0  0  0  0  0  0  0
   13.0784   37.7718   21.3100 F   0  0  0  0  0  0  0  0  0  0  0  0
   14.3160   36.4100   22.7816 C   0  0  0  0  0  0  0  0  0  0  0  0
   13.2724   35.9971   19.2314 N   0  0  0  0  0  0  0  0  0  0  0  0
   13.9003   35.9427   18.4270 H   0  0  0  0  0  0  0  0  0  0  0  0
   11.6997   35.5351   18.8663 S   0  0  0  0  0  0  0  0  0  0  0  0
   11.7033   34.4760   17.8788 O   0  0  0  0  0  0  0  0  0  0  0  0
   11.0803   35.3047   20.1584 O   0  0  0  0  0  0  0  0  0  0  0  0
   10.9002   37.0044   18.1898 C   0  0  0  0  0  0  0  0  0  0  0  0
   11.3648   37.3634   16.8033 C   0  0  0  0  0  0  0  0  0  0  0  0
   12.3888   38.3091   16.6321 C   0  0  0  0  0  0  0  0  0  0  0  0
   12.8296   38.6622   15.3554 C   0  0  0  0  0  0  0  0  0  0  0  0
   12.2466   38.0821   14.2324 C   0  0  0  0  0  0  0  0  0  0  0  0
   11.2107   37.1631   14.3861 C   0  0  0  0  0  0  0  0  0  0  0  0
   10.7625   36.8159   15.6619 C   0  0  0  0  0  0  0  0  0  0  0  0
   19.8570   36.3039   25.0278 C   0  0  0  0  0  0  0  0  0  0  0  0
   19.3247   35.0453   25.7169 C   0  0  0  0  0  0  0  0  0  0  0  0
   20.0960   33.7801   25.3286 C   0  0  0  0  0  0  0  0  0  0  0  0
   17.4575   33.5159   30.1461 N   0  0  0  0  0  0  0  0  0  0  0  0
   16.6605   33.2148   30.7009 H   0  0  0  0  0  0  0  0  0  0  0  0
   18.2497   34.6064   30.7317 C   0  0  2  0  0  0  0  0  0  0  0  0
   19.7219   34.5022   30.2620 C   0  0  0  0  0  0  0  0  0  0  0  0
   20.4066   33.3216   30.8104 N   0  0  0  0  0  0  0  0  0  0  0  0
   20.3335   33.2510   32.2763 C   0  0  0  0  0  0  0  0  0  0  0  0
   19.5371   34.3841   32.9404 C   0  0  1  0  0  0  0  0  0  0  0  0
   18.1599   34.5252   32.2752 C   0  0  0  0  0  0  0  0  0  0  0  0
   19.9154   32.5042   30.4318 H   0  0  0  0  0  0  0  0  0  0  0  0
   19.4061   34.1420   34.4406 C   0  0  0  0  0  0  0  0  0  0  0  0
   18.3156   33.3690   34.6862 F   0  0  0  0  0  0  0  0  0  0  0  0
   13.9989   33.7740   27.5380 H   0  0  0  0  0  0  0  0  0  0  0  0
   15.6525   33.4002   22.1566 H   0  0  0  0  0  0  0  0  0  0  0  0
   14.5952   33.7774   20.0044 H   0  0  0  0  0  0  0  0  0  0  0  0
   14.2203   37.1151   23.5290 H   0  0  0  0  0  0  0  0  0  0  0  0
   11.1057   37.8297   18.8390 H   0  0  0  0  0  0  0  0  0  0  0  0
    9.8545   36.7878   18.1224 H   0  0  0  0  0  0  0  0  0  0  0  0
   12.8207   38.7483   17.4601 H   0  0  0  0  0  0  0  0  0  0  0  0
   13.5878   39.3534   15.2442 H   0  0  0  0  0  0  0  0  0  0  0  0
   12.5807   38.3320   13.2885 H   0  0  0  0  0  0  0  0  0  0  0  0
   10.7732   36.7376   13.5539 H   0  0  0  0  0  0  0  0  0  0  0  0
    9.9808   36.1502   15.7657 H   0  0  0  0  0  0  0  0  0  0  0  0
   20.9195   36.3522   25.1447 H   0  0  0  0  0  0  0  0  0  0  0  0
   19.4098   37.1692   25.4706 H   0  0  0  0  0  0  0  0  0  0  0  0
   19.6139   36.2702   23.9863 H   0  0  0  0  0  0  0  0  0  0  0  0
   19.5129   35.1751   26.7622 H   0  0  0  0  0  0  0  0  0  0  0  0
   19.9555   33.5825   24.2864 H   0  0  0  0  0  0  0  0  0  0  0  0
   19.7335   32.9517   25.9007 H   0  0  0  0  0  0  0  0  0  0  0  0
   21.1377   33.9223   25.5274 H   0  0  0  0  0  0  0  0  0  0  0  0
   17.8626   35.5501   30.4084 H   0  0  0  0  0  0  0  0  0  0  0  0
   20.2457   35.3801   30.5780 H   0  0  0  0  0  0  0  0  0  0  0  0
   19.7169   34.4089   29.1961 H   0  0  0  0  0  0  0  0  0  0  0  0
   21.3319   33.2773   32.6603 H   0  0  0  0  0  0  0  0  0  0  0  0
   19.8141   32.3444   32.5071 H   0  0  0  0  0  0  0  0  0  0  0  0
   20.0674   35.3036   32.8054 H   0  0  0  0  0  0  0  0  0  0  0  0
   17.6935   35.4170   32.6387 H   0  0  0  0  0  0  0  0  0  0  0  0
   17.5903   33.6535   32.5213 H   0  0  0  0  0  0  0  0  0  0  0  0
   19.2980   35.0799   34.9442 H   0  0  0  0  0  0  0  0  0  0  0  0
   20.2825   33.6420   34.7968 H   0  0  0  0  0  0  0  0  0  0  0  0
  1  2  1  0
  2  3  2  0
  2  4  1  0
  4 12  1  0
  4  5  2  0
  5  6  1  0
  6  7  2  0
  7  8  1  0
  7 45  1  0
  8  9  2  0
  9 34  1  0
  9 10  1  0
 10 11  2  0
 11  1  1  0
 11  6  1  0
 12 13  2  0
 13 14  1  0
 13 46  1  0
 14 15  2  0
 14 47  1  0
 15 19  1  0
 15 16  1  0
 16 17  1  0
 16 18  2  0
 18 12  1  0
 18 48  1  0
 19 21  1  0
 19 20  1  0
 21 22  2  0
 21 23  2  0
 21 24  1  0
 24 25  1  0
 24 49  1  0
 24 50  1  0
 25 26  2  0
 26 27  1  0
 26 51  1  0
 27 28  2  0
 27 52  1  0
 28 29  1  0
 28 53  1  0
 29 30  2  0
 29 54  1  0
 30 25  1  0
 30 55  1  0
 31 32  1  0
 31 56  1  0
 31 57  1  0
 31 58  1  0
 32 33  1  0
 32  1  1  0
 32 59  1  0
 33 60  1  0
 33 61  1  0
 33 62  1  0
 34 36  1  0
 34 35  1  0
 36 37  1  0
 36 63  1  6
 37 38  1  0
 37 64  1  0
 37 65  1  0
 38 39  1  0
 38 42  1  0
 39 40  1  0
 39 66  1  0
 39 67  1  0
 40 43  1  0
 40 41  1  0
 40 68  1  1
 41 36  1  0
 41 69  1  0
 41 70  1  0
 43 44  1  0
 43 71  1  0
 43 72  1  0
M  END
>  <minimizedAffinity>  (8) 
-10.26332

>  <mol_id>  (8) 
96586

>  <source_index>  (8) 
7

>  <layer>  (8) 
L2

>  <uniprot>  (8) 
O75460

>  <paff>  (8) 
9.6197999999999997

>  <smiles>  (8) 
CC(C)n1c(=O)c(-c2ccc(NS(=O)(=O)Cc3ccccc3)c(F)c2)nc2cnc(N[C@@H]3CNC[C@H](CF)C3)nc21

$$$$
L2:O75460:100233
     RDKit          3D

 68 72  0  0  0  0  0  0  0  0999 V2000
   17.2624   35.5465   24.4643 C   0  0  0  0  0  0  0  0  0  0  0  0
   18.2390   35.8160   23.5558 N   0  0  0  0  0  0  0  0  0  0  0  0
   19.3929   35.1308   23.6705 C   0  0  0  0  0  0  0  0  0  0  0  0
   19.6267   34.1906   24.6544 C   0  0  0  0  0  0  0  0  0  0  0  0
   18.6179   33.9443   25.5831 C   0  0  0  0  0  0  0  0  0  0  0  0
   17.3954   34.6366   25.5222 C   0  0  0  0  0  0  0  0  0  0  0  0
   16.3580   34.3905   26.5368 C   0  0  0  0  0  0  0  0  0  0  0  0
   15.0375   34.1487   26.2166 C   0  0  0  0  0  0  0  0  0  0  0  0
   14.1806   33.9893   27.2760 C   0  0  0  0  0  0  0  0  0  0  0  0
   14.5673   34.0661   28.5594 N   0  0  0  0  0  0  0  0  0  0  0  0
   15.8636   34.2985   28.7879 C   0  0  0  0  0  0  0  0  0  0  0  0
   16.7723   34.4762   27.8227 N   0  0  0  0  0  0  0  0  0  0  0  0
   16.3562   34.3811   30.0841 N   0  0  0  0  0  0  0  0  0  0  0  0
   15.8149   33.6871   30.5921 H   0  0  0  0  0  0  0  0  0  0  0  0
   17.8083   34.2244   30.2024 C   0  0  2  0  0  0  0  0  0  0  0  0
   18.1523   32.7138   30.2959 C   0  0  0  0  0  0  0  0  0  0  0  0
   19.5767   32.4441   30.5426 N   0  0  0  0  0  0  0  0  0  0  0  0
   20.0053   33.0883   31.7881 C   0  0  0  0  0  0  0  0  0  0  0  0
   19.7861   34.6082   31.7889 C   0  0  2  0  0  0  0  0  0  0  0  0
   18.3181   34.9347   31.4690 C   0  0  0  0  0  0  0  0  0  0  0  0
   20.1134   32.8560   29.7718 H   0  0  0  0  0  0  0  0  0  0  0  0
   20.7558   35.3208   30.8426 C   0  0  0  0  0  0  0  0  0  0  0  0
   21.3163   36.3990   31.4519 F   0  0  0  0  0  0  0  0  0  0  0  0
   16.0496   36.2260   24.3442 O   0  0  0  0  0  0  0  0  0  0  0  0
   14.1566   35.8174   20.6604 C   0  0  0  0  0  0  0  0  0  0  0  0
   15.1446   34.9160   21.0664 C   0  0  0  0  0  0  0  0  0  0  0  0
   15.5056   33.9146   20.2500 F   0  0  0  0  0  0  0  0  0  0  0  0
   15.7775   35.0463   22.2976 C   0  0  0  0  0  0  0  0  0  0  0  0
   15.3970   36.0891   23.1441 C   0  0  0  0  0  0  0  0  0  0  0  0
   14.4168   37.0020   22.7497 C   0  0  0  0  0  0  0  0  0  0  0  0
   14.0916   38.0304   23.5459 F   0  0  0  0  0  0  0  0  0  0  0  0
   13.7887   36.8552   21.5180 C   0  0  0  0  0  0  0  0  0  0  0  0
   12.8531   37.7402   21.1340 F   0  0  0  0  0  0  0  0  0  0  0  0
   13.4916   35.6172   19.4021 N   0  0  0  0  0  0  0  0  0  0  0  0
   13.9895   35.0009   18.7522 H   0  0  0  0  0  0  0  0  0  0  0  0
   11.7320   34.1141   18.4337 O   0  0  0  0  0  0  0  0  0  0  0  0
   11.8821   35.0885   19.4965 S   0  0  0  0  0  0  0  0  0  0  0  0
   11.5805   34.7246   20.8662 O   0  0  0  0  0  0  0  0  0  0  0  0
   10.9415   36.5645   19.0767 C   0  0  0  0  0  0  0  0  0  0  0  0
   11.1985   36.9836   17.6516 C   0  0  0  0  0  0  0  0  0  0  0  0
   10.4651   36.4141   16.5992 C   0  0  0  0  0  0  0  0  0  0  0  0
   10.6952   36.8078   15.2791 C   0  0  0  0  0  0  0  0  0  0  0  0
   11.6593   37.7729   14.9970 C   0  0  0  0  0  0  0  0  0  0  0  0
   12.3987   38.3410   16.0327 C   0  0  0  0  0  0  0  0  0  0  0  0
   12.1734   37.9459   17.3522 C   0  0  0  0  0  0  0  0  0  0  0  0
   20.1424   35.3185   22.9864 H   0  0  0  0  0  0  0  0  0  0  0  0
   20.5246   33.6840   24.7005 H   0  0  0  0  0  0  0  0  0  0  0  0
   18.7698   33.2442   26.3259 H   0  0  0  0  0  0  0  0  0  0  0  0
   14.7139   34.0912   25.2383 H   0  0  0  0  0  0  0  0  0  0  0  0
   13.1860   33.8003   27.0758 H   0  0  0  0  0  0  0  0  0  0  0  0
   18.2771   34.6576   29.3437 H   0  0  0  0  0  0  0  0  0  0  0  0
   17.8752   32.2469   29.3739 H   0  0  0  0  0  0  0  0  0  0  0  0
   17.6114   32.3220   31.1318 H   0  0  0  0  0  0  0  0  0  0  0  0
   21.0481   32.8949   31.9297 H   0  0  0  0  0  0  0  0  0  0  0  0
   19.4102   32.6806   32.5784 H   0  0  0  0  0  0  0  0  0  0  0  0
   19.9981   34.9784   32.7702 H   0  0  0  0  0  0  0  0  0  0  0  0
   18.2264   35.9914   31.3281 H   0  0  0  0  0  0  0  0  0  0  0  0
   17.7262   34.5894   32.2908 H   0  0  0  0  0  0  0  0  0  0  0  0
   20.2232   35.6460   29.9734 H   0  0  0  0  0  0  0  0  0  0  0  0
   21.5327   34.6382   30.5681 H   0  0  0  0  0  0  0  0  0  0  0  0
   16.5160   34.3834   22.5808 H   0  0  0  0  0  0  0  0  0  0  0  0
   11.2283   37.3601   19.7322 H   0  0  0  0  0  0  0  0  0  0  0  0
    9.8996   36.3461   19.1845 H   0  0  0  0  0  0  0  0  0  0  0  0
    9.7498   35.6985   16.8025 H   0  0  0  0  0  0  0  0  0  0  0  0
   10.1506   36.3834   14.5121 H   0  0  0  0  0  0  0  0  0  0  0  0
   11.8259   38.0669   14.0219 H   0  0  0  0  0  0  0  0  0  0  0  0
   13.1140   39.0550   15.8237 H   0  0  0  0  0  0  0  0  0  0  0  0
   12.7290   38.3655   18.1139 H   0  0  0  0  0  0  0  0  0  0  0  0
  1  2  2  0
  2  3  1  0
  3  4  2  0
  3 46  1  0
  4  5  1  0
  4 47  1  0
  5  6  2  0
  5 48  1  0
  6  7  1  0
  6  1  1  0
  7  8  2  0
  8  9  1  0
  8 49  1  0
  9 10  2  0
  9 50  1  0
 10 11  1  0
 11 13  1  0
 11 12  2  0
 12  7  1  0
 13 15  1  0
 13 14  1  0
 15 16  1  0
 15 51  1  6
 16 17  1  0
 16 52  1  0
 16 53  1  0
 17 18  1  0
 17 21  1  0
 18 19  1  0
 18 54  1  0
 18 55  1  0
 19 22  1  0
 19 20  1  0
 19 56  1  1
 20 15  1  0
 20 57  1  0
 20 58  1  0
 22 23  1  0
 22 59  1  0
 22 60  1  0
 24  1  1  0
 25 26  2  0
 26 27  1  0
 26 28  1  0
 28 29  2  0
 28 61  1  0
 29 24  1  0
 29 30  1  0
 30 31  1  0
 30 32  2  0
 32 33  1  0
 32 25  1  0
 34 25  1  0
 34 35  1  0
 36 37  2  0
 37 38  2  0
 37 39  1  0
 37 34  1  0
 39 40  1  0
 39 62  1  0
 39 63  1  0
 40 41  2  0
 41 42  1  0
 41 64  1  0
 42 43  2  0
 42 65  1  0
 43 44  1  0
 43 66  1  0
 44 45  2  0
 44 67  1  0
 45 40  1  0
 45 68  1  0
M  END
>  <minimizedAffinity>  (9) 
-11.32057

>  <mol_id>  (9) 
100233

>  <source_index>  (9) 
8

>  <layer>  (9) 
L2

>  <uniprot>  (9) 
O75460

>  <paff>  (9) 
6.2675999999999998

>  <smiles>  (9) 
O=S(=O)(Cc1ccccc1)Nc1c(F)cc(Oc2ncccc2-c2ccnc(N[C@@H]3CNC[C@@H](CF)C3)n2)c(F)c1F

$$$$
L2:O75460:127767
     RDKit          3D

 72 76  0  0  0  0  0  0  0  0999 V2000
   17.5774   35.0861   25.5486 N   0  0  0  0  0  0  0  0  0  0  0  0
   16.9427   35.4401   24.3614 C   0  0  0  0  0  0  0  0  0  0  0  0
   17.5464   35.7855   23.3456 O   0  0  0  0  0  0  0  0  0  0  0  0
   15.4367   35.3895   24.3200 C   0  0  0  0  0  0  0  0  0  0  0  0
   14.7512   35.0023   25.4069 C   0  0  0  0  0  0  0  0  0  0  0  0
   15.4589   34.6470   26.6234 C   0  0  0  0  0  0  0  0  0  0  0  0
   14.8129   34.2480   27.7718 C   0  0  0  0  0  0  0  0  0  0  0  0
   15.4493   33.9075   28.9065 N   0  0  0  0  0  0  0  0  0  0  0  0
   16.7831   33.9790   28.8953 C   0  0  0  0  0  0  0  0  0  0  0  0
   17.4983   34.3487   27.8269 N   0  0  0  0  0  0  0  0  0  0  0  0
   16.8370   34.6851   26.7003 C   0  0  0  0  0  0  0  0  0  0  0  0
   14.7060   35.7485   23.0849 C   0  0  0  0  0  0  0  0  0  0  0  0
   13.9452   36.9200   23.0249 C   0  0  0  0  0  0  0  0  0  0  0  0
   13.2469   37.2389   21.8599 C   0  0  0  0  0  0  0  0  0  0  0  0
   12.5258   38.3716   21.8368 F   0  0  0  0  0  0  0  0  0  0  0  0
   13.2822   36.4283   20.7168 C   0  0  0  0  0  0  0  0  0  0  0  0
   14.0325   35.2538   20.7870 C   0  0  0  0  0  0  0  0  0  0  0  0
   14.0849   34.3788   19.7756 F   0  0  0  0  0  0  0  0  0  0  0  0
   14.7315   34.9232   21.9533 C   0  0  0  0  0  0  0  0  0  0  0  0
   15.4334   33.7781   21.9812 F   0  0  0  0  0  0  0  0  0  0  0  0
   12.5330   36.8936   19.6110 N   0  0  0  0  0  0  0  0  0  0  0  0
   12.9129   36.9964   18.2952 C   0  0  0  0  0  0  0  0  0  0  0  0
   13.9875   36.7256   17.7897 O   0  0  0  0  0  0  0  0  0  0  0  0
   11.6089   37.2499   19.8369 H   0  0  0  0  0  0  0  0  0  0  0  0
   11.8181   37.5177   17.4267 C   0  0  0  0  0  0  0  0  0  0  0  0
   10.3861   37.4384   17.9038 C   0  0  0  0  0  0  0  0  0  0  0  0
   10.8361   36.5809   16.7585 C   0  0  0  0  0  0  0  0  0  0  0  0
   19.6425   36.4157   25.0822 C   0  0  0  0  0  0  0  0  0  0  0  0
   19.0535   35.1180   25.6427 C   0  0  0  0  0  0  0  0  0  0  0  0
   19.6960   33.8882   24.9938 C   0  0  0  0  0  0  0  0  0  0  0  0
   17.5196   33.6604   30.0193 N   0  0  0  0  0  0  0  0  0  0  0  0
   16.9526   33.0455   30.5892 H   0  0  0  0  0  0  0  0  0  0  0  0
   18.2216   34.7391   30.7116 C   0  0  1  0  0  0  0  0  0  0  0  0
   17.7287   34.8858   32.1611 C   0  0  0  0  0  0  0  0  0  0  0  0
   18.2095   33.7500   33.0693 C   0  0  0  0  0  0  0  0  0  0  0  0
   19.7501   33.6099   33.0681 C   0  0  1  0  0  0  0  0  0  0  0  0
   20.1625   33.3292   31.6043 C   0  0  0  0  0  0  0  0  0  0  0  0
   19.7319   34.4514   30.6542 C   0  0  0  0  0  0  0  0  0  0  0  0
   20.4355   34.7990   33.6434 N   0  0  0  0  0  0  0  0  0  0  0  0
   20.0207   35.0614   35.0279 C   0  0  0  0  0  0  0  0  0  0  0  0
   21.8984   34.6584   33.6211 C   0  0  0  0  0  0  0  0  0  0  0  0
   13.7206   34.9572   25.3778 H   0  0  0  0  0  0  0  0  0  0  0  0
   13.7817   34.2079   27.7613 H   0  0  0  0  0  0  0  0  0  0  0  0
   13.9002   37.5486   23.8421 H   0  0  0  0  0  0  0  0  0  0  0  0
   12.4715   38.2913   17.0811 H   0  0  0  0  0  0  0  0  0  0  0  0
    9.7187   38.2562   17.7288 H   0  0  0  0  0  0  0  0  0  0  0  0
    9.9135   37.2527   18.8456 H   0  0  0  0  0  0  0  0  0  0  0  0
   10.4897   36.7880   15.7675 H   0  0  0  0  0  0  0  0  0  0  0  0
   10.8169   35.5322   16.5470 H   0  0  0  0  0  0  0  0  0  0  0  0
   20.7084   36.3916   25.1721 H   0  0  0  0  0  0  0  0  0  0  0  0
   19.2570   37.2489   25.6317 H   0  0  0  0  0  0  0  0  0  0  0  0
   19.3736   36.5133   24.0511 H   0  0  0  0  0  0  0  0  0  0  0  0
   19.2903   35.0899   26.6858 H   0  0  0  0  0  0  0  0  0  0  0  0
   19.4790   33.8835   23.9460 H   0  0  0  0  0  0  0  0  0  0  0  0
   19.3021   33.0008   25.4436 H   0  0  0  0  0  0  0  0  0  0  0  0
   20.7557   33.9212   25.1385 H   0  0  0  0  0  0  0  0  0  0  0  0
   18.0185   35.6712   30.2270 H   0  0  0  0  0  0  0  0  0  0  0  0
   16.6587   34.8925   32.1593 H   0  0  0  0  0  0  0  0  0  0  0  0
   18.1307   35.7992   32.5472 H   0  0  0  0  0  0  0  0  0  0  0  0
   17.7801   32.8313   32.7280 H   0  0  0  0  0  0  0  0  0  0  0  0
   17.9021   33.9774   34.0687 H   0  0  0  0  0  0  0  0  0  0  0  0
   20.0555   32.8051   33.7037 H   0  0  0  0  0  0  0  0  0  0  0  0
   19.7053   32.4153   31.2871 H   0  0  0  0  0  0  0  0  0  0  0  0
   21.2300   33.2637   31.5715 H   0  0  0  0  0  0  0  0  0  0  0  0
   19.9877   34.1690   29.6544 H   0  0  0  0  0  0  0  0  0  0  0  0
   20.2399   35.3424   30.9591 H   0  0  0  0  0  0  0  0  0  0  0  0
   18.9567   35.1674   35.0674 H   0  0  0  0  0  0  0  0  0  0  0  0
   20.4821   35.9628   35.3737 H   0  0  0  0  0  0  0  0  0  0  0  0
   20.3212   34.2451   35.6511 H   0  0  0  0  0  0  0  0  0  0  0  0
   22.2230   34.4663   32.6198 H   0  0  0  0  0  0  0  0  0  0  0  0
   22.1881   33.8444   34.2523 H   0  0  0  0  0  0  0  0  0  0  0  0
   22.3490   35.5621   33.9750 H   0  0  0  0  0  0  0  0  0  0  0  0
  1  2  1  0
  2  3  2  0
  2  4  1  0
  4 12  1  0
  4  5  2  0
  5  6  1  0
  5 42  1  0
  6  7  2  0
  7  8  1  0
  7 43  1  0
  8  9  2  0
  9 31  1  0
  9 10  1  0
 10 11  2  0
 11  1  1  0
 11  6  1  0
 12 13  2  0
 13 14  1  0
 13 44  1  0
 14 15  1  0
 14 16  2  0
 16 21  1  0
 16 17  1  0
 17 18  1  0
 17 19  2  0
 19 20  1  0
 19 12  1  0
 21 22  1  0
 21 24  1  0
 22 23  2  0
 22 25  1  0
 25 26  1  0
 25 45  1  0
 26 27  1  0
 26 46  1  0
 26 47  1  0
 27 25  1  0
 27 48  1  0
 27 49  1  0
 28 29  1  0
 28 50  1  0
 28 51  1  0
 28 52  1  0
 29 30  1  0
 29  1  1  0
 29 53  1  0
 30 54  1  0
 30 55  1  0
 30 56  1  0
 31 33  1  0
 31 32  1  0
 33 34  1  0
 33 57  1  6
 34 35  1  0
 34 58  1  0
 34 59  1  0
 35 36  1  0
 35 60  1  0
 35 61  1  0
 36 39  1  0
 36 37  1  0
 36 62  1  1
 37 38  1  0
 37 63  1  0
 37 64  1  0
 38 33  1  0
 38 65  1  0
 38 66  1  0
 39 40  1  0
 39 41  1  0
 40 67  1  0
 40 68  1  0
 40 69  1  0
 41 70  1  0
 41 71  1  0
 41 72  1  0
M  END
>  <minimizedAffinity>  (10) 
-9.67017

>  <mol_id>  (10) 
127767

>  <source_index>  (10) 
9

>  <layer>  (10) 
L2

>  <uniprot>  (10) 
O75460

>  <paff>  (10) 
8.8538999999999994

>  <smiles>  (10) 
CC(C)n1c(=O)c(-c2cc(F)c(NC(=O)C3CC3)c(F)c2F)cc2cnc(N[C@H]3CC[C@H](N(C)C)CC3)nc21

$$$$
