L3:Q00959:103070
 OpenBabel09212617523D

 37 38  0  0  0  0  0  0  0  0999 V2000
   15.2332   21.1918   32.2786 C   0  0  0  0  0  0  0  0  0  0  0  0
   16.0385   20.5143   31.3815 C   0  0  0  0  0  0  0  0  0  0  0  0
   15.7292   19.1256   31.3043 C   0  0  0  0  0  0  0  0  0  0  0  0
   14.6942   18.7767   32.1463 C   0  0  0  0  0  0  0  0  0  0  0  0
   14.1040   20.1307   33.0111 S   0  0  0  0  0  0  0  0  0  0  0  0
   14.0876   17.4618   32.3609 C   0  0  0  0  0  0  0  0  0  0  0  0
   14.6755   16.5986   33.3024 C   0  0  0  0  0  0  0  0  0  0  0  0
   14.1330   15.3391   33.5566 C   0  0  0  0  0  0  0  0  0  0  0  0
   12.9934   14.9258   32.8762 C   0  0  0  0  0  0  0  0  0  0  0  0
   12.3965   15.7719   31.9414 C   0  0  0  0  0  0  0  0  0  0  0  0
   12.9321   17.0468   31.6688 C   0  0  0  0  0  0  0  0  0  0  0  0
   12.2542   17.9333   30.6513 C   0  0  0  0  0  0  0  0  0  0  0  0
   13.0969   18.3936   29.6860 F   0  0  0  0  0  0  0  0  0  0  0  0
   11.6726   19.0309   31.2107 F   0  0  0  0  0  0  0  0  0  0  0  0
   11.2491   17.3008   29.9763 F   0  0  0  0  0  0  0  0  0  0  0  0
   15.9948   22.9492   33.7323 N   0  0  0  0  0  0  0  0  0  0  0  0
   15.2919   22.6124   32.5958 C   0  0  0  0  0  0  0  0  0  0  0  0
   14.7636   23.4744   31.8964 O   0  0  0  0  0  0  0  0  0  0  0  0
   16.4474   22.2122   34.2596 H   0  0  0  0  0  0  0  0  0  0  0  0
   16.1724   24.3246   34.1773 C   0  0  0  0  0  0  0  0  0  0  0  0
   16.5370   23.1296   36.3422 N   0  0  0  0  0  0  0  0  0  0  0  0
   16.6542   24.4372   35.6344 C   0  0  1  0  0  0  0  0  0  0  0  0
   17.1801   22.4839   35.8748 H   0  0  0  0  0  0  0  0  0  0  0  0
   16.9500   23.2449   37.2714 H   0  0  0  0  0  0  0  0  0  0  0  0
   18.0950   24.9467   35.6969 C   0  0  0  0  0  0  0  0  0  0  0  0
   19.0409   24.3695   36.2140 O   0  0  0  0  0  0  0  0  0  0  0  0
   18.2487   26.1701   35.1538 O   0  0  0  0  0  0  0  0  0  0  0  0
   19.2184   26.3159   35.1738 H   0  0  0  0  0  0  0  0  0  0  0  0
   16.7831   20.9658   30.8277 H   0  0  0  0  0  0  0  0  0  0  0  0
   16.2221   18.4587   30.6900 H   0  0  0  0  0  0  0  0  0  0  0  0
   15.5201   16.9012   33.8124 H   0  0  0  0  0  0  0  0  0  0  0  0
   14.5768   14.7151   34.2485 H   0  0  0  0  0  0  0  0  0  0  0  0
   12.5896   13.9945   33.0623 H   0  0  0  0  0  0  0  0  0  0  0  0
   11.5494   15.4594   31.4416 H   0  0  0  0  0  0  0  0  0  0  0  0
   16.8946   24.7957   33.5437 H   0  0  0  0  0  0  0  0  0  0  0  0
   15.2157   24.8006   34.1229 H   0  0  0  0  0  0  0  0  0  0  0  0
   16.0227   25.1450   36.1295 H   0  0  0  0  0  0  0  0  0  0  0  0
  1  2  2  0  0  0  0
  2  3  1  0  0  0  0
  2 29  1  0  0  0  0
  3  4  2  0  0  0  0
  3 30  1  0  0  0  0
  4  6  1  0  0  0  0
  4  5  1  0  0  0  0
  5  1  1  0  0  0  0
  6  7  2  0  0  0  0
  7  8  1  0  0  0  0
  7 31  1  0  0  0  0
  8  9  2  0  0  0  0
  8 32  1  0  0  0  0
  9 10  1  0  0  0  0
  9 33  1  0  0  0  0
 10 11  2  0  0  0  0
 10 34  1  0  0  0  0
 11 12  1  0  0  0  0
 11  6  1  0  0  0  0
 12 13  1  0  0  0  0
 12 14  1  0  0  0  0
 12 15  1  0  0  0  0
 16 17  1  0  0  0  0
 16 19  1  0  0  0  0
 17 18  2  0  0  0  0
 17  1  1  0  0  0  0
 20 16  1  0  0  0  0
 20 35  1  0  0  0  0
 20 36  1  0  0  0  0
 21 22  1  0  0  0  0
 21 23  1  0  0  0  0
 21 24  1  0  0  0  0
 22 20  1  0  0  0  0
 22 25  1  0  0  0  0
 22 37  1  1  0  0  0
 25 26  2  0  0  0  0
 25 27  1  0  0  0  0
 27 28  1  0  0  0  0
M  END
>  <minimizedAffinity>
-6.23620

$$$$
