L3:Q00959:132547
     RDKit          3D

 38 39  0  0  0  0  0  0  0  0999 V2000
   -2.9584    2.5774    1.8857 C   0  0  0  0  0  0  0  0  0  0  0  0
   -2.5885    1.3519    1.2688 O   0  0  0  0  0  0  0  0  0  0  0  0
   -3.4932    0.7613    0.4222 C   0  0  0  0  0  0  0  0  0  0  0  0
   -4.7558    1.2942    0.1239 C   0  0  0  0  0  0  0  0  0  0  0  0
   -5.6292    0.6220   -0.7365 C   0  0  0  0  0  0  0  0  0  0  0  0
   -5.2504   -0.5896   -1.3043 C   0  0  0  0  0  0  0  0  0  0  0  0
   -3.9985   -1.1219   -1.0130 C   0  0  0  0  0  0  0  0  0  0  0  0
   -3.6626   -2.2933   -1.5764 F   0  0  0  0  0  0  0  0  0  0  0  0
   -3.1024   -0.4627   -0.1604 C   0  0  0  0  0  0  0  0  0  0  0  0
   -1.7985   -1.0720    0.1140 C   0  0  0  0  0  0  0  0  0  0  0  0
   -1.5054   -2.1630    0.9060 C   0  0  0  0  0  0  0  0  0  0  0  0
   -0.1126   -2.4630    0.9137 C   0  0  0  0  0  0  0  0  0  0  0  0
    0.6226   -1.6010    0.1209 C   0  0  0  0  0  0  0  0  0  0  0  0
    2.0633   -1.6302   -0.0892 C   0  0  0  0  0  0  0  0  0  0  0  0
    2.8019   -2.4563    0.4434 O   0  0  0  0  0  0  0  0  0  0  0  0
    2.5720   -0.6625   -0.9323 N   0  0  0  0  0  0  0  0  0  0  0  0
    3.9873   -0.5654   -1.2336 C   0  0  0  0  0  0  0  0  0  0  0  0
    4.8210    0.0659   -0.1017 C   0  0  1  0  0  0  0  0  0  0  0  0
    6.2779   -0.1016   -0.3280 N   0  0  0  0  0  0  0  0  0  0  0  0
    4.5031    1.5586   -0.0473 C   0  0  0  0  0  0  0  0  0  0  0  0
    4.8447    2.3988   -0.8681 O   0  0  0  0  0  0  0  0  0  0  0  0
    3.7548    1.9119    1.0167 O   0  0  0  0  0  0  0  0  0  0  0  0
   -0.3915   -0.4385   -0.6270 S   0  0  0  0  0  0  0  0  0  0  0  0
   -3.8370    2.4478    2.5262 H   0  0  0  0  0  0  0  0  0  0  0  0
   -3.1230    3.3610    1.1390 H   0  0  0  0  0  0  0  0  0  0  0  0
   -2.1271    2.8950    2.5225 H   0  0  0  0  0  0  0  0  0  0  0  0
   -5.0937    2.2343    0.5487 H   0  0  0  0  0  0  0  0  0  0  0  0
   -6.6059    1.0451   -0.9595 H   0  0  0  0  0  0  0  0  0  0  0  0
   -5.9183   -1.1251   -1.9718 H   0  0  0  0  0  0  0  0  0  0  0  0
   -2.2539   -2.7191    1.4577 H   0  0  0  0  0  0  0  0  0  0  0  0
    0.3378   -3.2754    1.4733 H   0  0  0  0  0  0  0  0  0  0  0  0
    1.9204   -0.0074   -1.3487 H   0  0  0  0  0  0  0  0  0  0  0  0
    4.0758    0.0127   -2.1607 H   0  0  0  0  0  0  0  0  0  0  0  0
    4.3482   -1.5801   -1.4413 H   0  0  0  0  0  0  0  0  0  0  0  0
    4.5810   -0.3856    0.8668 H   0  0  0  0  0  0  0  0  0  0  0  0
    6.4823   -1.0903   -0.4681 H   0  0  0  0  0  0  0  0  0  0  0  0
    6.5371    0.3811   -1.1901 H   0  0  0  0  0  0  0  0  0  0  0  0
    3.6745    2.8850    0.9405 H   0  0  0  0  0  0  0  0  0  0  0  0
  1  2  1  0
  2  3  1  0
  3  4  2  0
  4  5  1  0
  5  6  2  0
  6  7  1  0
  7  8  1  0
  7  9  2  0
  9 10  1  0
 10 11  2  0
 11 12  1  0
 12 13  2  0
 13 14  1  0
 14 15  2  0
 14 16  1  0
 16 17  1  0
 17 18  1  0
 18 19  1  0
 18 20  1  0
 20 21  2  0
 20 22  1  0
 13 23  1  0
  9  3  1  0
 23 10  1  0
  1 24  1  0
  1 25  1  0
  1 26  1  0
  4 27  1  0
  5 28  1  0
  6 29  1  0
 11 30  1  0
 12 31  1  0
 16 32  1  0
 17 33  1  0
 17 34  1  0
 18 35  1  1
 19 36  1  0
 19 37  1  0
 22 38  1  0
M  END
>  <mol_id>  (1) 
132547

>  <source_index>  (1) 
7

>  <layer>  (1) 
L3

>  <uniprot>  (1) 
Q00959

>  <paff>  (1) 
6.5376000000000003

>  <smiles>  (1) 
COc1cccc(F)c1-c1ccc(C(=O)NC[C@@H](N)C(=O)O)s1

$$$$
