L3:Q00959:132547
 OpenBabel09212617523D

 38 39  0  0  0  0  0  0  0  0999 V2000
   16.6453   34.0486   30.4260 C   0  0  0  0  0  0  0  0  0  0  0  0
   17.9029   34.5869   30.6059 C   0  0  0  0  0  0  0  0  0  0  0  0
   18.6237   34.6899   29.3813 C   0  0  0  0  0  0  0  0  0  0  0  0
   17.9042   34.2196   28.2982 C   0  0  0  0  0  0  0  0  0  0  0  0
   16.3605   33.6544   28.7849 S   0  0  0  0  0  0  0  0  0  0  0  0
   14.8630   34.8039   32.0325 C   0  0  0  0  0  0  0  0  0  0  0  0
   13.8910   34.4787   32.9899 C   0  0  0  0  0  0  0  0  0  0  0  0
   13.6665   33.1479   33.3556 C   0  0  0  0  0  0  0  0  0  0  0  0
   14.4126   32.1307   32.7705 C   0  0  0  0  0  0  0  0  0  0  0  0
   15.3769   32.4477   31.8191 C   0  0  0  0  0  0  0  0  0  0  0  0
   16.0808   31.4433   31.2731 F   0  0  0  0  0  0  0  0  0  0  0  0
   15.6143   33.7731   31.4299 C   0  0  0  0  0  0  0  0  0  0  0  0
   15.7312   36.9630   32.5901 C   0  0  0  0  0  0  0  0  0  0  0  0
   15.1530   36.0850   31.6340 O   0  0  0  0  0  0  0  0  0  0  0  0
   18.3470   34.1830   26.9114 C   0  0  0  0  0  0  0  0  0  0  0  0
   19.0688   35.0458   26.4151 O   0  0  0  0  0  0  0  0  0  0  0  0
   17.9058   33.1101   26.1630 N   0  0  0  0  0  0  0  0  0  0  0  0
   17.3157   32.4246   26.6203 H   0  0  0  0  0  0  0  0  0  0  0  0
   18.2625   32.9415   24.7674 C   0  0  0  0  0  0  0  0  0  0  0  0
   17.6133   31.7108   24.1051 C   0  0  1  0  0  0  0  0  0  0  0  0
   18.5229   30.5385   24.1044 N   0  0  0  0  0  0  0  0  0  0  0  0
   19.4072   30.8025   23.6716 H   0  0  0  0  0  0  0  0  0  0  0  0
   18.7300   30.2790   25.0704 H   0  0  0  0  0  0  0  0  0  0  0  0
   16.3539   31.3520   24.8908 C   0  0  0  0  0  0  0  0  0  0  0  0
   15.2626   31.8956   24.7910 O   0  0  0  0  0  0  0  0  0  0  0  0
   16.5236   30.3175   25.7380 O   0  0  0  0  0  0  0  0  0  0  0  0
   15.6606   30.2375   26.1942 H   0  0  0  0  0  0  0  0  0  0  0  0
   18.2779   34.8808   31.5213 H   0  0  0  0  0  0  0  0  0  0  0  0
   19.5790   35.0738   29.3103 H   0  0  0  0  0  0  0  0  0  0  0  0
   13.3356   35.2295   33.4291 H   0  0  0  0  0  0  0  0  0  0  0  0
   12.9471   32.9206   34.0597 H   0  0  0  0  0  0  0  0  0  0  0  0
   14.2521   31.1476   33.0401 H   0  0  0  0  0  0  0  0  0  0  0  0
   15.9004   37.9189   32.1401 H   0  0  0  0  0  0  0  0  0  0  0  0
   16.6621   36.5584   32.9288 H   0  0  0  0  0  0  0  0  0  0  0  0
   15.0665   37.0728   33.4214 H   0  0  0  0  0  0  0  0  0  0  0  0
   19.3255   32.8394   24.7006 H   0  0  0  0  0  0  0  0  0  0  0  0
   17.9010   33.8034   24.2465 H   0  0  0  0  0  0  0  0  0  0  0  0
   17.3874   31.9548   23.0881 H   0  0  0  0  0  0  0  0  0  0  0  0
  1  2  2  0  0  0  0
  2  3  1  0  0  0  0
  2 28  1  0  0  0  0
  3  4  2  0  0  0  0
  3 29  1  0  0  0  0
  4 15  1  0  0  0  0
  4  5  1  0  0  0  0
  5  1  1  0  0  0  0
  6  7  2  0  0  0  0
  7  8  1  0  0  0  0
  7 30  1  0  0  0  0
  8  9  2  0  0  0  0
  8 31  1  0  0  0  0
  9 10  1  0  0  0  0
  9 32  1  0  0  0  0
 10 11  1  0  0  0  0
 10 12  2  0  0  0  0
 12  1  1  0  0  0  0
 12  6  1  0  0  0  0
 13 14  1  0  0  0  0
 13 33  1  0  0  0  0
 13 34  1  0  0  0  0
 13 35  1  0  0  0  0
 14  6  1  0  0  0  0
 15 16  2  0  0  0  0
 15 17  1  0  0  0  0
 17 19  1  0  0  0  0
 17 18  1  0  0  0  0
 19 20  1  0  0  0  0
 19 36  1  0  0  0  0
 19 37  1  0  0  0  0
 20 21  1  0  0  0  0
 20 24  1  0  0  0  0
 20 38  1  6  0  0  0
 21 22  1  0  0  0  0
 21 23  1  0  0  0  0
 24 25  2  0  0  0  0
 24 26  1  0  0  0  0
 26 27  1  0  0  0  0
M  END
>  <minimizedAffinity>
-5.58449

$$$$
