L3:Q00959:132866
     RDKit          3D

 40 41  0  0  0  0  0  0  0  0999 V2000
   -2.4260    2.6021   -0.5557 C   0  0  0  0  0  0  0  0  0  0  0  0
   -3.4663    1.8960    0.3023 C   0  0  0  0  0  0  0  0  0  0  0  0
   -3.5691    0.4211   -0.0204 C   0  0  0  0  0  0  0  0  0  0  0  0
   -4.6082    0.0067   -0.8770 C   0  0  0  0  0  0  0  0  0  0  0  0
   -4.7375   -1.3275   -1.2626 C   0  0  0  0  0  0  0  0  0  0  0  0
   -3.8256   -2.2712   -0.8070 C   0  0  0  0  0  0  0  0  0  0  0  0
   -2.7875   -1.8788    0.0379 C   0  0  0  0  0  0  0  0  0  0  0  0
   -2.6461   -0.5398    0.4461 C   0  0  0  0  0  0  0  0  0  0  0  0
   -1.5426   -0.2134    1.3393 C   0  0  0  0  0  0  0  0  0  0  0  0
   -1.4398    0.3809    2.5796 C   0  0  0  0  0  0  0  0  0  0  0  0
   -0.0624    0.3975    2.9062 C   0  0  0  0  0  0  0  0  0  0  0  0
    0.6034   -0.1942    1.8506 C   0  0  0  0  0  0  0  0  0  0  0  0
    2.0110   -0.4476    1.6337 C   0  0  0  0  0  0  0  0  0  0  0  0
    2.8915   -0.1407    2.4336 O   0  0  0  0  0  0  0  0  0  0  0  0
    2.2956   -1.0542    0.4302 N   0  0  0  0  0  0  0  0  0  0  0  0
    3.6450   -1.4020    0.0264 C   0  0  0  0  0  0  0  0  0  0  0  0
    4.4633   -0.1958   -0.4656 C   0  0  1  0  0  0  0  0  0  0  0  0
    5.9106   -0.5293   -0.4988 N   0  0  0  0  0  0  0  0  0  0  0  0
    4.0035    0.2261   -1.8657 C   0  0  0  0  0  0  0  0  0  0  0  0
    2.9684   -0.0809   -2.4354 O   0  0  0  0  0  0  0  0  0  0  0  0
    4.8756    1.0756   -2.4633 O   0  0  0  0  0  0  0  0  0  0  0  0
   -0.3031   -0.5753    0.8958 O   0  0  0  0  0  0  0  0  0  0  0  0
   -2.3994    3.6693   -0.3135 H   0  0  0  0  0  0  0  0  0  0  0  0
   -1.4227    2.1957   -0.3939 H   0  0  0  0  0  0  0  0  0  0  0  0
   -2.6596    2.5023   -1.6212 H   0  0  0  0  0  0  0  0  0  0  0  0
   -3.2509    2.0449    1.3644 H   0  0  0  0  0  0  0  0  0  0  0  0
   -4.4403    2.3762    0.1426 H   0  0  0  0  0  0  0  0  0  0  0  0
   -5.3238    0.7320   -1.2599 H   0  0  0  0  0  0  0  0  0  0  0  0
   -5.5458   -1.6261   -1.9251 H   0  0  0  0  0  0  0  0  0  0  0  0
   -3.9178   -3.3111   -1.1085 H   0  0  0  0  0  0  0  0  0  0  0  0
   -2.0805   -2.6297    0.3866 H   0  0  0  0  0  0  0  0  0  0  0  0
   -2.2606    0.7498    3.1785 H   0  0  0  0  0  0  0  0  0  0  0  0
    0.4028    0.7867    3.8018 H   0  0  0  0  0  0  0  0  0  0  0  0
    1.5218   -1.2306   -0.2044 H   0  0  0  0  0  0  0  0  0  0  0  0
    3.5625   -2.1718   -0.7494 H   0  0  0  0  0  0  0  0  0  0  0  0
    4.1339   -1.8574    0.8965 H   0  0  0  0  0  0  0  0  0  0  0  0
    4.3174    0.6682    0.1929 H   0  0  0  0  0  0  0  0  0  0  0  0
    6.2535   -0.5633    0.4616 H   0  0  0  0  0  0  0  0  0  0  0  0
    6.3918    0.2575   -0.9430 H   0  0  0  0  0  0  0  0  0  0  0  0
    4.4641    1.2520   -3.3350 H   0  0  0  0  0  0  0  0  0  0  0  0
  1  2  1  0
  2  3  1  0
  3  4  2  0
  4  5  1  0
  5  6  2  0
  6  7  1  0
  7  8  2  0
  8  9  1  0
  9 10  2  0
 10 11  1  0
 11 12  2  0
 12 13  1  0
 13 14  2  0
 13 15  1  0
 15 16  1  0
 16 17  1  0
 17 18  1  0
 17 19  1  0
 19 20  2  0
 19 21  1  0
 12 22  1  0
  8  3  1  0
 22  9  1  0
  1 23  1  0
  1 24  1  0
  1 25  1  0
  2 26  1  0
  2 27  1  0
  4 28  1  0
  5 29  1  0
  6 30  1  0
  7 31  1  0
 10 32  1  0
 11 33  1  0
 15 34  1  0
 16 35  1  0
 16 36  1  0
 17 37  1  1
 18 38  1  0
 18 39  1  0
 21 40  1  0
M  END
>  <mol_id>  (1) 
132866

>  <source_index>  (1) 
8

>  <layer>  (1) 
L3

>  <uniprot>  (1) 
Q00959

>  <paff>  (1) 
6.2675999999999998

>  <smiles>  (1) 
CCc1ccccc1-c1ccc(o1)C(=O)NC[C@@H](N)C(O)=O |r|

$$$$
