L3:Q00959:139001
     RDKit          3D

 46 48  0  0  0  0  0  0  0  0999 V2000
    1.0648    1.2259    1.8489 C   0  0  0  0  0  0  0  0  0  0  0  0
    0.3960   -0.0126    1.3340 C   0  0  0  0  0  0  0  0  0  0  0  0
   -0.9642   -0.0460    1.3669 N   0  0  0  0  0  0  0  0  0  0  0  0
   -1.5316   -1.1893    0.8843 C   0  0  0  0  0  0  0  0  0  0  0  0
   -3.0183   -1.2702    0.8949 C   0  0  0  0  0  0  0  0  0  0  0  0
   -3.6036   -2.2639    0.4821 O   0  0  0  0  0  0  0  0  0  0  0  0
   -3.6469   -0.1502    1.3904 N   0  0  0  0  0  0  0  0  0  0  0  0
   -5.0804   -0.0103    1.4329 C   0  0  0  0  0  0  0  0  0  0  0  0
   -5.5780    0.7876    0.2651 C   0  0  0  0  0  0  0  0  0  0  0  0
   -5.7774    2.1686    0.3469 C   0  0  0  0  0  0  0  0  0  0  0  0
   -6.2245    2.8682   -0.7705 C   0  0  0  0  0  0  0  0  0  0  0  0
   -6.4517    2.1619   -1.9399 C   0  0  0  0  0  0  0  0  0  0  0  0
   -6.2608    0.8316   -2.0617 N   0  0  0  0  0  0  0  0  0  0  0  0
   -5.8249    0.1764   -0.9609 C   0  0  0  0  0  0  0  0  0  0  0  0
   -0.7802   -2.2455    0.3940 C   0  0  0  0  0  0  0  0  0  0  0  0
    0.5777   -2.2168    0.3591 N   0  0  0  0  0  0  0  0  0  0  0  0
    1.1467   -1.0860    0.8378 C   0  0  0  0  0  0  0  0  0  0  0  0
    2.5176   -0.9740    0.8298 O   0  0  0  0  0  0  0  0  0  0  0  0
    3.1725   -2.1448    0.3213 C   0  0  0  0  0  0  0  0  0  0  0  0
    4.9628   -1.9983    0.2708 S   0  0  0  0  0  6  0  0  0  0  0  0
    5.4578   -1.7182    1.6066 O   0  0  0  0  0  0  0  0  0  0  0  0
    5.4995   -3.1110   -0.4924 O   0  0  0  0  0  0  0  0  0  0  0  0
    5.2164   -0.5270   -0.6975 C   0  0  0  0  0  0  0  0  0  0  0  0
    5.4683   -0.6314   -2.0688 C   0  0  0  0  0  0  0  0  0  0  0  0
    5.6686    0.5280   -2.8184 C   0  0  0  0  0  0  0  0  0  0  0  0
    5.6233    1.7782   -2.1969 C   0  0  0  0  0  0  0  0  0  0  0  0
    5.3870    1.8673   -0.8243 C   0  0  0  0  0  0  0  0  0  0  0  0
    5.3299    3.4103   -0.0662 Cl  0  0  0  0  0  0  0  0  0  0  0  0
    5.1903    0.7185   -0.0635 C   0  0  0  0  0  0  0  0  0  0  0  0
    0.3223    1.9523    2.1947 H   0  0  0  0  0  0  0  0  0  0  0  0
    1.6554    1.6967    1.0568 H   0  0  0  0  0  0  0  0  0  0  0  0
    1.7186    0.9828    2.6922 H   0  0  0  0  0  0  0  0  0  0  0  0
   -3.0521    0.6236    1.6739 H   0  0  0  0  0  0  0  0  0  0  0  0
   -5.5604   -0.9954    1.4541 H   0  0  0  0  0  0  0  0  0  0  0  0
   -5.3325    0.4910    2.3739 H   0  0  0  0  0  0  0  0  0  0  0  0
   -5.5881    2.7025    1.2743 H   0  0  0  0  0  0  0  0  0  0  0  0
   -6.3910    3.9387   -0.7315 H   0  0  0  0  0  0  0  0  0  0  0  0
   -6.8019    2.6628   -2.8378 H   0  0  0  0  0  0  0  0  0  0  0  0
   -5.6699   -0.8921   -1.0970 H   0  0  0  0  0  0  0  0  0  0  0  0
   -1.2469   -3.1480    0.0121 H   0  0  0  0  0  0  0  0  0  0  0  0
    2.8609   -2.3493   -0.7102 H   0  0  0  0  0  0  0  0  0  0  0  0
    2.9666   -3.0091    0.9639 H   0  0  0  0  0  0  0  0  0  0  0  0
    5.5170   -1.6023   -2.5586 H   0  0  0  0  0  0  0  0  0  0  0  0
    5.8657    0.4592   -3.8861 H   0  0  0  0  0  0  0  0  0  0  0  0
    5.7803    2.6782   -2.7869 H   0  0  0  0  0  0  0  0  0  0  0  0
    5.0191    0.7938    1.0078 H   0  0  0  0  0  0  0  0  0  0  0  0
  1  2  1  0
  2  3  2  0
  3  4  1  0
  4  5  1  0
  5  6  2  0
  5  7  1  0
  7  8  1  0
  8  9  1  0
  9 10  2  0
 10 11  1  0
 11 12  2  0
 12 13  1  0
 13 14  2  0
  4 15  2  0
 15 16  1  0
 16 17  2  0
 17 18  1  0
 18 19  1  0
 19 20  1  0
 20 21  2  0
 20 22  2  0
 20 23  1  0
 23 24  2  0
 24 25  1  0
 25 26  2  0
 26 27  1  0
 27 28  1  0
 27 29  2  0
 17  2  1  0
 29 23  1  0
 14  9  1  0
  1 30  1  0
  1 31  1  0
  1 32  1  0
  7 33  1  0
  8 34  1  0
  8 35  1  0
 10 36  1  0
 11 37  1  0
 12 38  1  0
 14 39  1  0
 15 40  1  0
 19 41  1  0
 19 42  1  0
 24 43  1  0
 25 44  1  0
 26 45  1  0
 29 46  1  0
M  END
>  <mol_id>  (1) 
139001

>  <source_index>  (1) 
9

>  <layer>  (1) 
L3

>  <uniprot>  (1) 
Q00959

>  <paff>  (1) 
7.6021000000000001

>  <smiles>  (1) 
Cc1c(ncc(n1)C(=O)NCc2cccnc2)OCS(=O)(=O)c3cccc(c3)Cl

$$$$
