L3:Q00959:139001


 30 32  0  0  0  0  0  0  0  0999 V2000
   17.8953   16.9374   33.4163 C   0  0  0  0  0  0  0  0  0  0  0  0
   17.1938   17.7742   32.3897 C   0  0  0  0  0  0  0  0  0  0  0  0
   16.5156   18.8673   32.8342 N   0  0  0  0  0  0  0  0  0  0  0  0
   15.8962   19.6031   31.8662 C   0  0  0  0  0  0  0  0  0  0  0  0
   15.9506   19.2654   30.5233 C   0  0  0  0  0  0  0  0  0  0  0  0
   16.6262   18.1753   30.0748 N   0  0  0  0  0  0  0  0  0  0  0  0
   17.2416   17.4404   31.0302 C   0  0  0  0  0  0  0  0  0  0  0  0
   15.1456   20.8122   32.3039 C   0  0  0  0  0  0  0  0  0  0  0  0
   13.9408   20.7683   32.5208 O   0  0  0  0  0  0  0  0  0  0  0  0
   15.9147   21.9473   32.4274 N   0  0  0  0  0  0  0  0  0  0  0  0
   16.8991   21.8641   32.1887 H   0  0  0  0  0  0  0  0  0  0  0  0
   15.3659   23.2306   32.7854 C   0  0  0  0  0  0  0  0  0  0  0  0
   16.3276   24.0100   33.6313 C   0  0  0  0  0  0  0  0  0  0  0  0
   16.2900   23.9596   35.0276 C   0  0  0  0  0  0  0  0  0  0  0  0
   17.2158   24.6882   35.7692 C   0  0  0  0  0  0  0  0  0  0  0  0
   18.1572   25.4408   35.0871 C   0  0  0  0  0  0  0  0  0  0  0  0
   18.2329   25.5067   33.7414 N   0  0  0  0  0  0  0  0  0  0  0  0
   17.3219   24.7881   33.0451 C   0  0  0  0  0  0  0  0  0  0  0  0
   17.9546   16.3246   30.6578 O   0  0  0  0  0  0  0  0  0  0  0  0
   19.0940   16.6340   29.8428 C   0  0  0  0  0  0  0  0  0  0  0  0
   20.5856   15.7625   30.3378 S   0  0  0  0  0  0  0  0  0  0  0  0
   20.7807   15.9219   31.7676 O   0  0  0  0  0  0  0  0  0  0  0  0
   20.5702   14.4382   29.7423 O   0  0  0  0  0  0  0  0  0  0  0  0
   21.8748   16.6860   29.5303 C   0  0  0  0  0  0  0  0  0  0  0  0
   23.2147   16.3780   29.7842 C   0  0  0  0  0  0  0  0  0  0  0  0
   24.2178   17.1099   29.1483 C   0  0  0  0  0  0  0  0  0  0  0  0
   23.8795   18.1441   28.2724 C   0  0  0  0  0  0  0  0  0  0  0  0
   22.5381   18.4517   28.0404 C   0  0  0  0  0  0  0  0  0  0  0  0
   22.1289   19.7248   26.9584 Cl  0  0  0  0  0  0  0  0  0  0  0  0
   21.5272   17.7329   28.6718 C   0  0  0  0  0  0  0  0  0  0  0  0
  1  2  1  0  0  0
  2  3  2  0  0  0
  3  4  1  0  0  0
  4  8  1  0  0  0
  8  9  2  0  0  0
  8 10  1  0  0  0
 10 12  1  0  0  0
 12 13  1  0  0  0
 13 14  2  0  0  0
 14 15  1  0  0  0
 15 16  2  0  0  0
 16 17  1  0  0  0
 17 18  2  0  0  0
  4  5  2  0  0  0
  5  6  1  0  0  0
  6  7  2  0  0  0
  7 19  1  0  0  0
 19 20  1  0  0  0
 20 21  1  0  0  0
 21 22  2  0  0  0
 21 23  2  0  0  0
 21 24  1  0  0  0
 24 25  2  0  0  0
 25 26  1  0  0  0
 26 27  2  0  0  0
 27 28  1  0  0  0
 28 29  1  0  0  0
 28 30  2  0  0  0
  7  2  1  0  0  0
 30 24  1  0  0  0
 18 13  1  0  0  0
 10 11  1  0  0  0
M  END
> <minimizedAffinity>
-5.92083

$$$$
