L3:Q00959:2221
     RDKit          3D

 40 41  0  0  0  0  0  0  0  0999 V2000
   -2.5398    2.2424   -1.0982 C   0  0  0  0  0  0  0  0  0  0  0  0
   -3.2526    1.7416    0.1496 C   0  0  0  0  0  0  0  0  0  0  0  0
   -3.7558    0.3241   -0.0132 C   0  0  0  0  0  0  0  0  0  0  0  0
   -5.0104    0.1322   -0.6226 C   0  0  0  0  0  0  0  0  0  0  0  0
   -5.5250   -1.1487   -0.8237 C   0  0  0  0  0  0  0  0  0  0  0  0
   -4.7940   -2.2610   -0.4226 C   0  0  0  0  0  0  0  0  0  0  0  0
   -3.5468   -2.0912    0.1780 C   0  0  0  0  0  0  0  0  0  0  0  0
   -3.0124   -0.8072    0.3847 C   0  0  0  0  0  0  0  0  0  0  0  0
   -1.7041   -0.6992    1.0326 C   0  0  0  0  0  0  0  0  0  0  0  0
   -1.4162   -0.4276    2.3540 C   0  0  0  0  0  0  0  0  0  0  0  0
   -0.0140   -0.4093    2.6049 C   0  0  0  0  0  0  0  0  0  0  0  0
    0.7337   -0.6741    1.4719 C   0  0  0  0  0  0  0  0  0  0  0  0
    2.1865   -0.7277    1.3841 C   0  0  0  0  0  0  0  0  0  0  0  0
    2.9218   -0.5247    2.3488 O   0  0  0  0  0  0  0  0  0  0  0  0
    2.7099   -1.0025    0.1390 N   0  0  0  0  0  0  0  0  0  0  0  0
    4.1383   -1.0874   -0.1082 C   0  0  0  0  0  0  0  0  0  0  0  0
    4.8223    0.2874   -0.2002 C   0  0  1  0  0  0  0  0  0  0  0  0
    6.2975    0.1386   -0.1132 N   0  0  0  0  0  0  0  0  0  0  0  0
    4.4529    0.9784   -1.5179 C   0  0  0  0  0  0  0  0  0  0  0  0
    3.5244    0.7107   -2.2645 O   0  0  0  0  0  0  0  0  0  0  0  0
    5.2631    2.0290   -1.7983 O   0  0  0  0  0  0  0  0  0  0  0  0
   -0.2803   -0.9483    0.1174 S   0  0  0  0  0  0  0  0  0  0  0  0
   -2.1951    3.2705   -0.9485 H   0  0  0  0  0  0  0  0  0  0  0  0
   -1.6686    1.6252   -1.3383 H   0  0  0  0  0  0  0  0  0  0  0  0
   -3.2059    2.2331   -1.9675 H   0  0  0  0  0  0  0  0  0  0  0  0
   -2.5906    1.8292    1.0168 H   0  0  0  0  0  0  0  0  0  0  0  0
   -4.1018    2.4010    0.3706 H   0  0  0  0  0  0  0  0  0  0  0  0
   -5.5954    0.9902   -0.9486 H   0  0  0  0  0  0  0  0  0  0  0  0
   -6.4960   -1.2761   -1.2953 H   0  0  0  0  0  0  0  0  0  0  0  0
   -5.1916   -3.2605   -0.5770 H   0  0  0  0  0  0  0  0  0  0  0  0
   -2.9868   -2.9713    0.4884 H   0  0  0  0  0  0  0  0  0  0  0  0
   -2.1766   -0.2475    3.1047 H   0  0  0  0  0  0  0  0  0  0  0  0
    0.4347   -0.2123    3.5723 H   0  0  0  0  0  0  0  0  0  0  0  0
    2.0722   -1.1082   -0.6426 H   0  0  0  0  0  0  0  0  0  0  0  0
    4.2714   -1.6604   -1.0331 H   0  0  0  0  0  0  0  0  0  0  0  0
    4.5757   -1.6712    0.7111 H   0  0  0  0  0  0  0  0  0  0  0  0
    4.4867    0.9447    0.6101 H   0  0  0  0  0  0  0  0  0  0  0  0
    6.5410   -0.0835    0.8525 H   0  0  0  0  0  0  0  0  0  0  0  0
    6.7061    1.0577   -0.3035 H   0  0  0  0  0  0  0  0  0  0  0  0
    4.9213    2.3640   -2.6534 H   0  0  0  0  0  0  0  0  0  0  0  0
  1  2  1  0
  2  3  1  0
  3  4  2  0
  4  5  1  0
  5  6  2  0
  6  7  1  0
  7  8  2  0
  8  9  1  0
  9 10  2  0
 10 11  1  0
 11 12  2  0
 12 13  1  0
 13 14  2  0
 13 15  1  0
 15 16  1  0
 16 17  1  0
 17 18  1  0
 17 19  1  0
 19 20  2  0
 19 21  1  0
 12 22  1  0
  8  3  1  0
 22  9  1  0
  1 23  1  0
  1 24  1  0
  1 25  1  0
  2 26  1  0
  2 27  1  0
  4 28  1  0
  5 29  1  0
  6 30  1  0
  7 31  1  0
 10 32  1  0
 11 33  1  0
 15 34  1  0
 16 35  1  0
 16 36  1  0
 17 37  1  1
 18 38  1  0
 18 39  1  0
 21 40  1  0
M  END
>  <mol_id>  (1) 
2221

>  <source_index>  (1) 
0

>  <layer>  (1) 
L3

>  <uniprot>  (1) 
Q00959

>  <paff>  (1) 
7.2441000000000004

>  <smiles>  (1) 
CCc1ccccc1-c1ccc(C(=O)NC[C@@H](N)C(=O)O)s1

$$$$
