L3:Q00959:2221
 OpenBabel09212617513D

 40 41  0  0  0  0  0  0  0  0999 V2000
   14.5340   18.8042   32.0482 C   0  0  0  0  0  0  0  0  0  0  0  0
   15.6593   19.0864   31.3020 C   0  0  0  0  0  0  0  0  0  0  0  0
   16.0434   20.4542   31.4064 C   0  0  0  0  0  0  0  0  0  0  0  0
   15.1990   21.1841   32.2232 C   0  0  0  0  0  0  0  0  0  0  0  0
   13.9447   20.1970   32.8481 S   0  0  0  0  0  0  0  0  0  0  0  0
   14.3191   16.4884   33.0182 C   0  0  0  0  0  0  0  0  0  0  0  0
   13.5864   15.2890   33.1006 C   0  0  0  0  0  0  0  0  0  0  0  0
   12.4047   15.1160   32.3797 C   0  0  0  0  0  0  0  0  0  0  0  0
   11.9320   16.1393   31.5662 C   0  0  0  0  0  0  0  0  0  0  0  0
   12.6412   17.3368   31.4759 C   0  0  0  0  0  0  0  0  0  0  0  0
   13.8320   17.5284   32.1986 C   0  0  0  0  0  0  0  0  0  0  0  0
   16.7705   15.9409   33.1810 C   0  0  0  0  0  0  0  0  0  0  0  0
   15.5784   16.6119   33.8476 C   0  0  0  0  0  0  0  0  0  0  0  0
   15.3109   22.6008   32.5421 C   0  0  0  0  0  0  0  0  0  0  0  0
   14.8769   23.4869   31.8080 O   0  0  0  0  0  0  0  0  0  0  0  0
   15.9572   22.9088   33.7198 N   0  0  0  0  0  0  0  0  0  0  0  0
   16.3503   22.1525   34.2696 H   0  0  0  0  0  0  0  0  0  0  0  0
   16.1489   24.2750   34.1732 C   0  0  0  0  0  0  0  0  0  0  0  0
   16.4911   24.3768   35.6695 C   0  0  1  0  0  0  0  0  0  0  0  0
   16.5118   23.0270   36.2889 N   0  0  0  0  0  0  0  0  0  0  0  0
   15.5492   22.7007   36.3791 H   0  0  0  0  0  0  0  0  0  0  0  0
   16.8634   23.1377   37.2439 H   0  0  0  0  0  0  0  0  0  0  0  0
   17.8556   25.0495   35.8588 C   0  0  0  0  0  0  0  0  0  0  0  0
   18.1195   26.2380   35.7645 O   0  0  0  0  0  0  0  0  0  0  0  0
   18.8227   24.1699   36.2190 O   0  0  0  0  0  0  0  0  0  0  0  0
   19.6253   24.7266   36.2974 H   0  0  0  0  0  0  0  0  0  0  0  0
   16.1641   18.3880   30.7342 H   0  0  0  0  0  0  0  0  0  0  0  0
   16.8627   20.8567   30.9249 H   0  0  0  0  0  0  0  0  0  0  0  0
   13.9291   14.5253   33.7042 H   0  0  0  0  0  0  0  0  0  0  0  0
   11.8819   14.2291   32.4503 H   0  0  0  0  0  0  0  0  0  0  0  0
   11.0589   16.0133   31.0307 H   0  0  0  0  0  0  0  0  0  0  0  0
   12.2868   18.0932   30.8699 H   0  0  0  0  0  0  0  0  0  0  0  0
   17.6355   16.0529   33.8008 H   0  0  0  0  0  0  0  0  0  0  0  0
   16.9513   16.3976   32.2304 H   0  0  0  0  0  0  0  0  0  0  0  0
   16.5629   14.9003   33.0430 H   0  0  0  0  0  0  0  0  0  0  0  0
   15.7997   17.6495   33.9866 H   0  0  0  0  0  0  0  0  0  0  0  0
   15.4059   16.1231   34.7837 H   0  0  0  0  0  0  0  0  0  0  0  0
   15.2474   24.8224   33.9929 H   0  0  0  0  0  0  0  0  0  0  0  0
   16.9792   24.6758   33.6301 H   0  0  0  0  0  0  0  0  0  0  0  0
   15.7384   24.9689   36.1468 H   0  0  0  0  0  0  0  0  0  0  0  0
  1  2  2  0  0  0  0
  2  3  1  0  0  0  0
  2 27  1  0  0  0  0
  3  4  2  0  0  0  0
  3 28  1  0  0  0  0
  4 14  1  0  0  0  0
  4  5  1  0  0  0  0
  5  1  1  0  0  0  0
  6  7  2  0  0  0  0
  7  8  1  0  0  0  0
  7 29  1  0  0  0  0
  8  9  2  0  0  0  0
  8 30  1  0  0  0  0
  9 10  1  0  0  0  0
  9 31  1  0  0  0  0
 10 11  2  0  0  0  0
 10 32  1  0  0  0  0
 11  1  1  0  0  0  0
 11  6  1  0  0  0  0
 12 13  1  0  0  0  0
 12 33  1  0  0  0  0
 12 34  1  0  0  0  0
 12 35  1  0  0  0  0
 13  6  1  0  0  0  0
 13 36  1  0  0  0  0
 13 37  1  0  0  0  0
 14 15  2  0  0  0  0
 14 16  1  0  0  0  0
 16 18  1  0  0  0  0
 16 17  1  0  0  0  0
 18 19  1  0  0  0  0
 18 38  1  0  0  0  0
 18 39  1  0  0  0  0
 19 20  1  0  0  0  0
 19 23  1  0  0  0  0
 19 40  1  1  0  0  0
 20 21  1  0  0  0  0
 20 22  1  0  0  0  0
 23 24  2  0  0  0  0
 23 25  1  0  0  0  0
 25 26  1  0  0  0  0
M  END
>  <minimizedAffinity>
-5.95092

$$$$
