L3:Q00959:24323
     RDKit          3D

 10  9  0  0  0  0  0  0  0  0999 V2000
   -1.1517    0.8764   -0.2790 N   0  0  0  0  0  0  0  0  0  0  0  0
   -0.5923   -0.2919    0.4219 C   0  0  0  0  0  0  0  0  0  0  0  0
    0.9287   -0.3038    0.3602 C   0  0  0  0  0  0  0  0  0  0  0  0
    1.6817   -0.7601    1.2060 O   0  0  0  0  0  0  0  0  0  0  0  0
    1.4230    0.1804   -0.8026 O   0  0  0  0  0  0  0  0  0  0  0  0
   -2.1387    0.7137   -0.4674 H   0  0  0  0  0  0  0  0  0  0  0  0
   -0.6858    0.9476   -1.1870 H   0  0  0  0  0  0  0  0  0  0  0  0
   -0.9565   -1.2161   -0.0367 H   0  0  0  0  0  0  0  0  0  0  0  0
   -0.9016   -0.2573    1.4702 H   0  0  0  0  0  0  0  0  0  0  0  0
    2.3933    0.1112   -0.6854 H   0  0  0  0  0  0  0  0  0  0  0  0
  1  2  1  0
  2  3  1  0
  3  4  2  0
  3  5  1  0
  1  6  1  0
  1  7  1  0
  2  8  1  0
  2  9  1  0
  5 10  1  0
M  END
>  <mol_id>  (1) 
24323

>  <source_index>  (1) 
1

>  <layer>  (1) 
L3

>  <uniprot>  (1) 
Q00959

>  <paff>  (1) 
6

>  <smiles>  (1) 
NCC(=O)O

$$$$
