L3:Q00959:24323


  8  7  0  0  0  0  0  0  0  0999 V2000
   17.4480   24.9413   38.3131 N   0  0  0  0  0  0  0  0  0  0  0  0
   16.2429   24.7976   37.4787 C   0  0  0  0  0  0  0  0  0  0  0  0
   18.0555   24.1378   38.1663 H   0  0  0  0  0  0  0  0  0  0  0  0
   17.1540   24.9138   39.2926 H   0  0  0  0  0  0  0  0  0  0  0  0
   15.1258   25.7186   37.9490 C   0  0  0  0  0  0  0  0  0  0  0  0
   14.8500   26.8137   37.4851 O   0  0  0  0  0  0  0  0  0  0  0  0
   14.3569   25.1772   38.9219 O   0  0  0  0  0  0  0  0  0  0  0  0
   13.7022   25.8803   39.1143 H   0  0  0  0  0  0  0  0  0  0  0  0
  1  2  1  0  0  0
  2  5  1  0  0  0
  5  6  2  0  0  0
  5  7  1  0  0  0
  1  3  1  0  0  0
  1  4  1  0  0  0
  7  8  1  0  0  0
M  END
> <minimizedAffinity>
-4.69288

$$$$
