L3:Q00959:43699
 OpenBabel09212617513D

 34 35  0  0  0  0  0  0  0  0999 V2000
   15.9264   22.8815   33.6498 N   0  0  0  0  0  0  0  0  0  0  0  0
   15.2269   22.4978   32.5220 C   0  0  0  0  0  0  0  0  0  0  0  0
   14.6330   23.3330   31.8425 O   0  0  0  0  0  0  0  0  0  0  0  0
   16.4894   22.2154   34.1581 H   0  0  0  0  0  0  0  0  0  0  0  0
   15.2744   21.0733   32.2162 C   0  0  0  0  0  0  0  0  0  0  0  0
   16.1503   20.3534   31.4212 C   0  0  0  0  0  0  0  0  0  0  0  0
   15.8314   18.9702   31.3940 C   0  0  0  0  0  0  0  0  0  0  0  0
   16.8747   17.7552   30.3879 Br  0  0  0  0  0  0  0  0  0  0  0  0
   14.7313   18.6461   32.1526 C   0  0  0  0  0  0  0  0  0  0  0  0
   14.0955   20.0383   32.9220 S   0  0  0  0  0  0  0  0  0  0  0  0
   14.0859   17.3518   32.3756 C   0  0  0  0  0  0  0  0  0  0  0  0
   14.6277   16.4867   33.3411 C   0  0  0  0  0  0  0  0  0  0  0  0
   14.0557   15.2355   33.5808 C   0  0  0  0  0  0  0  0  0  0  0  0
   12.9365   14.8315   32.8575 C   0  0  0  0  0  0  0  0  0  0  0  0
   12.3870   15.6774   31.8940 C   0  0  0  0  0  0  0  0  0  0  0  0
   12.9575   16.9321   31.6513 C   0  0  0  0  0  0  0  0  0  0  0  0
   12.1394   18.0206   30.3228 Br  0  0  0  0  0  0  0  0  0  0  0  0
   15.9936   24.2705   34.0897 C   0  0  0  0  0  0  0  0  0  0  0  0
   18.1545   25.4181   33.5807 N   0  0  0  0  0  0  0  0  0  0  0  0
   17.3810   24.6745   34.6184 C   0  0  1  0  0  0  0  0  0  0  0  0
   19.0526   25.6776   33.9975 H   0  0  0  0  0  0  0  0  0  0  0  0
   17.6845   26.3204   33.4590 H   0  0  0  0  0  0  0  0  0  0  0  0
   17.2605   25.5148   35.8906 C   0  0  0  0  0  0  0  0  0  0  0  0
   16.2315   25.7239   36.5172 O   0  0  0  0  0  0  0  0  0  0  0  0
   18.4247   26.0776   36.2673 O   0  0  0  0  0  0  0  0  0  0  0  0
   18.2210   26.4814   37.1379 H   0  0  0  0  0  0  0  0  0  0  0  0
   16.9418   20.7730   30.9088 H   0  0  0  0  0  0  0  0  0  0  0  0
   15.4581   16.7794   33.8794 H   0  0  0  0  0  0  0  0  0  0  0  0
   14.4625   14.6103   34.2940 H   0  0  0  0  0  0  0  0  0  0  0  0
   12.5138   13.9068   33.0342 H   0  0  0  0  0  0  0  0  0  0  0  0
   11.5574   15.3771   31.3586 H   0  0  0  0  0  0  0  0  0  0  0  0
   15.7489   24.9015   33.2609 H   0  0  0  0  0  0  0  0  0  0  0  0
   15.3016   24.3809   34.8983 H   0  0  0  0  0  0  0  0  0  0  0  0
   17.9104   23.7754   34.8555 H   0  0  0  0  0  0  0  0  0  0  0  0
  1  2  1  0  0  0  0
  1  4  1  0  0  0  0
  2  3  2  0  0  0  0
  2  5  1  0  0  0  0
  5  6  2  0  0  0  0
  6  7  1  0  0  0  0
  6 27  1  0  0  0  0
  7  8  1  0  0  0  0
  7  9  2  0  0  0  0
  9 11  1  0  0  0  0
  9 10  1  0  0  0  0
 10  5  1  0  0  0  0
 11 12  2  0  0  0  0
 12 13  1  0  0  0  0
 12 28  1  0  0  0  0
 13 14  2  0  0  0  0
 13 29  1  0  0  0  0
 14 15  1  0  0  0  0
 14 30  1  0  0  0  0
 15 16  2  0  0  0  0
 15 31  1  0  0  0  0
 16 17  1  0  0  0  0
 16 11  1  0  0  0  0
 18  1  1  0  0  0  0
 18 32  1  0  0  0  0
 18 33  1  0  0  0  0
 19 20  1  0  0  0  0
 19 21  1  0  0  0  0
 19 22  1  0  0  0  0
 20 18  1  0  0  0  0
 20 23  1  0  0  0  0
 20 34  1  1  0  0  0
 23 24  2  0  0  0  0
 23 25  1  0  0  0  0
 25 26  1  0  0  0  0
M  END
>  <minimizedAffinity>
-6.03200

$$$$
