L3:Q00959:68311
 OpenBabel09212617513D

 40 42  0  0  0  0  0  0  0  0999 V2000
   18.8929   34.3264   27.9968 C   0  0  0  0  0  0  0  0  0  0  0  0
   19.7078   34.7783   29.0215 C   0  0  0  0  0  0  0  0  0  0  0  0
   18.9694   35.1748   30.1765 C   0  0  0  0  0  0  0  0  0  0  0  0
   17.6107   35.0143   30.0074 C   0  0  0  0  0  0  0  0  0  0  0  0
   17.2396   34.3804   28.4647 S   0  0  0  0  0  0  0  0  0  0  0  0
   16.5301   35.3040   30.9555 C   0  0  0  0  0  0  0  0  0  0  0  0
   16.2718   36.6501   31.2645 C   0  0  0  0  0  0  0  0  0  0  0  0
   15.2440   36.9927   32.1362 C   0  0  0  0  0  0  0  0  0  0  0  0
   14.4592   35.9938   32.7064 C   0  0  0  0  0  0  0  0  0  0  0  0
   14.6904   34.6399   32.4182 C   0  0  0  0  0  0  0  0  0  0  0  0
   13.8875   33.6477   33.0056 C   0  0  0  0  0  0  0  0  0  0  0  0
   14.1023   32.2968   32.7375 C   0  0  0  0  0  0  0  0  0  0  0  0
   15.1256   31.9185   31.8790 C   0  0  0  0  0  0  0  0  0  0  0  0
   15.9321   32.8925   31.2864 C   0  0  0  0  0  0  0  0  0  0  0  0
   15.7371   34.2730   31.5342 C   0  0  0  0  0  0  0  0  0  0  0  0
   18.1623   33.3441   25.9337 N   0  0  0  0  0  0  0  0  0  0  0  0
   19.2290   33.8343   26.6652 C   0  0  0  0  0  0  0  0  0  0  0  0
   20.3642   33.8264   26.1931 O   0  0  0  0  0  0  0  0  0  0  0  0
   17.2553   33.2494   26.3735 H   0  0  0  0  0  0  0  0  0  0  0  0
   18.3436   32.7852   24.6036 C   0  0  0  0  0  0  0  0  0  0  0  0
   18.0847   30.2898   24.6031 N   0  0  0  0  0  0  0  0  0  0  0  0
   17.4239   31.5852   24.3259 C   0  0  1  0  0  0  0  0  0  0  0  0
   18.1576   30.1640   25.6158 H   0  0  0  0  0  0  0  0  0  0  0  0
   19.0369   30.2970   24.2403 H   0  0  0  0  0  0  0  0  0  0  0  0
   16.1700   31.7143   25.1939 C   0  0  0  0  0  0  0  0  0  0  0  0
   15.2198   32.4594   25.0107 O   0  0  0  0  0  0  0  0  0  0  0  0
   16.1641   30.8538   26.2378 O   0  0  0  0  0  0  0  0  0  0  0  0
   15.3309   31.0834   26.7060 H   0  0  0  0  0  0  0  0  0  0  0  0
   20.7368   34.8234   28.9568 H   0  0  0  0  0  0  0  0  0  0  0  0
   19.4027   35.5397   31.0391 H   0  0  0  0  0  0  0  0  0  0  0  0
   16.8506   37.3918   30.8403 H   0  0  0  0  0  0  0  0  0  0  0  0
   15.0635   37.9839   32.3598 H   0  0  0  0  0  0  0  0  0  0  0  0
   13.6959   36.2530   33.3508 H   0  0  0  0  0  0  0  0  0  0  0  0
   13.1265   33.9235   33.6458 H   0  0  0  0  0  0  0  0  0  0  0  0
   13.5027   31.5803   33.1757 H   0  0  0  0  0  0  0  0  0  0  0  0
   15.2900   30.9195   31.6791 H   0  0  0  0  0  0  0  0  0  0  0  0
   16.6903   32.5984   30.6511 H   0  0  0  0  0  0  0  0  0  0  0  0
   18.1364   33.5478   23.8822 H   0  0  0  0  0  0  0  0  0  0  0  0
   19.3531   32.4368   24.5377 H   0  0  0  0  0  0  0  0  0  0  0  0
   17.1732   31.5964   23.2857 H   0  0  0  0  0  0  0  0  0  0  0  0
  1  2  2  0  0  0  0
  2  3  1  0  0  0  0
  2 29  1  0  0  0  0
  3  4  2  0  0  0  0
  3 30  1  0  0  0  0
  4  6  1  0  0  0  0
  4  5  1  0  0  0  0
  5  1  1  0  0  0  0
  6  7  2  0  0  0  0
  7  8  1  0  0  0  0
  7 31  1  0  0  0  0
  8  9  2  0  0  0  0
  8 32  1  0  0  0  0
  9 10  1  0  0  0  0
  9 33  1  0  0  0  0
 10 11  2  0  0  0  0
 11 12  1  0  0  0  0
 11 34  1  0  0  0  0
 12 13  2  0  0  0  0
 12 35  1  0  0  0  0
 13 14  1  0  0  0  0
 13 36  1  0  0  0  0
 14 15  2  0  0  0  0
 14 37  1  0  0  0  0
 15  6  1  0  0  0  0
 15 10  1  0  0  0  0
 16 17  1  0  0  0  0
 16 19  1  0  0  0  0
 17 18  2  0  0  0  0
 17  1  1  0  0  0  0
 20 16  1  0  0  0  0
 20 38  1  0  0  0  0
 20 39  1  0  0  0  0
 21 22  1  0  0  0  0
 21 23  1  0  0  0  0
 21 24  1  0  0  0  0
 22 20  1  0  0  0  0
 22 25  1  0  0  0  0
 22 40  1  6  0  0  0
 25 26  2  0  0  0  0
 25 27  1  0  0  0  0
 27 28  1  0  0  0  0
M  END
>  <minimizedAffinity>
-6.06768

$$$$
