L3:Q00959:88721
     RDKit          3D

 46 49  0  0  0  0  0  0  0  0999 V2000
   -2.7107   -1.4162   -1.3971 O   0  0  0  0  0  0  0  0  0  0  0  0
   -2.5273   -0.9913   -0.2618 C   0  0  0  0  0  0  0  0  0  0  0  0
   -3.5168   -0.8364    0.6856 N   0  0  0  0  0  0  0  0  0  0  0  0
   -4.9040   -1.1187    0.4422 C   0  0  0  0  0  0  0  0  0  0  0  0
   -5.6621    0.0245   -0.2282 C   0  0  0  0  0  0  0  0  0  0  0  0
   -5.6982    0.1584   -1.6199 C   0  0  0  0  0  0  0  0  0  0  0  0
   -6.3520    1.1546   -2.2720 N   0  0  0  0  0  0  0  0  0  0  0  0
   -6.9779    2.0423   -1.4735 C   0  0  0  0  0  0  0  0  0  0  0  0
   -6.9514    1.9402   -0.0951 C   0  0  0  0  0  0  0  0  0  0  0  0
   -6.3008    0.9445    0.5508 N   0  0  0  0  0  0  0  0  0  0  0  0
   -5.3444   -2.5473    0.1762 C   0  0  0  0  0  0  0  0  0  0  0  0
   -5.6449   -1.9236    1.5008 C   0  0  0  0  0  0  0  0  0  0  0  0
   -1.1726   -0.5867    0.2001 C   0  0  0  0  0  0  0  0  0  0  0  0
   -0.0858   -0.6835   -0.6582 C   0  0  0  0  0  0  0  0  0  0  0  0
    1.1719   -0.3256   -0.2855 N   0  0  0  0  0  0  0  0  0  0  0  0
    1.2891    0.1331    0.9818 C   0  0  0  0  0  0  0  0  0  0  0  0
    2.5169    0.5247    1.4637 O   0  0  0  0  0  0  0  0  0  0  0  0
    3.5744    0.3830    0.4999 C   0  0  0  0  0  0  0  0  0  0  0  0
    4.9030    0.8430    1.1179 C   0  0  0  0  0  0  0  0  0  0  0  0
    5.1318    0.1129    2.2507 F   0  0  0  0  0  0  0  0  0  0  0  0
    4.7607    2.1342    1.5437 F   0  0  0  0  0  0  0  0  0  0  0  0
    6.0392    0.7036    0.1231 C   0  0  0  0  0  0  0  0  0  0  0  0
    6.3612    1.7583   -0.7464 C   0  0  0  0  0  0  0  0  0  0  0  0
    7.3964    1.6234   -1.6736 C   0  0  0  0  0  0  0  0  0  0  0  0
    8.1212    0.4339   -1.7423 C   0  0  0  0  0  0  0  0  0  0  0  0
    7.8105   -0.6161   -0.8812 C   0  0  0  0  0  0  0  0  0  0  0  0
    8.7053   -2.0831   -0.9652 Cl  0  0  0  0  0  0  0  0  0  0  0  0
    6.7776   -0.4885    0.0474 C   0  0  0  0  0  0  0  0  0  0  0  0
    0.1993    0.2299    1.8409 C   0  0  0  0  0  0  0  0  0  0  0  0
   -1.0599   -0.1257    1.4793 N   0  0  0  0  0  0  0  0  0  0  0  0
   -3.2482   -0.4304    1.5791 H   0  0  0  0  0  0  0  0  0  0  0  0
   -5.1811   -0.5536   -2.2569 H   0  0  0  0  0  0  0  0  0  0  0  0
   -7.5051    2.8461   -1.9739 H   0  0  0  0  0  0  0  0  0  0  0  0
   -7.4572    2.6625    0.5352 H   0  0  0  0  0  0  0  0  0  0  0  0
   -6.1738   -2.7211   -0.4999 H   0  0  0  0  0  0  0  0  0  0  0  0
   -4.5810   -3.3158    0.1330 H   0  0  0  0  0  0  0  0  0  0  0  0
   -5.0913   -2.2735    2.3639 H   0  0  0  0  0  0  0  0  0  0  0  0
   -6.6741   -1.6598    1.7194 H   0  0  0  0  0  0  0  0  0  0  0  0
   -0.1923   -1.0518   -1.6736 H   0  0  0  0  0  0  0  0  0  0  0  0
    3.3507    1.0027   -0.3782 H   0  0  0  0  0  0  0  0  0  0  0  0
    3.6581   -0.6712    0.2056 H   0  0  0  0  0  0  0  0  0  0  0  0
    5.8092    2.6966   -0.6989 H   0  0  0  0  0  0  0  0  0  0  0  0
    7.6406    2.4472   -2.3405 H   0  0  0  0  0  0  0  0  0  0  0  0
    8.9272    0.3338   -2.4646 H   0  0  0  0  0  0  0  0  0  0  0  0
    6.5503   -1.3148    0.7188 H   0  0  0  0  0  0  0  0  0  0  0  0
    0.3181    0.6012    2.8533 H   0  0  0  0  0  0  0  0  0  0  0  0
  1  2  2  0
  2  3  1  0
  3  4  1  0
  4  5  1  0
  5  6  2  0
  6  7  1  0
  7  8  2  0
  8  9  1  0
  9 10  2  0
  4 11  1  0
 11 12  1  0
  2 13  1  0
 13 14  2  0
 14 15  1  0
 15 16  2  0
 16 17  1  0
 17 18  1  0
 18 19  1  0
 19 20  1  0
 19 21  1  0
 19 22  1  0
 22 23  2  0
 23 24  1  0
 24 25  2  0
 25 26  1  0
 26 27  1  0
 26 28  2  0
 16 29  1  0
 29 30  2  0
 12  4  1  0
 30 13  1  0
 10  5  1  0
 28 22  1  0
  3 31  1  0
  6 32  1  0
  8 33  1  0
  9 34  1  0
 11 35  1  0
 11 36  1  0
 12 37  1  0
 12 38  1  0
 14 39  1  0
 18 40  1  0
 18 41  1  0
 23 42  1  0
 24 43  1  0
 25 44  1  0
 28 45  1  0
 29 46  1  0
M  END
>  <mol_id>  (1) 
88721

>  <source_index>  (1) 
4

>  <layer>  (1) 
L3

>  <uniprot>  (1) 
Q00959

>  <paff>  (1) 
6.7374999999999998

>  <smiles>  (1) 
c1cc(cc(c1)Cl)C(COc2cnc(cn2)C(=O)NC3(CC3)c4cnccn4)(F)F

$$$$
