L3:Q00959:88721


 31 34  0  0  0  0  0  0  0  0999 V2000
   19.2290   35.2818   43.8643 C   0  0  0  0  0  0  0  0  0  0  0  0
   20.6042   35.4324   43.7488 C   0  0  0  0  0  0  0  0  0  0  0  0
   21.2672   35.2064   42.5834 N   0  0  0  0  0  0  0  0  0  0  0  0
   20.4913   34.8228   41.5437 C   0  0  0  0  0  0  0  0  0  0  0  0
   19.1134   34.6720   41.6606 C   0  0  0  0  0  0  0  0  0  0  0  0
   18.4417   34.8962   42.8188 N   0  0  0  0  0  0  0  0  0  0  0  0
   19.0418   36.3072   45.9899 O   0  0  0  0  0  0  0  0  0  0  0  0
   18.5560   35.5413   45.1650 C   0  0  0  0  0  0  0  0  0  0  0  0
   17.3764   34.8492   45.3387 N   0  0  0  0  0  0  0  0  0  0  0  0
   17.0988   34.2069   44.5999 H   0  0  0  0  0  0  0  0  0  0  0  0
   16.5855   34.9106   46.5362 C   0  0  0  0  0  0  0  0  0  0  0  0
   16.0059   36.2400   46.9862 C   0  0  0  0  0  0  0  0  0  0  0  0
   15.1033   35.2178   46.3744 C   0  0  0  0  0  0  0  0  0  0  0  0
   16.9774   33.8805   47.5928 C   0  0  0  0  0  0  0  0  0  0  0  0
   17.0117   34.2072   48.9523 C   0  0  0  0  0  0  0  0  0  0  0  0
   17.3552   33.3357   49.9360 N   0  0  0  0  0  0  0  0  0  0  0  0
   17.6810   32.0983   49.5117 C   0  0  0  0  0  0  0  0  0  0  0  0
   17.6649   31.7499   48.1740 C   0  0  0  0  0  0  0  0  0  0  0  0
   17.3197   32.6206   47.1970 N   0  0  0  0  0  0  0  0  0  0  0  0
   21.0584   34.5660   40.3167 O   0  0  0  0  0  0  0  0  0  0  0  0
   20.4836   33.4261   39.6552 C   0  0  0  0  0  0  0  0  0  0  0  0
   21.5048   32.2796   39.6184 C   0  0  0  0  0  0  0  0  0  0  0  0
   22.7422   32.7901   39.8958 F   0  0  0  0  0  0  0  0  0  0  0  0
   21.5869   31.8112   38.3368 F   0  0  0  0  0  0  0  0  0  0  0  0
   21.1210   31.1820   40.5920 C   0  0  0  0  0  0  0  0  0  0  0  0
   21.0759   31.4350   41.9726 C   0  0  0  0  0  0  0  0  0  0  0  0
   20.7389   30.4197   42.8700 C   0  0  0  0  0  0  0  0  0  0  0  0
   20.4431   29.1411   42.3982 C   0  0  0  0  0  0  0  0  0  0  0  0
   20.4822   28.8824   41.0300 C   0  0  0  0  0  0  0  0  0  0  0  0
   20.1163   27.3054   40.4479 Cl  0  0  0  0  0  0  0  0  0  0  0  0
   20.8183   29.8917   40.1278 C   0  0  0  0  0  0  0  0  0  0  0  0
  7  8  2  0  0  0
  8  9  1  0  0  0
  9 11  1  0  0  0
 11 14  1  0  0  0
 14 15  2  0  0  0
 15 16  1  0  0  0
 16 17  2  0  0  0
 17 18  1  0  0  0
 18 19  2  0  0  0
 11 12  1  0  0  0
 12 13  1  0  0  0
  8  1  1  0  0  0
  1  2  2  0  0  0
  2  3  1  0  0  0
  3  4  2  0  0  0
  4 20  1  0  0  0
 20 21  1  0  0  0
 21 22  1  0  0  0
 22 23  1  0  0  0
 22 24  1  0  0  0
 22 25  1  0  0  0
 25 26  2  0  0  0
 26 27  1  0  0  0
 27 28  2  0  0  0
 28 29  1  0  0  0
 29 30  1  0  0  0
 29 31  2  0  0  0
  4  5  1  0  0  0
  5  6  2  0  0  0
 13 11  1  0  0  0
  6  1  1  0  0  0
 19 14  1  0  0  0
 31 25  1  0  0  0
  9 10  1  0  0  0
M  END
> <minimizedAffinity>
-5.51098

$$$$
