L3:Q00959:89763
 OpenBabel09212617523D

 45 47  0  0  0  0  0  0  0  0999 V2000
   17.2726   18.0801   31.2616 C   0  0  0  0  0  0  0  0  0  0  0  0
   16.1189   18.8640   31.8088 C   0  0  0  0  0  0  0  0  0  0  0  0
   16.2453   20.2195   31.8381 N   0  0  0  0  0  0  0  0  0  0  0  0
   15.1724   20.8922   32.3472 C   0  0  0  0  0  0  0  0  0  0  0  0
   14.0324   20.2477   32.7996 C   0  0  0  0  0  0  0  0  0  0  0  0
   13.9017   18.8967   32.7682 N   0  0  0  0  0  0  0  0  0  0  0  0
   14.9635   18.2201   32.2705 C   0  0  0  0  0  0  0  0  0  0  0  0
   15.2650   22.3775   32.4035 C   0  0  0  0  0  0  0  0  0  0  0  0
   14.7530   23.0815   31.5417 O   0  0  0  0  0  0  0  0  0  0  0  0
   15.9564   22.8640   33.4903 N   0  0  0  0  0  0  0  0  0  0  0  0
   16.3079   22.1792   34.1538 H   0  0  0  0  0  0  0  0  0  0  0  0
   16.1157   24.2717   33.7521 C   0  0  0  0  0  0  0  0  0  0  0  0
   16.8183   24.5012   35.0566 C   0  0  0  0  0  0  0  0  0  0  0  0
   16.4527   23.8200   36.2209 C   0  0  0  0  0  0  0  0  0  0  0  0
   17.1254   24.0794   37.4118 C   0  0  0  0  0  0  0  0  0  0  0  0
   18.1415   25.0203   37.4004 C   0  0  0  0  0  0  0  0  0  0  0  0
   18.5167   25.7058   36.3003 N   0  0  0  0  0  0  0  0  0  0  0  0
   17.8450   25.4359   35.1569 C   0  0  0  0  0  0  0  0  0  0  0  0
   14.9132   16.8450   32.1976 O   0  0  0  0  0  0  0  0  0  0  0  0
   14.2311   16.2384   33.3079 C   0  0  0  0  0  0  0  0  0  0  0  0
   14.0136   14.7444   33.0455 C   0  0  0  0  0  0  0  0  0  0  0  0
   13.6786   14.1544   34.2388 F   0  0  0  0  0  0  0  0  0  0  0  0
   15.2229   14.1907   32.7192 F   0  0  0  0  0  0  0  0  0  0  0  0
   12.9722   14.4999   31.9605 C   0  0  0  0  0  0  0  0  0  0  0  0
   11.6731   14.9694   32.1297 C   0  0  0  0  0  0  0  0  0  0  0  0
   10.7428   14.7182   31.1285 C   0  0  0  0  0  0  0  0  0  0  0  0
    9.1299   15.2923   31.2999 Cl  0  0  0  0  0  0  0  0  0  0  0  0
   11.1022   14.0094   29.9923 C   0  0  0  0  0  0  0  0  0  0  0  0
   12.4068   13.5702   29.9017 C   0  0  0  0  0  0  0  0  0  0  0  0
   13.3404   13.7978   30.8515 N   0  0  0  0  0  0  0  0  0  0  0  0
   18.0512   18.7514   30.9648 H   0  0  0  0  0  0  0  0  0  0  0  0
   16.9485   17.5129   30.4142 H   0  0  0  0  0  0  0  0  0  0  0  0
   17.6421   17.4162   32.0150 H   0  0  0  0  0  0  0  0  0  0  0  0
   13.2553   20.8145   33.1736 H   0  0  0  0  0  0  0  0  0  0  0  0
   15.1504   24.7318   33.7892 H   0  0  0  0  0  0  0  0  0  0  0  0
   16.7056   24.6989   32.9682 H   0  0  0  0  0  0  0  0  0  0  0  0
   15.6876   23.1279   36.1979 H   0  0  0  0  0  0  0  0  0  0  0  0
   16.8733   23.5832   38.2809 H   0  0  0  0  0  0  0  0  0  0  0  0
   18.6404   25.2080   38.2841 H   0  0  0  0  0  0  0  0  0  0  0  0
   18.1106   25.9557   34.3058 H   0  0  0  0  0  0  0  0  0  0  0  0
   13.2826   16.7150   33.4427 H   0  0  0  0  0  0  0  0  0  0  0  0
   14.8276   16.3542   34.1886 H   0  0  0  0  0  0  0  0  0  0  0  0
   11.4069   15.4919   32.9789 H   0  0  0  0  0  0  0  0  0  0  0  0
   10.4194   13.8176   29.2426 H   0  0  0  0  0  0  0  0  0  0  0  0
   12.6850   13.0385   29.0621 H   0  0  0  0  0  0  0  0  0  0  0  0
  1  2  1  0  0  0  0
  1 31  1  0  0  0  0
  1 32  1  0  0  0  0
  1 33  1  0  0  0  0
  2  3  2  0  0  0  0
  3  4  1  0  0  0  0
  4  8  1  0  0  0  0
  4  5  2  0  0  0  0
  5  6  1  0  0  0  0
  5 34  1  0  0  0  0
  6  7  2  0  0  0  0
  7 19  1  0  0  0  0
  7  2  1  0  0  0  0
  8  9  2  0  0  0  0
  8 10  1  0  0  0  0
 10 12  1  0  0  0  0
 10 11  1  0  0  0  0
 12 13  1  0  0  0  0
 12 35  1  0  0  0  0
 12 36  1  0  0  0  0
 13 14  2  0  0  0  0
 14 15  1  0  0  0  0
 14 37  1  0  0  0  0
 15 16  2  0  0  0  0
 15 38  1  0  0  0  0
 16 17  1  0  0  0  0
 16 39  1  0  0  0  0
 17 18  2  0  0  0  0
 18 13  1  0  0  0  0
 18 40  1  0  0  0  0
 19 20  1  0  0  0  0
 20 21  1  0  0  0  0
 20 41  1  0  0  0  0
 20 42  1  0  0  0  0
 21 22  1  0  0  0  0
 21 23  1  0  0  0  0
 21 24  1  0  0  0  0
 24 25  2  0  0  0  0
 25 26  1  0  0  0  0
 25 43  1  0  0  0  0
 26 27  1  0  0  0  0
 26 28  2  0  0  0  0
 28 29  1  0  0  0  0
 28 44  1  0  0  0  0
 29 30  2  0  0  0  0
 29 45  1  0  0  0  0
 30 24  1  0  0  0  0
M  END
>  <minimizedAffinity>
-6.39652

$$$$
