L1:Q9UBN7:18571
     RDKit          3D

 44 44  0  0  0  0  0  0  0  0999 V2000
    2.9289    1.2755    7.7805 C   0  0  0  0  0  0  0  0  0  0  0  0
    1.7935    2.2639    8.0529 C   0  0  2  0  0  0  0  0  0  0  0  0
    1.3854    3.0323    6.8152 C   0  0  0  0  0  0  0  0  0  0  0  0
    0.1318    3.3243    6.4059 C   0  0  0  0  0  0  0  0  0  0  0  0
   -1.1100    2.9443    7.1768 C   0  0  0  0  0  0  0  0  0  0  0  0
   -0.0418    4.0679    5.1565 C   0  0  0  0  0  0  0  0  0  0  0  0
    0.8252    4.9534    4.6383 C   0  0  0  0  0  0  0  0  0  0  0  0
    0.5780    5.6921    3.3779 C   0  0  0  0  0  0  0  0  0  0  0  0
    0.3684    6.9018    3.3838 O   0  0  0  0  0  0  0  0  0  0  0  0
    0.6960    4.9637    2.2231 N   0  0  0  0  0  0  0  0  0  0  0  0
    0.7026    5.7225    1.0275 O   0  0  0  0  0  0  0  0  0  0  0  0
    1.1984    4.0836    2.1946 H   0  0  0  0  0  0  0  0  0  0  0  0
    0.5684    6.6382    1.3590 H   0  0  0  0  0  0  0  0  0  0  0  0
    2.0568    3.2136    9.2310 C   0  0  0  0  0  0  0  0  0  0  0  0
    3.0082    3.9983    9.2139 O   0  0  0  0  0  0  0  0  0  0  0  0
    1.1786    3.2204   10.4321 C   0  0  0  0  0  0  0  0  0  0  0  0
    1.6609    3.8188   11.5949 C   0  0  0  0  0  0  0  0  0  0  0  0
    0.8744    3.8505   12.7557 C   0  0  0  0  0  0  0  0  0  0  0  0
   -0.4055    3.2708   12.8119 C   0  0  0  0  0  0  0  0  0  0  0  0
   -0.8567    2.6686   11.6226 C   0  0  0  0  0  0  0  0  0  0  0  0
   -0.0804    2.6304   10.4529 C   0  0  0  0  0  0  0  0  0  0  0  0
   -1.1982    3.3225   13.9638 N   0  0  0  0  0  0  0  0  0  0  0  0
   -2.6530    3.3837   13.8259 C   0  0  0  0  0  0  0  0  0  0  0  0
   -0.6551    3.9440   15.1712 C   0  0  0  0  0  0  0  0  0  0  0  0
    2.6687    0.6536    6.9496 H   0  0  0  0  0  0  0  0  0  0  0  0
    3.0871    0.6666    8.6460 H   0  0  0  0  0  0  0  0  0  0  0  0
    3.8251    1.8150    7.5553 H   0  0  0  0  0  0  0  0  0  0  0  0
    0.9686    1.6488    8.3465 H   0  0  0  0  0  0  0  0  0  0  0  0
    2.1528    3.3723    6.2148 H   0  0  0  0  0  0  0  0  0  0  0  0
   -0.8314    2.4092    8.0605 H   0  0  0  0  0  0  0  0  0  0  0  0
   -1.7332    2.3248    6.5663 H   0  0  0  0  0  0  0  0  0  0  0  0
   -1.6452    3.8297    7.4498 H   0  0  0  0  0  0  0  0  0  0  0  0
   -0.9098    3.8959    4.6254 H   0  0  0  0  0  0  0  0  0  0  0  0
    1.7080    5.1280    5.1435 H   0  0  0  0  0  0  0  0  0  0  0  0
    2.6025    4.2411   11.6017 H   0  0  0  0  0  0  0  0  0  0  0  0
    1.2480    4.3154   13.5979 H   0  0  0  0  0  0  0  0  0  0  0  0
   -1.7946    2.2383   11.6095 H   0  0  0  0  0  0  0  0  0  0  0  0
   -0.4448    2.1638    9.6076 H   0  0  0  0  0  0  0  0  0  0  0  0
   -2.9454    2.9039   12.9153 H   0  0  0  0  0  0  0  0  0  0  0  0
   -2.9667    4.4065   13.8068 H   0  0  0  0  0  0  0  0  0  0  0  0
   -3.1111    2.8855   14.6547 H   0  0  0  0  0  0  0  0  0  0  0  0
    0.4103    3.8450   15.1750 H   0  0  0  0  0  0  0  0  0  0  0  0
   -1.0613    3.4604   16.0349 H   0  0  0  0  0  0  0  0  0  0  0  0
   -0.9170    4.9813   15.1871 H   0  0  0  0  0  0  0  0  0  0  0  0
  1  2  1  0
  1 25  1  0
  1 26  1  0
  1 27  1  0
  2  3  1  0
  2 14  1  0
  2 28  1  1
  3  4  2  0
  3 29  1  0
  4  5  1  0
  4  6  1  0
  5 30  1  0
  5 31  1  0
  5 32  1  0
  6  7  2  0
  6 33  1  0
  7  8  1  0
  7 34  1  0
  8  9  2  0
  8 10  1  0
 10 11  1  0
 10 12  1  0
 11 13  1  0
 14 15  2  0
 14 16  1  0
 16 17  2  0
 17 18  1  0
 17 35  1  0
 18 19  2  0
 18 36  1  0
 19 20  1  0
 19 22  1  0
 20 21  2  0
 20 37  1  0
 21 16  1  0
 21 38  1  0
 22 23  1  0
 22 24  1  0
 23 39  1  0
 23 40  1  0
 23 41  1  0
 24 42  1  0
 24 43  1  0
 24 44  1  0
M  END
>  <minimizedAffinity>  (1) 
-7.23786

>  <mol_id>  (1) 
18571

>  <source_index>  (1) 
0

>  <layer>  (1) 
L1

>  <uniprot>  (1) 
Q9UBN7

>  <paff>  (1) 
8.3278999999999996

>  <smiles>  (1) 
C[C@H](\C=C(/C)\C=C\C(=O)NO)C(=O)c1ccc(cc1)N(C)C |r|

$$$$
L1:Q9UBN7:27234
     RDKit          3D

 37 38  0  0  0  0  0  0  0  0999 V2000
   -0.9108    1.7388   11.9612 C   0  0  0  0  0  0  0  0  0  0  0  0
   -1.0264    3.0545   12.2532 N   0  0  0  0  0  0  0  0  0  0  0  0
   -0.9071    3.4335   13.5518 C   0  0  0  0  0  0  0  0  0  0  0  0
   -0.6913    2.5528   14.6028 C   0  0  0  0  0  0  0  0  0  0  0  0
   -0.5522    1.2017   14.2977 C   0  0  0  0  0  0  0  0  0  0  0  0
   -0.6593    0.8007   12.9720 C   0  0  0  0  0  0  0  0  0  0  0  0
   -0.5413   -0.5028   12.6733 F   0  0  0  0  0  0  0  0  0  0  0  0
   -0.5741    2.9992   16.0076 C   0  0  0  0  0  0  0  0  0  0  0  0
   -0.4143    2.1860   16.9144 O   0  0  0  0  0  0  0  0  0  0  0  0
   -0.7022    4.3499   16.2555 N   0  0  0  0  0  0  0  0  0  0  0  0
   -0.7744    4.6862   17.6307 O   0  0  0  0  0  0  0  0  0  0  0  0
   -1.2018    4.9768   15.6335 H   0  0  0  0  0  0  0  0  0  0  0  0
   -0.6465    3.8157   18.0701 H   0  0  0  0  0  0  0  0  0  0  0  0
   -0.9566    1.3028   10.6314 N   0  0  0  0  0  0  0  0  0  0  0  0
   -1.7618    0.7024   10.4856 H   0  0  0  0  0  0  0  0  0  0  0  0
   -0.7823    2.3007    9.5725 C   0  0  1  0  0  0  0  0  0  0  0  0
    0.6716    2.3580    9.0959 C   0  0  0  0  0  0  0  0  0  0  0  0
    1.1939    1.4995    8.1140 C   0  0  0  0  0  0  0  0  0  0  0  0
    2.5278    1.5984    7.7077 C   0  0  0  0  0  0  0  0  0  0  0  0
    3.3653    2.5528    8.2784 C   0  0  0  0  0  0  0  0  0  0  0  0
    2.8726    3.4061    9.2609 C   0  0  0  0  0  0  0  0  0  0  0  0
    1.5400    3.3075    9.6676 C   0  0  0  0  0  0  0  0  0  0  0  0
   -3.2240    1.8711    8.8085 C   0  0  0  0  0  0  0  0  0  0  0  0
   -1.7638    2.0468    8.4022 C   0  0  0  0  0  0  0  0  0  0  0  0
   -0.9815    4.4392   13.7710 H   0  0  0  0  0  0  0  0  0  0  0  0
   -0.3728    0.5106   15.0428 H   0  0  0  0  0  0  0  0  0  0  0  0
   -1.0163    3.2611    9.9822 H   0  0  0  0  0  0  0  0  0  0  0  0
    0.5838    0.7854    7.6864 H   0  0  0  0  0  0  0  0  0  0  0  0
    2.8929    0.9617    6.9822 H   0  0  0  0  0  0  0  0  0  0  0  0
    4.3485    2.6272    7.9737 H   0  0  0  0  0  0  0  0  0  0  0  0
    3.4919    4.1119    9.6891 H   0  0  0  0  0  0  0  0  0  0  0  0
    1.1855    3.9420   10.4003 H   0  0  0  0  0  0  0  0  0  0  0  0
   -3.8192    1.7018    7.9356 H   0  0  0  0  0  0  0  0  0  0  0  0
   -3.5645    2.7549    9.3064 H   0  0  0  0  0  0  0  0  0  0  0  0
   -3.3123    1.0335    9.4684 H   0  0  0  0  0  0  0  0  0  0  0  0
   -1.7039    2.8794    7.7328 H   0  0  0  0  0  0  0  0  0  0  0  0
   -1.4646    1.1205    7.9580 H   0  0  0  0  0  0  0  0  0  0  0  0
  1  2  2  0
  2  3  1  0
  3  4  2  0
  3 25  1  0
  4  8  1  0
  4  5  1  0
  5  6  2  0
  5 26  1  0
  6  7  1  0
  6  1  1  0
  8  9  2  0
  8 10  1  0
 10 11  1  0
 10 12  1  0
 11 13  1  0
 14  1  1  0
 14 15  1  0
 16 14  1  0
 16 17  1  0
 16 27  1  1
 17 18  2  0
 18 19  1  0
 18 28  1  0
 19 20  2  0
 19 29  1  0
 20 21  1  0
 20 30  1  0
 21 22  2  0
 21 31  1  0
 22 17  1  0
 22 32  1  0
 23 24  1  0
 23 33  1  0
 23 34  1  0
 23 35  1  0
 24 16  1  0
 24 36  1  0
 24 37  1  0
M  END
>  <minimizedAffinity>  (2) 
-7.36719

>  <mol_id>  (2) 
27234

>  <source_index>  (2) 
1

>  <layer>  (2) 
L1

>  <uniprot>  (2) 
Q9UBN7

>  <paff>  (2) 
8.7423000000000002

>  <smiles>  (2) 
CC[C@@H](Nc1ncc(C(=O)NO)cc1F)c1ccccc1

$$$$
L1:Q9UBN7:29334
     RDKit          3D

 74 77  0  0  0  0  0  0  0  0999 V2000
    0.1726    3.4214   12.8353 C   0  0  0  0  0  0  0  0  0  0  0  0
   -0.8576    2.7665   12.1397 C   0  0  0  0  0  0  0  0  0  0  0  0
   -0.7575    2.4256   10.7961 C   0  0  0  0  0  0  0  0  0  0  0  0
   -1.7850    1.7808   10.2157 N   0  0  0  0  0  0  0  0  0  0  0  0
   -1.6747    1.4266    8.9164 C   0  0  0  0  0  0  0  0  0  0  0  0
   -0.5725    1.7043    8.1397 C   0  0  0  0  0  0  0  0  0  0  0  0
    0.4677    2.4033    8.7386 C   0  0  0  0  0  0  0  0  0  0  0  0
    0.4144    2.7619   10.1003 C   0  0  0  0  0  0  0  0  0  0  0  0
    1.4556    3.4250   10.7834 C   0  0  0  0  0  0  0  0  0  0  0  0
    1.3466    3.7648   12.1422 C   0  0  0  0  0  0  0  0  0  0  0  0
    2.5266    4.4686   12.7378 C   0  0  0  0  0  0  0  0  0  0  0  0
    3.4695    3.7256   13.3850 N   0  0  0  0  0  0  0  0  0  0  0  0
    2.6551    5.6858   12.6542 O   0  0  0  0  0  0  0  0  0  0  0  0
    3.4075    2.7164   13.4286 H   0  0  0  0  0  0  0  0  0  0  0  0
    4.2926    4.1936   13.7389 H   0  0  0  0  0  0  0  0  0  0  0  0
    0.0857    3.7514   14.1654 O   0  0  0  0  0  0  0  0  0  0  0  0
   -0.2107    2.7080   15.0970 C   0  0  0  0  0  0  0  0  0  0  0  0
    1.0428    1.8527   15.2889 C   0  0  0  0  0  0  0  0  0  0  0  0
    0.7157    0.3573   15.3687 C   0  0  0  0  0  0  0  0  0  0  0  0
    0.1653   -0.2161   14.0602 C   0  0  0  0  0  0  0  0  0  0  0  0
   -1.1836   -0.9143   14.2238 C   0  0  0  0  0  0  0  0  0  0  0  0
   -3.1712    0.4997   14.6258 C   0  0  0  0  0  0  0  0  0  0  0  0
   -3.0868    0.3730   15.8459 O   0  0  0  0  0  0  0  0  0  0  0  0
   -2.2714   -0.0809   13.7521 N   0  0  0  0  0  0  0  0  0  0  0  0
   -2.4385   -0.0324   12.7551 H   0  0  0  0  0  0  0  0  0  0  0  0
   -4.2636    1.3135   13.9464 C   0  0  0  0  0  0  0  0  0  0  0  0
   -3.9762    3.0886   14.2022 S   0  0  0  0  0  0  0  0  0  0  0  0
   -4.8882    2.5406   11.6657 C   0  0  0  0  0  0  0  0  0  0  0  0
   -4.4470    3.6351   12.5945 C   0  0  0  0  0  0  0  0  0  0  0  0
   -4.4616    4.8257   12.3091 O   0  0  0  0  0  0  0  0  0  0  0  0
    1.5816    2.6630    7.9735 O   0  0  0  0  0  0  0  0  0  0  0  0
    1.4499    3.5460    6.9211 C   0  0  0  0  0  0  0  0  0  0  0  0
    2.4228    4.4538    6.4986 C   0  0  0  0  0  0  0  0  0  0  0  0
    2.1655    5.3166    5.4252 C   0  0  0  0  0  0  0  0  0  0  0  0
    0.9353    5.2864    4.7631 C   0  0  0  0  0  0  0  0  0  0  0  0
   -0.0328    4.3615    5.1922 C   0  0  0  0  0  0  0  0  0  0  0  0
   -1.5784    4.2658    4.4153 Cl  0  0  0  0  0  0  0  0  0  0  0  0
    0.2184    3.5056    6.2660 C   0  0  0  0  0  0  0  0  0  0  0  0
    0.6294    6.1305    3.6707 N   0  0  0  0  0  0  0  0  0  0  0  0
    0.6010    5.7980    2.3326 C   0  0  0  0  0  0  0  0  0  0  0  0
    0.9307    4.7233    1.8455 O   0  0  0  0  0  0  0  0  0  0  0  0
    0.1744    6.8734    1.5700 N   0  0  0  0  0  0  0  0  0  0  0  0
    0.6262    7.1203    3.8803 H   0  0  0  0  0  0  0  0  0  0  0  0
   -0.4295    7.5321    2.0433 H   0  0  0  0  0  0  0  0  0  0  0  0
    0.0420    6.7780    0.1472 C   0  0  0  0  0  0  0  0  0  0  0  0
   -0.8501    7.7308   -0.6019 C   0  0  0  0  0  0  0  0  0  0  0  0
   -1.2357    6.2857   -0.4749 C   0  0  0  0  0  0  0  0  0  0  0  0
   -1.7241    2.5289   12.6473 H   0  0  0  0  0  0  0  0  0  0  0  0
   -2.4612    0.9192    8.4817 H   0  0  0  0  0  0  0  0  0  0  0  0
   -0.5212    1.4055    7.1532 H   0  0  0  0  0  0  0  0  0  0  0  0
    2.3189    3.6665   10.2721 H   0  0  0  0  0  0  0  0  0  0  0  0
   -0.5031    3.1340   16.0340 H   0  0  0  0  0  0  0  0  0  0  0  0
   -1.0116    2.1036   14.7254 H   0  0  0  0  0  0  0  0  0  0  0  0
    1.7025    2.0177   14.4628 H   0  0  0  0  0  0  0  0  0  0  0  0
    1.4982    2.1395   16.2137 H   0  0  0  0  0  0  0  0  0  0  0  0
    1.6104   -0.1725   15.6212 H   0  0  0  0  0  0  0  0  0  0  0  0
   -0.0469    0.2402   16.1100 H   0  0  0  0  0  0  0  0  0  0  0  0
    0.0498    0.5853   13.3607 H   0  0  0  0  0  0  0  0  0  0  0  0
    0.8630   -0.9525   13.7198 H   0  0  0  0  0  0  0  0  0  0  0  0
   -1.1744   -1.8252   13.6625 H   0  0  0  0  0  0  0  0  0  0  0  0
   -1.3369   -1.1108   15.2644 H   0  0  0  0  0  0  0  0  0  0  0  0
   -4.2604    1.1027   12.8974 H   0  0  0  0  0  0  0  0  0  0  0  0
   -5.2099    1.0489   14.3699 H   0  0  0  0  0  0  0  0  0  0  0  0
   -5.1536    2.9619   10.7186 H   0  0  0  0  0  0  0  0  0  0  0  0
   -5.7361    2.0388   12.0831 H   0  0  0  0  0  0  0  0  0  0  0  0
   -4.0892    1.8412   11.5336 H   0  0  0  0  0  0  0  0  0  0  0  0
    3.3354    4.4894    6.9791 H   0  0  0  0  0  0  0  0  0  0  0  0
    2.8928    5.9821    5.1200 H   0  0  0  0  0  0  0  0  0  0  0  0
   -0.5082    2.8415    6.5760 H   0  0  0  0  0  0  0  0  0  0  0  0
    1.0717    6.4939    0.0846 H   0  0  0  0  0  0  0  0  0  0  0  0
   -0.5407    8.1206   -1.5491 H   0  0  0  0  0  0  0  0  0  0  0  0
   -1.3231    8.6628   -0.3727 H   0  0  0  0  0  0  0  0  0  0  0  0
   -1.2013    5.6458   -1.3318 H   0  0  0  0  0  0  0  0  0  0  0  0
   -2.0976    5.7618   -0.1177 H   0  0  0  0  0  0  0  0  0  0  0  0
  1  2  2  0
  2  3  1  0
  2 48  1  0
  3  4  2  0
  4  5  1  0
  5  6  2  0
  5 49  1  0
  6  7  1  0
  6 50  1  0
  7 31  1  0
  7  8  2  0
  8  9  1  0
  8  3  1  0
  9 10  2  0
  9 51  1  0
 10 11  1  0
 10  1  1  0
 11 12  1  0
 11 13  2  0
 12 14  1  0
 12 15  1  0
 16  1  1  0
 17 16  1  0
 17 52  1  0
 17 53  1  0
 18 17  1  0
 18 54  1  0
 18 55  1  0
 19 18  1  0
 19 56  1  0
 19 57  1  0
 20 19  1  0
 20 58  1  0
 20 59  1  0
 21 20  1  0
 21 60  1  0
 21 61  1  0
 22 23  2  0
 22 24  1  0
 24 21  1  0
 24 25  1  0
 26 22  1  0
 26 62  1  0
 26 63  1  0
 27 26  1  0
 28 29  1  0
 28 64  1  0
 28 65  1  0
 28 66  1  0
 29 30  2  0
 29 27  1  0
 31 32  1  0
 32 33  2  0
 33 34  1  0
 33 67  1  0
 34 35  2  0
 34 68  1  0
 35 39  1  0
 35 36  1  0
 36 37  1  0
 36 38  2  0
 38 32  1  0
 38 69  1  0
 39 40  1  0
 39 43  1  0
 40 41  2  0
 40 42  1  0
 42 45  1  0
 42 44  1  0
 45 46  1  0
 45 70  1  0
 46 47  1  0
 46 71  1  0
 46 72  1  0
 47 45  1  0
 47 73  1  0
 47 74  1  0
M  END
>  <minimizedAffinity>  (3) 
-7.54245

>  <mol_id>  (3) 
29334

>  <source_index>  (3) 
2

>  <layer>  (3) 
L1

>  <uniprot>  (3) 
Q9UBN7

>  <paff>  (3) 
8.0487000000000002

>  <smiles>  (3) 
CC(=O)SCC(=O)NCCCCCOc1cc2nccc(Oc3ccc(NC(=O)NC4CC4)c(Cl)c3)c2cc1C(N)=O

$$$$
L1:Q9UBN7:42051
     RDKit          3D

 40 41  0  0  0  0  0  0  0  0999 V2000
   -1.9081    1.8706   11.1736 N   0  0  0  0  0  0  0  0  0  0  0  0
   -1.1455    2.8253   11.8317 C   0  0  0  0  0  0  0  0  0  0  0  0
   -0.7165    3.8398   11.2832 O   0  0  0  0  0  0  0  0  0  0  0  0
   -2.4711    1.2650   11.7658 H   0  0  0  0  0  0  0  0  0  0  0  0
   -0.9348    2.4866   13.2359 C   0  0  0  0  0  0  0  0  0  0  0  0
   -1.5764    1.4978   13.8356 N   0  0  0  0  0  0  0  0  0  0  0  0
   -1.1737    1.4233   15.1602 C   0  0  0  0  0  0  0  0  0  0  0  0
   -0.2353    2.3618   15.5411 C   0  0  0  0  0  0  0  0  0  0  0  0
    0.1612    3.3695   14.2110 S   0  0  0  0  0  0  0  0  0  0  0  0
   -1.7662    0.3820   16.0141 C   0  0  0  0  0  0  0  0  0  0  0  0
   -0.9778   -0.4475   16.8700 C   0  0  0  0  0  0  0  0  0  0  0  0
   -1.7435   -1.3504   17.5754 C   0  0  0  0  0  0  0  0  0  0  0  0
   -3.4075   -1.2024   17.2106 S   0  0  0  0  0  0  0  0  0  0  0  0
   -3.1075    0.0724   16.1059 C   0  0  0  0  0  0  0  0  0  0  0  0
   -2.5366    2.3261    9.9884 O   0  0  0  0  0  0  0  0  0  0  0  0
   -1.9973    1.5957    8.8842 C   0  0  0  0  0  0  0  0  0  0  0  0
   -1.8140    2.5370    7.6971 C   0  0  0  0  0  0  0  0  0  0  0  0
   -0.3376    2.7877    7.3764 C   0  0  0  0  0  0  0  0  0  0  0  0
    0.5702    1.8500    8.1741 C   0  0  0  0  0  0  0  0  0  0  0  0
    2.0448    2.1445    7.9085 C   0  0  0  0  0  0  0  0  0  0  0  0
    3.6105    3.8299    8.7041 O   0  0  0  0  0  0  0  0  0  0  0  0
    2.6175    3.1343    8.9007 C   0  0  0  0  0  0  0  0  0  0  0  0
    1.9089    3.1931   10.0812 N   0  0  0  0  0  0  0  0  0  0  0  0
    2.3292    4.2077   10.9760 O   0  0  0  0  0  0  0  0  0  0  0  0
    0.9266    2.9434   10.1252 H   0  0  0  0  0  0  0  0  0  0  0  0
    3.1075    4.5891   10.5112 H   0  0  0  0  0  0  0  0  0  0  0  0
    0.1683    2.4448   16.4873 H   0  0  0  0  0  0  0  0  0  0  0  0
    0.0487   -0.3782   16.9507 H   0  0  0  0  0  0  0  0  0  0  0  0
   -1.3582   -2.0349   18.2447 H   0  0  0  0  0  0  0  0  0  0  0  0
   -3.8463    0.5540   15.5700 H   0  0  0  0  0  0  0  0  0  0  0  0
   -1.0509    1.1792    9.1594 H   0  0  0  0  0  0  0  0  0  0  0  0
   -2.6678    0.8064    8.6152 H   0  0  0  0  0  0  0  0  0  0  0  0
   -2.2838    2.1039    6.8388 H   0  0  0  0  0  0  0  0  0  0  0  0
   -2.2574    3.4766    7.9530 H   0  0  0  0  0  0  0  0  0  0  0  0
   -0.1752    2.6249    6.3314 H   0  0  0  0  0  0  0  0  0  0  0  0
   -0.1001    3.7963    7.6432 H   0  0  0  0  0  0  0  0  0  0  0  0
    0.3720    1.9778    9.2178 H   0  0  0  0  0  0  0  0  0  0  0  0
    0.3670    0.8445    7.8699 H   0  0  0  0  0  0  0  0  0  0  0  0
    2.5965    1.2302    7.9762 H   0  0  0  0  0  0  0  0  0  0  0  0
    2.1233    2.5750    6.9321 H   0  0  0  0  0  0  0  0  0  0  0  0
  1  2  1  0
  1  4  1  0
  2  3  2  0
  2  5  1  0
  5  6  2  0
  6  7  1  0
  7 10  1  0
  7  8  2  0
  8  9  1  0
  8 27  1  0
  9  5  1  0
 10 11  1  0
 11 12  2  0
 11 28  1  0
 12 13  1  0
 12 29  1  0
 13 14  1  0
 14 10  2  0
 14 30  1  0
 15  1  1  0
 16 15  1  0
 16 31  1  0
 16 32  1  0
 17 16  1  0
 17 33  1  0
 17 34  1  0
 18 17  1  0
 18 35  1  0
 18 36  1  0
 19 18  1  0
 19 37  1  0
 19 38  1  0
 20 19  1  0
 20 39  1  0
 20 40  1  0
 21 22  2  0
 22 20  1  0
 22 23  1  0
 23 24  1  0
 23 25  1  0
 24 26  1  0
M  END
>  <minimizedAffinity>  (4) 
-6.30757

>  <mol_id>  (4) 
42051

>  <source_index>  (4) 
3

>  <layer>  (4) 
L1

>  <uniprot>  (4) 
Q9UBN7

>  <paff>  (4) 
7.3098000000000001

>  <smiles>  (4) 
O=C(CCCCCONC(=O)c1nc(-c2ccsc2)cs1)NO

$$$$
L1:Q9UBN7:43508
     RDKit          3D

 47 49  0  0  0  0  0  0  0  0999 V2000
   -1.9154    2.1758   14.5532 C   0  0  0  0  0  0  0  0  0  0  0  0
   -1.6844    2.7221   15.6326 O   0  0  0  0  0  0  0  0  0  0  0  0
   -1.2605    2.5394   13.3784 N   0  0  0  0  0  0  0  0  0  0  0  0
   -0.3671    3.7174   13.4275 C   0  0  0  0  0  0  0  0  0  0  0  0
    0.8965    3.5526   12.5624 C   0  0  0  0  0  0  0  0  0  0  0  0
    0.5232    3.0173   11.2268 C   0  0  0  0  0  0  0  0  0  0  0  0
   -0.6712    2.3545   11.0371 C   0  0  0  0  0  0  0  0  0  0  0  0
   -0.7362    1.9707    9.7257 N   0  0  0  0  0  0  0  0  0  0  0  0
    0.4022    2.3771    9.0612 C   0  0  0  0  0  0  0  0  0  0  0  0
    0.7710    2.2081    7.7211 C   0  0  0  0  0  0  0  0  0  0  0  0
    2.0045    2.7285    7.3176 C   0  0  0  0  0  0  0  0  0  0  0  0
    2.8348    3.3905    8.2194 C   0  0  0  0  0  0  0  0  0  0  0  0
    2.4525    3.5517    9.5561 C   0  0  0  0  0  0  0  0  0  0  0  0
    1.2141    3.0380    9.9871 C   0  0  0  0  0  0  0  0  0  0  0  0
   -1.7258    2.0994   12.0519 C   0  0  0  0  0  0  0  0  0  0  0  0
   -1.4960    1.4641    9.2929 H   0  0  0  0  0  0  0  0  0  0  0  0
   -2.9341    1.0476   14.4468 C   0  0  0  0  0  0  0  0  0  0  0  0
   -2.4283   -0.2502   15.0814 C   0  0  0  0  0  0  0  0  0  0  0  0
   -1.6619   -1.1024   14.0682 C   0  0  0  0  0  0  0  0  0  0  0  0
   -0.1463   -0.8700   14.0979 C   0  0  0  0  0  0  0  0  0  0  0  0
    0.4273   -0.5364   15.4751 C   0  0  0  0  0  0  0  0  0  0  0  0
    1.1916    1.6695   16.1665 O   0  0  0  0  0  0  0  0  0  0  0  0
    1.3453    0.6685   15.4711 C   0  0  0  0  0  0  0  0  0  0  0  0
    2.3871    0.5573   14.5769 N   0  0  0  0  0  0  0  0  0  0  0  0
    3.1764    1.7244   14.4325 O   0  0  0  0  0  0  0  0  0  0  0  0
    2.3313   -0.0454   13.7626 H   0  0  0  0  0  0  0  0  0  0  0  0
    2.7732    2.3336   15.0903 H   0  0  0  0  0  0  0  0  0  0  0  0
   -0.0670    3.8754   14.4423 H   0  0  0  0  0  0  0  0  0  0  0  0
   -0.9146    4.5501   13.0379 H   0  0  0  0  0  0  0  0  0  0  0  0
    1.5699    2.8735   13.0422 H   0  0  0  0  0  0  0  0  0  0  0  0
    1.3705    4.5044   12.4427 H   0  0  0  0  0  0  0  0  0  0  0  0
    0.1545    1.7170    7.0550 H   0  0  0  0  0  0  0  0  0  0  0  0
    2.3046    2.6205    6.3361 H   0  0  0  0  0  0  0  0  0  0  0  0
    3.7410    3.7659    7.8985 H   0  0  0  0  0  0  0  0  0  0  0  0
    3.0722    4.0423   10.2196 H   0  0  0  0  0  0  0  0  0  0  0  0
   -1.9440    1.0523   12.0816 H   0  0  0  0  0  0  0  0  0  0  0  0
   -2.6079    2.6448   11.7887 H   0  0  0  0  0  0  0  0  0  0  0  0
   -3.8329    1.3469   14.9443 H   0  0  0  0  0  0  0  0  0  0  0  0
   -3.1081    0.8591   13.4080 H   0  0  0  0  0  0  0  0  0  0  0  0
   -1.7785   -0.0094   15.8967 H   0  0  0  0  0  0  0  0  0  0  0  0
   -3.2732   -0.8105   15.4236 H   0  0  0  0  0  0  0  0  0  0  0  0
   -1.8509   -2.1339   14.2810 H   0  0  0  0  0  0  0  0  0  0  0  0
   -2.0053   -0.8201   13.0949 H   0  0  0  0  0  0  0  0  0  0  0  0
    0.3332   -1.7590   13.7447 H   0  0  0  0  0  0  0  0  0  0  0  0
    0.0382   -0.0153   13.4811 H   0  0  0  0  0  0  0  0  0  0  0  0
   -0.3859   -0.3405   16.1424 H   0  0  0  0  0  0  0  0  0  0  0  0
    1.0124   -1.3771   15.7846 H   0  0  0  0  0  0  0  0  0  0  0  0
  1  2  2  0
  1  3  1  0
  3  4  1  0
  4  5  1  0
  4 28  1  0
  4 29  1  0
  5  6  1  0
  5 30  1  0
  5 31  1  0
  6  7  2  0
  7  8  1  0
  7 15  1  0
  8  9  1  0
  8 16  1  0
  9 10  2  0
 10 11  1  0
 10 32  1  0
 11 12  2  0
 11 33  1  0
 12 13  1  0
 12 34  1  0
 13 14  2  0
 13 35  1  0
 14  6  1  0
 14  9  1  0
 15  3  1  0
 15 36  1  0
 15 37  1  0
 17  1  1  0
 17 38  1  0
 17 39  1  0
 18 17  1  0
 18 40  1  0
 18 41  1  0
 19 18  1  0
 19 42  1  0
 19 43  1  0
 20 19  1  0
 20 44  1  0
 20 45  1  0
 21 20  1  0
 21 46  1  0
 21 47  1  0
 22 23  2  0
 23 21  1  0
 23 24  1  0
 24 25  1  0
 24 26  1  0
 25 27  1  0
M  END
>  <minimizedAffinity>  (5) 
-7.05676

>  <mol_id>  (5) 
43508

>  <source_index>  (5) 
4

>  <layer>  (5) 
L1

>  <uniprot>  (5) 
Q9UBN7

>  <paff>  (5) 
7.7695999999999996

>  <smiles>  (5) 
O=C(CCCCCC(=O)N1CCc2c([nH]c3ccccc23)C1)NO

$$$$
L1:Q9UBN7:67143
     RDKit          3D

 55 57  0  0  0  0  0  0  0  0999 V2000
    0.3632    3.7998    5.5337 C   0  0  0  0  0  0  0  0  0  0  0  0
    1.5650    3.4591    6.1482 C   0  0  0  0  0  0  0  0  0  0  0  0
    1.5379    2.8170    7.3833 C   0  0  0  0  0  0  0  0  0  0  0  0
    0.3115    2.5220    7.9852 C   0  0  0  0  0  0  0  0  0  0  0  0
    0.2294    1.8748    9.2313 C   0  0  0  0  0  0  0  0  0  0  0  0
   -1.0073    1.5896    9.8129 C   0  0  0  0  0  0  0  0  0  0  0  0
   -2.1659    1.9516    9.1346 C   0  0  0  0  0  0  0  0  0  0  0  0
   -2.0791    2.5960    7.8926 C   0  0  0  0  0  0  0  0  0  0  0  0
   -0.8594    2.8910    7.3008 C   0  0  0  0  0  0  0  0  0  0  0  0
   -0.8336    3.5092    6.1073 N   0  0  0  0  0  0  0  0  0  0  0  0
    0.1689    5.8281    1.7214 C   0  0  0  0  0  0  0  0  0  0  0  0
    0.5645    6.5049    2.8736 C   0  0  0  0  0  0  0  0  0  0  0  0
    0.6285    5.8420    4.1042 C   0  0  0  0  0  0  0  0  0  0  0  0
    0.2948    4.4820    4.2233 C   0  0  0  0  0  0  0  0  0  0  0  0
   -0.0914    3.8146    3.0471 C   0  0  0  0  0  0  0  0  0  0  0  0
   -0.1562    4.4771    1.8115 C   0  0  0  0  0  0  0  0  0  0  0  0
    1.0825    7.6586    0.5120 C   0  0  0  0  0  0  0  0  0  0  0  0
    0.1487    6.5892    0.5862 O   0  0  0  0  0  0  0  0  0  0  0  0
   -0.9341    0.9548   11.0196 O   0  0  0  0  0  0  0  0  0  0  0  0
   -1.1730    1.7085   12.2103 C   0  0  0  0  0  0  0  0  0  0  0  0
   -0.1976    2.8816   12.3042 C   0  0  0  0  0  0  0  0  0  0  0  0
    0.9315    2.6656   13.3141 C   0  0  0  0  0  0  0  0  0  0  0  0
    0.4735    2.8085   14.7682 C   0  0  0  0  0  0  0  0  0  0  0  0
    0.7928    1.5800   15.6306 C   0  0  0  0  0  0  0  0  0  0  0  0
    1.0941    0.3022   14.8470 C   0  0  0  0  0  0  0  0  0  0  0  0
   -0.0762   -0.6586   14.7838 C   0  0  0  0  0  0  0  0  0  0  0  0
   -0.8331   -0.9043   15.7192 O   0  0  0  0  0  0  0  0  0  0  0  0
   -0.2073   -1.2781   13.5596 N   0  0  0  0  0  0  0  0  0  0  0  0
   -1.3635   -2.0859   13.4252 O   0  0  0  0  0  0  0  0  0  0  0  0
    0.1287   -0.8452   12.7058 H   0  0  0  0  0  0  0  0  0  0  0  0
   -1.7607   -2.0374   14.3235 H   0  0  0  0  0  0  0  0  0  0  0  0
    2.4649    3.6798    5.6938 H   0  0  0  0  0  0  0  0  0  0  0  0
    2.4203    2.5598    7.8527 H   0  0  0  0  0  0  0  0  0  0  0  0
    1.0963    1.6068    9.7230 H   0  0  0  0  0  0  0  0  0  0  0  0
   -3.0899    1.7459    9.5456 H   0  0  0  0  0  0  0  0  0  0  0  0
   -2.9490    2.8590    7.4036 H   0  0  0  0  0  0  0  0  0  0  0  0
    0.8128    7.5051    2.8187 H   0  0  0  0  0  0  0  0  0  0  0  0
    0.9274    6.3634    4.9431 H   0  0  0  0  0  0  0  0  0  0  0  0
   -0.3332    2.8124    3.0938 H   0  0  0  0  0  0  0  0  0  0  0  0
   -0.4460    3.9608    0.9662 H   0  0  0  0  0  0  0  0  0  0  0  0
    0.9638    8.1717   -0.4194 H   0  0  0  0  0  0  0  0  0  0  0  0
    2.0768    7.2693    0.5806 H   0  0  0  0  0  0  0  0  0  0  0  0
    0.9097    8.3396    1.3190 H   0  0  0  0  0  0  0  0  0  0  0  0
   -1.0432    1.0732   13.0615 H   0  0  0  0  0  0  0  0  0  0  0  0
   -2.1724    2.0898   12.1846 H   0  0  0  0  0  0  0  0  0  0  0  0
   -0.7458    3.7541   12.5924 H   0  0  0  0  0  0  0  0  0  0  0  0
    0.2597    2.9849   11.3424 H   0  0  0  0  0  0  0  0  0  0  0  0
    1.6987    3.3874   13.1264 H   0  0  0  0  0  0  0  0  0  0  0  0
    1.2843    1.6633   13.1882 H   0  0  0  0  0  0  0  0  0  0  0  0
   -0.5852    2.9632   14.7768 H   0  0  0  0  0  0  0  0  0  0  0  0
    1.0063    3.6363   15.1876 H   0  0  0  0  0  0  0  0  0  0  0  0
   -0.0489    1.3907   16.2635 H   0  0  0  0  0  0  0  0  0  0  0  0
    1.6853    1.8173   16.1710 H   0  0  0  0  0  0  0  0  0  0  0  0
    1.9167   -0.1964   15.3157 H   0  0  0  0  0  0  0  0  0  0  0  0
    1.3159    0.5944   13.8419 H   0  0  0  0  0  0  0  0  0  0  0  0
  1  2  2  0
  2  3  1  0
  2 32  1  0
  3  4  2  0
  3 33  1  0
  4  5  1  0
  5  6  2  0
  5 34  1  0
  6 19  1  0
  6  7  1  0
  7  8  2  0
  7 35  1  0
  8  9  1  0
  8 36  1  0
  9 10  2  0
  9  4  1  0
 10  1  1  0
 11 12  2  0
 12 13  1  0
 12 37  1  0
 13 14  2  0
 13 38  1  0
 14  1  1  0
 14 15  1  0
 15 16  2  0
 15 39  1  0
 16 11  1  0
 16 40  1  0
 17 18  1  0
 17 41  1  0
 17 42  1  0
 17 43  1  0
 18 11  1  0
 19 20  1  0
 20 21  1  0
 20 44  1  0
 20 45  1  0
 21 22  1  0
 21 46  1  0
 21 47  1  0
 22 23  1  0
 22 48  1  0
 22 49  1  0
 23 24  1  0
 23 50  1  0
 23 51  1  0
 24 25  1  0
 24 52  1  0
 24 53  1  0
 25 26  1  0
 25 54  1  0
 25 55  1  0
 26 27  2  0
 26 28  1  0
 28 29  1  0
 28 30  1  0
 29 31  1  0
M  END
>  <minimizedAffinity>  (6) 
-7.50119

>  <mol_id>  (6) 
67143

>  <source_index>  (6) 
5

>  <layer>  (6) 
L1

>  <uniprot>  (6) 
Q9UBN7

>  <paff>  (6) 
6.3010000000000002

>  <smiles>  (6) 
COc1ccc(-c2ccc3cc(OCCCCCCC(=O)NO)ccc3n2)cc1

$$$$
L1:Q9UBN7:83097
     RDKit          3D

 69 71  0  0  0  0  0  0  0  0999 V2000
   -1.0266    2.5449   14.8364 N   0  0  0  0  0  0  0  0  0  0  0  0
   -0.7017    1.3166   15.4080 C   0  0  0  0  0  0  0  0  0  0  0  0
   -0.0290    1.2461   16.4387 O   0  0  0  0  0  0  0  0  0  0  0  0
   -1.1724    0.1023   14.7570 C   0  0  0  0  0  0  0  0  0  0  0  0
   -0.4339   -0.7121   13.9159 C   0  0  0  0  0  0  0  0  0  0  0  0
   -1.2400   -1.7355   13.4930 N   0  0  0  0  0  0  0  0  0  0  0  0
   -2.5047   -1.5934   14.0173 C   0  0  0  0  0  0  0  0  0  0  0  0
   -3.6449   -2.3901   13.8553 C   0  0  0  0  0  0  0  0  0  0  0  0
   -4.8158   -1.9822   14.5001 C   0  0  0  0  0  0  0  0  0  0  0  0
   -4.8457   -0.8228   15.2717 C   0  0  0  0  0  0  0  0  0  0  0  0
   -3.6964   -0.0389   15.4254 C   0  0  0  0  0  0  0  0  0  0  0  0
   -2.4999   -0.4314   14.7910 C   0  0  0  0  0  0  0  0  0  0  0  0
   -0.9592   -2.4779   12.8663 H   0  0  0  0  0  0  0  0  0  0  0  0
   -0.6654    3.7296   15.6085 C   0  0  0  0  0  0  0  0  0  0  0  0
   -2.0786    5.6944   15.9680 N   0  0  0  0  0  0  0  0  0  0  0  0
   -1.9385    4.3388   16.2087 C   0  0  0  0  0  0  0  0  0  0  0  0
   -2.7446    3.6596   16.8416 O   0  0  0  0  0  0  0  0  0  0  0  0
   -1.2108    6.1771   15.7475 H   0  0  0  0  0  0  0  0  0  0  0  0
   -3.1393    6.5533   16.5609 C   0  0  0  0  0  0  0  0  0  0  0  0
   -3.2603    6.2746   18.0674 C   0  0  0  0  0  0  0  0  0  0  0  0
   -4.4555    6.0962   15.8924 C   0  0  0  0  0  0  0  0  0  0  0  0
   -2.8075    8.0362   16.1976 C   0  0  0  0  0  0  0  0  0  0  0  0
   -1.5011   10.1665   16.1068 C   0  0  0  0  0  0  0  0  0  0  0  0
   -1.7391    8.8872   16.9527 C   0  0  0  0  0  0  0  0  0  0  0  0
   -2.1777    9.3336   18.3539 C   0  0  0  0  0  0  0  0  0  0  0  0
   -0.3877    8.1535   17.0542 C   0  0  0  0  0  0  0  0  0  0  0  0
   -1.7622    2.7547   13.5897 C   0  0  0  0  0  0  0  0  0  0  0  0
   -0.8397    2.8376   12.3918 C   0  0  0  0  0  0  0  0  0  0  0  0
   -1.1526    2.1584   11.2035 C   0  0  0  0  0  0  0  0  0  0  0  0
   -0.3029    2.2246   10.0950 C   0  0  0  0  0  0  0  0  0  0  0  0
    0.8744    2.9789   10.1602 C   0  0  0  0  0  0  0  0  0  0  0  0
    1.2011    3.6480   11.3471 C   0  0  0  0  0  0  0  0  0  0  0  0
    0.3485    3.5816   12.4523 C   0  0  0  0  0  0  0  0  0  0  0  0
    1.8152    3.0795    9.0125 C   0  0  0  0  0  0  0  0  0  0  0  0
    1.4353    2.9005    7.8559 O   0  0  0  0  0  0  0  0  0  0  0  0
    3.1386    3.3320    9.3128 N   0  0  0  0  0  0  0  0  0  0  0  0
    4.0263    3.2046    8.2150 O   0  0  0  0  0  0  0  0  0  0  0  0
    3.5360    3.1195   10.2248 H   0  0  0  0  0  0  0  0  0  0  0  0
    3.4091    3.0266    7.4698 H   0  0  0  0  0  0  0  0  0  0  0  0
    0.5541   -0.5722   13.6527 H   0  0  0  0  0  0  0  0  0  0  0  0
   -3.6214   -3.2471   13.2808 H   0  0  0  0  0  0  0  0  0  0  0  0
   -5.6725   -2.5493   14.4030 H   0  0  0  0  0  0  0  0  0  0  0  0
   -5.7235   -0.5392   15.7344 H   0  0  0  0  0  0  0  0  0  0  0  0
   -3.7245    0.8191   15.9982 H   0  0  0  0  0  0  0  0  0  0  0  0
    0.0064    3.4549   16.3947 H   0  0  0  0  0  0  0  0  0  0  0  0
   -0.1864    4.4445   14.9726 H   0  0  0  0  0  0  0  0  0  0  0  0
   -4.0247    6.8962   18.4848 H   0  0  0  0  0  0  0  0  0  0  0  0
   -2.3270    6.4873   18.5456 H   0  0  0  0  0  0  0  0  0  0  0  0
   -3.5134    5.2463   18.2207 H   0  0  0  0  0  0  0  0  0  0  0  0
   -5.2696    6.6761   16.2743 H   0  0  0  0  0  0  0  0  0  0  0  0
   -4.6235    5.0613   16.1063 H   0  0  0  0  0  0  0  0  0  0  0  0
   -4.3847    6.2347   14.8338 H   0  0  0  0  0  0  0  0  0  0  0  0
   -2.5019    8.0252   15.1722 H   0  0  0  0  0  0  0  0  0  0  0  0
   -3.7116    8.5303   16.4863 H   0  0  0  0  0  0  0  0  0  0  0  0
   -0.7717   10.7827   16.5896 H   0  0  0  0  0  0  0  0  0  0  0  0
   -2.4193   10.7078   16.0127 H   0  0  0  0  0  0  0  0  0  0  0  0
   -1.1483    9.8910   15.1349 H   0  0  0  0  0  0  0  0  0  0  0  0
   -1.3968    9.9090   18.8056 H   0  0  0  0  0  0  0  0  0  0  0  0
   -2.3798    8.4723   18.9557 H   0  0  0  0  0  0  0  0  0  0  0  0
   -3.0622    9.9308   18.2774 H   0  0  0  0  0  0  0  0  0  0  0  0
    0.3141    8.7693   17.5770 H   0  0  0  0  0  0  0  0  0  0  0  0
   -0.0188    7.9479   16.0711 H   0  0  0  0  0  0  0  0  0  0  0  0
   -0.5201    7.2339   17.5850 H   0  0  0  0  0  0  0  0  0  0  0  0
   -2.3141    3.6684   13.6642 H   0  0  0  0  0  0  0  0  0  0  0  0
   -2.4140    1.9183   13.4467 H   0  0  0  0  0  0  0  0  0  0  0  0
   -2.0208    1.6032   11.1475 H   0  0  0  0  0  0  0  0  0  0  0  0
   -0.5437    1.7175    9.2291 H   0  0  0  0  0  0  0  0  0  0  0  0
    2.0758    4.1926   11.4054 H   0  0  0  0  0  0  0  0  0  0  0  0
    0.5946    4.0836   13.3197 H   0  0  0  0  0  0  0  0  0  0  0  0
  1 27  1  0
  1  2  1  0
  2  3  2  0
  2  4  1  0
  4  5  2  0
  5  6  1  0
  5 40  1  0
  6  7  1  0
  6 13  1  0
  7  8  2  0
  8  9  1  0
  8 41  1  0
  9 10  2  0
  9 42  1  0
 10 11  1  0
 10 43  1  0
 11 12  2  0
 11 44  1  0
 12  4  1  0
 12  7  1  0
 14  1  1  0
 14 45  1  0
 14 46  1  0
 15 16  1  0
 15 18  1  0
 16 17  2  0
 16 14  1  0
 19 20  1  0
 19 21  1  0
 19 15  1  0
 20 47  1  0
 20 48  1  0
 20 49  1  0
 21 50  1  0
 21 51  1  0
 21 52  1  0
 22 19  1  0
 22 53  1  0
 22 54  1  0
 23 24  1  0
 23 55  1  0
 23 56  1  0
 23 57  1  0
 24 25  1  0
 24 26  1  0
 24 22  1  0
 25 58  1  0
 25 59  1  0
 25 60  1  0
 26 61  1  0
 26 62  1  0
 26 63  1  0
 27 28  1  0
 27 64  1  0
 27 65  1  0
 28 29  2  0
 29 30  1  0
 29 66  1  0
 30 31  2  0
 30 67  1  0
 31 34  1  0
 31 32  1  0
 32 33  2  0
 32 68  1  0
 33 28  1  0
 33 69  1  0
 34 35  2  0
 34 36  1  0
 36 37  1  0
 36 38  1  0
 37 39  1  0
M  END
>  <minimizedAffinity>  (7) 
-6.67775

>  <mol_id>  (7) 
83097

>  <source_index>  (7) 
6

>  <layer>  (7) 
L1

>  <uniprot>  (7) 
Q9UBN7

>  <paff>  (7) 
7.6197999999999997

>  <smiles>  (7) 
CC(C)(C)CC(C)(C)NC(=O)CN(Cc1ccc(C(=O)NO)cc1)C(=O)c1c[nH]c2ccccc12

$$$$
L1:Q9UBN7:92479
     RDKit          3D

 43 46  0  0  0  0  0  0  0  0999 V2000
   -0.4083    1.9979    9.6534 N   0  0  0  0  0  0  0  0  0  0  0  0
   -0.3707    2.4454   10.9537 C   0  0  0  0  0  0  0  0  0  0  0  0
    0.7879    3.1811   11.1253 C   0  0  0  0  0  0  0  0  0  0  0  0
    1.4990    3.1586    9.8957 C   0  0  0  0  0  0  0  0  0  0  0  0
    2.7241    3.7101    9.4662 C   0  0  0  0  0  0  0  0  0  0  0  0
    3.1568    3.5049    8.1534 C   0  0  0  0  0  0  0  0  0  0  0  0
    2.3866    2.7619    7.2666 C   0  0  0  0  0  0  0  0  0  0  0  0
    1.1676    2.2045    7.6646 C   0  0  0  0  0  0  0  0  0  0  0  0
    0.7366    2.4118    8.9875 C   0  0  0  0  0  0  0  0  0  0  0  0
    1.1047    3.8144   12.4000 C   0  0  0  0  0  0  0  0  0  0  0  0
    2.1398    4.4495   12.5895 O   0  0  0  0  0  0  0  0  0  0  0  0
    0.0338    3.7097   13.4830 C   0  0  0  0  0  0  0  0  0  0  0  0
   -0.7694    2.4058   13.3881 C   0  0  0  0  0  0  0  0  0  0  0  0
   -1.4056    2.2114   12.0028 C   0  0  0  0  0  0  0  0  0  0  0  0
   -1.4696    1.1810    9.0677 C   0  0  0  0  0  0  0  0  0  0  0  0
   -4.5947    3.5297    7.2072 C   0  0  0  0  0  0  0  0  0  0  0  0
   -3.2723    3.6447    6.7662 C   0  0  0  0  0  0  0  0  0  0  0  0
   -2.2601    2.8949    7.3702 C   0  0  0  0  0  0  0  0  0  0  0  0
   -2.5530    2.0159    8.4239 C   0  0  0  0  0  0  0  0  0  0  0  0
   -3.8860    1.8878    8.8443 C   0  0  0  0  0  0  0  0  0  0  0  0
   -4.9011    2.6389    8.2426 C   0  0  0  0  0  0  0  0  0  0  0  0
   -6.7145    3.8581    6.1943 O   0  0  0  0  0  0  0  0  0  0  0  0
   -5.6390    4.3458    6.5324 C   0  0  0  0  0  0  0  0  0  0  0  0
   -5.3175    5.6593    6.2598 N   0  0  0  0  0  0  0  0  0  0  0  0
   -6.2520    6.3294    5.4303 O   0  0  0  0  0  0  0  0  0  0  0  0
   -4.3536    5.9561    6.1558 H   0  0  0  0  0  0  0  0  0  0  0  0
   -6.9537    5.6499    5.3156 H   0  0  0  0  0  0  0  0  0  0  0  0
    3.2995    4.2638   10.1199 H   0  0  0  0  0  0  0  0  0  0  0  0
    4.0539    3.9076    7.8404 H   0  0  0  0  0  0  0  0  0  0  0  0
    2.7193    2.6195    6.3001 H   0  0  0  0  0  0  0  0  0  0  0  0
    0.5976    1.6540    7.0035 H   0  0  0  0  0  0  0  0  0  0  0  0
   -0.6389    4.5357   13.3819 H   0  0  0  0  0  0  0  0  0  0  0  0
    0.5279    3.7199   14.4321 H   0  0  0  0  0  0  0  0  0  0  0  0
   -1.5463    2.4261   14.1236 H   0  0  0  0  0  0  0  0  0  0  0  0
   -0.0940    1.5928   13.5548 H   0  0  0  0  0  0  0  0  0  0  0  0
   -2.2082    2.9076   11.8761 H   0  0  0  0  0  0  0  0  0  0  0  0
   -1.7869    1.2153   11.9175 H   0  0  0  0  0  0  0  0  0  0  0  0
   -1.0406    0.5426    8.3239 H   0  0  0  0  0  0  0  0  0  0  0  0
   -1.9196    0.6168    9.8577 H   0  0  0  0  0  0  0  0  0  0  0  0
   -3.0433    4.2864    5.9911 H   0  0  0  0  0  0  0  0  0  0  0  0
   -1.2875    2.9884    7.0382 H   0  0  0  0  0  0  0  0  0  0  0  0
   -4.1199    1.2320    9.6060 H   0  0  0  0  0  0  0  0  0  0  0  0
   -5.8769    2.5362    8.5624 H   0  0  0  0  0  0  0  0  0  0  0  0
  1  2  1  0
  2  3  2  0
  3  4  1  0
  3 10  1  0
  4  5  2  0
  5  6  1  0
  5 28  1  0
  6  7  2  0
  6 29  1  0
  7  8  1  0
  7 30  1  0
  8  9  2  0
  8 31  1  0
  9  1  1  0
  9  4  1  0
 10 11  2  0
 10 12  1  0
 12 13  1  0
 12 32  1  0
 12 33  1  0
 13 14  1  0
 13 34  1  0
 13 35  1  0
 14  2  1  0
 14 36  1  0
 14 37  1  0
 15  1  1  0
 15 38  1  0
 15 39  1  0
 16 17  2  0
 17 18  1  0
 17 40  1  0
 18 19  2  0
 18 41  1  0
 19 15  1  0
 19 20  1  0
 20 21  2  0
 20 42  1  0
 21 16  1  0
 21 43  1  0
 22 23  2  0
 23 24  1  0
 23 16  1  0
 24 25  1  0
 24 26  1  0
 25 27  1  0
M  END
>  <minimizedAffinity>  (8) 
-7.54970

>  <mol_id>  (8) 
92479

>  <source_index>  (8) 
7

>  <layer>  (8) 
L1

>  <uniprot>  (8) 
Q9UBN7

>  <paff>  (8) 
7.7958999999999996

>  <smiles>  (8) 
O=C(NO)c1ccc(Cn2c3c(c4ccccc42)C(=O)CCC3)cc1

$$$$
L1:Q9UBN7:133621
     RDKit          3D

 69 73  0  0  0  0  0  0  0  0999 V2000
    0.9620    1.9791    8.3420 C   0  0  2  0  0  0  0  0  0  0  0  0
    0.3940    0.6628    8.2793 O   0  0  0  0  0  0  0  0  0  0  0  0
    2.4638    1.8742    7.9912 C   0  0  0  0  0  0  0  0  0  0  0  0
    2.8773    0.9688    7.2631 O   0  0  0  0  0  0  0  0  0  0  0  0
    3.3124    2.8194    8.4645 O   0  0  0  0  0  0  0  0  0  0  0  0
    2.9352    3.7585    9.4954 C   0  0  0  0  0  0  0  0  0  0  0  0
    1.7021    3.3788   10.2408 C   0  0  0  0  0  0  0  0  0  0  0  0
    0.7869    2.5240    9.7395 C   0  0  0  0  0  0  0  0  0  0  0  0
   -0.3783    2.1520   10.5292 C   0  0  0  0  0  0  0  0  0  0  0  0
   -0.5355    2.6913   11.7417 C   0  0  0  0  0  0  0  0  0  0  0  0
    0.3679    3.6091   12.2439 N   0  0  0  0  0  0  0  0  0  0  0  0
    1.5018    4.0103   11.5843 C   0  0  0  0  0  0  0  0  0  0  0  0
    2.3028    4.8269   12.0260 O   0  0  0  0  0  0  0  0  0  0  0  0
   -0.0471    4.0972   13.5657 C   0  0  0  0  0  0  0  0  0  0  0  0
   -1.2888    3.3036   13.8190 C   0  0  0  0  0  0  0  0  0  0  0  0
   -1.5737    2.4831   12.7423 C   0  0  0  0  0  0  0  0  0  0  0  0
   -2.6126    1.6429   12.6427 N   0  0  0  0  0  0  0  0  0  0  0  0
   -3.4498    1.6085   13.6971 C   0  0  0  0  0  0  0  0  0  0  0  0
   -4.5449    0.7560   13.6381 C   0  0  0  0  0  0  0  0  0  0  0  0
   -5.4740    0.6691   14.6786 C   0  0  0  0  0  0  0  0  0  0  0  0
   -5.3142    1.4513   15.8153 C   0  0  0  0  0  0  0  0  0  0  0  0
   -4.2215    2.3124   15.9106 C   0  0  0  0  0  0  0  0  0  0  0  0
   -3.2758    2.4058   14.8615 C   0  0  0  0  0  0  0  0  0  0  0  0
   -2.1582    3.2714   14.8867 C   0  0  0  0  0  0  0  0  0  0  0  0
    0.9125    0.1754    7.6075 H   0  0  0  0  0  0  0  0  0  0  0  0
   -1.2724    2.8793    7.4076 C   0  0  0  0  0  0  0  0  0  0  0  0
    0.2505    2.8882    7.3149 C   0  0  0  0  0  0  0  0  0  0  0  0
   -1.9213    4.1760   16.0205 C   0  0  0  0  0  0  0  0  0  0  0  0
   -1.1572    3.9252   17.0413 N   0  0  0  0  0  0  0  0  0  0  0  0
   -0.5935    2.6446   16.9319 O   0  0  0  0  0  0  0  0  0  0  0  0
   -0.5210    2.0329   18.2243 C   0  0  0  0  0  0  0  0  0  0  0  0
   -1.8273    1.2973   18.5051 C   0  0  0  0  0  0  0  0  0  0  0  0
   -1.7372   -0.2097   18.2487 C   0  0  0  0  0  0  0  0  0  0  0  0
   -2.5839   -0.6819   17.0653 C   0  0  0  0  0  0  0  0  0  0  0  0
   -1.7199   -0.8604   15.8109 C   0  0  0  0  0  0  0  0  0  0  0  0
   -0.2262   -0.8596   16.1314 C   0  0  0  0  0  0  0  0  0  0  0  0
    0.5951   -0.2652   15.0085 C   0  0  0  0  0  0  0  0  0  0  0  0
    0.7283   -0.7961   13.9074 O   0  0  0  0  0  0  0  0  0  0  0  0
    1.1699    0.9497   15.3081 N   0  0  0  0  0  0  0  0  0  0  0  0
    2.0205    1.4559   14.2902 O   0  0  0  0  0  0  0  0  0  0  0  0
    1.4644    1.1600   16.2579 H   0  0  0  0  0  0  0  0  0  0  0  0
    1.9420    0.7727   13.5850 H   0  0  0  0  0  0  0  0  0  0  0  0
    2.7716    4.7120    9.0382 H   0  0  0  0  0  0  0  0  0  0  0  0
    3.7342    3.7738   10.2070 H   0  0  0  0  0  0  0  0  0  0  0  0
   -1.0713    1.4830   10.1588 H   0  0  0  0  0  0  0  0  0  0  0  0
   -0.2549    5.1466   13.5442 H   0  0  0  0  0  0  0  0  0  0  0  0
    0.7006    3.9786   14.3219 H   0  0  0  0  0  0  0  0  0  0  0  0
   -4.6766    0.1685   12.7999 H   0  0  0  0  0  0  0  0  0  0  0  0
   -6.2769    0.0253   14.6025 H   0  0  0  0  0  0  0  0  0  0  0  0
   -5.9999    1.3955   16.5845 H   0  0  0  0  0  0  0  0  0  0  0  0
   -4.1007    2.8895   16.7576 H   0  0  0  0  0  0  0  0  0  0  0  0
   -1.6788    3.5325    6.6639 H   0  0  0  0  0  0  0  0  0  0  0  0
   -1.5726    3.2138    8.3786 H   0  0  0  0  0  0  0  0  0  0  0  0
   -1.6338    1.8854    7.2452 H   0  0  0  0  0  0  0  0  0  0  0  0
    0.5884    3.8920    7.4670 H   0  0  0  0  0  0  0  0  0  0  0  0
    0.4980    2.5046    6.3472 H   0  0  0  0  0  0  0  0  0  0  0  0
   -2.4030    5.0885   16.0046 H   0  0  0  0  0  0  0  0  0  0  0  0
   -0.3673    2.7861   18.9686 H   0  0  0  0  0  0  0  0  0  0  0  0
    0.2941    1.3401   18.2489 H   0  0  0  0  0  0  0  0  0  0  0  0
   -2.5896    1.7047   17.8744 H   0  0  0  0  0  0  0  0  0  0  0  0
   -2.0511    1.4308   19.5429 H   0  0  0  0  0  0  0  0  0  0  0  0
   -2.0683   -0.7226   19.1274 H   0  0  0  0  0  0  0  0  0  0  0  0
   -0.7169   -0.4268   18.0106 H   0  0  0  0  0  0  0  0  0  0  0  0
   -3.3442    0.0443   16.8666 H   0  0  0  0  0  0  0  0  0  0  0  0
   -3.0238   -1.6249   17.3144 H   0  0  0  0  0  0  0  0  0  0  0  0
   -1.9270   -0.0585   15.1334 H   0  0  0  0  0  0  0  0  0  0  0  0
   -1.9617   -1.8090   15.3789 H   0  0  0  0  0  0  0  0  0  0  0  0
    0.0922   -1.8678   16.2957 H   0  0  0  0  0  0  0  0  0  0  0  0
   -0.0762   -0.2587   17.0039 H   0  0  0  0  0  0  0  0  0  0  0  0
  1  2  1  1
  1  3  1  0
  2 25  1  0
  3  4  2  0
  3  5  1  0
  5  6  1  0
  6  7  1  0
  6 43  1  0
  6 44  1  0
  7  8  2  0
  8  9  1  0
  8  1  1  0
  9 10  2  0
  9 45  1  0
 10 11  1  0
 11 12  1  0
 11 14  1  0
 12 13  2  0
 12  7  1  0
 14 15  1  0
 14 46  1  0
 14 47  1  0
 15 16  2  0
 16 17  1  0
 16 10  1  0
 17 18  2  0
 18 19  1  0
 19 20  2  0
 19 48  1  0
 20 21  1  0
 20 49  1  0
 21 22  2  0
 21 50  1  0
 22 23  1  0
 22 51  1  0
 23 24  2  0
 23 18  1  0
 24 28  1  0
 24 15  1  0
 26 27  1  0
 26 52  1  0
 26 53  1  0
 26 54  1  0
 27  1  1  0
 27 55  1  0
 27 56  1  0
 28 29  2  0
 28 57  1  0
 29 30  1  0
 30 31  1  0
 31 32  1  0
 31 58  1  0
 31 59  1  0
 32 33  1  0
 32 60  1  0
 32 61  1  0
 33 34  1  0
 33 62  1  0
 33 63  1  0
 34 35  1  0
 34 64  1  0
 34 65  1  0
 35 36  1  0
 35 66  1  0
 35 67  1  0
 36 37  1  0
 36 68  1  0
 36 69  1  0
 37 38  2  0
 37 39  1  0
 39 40  1  0
 39 41  1  0
 40 42  1  0
M  END
>  <minimizedAffinity>  (9) 
-6.59647

>  <mol_id>  (9) 
133621

>  <source_index>  (9) 
8

>  <layer>  (9) 
L1

>  <uniprot>  (9) 
Q9UBN7

>  <paff>  (9) 
8.2840000000000007

>  <smiles>  (9) 
CC[C@@]1(O)C(=O)OCc2c1cc1n(c2=O)Cc2c-1nc1ccccc1c2/C=NOCCCCCCC(=O)NO

$$$$
L1:Q9UBN7:143030
     RDKit          3D

 41 43  0  0  0  0  0  0  0  0999 V2000
   -0.8080    2.3893   11.5352 N   0  0  0  0  0  0  0  0  0  0  0  0
   -1.0474    1.7853   10.3300 C   0  0  0  0  0  0  0  0  0  0  0  0
   -0.0090    2.1783    9.5343 C   0  0  0  0  0  0  0  0  0  0  0  0
    0.1756    1.8045    8.2105 C   0  0  0  0  0  0  0  0  0  0  0  0
    1.3465    2.3895    7.6820 C   0  0  0  0  0  0  0  0  0  0  0  0
    2.2242    3.2491    8.4335 C   0  0  0  0  0  0  0  0  0  0  0  0
    1.9870    3.6177    9.7805 C   0  0  0  0  0  0  0  0  0  0  0  0
    0.8294    3.0436   10.3249 C   0  0  0  0  0  0  0  0  0  0  0  0
    0.3069    3.1585   11.5567 N   0  0  0  0  0  0  0  0  0  0  0  0
    3.4426    3.8174    7.7941 C   0  0  0  0  0  0  0  0  0  0  0  0
    3.3683    4.5589    6.8179 O   0  0  0  0  0  0  0  0  0  0  0  0
    4.6495    3.5157    8.3898 N   0  0  0  0  0  0  0  0  0  0  0  0
    5.7510    4.2511    7.8835 O   0  0  0  0  0  0  0  0  0  0  0  0
    4.7064    3.2677    9.3719 H   0  0  0  0  0  0  0  0  0  0  0  0
    5.3394    4.7675    7.1546 H   0  0  0  0  0  0  0  0  0  0  0  0
   -1.6419    2.2934   12.7276 C   0  0  0  0  0  0  0  0  0  0  0  0
    0.8710    0.3528   14.8459 C   0  0  0  0  0  0  0  0  0  0  0  0
    0.3253    1.2415   13.9166 C   0  0  0  0  0  0  0  0  0  0  0  0
   -1.0616    1.3306   13.7334 C   0  0  0  0  0  0  0  0  0  0  0  0
   -1.9033    0.5077   14.5002 C   0  0  0  0  0  0  0  0  0  0  0  0
   -1.3676   -0.3799   15.4342 C   0  0  0  0  0  0  0  0  0  0  0  0
    0.0198   -0.4544   15.6004 C   0  0  0  0  0  0  0  0  0  0  0  0
    2.8684    1.6371   14.7500 C   0  0  0  0  0  0  0  0  0  0  0  0
    2.2370    0.3733   14.9185 O   0  0  0  0  0  0  0  0  0  0  0  0
   -2.0834   -1.2238   16.2400 O   0  0  0  0  0  0  0  0  0  0  0  0
   -3.3220   -0.7363   16.7429 C   0  0  0  0  0  0  0  0  0  0  0  0
   -1.8368    1.1700   10.0786 H   0  0  0  0  0  0  0  0  0  0  0  0
   -0.4577    1.1828    7.6837 H   0  0  0  0  0  0  0  0  0  0  0  0
    1.5879    2.1893    6.6988 H   0  0  0  0  0  0  0  0  0  0  0  0
    2.6075    4.2491   10.3110 H   0  0  0  0  0  0  0  0  0  0  0  0
   -1.7181    3.2614   13.1771 H   0  0  0  0  0  0  0  0  0  0  0  0
   -2.6054    1.9319   12.4347 H   0  0  0  0  0  0  0  0  0  0  0  0
    0.9520    1.8409   13.3571 H   0  0  0  0  0  0  0  0  0  0  0  0
   -2.9259    0.5601   14.3717 H   0  0  0  0  0  0  0  0  0  0  0  0
    0.4172   -1.1132   16.2882 H   0  0  0  0  0  0  0  0  0  0  0  0
    3.9290    1.5191   14.8279 H   0  0  0  0  0  0  0  0  0  0  0  0
    2.5277    2.3100   15.5089 H   0  0  0  0  0  0  0  0  0  0  0  0
    2.6234    2.0326   13.7864 H   0  0  0  0  0  0  0  0  0  0  0  0
   -3.7789   -1.4864   17.3540 H   0  0  0  0  0  0  0  0  0  0  0  0
   -3.9702   -0.4988   15.9254 H   0  0  0  0  0  0  0  0  0  0  0  0
   -3.1483    0.1429   17.3275 H   0  0  0  0  0  0  0  0  0  0  0  0
  1  2  1  0
  2  3  2  0
  2 27  1  0
  3  4  1  0
  4  5  2  0
  4 28  1  0
  5  6  1  0
  5 29  1  0
  6 10  1  0
  6  7  2  0
  7  8  1  0
  7 30  1  0
  8  9  2  0
  8  3  1  0
  9  1  1  0
 10 11  2  0
 10 12  1  0
 12 13  1  0
 12 14  1  0
 13 15  1  0
 16  1  1  0
 16 31  1  0
 16 32  1  0
 17 18  2  0
 18 19  1  0
 18 33  1  0
 19 16  1  0
 19 20  2  0
 20 21  1  0
 20 34  1  0
 21 25  1  0
 21 22  2  0
 22 17  1  0
 22 35  1  0
 23 24  1  0
 23 36  1  0
 23 37  1  0
 23 38  1  0
 24 17  1  0
 25 26  1  0
 26 39  1  0
 26 40  1  0
 26 41  1  0
M  END
>  <minimizedAffinity>  (10) 
-7.77934

>  <mol_id>  (10) 
143030

>  <source_index>  (10) 
9

>  <layer>  (10) 
L1

>  <uniprot>  (10) 
Q9UBN7

>  <paff>  (10) 
8.4201999999999995

>  <smiles>  (10) 
COc1cc(Cn2cc3ccc(C(=O)NO)cc3n2)cc(OC)c1

$$$$
