L2:O14757:10681


 35 39  0  0  0  0  0  0  0  0999 V2000
   15.4830   -1.4513   10.5142 C   0  0  0  0  0  0  0  0  0  0  0  0
   14.4148   -0.7405    9.9689 C   0  0  0  0  0  0  0  0  0  0  0  0
   13.1594   -0.7374   10.4923 N   0  0  0  0  0  0  0  0  0  0  0  0
   12.9631   -1.4872   11.5976 C   0  0  0  0  0  0  0  0  0  0  0  0
   11.6977   -1.4211   12.1326 N   0  0  0  0  0  0  0  0  0  0  0  0
   14.0299   -2.2056   12.1545 C   0  0  0  0  0  0  0  0  0  0  0  0
   15.3003   -2.1940   11.6352 N   0  0  0  0  0  0  0  0  0  0  0  0
   11.4201   -2.1196   12.8177 H   0  0  0  0  0  0  0  0  0  0  0  0
   11.0093   -0.8878   11.6243 H   0  0  0  0  0  0  0  0  0  0  0  0
   19.2110   -2.1250   10.1295 C   0  0  0  0  0  0  0  0  0  0  0  0
   19.4847   -1.4722    8.9237 C   0  0  0  0  0  0  0  0  0  0  0  0
   18.4660   -0.8104    8.2401 C   0  0  0  0  0  0  0  0  0  0  0  0
   17.1712   -0.8014    8.7574 C   0  0  0  0  0  0  0  0  0  0  0  0
   16.2248   -0.1654    8.0504 F   0  0  0  0  0  0  0  0  0  0  0  0
   16.8481   -1.4432    9.9609 C   0  0  0  0  0  0  0  0  0  0  0  0
   17.8975   -2.1078   10.6306 C   0  0  0  0  0  0  0  0  0  0  0  0
   21.7834   -5.5994   12.5615 C   0  0  0  0  0  0  0  0  0  0  0  0
   21.3842   -4.3687   11.9238 N   0  0  0  0  0  0  0  0  0  0  0  0
   20.1781   -4.0974   11.3461 C   0  0  0  0  0  0  0  0  0  0  0  0
   20.2692   -2.8174   10.8402 C   0  0  0  0  0  0  0  0  0  0  0  0
   21.5717   -2.4008   11.1999 C   0  0  0  0  0  0  0  0  0  0  0  0
   22.2512   -3.3424   11.8609 N   0  0  0  0  0  0  0  0  0  0  0  0
   13.8358   -3.0803   13.3588 C   0  0  0  0  0  0  0  0  0  0  0  0
   13.1927   -2.7194   14.3399 O   0  0  0  0  0  0  0  0  0  0  0  0
   14.4254   -4.3221   13.2615 N   0  0  0  0  0  0  0  0  0  0  0  0
   14.9607   -4.5329   12.4208 H   0  0  0  0  0  0  0  0  0  0  0  0
   14.3839   -5.3315   14.3147 C   0  0  0  0  0  0  0  0  0  0  0  0
   15.5146   -5.0917   15.3352 C   0  0  0  0  0  0  0  0  0  0  0  0
   16.6676   -6.0919   15.2009 C   0  0  0  0  0  0  0  0  0  0  0  0
   16.9235   -6.4329   13.7486 C   0  0  0  0  0  0  0  0  0  0  0  0
   18.2849   -6.9688   13.3706 C   0  0  0  0  0  0  0  0  0  0  0  0
   17.9067   -5.5684   12.9951 C   0  0  0  0  0  0  0  0  0  0  0  0
   15.7585   -6.9221   12.9769 N   0  0  0  0  0  0  0  0  0  0  0  0
   14.4823   -6.7378   13.6896 C   0  0  0  0  0  0  0  0  0  0  0  0
   15.8632   -7.9090   12.7402 H   0  0  0  0  0  0  0  0  0  0  0  0
 17 18  1  0  0  0
 18 19  1  0  0  0
 19 20  2  0  0  0
 20 10  1  0  0  0
 10 11  2  0  0  0
 11 12  1  0  0  0
 12 13  2  0  0  0
 13 14  1  0  0  0
 13 15  1  0  0  0
 15  1  1  0  0  0
  1  2  2  0  0  0
  2  3  1  0  0  0
  3  4  2  0  0  0
  4  5  1  0  0  0
  4  6  1  0  0  0
  6 23  1  0  0  0
 23 24  2  0  0  0
 23 25  1  0  0  0
 25 27  1  0  0  0
 27 28  1  0  0  0
 28 29  1  0  0  0
 29 30  1  0  0  0
 30 31  1  0  0  0
 31 32  1  0  0  0
 30 33  1  0  0  0
 33 34  1  0  0  0
  6  7  2  0  0  0
 15 16  2  0  0  0
 20 21  1  0  0  0
 21 22  2  0  0  0
 22 18  1  0  0  0
 16 10  1  0  0  0
  7  1  1  0  0  0
 34 27  1  0  0  0
 32 30  1  0  0  0
  5  8  1  0  0  0
  5  9  1  0  0  0
 25 26  1  0  0  0
 33 35  1  0  0  0
M  END
> <minimizedAffinity>
-9.27592

$$$$
