L2:O14757:111705
 OpenBabel09212617453D

 50 53  0  0  0  0  0  0  0  0999 V2000
   14.3991   -5.3029   14.6373 N   0  0  0  0  0  0  0  0  0  0  0  0
   14.6978   -5.2871   15.9847 C   0  0  0  0  0  0  0  0  0  0  0  0
   14.0429   -6.2048   16.6603 N   0  0  0  0  0  0  0  0  0  0  0  0
   13.2802   -6.8472   15.7364 C   0  0  0  0  0  0  0  0  0  0  0  0
   13.4528   -6.2974   14.4918 C   0  0  0  0  0  0  0  0  0  0  0  0
   12.6762   -3.2579   13.1320 C   0  0  0  0  0  0  0  0  0  0  0  0
   14.1624   -3.4460   12.9829 C   0  0  0  0  0  0  0  0  0  0  0  0
   14.8133   -2.5822   12.0668 C   0  0  0  0  0  0  0  0  0  0  0  0
   16.1737   -2.6865   11.7402 C   0  0  0  0  0  0  0  0  0  0  0  0
   16.8903   -3.6946   12.3888 C   0  0  0  0  0  0  0  0  0  0  0  0
   16.2871   -4.5521   13.3173 C   0  0  0  0  0  0  0  0  0  0  0  0
   14.9267   -4.4273   13.6420 C   0  0  0  0  0  0  0  0  0  0  0  0
   16.7977   -1.8320   10.8382 N   0  0  0  0  0  0  0  0  0  0  0  0
   18.2006   -1.4496   11.0916 C   0  0  0  0  0  0  0  0  0  0  0  0
   18.5944   -0.1723   10.3120 C   0  0  0  0  0  0  0  0  0  0  0  0
   18.2668   -0.1700    8.8707 N   0  0  0  0  0  0  0  0  0  0  0  0
   19.1248   -1.0834    8.1201 C   0  0  0  0  0  0  0  0  0  0  0  0
   16.8367   -0.5115    8.7176 C   0  0  0  0  0  0  0  0  0  0  0  0
   16.3775   -1.8071    9.4268 C   0  0  0  0  0  0  0  0  0  0  0  0
   12.4680   -7.8247   16.1572 N   0  0  0  0  0  0  0  0  0  0  0  0
   12.9038   -8.7317   16.2956 H   0  0  0  0  0  0  0  0  0  0  0  0
   11.1222   -7.9245   16.4867 C   0  0  0  0  0  0  0  0  0  0  0  0
   10.0905   -8.2051   15.5919 C   0  0  0  0  0  0  0  0  0  0  0  0
    8.7764   -8.2947   15.9409 N   0  0  0  0  0  0  0  0  0  0  0  0
    8.5154   -8.0969   17.2539 C   0  0  0  0  0  0  0  0  0  0  0  0
    9.5239   -7.8300   18.1610 C   0  0  0  0  0  0  0  0  0  0  0  0
   10.8303   -7.7434   17.7982 N   0  0  0  0  0  0  0  0  0  0  0  0
    7.1488   -8.1796   17.6718 C   0  0  0  0  0  0  0  0  0  0  0  0
    6.0324   -8.2763   17.9796 N   0  0  0  0  0  0  0  0  0  0  0  0
   15.3634   -4.6262   16.4151 H   0  0  0  0  0  0  0  0  0  0  0  0
   12.9717   -6.5721   13.6211 H   0  0  0  0  0  0  0  0  0  0  0  0
   12.3567   -2.4415   12.5186 H   0  0  0  0  0  0  0  0  0  0  0  0
   12.4442   -3.0474   14.1551 H   0  0  0  0  0  0  0  0  0  0  0  0
   12.1714   -4.1511   12.8283 H   0  0  0  0  0  0  0  0  0  0  0  0
   14.2577   -1.8380   11.6167 H   0  0  0  0  0  0  0  0  0  0  0  0
   17.8937   -3.8110   12.1777 H   0  0  0  0  0  0  0  0  0  0  0  0
   16.8516   -5.2877   13.7703 H   0  0  0  0  0  0  0  0  0  0  0  0
   18.8393   -2.2524   10.7875 H   0  0  0  0  0  0  0  0  0  0  0  0
   18.3085   -1.2493   12.1371 H   0  0  0  0  0  0  0  0  0  0  0  0
   19.6521   -0.0423   10.4082 H   0  0  0  0  0  0  0  0  0  0  0  0
   18.0170    0.6193   10.7419 H   0  0  0  0  0  0  0  0  0  0  0  0
   20.1486   -0.8038    8.2561 H   0  0  0  0  0  0  0  0  0  0  0  0
   18.8764   -1.0329    7.0806 H   0  0  0  0  0  0  0  0  0  0  0  0
   18.9779   -2.0825    8.4738 H   0  0  0  0  0  0  0  0  0  0  0  0
   16.6344   -0.6193    7.6724 H   0  0  0  0  0  0  0  0  0  0  0  0
   16.2949    0.2845    9.1843 H   0  0  0  0  0  0  0  0  0  0  0  0
   16.8046   -2.6487    8.9227 H   0  0  0  0  0  0  0  0  0  0  0  0
   15.3086   -1.8443    9.3956 H   0  0  0  0  0  0  0  0  0  0  0  0
   10.3381   -8.3546   14.6013 H   0  0  0  0  0  0  0  0  0  0  0  0
    9.2746   -7.6911   19.1528 H   0  0  0  0  0  0  0  0  0  0  0  0
  1  2  1  0  0  0  0
  2  3  2  0  0  0  0
  2 30  1  0  0  0  0
  3  4  1  0  0  0  0
  4 20  1  0  0  0  0
  4  5  2  0  0  0  0
  5  1  1  0  0  0  0
  5 31  1  0  0  0  0
  6  7  1  0  0  0  0
  6 32  1  0  0  0  0
  6 33  1  0  0  0  0
  6 34  1  0  0  0  0
  7  8  2  0  0  0  0
  8  9  1  0  0  0  0
  8 35  1  0  0  0  0
  9 13  1  0  0  0  0
  9 10  2  0  0  0  0
 10 11  1  0  0  0  0
 10 36  1  0  0  0  0
 11 12  2  0  0  0  0
 11 37  1  0  0  0  0
 12  1  1  0  0  0  0
 12  7  1  0  0  0  0
 13 14  1  0  0  0  0
 14 15  1  0  0  0  0
 14 38  1  0  0  0  0
 14 39  1  0  0  0  0
 15 16  1  0  0  0  0
 15 40  1  0  0  0  0
 15 41  1  0  0  0  0
 16 17  1  0  0  0  0
 16 18  1  0  0  0  0
 17 42  1  0  0  0  0
 17 43  1  0  0  0  0
 17 44  1  0  0  0  0
 18 19  1  0  0  0  0
 18 45  1  0  0  0  0
 18 46  1  0  0  0  0
 19 13  1  0  0  0  0
 19 47  1  0  0  0  0
 19 48  1  0  0  0  0
 20 22  1  0  0  0  0
 20 21  1  0  0  0  0
 22 23  2  0  0  0  0
 23 24  1  0  0  0  0
 23 49  1  0  0  0  0
 24 25  2  0  0  0  0
 25 28  1  0  0  0  0
 25 26  1  0  0  0  0
 26 27  2  0  0  0  0
 26 50  1  0  0  0  0
 27 22  1  0  0  0  0
 28 29  3  0  0  0  0
M  END
>  <minimizedAffinity>
-7.55830

$$$$
