L2:O14757:111705
     RDKit          3D

 50 53  0  0  0  0  0  0  0  0999 V2000
    0.9230    1.1170    1.0616 C   0  0  0  0  0  0  0  0  0  0  0  0
    0.0607    0.0696    0.4091 C   0  0  0  0  0  0  0  0  0  0  0  0
   -1.3394    0.2776    0.4825 C   0  0  0  0  0  0  0  0  0  0  0  0
   -2.2833   -0.6467    0.0104 C   0  0  0  0  0  0  0  0  0  0  0  0
   -3.6541   -0.4286    0.0908 N   0  0  0  0  0  0  0  0  0  0  0  0
   -4.5041   -1.5065    0.6333 C   0  0  0  0  0  0  0  0  0  0  0  0
   -5.9868   -1.3222    0.2309 C   0  0  0  0  0  0  0  0  0  0  0  0
   -6.5598    0.0179    0.4770 N   0  0  0  0  0  0  0  0  0  0  0  0
   -6.7511    0.2702    1.9030 C   0  0  0  0  0  0  0  0  0  0  0  0
   -5.6729    1.0247   -0.1434 C   0  0  0  0  0  0  0  0  0  0  0  0
   -4.1802    0.9375    0.2526 C   0  0  0  0  0  0  0  0  0  0  0  0
   -1.7734   -1.8091   -0.5720 C   0  0  0  0  0  0  0  0  0  0  0  0
   -0.3965   -2.0392   -0.6835 C   0  0  0  0  0  0  0  0  0  0  0  0
    0.5357   -1.0987   -0.2163 C   0  0  0  0  0  0  0  0  0  0  0  0
    1.9199   -1.3811   -0.4156 N   0  0  0  0  0  0  0  0  0  0  0  0
    2.4908   -2.6306   -0.5487 C   0  0  0  0  0  0  0  0  0  0  0  0
    3.7901   -2.5770   -0.7398 N   0  0  0  0  0  0  0  0  0  0  0  0
    4.0931   -1.2517   -0.7403 C   0  0  0  0  0  0  0  0  0  0  0  0
    5.3655   -0.8948   -0.9544 N   0  0  0  0  0  0  0  0  0  0  0  0
    6.0859    0.2919   -0.9034 C   0  0  0  0  0  0  0  0  0  0  0  0
    5.6015    1.5109   -0.4312 C   0  0  0  0  0  0  0  0  0  0  0  0
    6.3290    2.6625   -0.3947 N   0  0  0  0  0  0  0  0  0  0  0  0
    7.5983    2.5554   -0.8514 C   0  0  0  0  0  0  0  0  0  0  0  0
    8.4044    3.7382   -0.8348 C   0  0  0  0  0  0  0  0  0  0  0  0
    9.0917    4.6752   -0.8382 N   0  0  0  0  0  0  0  0  0  0  0  0
    8.1037    1.3541   -1.3124 C   0  0  0  0  0  0  0  0  0  0  0  0
    7.3660    0.2136   -1.3431 N   0  0  0  0  0  0  0  0  0  0  0  0
    2.9636   -0.4916   -0.5748 C   0  0  0  0  0  0  0  0  0  0  0  0
    1.7753    0.6668    1.5789 H   0  0  0  0  0  0  0  0  0  0  0  0
    0.3653    1.6632    1.8314 H   0  0  0  0  0  0  0  0  0  0  0  0
    1.2649    1.8465    0.3218 H   0  0  0  0  0  0  0  0  0  0  0  0
   -1.6909    1.1863    0.9670 H   0  0  0  0  0  0  0  0  0  0  0  0
   -4.1935   -2.4952    0.2798 H   0  0  0  0  0  0  0  0  0  0  0  0
   -4.4112   -1.5156    1.7263 H   0  0  0  0  0  0  0  0  0  0  0  0
   -6.5971   -2.0863    0.7283 H   0  0  0  0  0  0  0  0  0  0  0  0
   -6.0780   -1.5289   -0.8440 H   0  0  0  0  0  0  0  0  0  0  0  0
   -7.2094    1.2536    2.0562 H   0  0  0  0  0  0  0  0  0  0  0  0
   -5.8224    0.2354    2.4812 H   0  0  0  0  0  0  0  0  0  0  0  0
   -7.4432   -0.4649    2.3287 H   0  0  0  0  0  0  0  0  0  0  0  0
   -6.0480    2.0340    0.0671 H   0  0  0  0  0  0  0  0  0  0  0  0
   -5.7474    0.9059   -1.2328 H   0  0  0  0  0  0  0  0  0  0  0  0
   -4.0527    1.2624    1.2923 H   0  0  0  0  0  0  0  0  0  0  0  0
   -3.6299    1.6370   -0.3891 H   0  0  0  0  0  0  0  0  0  0  0  0
   -2.4481   -2.5446   -1.0031 H   0  0  0  0  0  0  0  0  0  0  0  0
   -0.0913   -2.9465   -1.1995 H   0  0  0  0  0  0  0  0  0  0  0  0
    1.9235   -3.5477   -0.4671 H   0  0  0  0  0  0  0  0  0  0  0  0
    5.9917   -1.6423   -1.2387 H   0  0  0  0  0  0  0  0  0  0  0  0
    4.6024    1.6149   -0.0311 H   0  0  0  0  0  0  0  0  0  0  0  0
    9.1218    1.2588   -1.6763 H   0  0  0  0  0  0  0  0  0  0  0  0
    2.7969    0.5686   -0.6306 H   0  0  0  0  0  0  0  0  0  0  0  0
  1  2  1  0
  2  3  2  0
  3  4  1  0
  4  5  1  0
  5  6  1  0
  6  7  1  0
  7  8  1  0
  8  9  1  0
  8 10  1  0
 10 11  1  0
  4 12  2  0
 12 13  1  0
 13 14  2  0
 14 15  1  0
 15 16  1  0
 16 17  2  0
 17 18  1  0
 18 19  1  0
 19 20  1  0
 20 21  2  0
 21 22  1  0
 22 23  2  0
 23 24  1  0
 24 25  3  0
 23 26  1  0
 26 27  2  0
 18 28  2  0
 14  2  1  0
 28 15  1  0
 11  5  1  0
 27 20  1  0
  1 29  1  0
  1 30  1  0
  1 31  1  0
  3 32  1  0
  6 33  1  0
  6 34  1  0
  7 35  1  0
  7 36  1  0
  9 37  1  0
  9 38  1  0
  9 39  1  0
 10 40  1  0
 10 41  1  0
 11 42  1  0
 11 43  1  0
 12 44  1  0
 13 45  1  0
 16 46  1  0
 19 47  1  0
 21 48  1  0
 26 49  1  0
 28 50  1  0
M  END
>  <mol_id>  (1) 
111705

>  <source_index>  (1) 
7

>  <layer>  (1) 
L2

>  <uniprot>  (1) 
O14757

>  <paff>  (1) 
6.3334999999999999

>  <smiles>  (1) 
Cc1cc(N2CCN(C)CC2)ccc1-n1cnc(Nc2cnc(C#N)cn2)c1

$$$$
