L2:O14757:124280


 34 38  0  0  0  0  0  0  0  0999 V2000
   16.1150   -2.2855   11.7001 C   0  0  0  0  0  0  0  0  0  0  0  0
   15.1199   -1.6700   10.9007 C   0  0  0  0  0  0  0  0  0  0  0  0
   15.4815   -1.2618    9.6279 C   0  0  0  0  0  0  0  0  0  0  0  0
   16.7120   -1.4242    9.1016 N   0  0  0  0  0  0  0  0  0  0  0  0
   17.6441   -2.0100    9.8680 C   0  0  0  0  0  0  0  0  0  0  0  0
   18.9092   -2.1798    9.3281 C   0  0  0  0  0  0  0  0  0  0  0  0
   19.9281   -2.7854   10.0532 C   0  0  0  0  0  0  0  0  0  0  0  0
   19.6359   -3.2101   11.3282 C   0  0  0  0  0  0  0  0  0  0  0  0
   18.4217   -3.0626   11.8966 N   0  0  0  0  0  0  0  0  0  0  0  0
   17.4215   -2.4682   11.1854 C   0  0  0  0  0  0  0  0  0  0  0  0
   15.4612   -3.7526   15.0503 C   0  0  0  0  0  0  0  0  0  0  0  0
   15.9983   -3.9219   13.7502 C   0  0  0  0  0  0  0  0  0  0  0  0
   15.7927   -2.7303   13.0781 C   0  0  0  0  0  0  0  0  0  0  0  0
   15.1598   -1.9446   14.0060 N   0  0  0  0  0  0  0  0  0  0  0  0
   14.9837   -2.5178   15.2019 N   0  0  0  0  0  0  0  0  0  0  0  0
   14.8548   -0.9859   13.8826 H   0  0  0  0  0  0  0  0  0  0  0  0
   15.5158   -4.7402   15.9706 N   0  0  0  0  0  0  0  0  0  0  0  0
   16.4137   -4.9637   16.3762 H   0  0  0  0  0  0  0  0  0  0  0  0
   12.6113   -7.5604   16.7711 C   0  0  0  0  0  0  0  0  0  0  0  0
   13.3383   -6.9885   17.7995 C   0  0  0  0  0  0  0  0  0  0  0  0
   14.2928   -6.0491   17.5844 N   0  0  0  0  0  0  0  0  0  0  0  0
   14.5270   -5.6842   16.3031 C   0  0  0  0  0  0  0  0  0  0  0  0
   13.7828   -6.2837   15.2789 C   0  0  0  0  0  0  0  0  0  0  0  0
   12.8124   -7.2161   15.4765 N   0  0  0  0  0  0  0  0  0  0  0  0
   10.8205   -9.3741   17.2502 N   0  0  0  0  0  0  0  0  0  0  0  0
   11.6075   -8.5455   17.0386 C   0  0  0  0  0  0  0  0  0  0  0  0
   13.8691   -1.5335   11.4432 O   0  0  0  0  0  0  0  0  0  0  0  0
   12.7054   -1.9189   10.6979 C   0  0  0  0  0  0  0  0  0  0  0  0
   11.7377   -2.7265   11.5604 C   0  0  0  0  0  0  0  0  0  0  0  0
   10.8904   -3.4291   10.7676 F   0  0  0  0  0  0  0  0  0  0  0  0
   11.0850   -1.9594   12.7338 C   0  0  0  0  0  0  0  0  0  0  0  0
   12.0993   -2.5085   13.6567 N   0  0  0  0  0  0  0  0  0  0  0  0
   12.4269   -3.5549   12.6702 C   0  0  0  0  0  0  0  0  0  0  0  0
   12.8632   -1.8632   13.8625 H   0  0  0  0  0  0  0  0  0  0  0  0
 25 26  3  0  0  0
 26 19  1  0  0  0
 19 20  2  0  0  0
 20 21  1  0  0  0
 21 22  2  0  0  0
 22 17  1  0  0  0
 17 11  1  0  0  0
 11 12  1  0  0  0
 12 13  2  0  0  0
 13  1  1  0  0  0
  1  2  1  0  0  0
  2 27  1  0  0  0
 27 28  1  0  0  0
 28 29  1  0  0  0
 29 30  1  0  0  0
 29 31  1  0  0  0
 31 32  1  0  0  0
 32 33  1  0  0  0
  2  3  2  0  0  0
  3  4  1  0  0  0
  4  5  2  0  0  0
  5  6  1  0  0  0
  6  7  2  0  0  0
  7  8  1  0  0  0
  8  9  2  0  0  0
  9 10  1  0  0  0
 13 14  1  0  0  0
 14 15  1  0  0  0
 22 23  1  0  0  0
 23 24  2  0  0  0
 24 19  1  0  0  0
 15 11  2  0  0  0
 10  1  2  0  0  0
 33 29  1  0  0  0
 10  5  1  0  0  0
 17 18  1  0  0  0
 32 34  1  0  0  0
 14 16  1  0  0  0
M  END
> <minimizedAffinity>
-8.31980

$$$$
