L2:O14757:126650
     RDKit          3D

 44 47  0  0  0  0  0  0  0  0999 V2000
   -3.3048    2.9182    2.6317 N   0  0  0  0  0  0  0  0  0  0  0  0
   -2.6034    2.2588    1.9775 C   0  0  0  0  0  0  0  0  0  0  0  0
   -1.7530    1.4339    1.1629 C   0  0  0  0  0  0  0  0  0  0  0  0
   -0.4364    1.5699    1.4887 N   0  0  0  0  0  0  0  0  0  0  0  0
    0.4603    0.8254    0.7993 C   0  0  0  0  0  0  0  0  0  0  0  0
    0.1318   -0.0625   -0.2138 C   0  0  0  0  0  0  0  0  0  0  0  0
    1.0447   -0.8317   -0.9368 N   0  0  0  0  0  0  0  0  0  0  0  0
    2.4287   -0.9580   -0.8920 C   0  0  0  0  0  0  0  0  0  0  0  0
    2.9503   -1.8287   -1.7753 N   0  0  0  0  0  0  0  0  0  0  0  0
    4.2911   -1.9851   -1.7751 C   0  0  0  0  0  0  0  0  0  0  0  0
    5.1281   -1.2962   -0.9325 C   0  0  0  0  0  0  0  0  0  0  0  0
    4.5088   -0.4349   -0.0514 C   0  0  0  0  0  0  0  0  0  0  0  0
    3.1709   -0.2588   -0.0183 N   0  0  0  0  0  0  0  0  0  0  0  0
    5.3429    0.2514    0.9938 C   0  0  0  0  0  0  0  0  0  0  0  0
    6.7444    0.5380    0.4769 C   0  0  0  0  0  0  0  0  0  0  0  0
    7.3635   -0.6670   -0.2011 C   0  0  0  0  0  0  0  0  0  0  0  0
    8.5715   -0.8851   -0.1874 O   0  0  0  0  0  0  0  0  0  0  0  0
    6.5155   -1.4591   -0.9321 N   0  0  0  0  0  0  0  0  0  0  0  0
   -1.2366   -0.1656   -0.5092 C   0  0  0  0  0  0  0  0  0  0  0  0
   -2.2331    0.5664    0.1710 C   0  0  0  0  0  0  0  0  0  0  0  0
   -3.5315    0.3840   -0.2670 N   0  0  0  0  0  0  0  0  0  0  0  0
   -4.7556    1.0586    0.1680 C   0  0  2  0  0  0  0  0  0  0  0  0
   -5.3477    0.3471    1.3807 C   0  0  0  0  0  0  0  0  0  0  0  0
   -6.3252   -0.6812    0.8107 C   0  0  0  0  0  0  0  0  0  0  0  0
   -6.2858   -0.5371   -0.6482 N   0  0  0  0  0  0  0  0  0  0  0  0
   -5.8581    0.8482   -0.8826 C   0  0  0  0  0  0  0  0  0  0  0  0
    1.4866    0.9864    1.1123 H   0  0  0  0  0  0  0  0  0  0  0  0
    0.6802   -1.4423   -1.6537 H   0  0  0  0  0  0  0  0  0  0  0  0
    4.6685   -2.6970   -2.5022 H   0  0  0  0  0  0  0  0  0  0  0  0
    5.3953   -0.4057    1.8705 H   0  0  0  0  0  0  0  0  0  0  0  0
    4.8636    1.1857    1.3066 H   0  0  0  0  0  0  0  0  0  0  0  0
    7.3892    0.8534    1.3039 H   0  0  0  0  0  0  0  0  0  0  0  0
    6.7197    1.3486   -0.2618 H   0  0  0  0  0  0  0  0  0  0  0  0
    6.9547   -2.1853   -1.4854 H   0  0  0  0  0  0  0  0  0  0  0  0
   -1.5449   -0.8404   -1.3064 H   0  0  0  0  0  0  0  0  0  0  0  0
   -3.7255   -0.4433   -0.8309 H   0  0  0  0  0  0  0  0  0  0  0  0
   -4.5954    2.1295    0.3126 H   0  0  0  0  0  0  0  0  0  0  0  0
   -4.5916   -0.1268    2.0153 H   0  0  0  0  0  0  0  0  0  0  0  0
   -5.9013    1.0666    1.9961 H   0  0  0  0  0  0  0  0  0  0  0  0
   -6.0449   -1.7000    1.0955 H   0  0  0  0  0  0  0  0  0  0  0  0
   -7.3360   -0.4905    1.1889 H   0  0  0  0  0  0  0  0  0  0  0  0
   -7.2076   -0.7032   -1.0504 H   0  0  0  0  0  0  0  0  0  0  0  0
   -5.4971    0.9790   -1.9074 H   0  0  0  0  0  0  0  0  0  0  0  0
   -6.6946    1.5362   -0.7106 H   0  0  0  0  0  0  0  0  0  0  0  0
  1  2  3  0
  2  3  1  0
  3  4  2  0
  4  5  1  0
  5  6  2  0
  6  7  1  0
  7  8  1  0
  8  9  2  0
  9 10  1  0
 10 11  2  0
 11 12  1  0
 12 13  2  0
 12 14  1  0
 14 15  1  0
 15 16  1  0
 16 17  2  0
 16 18  1  0
  6 19  1  0
 19 20  2  0
 20 21  1  0
 21 22  1  0
 22 23  1  0
 23 24  1  0
 24 25  1  0
 25 26  1  0
 20  3  1  0
 26 22  1  0
 13  8  1  0
 18 11  1  0
  5 27  1  0
  7 28  1  0
 10 29  1  0
 14 30  1  0
 14 31  1  0
 15 32  1  0
 15 33  1  0
 18 34  1  0
 19 35  1  0
 21 36  1  0
 22 37  1  1
 23 38  1  0
 23 39  1  0
 24 40  1  0
 24 41  1  0
 25 42  1  0
 26 43  1  0
 26 44  1  0
M  END
>  <mol_id>  (1) 
126650

>  <source_index>  (1) 
9

>  <layer>  (1) 
L2

>  <uniprot>  (1) 
O14757

>  <paff>  (1) 
7.3768000000000002

>  <smiles>  (1) 
N#Cc1ncc(Nc2ncc3c(n2)CCC(=O)N3)cc1N[C@@H]1CCNC1

$$$$
