L2:O14757:126650


 30 33  0  0  0  0  0  0  0  0999 V2000
   13.7756   -5.6740   13.8607 C   0  0  0  0  0  0  0  0  0  0  0  0
   14.9639   -6.3417   13.8500 N   0  0  0  0  0  0  0  0  0  0  0  0
   16.0935   -5.6092   13.7053 C   0  0  0  0  0  0  0  0  0  0  0  0
   16.1241   -4.2296   13.5690 C   0  0  0  0  0  0  0  0  0  0  0  0
   14.8741   -3.5911   13.5855 C   0  0  0  0  0  0  0  0  0  0  0  0
   13.6522   -4.2841   13.7201 C   0  0  0  0  0  0  0  0  0  0  0  0
   11.7362   -7.2689   14.1174 N   0  0  0  0  0  0  0  0  0  0  0  0
   12.6534   -6.5621   13.9990 C   0  0  0  0  0  0  0  0  0  0  0  0
   17.2800   -3.4608   13.4251 N   0  0  0  0  0  0  0  0  0  0  0  0
   17.7084   -3.0957   14.2634 H   0  0  0  0  0  0  0  0  0  0  0  0
   18.0228   -3.0566   12.3213 C   0  0  0  0  0  0  0  0  0  0  0  0
   19.0724   -3.8433   12.0217 N   0  0  0  0  0  0  0  0  0  0  0  0
   19.8240   -3.4962   10.9555 C   0  0  0  0  0  0  0  0  0  0  0  0
   19.5585   -2.3992   10.1737 C   0  0  0  0  0  0  0  0  0  0  0  0
   18.4727   -1.6418   10.5598 C   0  0  0  0  0  0  0  0  0  0  0  0
   17.7034   -1.9543   11.6240 N   0  0  0  0  0  0  0  0  0  0  0  0
   18.1995   -0.3516    9.8387 C   0  0  0  0  0  0  0  0  0  0  0  0
   18.6074   -0.4428    8.3762 C   0  0  0  0  0  0  0  0  0  0  0  0
   19.9898   -1.0374    8.2021 C   0  0  0  0  0  0  0  0  0  0  0  0
   20.7351   -0.7189    7.2800 O   0  0  0  0  0  0  0  0  0  0  0  0
   20.3372   -2.0400    9.0710 N   0  0  0  0  0  0  0  0  0  0  0  0
   21.2068   -2.5192    8.8693 H   0  0  0  0  0  0  0  0  0  0  0  0
   12.5099   -3.5065   13.7605 N   0  0  0  0  0  0  0  0  0  0  0  0
   12.4433   -2.8072   14.4998 H   0  0  0  0  0  0  0  0  0  0  0  0
   11.4709   -3.3392   12.7431 C   0  0  0  0  0  0  0  0  0  0  0  0
   12.0375   -2.6179   11.5240 C   0  0  0  0  0  0  0  0  0  0  0  0
   11.7834   -1.1317   11.7774 C   0  0  0  0  0  0  0  0  0  0  0  0
   11.0970   -1.0354   13.0698 N   0  0  0  0  0  0  0  0  0  0  0  0
   10.4238   -2.3295   13.2407 C   0  0  0  0  0  0  0  0  0  0  0  0
   10.4189   -0.2743   13.0604 H   0  0  0  0  0  0  0  0  0  0  0  0
  7  8  3  0  0  0
  8  1  1  0  0  0
  1  2  2  0  0  0
  2  3  1  0  0  0
  3  4  2  0  0  0
  4  9  1  0  0  0
  9 11  1  0  0  0
 11 12  2  0  0  0
 12 13  1  0  0  0
 13 14  2  0  0  0
 14 15  1  0  0  0
 15 16  2  0  0  0
 15 17  1  0  0  0
 17 18  1  0  0  0
 18 19  1  0  0  0
 19 20  2  0  0  0
 19 21  1  0  0  0
  4  5  1  0  0  0
  5  6  2  0  0  0
  6 23  1  0  0  0
 23 25  1  0  0  0
 25 26  1  0  0  0
 26 27  1  0  0  0
 27 28  1  0  0  0
 28 29  1  0  0  0
  6  1  1  0  0  0
 29 25  1  0  0  0
 16 11  1  0  0  0
 21 14  1  0  0  0
  9 10  1  0  0  0
 21 22  1  0  0  0
 23 24  1  0  0  0
 28 30  1  0  0  0
M  END
> <minimizedAffinity>
-7.93164

$$$$
