L2:O14757:4906
 OpenBabel09212617443D

 39 41  0  0  0  0  0  0  0  0999 V2000
   13.5344   -2.9710   12.5669 C   0  0  0  0  0  0  0  0  0  0  0  0
   14.7919   -3.0706   12.0233 C   0  0  0  0  0  0  0  0  0  0  0  0
   14.8820   -2.0620   11.0846 N   0  0  0  0  0  0  0  0  0  0  0  0
   13.6542   -1.4355   11.1095 C   0  0  0  0  0  0  0  0  0  0  0  0
   12.8286   -1.9718   11.9802 N   0  0  0  0  0  0  0  0  0  0  0  0
   16.0019   -1.7409   10.2625 C   0  0  0  0  0  0  0  0  0  0  0  0
   15.9530   -0.6543    9.3775 C   0  0  0  0  0  0  0  0  0  0  0  0
   17.0549   -0.3393    8.5682 C   0  0  0  0  0  0  0  0  0  0  0  0
   18.2174   -1.1028    8.6295 C   0  0  0  0  0  0  0  0  0  0  0  0
   18.2689   -2.1814    9.5131 C   0  0  0  0  0  0  0  0  0  0  0  0
   17.1747   -2.5038   10.3241 C   0  0  0  0  0  0  0  0  0  0  0  0
   19.3599   -0.9071    7.9076 O   0  0  0  0  0  0  0  0  0  0  0  0
   20.5439   -1.6107    8.2911 C   0  0  0  0  0  0  0  0  0  0  0  0
   21.7966   -0.7814    7.9822 C   0  0  0  0  0  0  0  0  0  0  0  0
   21.4792    0.6207    7.7126 N   0  0  0  0  0  0  0  0  0  0  0  0
   20.9049    0.6853    6.8720 H   0  0  0  0  0  0  0  0  0  0  0  0
   22.3419    1.1217    7.4986 H   0  0  0  0  0  0  0  0  0  0  0  0
   13.0417   -3.7912   13.5112 N   0  0  0  0  0  0  0  0  0  0  0  0
   12.0422   -3.9318   13.5601 H   0  0  0  0  0  0  0  0  0  0  0  0
   14.9922   -6.5395   15.8927 C   0  0  0  0  0  0  0  0  0  0  0  0
   15.2455   -5.1863   16.0269 C   0  0  0  0  0  0  0  0  0  0  0  0
   14.6389   -4.2498   15.2557 N   0  0  0  0  0  0  0  0  0  0  0  0
   13.7467   -4.6865   14.3376 C   0  0  0  0  0  0  0  0  0  0  0  0
   13.5019   -6.0609   14.2253 C   0  0  0  0  0  0  0  0  0  0  0  0
   14.1133   -7.0148   14.9775 N   0  0  0  0  0  0  0  0  0  0  0  0
   16.2287   -8.2519   17.3977 N   0  0  0  0  0  0  0  0  0  0  0  0
   15.6582   -7.4990   16.7204 C   0  0  0  0  0  0  0  0  0  0  0  0
   15.5210   -3.7592   12.2669 H   0  0  0  0  0  0  0  0  0  0  0  0
   13.4098   -0.6323   10.5094 H   0  0  0  0  0  0  0  0  0  0  0  0
   15.0973   -0.0802    9.3209 H   0  0  0  0  0  0  0  0  0  0  0  0
   17.0033    0.4643    7.9227 H   0  0  0  0  0  0  0  0  0  0  0  0
   19.1278   -2.7507    9.5696 H   0  0  0  0  0  0  0  0  0  0  0  0
   17.2324   -3.3067   10.9699 H   0  0  0  0  0  0  0  0  0  0  0  0
   20.5930   -2.5338    7.7523 H   0  0  0  0  0  0  0  0  0  0  0  0
   20.5065   -1.7948    9.3445 H   0  0  0  0  0  0  0  0  0  0  0  0
   22.2811   -1.1962    7.1231 H   0  0  0  0  0  0  0  0  0  0  0  0
   22.4324   -0.8145    8.8422 H   0  0  0  0  0  0  0  0  0  0  0  0
   15.9225   -4.8771   16.7418 H   0  0  0  0  0  0  0  0  0  0  0  0
   12.8108   -6.3708   13.5243 H   0  0  0  0  0  0  0  0  0  0  0  0
  1  2  2  0  0  0  0
  2  3  1  0  0  0  0
  2 28  1  0  0  0  0
  3  6  1  0  0  0  0
  3  4  1  0  0  0  0
  4  5  2  0  0  0  0
  4 29  1  0  0  0  0
  5  1  1  0  0  0  0
  6  7  2  0  0  0  0
  7  8  1  0  0  0  0
  7 30  1  0  0  0  0
  8  9  2  0  0  0  0
  8 31  1  0  0  0  0
  9 12  1  0  0  0  0
  9 10  1  0  0  0  0
 10 11  2  0  0  0  0
 10 32  1  0  0  0  0
 11  6  1  0  0  0  0
 11 33  1  0  0  0  0
 12 13  1  0  0  0  0
 13 14  1  0  0  0  0
 13 34  1  0  0  0  0
 13 35  1  0  0  0  0
 14 15  1  0  0  0  0
 14 36  1  0  0  0  0
 14 37  1  0  0  0  0
 15 16  1  0  0  0  0
 15 17  1  0  0  0  0
 18  1  1  0  0  0  0
 18 19  1  0  0  0  0
 20 21  2  0  0  0  0
 21 22  1  0  0  0  0
 21 38  1  0  0  0  0
 22 23  2  0  0  0  0
 23 18  1  0  0  0  0
 23 24  1  0  0  0  0
 24 25  2  0  0  0  0
 24 39  1  0  0  0  0
 25 20  1  0  0  0  0
 26 27  3  0  0  0  0
 27 20  1  0  0  0  0
M  END
>  <minimizedAffinity>
-6.87559

$$$$
