L2:O14757:4906
     RDKit          3D

 39 41  0  0  0  0  0  0  0  0999 V2000
    8.0404   -6.1007   -0.8416 N   0  0  0  0  0  0  0  0  0  0  0  0
    7.3164   -5.2538   -0.5105 C   0  0  0  0  0  0  0  0  0  0  0  0
    6.3871   -4.2379   -0.1186 C   0  0  0  0  0  0  0  0  0  0  0  0
    5.0429   -4.3462   -0.4265 C   0  0  0  0  0  0  0  0  0  0  0  0
    4.1330   -3.4073   -0.0653 N   0  0  0  0  0  0  0  0  0  0  0  0
    4.5909   -2.3284    0.6098 C   0  0  0  0  0  0  0  0  0  0  0  0
    3.7313   -1.2846    1.0011 N   0  0  0  0  0  0  0  0  0  0  0  0
    2.5719   -0.9085    0.4341 C   0  0  0  0  0  0  0  0  0  0  0  0
    1.6559   -0.0644    1.0130 C   0  0  0  0  0  0  0  0  0  0  0  0
    0.6341    0.0762    0.0951 N   0  0  0  0  0  0  0  0  0  0  0  0
   -0.5605    0.8415    0.2385 C   0  0  0  0  0  0  0  0  0  0  0  0
   -1.5081    0.8908   -0.7939 C   0  0  0  0  0  0  0  0  0  0  0  0
   -2.6829    1.6446   -0.6525 C   0  0  0  0  0  0  0  0  0  0  0  0
   -2.9273    2.3589    0.5172 C   0  0  0  0  0  0  0  0  0  0  0  0
   -4.0245    3.1247    0.7902 O   0  0  0  0  0  0  0  0  0  0  0  0
   -5.0003    3.3178   -0.2367 C   0  0  0  0  0  0  0  0  0  0  0  0
   -6.0500    2.1998   -0.2102 C   0  0  0  0  0  0  0  0  0  0  0  0
   -7.0937    2.3970   -1.2157 N   0  0  0  0  0  0  0  0  0  0  0  0
   -1.9872    2.3068    1.5469 C   0  0  0  0  0  0  0  0  0  0  0  0
   -0.8121    1.5581    1.4151 C   0  0  0  0  0  0  0  0  0  0  0  0
    1.0199   -0.6784   -0.9923 C   0  0  0  0  0  0  0  0  0  0  0  0
    2.1823   -1.2657   -0.8155 N   0  0  0  0  0  0  0  0  0  0  0  0
    5.9573   -2.2379    0.9038 C   0  0  0  0  0  0  0  0  0  0  0  0
    6.8805   -3.1773    0.5651 N   0  0  0  0  0  0  0  0  0  0  0  0
    4.6413   -5.1915   -0.9756 H   0  0  0  0  0  0  0  0  0  0  0  0
    3.9747   -0.9078    1.9066 H   0  0  0  0  0  0  0  0  0  0  0  0
    1.6528    0.4200    1.9755 H   0  0  0  0  0  0  0  0  0  0  0  0
   -1.3767    0.3560   -1.7300 H   0  0  0  0  0  0  0  0  0  0  0  0
   -3.3856    1.6414   -1.4801 H   0  0  0  0  0  0  0  0  0  0  0  0
   -5.4951    4.2702   -0.0099 H   0  0  0  0  0  0  0  0  0  0  0  0
   -4.5431    3.4502   -1.2244 H   0  0  0  0  0  0  0  0  0  0  0  0
   -5.5739    1.2283   -0.3777 H   0  0  0  0  0  0  0  0  0  0  0  0
   -6.5037    2.1475    0.7865 H   0  0  0  0  0  0  0  0  0  0  0  0
   -7.6112    3.2512   -1.0078 H   0  0  0  0  0  0  0  0  0  0  0  0
   -7.7714    1.6376   -1.1448 H   0  0  0  0  0  0  0  0  0  0  0  0
   -2.1702    2.8587    2.4666 H   0  0  0  0  0  0  0  0  0  0  0  0
   -0.1243    1.5623    2.2544 H   0  0  0  0  0  0  0  0  0  0  0  0
    0.4304   -0.7735   -1.8924 H   0  0  0  0  0  0  0  0  0  0  0  0
    6.3589   -1.3756    1.4265 H   0  0  0  0  0  0  0  0  0  0  0  0
  1  2  3  0
  2  3  1  0
  3  4  2  0
  4  5  1  0
  5  6  2  0
  6  7  1  0
  7  8  1  0
  8  9  2  0
  9 10  1  0
 10 11  1  0
 11 12  2  0
 12 13  1  0
 13 14  2  0
 14 15  1  0
 15 16  1  0
 16 17  1  0
 17 18  1  0
 14 19  1  0
 19 20  2  0
 10 21  1  0
 21 22  2  0
  6 23  1  0
 23 24  2  0
 24  3  1  0
 22  8  1  0
 20 11  1  0
  4 25  1  0
  7 26  1  0
  9 27  1  0
 12 28  1  0
 13 29  1  0
 16 30  1  0
 16 31  1  0
 17 32  1  0
 17 33  1  0
 18 34  1  0
 18 35  1  0
 19 36  1  0
 20 37  1  0
 21 38  1  0
 23 39  1  0
M  END
>  <mol_id>  (1) 
4906

>  <source_index>  (1) 
0

>  <layer>  (1) 
L2

>  <uniprot>  (1) 
O14757

>  <paff>  (1) 
7.5528000000000004

>  <smiles>  (1) 
N#Cc1cnc(Nc2cn(-c3ccc(OCCN)cc3)cn2)cn1

$$$$
