L2:O14757:55958
     RDKit          3D

 45 47  0  0  0  0  0  0  0  0999 V2000
    0.1562   -4.4559   -3.6969 C   0  0  0  0  0  0  0  0  0  0  0  0
    0.1124   -3.5059   -2.6358 O   0  0  0  0  0  0  0  0  0  0  0  0
   -0.8801   -2.5570   -2.6862 C   0  0  0  0  0  0  0  0  0  0  0  0
   -1.9895   -2.6292   -3.5307 C   0  0  0  0  0  0  0  0  0  0  0  0
   -2.9764   -1.7065   -3.5863 N   0  0  0  0  0  0  0  0  0  0  0  0
   -2.8601   -0.6577   -2.7480 C   0  0  0  0  0  0  0  0  0  0  0  0
   -1.8176   -0.5006   -1.8427 C   0  0  0  0  0  0  0  0  0  0  0  0
   -1.8384    0.6190   -1.0538 O   0  0  0  0  0  0  0  0  0  0  0  0
   -2.3554    0.3196    0.2580 C   0  0  0  0  0  0  0  0  0  0  0  0
   -2.1161    1.5399    1.1448 C   0  0  1  0  0  0  0  0  0  0  0  0
   -3.1518    2.4138    0.9458 F   0  0  0  0  0  0  0  0  0  0  0  0
   -2.0713    1.2074    2.6416 C   0  0  0  0  0  0  0  0  0  0  0  0
   -0.8825    0.4763    3.0862 N   0  0  0  0  0  0  0  0  0  0  0  0
   -0.7773   -1.4495   -1.8123 C   0  0  0  0  0  0  0  0  0  0  0  0
    0.3723   -1.2935   -0.8968 C   0  0  0  0  0  0  0  0  0  0  0  0
    0.9604   -0.1889   -0.3052 C   0  0  0  0  0  0  0  0  0  0  0  0
    1.9784   -0.6837    0.5393 C   0  0  0  0  0  0  0  0  0  0  0  0
    2.7897    0.0363    1.3361 N   0  0  0  0  0  0  0  0  0  0  0  0
    2.6884    1.3583    1.7935 C   0  0  0  0  0  0  0  0  0  0  0  0
    3.8333    2.0085    2.2712 C   0  0  0  0  0  0  0  0  0  0  0  0
    3.8553    3.2918    2.7189 N   0  0  0  0  0  0  0  0  0  0  0  0
    2.6671    3.9376    2.6664 C   0  0  0  0  0  0  0  0  0  0  0  0
    2.6362    5.2942    3.1229 C   0  0  0  0  0  0  0  0  0  0  0  0
    2.5676    6.3970    3.4825 N   0  0  0  0  0  0  0  0  0  0  0  0
    1.5246    3.3193    2.1884 C   0  0  0  0  0  0  0  0  0  0  0  0
    1.5114    2.0313    1.7465 N   0  0  0  0  0  0  0  0  0  0  0  0
    2.0805   -2.0086    0.4411 N   0  0  0  0  0  0  0  0  0  0  0  0
    1.1247   -2.3452   -0.4383 N   0  0  0  0  0  0  0  0  0  0  0  0
   -0.6907   -5.1467   -3.6358 H   0  0  0  0  0  0  0  0  0  0  0  0
    1.0727   -5.0422   -3.5804 H   0  0  0  0  0  0  0  0  0  0  0  0
    0.1975   -3.9621   -4.6735 H   0  0  0  0  0  0  0  0  0  0  0  0
   -2.1440   -3.4554   -4.2170 H   0  0  0  0  0  0  0  0  0  0  0  0
   -3.6554    0.0798   -2.8135 H   0  0  0  0  0  0  0  0  0  0  0  0
   -3.4311    0.1218    0.1787 H   0  0  0  0  0  0  0  0  0  0  0  0
   -1.8591   -0.5647    0.6702 H   0  0  0  0  0  0  0  0  0  0  0  0
   -1.2072    2.0713    0.8460 H   0  0  0  0  0  0  0  0  0  0  0  0
   -2.1211    2.1465    3.2047 H   0  0  0  0  0  0  0  0  0  0  0  0
   -2.9680    0.6440    2.9239 H   0  0  0  0  0  0  0  0  0  0  0  0
   -0.0382    0.9457    2.7339 H   0  0  0  0  0  0  0  0  0  0  0  0
   -0.8479   -0.4547    2.6716 H   0  0  0  0  0  0  0  0  0  0  0  0
    0.6801    0.8437   -0.4530 H   0  0  0  0  0  0  0  0  0  0  0  0
    3.4824   -0.5130    1.8298 H   0  0  0  0  0  0  0  0  0  0  0  0
    4.7931    1.5011    2.3004 H   0  0  0  0  0  0  0  0  0  0  0  0
    0.5710    3.8369    2.1430 H   0  0  0  0  0  0  0  0  0  0  0  0
    1.0241   -3.3203   -0.7023 H   0  0  0  0  0  0  0  0  0  0  0  0
  1  2  1  0
  2  3  1  0
  3  4  2  0
  4  5  1  0
  5  6  2  0
  6  7  1  0
  7  8  1  0
  8  9  1  0
  9 10  1  0
 10 11  1  0
 10 12  1  0
 12 13  1  0
  7 14  2  0
 14 15  1  0
 15 16  2  0
 16 17  1  0
 17 18  1  0
 18 19  1  0
 19 20  2  0
 20 21  1  0
 21 22  2  0
 22 23  1  0
 23 24  3  0
 22 25  1  0
 25 26  2  0
 17 27  2  0
 27 28  1  0
 14  3  1  0
 28 15  1  0
 26 19  1  0
  1 29  1  0
  1 30  1  0
  1 31  1  0
  4 32  1  0
  6 33  1  0
  9 34  1  0
  9 35  1  0
 10 36  1  6
 12 37  1  0
 12 38  1  0
 13 39  1  0
 13 40  1  0
 16 41  1  0
 18 42  1  0
 20 43  1  0
 25 44  1  0
 28 45  1  0
M  END
>  <mol_id>  (1) 
55958

>  <source_index>  (1) 
2

>  <layer>  (1) 
L2

>  <uniprot>  (1) 
O14757

>  <paff>  (1) 
9.2218

>  <smiles>  (1) 
COc1cncc(OC[C@@H](F)CN)c1-c1cc(Nc2cnc(C#N)cn2)n[nH]1

$$$$
