L2:O14757:55958
 OpenBabel09212617443D

 45 47  0  0  0  0  0  0  0  0999 V2000
   18.1356   -1.1085   10.6376 C   0  0  0  0  0  0  0  0  0  0  0  0
   18.3436   -0.1211    9.6727 C   0  0  0  0  0  0  0  0  0  0  0  0
   17.3889    0.3595    8.8444 N   0  0  0  0  0  0  0  0  0  0  0  0
   16.1602   -0.1786    8.9749 C   0  0  0  0  0  0  0  0  0  0  0  0
   15.8478   -1.1885    9.8768 C   0  0  0  0  0  0  0  0  0  0  0  0
   16.8396   -1.6622   10.7575 C   0  0  0  0  0  0  0  0  0  0  0  0
   16.5351   -2.7021   11.7625 C   0  0  0  0  0  0  0  0  0  0  0  0
   16.2647   -4.0560   11.6628 C   0  0  0  0  0  0  0  0  0  0  0  0
   16.1359   -4.5352   12.9849 C   0  0  0  0  0  0  0  0  0  0  0  0
   16.2469   -3.5428   13.8671 N   0  0  0  0  0  0  0  0  0  0  0  0
   16.4637   -2.4563   13.1104 N   0  0  0  0  0  0  0  0  0  0  0  0
   16.5544   -1.5533   13.5654 H   0  0  0  0  0  0  0  0  0  0  0  0
   15.9021   -5.8046   13.3662 N   0  0  0  0  0  0  0  0  0  0  0  0
   16.2893   -6.5037   12.7444 H   0  0  0  0  0  0  0  0  0  0  0  0
   15.0162   -6.3273   14.3197 C   0  0  0  0  0  0  0  0  0  0  0  0
   13.6726   -6.5202   13.9746 C   0  0  0  0  0  0  0  0  0  0  0  0
   12.7333   -7.0372   14.8101 N   0  0  0  0  0  0  0  0  0  0  0  0
   13.1854   -7.3797   16.0389 C   0  0  0  0  0  0  0  0  0  0  0  0
   14.5109   -7.2083   16.3992 C   0  0  0  0  0  0  0  0  0  0  0  0
   15.4438   -6.6847   15.5566 N   0  0  0  0  0  0  0  0  0  0  0  0
   12.2366   -7.9331   16.9572 C   0  0  0  0  0  0  0  0  0  0  0  0
   11.4341   -8.3742   17.6724 N   0  0  0  0  0  0  0  0  0  0  0  0
   20.2905   -2.1145   10.8512 C   0  0  0  0  0  0  0  0  0  0  0  0
   19.1173   -1.5922   11.4685 O   0  0  0  0  0  0  0  0  0  0  0  0
   14.5531   -1.6355    9.8906 O   0  0  0  0  0  0  0  0  0  0  0  0
   13.6542   -0.6069   10.3505 C   0  0  0  0  0  0  0  0  0  0  0  0
   12.3450   -1.2786   10.7600 C   0  0  1  0  0  0  0  0  0  0  0  0
   11.7383   -1.7446    9.6239 F   0  0  0  0  0  0  0  0  0  0  0  0
   12.5403   -2.4718   11.7039 C   0  0  0  0  0  0  0  0  0  0  0  0
   13.3604   -2.2068   12.8882 N   0  0  0  0  0  0  0  0  0  0  0  0
   13.0271   -1.3524   13.3533 H   0  0  0  0  0  0  0  0  0  0  0  0
   14.3235   -1.9957   12.6279 H   0  0  0  0  0  0  0  0  0  0  0  0
   19.2945    0.2702    9.5853 H   0  0  0  0  0  0  0  0  0  0  0  0
   15.4063    0.1809    8.3688 H   0  0  0  0  0  0  0  0  0  0  0  0
   16.1750   -4.6062   10.7943 H   0  0  0  0  0  0  0  0  0  0  0  0
   13.3761   -6.2521   13.0231 H   0  0  0  0  0  0  0  0  0  0  0  0
   14.8049   -7.4895   17.3476 H   0  0  0  0  0  0  0  0  0  0  0  0
   20.9689   -2.4550   11.6053 H   0  0  0  0  0  0  0  0  0  0  0  0
   20.7590   -1.3481   10.2698 H   0  0  0  0  0  0  0  0  0  0  0  0
   20.0247   -2.9326   10.2149 H   0  0  0  0  0  0  0  0  0  0  0  0
   13.4723    0.0956    9.5641 H   0  0  0  0  0  0  0  0  0  0  0  0
   14.0802   -0.0823   11.1801 H   0  0  0  0  0  0  0  0  0  0  0  0
   11.7615   -0.5476   11.2796 H   0  0  0  0  0  0  0  0  0  0  0  0
   13.0061   -3.2592   11.1490 H   0  0  0  0  0  0  0  0  0  0  0  0
   11.5662   -2.7220   12.0691 H   0  0  0  0  0  0  0  0  0  0  0  0
  1  2  2  0  0  0  0
  2  3  1  0  0  0  0
  2 33  1  0  0  0  0
  3  4  2  0  0  0  0
  4  5  1  0  0  0  0
  4 34  1  0  0  0  0
  5 25  1  0  0  0  0
  5  6  2  0  0  0  0
  6  7  1  0  0  0  0
  6  1  1  0  0  0  0
  7  8  2  0  0  0  0
  8  9  1  0  0  0  0
  8 35  1  0  0  0  0
  9 13  1  0  0  0  0
  9 10  2  0  0  0  0
 10 11  1  0  0  0  0
 11  7  1  0  0  0  0
 11 12  1  0  0  0  0
 13 15  1  0  0  0  0
 13 14  1  0  0  0  0
 15 16  2  0  0  0  0
 16 17  1  0  0  0  0
 16 36  1  0  0  0  0
 17 18  2  0  0  0  0
 18 21  1  0  0  0  0
 18 19  1  0  0  0  0
 19 20  2  0  0  0  0
 19 37  1  0  0  0  0
 20 15  1  0  0  0  0
 21 22  3  0  0  0  0
 23 24  1  0  0  0  0
 23 38  1  0  0  0  0
 23 39  1  0  0  0  0
 23 40  1  0  0  0  0
 24  1  1  0  0  0  0
 25 26  1  0  0  0  0
 26 27  1  0  0  0  0
 26 41  1  0  0  0  0
 26 42  1  0  0  0  0
 27 28  1  0  0  0  0
 27 29  1  0  0  0  0
 27 43  1  1  0  0  0
 29 30  1  0  0  0  0
 29 44  1  0  0  0  0
 29 45  1  0  0  0  0
 30 31  1  0  0  0  0
 30 32  1  0  0  0  0
M  END
>  <minimizedAffinity>
-6.75926

$$$$
