L2:O14757:60774
     RDKit          3D

 49 52  0  0  0  0  0  0  0  0999 V2000
    0.2994   -5.1131    1.0229 C   0  0  0  0  0  0  0  0  0  0  0  0
    0.4545   -3.7066    0.8833 O   0  0  0  0  0  0  0  0  0  0  0  0
   -0.5193   -2.8920    1.4090 C   0  0  0  0  0  0  0  0  0  0  0  0
   -1.5589   -3.3708    2.2102 C   0  0  0  0  0  0  0  0  0  0  0  0
   -2.5076   -2.4785    2.6722 C   0  0  0  0  0  0  0  0  0  0  0  0
   -2.4924   -1.1623    2.3986 N   0  0  0  0  0  0  0  0  0  0  0  0
   -1.4712   -0.7057    1.6355 C   0  0  0  0  0  0  0  0  0  0  0  0
   -1.4551    0.6400    1.3122 O   0  0  0  0  0  0  0  0  0  0  0  0
   -2.3658    1.4753    2.0283 C   0  0  0  0  0  0  0  0  0  0  0  0
   -3.4391    1.9982    1.0877 C   0  0  0  0  0  0  0  0  0  0  0  0
   -4.3180    0.9565    0.4294 C   0  0  0  0  0  0  0  0  0  0  0  0
   -5.1087    0.2438    1.4213 N   0  0  0  0  0  0  0  0  0  0  0  0
   -3.1027    3.2344    0.2725 C   0  0  0  0  0  0  0  0  0  0  0  0
   -4.0671    3.3411    1.4184 C   0  0  0  0  0  0  0  0  0  0  0  0
   -0.4482   -1.5147    1.1035 C   0  0  0  0  0  0  0  0  0  0  0  0
    0.6303   -0.9499    0.2648 C   0  0  0  0  0  0  0  0  0  0  0  0
    1.9295   -1.3487    0.0049 C   0  0  0  0  0  0  0  0  0  0  0  0
    2.4792   -0.3901   -0.8819 C   0  0  0  0  0  0  0  0  0  0  0  0
    3.7404   -0.5026   -1.3529 N   0  0  0  0  0  0  0  0  0  0  0  0
    4.5158    0.4699   -2.0102 C   0  0  0  0  0  0  0  0  0  0  0  0
    5.5033    0.0607   -2.9153 C   0  0  0  0  0  0  0  0  0  0  0  0
    6.3046    0.9083   -3.6147 N   0  0  0  0  0  0  0  0  0  0  0  0
    6.0699    2.2240   -3.3932 C   0  0  0  0  0  0  0  0  0  0  0  0
    6.8775    3.1631   -4.1111 C   0  0  0  0  0  0  0  0  0  0  0  0
    7.5165    3.9549   -4.6728 N   0  0  0  0  0  0  0  0  0  0  0  0
    5.0962    2.6528   -2.5093 C   0  0  0  0  0  0  0  0  0  0  0  0
    4.3177    1.7923   -1.8068 N   0  0  0  0  0  0  0  0  0  0  0  0
    1.5758    0.5410   -1.1832 N   0  0  0  0  0  0  0  0  0  0  0  0
    0.4972    0.2045   -0.4662 N   0  0  0  0  0  0  0  0  0  0  0  0
    1.1147   -5.5944    0.4741 H   0  0  0  0  0  0  0  0  0  0  0  0
   -0.6440   -5.4549    0.5845 H   0  0  0  0  0  0  0  0  0  0  0  0
    0.3827   -5.4141    2.0722 H   0  0  0  0  0  0  0  0  0  0  0  0
   -1.6582   -4.4133    2.4846 H   0  0  0  0  0  0  0  0  0  0  0  0
   -3.3347   -2.8150    3.2919 H   0  0  0  0  0  0  0  0  0  0  0  0
   -2.8078    1.0246    2.9240 H   0  0  0  0  0  0  0  0  0  0  0  0
   -1.7668    2.3143    2.4047 H   0  0  0  0  0  0  0  0  0  0  0  0
   -5.0062    1.4256   -0.2833 H   0  0  0  0  0  0  0  0  0  0  0  0
   -3.7128    0.2482   -0.1461 H   0  0  0  0  0  0  0  0  0  0  0  0
   -4.4694   -0.3239    1.9866 H   0  0  0  0  0  0  0  0  0  0  0  0
   -5.5392    0.9120    2.0563 H   0  0  0  0  0  0  0  0  0  0  0  0
   -2.1231    3.6864    0.3880 H   0  0  0  0  0  0  0  0  0  0  0  0
   -3.4993    3.3210   -0.7337 H   0  0  0  0  0  0  0  0  0  0  0  0
   -3.7402    3.8665    2.3092 H   0  0  0  0  0  0  0  0  0  0  0  0
   -5.1148    3.4979    1.1836 H   0  0  0  0  0  0  0  0  0  0  0  0
    2.4242   -2.2175    0.4129 H   0  0  0  0  0  0  0  0  0  0  0  0
    4.2820   -1.3128   -1.0877 H   0  0  0  0  0  0  0  0  0  0  0  0
    5.6736   -0.9925   -3.1154 H   0  0  0  0  0  0  0  0  0  0  0  0
    4.9013    3.7047   -2.3285 H   0  0  0  0  0  0  0  0  0  0  0  0
   -0.3157    0.8112   -0.5037 H   0  0  0  0  0  0  0  0  0  0  0  0
  1  2  1  0
  2  3  1  0
  3  4  2  0
  4  5  1  0
  5  6  2  0
  6  7  1  0
  7  8  1  0
  8  9  1  0
  9 10  1  0
 10 11  1  0
 11 12  1  0
 10 13  1  0
 13 14  1  0
  7 15  2  0
 15 16  1  0
 16 17  2  0
 17 18  1  0
 18 19  1  0
 19 20  1  0
 20 21  2  0
 21 22  1  0
 22 23  2  0
 23 24  1  0
 24 25  3  0
 23 26  1  0
 26 27  2  0
 18 28  2  0
 28 29  1  0
 15  3  1  0
 29 16  1  0
 14 10  1  0
 27 20  1  0
  1 30  1  0
  1 31  1  0
  1 32  1  0
  4 33  1  0
  5 34  1  0
  9 35  1  0
  9 36  1  0
 11 37  1  0
 11 38  1  0
 12 39  1  0
 12 40  1  0
 13 41  1  0
 13 42  1  0
 14 43  1  0
 14 44  1  0
 17 45  1  0
 19 46  1  0
 21 47  1  0
 26 48  1  0
 29 49  1  0
M  END
>  <mol_id>  (1) 
60774

>  <source_index>  (1) 
3

>  <layer>  (1) 
L2

>  <uniprot>  (1) 
O14757

>  <paff>  (1) 
9.4948999999999995

>  <smiles>  (1) 
COc1ccnc(OCC2(CN)CC2)c1-c1cc(Nc2cnc(C#N)cn2)n[nH]1

$$$$
