L2:O14757:60774
 OpenBabel09212617443D

 49 52  0  0  0  0  0  0  0  0999 V2000
   18.0989   -1.7817    9.3266 C   0  0  0  0  0  0  0  0  0  0  0  0
   18.0006   -0.7220    8.4214 C   0  0  0  0  0  0  0  0  0  0  0  0
   16.8384    0.0252    8.3958 C   0  0  0  0  0  0  0  0  0  0  0  0
   15.7822   -0.2071    9.1945 N   0  0  0  0  0  0  0  0  0  0  0  0
   15.8811   -1.2469   10.0562 C   0  0  0  0  0  0  0  0  0  0  0  0
   17.0119   -2.0778   10.1786 C   0  0  0  0  0  0  0  0  0  0  0  0
   17.0563   -3.1887   11.1530 C   0  0  0  0  0  0  0  0  0  0  0  0
   17.2468   -3.2345   12.5227 C   0  0  0  0  0  0  0  0  0  0  0  0
   17.1900   -4.6003   12.8955 C   0  0  0  0  0  0  0  0  0  0  0  0
   16.9529   -5.3663   11.8321 N   0  0  0  0  0  0  0  0  0  0  0  0
   16.9089   -4.5087   10.8057 N   0  0  0  0  0  0  0  0  0  0  0  0
   16.7827   -4.8819    9.8702 H   0  0  0  0  0  0  0  0  0  0  0  0
   17.3180   -4.9886   14.1832 N   0  0  0  0  0  0  0  0  0  0  0  0
   18.2366   -5.2381   14.5208 H   0  0  0  0  0  0  0  0  0  0  0  0
   16.3026   -5.3099   15.1022 C   0  0  0  0  0  0  0  0  0  0  0  0
   16.6524   -5.6778   16.4076 C   0  0  0  0  0  0  0  0  0  0  0  0
   15.7594   -5.9988   17.3818 N   0  0  0  0  0  0  0  0  0  0  0  0
   14.4594   -5.9190   17.0092 C   0  0  0  0  0  0  0  0  0  0  0  0
   14.0888   -5.5518   15.7281 C   0  0  0  0  0  0  0  0  0  0  0  0
   14.9944   -5.2518   14.7637 N   0  0  0  0  0  0  0  0  0  0  0  0
   13.4741   -6.2360   17.9982 C   0  0  0  0  0  0  0  0  0  0  0  0
   12.6712   -6.5299   18.7854 N   0  0  0  0  0  0  0  0  0  0  0  0
   20.3472   -2.0247   10.1258 C   0  0  0  0  0  0  0  0  0  0  0  0
   19.2230   -2.5636    9.4420 O   0  0  0  0  0  0  0  0  0  0  0  0
   14.8194   -1.4824   10.9124 O   0  0  0  0  0  0  0  0  0  0  0  0
   13.6114   -1.9507   10.3111 C   0  0  0  0  0  0  0  0  0  0  0  0
   12.4414   -1.7261   11.2549 C   0  0  0  0  0  0  0  0  0  0  0  0
   12.3637   -2.6137   12.4845 C   0  0  0  0  0  0  0  0  0  0  0  0
   11.3993   -2.8268   11.3535 C   0  0  0  0  0  0  0  0  0  0  0  0
   11.9674   -0.2966   11.4055 C   0  0  0  0  0  0  0  0  0  0  0  0
   12.7512    0.6001   10.5697 N   0  0  0  0  0  0  0  0  0  0  0  0
   13.7024    0.6358   10.9498 H   0  0  0  0  0  0  0  0  0  0  0  0
   12.8292    0.2100    9.6333 H   0  0  0  0  0  0  0  0  0  0  0  0
   18.7814   -0.5013    7.7837 H   0  0  0  0  0  0  0  0  0  0  0  0
   16.7777    0.8068    7.7247 H   0  0  0  0  0  0  0  0  0  0  0  0
   17.4004   -2.4302   13.1508 H   0  0  0  0  0  0  0  0  0  0  0  0
   17.6560   -5.7073   16.6464 H   0  0  0  0  0  0  0  0  0  0  0  0
   13.0841   -5.5042   15.4970 H   0  0  0  0  0  0  0  0  0  0  0  0
   21.1385   -2.7449   10.1340 H   0  0  0  0  0  0  0  0  0  0  0  0
   20.0719   -1.7858   11.1318 H   0  0  0  0  0  0  0  0  0  0  0  0
   20.6771   -1.1379    9.6262 H   0  0  0  0  0  0  0  0  0  0  0  0
   13.7019   -2.9960   10.1011 H   0  0  0  0  0  0  0  0  0  0  0  0
   13.4389   -1.4122    9.4027 H   0  0  0  0  0  0  0  0  0  0  0  0
   12.0170   -2.2105   13.4130 H   0  0  0  0  0  0  0  0  0  0  0  0
   13.0574   -3.2349   13.0115 H   0  0  0  0  0  0  0  0  0  0  0  0
   10.3668   -2.5751   11.4775 H   0  0  0  0  0  0  0  0  0  0  0  0
   11.1239   -3.6619   10.7439 H   0  0  0  0  0  0  0  0  0  0  0  0
   12.0682    0.0002   12.4286 H   0  0  0  0  0  0  0  0  0  0  0  0
   10.9434   -0.2416   11.1001 H   0  0  0  0  0  0  0  0  0  0  0  0
  1  2  2  0  0  0  0
  2  3  1  0  0  0  0
  2 34  1  0  0  0  0
  3  4  2  0  0  0  0
  3 35  1  0  0  0  0
  4  5  1  0  0  0  0
  5 25  1  0  0  0  0
  5  6  2  0  0  0  0
  6  7  1  0  0  0  0
  6  1  1  0  0  0  0
  7  8  2  0  0  0  0
  8  9  1  0  0  0  0
  8 36  1  0  0  0  0
  9 13  1  0  0  0  0
  9 10  2  0  0  0  0
 10 11  1  0  0  0  0
 11  7  1  0  0  0  0
 11 12  1  0  0  0  0
 13 15  1  0  0  0  0
 13 14  1  0  0  0  0
 15 16  2  0  0  0  0
 16 17  1  0  0  0  0
 16 37  1  0  0  0  0
 17 18  2  0  0  0  0
 18 21  1  0  0  0  0
 18 19  1  0  0  0  0
 19 20  2  0  0  0  0
 19 38  1  0  0  0  0
 20 15  1  0  0  0  0
 21 22  3  0  0  0  0
 23 24  1  0  0  0  0
 23 39  1  0  0  0  0
 23 40  1  0  0  0  0
 23 41  1  0  0  0  0
 24  1  1  0  0  0  0
 25 26  1  0  0  0  0
 26 27  1  0  0  0  0
 26 42  1  0  0  0  0
 26 43  1  0  0  0  0
 27 30  1  0  0  0  0
 27 28  1  0  0  0  0
 28 29  1  0  0  0  0
 28 44  1  0  0  0  0
 28 45  1  0  0  0  0
 29 27  1  0  0  0  0
 29 46  1  0  0  0  0
 29 47  1  0  0  0  0
 30 31  1  0  0  0  0
 30 48  1  0  0  0  0
 30 49  1  0  0  0  0
 31 32  1  0  0  0  0
 31 33  1  0  0  0  0
M  END
>  <minimizedAffinity>
-7.16209

$$$$
