L2:O14757:60923
 OpenBabel09212617443D

 44 47  0  0  0  0  0  0  0  0999 V2000
   13.3399   -2.2428   11.9463 C   0  0  0  0  0  0  0  0  0  0  0  0
   14.2433   -1.7170   11.0723 N   0  0  0  0  0  0  0  0  0  0  0  0
   13.9268   -0.6490   10.3093 C   0  0  0  0  0  0  0  0  0  0  0  0
   12.6585   -0.0918   10.4290 C   0  0  0  0  0  0  0  0  0  0  0  0
   11.7006   -0.5737   11.2507 N   0  0  0  0  0  0  0  0  0  0  0  0
   12.0667   -1.6552   12.0020 C   0  0  0  0  0  0  0  0  0  0  0  0
   18.0099   -6.7815   13.5647 C   0  0  0  0  0  0  0  0  0  0  0  0
   16.6505   -6.4063   13.9376 N   0  0  0  0  0  0  0  0  0  0  0  0
   16.6223   -5.0370   14.5081 C   0  0  0  0  0  0  0  0  0  0  0  0
   15.3545   -4.7701   13.6607 C   0  0  0  0  0  0  0  0  0  0  0  0
   13.9909   -5.0279   14.2940 C   0  0  0  0  0  0  0  0  0  0  0  0
   13.0241   -4.3877   13.2940 C   0  0  0  0  0  0  0  0  0  0  0  0
   13.7899   -3.3101   12.6806 N   0  0  0  0  0  0  0  0  0  0  0  0
   15.2191   -3.4055   12.9977 C   0  0  0  0  0  0  0  0  0  0  0  0
   15.9006   -5.9105   12.7558 C   0  0  0  0  0  0  0  0  0  0  0  0
   14.8580   -0.0688    9.4248 N   0  0  0  0  0  0  0  0  0  0  0  0
   14.4141    0.5310    8.7434 H   0  0  0  0  0  0  0  0  0  0  0  0
   16.1571   -0.3709    9.2568 C   0  0  0  0  0  0  0  0  0  0  0  0
   16.7102   -1.6001    9.5283 C   0  0  0  0  0  0  0  0  0  0  0  0
   18.0322   -1.4680    9.1962 N   0  0  0  0  0  0  0  0  0  0  0  0
   18.2204   -0.1971    8.7401 C   0  0  0  0  0  0  0  0  0  0  0  0
   17.0956    0.4804    8.7489 N   0  0  0  0  0  0  0  0  0  0  0  0
   19.0534   -2.4909    9.2544 C   0  0  0  0  0  0  0  0  0  0  0  0
   20.0372   -2.2594    8.3475 F   0  0  0  0  0  0  0  0  0  0  0  0
   19.6474   -2.5311   10.4755 F   0  0  0  0  0  0  0  0  0  0  0  0
   11.0037   -2.1501   12.8266 C   0  0  0  0  0  0  0  0  0  0  0  0
   10.1375   -2.5498   13.4930 N   0  0  0  0  0  0  0  0  0  0  0  0
   12.4361    0.7379    9.8570 H   0  0  0  0  0  0  0  0  0  0  0  0
   18.5320   -7.1353   14.4290 H   0  0  0  0  0  0  0  0  0  0  0  0
   18.5183   -5.9290   13.1650 H   0  0  0  0  0  0  0  0  0  0  0  0
   17.9765   -7.5554   12.8265 H   0  0  0  0  0  0  0  0  0  0  0  0
   17.4652   -4.4305   14.2502 H   0  0  0  0  0  0  0  0  0  0  0  0
   16.6332   -4.8715   15.5652 H   0  0  0  0  0  0  0  0  0  0  0  0
   13.9175   -4.5607   15.2538 H   0  0  0  0  0  0  0  0  0  0  0  0
   13.7944   -6.0653   14.4675 H   0  0  0  0  0  0  0  0  0  0  0  0
   12.1626   -4.0002   13.7966 H   0  0  0  0  0  0  0  0  0  0  0  0
   12.6625   -5.0902   12.5725 H   0  0  0  0  0  0  0  0  0  0  0  0
   15.5136   -2.6252   13.6680 H   0  0  0  0  0  0  0  0  0  0  0  0
   15.8422   -3.3017   12.1340 H   0  0  0  0  0  0  0  0  0  0  0  0
   16.5151   -5.5801   11.9445 H   0  0  0  0  0  0  0  0  0  0  0  0
   15.2459   -6.5474   12.1986 H   0  0  0  0  0  0  0  0  0  0  0  0
   16.2344   -2.4370    9.9001 H   0  0  0  0  0  0  0  0  0  0  0  0
   19.1280    0.1827    8.4287 H   0  0  0  0  0  0  0  0  0  0  0  0
   18.5565   -3.4154    9.0464 H   0  0  0  0  0  0  0  0  0  0  0  0
  1  2  2  0  0  0  0
  2  3  1  0  0  0  0
  3 16  1  0  0  0  0
  3  4  2  0  0  0  0
  4  5  1  0  0  0  0
  4 28  1  0  0  0  0
  5  6  2  0  0  0  0
  6 26  1  0  0  0  0
  6  1  1  0  0  0  0
  7  8  1  0  0  0  0
  7 29  1  0  0  0  0
  7 30  1  0  0  0  0
  7 31  1  0  0  0  0
  8  9  1  0  0  0  0
  9 10  1  0  0  0  0
  9 32  1  0  0  0  0
  9 33  1  0  0  0  0
 10 11  1  0  0  0  0
 10 15  1  0  0  0  0
 11 12  1  0  0  0  0
 11 34  1  0  0  0  0
 11 35  1  0  0  0  0
 12 13  1  0  0  0  0
 12 36  1  0  0  0  0
 12 37  1  0  0  0  0
 13  1  1  0  0  0  0
 13 14  1  0  0  0  0
 14 10  1  0  0  0  0
 14 38  1  0  0  0  0
 14 39  1  0  0  0  0
 15  8  1  0  0  0  0
 15 40  1  0  0  0  0
 15 41  1  0  0  0  0
 16 18  1  0  0  0  0
 16 17  1  0  0  0  0
 18 19  2  0  0  0  0
 19 20  1  0  0  0  0
 19 42  1  0  0  0  0
 20 23  1  0  0  0  0
 20 21  1  0  0  0  0
 21 22  2  0  0  0  0
 21 43  1  0  0  0  0
 22 18  1  0  0  0  0
 23 24  1  0  0  0  0
 23 25  1  0  0  0  0
 23 44  1  0  0  0  0
 26 27  3  0  0  0  0
M  END
>  <minimizedAffinity>
-7.78914

$$$$
