L2:O14757:60923


 27 30  0  0  0  0  0  0  0  0999 V2000
   13.3399   -2.2428   11.9463 C   0  0  0  0  0  0  0  0  0  0  0  0
   14.2433   -1.7170   11.0723 N   0  0  0  0  0  0  0  0  0  0  0  0
   13.9268   -0.6490   10.3093 C   0  0  0  0  0  0  0  0  0  0  0  0
   12.6585   -0.0918   10.4290 C   0  0  0  0  0  0  0  0  0  0  0  0
   11.7006   -0.5737   11.2507 N   0  0  0  0  0  0  0  0  0  0  0  0
   12.0667   -1.6552   12.0020 C   0  0  0  0  0  0  0  0  0  0  0  0
   18.0099   -6.7815   13.5647 C   0  0  0  0  0  0  0  0  0  0  0  0
   16.6505   -6.4063   13.9376 N   0  0  0  0  0  0  0  0  0  0  0  0
   16.6223   -5.0370   14.5081 C   0  0  0  0  0  0  0  0  0  0  0  0
   15.3545   -4.7701   13.6607 C   0  0  0  0  0  0  0  0  0  0  0  0
   13.9909   -5.0279   14.2940 C   0  0  0  0  0  0  0  0  0  0  0  0
   13.0241   -4.3877   13.2940 C   0  0  0  0  0  0  0  0  0  0  0  0
   13.7899   -3.3101   12.6806 N   0  0  0  0  0  0  0  0  0  0  0  0
   15.2191   -3.4055   12.9977 C   0  0  0  0  0  0  0  0  0  0  0  0
   15.9006   -5.9105   12.7558 C   0  0  0  0  0  0  0  0  0  0  0  0
   14.8580   -0.0688    9.4248 N   0  0  0  0  0  0  0  0  0  0  0  0
   14.4141    0.5310    8.7434 H   0  0  0  0  0  0  0  0  0  0  0  0
   16.1571   -0.3709    9.2568 C   0  0  0  0  0  0  0  0  0  0  0  0
   16.7102   -1.6001    9.5283 C   0  0  0  0  0  0  0  0  0  0  0  0
   18.0322   -1.4680    9.1962 N   0  0  0  0  0  0  0  0  0  0  0  0
   18.2204   -0.1971    8.7401 C   0  0  0  0  0  0  0  0  0  0  0  0
   17.0956    0.4804    8.7489 N   0  0  0  0  0  0  0  0  0  0  0  0
   19.0534   -2.4909    9.2544 C   0  0  0  0  0  0  0  0  0  0  0  0
   20.0372   -2.2594    8.3475 F   0  0  0  0  0  0  0  0  0  0  0  0
   19.6474   -2.5311   10.4755 F   0  0  0  0  0  0  0  0  0  0  0  0
   11.0037   -2.1501   12.8266 C   0  0  0  0  0  0  0  0  0  0  0  0
   10.1375   -2.5498   13.4930 N   0  0  0  0  0  0  0  0  0  0  0  0
  7  8  1  0  0  0
  8  9  1  0  0  0
  9 10  1  0  0  0
 10 11  1  0  0  0
 11 12  1  0  0  0
 12 13  1  0  0  0
 13  1  1  0  0  0
  1  2  2  0  0  0
  2  3  1  0  0  0
  3 16  1  0  0  0
 16 18  1  0  0  0
 18 19  2  0  0  0
 19 20  1  0  0  0
 20 23  1  0  0  0
 23 24  1  0  0  0
 23 25  1  0  0  0
 20 21  1  0  0  0
 21 22  2  0  0  0
  3  4  2  0  0  0
  4  5  1  0  0  0
  5  6  2  0  0  0
  6 26  1  0  0  0
 26 27  3  0  0  0
 13 14  1  0  0  0
 10 15  1  0  0  0
 15  8  1  0  0  0
 14 10  1  0  0  0
  6  1  1  0  0  0
 22 18  1  0  0  0
 16 17  1  0  0  0
M  END
> <minimizedAffinity>
-7.78914

$$$$
