L2:O14757:60923
     RDKit          3D

 44 47  0  0  0  0  0  0  0  0999 V2000
   -3.6720    3.6937   -0.1427 C   0  0  0  0  0  0  0  0  0  0  0  0
   -3.7999    2.2851   -0.4992 N   0  0  0  0  0  0  0  0  0  0  0  0
   -2.6665    1.8558   -1.3550 C   0  0  0  0  0  0  0  0  0  0  0  0
   -2.5874    0.5636   -0.5061 C   0  0  0  0  0  0  0  0  0  0  0  0
   -3.3650   -0.6618   -0.9758 C   0  0  0  0  0  0  0  0  0  0  0  0
   -2.8172   -1.7768   -0.0807 C   0  0  0  0  0  0  0  0  0  0  0  0
   -1.4539   -1.3643    0.2278 N   0  0  0  0  0  0  0  0  0  0  0  0
   -0.4218   -2.1107    0.7360 C   0  0  0  0  0  0  0  0  0  0  0  0
    0.7943   -1.4961    0.7362 N   0  0  0  0  0  0  0  0  0  0  0  0
    1.8929   -2.1364    1.1899 C   0  0  0  0  0  0  0  0  0  0  0  0
    3.1654   -1.5312    1.1663 N   0  0  0  0  0  0  0  0  0  0  0  0
    3.5820   -0.4806    0.4383 C   0  0  0  0  0  0  0  0  0  0  0  0
    4.7809    0.1665    0.6239 C   0  0  0  0  0  0  0  0  0  0  0  0
    4.8010    1.1438   -0.3353 N   0  0  0  0  0  0  0  0  0  0  0  0
    5.8670    2.0851   -0.6002 C   0  0  0  0  0  0  0  0  0  0  0  0
    5.3769    3.2900   -0.9901 F   0  0  0  0  0  0  0  0  0  0  0  0
    6.6197    2.3083    0.5085 F   0  0  0  0  0  0  0  0  0  0  0  0
    3.6450    1.0463   -1.0513 C   0  0  0  0  0  0  0  0  0  0  0  0
    2.8995    0.0576   -0.6143 N   0  0  0  0  0  0  0  0  0  0  0  0
    1.7637   -3.4386    1.6601 C   0  0  0  0  0  0  0  0  0  0  0  0
    0.5891   -4.1032    1.7184 N   0  0  0  0  0  0  0  0  0  0  0  0
   -0.4945   -3.4148    1.2492 C   0  0  0  0  0  0  0  0  0  0  0  0
   -1.7196   -4.1493    1.3691 C   0  0  0  0  0  0  0  0  0  0  0  0
   -2.7167   -4.7414    1.4666 N   0  0  0  0  0  0  0  0  0  0  0  0
   -1.2049    0.0303   -0.1536 C   0  0  0  0  0  0  0  0  0  0  0  0
   -3.2821    1.4194    0.5905 C   0  0  0  0  0  0  0  0  0  0  0  0
   -2.6780    3.9656    0.2322 H   0  0  0  0  0  0  0  0  0  0  0  0
   -3.8860    4.3194   -1.0159 H   0  0  0  0  0  0  0  0  0  0  0  0
   -4.4057    3.9504    0.6289 H   0  0  0  0  0  0  0  0  0  0  0  0
   -2.9251    1.7140   -2.4090 H   0  0  0  0  0  0  0  0  0  0  0  0
   -1.7646    2.4798   -1.3016 H   0  0  0  0  0  0  0  0  0  0  0  0
   -4.4516   -0.5626   -0.8931 H   0  0  0  0  0  0  0  0  0  0  0  0
   -3.1221   -0.8803   -2.0231 H   0  0  0  0  0  0  0  0  0  0  0  0
   -2.8627   -2.7273   -0.6209 H   0  0  0  0  0  0  0  0  0  0  0  0
   -3.4045   -1.8440    0.8416 H   0  0  0  0  0  0  0  0  0  0  0  0
    3.7565   -1.8567    1.9185 H   0  0  0  0  0  0  0  0  0  0  0  0
    5.5887    0.0308    1.3290 H   0  0  0  0  0  0  0  0  0  0  0  0
    6.5022    1.6778   -1.3921 H   0  0  0  0  0  0  0  0  0  0  0  0
    3.3974    1.7067   -1.8732 H   0  0  0  0  0  0  0  0  0  0  0  0
    2.6235   -3.9993    2.0106 H   0  0  0  0  0  0  0  0  0  0  0  0
   -0.5496    0.0608   -1.0331 H   0  0  0  0  0  0  0  0  0  0  0  0
   -0.7424    0.6064    0.6560 H   0  0  0  0  0  0  0  0  0  0  0  0
   -4.0594    0.9131    1.1717 H   0  0  0  0  0  0  0  0  0  0  0  0
   -2.5927    1.9051    1.2936 H   0  0  0  0  0  0  0  0  0  0  0  0
  1  2  1  0
  2  3  1  0
  3  4  1  0
  4  5  1  0
  5  6  1  0
  6  7  1  0
  7  8  1  0
  8  9  2  0
  9 10  1  0
 10 11  1  0
 11 12  1  0
 12 13  2  0
 13 14  1  0
 14 15  1  0
 15 16  1  0
 15 17  1  0
 14 18  1  0
 18 19  2  0
 10 20  2  0
 20 21  1  0
 21 22  2  0
 22 23  1  0
 23 24  3  0
  7 25  1  0
  4 26  1  0
 26  2  1  0
 25  4  1  0
 22  8  1  0
 19 12  1  0
  1 27  1  0
  1 28  1  0
  1 29  1  0
  3 30  1  0
  3 31  1  0
  5 32  1  0
  5 33  1  0
  6 34  1  0
  6 35  1  0
 11 36  1  0
 13 37  1  0
 15 38  1  0
 18 39  1  0
 20 40  1  0
 25 41  1  0
 25 42  1  0
 26 43  1  0
 26 44  1  0
M  END
>  <mol_id>  (1) 
60923

>  <source_index>  (1) 
4

>  <layer>  (1) 
L2

>  <uniprot>  (1) 
O14757

>  <paff>  (1) 
7.8539000000000003

>  <smiles>  (1) 
CN1CC2(CCN(c3nc(Nc4cn(C(F)F)cn4)cnc3C#N)C2)C1

$$$$
