L2:O14757:64281


 30 33  0  0  0  0  0  0  0  0999 V2000
   13.2401   -1.7415   11.6680 C   0  0  0  0  0  0  0  0  0  0  0  0
   14.5491   -2.1312   11.5532 C   0  0  0  0  0  0  0  0  0  0  0  0
   15.0453   -1.4800   10.4447 N   0  0  0  0  0  0  0  0  0  0  0  0
   13.9862   -0.7410    9.9572 C   0  0  0  0  0  0  0  0  0  0  0  0
   12.8910   -0.8841   10.6731 N   0  0  0  0  0  0  0  0  0  0  0  0
   16.3656   -1.5551    9.9149 C   0  0  0  0  0  0  0  0  0  0  0  0
   17.2346   -2.5815   10.2934 C   0  0  0  0  0  0  0  0  0  0  0  0
   18.5343   -2.6436    9.7647 C   0  0  0  0  0  0  0  0  0  0  0  0
   19.0178   -1.7007    8.8467 C   0  0  0  0  0  0  0  0  0  0  0  0
   18.1260   -0.6824    8.4822 C   0  0  0  0  0  0  0  0  0  0  0  0
   16.8238   -0.6024    9.0016 C   0  0  0  0  0  0  0  0  0  0  0  0
   20.2991   -1.7718    8.3313 N   0  0  0  0  0  0  0  0  0  0  0  0
   21.0928   -3.0085    8.3925 C   0  0  0  0  0  0  0  0  0  0  0  0
   22.6117   -2.7028    8.3878 C   0  0  0  0  0  0  0  0  0  0  0  0
   23.1087   -1.8681    7.2703 N   0  0  0  0  0  0  0  0  0  0  0  0
   22.0080   -1.0807    6.6697 C   0  0  0  0  0  0  0  0  0  0  0  0
   20.9380   -0.6150    7.6836 C   0  0  0  0  0  0  0  0  0  0  0  0
   23.8049   -2.6468    6.2333 C   0  0  0  0  0  0  0  0  0  0  0  0
   22.9166   -3.0220    5.0459 C   0  0  0  0  0  0  0  0  0  0  0  0
   22.4486   -4.2876    5.2364 F   0  0  0  0  0  0  0  0  0  0  0  0
   12.3138   -2.0905   12.5721 N   0  0  0  0  0  0  0  0  0  0  0  0
   12.4767   -2.9850   13.0168 H   0  0  0  0  0  0  0  0  0  0  0  0
    8.6313   -0.5313   13.5884 C   0  0  0  0  0  0  0  0  0  0  0  0
    9.6774    0.3032   13.2369 C   0  0  0  0  0  0  0  0  0  0  0  0
   10.9052   -0.1641   12.8910 N   0  0  0  0  0  0  0  0  0  0  0  0
   11.0765   -1.5083   12.8901 C   0  0  0  0  0  0  0  0  0  0  0  0
   10.0052   -2.3311   13.2628 C   0  0  0  0  0  0  0  0  0  0  0  0
    8.7713   -1.8774   13.6113 N   0  0  0  0  0  0  0  0  0  0  0  0
    6.3167    0.4126   14.2785 N   0  0  0  0  0  0  0  0  0  0  0  0
    7.3522    0.0023   13.9469 C   0  0  0  0  0  0  0  0  0  0  0  0
 29 30  3  0  0  0
 30 23  1  0  0  0
 23 24  2  0  0  0
 24 25  1  0  0  0
 25 26  2  0  0  0
 26 21  1  0  0  0
 21  1  1  0  0  0
  1  2  2  0  0  0
  2  3  1  0  0  0
  3  6  1  0  0  0
  6  7  2  0  0  0
  7  8  1  0  0  0
  8  9  2  0  0  0
  9 12  1  0  0  0
 12 13  1  0  0  0
 13 14  1  0  0  0
 14 15  1  0  0  0
 15 18  1  0  0  0
 18 19  1  0  0  0
 19 20  1  0  0  0
 15 16  1  0  0  0
 16 17  1  0  0  0
  9 10  1  0  0  0
 10 11  2  0  0  0
  3  4  1  0  0  0
  4  5  2  0  0  0
 26 27  1  0  0  0
 27 28  2  0  0  0
 28 23  1  0  0  0
  5  1  1  0  0  0
 11  6  1  0  0  0
 17 12  1  0  0  0
 21 22  1  0  0  0
M  END
> <minimizedAffinity>
-7.27905

$$$$
