L2:O14757:64281
     RDKit          3D

 50 53  0  0  0  0  0  0  0  0999 V2000
    8.6802    3.9436   -4.0590 N   0  0  0  0  0  0  0  0  0  0  0  0
    8.2780    3.1004   -3.3678 C   0  0  0  0  0  0  0  0  0  0  0  0
    7.7315    2.0882   -2.5157 C   0  0  0  0  0  0  0  0  0  0  0  0
    6.4166    2.1502   -2.0898 C   0  0  0  0  0  0  0  0  0  0  0  0
    5.8613    1.2099   -1.2817 N   0  0  0  0  0  0  0  0  0  0  0  0
    6.6578    0.1876   -0.8859 C   0  0  0  0  0  0  0  0  0  0  0  0
    6.1730   -0.8479   -0.0712 N   0  0  0  0  0  0  0  0  0  0  0  0
    4.9260   -1.1414    0.3240 C   0  0  0  0  0  0  0  0  0  0  0  0
    3.7301   -0.5869   -0.0511 C   0  0  0  0  0  0  0  0  0  0  0  0
    2.7579   -1.2647    0.6520 N   0  0  0  0  0  0  0  0  0  0  0  0
    1.3501   -1.0504    0.6096 C   0  0  0  0  0  0  0  0  0  0  0  0
    0.4815   -1.8259    1.3816 C   0  0  0  0  0  0  0  0  0  0  0  0
   -0.9046   -1.6055    1.3298 C   0  0  0  0  0  0  0  0  0  0  0  0
   -1.4781   -0.6150    0.5200 C   0  0  0  0  0  0  0  0  0  0  0  0
   -2.8444   -0.4055    0.4774 N   0  0  0  0  0  0  0  0  0  0  0  0
   -3.4206    0.8667    0.0163 C   0  0  0  0  0  0  0  0  0  0  0  0
   -4.8123    1.1161    0.6498 C   0  0  0  0  0  0  0  0  0  0  0  0
   -5.8157    0.0418    0.4712 N   0  0  0  0  0  0  0  0  0  0  0  0
   -6.8202    0.3553   -0.5580 C   0  0  0  0  0  0  0  0  0  0  0  0
   -7.8496    1.3966   -0.1155 C   0  0  0  0  0  0  0  0  0  0  0  0
   -8.7422    1.5826   -1.1283 F   0  0  0  0  0  0  0  0  0  0  0  0
   -5.1577   -1.2501    0.1707 C   0  0  0  0  0  0  0  0  0  0  0  0
   -3.8002   -1.4485    0.8831 C   0  0  0  0  0  0  0  0  0  0  0  0
   -0.5851    0.1500   -0.2431 C   0  0  0  0  0  0  0  0  0  0  0  0
    0.8033   -0.0570   -0.2064 C   0  0  0  0  0  0  0  0  0  0  0  0
    3.4425   -2.1978    1.4045 C   0  0  0  0  0  0  0  0  0  0  0  0
    4.7449   -2.1450    1.2222 N   0  0  0  0  0  0  0  0  0  0  0  0
    7.9820    0.1408   -1.3418 C   0  0  0  0  0  0  0  0  0  0  0  0
    8.5509    1.0746   -2.1507 N   0  0  0  0  0  0  0  0  0  0  0  0
    5.7550    2.9594   -2.3822 H   0  0  0  0  0  0  0  0  0  0  0  0
    6.8966   -1.3888    0.3850 H   0  0  0  0  0  0  0  0  0  0  0  0
    3.5131    0.2128   -0.7403 H   0  0  0  0  0  0  0  0  0  0  0  0
    0.8307   -2.6116    2.0438 H   0  0  0  0  0  0  0  0  0  0  0  0
   -1.5325   -2.2226    1.9676 H   0  0  0  0  0  0  0  0  0  0  0  0
   -3.5039    0.8574   -1.0772 H   0  0  0  0  0  0  0  0  0  0  0  0
   -2.7799    1.7095    0.3030 H   0  0  0  0  0  0  0  0  0  0  0  0
   -5.1870    2.0855    0.3030 H   0  0  0  0  0  0  0  0  0  0  0  0
   -4.6690    1.2278    1.7328 H   0  0  0  0  0  0  0  0  0  0  0  0
   -7.3867   -0.5514   -0.8092 H   0  0  0  0  0  0  0  0  0  0  0  0
   -6.3437    0.6775   -1.4928 H   0  0  0  0  0  0  0  0  0  0  0  0
   -8.4060    1.0579    0.7637 H   0  0  0  0  0  0  0  0  0  0  0  0
   -7.3965    2.3665    0.1038 H   0  0  0  0  0  0  0  0  0  0  0  0
   -4.9848   -1.3433   -0.9108 H   0  0  0  0  0  0  0  0  0  0  0  0
   -5.8331   -2.0630    0.4621 H   0  0  0  0  0  0  0  0  0  0  0  0
   -3.9359   -1.4246    1.9711 H   0  0  0  0  0  0  0  0  0  0  0  0
   -3.4295   -2.4430    0.6059 H   0  0  0  0  0  0  0  0  0  0  0  0
   -0.9562    0.9220   -0.9122 H   0  0  0  0  0  0  0  0  0  0  0  0
    1.4168    0.5804   -0.8357 H   0  0  0  0  0  0  0  0  0  0  0  0
    2.9548   -2.8947    2.0703 H   0  0  0  0  0  0  0  0  0  0  0  0
    8.6405   -0.6764   -1.0629 H   0  0  0  0  0  0  0  0  0  0  0  0
  1  2  3  0
  2  3  1  0
  3  4  2  0
  4  5  1  0
  5  6  2  0
  6  7  1  0
  7  8  1  0
  8  9  2  0
  9 10  1  0
 10 11  1  0
 11 12  2  0
 12 13  1  0
 13 14  2  0
 14 15  1  0
 15 16  1  0
 16 17  1  0
 17 18  1  0
 18 19  1  0
 19 20  1  0
 20 21  1  0
 18 22  1  0
 22 23  1  0
 14 24  1  0
 24 25  2  0
 10 26  1  0
 26 27  2  0
  6 28  1  0
 28 29  2  0
 29  3  1  0
 27  8  1  0
 25 11  1  0
 23 15  1  0
  4 30  1  0
  7 31  1  0
  9 32  1  0
 12 33  1  0
 13 34  1  0
 16 35  1  0
 16 36  1  0
 17 37  1  0
 17 38  1  0
 19 39  1  0
 19 40  1  0
 20 41  1  0
 20 42  1  0
 22 43  1  0
 22 44  1  0
 23 45  1  0
 23 46  1  0
 24 47  1  0
 25 48  1  0
 26 49  1  0
 28 50  1  0
M  END
>  <mol_id>  (1) 
64281

>  <source_index>  (1) 
5

>  <layer>  (1) 
L2

>  <uniprot>  (1) 
O14757

>  <paff>  (1) 
7.3978999999999999

>  <smiles>  (1) 
N#Cc1cnc(Nc2cn(-c3ccc(N4CCN(CCF)CC4)cc3)cn2)cn1

$$$$
