L2:O14757:72416
 OpenBabel09212617453D

 52 55  0  0  0  0  0  0  0  0999 V2000
   11.7597   -3.3711   13.6428 N   0  0  0  0  0  0  0  0  0  0  0  0
   12.7674   -2.9744   12.7961 C   0  0  0  0  0  0  0  0  0  0  0  0
   12.4722   -1.9261   11.9976 N   0  0  0  0  0  0  0  0  0  0  0  0
   13.4707   -1.4748   11.1887 C   0  0  0  0  0  0  0  0  0  0  0  0
   14.7504   -2.0242   11.1486 C   0  0  0  0  0  0  0  0  0  0  0  0
   15.0563   -3.0812   11.9507 N   0  0  0  0  0  0  0  0  0  0  0  0
   14.0507   -3.5358   12.7642 C   0  0  0  0  0  0  0  0  0  0  0  0
   10.8713   -2.9016   13.5618 H   0  0  0  0  0  0  0  0  0  0  0  0
   11.8393   -4.2681   14.1157 H   0  0  0  0  0  0  0  0  0  0  0  0
   15.8035   -1.4982   10.2556 C   0  0  0  0  0  0  0  0  0  0  0  0
   15.4607   -0.5595    9.3489 N   0  0  0  0  0  0  0  0  0  0  0  0
   16.4393   -0.1027    8.5506 C   0  0  0  0  0  0  0  0  0  0  0  0
   17.7401   -0.5373    8.6207 C   0  0  0  0  0  0  0  0  0  0  0  0
   18.0046   -1.4948    9.5768 C   0  0  0  0  0  0  0  0  0  0  0  0
   17.0523   -1.9869   10.3981 N   0  0  0  0  0  0  0  0  0  0  0  0
   19.3306   -2.0551    9.7733 C   0  0  0  0  0  0  0  0  0  0  0  0
   20.2275   -2.5893    8.8190 C   0  0  0  0  0  0  0  0  0  0  0  0
   21.3648   -3.0280    9.3651 N   0  0  0  0  0  0  0  0  0  0  0  0
   21.2144   -2.7587   10.6725 N   0  0  0  0  0  0  0  0  0  0  0  0
   19.9997   -2.2038   10.9728 C   0  0  0  0  0  0  0  0  0  0  0  0
   22.2493   -3.1489   11.6027 C   0  0  0  0  0  0  0  0  0  0  0  0
   22.1072   -4.5847   12.0239 C   0  0  0  0  0  0  0  0  0  0  0  0
   22.7694   -4.7929   13.1889 F   0  0  0  0  0  0  0  0  0  0  0  0
   22.6493   -5.4272   11.1135 F   0  0  0  0  0  0  0  0  0  0  0  0
   20.8260   -4.9535   12.2221 F   0  0  0  0  0  0  0  0  0  0  0  0
   14.4140   -4.7169   13.6147 C   0  0  0  0  0  0  0  0  0  0  0  0
   13.5732   -5.4787   14.0802 O   0  0  0  0  0  0  0  0  0  0  0  0
   15.7743   -4.8744   13.7994 N   0  0  0  0  0  0  0  0  0  0  0  0
   16.3711   -4.2068   13.3133 H   0  0  0  0  0  0  0  0  0  0  0  0
   16.3538   -5.9741   14.5535 C   0  0  1  0  0  0  0  0  0  0  0  0
   17.5140   -6.6130   13.7731 C   0  0  0  0  0  0  0  0  0  0  0  0
   18.5721   -7.2307   14.6887 C   0  0  0  0  0  0  0  0  0  0  0  0
   17.9758   -7.6863   16.0155 C   0  0  0  0  0  0  0  0  0  0  0  0
   17.3754   -6.5939   16.7817 N   0  0  0  0  0  0  0  0  0  0  0  0
   16.8254   -5.5178   15.9474 C   0  0  0  0  0  0  0  0  0  0  0  0
   18.0594   -6.1982   17.4258 H   0  0  0  0  0  0  0  0  0  0  0  0
   13.2668   -0.6766   10.5671 H   0  0  0  0  0  0  0  0  0  0  0  0
   16.2010    0.6134    7.8467 H   0  0  0  0  0  0  0  0  0  0  0  0
   18.4747   -0.1697    7.9960 H   0  0  0  0  0  0  0  0  0  0  0  0
   20.0248   -2.6352    7.8082 H   0  0  0  0  0  0  0  0  0  0  0  0
   19.6523   -1.9472   11.9101 H   0  0  0  0  0  0  0  0  0  0  0  0
   22.1885   -2.5256   12.4703 H   0  0  0  0  0  0  0  0  0  0  0  0
   23.1951   -3.0369   11.1150 H   0  0  0  0  0  0  0  0  0  0  0  0
   15.5893   -6.7094   14.6938 H   0  0  0  0  0  0  0  0  0  0  0  0
   17.9789   -5.8591   13.1727 H   0  0  0  0  0  0  0  0  0  0  0  0
   17.1058   -7.4001   13.1741 H   0  0  0  0  0  0  0  0  0  0  0  0
   19.3310   -6.5017   14.8821 H   0  0  0  0  0  0  0  0  0  0  0  0
   18.9796   -8.0882   14.1951 H   0  0  0  0  0  0  0  0  0  0  0  0
   18.7527   -8.1278   16.6040 H   0  0  0  0  0  0  0  0  0  0  0  0
   17.1962   -8.3841   15.7914 H   0  0  0  0  0  0  0  0  0  0  0  0
   17.5833   -4.7737   15.8177 H   0  0  0  0  0  0  0  0  0  0  0  0
   15.9609   -5.1466   16.4570 H   0  0  0  0  0  0  0  0  0  0  0  0
  1  2  1  0  0  0  0
  1  8  1  0  0  0  0
  1  9  1  0  0  0  0
  2  3  2  0  0  0  0
  3  4  1  0  0  0  0
  4  5  2  0  0  0  0
  4 37  1  0  0  0  0
  5 10  1  0  0  0  0
  5  6  1  0  0  0  0
  6  7  2  0  0  0  0
  7 26  1  0  0  0  0
  7  2  1  0  0  0  0
 10 11  2  0  0  0  0
 11 12  1  0  0  0  0
 12 13  2  0  0  0  0
 12 38  1  0  0  0  0
 13 14  1  0  0  0  0
 13 39  1  0  0  0  0
 14 16  1  0  0  0  0
 14 15  2  0  0  0  0
 15 10  1  0  0  0  0
 16 17  1  0  0  0  0
 17 18  2  0  0  0  0
 17 40  1  0  0  0  0
 18 19  1  0  0  0  0
 19 21  1  0  0  0  0
 19 20  1  0  0  0  0
 20 16  2  0  0  0  0
 20 41  1  0  0  0  0
 21 22  1  0  0  0  0
 21 42  1  0  0  0  0
 21 43  1  0  0  0  0
 22 23  1  0  0  0  0
 22 24  1  0  0  0  0
 22 25  1  0  0  0  0
 26 27  2  0  0  0  0
 26 28  1  0  0  0  0
 28 30  1  0  0  0  0
 28 29  1  0  0  0  0
 30 31  1  0  0  0  0
 30 44  1  1  0  0  0
 31 32  1  0  0  0  0
 31 45  1  0  0  0  0
 31 46  1  0  0  0  0
 32 33  1  0  0  0  0
 32 47  1  0  0  0  0
 32 48  1  0  0  0  0
 33 34  1  0  0  0  0
 33 49  1  0  0  0  0
 33 50  1  0  0  0  0
 34 35  1  0  0  0  0
 34 36  1  0  0  0  0
 35 30  1  0  0  0  0
 35 51  1  0  0  0  0
 35 52  1  0  0  0  0
M  END
>  <minimizedAffinity>
-7.96093

$$$$
