L2:O14757:72416
     RDKit          3D

 52 55  0  0  0  0  0  0  0  0999 V2000
   -2.3239   -0.0509    4.5804 N   0  0  0  0  0  0  0  0  0  0  0  0
   -1.4951   -0.0185    3.4842 C   0  0  0  0  0  0  0  0  0  0  0  0
   -0.1729   -0.0340    3.7587 N   0  0  0  0  0  0  0  0  0  0  0  0
    0.6719   -0.0603    2.6906 C   0  0  0  0  0  0  0  0  0  0  0  0
    0.2502   -0.0762    1.3628 C   0  0  0  0  0  0  0  0  0  0  0  0
    1.2050   -0.1077    0.2357 C   0  0  0  0  0  0  0  0  0  0  0  0
    0.7099   -0.1223   -1.0194 N   0  0  0  0  0  0  0  0  0  0  0  0
    1.6027   -0.1528   -2.0223 C   0  0  0  0  0  0  0  0  0  0  0  0
    2.9620   -0.1651   -1.8274 C   0  0  0  0  0  0  0  0  0  0  0  0
    3.3825   -0.1452   -0.5145 C   0  0  0  0  0  0  0  0  0  0  0  0
    4.7877   -0.1561   -0.1456 C   0  0  0  0  0  0  0  0  0  0  0  0
    5.3764   -0.2652    1.1358 C   0  0  0  0  0  0  0  0  0  0  0  0
    6.7111   -0.2285    1.0979 N   0  0  0  0  0  0  0  0  0  0  0  0
    6.9892   -0.1169   -0.2115 N   0  0  0  0  0  0  0  0  0  0  0  0
    8.3645    0.0037   -0.6388 C   0  0  0  0  0  0  0  0  0  0  0  0
    8.8413   -1.2382   -1.3384 C   0  0  0  0  0  0  0  0  0  0  0  0
   10.1365   -1.0904   -1.7122 F   0  0  0  0  0  0  0  0  0  0  0  0
    8.1358   -1.4752   -2.4692 F   0  0  0  0  0  0  0  0  0  0  0  0
    8.7725   -2.3403   -0.5655 F   0  0  0  0  0  0  0  0  0  0  0  0
    5.8702   -0.0382   -0.9959 C   0  0  0  0  0  0  0  0  0  0  0  0
    2.5219   -0.1191    0.5258 N   0  0  0  0  0  0  0  0  0  0  0  0
   -1.0812   -0.0610    1.0775 N   0  0  0  0  0  0  0  0  0  0  0  0
   -1.9313   -0.0337    2.1528 C   0  0  0  0  0  0  0  0  0  0  0  0
   -3.3892    0.0089    1.8022 C   0  0  0  0  0  0  0  0  0  0  0  0
   -4.2680    0.1374    2.6478 O   0  0  0  0  0  0  0  0  0  0  0  0
   -3.6403   -0.0850    0.4466 N   0  0  0  0  0  0  0  0  0  0  0  0
   -4.9768   -0.0235   -0.1222 C   0  0  1  0  0  0  0  0  0  0  0  0
   -5.4508    1.4346   -0.2334 C   0  0  0  0  0  0  0  0  0  0  0  0
   -6.4345    1.6495   -1.3848 C   0  0  0  0  0  0  0  0  0  0  0  0
   -7.2244    0.3839   -1.6977 C   0  0  0  0  0  0  0  0  0  0  0  0
   -6.3768   -0.7378   -2.1027 N   0  0  0  0  0  0  0  0  0  0  0  0
   -5.0400   -0.7196   -1.4952 C   0  0  0  0  0  0  0  0  0  0  0  0
   -1.8930   -0.0194    5.4913 H   0  0  0  0  0  0  0  0  0  0  0  0
   -3.3104    0.1640    4.4576 H   0  0  0  0  0  0  0  0  0  0  0  0
    1.7266   -0.0711    2.9515 H   0  0  0  0  0  0  0  0  0  0  0  0
    1.1776   -0.1687   -3.0221 H   0  0  0  0  0  0  0  0  0  0  0  0
    3.6401   -0.1952   -2.6681 H   0  0  0  0  0  0  0  0  0  0  0  0
    4.8806   -0.3668    2.0933 H   0  0  0  0  0  0  0  0  0  0  0  0
    8.4244    0.8719   -1.3038 H   0  0  0  0  0  0  0  0  0  0  0  0
    8.9829    0.2120    0.2410 H   0  0  0  0  0  0  0  0  0  0  0  0
    5.9474    0.0843   -2.0676 H   0  0  0  0  0  0  0  0  0  0  0  0
   -2.8207   -0.1314   -0.1570 H   0  0  0  0  0  0  0  0  0  0  0  0
   -5.6475   -0.5557    0.5659 H   0  0  0  0  0  0  0  0  0  0  0  0
   -4.6025    2.1183   -0.3662 H   0  0  0  0  0  0  0  0  0  0  0  0
   -5.9226    1.7247    0.7140 H   0  0  0  0  0  0  0  0  0  0  0  0
   -7.1165    2.4709   -1.1369 H   0  0  0  0  0  0  0  0  0  0  0  0
   -5.8831    1.9639   -2.2804 H   0  0  0  0  0  0  0  0  0  0  0  0
   -7.8057    0.0866   -0.8165 H   0  0  0  0  0  0  0  0  0  0  0  0
   -7.9511    0.5860   -2.4926 H   0  0  0  0  0  0  0  0  0  0  0  0
   -6.2803   -0.7578   -3.1174 H   0  0  0  0  0  0  0  0  0  0  0  0
   -4.3448   -0.2194   -2.1828 H   0  0  0  0  0  0  0  0  0  0  0  0
   -4.6872   -1.7536   -1.4054 H   0  0  0  0  0  0  0  0  0  0  0  0
  1  2  1  0
  2  3  2  0
  3  4  1  0
  4  5  2  0
  5  6  1  0
  6  7  2  0
  7  8  1  0
  8  9  2  0
  9 10  1  0
 10 11  1  0
 11 12  1  0
 12 13  2  0
 13 14  1  0
 14 15  1  0
 15 16  1  0
 16 17  1  0
 16 18  1  0
 16 19  1  0
 14 20  1  0
 10 21  2  0
  5 22  1  0
 22 23  2  0
 23 24  1  0
 24 25  2  0
 24 26  1  0
 26 27  1  0
 27 28  1  0
 28 29  1  0
 29 30  1  0
 30 31  1  0
 31 32  1  0
 23  2  1  0
 32 27  1  0
 21  6  1  0
 20 11  2  0
  1 33  1  0
  1 34  1  0
  4 35  1  0
  8 36  1  0
  9 37  1  0
 12 38  1  0
 15 39  1  0
 15 40  1  0
 20 41  1  0
 26 42  1  0
 27 43  1  1
 28 44  1  0
 28 45  1  0
 29 46  1  0
 29 47  1  0
 30 48  1  0
 30 49  1  0
 31 50  1  0
 32 51  1  0
 32 52  1  0
M  END
>  <mol_id>  (1) 
72416

>  <source_index>  (1) 
6

>  <layer>  (1) 
L2

>  <uniprot>  (1) 
O14757

>  <paff>  (1) 
6.2595999999999998

>  <smiles>  (1) 
Nc3ncc(c2nccc(c1cnn(CC(F)(F)F)c1)n2)nc3C(=O)N[C@H]4CCCNC4

$$$$
