L4:Q08828:5257
     RDKit          3D

 45 47  0  0  0  0  0  0  0  0999 V2000
  -22.1356  -24.3163  -25.8089 N   0  0  0  0  0  0  0  0  0  0  0  0
  -21.1479  -23.7977  -26.6082 N   0  0  0  0  0  0  0  0  0  0  0  0
  -21.3085  -22.4736  -26.5155 C   0  0  0  0  0  0  0  0  0  0  0  0
  -20.4005  -21.5589  -27.2495 C   0  0  0  0  0  0  0  0  0  0  0  0
  -22.3810  -22.1259  -25.6661 C   0  0  0  0  0  0  0  0  0  0  0  0
  -22.9050  -23.3160  -25.2163 C   0  0  0  0  0  0  0  0  0  0  0  0
  -21.8174  -27.8102  -24.9447 C   0  0  0  0  0  0  0  0  0  0  0  0
  -22.7760  -28.3660  -25.7027 C   0  0  0  0  0  0  0  0  0  0  0  0
  -23.5936  -27.4968  -26.5659 C   0  0  0  0  0  0  0  0  0  0  0  0
  -24.4807  -27.9549  -27.2742 O   0  0  0  0  0  0  0  0  0  0  0  0
  -23.2806  -26.1773  -26.5052 N   0  0  0  0  0  0  0  0  0  0  0  0
  -22.2725  -25.7157  -25.7022 C   0  0  0  0  0  0  0  0  0  0  0  0
  -21.5375  -26.4609  -24.9353 N   0  0  0  0  0  0  0  0  0  0  0  0
  -23.8013  -25.5119  -27.0680 H   0  0  0  0  0  0  0  0  0  0  0  0
  -21.6299  -29.9666  -23.6614 C   0  0  0  0  0  0  0  0  0  0  0  0
  -20.9488  -28.6604  -24.0471 C   0  0  0  0  0  0  0  0  0  0  0  0
  -23.9349  -23.5932  -24.3649 N   0  0  0  0  0  0  0  0  0  0  0  0
  -24.8578  -23.2202  -24.6213 H   0  0  0  0  0  0  0  0  0  0  0  0
  -23.7450  -23.6567  -22.9252 C   0  0  0  0  0  0  0  0  0  0  0  0
  -23.6952  -25.0988  -22.4761 C   0  0  0  0  0  0  0  0  0  0  0  0
  -24.7181  -25.9900  -22.8280 C   0  0  0  0  0  0  0  0  0  0  0  0
  -24.6898  -27.3125  -22.3856 C   0  0  0  0  0  0  0  0  0  0  0  0
  -23.6416  -27.7588  -21.5812 C   0  0  0  0  0  0  0  0  0  0  0  0
  -22.6071  -26.8869  -21.2127 C   0  0  0  0  0  0  0  0  0  0  0  0
  -22.6498  -25.5555  -21.6589 C   0  0  0  0  0  0  0  0  0  0  0  0
  -21.4870  -27.3539  -20.3164 C   0  0  0  0  0  0  0  0  0  0  0  0
  -20.5314  -26.4020  -20.1204 F   0  0  0  0  0  0  0  0  0  0  0  0
  -21.9248  -27.7049  -19.0759 F   0  0  0  0  0  0  0  0  0  0  0  0
  -20.8279  -28.4431  -20.8026 F   0  0  0  0  0  0  0  0  0  0  0  0
  -19.6906  -22.1330  -27.8075 H   0  0  0  0  0  0  0  0  0  0  0  0
  -19.8839  -20.9335  -26.5517 H   0  0  0  0  0  0  0  0  0  0  0  0
  -20.9720  -20.9503  -27.9188 H   0  0  0  0  0  0  0  0  0  0  0  0
  -22.7053  -21.1748  -25.4309 H   0  0  0  0  0  0  0  0  0  0  0  0
  -22.9372  -29.3851  -25.6809 H   0  0  0  0  0  0  0  0  0  0  0  0
  -20.9805  -30.5340  -23.0280 H   0  0  0  0  0  0  0  0  0  0  0  0
  -21.8478  -30.5296  -24.5448 H   0  0  0  0  0  0  0  0  0  0  0  0
  -22.5400  -29.7540  -23.1404 H   0  0  0  0  0  0  0  0  0  0  0  0
  -20.0375  -28.8850  -24.5609 H   0  0  0  0  0  0  0  0  0  0  0  0
  -20.7625  -28.1083  -23.1497 H   0  0  0  0  0  0  0  0  0  0  0  0
  -24.5586  -23.1612  -22.4378 H   0  0  0  0  0  0  0  0  0  0  0  0
  -22.8237  -23.1762  -22.6699 H   0  0  0  0  0  0  0  0  0  0  0  0
  -25.4988  -25.6650  -23.4195 H   0  0  0  0  0  0  0  0  0  0  0  0
  -25.4457  -27.9618  -22.6540 H   0  0  0  0  0  0  0  0  0  0  0  0
  -23.6272  -28.7377  -21.2548 H   0  0  0  0  0  0  0  0  0  0  0  0
  -21.9002  -24.9027  -21.3812 H   0  0  0  0  0  0  0  0  0  0  0  0
  1  2  1  0
  2  3  2  0
  3  4  1  0
  3  5  1  0
  4 30  1  0
  4 31  1  0
  4 32  1  0
  5  6  2  0
  5 33  1  0
  6 17  1  0
  6  1  1  0
  7  8  2  0
  8  9  1  0
  8 34  1  0
  9 10  2  0
  9 11  1  0
 11 12  1  0
 11 14  1  0
 12  1  1  0
 12 13  2  0
 13  7  1  0
 15 16  1  0
 15 35  1  0
 15 36  1  0
 15 37  1  0
 16  7  1  0
 16 38  1  0
 16 39  1  0
 17 19  1  0
 17 18  1  0
 19 20  1  0
 19 40  1  0
 19 41  1  0
 20 21  2  0
 21 22  1  0
 21 42  1  0
 22 23  2  0
 22 43  1  0
 23 24  1  0
 23 44  1  0
 24 26  1  0
 24 25  2  0
 25 20  1  0
 25 45  1  0
 26 27  1  0
 26 28  1  0
 26 29  1  0
M  END
>  <minimizedAffinity>  (1) 
-9.31902

>  <mol_id>  (1) 
5257

>  <source_index>  (1) 
0

>  <layer>  (1) 
L4

>  <uniprot>  (1) 
Q08828

>  <paff>  (1) 
7.1548999999999996

>  <smiles>  (1) 
CCc1cc(=O)[nH]c(-n2nc(C)cc2NCc2cccc(C(F)(F)F)c2)n1

$$$$
L4:Q08828:8454
     RDKit          3D

 54 56  0  0  0  0  0  0  0  0999 V2000
  -22.2466  -28.0978  -23.7189 N   0  0  0  0  0  0  0  0  0  0  0  0
  -22.0311  -28.3232  -22.3819 N   0  0  0  0  0  0  0  0  0  0  0  0
  -22.8688  -27.4808  -21.7669 C   0  0  0  0  0  0  0  0  0  0  0  0
  -22.9158  -27.4219  -20.2856 C   0  0  0  0  0  0  0  0  0  0  0  0
  -23.6318  -26.7262  -22.6829 C   0  0  0  0  0  0  0  0  0  0  0  0
  -23.2213  -27.1254  -23.9342 C   0  0  0  0  0  0  0  0  0  0  0  0
  -21.1765  -30.1697  -26.4807 C   0  0  0  0  0  0  0  0  0  0  0  0
  -19.8426  -30.1557  -26.3291 C   0  0  0  0  0  0  0  0  0  0  0  0
  -19.2627  -29.4018  -25.2048 C   0  0  0  0  0  0  0  0  0  0  0  0
  -18.0532  -29.3667  -25.0177 O   0  0  0  0  0  0  0  0  0  0  0  0
  -20.1685  -28.7694  -24.4164 N   0  0  0  0  0  0  0  0  0  0  0  0
  -21.5123  -28.8384  -24.6685 C   0  0  0  0  0  0  0  0  0  0  0  0
  -22.0473  -29.4992  -25.6490 N   0  0  0  0  0  0  0  0  0  0  0  0
  -19.8485  -28.2280  -23.6191 H   0  0  0  0  0  0  0  0  0  0  0  0
  -21.3691  -32.3780  -27.6719 C   0  0  0  0  0  0  0  0  0  0  0  0
  -21.8180  -30.9238  -27.6223 C   0  0  0  0  0  0  0  0  0  0  0  0
  -23.5860  -26.7193  -25.1827 N   0  0  0  0  0  0  0  0  0  0  0  0
  -24.5493  -26.4018  -25.3326 H   0  0  0  0  0  0  0  0  0  0  0  0
  -22.6321  -26.2388  -26.1701 C   0  0  0  0  0  0  0  0  0  0  0  0
  -22.5125  -24.7307  -26.1963 C   0  0  0  0  0  0  0  0  0  0  0  0
  -23.2948  -23.9858  -27.0851 C   0  0  0  0  0  0  0  0  0  0  0  0
  -23.1706  -22.6001  -27.1379 C   0  0  0  0  0  0  0  0  0  0  0  0
  -22.2593  -21.9401  -26.3089 C   0  0  0  0  0  0  0  0  0  0  0  0
  -21.4456  -22.6489  -25.4117 C   0  0  0  0  0  0  0  0  0  0  0  0
  -21.5864  -24.0519  -25.3840 C   0  0  0  0  0  0  0  0  0  0  0  0
  -20.4332  -21.9588  -24.4807 C   0  0  0  0  0  0  0  0  0  0  0  0
  -19.0529  -21.8922  -25.1700 C   0  0  0  0  0  0  0  0  0  0  0  0
  -20.2326  -22.6836  -23.1302 C   0  0  0  0  0  0  0  0  0  0  0  0
  -20.9124  -20.5256  -24.1640 C   0  0  0  0  0  0  0  0  0  0  0  0
  -22.2140  -28.1195  -19.8785 H   0  0  0  0  0  0  0  0  0  0  0  0
  -23.9010  -27.6700  -19.9499 H   0  0  0  0  0  0  0  0  0  0  0  0
  -22.6663  -26.4337  -19.9598 H   0  0  0  0  0  0  0  0  0  0  0  0
  -24.3504  -26.0198  -22.4602 H   0  0  0  0  0  0  0  0  0  0  0  0
  -19.2340  -30.6646  -26.9892 H   0  0  0  0  0  0  0  0  0  0  0  0
  -21.8468  -32.8709  -28.4927 H   0  0  0  0  0  0  0  0  0  0  0  0
  -21.6374  -32.8655  -26.7580 H   0  0  0  0  0  0  0  0  0  0  0  0
  -20.3076  -32.4194  -27.7999 H   0  0  0  0  0  0  0  0  0  0  0  0
  -22.8807  -30.8947  -27.5011 H   0  0  0  0  0  0  0  0  0  0  0  0
  -21.5186  -30.4551  -28.5364 H   0  0  0  0  0  0  0  0  0  0  0  0
  -22.9461  -26.5722  -27.1371 H   0  0  0  0  0  0  0  0  0  0  0  0
  -21.6726  -26.6300  -25.9030 H   0  0  0  0  0  0  0  0  0  0  0  0
  -23.9668  -24.4654  -27.7043 H   0  0  0  0  0  0  0  0  0  0  0  0
  -23.7548  -22.0572  -27.7929 H   0  0  0  0  0  0  0  0  0  0  0  0
  -22.1833  -20.9120  -26.3575 H   0  0  0  0  0  0  0  0  0  0  0  0
  -20.9889  -24.5997  -24.7453 H   0  0  0  0  0  0  0  0  0  0  0  0
  -18.7166  -22.8835  -25.3915 H   0  0  0  0  0  0  0  0  0  0  0  0
  -18.3514  -21.4149  -24.5181 H   0  0  0  0  0  0  0  0  0  0  0  0
  -19.1343  -21.3320  -26.0780 H   0  0  0  0  0  0  0  0  0  0  0  0
  -19.8991  -23.6845  -23.3087 H   0  0  0  0  0  0  0  0  0  0  0  0
  -21.1597  -22.7064  -22.5965 H   0  0  0  0  0  0  0  0  0  0  0  0
  -19.5001  -22.1616  -22.5506 H   0  0  0  0  0  0  0  0  0  0  0  0
  -21.0630  -19.9898  -25.0778 H   0  0  0  0  0  0  0  0  0  0  0  0
  -20.1733  -20.0245  -23.5744 H   0  0  0  0  0  0  0  0  0  0  0  0
  -21.8329  -20.5693  -23.6203 H   0  0  0  0  0  0  0  0  0  0  0  0
  1  2  1  0
  2  3  2  0
  3  4  1  0
  3  5  1  0
  4 30  1  0
  4 31  1  0
  4 32  1  0
  5  6  2  0
  5 33  1  0
  6 17  1  0
  6  1  1  0
  7  8  2  0
  8  9  1  0
  8 34  1  0
  9 10  2  0
  9 11  1  0
 11 12  1  0
 11 14  1  0
 12  1  1  0
 12 13  2  0
 13  7  1  0
 15 16  1  0
 15 35  1  0
 15 36  1  0
 15 37  1  0
 16  7  1  0
 16 38  1  0
 16 39  1  0
 17 19  1  0
 17 18  1  0
 19 20  1  0
 19 40  1  0
 19 41  1  0
 20 21  2  0
 21 22  1  0
 21 42  1  0
 22 23  2  0
 22 43  1  0
 23 24  1  0
 23 44  1  0
 24 26  1  0
 24 25  2  0
 25 20  1  0
 25 45  1  0
 26 27  1  0
 26 28  1  0
 26 29  1  0
 27 46  1  0
 27 47  1  0
 27 48  1  0
 28 49  1  0
 28 50  1  0
 28 51  1  0
 29 52  1  0
 29 53  1  0
 29 54  1  0
M  END
>  <minimizedAffinity>  (2) 
-9.91535

>  <mol_id>  (2) 
8454

>  <source_index>  (2) 
1

>  <layer>  (2) 
L4

>  <uniprot>  (2) 
Q08828

>  <paff>  (2) 
6.7958999999999996

>  <smiles>  (2) 
CCc1cc(=O)[nH]c(-n2nc(C)cc2NCc2cccc(C(C)(C)C)c2)n1

$$$$
L4:Q08828:58941
     RDKit          3D

 45 47  0  0  0  0  0  0  0  0999 V2000
  -22.2301  -27.7786  -23.7711 N   0  0  0  0  0  0  0  0  0  0  0  0
  -21.8951  -27.8263  -22.4500 N   0  0  0  0  0  0  0  0  0  0  0  0
  -22.8519  -27.1384  -21.8246 C   0  0  0  0  0  0  0  0  0  0  0  0
  -22.8393  -27.0294  -20.3459 C   0  0  0  0  0  0  0  0  0  0  0  0
  -23.7683  -26.5653  -22.7296 C   0  0  0  0  0  0  0  0  0  0  0  0
  -23.3206  -26.9158  -23.9836 C   0  0  0  0  0  0  0  0  0  0  0  0
  -21.2546  -29.9241  -26.5337 C   0  0  0  0  0  0  0  0  0  0  0  0
  -19.9278  -30.0229  -26.3485 C   0  0  0  0  0  0  0  0  0  0  0  0
  -19.3146  -29.3141  -25.2144 C   0  0  0  0  0  0  0  0  0  0  0  0
  -18.1086  -29.3564  -25.0033 O   0  0  0  0  0  0  0  0  0  0  0  0
  -20.1804  -28.6251  -24.4301 N   0  0  0  0  0  0  0  0  0  0  0  0
  -21.5225  -28.5805  -24.7011 C   0  0  0  0  0  0  0  0  0  0  0  0
  -22.0751  -29.1872  -25.7048 N   0  0  0  0  0  0  0  0  0  0  0  0
  -19.7985  -28.0914  -23.6548 H   0  0  0  0  0  0  0  0  0  0  0  0
  -21.7106  -32.0809  -27.9078 C   0  0  0  0  0  0  0  0  0  0  0  0
  -21.9999  -30.6036  -27.6679 C   0  0  0  0  0  0  0  0  0  0  0  0
  -23.7562  -26.5688  -25.2413 N   0  0  0  0  0  0  0  0  0  0  0  0
  -24.4227  -27.2351  -25.6446 H   0  0  0  0  0  0  0  0  0  0  0  0
  -22.7922  -26.1619  -26.2682 C   0  0  0  0  0  0  0  0  0  0  0  0
  -22.2160  -24.8078  -25.9294 C   0  0  0  0  0  0  0  0  0  0  0  0
  -22.9726  -23.6421  -26.1072 C   0  0  0  0  0  0  0  0  0  0  0  0
  -22.4298  -22.3906  -25.8042 C   0  0  0  0  0  0  0  0  0  0  0  0
  -21.1156  -22.2780  -25.3265 C   0  0  0  0  0  0  0  0  0  0  0  0
  -20.3604  -23.4452  -25.1440 C   0  0  0  0  0  0  0  0  0  0  0  0
  -20.9036  -24.6963  -25.4452 C   0  0  0  0  0  0  0  0  0  0  0  0
  -20.5405  -20.9265  -24.9811 C   0  0  0  0  0  0  0  0  0  0  0  0
  -20.2762  -20.1632  -26.0782 F   0  0  0  0  0  0  0  0  0  0  0  0
  -21.3855  -20.1883  -24.2094 F   0  0  0  0  0  0  0  0  0  0  0  0
  -19.3696  -20.9988  -24.2895 F   0  0  0  0  0  0  0  0  0  0  0  0
  -22.0106  -27.5817  -19.9546 H   0  0  0  0  0  0  0  0  0  0  0  0
  -23.7510  -27.4268  -19.9512 H   0  0  0  0  0  0  0  0  0  0  0  0
  -22.7472  -26.0011  -20.0648 H   0  0  0  0  0  0  0  0  0  0  0  0
  -24.6011  -26.0007  -22.5001 H   0  0  0  0  0  0  0  0  0  0  0  0
  -19.3486  -30.5862  -26.9906 H   0  0  0  0  0  0  0  0  0  0  0  0
  -22.2990  -32.4306  -28.7302 H   0  0  0  0  0  0  0  0  0  0  0  0
  -21.9575  -32.6399  -27.0295 H   0  0  0  0  0  0  0  0  0  0  0  0
  -20.6723  -32.2092  -28.1321 H   0  0  0  0  0  0  0  0  0  0  0  0
  -23.0466  -30.5095  -27.4667 H   0  0  0  0  0  0  0  0  0  0  0  0
  -21.6610  -30.1096  -28.5545 H   0  0  0  0  0  0  0  0  0  0  0  0
  -23.2855  -26.1098  -27.2163 H   0  0  0  0  0  0  0  0  0  0  0  0
  -21.9999  -26.8799  -26.3099 H   0  0  0  0  0  0  0  0  0  0  0  0
  -23.9384  -23.7082  -26.4648 H   0  0  0  0  0  0  0  0  0  0  0  0
  -23.0012  -21.5410  -25.9331 H   0  0  0  0  0  0  0  0  0  0  0  0
  -19.3954  -23.3794  -24.7842 H   0  0  0  0  0  0  0  0  0  0  0  0
  -20.3345  -25.5466  -25.3104 H   0  0  0  0  0  0  0  0  0  0  0  0
  1  2  1  0
  2  3  2  0
  3  4  1  0
  3  5  1  0
  4 30  1  0
  4 31  1  0
  4 32  1  0
  5  6  2  0
  5 33  1  0
  6 17  1  0
  6  1  1  0
  7  8  2  0
  8  9  1  0
  8 34  1  0
  9 10  2  0
  9 11  1  0
 11 12  1  0
 11 14  1  0
 12  1  1  0
 12 13  2  0
 13  7  1  0
 15 16  1  0
 15 35  1  0
 15 36  1  0
 15 37  1  0
 16  7  1  0
 16 38  1  0
 16 39  1  0
 17 19  1  0
 17 18  1  0
 19 20  1  0
 19 40  1  0
 19 41  1  0
 20 21  2  0
 21 22  1  0
 21 42  1  0
 22 23  2  0
 22 43  1  0
 23 26  1  0
 23 24  1  0
 24 25  2  0
 24 44  1  0
 25 20  1  0
 25 45  1  0
 26 27  1  0
 26 28  1  0
 26 29  1  0
M  END
>  <minimizedAffinity>  (3) 
-9.84781

>  <mol_id>  (3) 
58941

>  <source_index>  (3) 
2

>  <layer>  (3) 
L4

>  <uniprot>  (3) 
Q08828

>  <paff>  (3) 
6.5686

>  <smiles>  (3) 
CCc1cc(=O)[nH]c(-n2nc(C)cc2NCc2ccc(C(F)(F)F)cc2)n1

$$$$
L4:Q08828:60610
     RDKit          3D

 51 53  0  0  0  0  0  0  0  0999 V2000
  -22.3530  -28.0852  -23.8010 N   0  0  0  0  0  0  0  0  0  0  0  0
  -22.1166  -28.2153  -22.4544 N   0  0  0  0  0  0  0  0  0  0  0  0
  -22.9658  -27.3531  -21.8861 C   0  0  0  0  0  0  0  0  0  0  0  0
  -23.0127  -27.2122  -20.4109 C   0  0  0  0  0  0  0  0  0  0  0  0
  -23.7548  -26.6753  -22.8405 C   0  0  0  0  0  0  0  0  0  0  0  0
  -23.3651  -27.1638  -24.0662 C   0  0  0  0  0  0  0  0  0  0  0  0
  -21.1770  -30.2113  -26.4769 C   0  0  0  0  0  0  0  0  0  0  0  0
  -19.8483  -30.1742  -26.2883 C   0  0  0  0  0  0  0  0  0  0  0  0
  -19.3092  -29.3636  -25.1835 C   0  0  0  0  0  0  0  0  0  0  0  0
  -18.1054  -29.2911  -24.9744 O   0  0  0  0  0  0  0  0  0  0  0  0
  -20.2452  -28.7214  -24.4398 N   0  0  0  0  0  0  0  0  0  0  0  0
  -21.5823  -28.8387  -24.7108 C   0  0  0  0  0  0  0  0  0  0  0  0
  -22.0811  -29.5438  -25.6793 N   0  0  0  0  0  0  0  0  0  0  0  0
  -19.9546  -28.1403  -23.6596 H   0  0  0  0  0  0  0  0  0  0  0  0
  -22.6258  -30.1877  -28.5308 C   0  0  0  0  0  0  0  0  0  0  0  0
  -21.7786  -31.0345  -27.5920 C   0  0  0  0  0  0  0  0  0  0  0  0
  -23.8013  -26.9017  -25.3289 N   0  0  0  0  0  0  0  0  0  0  0  0
  -24.5349  -27.5011  -25.7240 H   0  0  0  0  0  0  0  0  0  0  0  0
  -22.9983  -26.1897  -26.3085 C   0  0  0  0  0  0  0  0  0  0  0  0
  -22.6206  -24.7812  -25.8167 C   0  0  2  0  0  0  0  0  0  0  0  0
  -23.0185  -23.7385  -26.8734 C   0  0  0  0  0  0  0  0  0  0  0  0
  -22.6174  -22.3241  -26.4612 C   0  0  0  0  0  0  0  0  0  0  0  0
  -21.1178  -22.2299  -26.1607 C   0  0  1  0  0  0  0  0  0  0  0  0
  -20.7423  -20.8167  -25.7199 C   0  0  0  0  0  0  0  0  0  0  0  0
  -20.7178  -23.2559  -25.0943 C   0  0  0  0  0  0  0  0  0  0  0  0
  -21.1204  -24.6752  -25.4926 C   0  0  0  0  0  0  0  0  0  0  0  0
  -22.2883  -27.8629  -19.9673 H   0  0  0  0  0  0  0  0  0  0  0  0
  -23.9890  -27.4723  -20.0586 H   0  0  0  0  0  0  0  0  0  0  0  0
  -22.7946  -26.1997  -20.1422 H   0  0  0  0  0  0  0  0  0  0  0  0
  -24.4758  -25.9602  -22.6566 H   0  0  0  0  0  0  0  0  0  0  0  0
  -19.2155  -30.7048  -26.9072 H   0  0  0  0  0  0  0  0  0  0  0  0
  -23.0311  -30.8080  -29.3027 H   0  0  0  0  0  0  0  0  0  0  0  0
  -22.0176  -29.4243  -28.9692 H   0  0  0  0  0  0  0  0  0  0  0  0
  -23.4243  -29.7355  -27.9805 H   0  0  0  0  0  0  0  0  0  0  0  0
  -20.9878  -31.4867  -28.1532 H   0  0  0  0  0  0  0  0  0  0  0  0
  -22.4126  -31.7755  -27.1516 H   0  0  0  0  0  0  0  0  0  0  0  0
  -23.5565  -26.1020  -27.2171 H   0  0  0  0  0  0  0  0  0  0  0  0
  -22.0955  -26.7421  -26.4659 H   0  0  0  0  0  0  0  0  0  0  0  0
  -23.1563  -24.5901  -24.9104 H   0  0  0  0  0  0  0  0  0  0  0  0
  -24.0794  -23.7711  -27.0084 H   0  0  0  0  0  0  0  0  0  0  0  0
  -22.5051  -23.9760  -27.7816 H   0  0  0  0  0  0  0  0  0  0  0  0
  -23.1655  -22.0490  -25.5844 H   0  0  0  0  0  0  0  0  0  0  0  0
  -22.8391  -21.6627  -27.2726 H   0  0  0  0  0  0  0  0  0  0  0  0
  -20.5801  -22.4516  -27.0588 H   0  0  0  0  0  0  0  0  0  0  0  0
  -21.2689  -20.5716  -24.8213 H   0  0  0  0  0  0  0  0  0  0  0  0
  -21.0064  -20.1212  -26.4890 H   0  0  0  0  0  0  0  0  0  0  0  0
  -19.6886  -20.7671  -25.5406 H   0  0  0  0  0  0  0  0  0  0  0  0
  -21.2010  -23.0044  -24.1733 H   0  0  0  0  0  0  0  0  0  0  0  0
  -19.6532  -23.2292  -24.9900 H   0  0  0  0  0  0  0  0  0  0  0  0
  -20.8944  -25.3379  -24.6835 H   0  0  0  0  0  0  0  0  0  0  0  0
  -20.5733  -24.9381  -26.3738 H   0  0  0  0  0  0  0  0  0  0  0  0
  1  2  1  0
  2  3  2  0
  3  4  1  0
  3  5  1  0
  4 27  1  0
  4 28  1  0
  4 29  1  0
  5  6  2  0
  5 30  1  0
  6 17  1  0
  6  1  1  0
  7  8  2  0
  8  9  1  0
  8 31  1  0
  9 10  2  0
  9 11  1  0
 11 12  1  0
 11 14  1  0
 12  1  1  0
 12 13  2  0
 13  7  1  0
 15 16  1  0
 15 32  1  0
 15 33  1  0
 15 34  1  0
 16  7  1  0
 16 35  1  0
 16 36  1  0
 17 19  1  0
 17 18  1  0
 19 20  1  0
 19 37  1  0
 19 38  1  0
 20 21  1  0
 20 39  1  1
 21 22  1  0
 21 40  1  0
 21 41  1  0
 22 23  1  0
 22 42  1  0
 22 43  1  0
 23 24  1  0
 23 25  1  0
 23 44  1  6
 24 45  1  0
 24 46  1  0
 24 47  1  0
 25 26  1  0
 25 48  1  0
 25 49  1  0
 26 20  1  0
 26 50  1  0
 26 51  1  0
M  END
>  <minimizedAffinity>  (4) 
-9.47349

>  <mol_id>  (4) 
60610

>  <source_index>  (4) 
3

>  <layer>  (4) 
L4

>  <uniprot>  (4) 
Q08828

>  <paff>  (4) 
6.9585999999999997

>  <smiles>  (4) 
CCc1cc(=O)[nH]c(-n2nc(C)cc2NCC2CCC(C)CC2)n1

$$$$
L4:Q08828:64492
     RDKit          3D

 48 51  0  0  0  0  0  0  0  0999 V2000
  -22.4391  -25.4630  -24.0365 N   0  0  0  0  0  0  0  0  0  0  0  0
  -23.0079  -25.2243  -22.8186 N   0  0  0  0  0  0  0  0  0  0  0  0
  -23.0668  -26.4173  -22.2219 C   0  0  0  0  0  0  0  0  0  0  0  0
  -23.6914  -26.5461  -20.8834 C   0  0  0  0  0  0  0  0  0  0  0  0
  -22.4685  -27.4276  -23.0001 C   0  0  0  0  0  0  0  0  0  0  0  0
  -21.9912  -26.7902  -24.1215 C   0  0  0  0  0  0  0  0  0  0  0  0
  -21.9197  -22.3591  -25.8435 C   0  0  0  0  0  0  0  0  0  0  0  0
  -22.4947  -22.6297  -27.0265 C   0  0  0  0  0  0  0  0  0  0  0  0
  -23.1034  -23.9525  -27.2336 C   0  0  0  0  0  0  0  0  0  0  0  0
  -23.6252  -24.2590  -28.2984 O   0  0  0  0  0  0  0  0  0  0  0  0
  -23.0319  -24.7938  -26.1717 N   0  0  0  0  0  0  0  0  0  0  0  0
  -22.4088  -24.4318  -25.0068 C   0  0  0  0  0  0  0  0  0  0  0  0
  -21.8683  -23.2701  -24.8094 N   0  0  0  0  0  0  0  0  0  0  0  0
  -23.4586  -25.7111  -26.2626 H   0  0  0  0  0  0  0  0  0  0  0  0
  -19.9896  -20.6726  -26.2649 C   0  0  0  0  0  0  0  0  0  0  0  0
  -21.2641  -21.0318  -25.5095 C   0  0  0  0  0  0  0  0  0  0  0  0
  -21.2467  -27.3037  -25.1582 N   0  0  0  0  0  0  0  0  0  0  0  0
  -21.8246  -27.5942  -25.9540 H   0  0  0  0  0  0  0  0  0  0  0  0
  -20.3764  -28.4575  -24.8292 C   0  0  0  0  0  0  0  0  0  0  0  0
  -20.6802  -29.6313  -25.7283 C   0  0  0  0  0  0  0  0  0  0  0  0
  -20.1270  -30.8899  -25.4665 C   0  0  0  0  0  0  0  0  0  0  0  0
  -20.4318  -31.9814  -26.2825 C   0  0  0  0  0  0  0  0  0  0  0  0
  -21.3000  -31.8404  -27.3753 C   0  0  0  0  0  0  0  0  0  0  0  0
  -21.6161  -32.9293  -28.2038 C   0  0  0  0  0  0  0  0  0  0  0  0
  -22.4831  -32.7736  -29.2864 C   0  0  0  0  0  0  0  0  0  0  0  0
  -23.0446  -31.5288  -29.5541 C   0  0  0  0  0  0  0  0  0  0  0  0
  -22.7404  -30.4364  -28.7400 C   0  0  0  0  0  0  0  0  0  0  0  0
  -21.8698  -30.5760  -27.6467 C   0  0  0  0  0  0  0  0  0  0  0  0
  -21.5543  -29.4865  -26.8171 C   0  0  0  0  0  0  0  0  0  0  0  0
  -24.0535  -25.5908  -20.5653 H   0  0  0  0  0  0  0  0  0  0  0  0
  -22.9649  -26.9032  -20.1837 H   0  0  0  0  0  0  0  0  0  0  0  0
  -24.5066  -27.2373  -20.9352 H   0  0  0  0  0  0  0  0  0  0  0  0
  -22.4023  -28.4329  -22.7763 H   0  0  0  0  0  0  0  0  0  0  0  0
  -22.5092  -21.9218  -27.7773 H   0  0  0  0  0  0  0  0  0  0  0  0
  -19.6359  -19.7185  -25.9342 H   0  0  0  0  0  0  0  0  0  0  0  0
  -20.1961  -20.6324  -27.3140 H   0  0  0  0  0  0  0  0  0  0  0  0
  -19.2422  -21.4149  -26.0767 H   0  0  0  0  0  0  0  0  0  0  0  0
  -21.9808  -20.2613  -25.7035 H   0  0  0  0  0  0  0  0  0  0  0  0
  -20.9612  -21.1242  -24.4874 H   0  0  0  0  0  0  0  0  0  0  0  0
  -20.5422  -28.7430  -23.8114 H   0  0  0  0  0  0  0  0  0  0  0  0
  -19.3560  -28.1697  -24.9737 H   0  0  0  0  0  0  0  0  0  0  0  0
  -19.4891  -31.0123  -24.6645 H   0  0  0  0  0  0  0  0  0  0  0  0
  -20.0134  -32.9026  -26.0792 H   0  0  0  0  0  0  0  0  0  0  0  0
  -21.2028  -33.8548  -28.0100 H   0  0  0  0  0  0  0  0  0  0  0  0
  -22.7077  -33.5814  -29.8882 H   0  0  0  0  0  0  0  0  0  0  0  0
  -23.6858  -31.4133  -30.3544 H   0  0  0  0  0  0  0  0  0  0  0  0
  -23.1599  -29.5158  -28.9438 H   0  0  0  0  0  0  0  0  0  0  0  0
  -21.9727  -28.5634  -27.0118 H   0  0  0  0  0  0  0  0  0  0  0  0
  1  2  1  0
  2  3  2  0
  3  4  1  0
  3  5  1  0
  4 30  1  0
  4 31  1  0
  4 32  1  0
  5  6  2  0
  5 33  1  0
  6 17  1  0
  6  1  1  0
  7  8  2  0
  8  9  1  0
  8 34  1  0
  9 10  2  0
  9 11  1  0
 11 12  1  0
 11 14  1  0
 12  1  1  0
 12 13  2  0
 13  7  1  0
 15 16  1  0
 15 35  1  0
 15 36  1  0
 15 37  1  0
 16  7  1  0
 16 38  1  0
 16 39  1  0
 17 19  1  0
 17 18  1  0
 19 20  1  0
 19 40  1  0
 19 41  1  0
 20 21  2  0
 21 22  1  0
 21 42  1  0
 22 23  2  0
 22 43  1  0
 23 24  1  0
 24 25  2  0
 24 44  1  0
 25 26  1  0
 25 45  1  0
 26 27  2  0
 26 46  1  0
 27 28  1  0
 27 47  1  0
 28 29  2  0
 28 23  1  0
 29 20  1  0
 29 48  1  0
M  END
>  <minimizedAffinity>  (5) 
-10.50835

>  <mol_id>  (5) 
64492

>  <source_index>  (5) 
4

>  <layer>  (5) 
L4

>  <uniprot>  (5) 
Q08828

>  <paff>  (5) 
6.6989999999999998

>  <smiles>  (5) 
CCc1cc(=O)[nH]c(-n2nc(C)cc2NCc2ccc3ccccc3c2)n1

$$$$
L4:Q08828:67558
     RDKit          3D

 48 50  0  0  0  0  0  0  0  0999 V2000
  -22.1647  -24.3639  -25.8513 N   0  0  0  0  0  0  0  0  0  0  0  0
  -21.1693  -23.8712  -26.6444 N   0  0  0  0  0  0  0  0  0  0  0  0
  -21.3727  -22.5530  -26.6868 C   0  0  0  0  0  0  0  0  0  0  0  0
  -20.4850  -21.6937  -27.5069 C   0  0  0  0  0  0  0  0  0  0  0  0
  -22.4683  -22.1603  -25.8926 C   0  0  0  0  0  0  0  0  0  0  0  0
  -22.9367  -23.3186  -25.3180 C   0  0  0  0  0  0  0  0  0  0  0  0
  -21.8616  -27.8219  -24.8067 C   0  0  0  0  0  0  0  0  0  0  0  0
  -22.7910  -28.4275  -25.5621 C   0  0  0  0  0  0  0  0  0  0  0  0
  -23.5871  -27.6067  -26.4858 C   0  0  0  0  0  0  0  0  0  0  0  0
  -24.4875  -28.0847  -27.1642 O   0  0  0  0  0  0  0  0  0  0  0  0
  -23.2560  -26.2916  -26.5149 N   0  0  0  0  0  0  0  0  0  0  0  0
  -22.3018  -25.7643  -25.6856 C   0  0  0  0  0  0  0  0  0  0  0  0
  -21.6021  -26.4701  -24.8526 N   0  0  0  0  0  0  0  0  0  0  0  0
  -23.7777  -25.6813  -27.1380 H   0  0  0  0  0  0  0  0  0  0  0  0
  -21.6839  -29.9025  -23.4023 C   0  0  0  0  0  0  0  0  0  0  0  0
  -21.0052  -28.6141  -23.8467 C   0  0  0  0  0  0  0  0  0  0  0  0
  -23.9747  -23.5055  -24.4310 N   0  0  0  0  0  0  0  0  0  0  0  0
  -24.6627  -22.7452  -24.5054 H   0  0  0  0  0  0  0  0  0  0  0  0
  -23.6027  -23.5255  -22.9869 C   0  0  2  0  0  0  0  0  0  0  0  0
  -22.2013  -22.9594  -22.7463 C   0  0  0  0  0  0  0  0  0  0  0  0
  -23.7092  -24.9613  -22.4928 C   0  0  0  0  0  0  0  0  0  0  0  0
  -24.7027  -25.8056  -23.0112 C   0  0  0  0  0  0  0  0  0  0  0  0
  -24.8081  -27.1293  -22.5827 C   0  0  0  0  0  0  0  0  0  0  0  0
  -23.9219  -27.6300  -21.6302 C   0  0  0  0  0  0  0  0  0  0  0  0
  -22.9185  -26.8116  -21.0932 C   0  0  0  0  0  0  0  0  0  0  0  0
  -22.8197  -25.4802  -21.5340 C   0  0  0  0  0  0  0  0  0  0  0  0
  -21.9458  -27.3420  -20.0662 C   0  0  0  0  0  0  0  0  0  0  0  0
  -22.5732  -27.9358  -19.0147 F   0  0  0  0  0  0  0  0  0  0  0  0
  -21.1509  -26.3752  -19.5253 F   0  0  0  0  0  0  0  0  0  0  0  0
  -21.0967  -28.2729  -20.5804 F   0  0  0  0  0  0  0  0  0  0  0  0
  -19.7479  -22.3006  -27.9898 H   0  0  0  0  0  0  0  0  0  0  0  0
  -20.0003  -20.9776  -26.8768 H   0  0  0  0  0  0  0  0  0  0  0  0
  -21.0663  -21.1829  -28.2459 H   0  0  0  0  0  0  0  0  0  0  0  0
  -22.8404  -21.2058  -25.7684 H   0  0  0  0  0  0  0  0  0  0  0  0
  -22.9433  -29.4461  -25.4960 H   0  0  0  0  0  0  0  0  0  0  0  0
  -21.0429  -30.4284  -22.7259 H   0  0  0  0  0  0  0  0  0  0  0  0
  -21.8802  -30.5154  -24.2571 H   0  0  0  0  0  0  0  0  0  0  0  0
  -22.6056  -29.6692  -22.9115 H   0  0  0  0  0  0  0  0  0  0  0  0
  -20.0823  -28.8592  -24.3294 H   0  0  0  0  0  0  0  0  0  0  0  0
  -20.8411  -28.0117  -22.9777 H   0  0  0  0  0  0  0  0  0  0  0  0
  -24.2731  -22.8960  -22.4400 H   0  0  0  0  0  0  0  0  0  0  0  0
  -21.4821  -23.5520  -23.2722 H   0  0  0  0  0  0  0  0  0  0  0  0
  -21.9832  -22.9802  -21.6990 H   0  0  0  0  0  0  0  0  0  0  0  0
  -22.1588  -21.9503  -23.0995 H   0  0  0  0  0  0  0  0  0  0  0  0
  -25.3627  -25.4436  -23.7172 H   0  0  0  0  0  0  0  0  0  0  0  0
  -25.5440  -27.7392  -22.9719 H   0  0  0  0  0  0  0  0  0  0  0  0
  -24.0052  -28.6102  -21.3182 H   0  0  0  0  0  0  0  0  0  0  0  0
  -22.0810  -24.8722  -21.1471 H   0  0  0  0  0  0  0  0  0  0  0  0
  1  2  1  0
  2  3  2  0
  3  4  1  0
  3  5  1  0
  4 31  1  0
  4 32  1  0
  4 33  1  0
  5  6  2  0
  5 34  1  0
  6 17  1  0
  6  1  1  0
  7  8  2  0
  8  9  1  0
  8 35  1  0
  9 10  2  0
  9 11  1  0
 11 12  1  0
 11 14  1  0
 12  1  1  0
 12 13  2  0
 13  7  1  0
 15 16  1  0
 15 36  1  0
 15 37  1  0
 15 38  1  0
 16  7  1  0
 16 39  1  0
 16 40  1  0
 17 19  1  0
 17 18  1  0
 19 20  1  0
 19 21  1  0
 19 41  1  1
 20 42  1  0
 20 43  1  0
 20 44  1  0
 21 22  2  0
 22 23  1  0
 22 45  1  0
 23 24  2  0
 23 46  1  0
 24 25  1  0
 24 47  1  0
 25 27  1  0
 25 26  2  0
 26 21  1  0
 26 48  1  0
 27 28  1  0
 27 29  1  0
 27 30  1  0
M  END
>  <minimizedAffinity>  (6) 
-9.42347

>  <mol_id>  (6) 
67558

>  <source_index>  (6) 
5

>  <layer>  (6) 
L4

>  <uniprot>  (6) 
Q08828

>  <paff>  (6) 
6.6021000000000001

>  <smiles>  (6) 
CCc1cc(=O)[nH]c(-n2nc(C)cc2NC(C)c2cccc(C(F)(F)F)c2)n1

$$$$
L4:Q08828:74153
     RDKit          3D

 48 50  0  0  0  0  0  0  0  0999 V2000
  -21.9225  -26.8163  -24.7735 N   0  0  0  0  0  0  0  0  0  0  0  0
  -21.1398  -25.7304  -24.5028 N   0  0  0  0  0  0  0  0  0  0  0  0
  -21.9870  -24.7812  -24.0988 C   0  0  0  0  0  0  0  0  0  0  0  0
  -21.4803  -23.4276  -23.7675 C   0  0  0  0  0  0  0  0  0  0  0  0
  -23.3134  -25.2517  -24.0259 C   0  0  0  0  0  0  0  0  0  0  0  0
  -23.2511  -26.5773  -24.3860 C   0  0  0  0  0  0  0  0  0  0  0  0
  -21.2850  -29.7497  -26.8137 C   0  0  0  0  0  0  0  0  0  0  0  0
  -20.0314  -30.0688  -26.4531 C   0  0  0  0  0  0  0  0  0  0  0  0
  -19.3478  -29.2376  -25.4503 C   0  0  0  0  0  0  0  0  0  0  0  0
  -18.1955  -29.4683  -25.1052 O   0  0  0  0  0  0  0  0  0  0  0  0
  -20.0819  -28.2093  -24.9567 N   0  0  0  0  0  0  0  0  0  0  0  0
  -21.3503  -27.9491  -25.4033 C   0  0  0  0  0  0  0  0  0  0  0  0
  -21.9638  -28.6698  -26.2895 N   0  0  0  0  0  0  0  0  0  0  0  0
  -19.6559  -27.6143  -24.2517 H   0  0  0  0  0  0  0  0  0  0  0  0
  -21.7584  -32.0098  -28.0034 C   0  0  0  0  0  0  0  0  0  0  0  0
  -22.0938  -30.5326  -27.8316 C   0  0  0  0  0  0  0  0  0  0  0  0
  -24.2545  -27.5165  -24.4171 N   0  0  0  0  0  0  0  0  0  0  0  0
  -25.0734  -27.2015  -24.9489 H   0  0  0  0  0  0  0  0  0  0  0  0
  -24.7486  -27.9488  -23.0891 C   0  0  0  0  0  0  0  0  0  0  0  0
  -23.7910  -28.9947  -22.5162 C   0  0  0  0  0  0  0  0  0  0  0  0
  -23.0599  -28.4980  -21.2689 C   0  0  0  0  0  0  0  0  0  0  0  0
  -23.5875  -27.1518  -20.7775 C   0  0  0  0  0  0  0  0  0  0  0  0
  -22.5054  -26.6700  -19.8204 C   0  0  0  0  0  0  0  0  0  0  0  0
  -21.1971  -27.2682  -20.3370 C   0  0  0  0  0  0  0  0  0  0  0  0
  -21.5759  -28.2045  -21.4825 C   0  0  0  0  0  0  0  0  0  0  0  0
  -20.4232  -23.3929  -23.9297 H   0  0  0  0  0  0  0  0  0  0  0  0
  -21.6911  -23.2091  -22.7415 H   0  0  0  0  0  0  0  0  0  0  0  0
  -21.9610  -22.7040  -24.3923 H   0  0  0  0  0  0  0  0  0  0  0  0
  -24.1535  -24.7151  -23.7588 H   0  0  0  0  0  0  0  0  0  0  0  0
  -19.5558  -30.8831  -26.8723 H   0  0  0  0  0  0  0  0  0  0  0  0
  -22.3992  -32.4370  -28.7462 H   0  0  0  0  0  0  0  0  0  0  0  0
  -21.9019  -32.5187  -27.0732 H   0  0  0  0  0  0  0  0  0  0  0  0
  -20.7386  -32.1105  -28.3114 H   0  0  0  0  0  0  0  0  0  0  0  0
  -23.1223  -30.4678  -27.5436 H   0  0  0  0  0  0  0  0  0  0  0  0
  -21.8565  -30.0853  -28.7742 H   0  0  0  0  0  0  0  0  0  0  0  0
  -25.7250  -28.3744  -23.1910 H   0  0  0  0  0  0  0  0  0  0  0  0
  -24.7988  -27.1066  -22.4310 H   0  0  0  0  0  0  0  0  0  0  0  0
  -23.0660  -29.2419  -23.2633 H   0  0  0  0  0  0  0  0  0  0  0  0
  -24.3721  -29.8478  -22.2344 H   0  0  0  0  0  0  0  0  0  0  0  0
  -23.2191  -29.3055  -20.5852 H   0  0  0  0  0  0  0  0  0  0  0  0
  -24.5217  -27.2702  -20.2694 H   0  0  0  0  0  0  0  0  0  0  0  0
  -23.7741  -26.4627  -21.5745 H   0  0  0  0  0  0  0  0  0  0  0  0
  -22.7060  -27.0141  -18.8273 H   0  0  0  0  0  0  0  0  0  0  0  0
  -22.4616  -25.6016  -19.7806 H   0  0  0  0  0  0  0  0  0  0  0  0
  -20.7069  -27.8147  -19.5586 H   0  0  0  0  0  0  0  0  0  0  0  0
  -20.5237  -26.5045  -20.6658 H   0  0  0  0  0  0  0  0  0  0  0  0
  -21.0025  -29.1068  -21.4377 H   0  0  0  0  0  0  0  0  0  0  0  0
  -21.3830  -27.7700  -22.4411 H   0  0  0  0  0  0  0  0  0  0  0  0
  1  2  1  0
  2  3  2  0
  3  4  1  0
  3  5  1  0
  4 26  1  0
  4 27  1  0
  4 28  1  0
  5  6  2  0
  5 29  1  0
  6 17  1  0
  6  1  1  0
  7  8  2  0
  8  9  1  0
  8 30  1  0
  9 10  2  0
  9 11  1  0
 11 12  1  0
 11 14  1  0
 12  1  1  0
 12 13  2  0
 13  7  1  0
 15 16  1  0
 15 31  1  0
 15 32  1  0
 15 33  1  0
 16  7  1  0
 16 34  1  0
 16 35  1  0
 17 19  1  0
 17 18  1  0
 19 20  1  0
 19 36  1  0
 19 37  1  0
 20 21  1  0
 20 38  1  0
 20 39  1  0
 21 22  1  0
 21 40  1  0
 22 23  1  0
 22 41  1  0
 22 42  1  0
 23 24  1  0
 23 43  1  0
 23 44  1  0
 24 25  1  0
 24 45  1  0
 24 46  1  0
 25 21  1  0
 25 47  1  0
 25 48  1  0
M  END
>  <minimizedAffinity>  (7) 
-8.59696

>  <mol_id>  (7) 
74153

>  <source_index>  (7) 
6

>  <layer>  (7) 
L4

>  <uniprot>  (7) 
Q08828

>  <paff>  (7) 
6.8239000000000001

>  <smiles>  (7) 
CCc1cc(=O)[nH]c(-n2nc(C)cc2NCCC2CCCC2)n1

$$$$
L4:Q08828:81371
     RDKit          3D

 51 53  0  0  0  0  0  0  0  0999 V2000
  -22.2127  -28.1590  -23.7663 N   0  0  0  0  0  0  0  0  0  0  0  0
  -21.9472  -28.2614  -22.4308 N   0  0  0  0  0  0  0  0  0  0  0  0
  -22.9319  -27.5929  -21.8265 C   0  0  0  0  0  0  0  0  0  0  0  0
  -22.9957  -27.5482  -20.3457 C   0  0  0  0  0  0  0  0  0  0  0  0
  -23.8018  -26.9822  -22.7517 C   0  0  0  0  0  0  0  0  0  0  0  0
  -23.2856  -27.2825  -23.9904 C   0  0  0  0  0  0  0  0  0  0  0  0
  -21.1176  -30.3221  -26.4579 C   0  0  0  0  0  0  0  0  0  0  0  0
  -19.7830  -30.2876  -26.3264 C   0  0  0  0  0  0  0  0  0  0  0  0
  -19.2053  -29.4815  -25.2415 C   0  0  0  0  0  0  0  0  0  0  0  0
  -17.9962  -29.4385  -25.0507 O   0  0  0  0  0  0  0  0  0  0  0  0
  -20.1067  -28.8132  -24.4765 N   0  0  0  0  0  0  0  0  0  0  0  0
  -21.4569  -28.9238  -24.6881 C   0  0  0  0  0  0  0  0  0  0  0  0
  -21.9822  -29.6346  -25.6371 N   0  0  0  0  0  0  0  0  0  0  0  0
  -19.7532  -28.2282  -23.7236 H   0  0  0  0  0  0  0  0  0  0  0  0
  -22.5468  -30.2384  -28.5276 C   0  0  0  0  0  0  0  0  0  0  0  0
  -21.7687  -31.1218  -27.5622 C   0  0  0  0  0  0  0  0  0  0  0  0
  -23.7098  -26.8703  -25.2303 N   0  0  0  0  0  0  0  0  0  0  0  0
  -24.4031  -26.1154  -25.1880 H   0  0  0  0  0  0  0  0  0  0  0  0
  -22.6391  -26.3903  -26.1323 C   0  0  0  0  0  0  0  0  0  0  0  0
  -22.6472  -24.8822  -26.1450 C   0  0  0  0  0  0  0  0  0  0  0  0
  -23.2076  -24.1826  -27.2213 C   0  0  0  0  0  0  0  0  0  0  0  0
  -23.1925  -22.7887  -27.2399 C   0  0  0  0  0  0  0  0  0  0  0  0
  -22.6120  -22.0795  -26.1881 C   0  0  0  0  0  0  0  0  0  0  0  0
  -22.0381  -22.7537  -25.1017 C   0  0  0  0  0  0  0  0  0  0  0  0
  -22.0606  -24.1576  -25.0950 C   0  0  0  0  0  0  0  0  0  0  0  0
  -21.3960  -21.9638  -23.9739 C   0  0  0  0  0  0  0  0  0  0  0  0
  -21.0085  -20.5565  -24.4341 C   0  0  0  0  0  0  0  0  0  0  0  0
  -20.1902  -22.6943  -23.3770 C   0  0  0  0  0  0  0  0  0  0  0  0
  -22.1865  -28.1163  -19.9365 H   0  0  0  0  0  0  0  0  0  0  0  0
  -23.9253  -27.9631  -20.0161 H   0  0  0  0  0  0  0  0  0  0  0  0
  -22.9214  -26.5330  -20.0160 H   0  0  0  0  0  0  0  0  0  0  0  0
  -24.6468  -26.4274  -22.5438 H   0  0  0  0  0  0  0  0  0  0  0  0
  -19.1755  -30.8153  -26.9725 H   0  0  0  0  0  0  0  0  0  0  0  0
  -22.9888  -30.8458  -29.2896 H   0  0  0  0  0  0  0  0  0  0  0  0
  -21.8828  -29.5297  -28.9768 H   0  0  0  0  0  0  0  0  0  0  0  0
  -23.3157  -29.7189  -27.9949 H   0  0  0  0  0  0  0  0  0  0  0  0
  -21.0079  -31.6411  -28.1067 H   0  0  0  0  0  0  0  0  0  0  0  0
  -22.4586  -31.8044  -27.1116 H   0  0  0  0  0  0  0  0  0  0  0  0
  -22.8120  -26.7583  -27.1220 H   0  0  0  0  0  0  0  0  0  0  0  0
  -21.6900  -26.7438  -25.7870 H   0  0  0  0  0  0  0  0  0  0  0  0
  -23.6339  -24.7018  -28.0047 H   0  0  0  0  0  0  0  0  0  0  0  0
  -23.6119  -22.2801  -28.0339 H   0  0  0  0  0  0  0  0  0  0  0  0
  -22.6051  -21.0478  -26.2102 H   0  0  0  0  0  0  0  0  0  0  0  0
  -21.6379  -24.6667  -24.3031 H   0  0  0  0  0  0  0  0  0  0  0  0
  -22.1288  -21.8718  -23.1996 H   0  0  0  0  0  0  0  0  0  0  0  0
  -20.2749  -20.6244  -25.2101 H   0  0  0  0  0  0  0  0  0  0  0  0
  -20.6043  -20.0097  -23.6079 H   0  0  0  0  0  0  0  0  0  0  0  0
  -21.8754  -20.0515  -24.8060 H   0  0  0  0  0  0  0  0  0  0  0  0
  -19.4338  -22.8049  -24.1256 H   0  0  0  0  0  0  0  0  0  0  0  0
  -20.4937  -23.6603  -23.0312 H   0  0  0  0  0  0  0  0  0  0  0  0
  -19.8004  -22.1282  -22.5569 H   0  0  0  0  0  0  0  0  0  0  0  0
  1  2  1  0
  2  3  2  0
  3  4  1  0
  3  5  1  0
  4 29  1  0
  4 30  1  0
  4 31  1  0
  5  6  2  0
  5 32  1  0
  6 17  1  0
  6  1  1  0
  7  8  2  0
  8  9  1  0
  8 33  1  0
  9 10  2  0
  9 11  1  0
 11 12  1  0
 11 14  1  0
 12  1  1  0
 12 13  2  0
 13  7  1  0
 15 16  1  0
 15 34  1  0
 15 35  1  0
 15 36  1  0
 16  7  1  0
 16 37  1  0
 16 38  1  0
 17 19  1  0
 17 18  1  0
 19 20  1  0
 19 39  1  0
 19 40  1  0
 20 21  2  0
 21 22  1  0
 21 41  1  0
 22 23  2  0
 22 42  1  0
 23 24  1  0
 23 43  1  0
 24 26  1  0
 24 25  2  0
 25 20  1  0
 25 44  1  0
 26 27  1  0
 26 28  1  0
 26 45  1  0
 27 46  1  0
 27 47  1  0
 27 48  1  0
 28 49  1  0
 28 50  1  0
 28 51  1  0
M  END
>  <minimizedAffinity>  (8) 
-9.64588

>  <mol_id>  (8) 
81371

>  <source_index>  (8) 
7

>  <layer>  (8) 
L4

>  <uniprot>  (8) 
Q08828

>  <paff>  (8) 
6.7695999999999996

>  <smiles>  (8) 
CCc1cc(=O)[nH]c(-n2nc(C)cc2NCc2cccc(C(C)C)c2)n1

$$$$
L4:Q08828:84111
     RDKit          3D

 49 52  0  0  0  0  0  0  0  0999 V2000
  -22.4223  -28.2399  -23.7835 N   0  0  0  0  0  0  0  0  0  0  0  0
  -22.2144  -28.4022  -22.4439 N   0  0  0  0  0  0  0  0  0  0  0  0
  -22.9783  -27.4770  -21.8582 C   0  0  0  0  0  0  0  0  0  0  0  0
  -22.9582  -27.3251  -20.3836 C   0  0  0  0  0  0  0  0  0  0  0  0
  -23.7491  -26.7587  -22.7932 C   0  0  0  0  0  0  0  0  0  0  0  0
  -23.4509  -27.3140  -24.0156 C   0  0  0  0  0  0  0  0  0  0  0  0
  -21.1576  -30.2671  -26.5068 C   0  0  0  0  0  0  0  0  0  0  0  0
  -19.8311  -30.2055  -26.3154 C   0  0  0  0  0  0  0  0  0  0  0  0
  -19.3211  -29.4145  -25.1863 C   0  0  0  0  0  0  0  0  0  0  0  0
  -18.1207  -29.3029  -24.9709 O   0  0  0  0  0  0  0  0  0  0  0  0
  -20.2733  -28.8212  -24.4215 N   0  0  0  0  0  0  0  0  0  0  0  0
  -21.6091  -28.9422  -24.7059 C   0  0  0  0  0  0  0  0  0  0  0  0
  -22.0748  -29.6366  -25.6972 N   0  0  0  0  0  0  0  0  0  0  0  0
  -19.9673  -28.2830  -23.6161 H   0  0  0  0  0  0  0  0  0  0  0  0
  -22.6480  -30.2424  -28.5348 C   0  0  0  0  0  0  0  0  0  0  0  0
  -21.7417  -31.0774  -27.6405 C   0  0  0  0  0  0  0  0  0  0  0  0
  -23.9972  -27.0385  -25.2479 N   0  0  0  0  0  0  0  0  0  0  0  0
  -24.5842  -27.8019  -25.6002 H   0  0  0  0  0  0  0  0  0  0  0  0
  -23.0377  -26.7164  -26.3308 C   0  0  0  0  0  0  0  0  0  0  0  0
  -22.5182  -25.3071  -26.1850 C   0  0  0  0  0  0  0  0  0  0  0  0
  -21.3285  -25.0535  -25.4934 C   0  0  0  0  0  0  0  0  0  0  0  0
  -20.8363  -23.7494  -25.3833 C   0  0  0  0  0  0  0  0  0  0  0  0
  -21.5043  -22.6610  -25.9653 C   0  0  0  0  0  0  0  0  0  0  0  0
  -22.6980  -22.9307  -26.6526 C   0  0  0  0  0  0  0  0  0  0  0  0
  -23.1977  -24.2318  -26.7691 C   0  0  0  0  0  0  0  0  0  0  0  0
  -20.9778  -21.2531  -25.8282 C   0  0  0  0  0  0  0  0  0  0  0  0
  -19.7107  -20.9895  -25.0475 C   0  0  0  0  0  0  0  0  0  0  0  0
  -21.0304  -20.5514  -24.4904 C   0  0  0  0  0  0  0  0  0  0  0  0
  -22.2637  -28.0219  -19.9627 H   0  0  0  0  0  0  0  0  0  0  0  0
  -23.9357  -27.5152  -19.9921 H   0  0  0  0  0  0  0  0  0  0  0  0
  -22.6607  -26.3286  -20.1317 H   0  0  0  0  0  0  0  0  0  0  0  0
  -24.3996  -25.9808  -22.6016 H   0  0  0  0  0  0  0  0  0  0  0  0
  -19.1833  -30.7023  -26.9467 H   0  0  0  0  0  0  0  0  0  0  0  0
  -23.0371  -30.8558  -29.3204 H   0  0  0  0  0  0  0  0  0  0  0  0
  -22.0868  -29.4352  -28.9572 H   0  0  0  0  0  0  0  0  0  0  0  0
  -23.4570  -29.8494  -27.9552 H   0  0  0  0  0  0  0  0  0  0  0  0
  -20.9411  -31.4705  -28.2317 H   0  0  0  0  0  0  0  0  0  0  0  0
  -22.3317  -31.8618  -27.2145 H   0  0  0  0  0  0  0  0  0  0  0  0
  -23.5301  -26.8127  -27.2759 H   0  0  0  0  0  0  0  0  0  0  0  0
  -22.2120  -27.3942  -26.2702 H   0  0  0  0  0  0  0  0  0  0  0  0
  -20.8106  -25.8347  -25.0615 H   0  0  0  0  0  0  0  0  0  0  0  0
  -19.9613  -23.5834  -24.8619 H   0  0  0  0  0  0  0  0  0  0  0  0
  -23.2193  -22.1505  -27.0822 H   0  0  0  0  0  0  0  0  0  0  0  0
  -24.0731  -24.4001  -27.2891 H   0  0  0  0  0  0  0  0  0  0  0  0
  -21.3209  -21.0312  -26.8171 H   0  0  0  0  0  0  0  0  0  0  0  0
  -19.0098  -20.2604  -25.3970 H   0  0  0  0  0  0  0  0  0  0  0  0
  -18.9042  -21.5953  -24.6904 H   0  0  0  0  0  0  0  0  0  0  0  0
  -21.2708  -19.5099  -24.4426 H   0  0  0  0  0  0  0  0  0  0  0  0
  -21.5541  -20.7156  -23.5719 H   0  0  0  0  0  0  0  0  0  0  0  0
  1  2  1  0
  2  3  2  0
  3  4  1  0
  3  5  1  0
  4 29  1  0
  4 30  1  0
  4 31  1  0
  5  6  2  0
  5 32  1  0
  6 17  1  0
  6  1  1  0
  7  8  2  0
  8  9  1  0
  8 33  1  0
  9 10  2  0
  9 11  1  0
 11 12  1  0
 11 14  1  0
 12  1  1  0
 12 13  2  0
 13  7  1  0
 15 16  1  0
 15 34  1  0
 15 35  1  0
 15 36  1  0
 16  7  1  0
 16 37  1  0
 16 38  1  0
 17 19  1  0
 17 18  1  0
 19 20  1  0
 19 39  1  0
 19 40  1  0
 20 21  2  0
 21 22  1  0
 21 41  1  0
 22 23  2  0
 22 42  1  0
 23 26  1  0
 23 24  1  0
 24 25  2  0
 24 43  1  0
 25 20  1  0
 25 44  1  0
 26 27  1  0
 26 45  1  0
 27 28  1  0
 27 46  1  0
 27 47  1  0
 28 26  1  0
 28 48  1  0
 28 49  1  0
M  END
>  <minimizedAffinity>  (9) 
-9.68811

>  <mol_id>  (9) 
84111

>  <source_index>  (9) 
8

>  <layer>  (9) 
L4

>  <uniprot>  (9) 
Q08828

>  <paff>  (9) 
7.1548999999999996

>  <smiles>  (9) 
CCc1cc(=O)[nH]c(-n2nc(C)cc2NCc2ccc(C3CC3)cc2)n1

$$$$
L4:Q08828:97025
     RDKit          3D

 48 50  0  0  0  0  0  0  0  0999 V2000
  -21.5503  -24.4520  -25.3919 N   0  0  0  0  0  0  0  0  0  0  0  0
  -21.4090  -23.8214  -26.5947 N   0  0  0  0  0  0  0  0  0  0  0  0
  -20.9764  -22.5939  -26.2996 C   0  0  0  0  0  0  0  0  0  0  0  0
  -20.6768  -21.6339  -27.3894 C   0  0  0  0  0  0  0  0  0  0  0  0
  -20.8725  -22.3884  -24.9096 C   0  0  0  0  0  0  0  0  0  0  0  0
  -21.2914  -23.5652  -24.3347 C   0  0  0  0  0  0  0  0  0  0  0  0
  -21.7300  -28.0124  -24.7045 C   0  0  0  0  0  0  0  0  0  0  0  0
  -22.7556  -28.3908  -25.4849 C   0  0  0  0  0  0  0  0  0  0  0  0
  -23.4365  -27.3762  -26.3040 C   0  0  0  0  0  0  0  0  0  0  0  0
  -24.3545  -27.6703  -27.0600 O   0  0  0  0  0  0  0  0  0  0  0  0
  -22.9651  -26.1126  -26.1622 N   0  0  0  0  0  0  0  0  0  0  0  0
  -21.8961  -25.8258  -25.3564 C   0  0  0  0  0  0  0  0  0  0  0  0
  -21.2791  -26.7104  -24.6369 N   0  0  0  0  0  0  0  0  0  0  0  0
  -23.3999  -25.3739  -26.7093 H   0  0  0  0  0  0  0  0  0  0  0  0
  -21.6964  -30.1779  -23.2705 C   0  0  0  0  0  0  0  0  0  0  0  0
  -20.9512  -28.9654  -23.8167 C   0  0  0  0  0  0  0  0  0  0  0  0
  -21.4165  -23.9022  -23.0054 N   0  0  0  0  0  0  0  0  0  0  0  0
  -20.8874  -23.2565  -22.4053 H   0  0  0  0  0  0  0  0  0  0  0  0
  -22.7997  -23.8664  -22.4483 C   0  0  1  0  0  0  0  0  0  0  0  0
  -23.7804  -23.1682  -23.3935 C   0  0  0  0  0  0  0  0  0  0  0  0
  -23.2313  -25.2970  -22.1659 C   0  0  0  0  0  0  0  0  0  0  0  0
  -22.4978  -26.0865  -21.2677 C   0  0  0  0  0  0  0  0  0  0  0  0
  -22.8715  -27.4067  -21.0141 C   0  0  0  0  0  0  0  0  0  0  0  0
  -23.9828  -27.9557  -21.6523 C   0  0  0  0  0  0  0  0  0  0  0  0
  -24.7373  -27.1867  -22.5432 C   0  0  0  0  0  0  0  0  0  0  0  0
  -25.9128  -27.7826  -23.2608 C   0  0  0  0  0  0  0  0  0  0  0  0
  -24.3482  -25.8658  -22.8039 C   0  0  0  0  0  0  0  0  0  0  0  0
  -20.8584  -22.1000  -28.3353 H   0  0  0  0  0  0  0  0  0  0  0  0
  -19.6510  -21.3356  -27.3299 H   0  0  0  0  0  0  0  0  0  0  0  0
  -21.3049  -20.7734  -27.2894 H   0  0  0  0  0  0  0  0  0  0  0  0
  -20.5504  -21.5357  -24.4257 H   0  0  0  0  0  0  0  0  0  0  0  0
  -23.0607  -29.3764  -25.5095 H   0  0  0  0  0  0  0  0  0  0  0  0
  -21.0340  -30.7607  -22.6651 H   0  0  0  0  0  0  0  0  0  0  0  0
  -22.0529  -30.7739  -24.0845 H   0  0  0  0  0  0  0  0  0  0  0  0
  -22.5253  -29.8502  -22.6786 H   0  0  0  0  0  0  0  0  0  0  0  0
  -20.1203  -29.3279  -24.3851 H   0  0  0  0  0  0  0  0  0  0  0  0
  -20.6942  -28.3885  -22.9529 H   0  0  0  0  0  0  0  0  0  0  0  0
  -22.8028  -23.2951  -21.5436 H   0  0  0  0  0  0  0  0  0  0  0  0
  -23.8197  -23.6985  -24.3220 H   0  0  0  0  0  0  0  0  0  0  0  0
  -23.4531  -22.1648  -23.5695 H   0  0  0  0  0  0  0  0  0  0  0  0
  -24.7540  -23.1532  -22.9498 H   0  0  0  0  0  0  0  0  0  0  0  0
  -21.6745  -25.6873  -20.7903 H   0  0  0  0  0  0  0  0  0  0  0  0
  -22.3237  -27.9784  -20.3522 H   0  0  0  0  0  0  0  0  0  0  0  0
  -24.2499  -28.9350  -21.4660 H   0  0  0  0  0  0  0  0  0  0  0  0
  -26.0565  -28.7912  -22.9337 H   0  0  0  0  0  0  0  0  0  0  0  0
  -25.7298  -27.7722  -24.3150 H   0  0  0  0  0  0  0  0  0  0  0  0
  -26.7902  -27.2093  -23.0454 H   0  0  0  0  0  0  0  0  0  0  0  0
  -24.8907  -25.3007  -23.4757 H   0  0  0  0  0  0  0  0  0  0  0  0
  1  2  1  0
  2  3  2  0
  3  4  1  0
  3  5  1  0
  4 28  1  0
  4 29  1  0
  4 30  1  0
  5  6  2  0
  5 31  1  0
  6 17  1  0
  6  1  1  0
  7  8  2  0
  8  9  1  0
  8 32  1  0
  9 10  2  0
  9 11  1  0
 11 12  1  0
 11 14  1  0
 12  1  1  0
 12 13  2  0
 13  7  1  0
 15 16  1  0
 15 33  1  0
 15 34  1  0
 15 35  1  0
 16  7  1  0
 16 36  1  0
 16 37  1  0
 17 19  1  0
 17 18  1  0
 19 20  1  0
 19 21  1  0
 19 38  1  1
 20 39  1  0
 20 40  1  0
 20 41  1  0
 21 22  2  0
 22 23  1  0
 22 42  1  0
 23 24  2  0
 23 43  1  0
 24 25  1  0
 24 44  1  0
 25 26  1  0
 25 27  2  0
 26 45  1  0
 26 46  1  0
 26 47  1  0
 27 21  1  0
 27 48  1  0
M  END
>  <minimizedAffinity>  (10) 
-8.50965

>  <mol_id>  (10) 
97025

>  <source_index>  (10) 
9

>  <layer>  (10) 
L4

>  <uniprot>  (10) 
Q08828

>  <paff>  (10) 
6.3768000000000002

>  <smiles>  (10) 
CCc1cc(=O)[nH]c(-n2nc(C)cc2N[C@@H](C)c2cccc(C)c2)n1

$$$$
