tyk2_000
     RDKit          3D

 36 38  0  0  1  0  0  0  0  0999 V2000
   -3.4156   22.5421  -29.6829 C   0  0  0  0  0  0  0  0  0  0  0  0
   -3.9815   21.5755  -28.8518 C   0  0  0  0  0  0  0  0  0  0  0  0
   -3.3106   21.0451  -27.7666 C   0  0  0  0  0  0  0  0  0  0  0  0
   -5.2525   25.0836  -31.7163 C   0  0  0  0  0  0  0  0  0  0  0  0
   -4.1479   23.0044  -30.9038 C   0  0  0  0  0  0  0  0  0  0  0  0
   -5.9866   24.5286  -32.7664 C   0  0  0  0  0  0  0  0  0  0  0  0
   -6.8605   25.3537  -33.4473 C   0  0  0  0  0  0  0  0  0  0  0  0
   -2.1500   23.0176  -29.3225 C   0  0  0  0  0  0  0  0  0  0  0  0
   -2.0248   21.4819  -27.4973 C   0  0  0  0  0  0  0  0  0  0  0  0
   -1.4464   22.4833  -28.2573 C   0  0  0  0  0  0  0  0  0  0  0  0
   -5.6158   21.0006  -29.1833 Cl  0  0  0  0  0  0  0  0  0  0  0  0
   -4.4646   22.2391  -31.8026 O   0  0  0  0  0  0  0  0  0  0  0  0
   -4.4272   24.3467  -30.8769 N   0  0  0  0  0  0  0  0  0  0  0  0
   -7.0492   26.6431  -33.1559 N   0  0  0  0  0  0  0  0  0  0  0  0
   -6.2826   27.1887  -32.1965 C   0  0  0  0  0  0  0  0  0  0  0  0
   -5.3666   26.4442  -31.4562 C   0  0  0  0  0  0  0  0  0  0  0  0
   -6.4985   28.5504  -31.9979 N   0  0  0  0  0  0  0  0  0  0  0  0
   -5.6612   29.4152  -31.3274 C   0  0  0  0  0  0  0  0  0  0  0  0
   -4.5414   29.1127  -30.9457 O   0  0  0  0  0  0  0  0  0  0  0  0
   -6.2537   30.7505  -31.0627 C   0  0  1  0  0  0  0  0  0  0  0  0
   -5.5800   31.6049  -30.0022 C   0  0  0  0  0  0  0  0  0  0  0  0
   -5.5636   32.0417  -31.3948 C   0  0  1  0  0  0  0  0  0  0  0  0
   -1.3926   24.3177  -30.2302 Cl  0  0  0  0  0  0  0  0  0  0  0  0
   -3.7636   20.2797  -27.1585 H   0  0  0  0  0  0  0  0  0  0  0  0
   -5.8857   23.4826  -33.0061 H   0  0  0  0  0  0  0  0  0  0  0  0
   -7.4489   24.9684  -34.2729 H   0  0  0  0  0  0  0  0  0  0  0  0
   -1.4587   21.0164  -26.7038 H   0  0  0  0  0  0  0  0  0  0  0  0
   -0.4467   22.8261  -28.0414 H   0  0  0  0  0  0  0  0  0  0  0  0
   -3.9667   24.8771  -30.1513 H   0  0  0  0  0  0  0  0  0  0  0  0
   -4.7617   26.9190  -30.7012 H   0  0  0  0  0  0  0  0  0  0  0  0
   -7.4376   28.8704  -32.2251 H   0  0  0  0  0  0  0  0  0  0  0  0
   -7.3309   30.8073  -31.1262 H   0  0  0  0  0  0  0  0  0  0  0  0
   -4.6676   31.1865  -29.6046 H   0  0  0  0  0  0  0  0  0  0  0  0
   -6.2023   32.1338  -29.2970 H   0  0  0  0  0  0  0  0  0  0  0  0
   -6.1620   32.8700  -31.7301 H   0  0  0  0  0  0  0  0  0  0  0  0
   -4.3505   32.0592  -32.1037 F   0  0  0  0  0  0  0  0  0  0  0  0
  1  2  2  0
  1  5  1  0
  1  8  1  0
  2  3  1  0
  2 11  1  0
  3  9  2  0
  3 24  1  0
  4  6  2  0
  4 13  1  0
  4 16  1  0
  5 12  2  0
  5 13  1  0
  6  7  1  0
  6 25  1  0
  7 14  2  0
  7 26  1  0
  8 10  2  0
  8 23  1  0
  9 10  1  0
  9 27  1  0
 10 28  1  0
 13 29  1  0
 14 15  1  0
 15 16  2  0
 15 17  1  0
 16 30  1  0
 17 18  1  0
 17 31  1  0
 18 19  2  0
 18 20  1  0
 20 21  1  0
 20 22  1  0
 20 32  1  1
 21 22  1  0
 21 33  1  0
 21 34  1  0
 22 35  1  1
 22 36  1  0
M  END
>  <r_exp_dg>  (1) 
-11.7

>  <mol_id>  (1) 
0

>  <source_index>  (1) 
0

>  <paff>  (1) 
8.5777124701357295

>  <source_r_exp_dg>  (1) 
-11.699999999999999

>  <smiles>  (1) 
O=C(Nc1ccnc(NC(=O)[C@H]2C[C@H]2F)c1)c1c(Cl)cccc1Cl

>  <aimnet_interaction_kcal_mol>  (1) 
-65.436016228625689

$$$$
tyk2_001
     RDKit          3D

 39 41  0  0  1  0  0  0  0  0999 V2000
   -3.4144   22.5650  -29.6568 C   0  0  0  0  0  0  0  0  0  0  0  0
   -3.9771   21.5849  -28.8399 C   0  0  0  0  0  0  0  0  0  0  0  0
   -3.3044   21.0431  -27.7616 C   0  0  0  0  0  0  0  0  0  0  0  0
   -5.2574   25.1649  -31.6112 C   0  0  0  0  0  0  0  0  0  0  0  0
   -4.1568   23.0641  -30.8564 C   0  0  0  0  0  0  0  0  0  0  0  0
   -5.9953   24.6368  -32.6707 C   0  0  0  0  0  0  0  0  0  0  0  0
   -6.8476   25.4879  -33.3464 C   0  0  0  0  0  0  0  0  0  0  0  0
   -2.1421   23.0259  -29.3029 C   0  0  0  0  0  0  0  0  0  0  0  0
   -2.0173   21.4756  -27.4908 C   0  0  0  0  0  0  0  0  0  0  0  0
   -1.4366   22.4799  -28.2454 C   0  0  0  0  0  0  0  0  0  0  0  0
   -5.6069   21.0046  -29.1843 Cl  0  0  0  0  0  0  0  0  0  0  0  0
   -4.4704   22.3285  -31.7803 O   0  0  0  0  0  0  0  0  0  0  0  0
   -4.4465   24.4024  -30.7808 N   0  0  0  0  0  0  0  0  0  0  0  0
   -7.0075   26.7811  -33.0529 N   0  0  0  0  0  0  0  0  0  0  0  0
   -6.2447   27.2969  -32.0741 C   0  0  0  0  0  0  0  0  0  0  0  0
   -5.3549   26.5244  -31.3313 C   0  0  0  0  0  0  0  0  0  0  0  0
   -6.4144   28.6671  -31.8852 N   0  0  0  0  0  0  0  0  0  0  0  0
   -5.6043   29.5091  -31.1540 C   0  0  0  0  0  0  0  0  0  0  0  0
   -4.6926   29.1146  -30.4363 O   0  0  0  0  0  0  0  0  0  0  0  0
   -1.3813   24.3202  -30.2156 Cl  0  0  0  0  0  0  0  0  0  0  0  0
   -3.7566   20.2723  -27.1598 H   0  0  0  0  0  0  0  0  0  0  0  0
   -5.9133   23.5931  -32.9211 H   0  0  0  0  0  0  0  0  0  0  0  0
   -7.4419   25.1135  -34.1732 H   0  0  0  0  0  0  0  0  0  0  0  0
   -1.4511   21.0029  -26.7016 H   0  0  0  0  0  0  0  0  0  0  0  0
   -0.4337   22.8151  -28.0321 H   0  0  0  0  0  0  0  0  0  0  0  0
   -4.0032   24.9096  -30.0282 H   0  0  0  0  0  0  0  0  0  0  0  0
   -4.7532   26.9810  -30.5638 H   0  0  0  0  0  0  0  0  0  0  0  0
   -7.2989   29.0403  -32.2149 H   0  0  0  0  0  0  0  0  0  0  0  0
   -6.7067   31.1742  -31.9614 H   0  0  0  0  0  0  0  0  0  0  0  0
   -5.8720   30.9782  -31.3025 C   0  0  0  0  0  0  0  0  0  0  0  0
   -4.6114   31.8042  -31.6551 C   0  0  0  0  0  0  0  0  0  0  0  0
   -4.9967   32.8331  -30.5795 C   0  0  0  0  0  0  0  0  0  0  0  0
   -5.9849   31.8098  -29.9984 C   0  0  0  0  0  0  0  0  0  0  0  0
   -3.7057   31.2610  -31.4107 H   0  0  0  0  0  0  0  0  0  0  0  0
   -4.5572   32.1323  -32.6896 H   0  0  0  0  0  0  0  0  0  0  0  0
   -4.1944   33.1662  -29.9242 H   0  0  0  0  0  0  0  0  0  0  0  0
   -5.4994   33.7066  -30.9903 H   0  0  0  0  0  0  0  0  0  0  0  0
   -5.5928   31.2752  -29.1400 H   0  0  0  0  0  0  0  0  0  0  0  0
   -6.9698   32.1930  -29.7664 H   0  0  0  0  0  0  0  0  0  0  0  0
  1  2  2  0
  1  5  1  0
  1  8  1  0
  2  3  1  0
  2 11  1  0
  3  9  2  0
  3 21  1  0
  4  6  2  0
  4 13  1  0
  4 16  1  0
  5 12  2  0
  5 13  1  0
  6  7  1  0
  6 22  1  0
  7 14  2  0
  7 23  1  0
  8 10  2  0
  8 20  1  0
  9 10  1  0
  9 24  1  0
 10 25  1  0
 13 26  1  0
 14 15  1  0
 15 16  2  0
 15 17  1  0
 16 27  1  0
 17 18  1  0
 17 28  1  0
 18 19  2  0
 18 30  1  0
 29 30  1  0
 30 31  1  0
 30 33  1  0
 31 32  1  0
 31 34  1  0
 31 35  1  0
 32 33  1  0
 32 36  1  0
 32 37  1  0
 33 38  1  0
 33 39  1  0
M  END
>  <r_exp_dg>  (2) 
-9.7

>  <mol_id>  (2) 
1

>  <source_index>  (2) 
1

>  <paff>  (2) 
7.111436810311683

>  <source_r_exp_dg>  (2) 
-9.6999999999999993

>  <smiles>  (2) 
O=C(Nc1ccnc(NC(=O)C2CCC2)c1)c1c(Cl)cccc1Cl

>  <aimnet_interaction_kcal_mol>  (2) 
-56.361268385503266

$$$$
tyk2_002
     RDKit          3D

 39 41  0  0  1  0  0  0  0  0999 V2000
   -3.5543   22.4108  -29.6641 C   0  0  0  0  0  0  0  0  0  0  0  0
   -4.0518   21.4803  -28.7557 C   0  0  0  0  0  0  0  0  0  0  0  0
   -3.2953   20.9967  -27.7051 C   0  0  0  0  0  0  0  0  0  0  0  0
   -5.5866   24.8677  -31.5835 C   0  0  0  0  0  0  0  0  0  0  0  0
   -4.3618   22.8034  -30.8644 C   0  0  0  0  0  0  0  0  0  0  0  0
   -6.1973   24.4341  -32.7610 C   0  0  0  0  0  0  0  0  0  0  0  0
   -6.9536   25.3588  -33.4599 C   0  0  0  0  0  0  0  0  0  0  0  0
   -2.3015   22.9638  -29.3814 C   0  0  0  0  0  0  0  0  0  0  0  0
   -2.0093   21.4806  -27.5328 C   0  0  0  0  0  0  0  0  0  0  0  0
   -1.5160   22.4867  -28.3469 C   0  0  0  0  0  0  0  0  0  0  0  0
   -5.7201   20.9339  -28.9238 Cl  0  0  0  0  0  0  0  0  0  0  0  0
   -4.6055   22.0463  -31.7896 O   0  0  0  0  0  0  0  0  0  0  0  0
   -4.7909   24.0978  -30.7556 N   0  0  0  0  0  0  0  0  0  0  0  0
   -7.0872   26.6491  -33.1148 N   0  0  0  0  0  0  0  0  0  0  0  0
   -6.4008   27.0714  -32.0471 C   0  0  0  0  0  0  0  0  0  0  0  0
   -5.7499   26.1868  -31.1947 C   0  0  0  0  0  0  0  0  0  0  0  0
   -6.2970   28.4512  -31.8226 N   0  0  0  0  0  0  0  0  0  0  0  0
   -5.1402   28.9850  -31.2794 C   0  0  0  0  0  0  0  0  0  0  0  0
   -4.1451   28.2993  -31.0888 O   0  0  0  0  0  0  0  0  0  0  0  0
   -1.7050   24.3142  -30.3279 Cl  0  0  0  0  0  0  0  0  0  0  0  0
   -3.6835   20.2335  -27.0500 H   0  0  0  0  0  0  0  0  0  0  0  0
   -6.1051   23.4090  -33.0842 H   0  0  0  0  0  0  0  0  0  0  0  0
   -7.4852   25.0560  -34.3555 H   0  0  0  0  0  0  0  0  0  0  0  0
   -1.3787   21.0547  -26.7668 H   0  0  0  0  0  0  0  0  0  0  0  0
   -0.5261   22.8841  -28.1881 H   0  0  0  0  0  0  0  0  0  0  0  0
   -4.3995   24.6038  -29.9750 H   0  0  0  0  0  0  0  0  0  0  0  0
   -5.3215   26.5274  -30.2679 H   0  0  0  0  0  0  0  0  0  0  0  0
   -7.1150   29.0267  -31.9840 H   0  0  0  0  0  0  0  0  0  0  0  0
   -4.8915   33.1088  -30.2202 C   0  0  0  0  0  0  0  0  0  0  0  0
   -5.9435   32.6802  -31.0148 C   0  0  0  0  0  0  0  0  0  0  0  0
   -6.0747   31.3416  -31.3546 C   0  0  0  0  0  0  0  0  0  0  0  0
   -5.1222   30.4234  -30.9246 C   0  0  0  0  0  0  0  0  0  0  0  0
   -4.0635   30.8611  -30.1189 C   0  0  0  0  0  0  0  0  0  0  0  0
   -3.9495   32.1947  -29.7698 C   0  0  0  0  0  0  0  0  0  0  0  0
   -4.8273   34.1505  -29.9355 H   0  0  0  0  0  0  0  0  0  0  0  0
   -6.6924   33.3788  -31.3484 H   0  0  0  0  0  0  0  0  0  0  0  0
   -6.9282   31.0342  -31.9431 H   0  0  0  0  0  0  0  0  0  0  0  0
   -3.3406   30.1365  -29.7721 H   0  0  0  0  0  0  0  0  0  0  0  0
   -3.1358   32.5193  -29.1357 H   0  0  0  0  0  0  0  0  0  0  0  0
  1  2  2  0
  1  5  1  0
  1  8  1  0
  2  3  1  0
  2 11  1  0
  3  9  2  0
  3 21  1  0
  4  6  2  0
  4 13  1  0
  4 16  1  0
  5 12  2  0
  5 13  1  0
  6  7  1  0
  6 22  1  0
  7 14  2  0
  7 23  1  0
  8 10  2  0
  8 20  1  0
  9 10  1  0
  9 24  1  0
 10 25  1  0
 13 26  1  0
 14 15  1  0
 15 16  2  0
 15 17  1  0
 16 27  1  0
 17 18  1  0
 17 28  1  0
 18 19  2  0
 18 32  1  0
 29 30  2  0
 29 34  1  0
 29 35  1  0
 30 31  1  0
 30 36  1  0
 31 32  2  0
 31 37  1  0
 32 33  1  0
 33 34  2  0
 33 38  1  0
 34 39  1  0
M  END
>  <r_exp_dg>  (3) 
-7.75

>  <mol_id>  (3) 
2

>  <source_index>  (3) 
2

>  <paff>  (3) 
5.6818181818181817

>  <source_r_exp_dg>  (3) 
-7.75

>  <smiles>  (3) 
O=C(Nc1cc(NC(=O)c2c(Cl)cccc2Cl)ccn1)c1ccccc1

>  <aimnet_interaction_kcal_mol>  (3) 
-62.410172920816429

$$$$
tyk2_003
     RDKit          3D

 32 33  0  0  1  0  0  0  0  0999 V2000
   -3.4239   22.4794  -29.6884 C   0  0  0  0  0  0  0  0  0  0  0  0
   -3.9829   21.5327  -28.8315 C   0  0  0  0  0  0  0  0  0  0  0  0
   -3.3000   21.0216  -27.7445 C   0  0  0  0  0  0  0  0  0  0  0  0
   -5.3031   24.9561  -31.7511 C   0  0  0  0  0  0  0  0  0  0  0  0
   -4.1649   22.9027  -30.9178 C   0  0  0  0  0  0  0  0  0  0  0  0
   -6.0239   24.3993  -32.8101 C   0  0  0  0  0  0  0  0  0  0  0  0
   -6.8985   25.2234  -33.4934 C   0  0  0  0  0  0  0  0  0  0  0  0
   -2.1654   22.9800  -29.3380 C   0  0  0  0  0  0  0  0  0  0  0  0
   -2.0144   21.4699  -27.4939 C   0  0  0  0  0  0  0  0  0  0  0  0
   -1.4499   22.4667  -28.2708 C   0  0  0  0  0  0  0  0  0  0  0  0
   -5.6282   20.9709  -29.1304 Cl  0  0  0  0  0  0  0  0  0  0  0  0
   -4.4656   22.1195  -31.8068 O   0  0  0  0  0  0  0  0  0  0  0  0
   -4.4738   24.2363  -30.9040 N   0  0  0  0  0  0  0  0  0  0  0  0
   -7.1006   26.5093  -33.1950 N   0  0  0  0  0  0  0  0  0  0  0  0
   -6.3411   27.0545  -32.2303 C   0  0  0  0  0  0  0  0  0  0  0  0
   -5.4313   26.3131  -31.4849 C   0  0  0  0  0  0  0  0  0  0  0  0
   -6.5463   28.4142  -32.0421 N   0  0  0  0  0  0  0  0  0  0  0  0
   -5.6646   29.3095  -31.4789 C   0  0  0  0  0  0  0  0  0  0  0  0
   -4.5700   28.9879  -31.0378 O   0  0  0  0  0  0  0  0  0  0  0  0
   -6.1529   30.7295  -31.4416 C   0  0  0  0  0  0  0  0  0  0  0  0
   -1.4397   24.2940  -30.2511 Cl  0  0  0  0  0  0  0  0  0  0  0  0
   -3.7428   20.2618  -27.1218 H   0  0  0  0  0  0  0  0  0  0  0  0
   -5.9165   23.3538  -33.0532 H   0  0  0  0  0  0  0  0  0  0  0  0
   -7.4770   24.8442  -34.3262 H   0  0  0  0  0  0  0  0  0  0  0  0
   -1.4376   21.0179  -26.7004 H   0  0  0  0  0  0  0  0  0  0  0  0
   -0.4530   22.8233  -28.0646 H   0  0  0  0  0  0  0  0  0  0  0  0
   -4.0303   24.7811  -30.1788 H   0  0  0  0  0  0  0  0  0  0  0  0
   -4.8413   26.7896  -30.7199 H   0  0  0  0  0  0  0  0  0  0  0  0
   -7.4787   28.7399  -32.2784 H   0  0  0  0  0  0  0  0  0  0  0  0
   -7.0070   30.9232  -32.0829 H   0  0  0  0  0  0  0  0  0  0  0  0
   -5.3298   31.3833  -31.7149 H   0  0  0  0  0  0  0  0  0  0  0  0
   -6.4424   30.9871  -30.4259 H   0  0  0  0  0  0  0  0  0  0  0  0
  1  2  2  0
  1  5  1  0
  1  8  1  0
  2  3  1  0
  2 11  1  0
  3  9  2  0
  3 22  1  0
  4  6  2  0
  4 13  1  0
  4 16  1  0
  5 12  2  0
  5 13  1  0
  6  7  1  0
  6 23  1  0
  7 14  2  0
  7 24  1  0
  8 10  2  0
  8 21  1  0
  9 10  1  0
  9 25  1  0
 10 26  1  0
 13 27  1  0
 14 15  1  0
 15 16  2  0
 15 17  1  0
 16 28  1  0
 17 18  1  0
 17 29  1  0
 18 19  2  0
 18 20  1  0
 20 30  1  0
 20 31  1  0
 20 32  1  0
M  END
>  <r_exp_dg>  (4) 
-9.54

>  <mol_id>  (4) 
3

>  <source_index>  (4) 
3

>  <paff>  (4) 
6.9941348693937142

>  <source_r_exp_dg>  (4) 
-9.5399999999999991

>  <smiles>  (4) 
CC(=O)Nc1cc(NC(=O)c2c(Cl)cccc2Cl)ccn1

>  <aimnet_interaction_kcal_mol>  (4) 
-55.081525515876905

$$$$
tyk2_004
     RDKit          3D

 39 41  0  0  1  0  0  0  0  0999 V2000
   -3.4316   22.4788  -29.6991 C   0  0  0  0  0  0  0  0  0  0  0  0
   -3.9896   21.5322  -28.8416 C   0  0  0  0  0  0  0  0  0  0  0  0
   -3.3070   21.0230  -27.7535 C   0  0  0  0  0  0  0  0  0  0  0  0
   -5.3178   24.9618  -31.7475 C   0  0  0  0  0  0  0  0  0  0  0  0
   -4.1746   22.9025  -30.9279 C   0  0  0  0  0  0  0  0  0  0  0  0
   -6.0375   24.4174  -32.8134 C   0  0  0  0  0  0  0  0  0  0  0  0
   -6.9075   25.2519  -33.4907 C   0  0  0  0  0  0  0  0  0  0  0  0
   -2.1742   22.9818  -29.3477 C   0  0  0  0  0  0  0  0  0  0  0  0
   -2.0221   21.4731  -27.5023 C   0  0  0  0  0  0  0  0  0  0  0  0
   -1.4587   22.4701  -28.2796 C   0  0  0  0  0  0  0  0  0  0  0  0
   -5.6342   20.9684  -29.1404 Cl  0  0  0  0  0  0  0  0  0  0  0  0
   -4.4769   22.1205  -31.8176 O   0  0  0  0  0  0  0  0  0  0  0  0
   -4.4828   24.2360  -30.9105 N   0  0  0  0  0  0  0  0  0  0  0  0
   -7.1064   26.5375  -33.1819 N   0  0  0  0  0  0  0  0  0  0  0  0
   -6.3511   27.0694  -32.2069 C   0  0  0  0  0  0  0  0  0  0  0  0
   -5.4503   26.3143  -31.4633 C   0  0  0  0  0  0  0  0  0  0  0  0
   -6.5374   28.4309  -31.9957 N   0  0  0  0  0  0  0  0  0  0  0  0
   -5.6381   29.2765  -31.3846 C   0  0  0  0  0  0  0  0  0  0  0  0
   -4.5292   28.9271  -31.0104 O   0  0  0  0  0  0  0  0  0  0  0  0
   -6.1528   30.6861  -31.2031 C   0  0  0  0  0  0  0  0  0  0  0  0
   -1.4495   24.2976  -30.2590 Cl  0  0  0  0  0  0  0  0  0  0  0  0
   -3.7495   20.2638  -27.1299 H   0  0  0  0  0  0  0  0  0  0  0  0
   -5.9323   23.3741  -33.0663 H   0  0  0  0  0  0  0  0  0  0  0  0
   -7.4854   24.8820  -34.3283 H   0  0  0  0  0  0  0  0  0  0  0  0
   -1.4453   21.0228  -26.7078 H   0  0  0  0  0  0  0  0  0  0  0  0
   -0.4627   22.8287  -28.0725 H   0  0  0  0  0  0  0  0  0  0  0  0
   -4.0321   24.7771  -30.1870 H   0  0  0  0  0  0  0  0  0  0  0  0
   -4.8657   26.7813  -30.6887 H   0  0  0  0  0  0  0  0  0  0  0  0
   -7.4639   28.7917  -32.2132 H   0  0  0  0  0  0  0  0  0  0  0  0
   -6.5872   31.0457  -32.1329 H   0  0  0  0  0  0  0  0  0  0  0  0
   -6.9946   30.6662  -30.5065 H   0  0  0  0  0  0  0  0  0  0  0  0
   -4.6903   31.3403  -29.7291 H   0  0  0  0  0  0  0  0  0  0  0  0
   -5.0899   31.6180  -30.6975 C   0  0  0  0  0  0  0  0  0  0  0  0
   -4.1105   32.2331  -31.6468 C   0  0  0  0  0  0  0  0  0  0  0  0
   -5.1642   33.0703  -30.9989 C   0  0  0  0  0  0  0  0  0  0  0  0
   -3.0861   32.3258  -31.3075 H   0  0  0  0  0  0  0  0  0  0  0  0
   -4.2072   31.9448  -32.6846 H   0  0  0  0  0  0  0  0  0  0  0  0
   -4.8529   33.7646  -30.2331 H   0  0  0  0  0  0  0  0  0  0  0  0
   -5.9943   33.4229  -31.5912 H   0  0  0  0  0  0  0  0  0  0  0  0
  1  2  2  0
  1  5  1  0
  1  8  1  0
  2  3  1  0
  2 11  1  0
  3  9  2  0
  3 22  1  0
  4  6  2  0
  4 13  1  0
  4 16  1  0
  5 12  2  0
  5 13  1  0
  6  7  1  0
  6 23  1  0
  7 14  2  0
  7 24  1  0
  8 10  2  0
  8 21  1  0
  9 10  1  0
  9 25  1  0
 10 26  1  0
 13 27  1  0
 14 15  1  0
 15 16  2  0
 15 17  1  0
 16 28  1  0
 17 18  1  0
 17 29  1  0
 18 19  2  0
 18 20  1  0
 20 30  1  0
 20 31  1  0
 20 33  1  0
 32 33  1  0
 33 34  1  0
 33 35  1  0
 34 35  1  0
 34 36  1  0
 34 37  1  0
 35 38  1  0
 35 39  1  0
M  END
>  <r_exp_dg>  (5) 
-9.56

>  <mol_id>  (5) 
4

>  <source_index>  (5) 
4

>  <paff>  (5) 
7.0087979615958202

>  <source_r_exp_dg>  (5) 
-9.5600000000000005

>  <smiles>  (5) 
O=C(CC1CC1)Nc1cc(NC(=O)c2c(Cl)cccc2Cl)ccn1

>  <aimnet_interaction_kcal_mol>  (5) 
-60.425892323424442

$$$$
tyk2_005
     RDKit          3D

 41 42  0  0  1  0  0  0  0  0999 V2000
   -3.2438   22.6163  -29.4557 C   0  0  0  0  0  0  0  0  0  0  0  0
   -3.8856   21.6328  -28.7028 C   0  0  0  0  0  0  0  0  0  0  0  0
   -3.2827   21.0178  -27.6238 C   0  0  0  0  0  0  0  0  0  0  0  0
   -4.6641   25.6466  -31.1211 C   0  0  0  0  0  0  0  0  0  0  0  0
   -3.9497   23.3290  -30.5629 C   0  0  0  0  0  0  0  0  0  0  0  0
   -5.4891   25.3364  -32.2006 C   0  0  0  0  0  0  0  0  0  0  0  0
   -6.1290   26.3866  -32.8270 C   0  0  0  0  0  0  0  0  0  0  0  0
   -1.9236   22.9163  -29.0989 C   0  0  0  0  0  0  0  0  0  0  0  0
   -1.9784   21.3530  -27.3017 C   0  0  0  0  0  0  0  0  0  0  0  0
   -1.2918   22.3064  -28.0322 C   0  0  0  0  0  0  0  0  0  0  0  0
   -5.5185   21.1282  -29.1263 Cl  0  0  0  0  0  0  0  0  0  0  0  0
   -4.4302   22.7392  -31.5184 O   0  0  0  0  0  0  0  0  0  0  0  0
   -3.9968   24.6882  -30.3703 N   0  0  0  0  0  0  0  0  0  0  0  0
   -6.0445   27.6615  -32.4551 N   0  0  0  0  0  0  0  0  0  0  0  0
   -5.2470   27.9480  -31.4164 C   0  0  0  0  0  0  0  0  0  0  0  0
   -4.5074   26.9811  -30.7433 C   0  0  0  0  0  0  0  0  0  0  0  0
   -5.2565   29.3049  -31.0645 N   0  0  0  0  0  0  0  0  0  0  0  0
   -4.3459   29.9392  -30.2443 C   0  0  0  0  0  0  0  0  0  0  0  0
   -3.4138   29.3444  -29.7344 O   0  0  0  0  0  0  0  0  0  0  0  0
   -4.5187   31.4496  -30.0246 C   0  0  0  0  0  0  0  0  0  0  0  0
   -0.9943   24.0771  -30.0426 Cl  0  0  0  0  0  0  0  0  0  0  0  0
   -3.8008   20.2616  -27.0583 H   0  0  0  0  0  0  0  0  0  0  0  0
   -5.6158   24.3180  -32.5245 H   0  0  0  0  0  0  0  0  0  0  0  0
   -6.7449   26.1767  -33.6954 H   0  0  0  0  0  0  0  0  0  0  0  0
   -1.4793   20.8328  -26.4959 H   0  0  0  0  0  0  0  0  0  0  0  0
   -0.2634   22.5368  -27.8020 H   0  0  0  0  0  0  0  0  0  0  0  0
   -3.4306   25.0492  -29.6150 H   0  0  0  0  0  0  0  0  0  0  0  0
   -3.8188   27.2631  -29.9663 H   0  0  0  0  0  0  0  0  0  0  0  0
   -5.9848   29.8382  -31.5088 H   0  0  0  0  0  0  0  0  0  0  0  0
   -5.8008   32.0140  -30.6070 C   0  0  0  0  0  0  0  0  0  0  0  0
   -5.8604   33.0795  -30.3856 H   0  0  0  0  0  0  0  0  0  0  0  0
   -5.8592   31.9035  -31.6887 H   0  0  0  0  0  0  0  0  0  0  0  0
   -6.6860   31.5565  -30.1773 H   0  0  0  0  0  0  0  0  0  0  0  0
   -4.4674   31.7068  -28.5156 C   0  0  0  0  0  0  0  0  0  0  0  0
   -4.4212   32.7796  -28.3300 H   0  0  0  0  0  0  0  0  0  0  0  0
   -5.3547   31.3266  -28.0112 H   0  0  0  0  0  0  0  0  0  0  0  0
   -3.6015   31.2316  -28.0635 H   0  0  0  0  0  0  0  0  0  0  0  0
   -3.3083   32.1271  -30.6827 C   0  0  0  0  0  0  0  0  0  0  0  0
   -3.3203   33.1960  -30.4634 H   0  0  0  0  0  0  0  0  0  0  0  0
   -2.3764   31.7029  -30.3170 H   0  0  0  0  0  0  0  0  0  0  0  0
   -3.3344   31.9983  -31.7699 H   0  0  0  0  0  0  0  0  0  0  0  0
  1  2  2  0
  1  5  1  0
  1  8  1  0
  2  3  1  0
  2 11  1  0
  3  9  2  0
  3 22  1  0
  4  6  2  0
  4 13  1  0
  4 16  1  0
  5 12  2  0
  5 13  1  0
  6  7  1  0
  6 23  1  0
  7 14  2  0
  7 24  1  0
  8 10  2  0
  8 21  1  0
  9 10  1  0
  9 25  1  0
 10 26  1  0
 13 27  1  0
 14 15  1  0
 15 16  2  0
 15 17  1  0
 16 28  1  0
 17 18  1  0
 17 29  1  0
 18 19  2  0
 18 20  1  0
 20 30  1  0
 20 34  1  0
 20 38  1  0
 30 31  1  0
 30 32  1  0
 30 33  1  0
 34 35  1  0
 34 36  1  0
 34 37  1  0
 38 39  1  0
 38 40  1  0
 38 41  1  0
M  END
>  <r_exp_dg>  (6) 
-7.42

>  <mol_id>  (6) 
5

>  <source_index>  (6) 
5

>  <paff>  (6) 
5.4398827538811911

>  <source_r_exp_dg>  (6) 
-7.4199999999999999

>  <smiles>  (6) 
CC(C)(C)C(=O)Nc1cc(NC(=O)c2c(Cl)cccc2Cl)ccn1

>  <aimnet_interaction_kcal_mol>  (6) 
-47.933083171181423

$$$$
tyk2_006
     RDKit          3D

 38 39  0  0  1  0  0  0  0  0999 V2000
   -3.4052   22.6699  -29.5733 C   0  0  0  0  0  0  0  0  0  0  0  0
   -3.9702   21.6578  -28.7962 C   0  0  0  0  0  0  0  0  0  0  0  0
   -3.2991   21.0728  -27.7400 C   0  0  0  0  0  0  0  0  0  0  0  0
   -5.1794   25.3964  -31.4409 C   0  0  0  0  0  0  0  0  0  0  0  0
   -4.1523   23.2480  -30.7342 C   0  0  0  0  0  0  0  0  0  0  0  0
   -5.9291   24.8908  -32.5015 C   0  0  0  0  0  0  0  0  0  0  0  0
   -6.7331   25.7729  -33.1935 C   0  0  0  0  0  0  0  0  0  0  0  0
   -2.1106   23.0752  -29.2329 C   0  0  0  0  0  0  0  0  0  0  0  0
   -2.0042   21.4769  -27.4622 C   0  0  0  0  0  0  0  0  0  0  0  0
   -1.4075   22.4867  -28.1968 C   0  0  0  0  0  0  0  0  0  0  0  0
   -5.5920   21.0754  -29.1674 Cl  0  0  0  0  0  0  0  0  0  0  0  0
   -4.4996   22.5564  -31.6790 O   0  0  0  0  0  0  0  0  0  0  0  0
   -4.4006   24.5937  -30.6129 N   0  0  0  0  0  0  0  0  0  0  0  0
   -6.8319   27.0761  -32.9283 N   0  0  0  0  0  0  0  0  0  0  0  0
   -6.0734   27.5676  -31.9342 C   0  0  0  0  0  0  0  0  0  0  0  0
   -5.2324   26.7630  -31.1641 C   0  0  0  0  0  0  0  0  0  0  0  0
   -6.2078   28.9513  -31.7633 N   0  0  0  0  0  0  0  0  0  0  0  0
   -5.3663   29.7847  -31.0528 C   0  0  0  0  0  0  0  0  0  0  0  0
   -4.4598   29.3546  -30.3535 O   0  0  0  0  0  0  0  0  0  0  0  0
   -5.6086   31.2856  -31.2012 C   0  0  0  0  0  0  0  0  0  0  0  0
   -1.3158   24.3417  -30.1547 Cl  0  0  0  0  0  0  0  0  0  0  0  0
   -3.7597   20.2903  -27.1602 H   0  0  0  0  0  0  0  0  0  0  0  0
   -5.8822   23.8457  -32.7540 H   0  0  0  0  0  0  0  0  0  0  0  0
   -7.3335   25.4013  -34.0179 H   0  0  0  0  0  0  0  0  0  0  0  0
   -1.4434   20.9752  -26.6869 H   0  0  0  0  0  0  0  0  0  0  0  0
   -0.3933   22.7897  -27.9882 H   0  0  0  0  0  0  0  0  0  0  0  0
   -3.9477   25.0674  -29.8439 H   0  0  0  0  0  0  0  0  0  0  0  0
   -4.6256   27.1925  -30.3855 H   0  0  0  0  0  0  0  0  0  0  0  0
   -7.0669   29.3387  -32.1376 H   0  0  0  0  0  0  0  0  0  0  0  0
   -6.4047   31.4465  -31.9221 H   0  0  0  0  0  0  0  0  0  0  0  0
   -4.3274   31.9546  -31.7062 C   0  0  0  0  0  0  0  0  0  0  0  0
   -4.4453   33.0371  -31.6488 H   0  0  0  0  0  0  0  0  0  0  0  0
   -3.4817   31.6736  -31.0836 H   0  0  0  0  0  0  0  0  0  0  0  0
   -4.0906   31.6791  -32.7310 H   0  0  0  0  0  0  0  0  0  0  0  0
   -6.0214   31.9186  -29.8739 C   0  0  0  0  0  0  0  0  0  0  0  0
   -6.1021   32.9998  -29.9812 H   0  0  0  0  0  0  0  0  0  0  0  0
   -6.9903   31.5737  -29.5489 H   0  0  0  0  0  0  0  0  0  0  0  0
   -5.2979   31.6926  -29.0930 H   0  0  0  0  0  0  0  0  0  0  0  0
  1  2  2  0
  1  5  1  0
  1  8  1  0
  2  3  1  0
  2 11  1  0
  3  9  2  0
  3 22  1  0
  4  6  2  0
  4 13  1  0
  4 16  1  0
  5 12  2  0
  5 13  1  0
  6  7  1  0
  6 23  1  0
  7 14  2  0
  7 24  1  0
  8 10  2  0
  8 21  1  0
  9 10  1  0
  9 25  1  0
 10 26  1  0
 13 27  1  0
 14 15  1  0
 15 16  2  0
 15 17  1  0
 16 28  1  0
 17 18  1  0
 17 29  1  0
 18 19  2  0
 18 20  1  0
 20 30  1  0
 20 31  1  0
 20 35  1  0
 31 32  1  0
 31 33  1  0
 31 34  1  0
 35 36  1  0
 35 37  1  0
 35 38  1  0
M  END
>  <r_exp_dg>  (7) 
-8.26

>  <mol_id>  (7) 
6

>  <source_index>  (7) 
6

>  <paff>  (7) 
6.0557186428752461

>  <source_r_exp_dg>  (7) 
-8.2599999999999998

>  <smiles>  (7) 
CC(C)C(=O)Nc1cc(NC(=O)c2c(Cl)cccc2Cl)ccn1

>  <aimnet_interaction_kcal_mol>  (7) 
-51.946434325840038

$$$$
tyk2_007
     RDKit          3D

 33 34  0  0  1  0  0  0  0  0999 V2000
   -3.4214   22.5376  -29.6831 C   0  0  0  0  0  0  0  0  0  0  0  0
   -3.9850   21.5714  -28.8500 C   0  0  0  0  0  0  0  0  0  0  0  0
   -3.3115   21.0430  -27.7656 C   0  0  0  0  0  0  0  0  0  0  0  0
   -5.2687   25.0673  -31.7208 C   0  0  0  0  0  0  0  0  0  0  0  0
   -4.1563   22.9959  -30.9038 C   0  0  0  0  0  0  0  0  0  0  0  0
   -5.9981   24.5099  -32.7732 C   0  0  0  0  0  0  0  0  0  0  0  0
   -6.8667   25.3338  -33.4621 C   0  0  0  0  0  0  0  0  0  0  0  0
   -2.1567   23.0167  -29.3247 C   0  0  0  0  0  0  0  0  0  0  0  0
   -2.0260   21.4823  -27.4989 C   0  0  0  0  0  0  0  0  0  0  0  0
   -1.4505   22.4844  -28.2604 C   0  0  0  0  0  0  0  0  0  0  0  0
   -5.6195   20.9957  -29.1788 Cl  0  0  0  0  0  0  0  0  0  0  0  0
   -4.4672   22.2297  -31.8038 O   0  0  0  0  0  0  0  0  0  0  0  0
   -4.4460   24.3359  -30.8756 N   0  0  0  0  0  0  0  0  0  0  0  0
   -7.0483   26.6268  -33.1804 N   0  0  0  0  0  0  0  0  0  0  0  0
   -6.2808   27.1750  -32.2247 C   0  0  0  0  0  0  0  0  0  0  0  0
   -5.3849   26.4293  -31.4643 C   0  0  0  0  0  0  0  0  0  0  0  0
   -6.4672   28.5440  -32.0620 N   0  0  0  0  0  0  0  0  0  0  0  0
   -5.5817   29.4331  -31.4938 C   0  0  0  0  0  0  0  0  0  0  0  0
   -4.5108   29.1072  -31.0106 O   0  0  0  0  0  0  0  0  0  0  0  0
   -6.0696   30.8797  -31.4669 C   0  0  0  0  0  0  0  0  0  0  0  0
   -1.4060   24.3193  -30.2338 Cl  0  0  0  0  0  0  0  0  0  0  0  0
   -3.7621   20.2772  -27.1561 H   0  0  0  0  0  0  0  0  0  0  0  0
   -5.8992   23.4624  -33.0085 H   0  0  0  0  0  0  0  0  0  0  0  0
   -7.4546   24.9464  -34.2861 H   0  0  0  0  0  0  0  0  0  0  0  0
   -1.4578   21.0184  -26.7060 H   0  0  0  0  0  0  0  0  0  0  0  0
   -0.4513   22.8294  -28.0459 H   0  0  0  0  0  0  0  0  0  0  0  0
   -3.9917   24.8697  -30.1485 H   0  0  0  0  0  0  0  0  0  0  0  0
   -4.7958   26.9016  -30.6964 H   0  0  0  0  0  0  0  0  0  0  0  0
   -7.3938   28.8778  -32.3088 H   0  0  0  0  0  0  0  0  0  0  0  0
   -7.0376   30.9758  -31.9614 H   0  0  0  0  0  0  0  0  0  0  0  0
   -6.2003   31.1566  -30.4224 H   0  0  0  0  0  0  0  0  0  0  0  0
   -5.1032   31.7765  -32.0472 O   0  0  0  0  0  0  0  0  0  0  0  0
   -5.6425   32.4164  -32.5329 H   0  0  0  0  0  0  0  0  0  0  0  0
  1  2  2  0
  1  5  1  0
  1  8  1  0
  2  3  1  0
  2 11  1  0
  3  9  2  0
  3 22  1  0
  4  6  2  0
  4 13  1  0
  4 16  1  0
  5 12  2  0
  5 13  1  0
  6  7  1  0
  6 23  1  0
  7 14  2  0
  7 24  1  0
  8 10  2  0
  8 21  1  0
  9 10  1  0
  9 25  1  0
 10 26  1  0
 13 27  1  0
 14 15  1  0
 15 16  2  0
 15 17  1  0
 16 28  1  0
 17 18  1  0
 17 29  1  0
 18 19  2  0
 18 20  1  0
 20 30  1  0
 20 31  1  0
 20 32  1  0
 32 33  1  0
M  END
>  <r_exp_dg>  (8) 
-8.98

>  <mol_id>  (8) 
7

>  <source_index>  (8) 
7

>  <paff>  (8) 
6.5835773770061055

>  <source_r_exp_dg>  (8) 
-8.9800000000000004

>  <smiles>  (8) 
O=C(CO)Nc1cc(NC(=O)c2c(Cl)cccc2Cl)ccn1

>  <aimnet_interaction_kcal_mol>  (8) 
-63.186666910796291

$$$$
tyk2_008
     RDKit          3D

 35 36  0  0  1  0  0  0  0  0999 V2000
   -3.4258   22.4800  -29.7003 C   0  0  0  0  0  0  0  0  0  0  0  0
   -3.9903   21.5361  -28.8437 C   0  0  0  0  0  0  0  0  0  0  0  0
   -3.3142   21.0269  -27.7516 C   0  0  0  0  0  0  0  0  0  0  0  0
   -5.2978   24.9525  -31.7739 C   0  0  0  0  0  0  0  0  0  0  0  0
   -4.1602   22.8998  -30.9353 C   0  0  0  0  0  0  0  0  0  0  0  0
   -6.0220   24.3944  -32.8296 C   0  0  0  0  0  0  0  0  0  0  0  0
   -6.9033   25.2165  -33.5073 C   0  0  0  0  0  0  0  0  0  0  0  0
   -2.1686   22.9799  -29.3436 C   0  0  0  0  0  0  0  0  0  0  0  0
   -2.0289   21.4732  -27.4957 C   0  0  0  0  0  0  0  0  0  0  0  0
   -1.4592   22.4674  -28.2718 C   0  0  0  0  0  0  0  0  0  0  0  0
   -5.6342   20.9743  -29.1488 Cl  0  0  0  0  0  0  0  0  0  0  0  0
   -4.4660   22.1115  -31.8182 O   0  0  0  0  0  0  0  0  0  0  0  0
   -4.4573   24.2360  -30.9341 N   0  0  0  0  0  0  0  0  0  0  0  0
   -7.1118   26.5000  -33.2039 N   0  0  0  0  0  0  0  0  0  0  0  0
   -6.3522   27.0465  -32.2395 C   0  0  0  0  0  0  0  0  0  0  0  0
   -5.4320   26.3077  -31.5028 C   0  0  0  0  0  0  0  0  0  0  0  0
   -6.5696   28.4016  -32.0388 N   0  0  0  0  0  0  0  0  0  0  0  0
   -5.6868   29.2955  -31.4731 C   0  0  0  0  0  0  0  0  0  0  0  0
   -4.5730   28.9751  -31.0826 O   0  0  0  0  0  0  0  0  0  0  0  0
   -6.2213   30.6987  -31.3591 C   0  0  0  0  0  0  0  0  0  0  0  0
   -1.4347   24.2923  -30.2531 Cl  0  0  0  0  0  0  0  0  0  0  0  0
   -3.7620   20.2703  -27.1288 H   0  0  0  0  0  0  0  0  0  0  0  0
   -5.9117   23.3499  -33.0750 H   0  0  0  0  0  0  0  0  0  0  0  0
   -7.4824   24.8376  -34.3395 H   0  0  0  0  0  0  0  0  0  0  0  0
   -1.4571   21.0221  -26.6981 H   0  0  0  0  0  0  0  0  0  0  0  0
   -0.4629   22.8231  -28.0611 H   0  0  0  0  0  0  0  0  0  0  0  0
   -4.0024   24.7842  -30.2188 H   0  0  0  0  0  0  0  0  0  0  0  0
   -4.8400   26.7857  -30.7401 H   0  0  0  0  0  0  0  0  0  0  0  0
   -7.5097   28.7277  -32.2519 H   0  0  0  0  0  0  0  0  0  0  0  0
   -6.9417   30.9016  -32.1484 H   0  0  0  0  0  0  0  0  0  0  0  0
   -6.8044   30.7578  -30.4411 H   0  0  0  0  0  0  0  0  0  0  0  0
   -5.1168   31.7382  -31.3168 C   0  0  0  0  0  0  0  0  0  0  0  0
   -5.5433   32.7377  -31.2600 H   0  0  0  0  0  0  0  0  0  0  0  0
   -4.4854   31.5802  -30.4466 H   0  0  0  0  0  0  0  0  0  0  0  0
   -4.4712   31.6831  -32.1947 H   0  0  0  0  0  0  0  0  0  0  0  0
  1  2  2  0
  1  5  1  0
  1  8  1  0
  2  3  1  0
  2 11  1  0
  3  9  2  0
  3 22  1  0
  4  6  2  0
  4 13  1  0
  4 16  1  0
  5 12  2  0
  5 13  1  0
  6  7  1  0
  6 23  1  0
  7 14  2  0
  7 24  1  0
  8 10  2  0
  8 21  1  0
  9 10  1  0
  9 25  1  0
 10 26  1  0
 13 27  1  0
 14 15  1  0
 15 16  2  0
 15 17  1  0
 16 28  1  0
 17 18  1  0
 17 29  1  0
 18 19  2  0
 18 20  1  0
 20 30  1  0
 20 31  1  0
 20 32  1  0
 32 33  1  0
 32 34  1  0
 32 35  1  0
M  END
>  <r_exp_dg>  (9) 
-9.78

>  <mol_id>  (9) 
8

>  <source_index>  (9) 
8

>  <paff>  (9) 
7.1700877807706673

>  <source_r_exp_dg>  (9) 
-9.7799999999999994

>  <smiles>  (9) 
CCC(=O)Nc1cc(NC(=O)c2c(Cl)cccc2Cl)ccn1

>  <aimnet_interaction_kcal_mol>  (9) 
-56.704855366637332

$$$$
tyk2_009
     RDKit          3D

 33 34  0  0  1  0  0  0  0  0999 V2000
   -3.4236   22.4941  -29.6892 C   0  0  0  0  0  0  0  0  0  0  0  0
   -3.9851   21.5456  -28.8354 C   0  0  0  0  0  0  0  0  0  0  0  0
   -3.3049   21.0317  -27.7481 C   0  0  0  0  0  0  0  0  0  0  0  0
   -5.2973   24.9555  -31.7781 C   0  0  0  0  0  0  0  0  0  0  0  0
   -4.1579   22.9148  -30.9237 C   0  0  0  0  0  0  0  0  0  0  0  0
   -6.0125   24.3761  -32.8292 C   0  0  0  0  0  0  0  0  0  0  0  0
   -6.8992   25.1801  -33.5216 C   0  0  0  0  0  0  0  0  0  0  0  0
   -2.1645   22.9907  -29.3363 C   0  0  0  0  0  0  0  0  0  0  0  0
   -2.0186   21.4770  -27.4948 C   0  0  0  0  0  0  0  0  0  0  0  0
   -1.4511   22.4739  -28.2693 C   0  0  0  0  0  0  0  0  0  0  0  0
   -5.6282   20.9812  -29.1395 Cl  0  0  0  0  0  0  0  0  0  0  0  0
   -4.4575   22.1254  -31.8076 O   0  0  0  0  0  0  0  0  0  0  0  0
   -4.4620   24.2503  -30.9246 N   0  0  0  0  0  0  0  0  0  0  0  0
   -7.1236   26.4635  -33.2323 N   0  0  0  0  0  0  0  0  0  0  0  0
   -6.3765   27.0299  -32.2691 C   0  0  0  0  0  0  0  0  0  0  0  0
   -5.4411   26.3149  -31.5283 C   0  0  0  0  0  0  0  0  0  0  0  0
   -6.6260   28.3776  -32.0769 N   0  0  0  0  0  0  0  0  0  0  0  0
   -5.7859   29.2953  -31.5074 C   0  0  0  0  0  0  0  0  0  0  0  0
   -4.7098   29.0878  -30.9855 O   0  0  0  0  0  0  0  0  0  0  0  0
   -1.4336   24.3025  -30.2489 Cl  0  0  0  0  0  0  0  0  0  0  0  0
   -3.7504   20.2720  -27.1273 H   0  0  0  0  0  0  0  0  0  0  0  0
   -5.8917   23.3302  -33.0616 H   0  0  0  0  0  0  0  0  0  0  0  0
   -7.4705   24.7879  -34.3524 H   0  0  0  0  0  0  0  0  0  0  0  0
   -1.4440   21.0226  -26.7012 H   0  0  0  0  0  0  0  0  0  0  0  0
   -0.4535   22.8277  -28.0619 H   0  0  0  0  0  0  0  0  0  0  0  0
   -4.0197   24.8038  -30.2057 H   0  0  0  0  0  0  0  0  0  0  0  0
   -4.8518   26.8115  -30.7748 H   0  0  0  0  0  0  0  0  0  0  0  0
   -7.5695   28.7055  -32.2822 H   0  0  0  0  0  0  0  0  0  0  0  0
   -6.3647   30.5109  -31.6301 O   0  0  0  0  0  0  0  0  0  0  0  0
   -5.6817   31.5791  -30.9598 C   0  0  0  0  0  0  0  0  0  0  0  0
   -4.6270   31.5792  -31.2318 H   0  0  0  0  0  0  0  0  0  0  0  0
   -6.1740   32.4878  -31.2848 H   0  0  0  0  0  0  0  0  0  0  0  0
   -5.7792   31.4613  -29.8838 H   0  0  0  0  0  0  0  0  0  0  0  0
  1  2  2  0
  1  5  1  0
  1  8  1  0
  2  3  1  0
  2 11  1  0
  3  9  2  0
  3 21  1  0
  4  6  2  0
  4 13  1  0
  4 16  1  0
  5 12  2  0
  5 13  1  0
  6  7  1  0
  6 22  1  0
  7 14  2  0
  7 23  1  0
  8 10  2  0
  8 20  1  0
  9 10  1  0
  9 24  1  0
 10 25  1  0
 13 26  1  0
 14 15  1  0
 15 16  2  0
 15 17  1  0
 16 27  1  0
 17 18  1  0
 17 28  1  0
 18 19  2  0
 18 29  1  0
 29 30  1  0
 30 31  1  0
 30 32  1  0
 30 33  1  0
M  END
>  <r_exp_dg>  (10) 
-9.21

>  <mol_id>  (10) 
9

>  <source_index>  (10) 
9

>  <paff>  (10) 
6.7521994414567246

>  <source_r_exp_dg>  (10) 
-9.2100000000000009

>  <smiles>  (10) 
COC(=O)Nc1cc(NC(=O)c2c(Cl)cccc2Cl)ccn1

>  <aimnet_interaction_kcal_mol>  (10) 
-56.863137723982533

$$$$
tyk2_010
     RDKit          3D

 42 44  0  0  1  0  0  0  0  0999 V2000
   -3.3909   22.6413  -29.5784 C   0  0  0  0  0  0  0  0  0  0  0  0
   -3.9642   21.6402  -28.7934 C   0  0  0  0  0  0  0  0  0  0  0  0
   -3.3014   21.0639  -27.7273 C   0  0  0  0  0  0  0  0  0  0  0  0
   -5.1654   25.3451  -31.4708 C   0  0  0  0  0  0  0  0  0  0  0  0
   -4.1292   23.2053  -30.7516 C   0  0  0  0  0  0  0  0  0  0  0  0
   -5.9242   24.8326  -32.5214 C   0  0  0  0  0  0  0  0  0  0  0  0
   -6.7449   25.7076  -33.2031 C   0  0  0  0  0  0  0  0  0  0  0  0
   -2.1002   23.0518  -29.2294 C   0  0  0  0  0  0  0  0  0  0  0  0
   -2.0078   21.4685  -27.4447 C   0  0  0  0  0  0  0  0  0  0  0  0
   -1.4051   22.4718  -28.1831 C   0  0  0  0  0  0  0  0  0  0  0  0
   -5.5881   21.0633  -29.1660 Cl  0  0  0  0  0  0  0  0  0  0  0  0
   -4.4754   22.5037  -31.6897 O   0  0  0  0  0  0  0  0  0  0  0  0
   -4.3729   24.5523  -30.6471 N   0  0  0  0  0  0  0  0  0  0  0  0
   -6.8573   27.0092  -32.9320 N   0  0  0  0  0  0  0  0  0  0  0  0
   -6.0899   27.5063  -31.9481 C   0  0  0  0  0  0  0  0  0  0  0  0
   -5.2252   26.7102  -31.1968 C   0  0  0  0  0  0  0  0  0  0  0  0
   -6.2454   28.8848  -31.7520 N   0  0  0  0  0  0  0  0  0  0  0  0
   -5.3796   29.7423  -31.0962 C   0  0  0  0  0  0  0  0  0  0  0  0
   -4.3892   29.3466  -30.4972 O   0  0  0  0  0  0  0  0  0  0  0  0
   -1.2993   24.3165  -30.1490 Cl  0  0  0  0  0  0  0  0  0  0  0  0
   -3.7670   20.2869  -27.1440 H   0  0  0  0  0  0  0  0  0  0  0  0
   -5.8733   23.7871  -32.7709 H   0  0  0  0  0  0  0  0  0  0  0  0
   -7.3516   25.3341  -34.0219 H   0  0  0  0  0  0  0  0  0  0  0  0
   -1.4529   20.9722  -26.6617 H   0  0  0  0  0  0  0  0  0  0  0  0
   -0.3922   22.7759  -27.9698 H   0  0  0  0  0  0  0  0  0  0  0  0
   -3.9115   25.0360  -29.8898 H   0  0  0  0  0  0  0  0  0  0  0  0
   -4.6070   27.1451  -30.4299 H   0  0  0  0  0  0  0  0  0  0  0  0
   -7.1294   29.2592  -32.0804 H   0  0  0  0  0  0  0  0  0  0  0  0
   -6.6210   31.3252  -31.7951 H   0  0  0  0  0  0  0  0  0  0  0  0
   -5.7163   31.2211  -31.2043 C   0  0  0  0  0  0  0  0  0  0  0  0
   -5.8445   31.9236  -29.8411 C   0  0  0  0  0  0  0  0  0  0  0  0
   -4.4184   32.2573  -29.3975 C   0  0  0  0  0  0  0  0  0  0  0  0
   -3.5841   32.3252  -30.6871 C   0  0  0  0  0  0  0  0  0  0  0  0
   -4.5506   32.0129  -31.8282 C   0  0  0  0  0  0  0  0  0  0  0  0
   -6.3860   31.3388  -29.1108 H   0  0  0  0  0  0  0  0  0  0  0  0
   -6.4241   32.8331  -29.9965 H   0  0  0  0  0  0  0  0  0  0  0  0
   -4.3914   33.1859  -28.8301 H   0  0  0  0  0  0  0  0  0  0  0  0
   -4.0332   31.4806  -28.7434 H   0  0  0  0  0  0  0  0  0  0  0  0
   -3.1242   33.3072  -30.8294 H   0  0  0  0  0  0  0  0  0  0  0  0
   -2.7759   31.5984  -30.6605 H   0  0  0  0  0  0  0  0  0  0  0  0
   -4.0840   31.4904  -32.6564 H   0  0  0  0  0  0  0  0  0  0  0  0
   -4.9857   32.9338  -32.2153 H   0  0  0  0  0  0  0  0  0  0  0  0
  1  2  2  0
  1  5  1  0
  1  8  1  0
  2  3  1  0
  2 11  1  0
  3  9  2  0
  3 21  1  0
  4  6  2  0
  4 13  1  0
  4 16  1  0
  5 12  2  0
  5 13  1  0
  6  7  1  0
  6 22  1  0
  7 14  2  0
  7 23  1  0
  8 10  2  0
  8 20  1  0
  9 10  1  0
  9 24  1  0
 10 25  1  0
 13 26  1  0
 14 15  1  0
 15 16  2  0
 15 17  1  0
 16 27  1  0
 17 18  1  0
 17 28  1  0
 18 19  2  0
 18 30  1  0
 29 30  1  0
 30 31  1  0
 30 34  1  0
 31 32  1  0
 31 35  1  0
 31 36  1  0
 32 33  1  0
 32 37  1  0
 32 38  1  0
 33 34  1  0
 33 39  1  0
 33 40  1  0
 34 41  1  0
 34 42  1  0
M  END
>  <r_exp_dg>  (11) 
-9

>  <mol_id>  (11) 
10

>  <source_index>  (11) 
10

>  <paff>  (11) 
6.5982404692082106

>  <source_r_exp_dg>  (11) 
-9

>  <smiles>  (11) 
O=C(Nc1ccnc(NC(=O)C2CCCC2)c1)c1c(Cl)cccc1Cl

>  <aimnet_interaction_kcal_mol>  (11) 
-54.374962779577281

$$$$
tyk2_011
     RDKit          3D

 37 38  0  0  1  0  0  0  0  0999 V2000
   -3.4220   22.5046  -29.6927 C   0  0  0  0  0  0  0  0  0  0  0  0
   -3.9849   21.5524  -28.8444 C   0  0  0  0  0  0  0  0  0  0  0  0
   -3.3080   21.0356  -27.7563 C   0  0  0  0  0  0  0  0  0  0  0  0
   -5.2960   24.9835  -31.7666 C   0  0  0  0  0  0  0  0  0  0  0  0
   -4.1557   22.9338  -30.9260 C   0  0  0  0  0  0  0  0  0  0  0  0
   -6.0142   24.4103  -32.8198 C   0  0  0  0  0  0  0  0  0  0  0  0
   -6.9065   25.2191  -33.4983 C   0  0  0  0  0  0  0  0  0  0  0  0
   -2.1624   22.9974  -29.3368 C   0  0  0  0  0  0  0  0  0  0  0  0
   -2.0226   21.4798  -27.4976 C   0  0  0  0  0  0  0  0  0  0  0  0
   -1.4526   22.4779  -28.2684 C   0  0  0  0  0  0  0  0  0  0  0  0
   -5.6258   20.9842  -29.1559 Cl  0  0  0  0  0  0  0  0  0  0  0  0
   -4.4583   22.1465  -31.8114 O   0  0  0  0  0  0  0  0  0  0  0  0
   -4.4544   24.2697  -30.9221 N   0  0  0  0  0  0  0  0  0  0  0  0
   -7.1308   26.5005  -33.1989 N   0  0  0  0  0  0  0  0  0  0  0  0
   -6.3737   27.0656  -32.2405 C   0  0  0  0  0  0  0  0  0  0  0  0
   -5.4383   26.3388  -31.5054 C   0  0  0  0  0  0  0  0  0  0  0  0
   -6.6182   28.4105  -32.0450 N   0  0  0  0  0  0  0  0  0  0  0  0
   -5.7370   29.3350  -31.4962 C   0  0  0  0  0  0  0  0  0  0  0  0
   -4.6108   29.0567  -31.0988 O   0  0  0  0  0  0  0  0  0  0  0  0
   -1.4245   24.3060  -30.2482 Cl  0  0  0  0  0  0  0  0  0  0  0  0
   -3.7558   20.2747  -27.1385 H   0  0  0  0  0  0  0  0  0  0  0  0
   -5.8909   23.3667  -33.0606 H   0  0  0  0  0  0  0  0  0  0  0  0
   -7.4831   24.8314  -34.3283 H   0  0  0  0  0  0  0  0  0  0  0  0
   -1.4508   21.0237  -26.7029 H   0  0  0  0  0  0  0  0  0  0  0  0
   -0.4553   22.8306  -28.0573 H   0  0  0  0  0  0  0  0  0  0  0  0
   -4.0039   24.8196  -30.2055 H   0  0  0  0  0  0  0  0  0  0  0  0
   -4.8451   26.8316  -30.7533 H   0  0  0  0  0  0  0  0  0  0  0  0
   -7.5651   28.7222  -32.2443 H   0  0  0  0  0  0  0  0  0  0  0  0
   -7.2488   30.7266  -31.5485 H   0  0  0  0  0  0  0  0  0  0  0  0
   -6.2548   30.5931  -31.4757 N   0  0  0  0  0  0  0  0  0  0  0  0
   -5.4504   31.7475  -31.1277 C   0  0  0  0  0  0  0  0  0  0  0  0
   -5.8930   32.6072  -31.6284 H   0  0  0  0  0  0  0  0  0  0  0  0
   -4.4601   31.5814  -31.5550 H   0  0  0  0  0  0  0  0  0  0  0  0
   -5.3289   32.0068  -29.6403 C   0  0  0  0  0  0  0  0  0  0  0  0
   -4.7263   32.9001  -29.4680 H   0  0  0  0  0  0  0  0  0  0  0  0
   -6.3049   32.1669  -29.1891 H   0  0  0  0  0  0  0  0  0  0  0  0
   -4.8470   31.1720  -29.1383 H   0  0  0  0  0  0  0  0  0  0  0  0
  1  2  2  0
  1  5  1  0
  1  8  1  0
  2  3  1  0
  2 11  1  0
  3  9  2  0
  3 21  1  0
  4  6  2  0
  4 13  1  0
  4 16  1  0
  5 12  2  0
  5 13  1  0
  6  7  1  0
  6 22  1  0
  7 14  2  0
  7 23  1  0
  8 10  2  0
  8 20  1  0
  9 10  1  0
  9 24  1  0
 10 25  1  0
 13 26  1  0
 14 15  1  0
 15 16  2  0
 15 17  1  0
 16 27  1  0
 17 18  1  0
 17 28  1  0
 18 19  2  0
 18 30  1  0
 29 30  1  0
 30 31  1  0
 31 32  1  0
 31 33  1  0
 31 34  1  0
 34 35  1  0
 34 36  1  0
 34 37  1  0
M  END
>  <r_exp_dg>  (12) 
-10.53

>  <mol_id>  (12) 
11

>  <source_index>  (12) 
11

>  <paff>  (12) 
7.7199411532046849

>  <source_r_exp_dg>  (12) 
-10.529999999999999

>  <smiles>  (12) 
CCNC(=O)Nc1cc(NC(=O)c2c(Cl)cccc2Cl)ccn1

>  <aimnet_interaction_kcal_mol>  (12) 
-63.905208271586709

$$$$
tyk2_012
     RDKit          3D

 39 41  0  0  1  0  0  0  0  0999 V2000
   -3.3962   22.5745  -29.6450 C   0  0  0  0  0  0  0  0  0  0  0  0
   -3.9684   21.5975  -28.8299 C   0  0  0  0  0  0  0  0  0  0  0  0
   -3.3032   21.0503  -27.7498 C   0  0  0  0  0  0  0  0  0  0  0  0
   -5.2072   25.1594  -31.6547 C   0  0  0  0  0  0  0  0  0  0  0  0
   -4.1240   23.0671  -30.8564 C   0  0  0  0  0  0  0  0  0  0  0  0
   -5.9488   24.6014  -32.6975 C   0  0  0  0  0  0  0  0  0  0  0  0
   -6.8230   25.4240  -33.3798 C   0  0  0  0  0  0  0  0  0  0  0  0
   -2.1219   23.0256  -29.2852 C   0  0  0  0  0  0  0  0  0  0  0  0
   -2.0142   21.4732  -27.4737 C   0  0  0  0  0  0  0  0  0  0  0  0
   -1.4241   22.4742  -28.2252 C   0  0  0  0  0  0  0  0  0  0  0  0
   -5.5995   21.0237  -29.1779 Cl  0  0  0  0  0  0  0  0  0  0  0  0
   -4.4465   22.3174  -31.7660 O   0  0  0  0  0  0  0  0  0  0  0  0
   -4.3905   24.4125  -30.8138 N   0  0  0  0  0  0  0  0  0  0  0  0
   -6.9995   26.7175  -33.1045 N   0  0  0  0  0  0  0  0  0  0  0  0
   -6.2242   27.2667  -32.1534 C   0  0  0  0  0  0  0  0  0  0  0  0
   -5.3102   26.5239  -31.4069 C   0  0  0  0  0  0  0  0  0  0  0  0
   -6.4369   28.6293  -31.9796 N   0  0  0  0  0  0  0  0  0  0  0  0
   -5.6145   29.5399  -31.3468 C   0  0  0  0  0  0  0  0  0  0  0  0
   -4.5276   29.2472  -30.8621 O   0  0  0  0  0  0  0  0  0  0  0  0
   -6.1904   30.8985  -31.2824 C   0  0  1  0  0  0  0  0  0  0  0  0
   -5.9691   31.7253  -30.0409 C   0  0  0  0  0  0  0  0  0  0  0  0
   -5.3361   32.1597  -31.3001 C   0  0  1  0  0  0  0  0  0  0  0  0
   -1.3450   24.3124  -30.1957 Cl  0  0  0  0  0  0  0  0  0  0  0  0
   -3.7630   20.2816  -27.1510 H   0  0  0  0  0  0  0  0  0  0  0  0
   -5.8513   23.5545  -32.9296 H   0  0  0  0  0  0  0  0  0  0  0  0
   -7.4223   25.0290  -34.1930 H   0  0  0  0  0  0  0  0  0  0  0  0
   -1.4539   20.9953  -26.6832 H   0  0  0  0  0  0  0  0  0  0  0  0
   -0.4191   22.8013  -28.0088 H   0  0  0  0  0  0  0  0  0  0  0  0
   -3.9318   24.9336  -30.0802 H   0  0  0  0  0  0  0  0  0  0  0  0
   -4.7013   27.0020  -30.6571 H   0  0  0  0  0  0  0  0  0  0  0  0
   -7.3740   28.9392  -32.2256 H   0  0  0  0  0  0  0  0  0  0  0  0
   -7.1432   31.0020  -31.7773 H   0  0  0  0  0  0  0  0  0  0  0  0
   -5.3231   31.2914  -29.2917 H   0  0  0  0  0  0  0  0  0  0  0  0
   -6.8070   32.2787  -29.6503 H   0  0  0  0  0  0  0  0  0  0  0  0
   -5.8185   32.9932  -31.7961 H   0  0  0  0  0  0  0  0  0  0  0  0
   -3.8446   32.1494  -31.4751 C   0  0  0  0  0  0  0  0  0  0  0  0
   -3.5681   31.8849  -32.4971 H   0  0  0  0  0  0  0  0  0  0  0  0
   -3.3750   31.4155  -30.8322 H   0  0  0  0  0  0  0  0  0  0  0  0
   -3.4242   33.1263  -31.2238 H   0  0  0  0  0  0  0  0  0  0  0  0
  1  2  2  0
  1  5  1  0
  1  8  1  0
  2  3  1  0
  2 11  1  0
  3  9  2  0
  3 24  1  0
  4  6  2  0
  4 13  1  0
  4 16  1  0
  5 12  2  0
  5 13  1  0
  6  7  1  0
  6 25  1  0
  7 14  2  0
  7 26  1  0
  8 10  2  0
  8 23  1  0
  9 10  1  0
  9 27  1  0
 10 28  1  0
 13 29  1  0
 14 15  1  0
 15 16  2  0
 15 17  1  0
 16 30  1  0
 17 18  1  0
 17 31  1  0
 18 19  2  0
 18 20  1  0
 20 21  1  0
 20 22  1  0
 20 32  1  6
 21 22  1  0
 21 33  1  0
 21 34  1  0
 22 35  1  6
 22 36  1  0
 36 37  1  0
 36 38  1  0
 36 39  1  0
M  END
>  <r_exp_dg>  (13) 
-10.98

>  <mol_id>  (13) 
12

>  <source_index>  (13) 
12

>  <paff>  (13) 
8.049853036830152

>  <source_r_exp_dg>  (13) 
-10.98

>  <smiles>  (13) 
C[C@@H]1C[C@@H]1C(=O)Nc1cc(NC(=O)c2c(Cl)cccc2Cl)ccn1

>  <aimnet_interaction_kcal_mol>  (13) 
-58.025931593028545

$$$$
tyk2_013
     RDKit          3D

 36 38  0  0  1  0  0  0  0  0999 V2000
   -3.4072   22.5579  -29.6684 C   0  0  0  0  0  0  0  0  0  0  0  0
   -3.9794   21.5875  -28.8456 C   0  0  0  0  0  0  0  0  0  0  0  0
   -3.3157   21.0506  -27.7595 C   0  0  0  0  0  0  0  0  0  0  0  0
   -5.2201   25.1237  -31.6941 C   0  0  0  0  0  0  0  0  0  0  0  0
   -4.1333   23.0349  -30.8869 C   0  0  0  0  0  0  0  0  0  0  0  0
   -5.9585   24.5672  -32.7406 C   0  0  0  0  0  0  0  0  0  0  0  0
   -6.8386   25.3877  -33.4180 C   0  0  0  0  0  0  0  0  0  0  0  0
   -2.1383   23.0216  -29.3042 C   0  0  0  0  0  0  0  0  0  0  0  0
   -2.0291   21.4806  -27.4828 C   0  0  0  0  0  0  0  0  0  0  0  0
   -1.4420   22.4805  -28.2379 C   0  0  0  0  0  0  0  0  0  0  0  0
   -5.6109   21.0123  -29.1898 Cl  0  0  0  0  0  0  0  0  0  0  0  0
   -4.4561   22.2767  -31.7894 O   0  0  0  0  0  0  0  0  0  0  0  0
   -4.3989   24.3807  -30.8559 N   0  0  0  0  0  0  0  0  0  0  0  0
   -7.0310   26.6764  -33.1257 N   0  0  0  0  0  0  0  0  0  0  0  0
   -6.2625   27.2223  -32.1687 C   0  0  0  0  0  0  0  0  0  0  0  0
   -5.3308   26.4862  -31.4392 C   0  0  0  0  0  0  0  0  0  0  0  0
   -6.5023   28.5781  -31.9593 N   0  0  0  0  0  0  0  0  0  0  0  0
   -5.6982   29.4661  -31.2821 C   0  0  0  0  0  0  0  0  0  0  0  0
   -4.5675   29.2131  -30.8951 O   0  0  0  0  0  0  0  0  0  0  0  0
   -6.3555   30.7653  -31.0137 C   0  0  1  0  0  0  0  0  0  0  0  0
   -5.8207   31.6156  -29.8808 C   0  0  0  0  0  0  0  0  0  0  0  0
   -5.6746   32.0861  -31.2527 C   0  0  1  0  0  0  0  0  0  0  0  0
   -1.3660   24.3129  -30.2121 Cl  0  0  0  0  0  0  0  0  0  0  0  0
   -3.7746   20.2849  -27.1563 H   0  0  0  0  0  0  0  0  0  0  0  0
   -5.8534   23.5220  -32.9801 H   0  0  0  0  0  0  0  0  0  0  0  0
   -7.4297   24.9986  -34.2400 H   0  0  0  0  0  0  0  0  0  0  0  0
   -1.4691   21.0102  -26.6877 H   0  0  0  0  0  0  0  0  0  0  0  0
   -0.4405   22.8160  -28.0184 H   0  0  0  0  0  0  0  0  0  0  0  0
   -3.9357   24.9053  -30.1277 H   0  0  0  0  0  0  0  0  0  0  0  0
   -4.7162   26.9685  -30.6965 H   0  0  0  0  0  0  0  0  0  0  0  0
   -7.4456   28.8786  -32.1956 H   0  0  0  0  0  0  0  0  0  0  0  0
   -7.4208   30.7998  -31.1729 H   0  0  0  0  0  0  0  0  0  0  0  0
   -4.9380   31.2255  -29.3939 H   0  0  0  0  0  0  0  0  0  0  0  0
   -6.5205   32.1239  -29.2416 H   0  0  0  0  0  0  0  0  0  0  0  0
   -6.2581   32.9016  -31.6462 H   0  0  0  0  0  0  0  0  0  0  0  0
   -4.0209   32.2000  -31.9561 Cl  0  0  0  0  0  0  0  0  0  0  0  0
  1  2  2  0
  1  5  1  0
  1  8  1  0
  2  3  1  0
  2 11  1  0
  3  9  2  0
  3 24  1  0
  4  6  2  0
  4 13  1  0
  4 16  1  0
  5 12  2  0
  5 13  1  0
  6  7  1  0
  6 25  1  0
  7 14  2  0
  7 26  1  0
  8 10  2  0
  8 23  1  0
  9 10  1  0
  9 27  1  0
 10 28  1  0
 13 29  1  0
 14 15  1  0
 15 16  2  0
 15 17  1  0
 16 30  1  0
 17 18  1  0
 17 31  1  0
 18 19  2  0
 18 20  1  0
 20 21  1  0
 20 22  1  0
 20 32  1  1
 21 22  1  0
 21 33  1  0
 21 34  1  0
 22 35  1  1
 22 36  1  0
M  END
>  <r_exp_dg>  (14) 
-11.28

>  <mol_id>  (14) 
13

>  <source_index>  (14) 
13

>  <paff>  (14) 
8.2697945256387033

>  <source_r_exp_dg>  (14) 
-11.279999999999999

>  <smiles>  (14) 
O=C(Nc1ccnc(NC(=O)[C@H]2C[C@H]2Cl)c1)c1c(Cl)cccc1Cl

>  <aimnet_interaction_kcal_mol>  (14) 
-66.757716402789057

$$$$
tyk2_014
     RDKit          3D

 37 39  0  0  1  0  0  0  0  0999 V2000
   -3.3715   22.5565  -29.6391 C   0  0  0  0  0  0  0  0  0  0  0  0
   -3.9551   21.5897  -28.8197 C   0  0  0  0  0  0  0  0  0  0  0  0
   -3.2989   21.0436  -27.7338 C   0  0  0  0  0  0  0  0  0  0  0  0
   -5.1628   25.1357  -31.6639 C   0  0  0  0  0  0  0  0  0  0  0  0
   -4.0892   23.0430  -30.8579 C   0  0  0  0  0  0  0  0  0  0  0  0
   -5.9124   24.5723  -32.6989 C   0  0  0  0  0  0  0  0  0  0  0  0
   -6.8124   25.3822  -33.3614 C   0  0  0  0  0  0  0  0  0  0  0  0
   -2.0970   23.0034  -29.2733 C   0  0  0  0  0  0  0  0  0  0  0  0
   -2.0083   21.4591  -27.4540 C   0  0  0  0  0  0  0  0  0  0  0  0
   -1.4081   22.4525  -28.2074 C   0  0  0  0  0  0  0  0  0  0  0  0
   -5.5908   21.0287  -29.1675 Cl  0  0  0  0  0  0  0  0  0  0  0  0
   -4.4266   22.2873  -31.7572 O   0  0  0  0  0  0  0  0  0  0  0  0
   -4.3318   24.3943  -30.8349 N   0  0  0  0  0  0  0  0  0  0  0  0
   -7.0149   26.6687  -33.0657 N   0  0  0  0  0  0  0  0  0  0  0  0
   -6.2378   27.2188  -32.1192 C   0  0  0  0  0  0  0  0  0  0  0  0
   -5.2765   26.4994  -31.4130 C   0  0  0  0  0  0  0  0  0  0  0  0
   -6.5107   28.5665  -31.8917 N   0  0  0  0  0  0  0  0  0  0  0  0
   -5.7150   29.4735  -31.2417 C   0  0  0  0  0  0  0  0  0  0  0  0
   -4.5571   29.2759  -30.9004 O   0  0  0  0  0  0  0  0  0  0  0  0
   -6.4085   30.7491  -30.9475 C   0  0  1  0  0  0  0  0  0  0  0  0
   -5.9398   31.5882  -29.8050 C   0  0  0  0  0  0  0  0  0  0  0  0
   -5.7348   32.0988  -31.1865 C   0  0  1  0  0  0  0  0  0  0  0  0
   -1.3077   24.2856  -30.1797 Cl  0  0  0  0  0  0  0  0  0  0  0  0
   -3.7664   20.2806  -27.1337 H   0  0  0  0  0  0  0  0  0  0  0  0
   -5.7982   23.5286  -32.9399 H   0  0  0  0  0  0  0  0  0  0  0  0
   -7.4132   24.9852  -34.1720 H   0  0  0  0  0  0  0  0  0  0  0  0
   -1.4548   20.9808  -26.6589 H   0  0  0  0  0  0  0  0  0  0  0  0
   -0.4013   22.7727  -27.9884 H   0  0  0  0  0  0  0  0  0  0  0  0
   -3.8530   24.9186  -30.1164 H   0  0  0  0  0  0  0  0  0  0  0  0
   -4.6439   26.9897  -30.6902 H   0  0  0  0  0  0  0  0  0  0  0  0
   -7.4630   28.8412  -32.1290 H   0  0  0  0  0  0  0  0  0  0  0  0
   -7.4652   30.7547  -31.1543 H   0  0  0  0  0  0  0  0  0  0  0  0
   -5.0529   31.2465  -29.2933 H   0  0  0  0  0  0  0  0  0  0  0  0
   -6.6751   32.0820  -29.1937 H   0  0  0  0  0  0  0  0  0  0  0  0
   -4.4192   32.1856  -31.6980 C   0  0  0  0  0  0  0  0  0  0  0  0
   -3.3755   32.3874  -32.1511 N   0  0  0  0  0  0  0  0  0  0  0  0
   -6.3960   32.8694  -31.5568 H   0  0  0  0  0  0  0  0  0  0  0  0
  1  2  2  0
  1  5  1  0
  1  8  1  0
  2  3  1  0
  2 11  1  0
  3  9  2  0
  3 24  1  0
  4  6  2  0
  4 13  1  0
  4 16  1  0
  5 12  2  0
  5 13  1  0
  6  7  1  0
  6 25  1  0
  7 14  2  0
  7 26  1  0
  8 10  2  0
  8 23  1  0
  9 10  1  0
  9 27  1  0
 10 28  1  0
 13 29  1  0
 14 15  1  0
 15 16  2  0
 15 17  1  0
 16 30  1  0
 17 18  1  0
 17 31  1  0
 18 19  2  0
 18 20  1  0
 20 21  1  0
 20 22  1  0
 20 32  1  1
 21 22  1  0
 21 33  1  0
 21 34  1  0
 22 35  1  0
 22 37  1  1
 35 36  3  0
M  END
>  <r_exp_dg>  (15) 
-10.94

>  <mol_id>  (15) 
14

>  <source_index>  (15) 
14

>  <paff>  (15) 
8.0205275516006598

>  <source_r_exp_dg>  (15) 
-10.94

>  <smiles>  (15) 
N#C[C@@H]1C[C@@H]1C(=O)Nc1cc(NC(=O)c2c(Cl)cccc2Cl)ccn1

>  <aimnet_interaction_kcal_mol>  (15) 
-72.382481475025472

$$$$
tyk2_015
     RDKit          3D

 36 38  0  0  1  0  0  0  0  0999 V2000
   -3.4251   22.4663  -29.6933 C   0  0  0  0  0  0  0  0  0  0  0  0
   -3.9875   21.5259  -28.8317 C   0  0  0  0  0  0  0  0  0  0  0  0
   -3.3075   21.0188  -27.7411 C   0  0  0  0  0  0  0  0  0  0  0  0
   -5.3102   24.9346  -31.7568 C   0  0  0  0  0  0  0  0  0  0  0  0
   -4.1638   22.8822  -30.9270 C   0  0  0  0  0  0  0  0  0  0  0  0
   -6.0297   24.3846  -32.8194 C   0  0  0  0  0  0  0  0  0  0  0  0
   -6.9058   25.2128  -33.4966 C   0  0  0  0  0  0  0  0  0  0  0  0
   -2.1679   22.9691  -29.3408 C   0  0  0  0  0  0  0  0  0  0  0  0
   -2.0215   21.4660  -27.4905 C   0  0  0  0  0  0  0  0  0  0  0  0
   -1.4549   22.4594  -28.2702 C   0  0  0  0  0  0  0  0  0  0  0  0
   -5.6348   20.9687  -29.1281 Cl  0  0  0  0  0  0  0  0  0  0  0  0
   -4.4665   22.0946  -31.8114 O   0  0  0  0  0  0  0  0  0  0  0  0
   -4.4687   24.2164  -30.9208 N   0  0  0  0  0  0  0  0  0  0  0  0
   -7.1109   26.4969  -33.1912 N   0  0  0  0  0  0  0  0  0  0  0  0
   -6.3506   27.0363  -32.2229 C   0  0  0  0  0  0  0  0  0  0  0  0
   -5.4470   26.2871  -31.4761 C   0  0  0  0  0  0  0  0  0  0  0  0
   -6.5309   28.3979  -32.0305 N   0  0  0  0  0  0  0  0  0  0  0  0
   -5.6264   29.2560  -31.4452 C   0  0  0  0  0  0  0  0  0  0  0  0
   -4.5512   28.9013  -30.9750 O   0  0  0  0  0  0  0  0  0  0  0  0
   -6.0508   30.6703  -31.4275 C   0  0  0  0  0  0  0  0  0  0  0  0
   -5.7206   31.5079  -30.2271 C   0  0  0  0  0  0  0  0  0  0  0  0
   -4.9547   31.7108  -31.4682 C   0  0  0  0  0  0  0  0  0  0  0  0
   -1.4406   24.2838  -30.2523 Cl  0  0  0  0  0  0  0  0  0  0  0  0
   -3.7526   20.2626  -27.1156 H   0  0  0  0  0  0  0  0  0  0  0  0
   -5.9201   23.3412  -33.0698 H   0  0  0  0  0  0  0  0  0  0  0  0
   -7.4837   24.8376  -34.3317 H   0  0  0  0  0  0  0  0  0  0  0  0
   -1.4466   21.0164  -26.6942 H   0  0  0  0  0  0  0  0  0  0  0  0
   -0.4583   22.8162  -28.0631 H   0  0  0  0  0  0  0  0  0  0  0  0
   -4.0154   24.7636  -30.2037 H   0  0  0  0  0  0  0  0  0  0  0  0
   -4.8635   26.7565  -30.7015 H   0  0  0  0  0  0  0  0  0  0  0  0
   -7.4554   28.7645  -32.2422 H   0  0  0  0  0  0  0  0  0  0  0  0
   -6.9746   30.8894  -31.9427 H   0  0  0  0  0  0  0  0  0  0  0  0
   -5.2050   31.0161  -29.4172 H   0  0  0  0  0  0  0  0  0  0  0  0
   -6.4389   32.2504  -29.9245 H   0  0  0  0  0  0  0  0  0  0  0  0
   -5.1416   32.6043  -32.0449 H   0  0  0  0  0  0  0  0  0  0  0  0
   -3.9498   31.3249  -31.4942 H   0  0  0  0  0  0  0  0  0  0  0  0
  1  2  2  0
  1  5  1  0
  1  8  1  0
  2  3  1  0
  2 11  1  0
  3  9  2  0
  3 24  1  0
  4  6  2  0
  4 13  1  0
  4 16  1  0
  5 12  2  0
  5 13  1  0
  6  7  1  0
  6 25  1  0
  7 14  2  0
  7 26  1  0
  8 10  2  0
  8 23  1  0
  9 10  1  0
  9 27  1  0
 10 28  1  0
 13 29  1  0
 14 15  1  0
 15 16  2  0
 15 17  1  0
 16 30  1  0
 17 18  1  0
 17 31  1  0
 18 19  2  0
 18 20  1  0
 20 21  1  0
 20 22  1  0
 20 32  1  0
 21 22  1  0
 21 33  1  0
 21 34  1  0
 22 35  1  0
 22 36  1  0
M  END
>  <r_exp_dg>  (16) 
-11.31

>  <mol_id>  (16) 
15

>  <source_index>  (16) 
15

>  <paff>  (16) 
8.2917891639418606

>  <source_r_exp_dg>  (16) 
-11.31

>  <smiles>  (16) 
O=C(Nc1ccnc(NC(=O)C2CC2)c1)c1c(Cl)cccc1Cl

>  <aimnet_interaction_kcal_mol>  (16) 
-58.900647567754625

$$$$
