L2:O75460:100233
     RDKit          3D

 68 72  0  0  0  0  0  0  0  0999 V2000
    5.6697    0.0018    1.3087 O   0  0  0  0  0  0  0  0  0  0  0  0
    6.6557   -0.6952    0.5096 S   0  0  0  0  0  6  0  0  0  0  0  0
    7.6300   -1.5839    1.1100 O   0  0  0  0  0  0  0  0  0  0  0  0
    7.5039    0.4484   -0.5902 C   0  0  0  0  0  0  0  0  0  0  0  0
    8.3470    1.3896    0.2300 C   0  0  0  0  0  0  0  0  0  0  0  0
    9.6735    1.0658    0.5496 C   0  0  0  0  0  0  0  0  0  0  0  0
   10.4502    1.9380    1.3137 C   0  0  0  0  0  0  0  0  0  0  0  0
    9.9101    3.1395    1.7673 C   0  0  0  0  0  0  0  0  0  0  0  0
    8.5916    3.4693    1.4606 C   0  0  0  0  0  0  0  0  0  0  0  0
    7.8124    2.5992    0.6969 C   0  0  0  0  0  0  0  0  0  0  0  0
    5.8418   -1.6821   -0.6211 N   0  0  0  0  0  0  0  0  0  0  0  0
    4.4061   -1.5536   -0.6247 C   0  0  0  0  0  0  0  0  0  0  0  0
    3.7776   -0.4239   -1.1602 C   0  0  0  0  0  0  0  0  0  0  0  0
    4.5055    0.5342   -1.7522 F   0  0  0  0  0  0  0  0  0  0  0  0
    2.3952   -0.2722   -1.0976 C   0  0  0  0  0  0  0  0  0  0  0  0
    1.6317   -1.2703   -0.4939 C   0  0  0  0  0  0  0  0  0  0  0  0
    0.2711   -1.1060   -0.4201 O   0  0  0  0  0  0  0  0  0  0  0  0
   -0.4792   -1.9487   -1.2386 C   0  0  0  0  0  0  0  0  0  0  0  0
    0.1184   -2.4298   -2.3636 N   0  0  0  0  0  0  0  0  0  0  0  0
   -0.6444   -3.1745   -3.1887 C   0  0  0  0  0  0  0  0  0  0  0  0
   -1.9767   -3.4560   -2.9528 C   0  0  0  0  0  0  0  0  0  0  0  0
   -2.5621   -2.9489   -1.7948 C   0  0  0  0  0  0  0  0  0  0  0  0
   -1.8153   -2.1770   -0.8890 C   0  0  0  0  0  0  0  0  0  0  0  0
   -2.4401   -1.6623    0.3381 C   0  0  0  0  0  0  0  0  0  0  0  0
   -1.8493   -1.7600    1.5813 C   0  0  0  0  0  0  0  0  0  0  0  0
   -2.5691   -1.2458    2.6301 C   0  0  0  0  0  0  0  0  0  0  0  0
   -3.7800   -0.6799    2.4918 N   0  0  0  0  0  0  0  0  0  0  0  0
   -4.2892   -0.6359    1.2567 C   0  0  0  0  0  0  0  0  0  0  0  0
   -5.5198   -0.0530    1.1438 N   0  0  0  0  0  0  0  0  0  0  0  0
   -6.1436    0.2074   -0.1416 C   0  0  2  0  0  0  0  0  0  0  0  0
   -5.5240    1.4512   -0.8214 C   0  0  0  0  0  0  0  0  0  0  0  0
   -5.7897    2.6977   -0.0789 N   0  0  0  0  0  0  0  0  0  0  0  0
   -7.2337    2.9262    0.0299 C   0  0  0  0  0  0  0  0  0  0  0  0
   -7.9502    1.7769    0.7516 C   0  0  1  0  0  0  0  0  0  0  0  0
   -9.4530    2.0344    0.8027 C   0  0  0  0  0  0  0  0  0  0  0  0
   -9.9498    2.0920   -0.4612 F   0  0  0  0  0  0  0  0  0  0  0  0
   -7.6507    0.4308    0.0666 C   0  0  0  0  0  0  0  0  0  0  0  0
   -3.6655   -1.1150    0.1738 N   0  0  0  0  0  0  0  0  0  0  0  0
    2.2467   -2.3862    0.0743 C   0  0  0  0  0  0  0  0  0  0  0  0
    1.5099   -3.3159    0.7015 F   0  0  0  0  0  0  0  0  0  0  0  0
    3.6269   -2.5256    0.0051 C   0  0  0  0  0  0  0  0  0  0  0  0
    4.2202   -3.6007    0.5476 F   0  0  0  0  0  0  0  0  0  0  0  0
    8.1233   -0.1361   -1.2776 H   0  0  0  0  0  0  0  0  0  0  0  0
    6.7577    1.0010   -1.1655 H   0  0  0  0  0  0  0  0  0  0  0  0
   10.1104    0.1264    0.2157 H   0  0  0  0  0  0  0  0  0  0  0  0
   11.4758    1.6763    1.5611 H   0  0  0  0  0  0  0  0  0  0  0  0
   10.5144    3.8157    2.3662 H   0  0  0  0  0  0  0  0  0  0  0  0
    8.1671    4.4024    1.8221 H   0  0  0  0  0  0  0  0  0  0  0  0
    6.7809    2.8696    0.4778 H   0  0  0  0  0  0  0  0  0  0  0  0
    6.1649   -2.6444   -0.4715 H   0  0  0  0  0  0  0  0  0  0  0  0
    1.9249    0.6073   -1.5253 H   0  0  0  0  0  0  0  0  0  0  0  0
   -0.1427   -3.5468   -4.0775 H   0  0  0  0  0  0  0  0  0  0  0  0
   -2.5508   -4.0545   -3.6518 H   0  0  0  0  0  0  0  0  0  0  0  0
   -3.6116   -3.1579   -1.5926 H   0  0  0  0  0  0  0  0  0  0  0  0
   -0.8839   -2.2222    1.7397 H   0  0  0  0  0  0  0  0  0  0  0  0
   -2.1838   -1.2770    3.6449 H   0  0  0  0  0  0  0  0  0  0  0  0
   -5.8762    0.3216    2.0076 H   0  0  0  0  0  0  0  0  0  0  0  0
   -6.0261   -0.6645   -0.7977 H   0  0  0  0  0  0  0  0  0  0  0  0
   -5.9135    1.5487   -1.8425 H   0  0  0  0  0  0  0  0  0  0  0  0
   -4.4385    1.3368   -0.9162 H   0  0  0  0  0  0  0  0  0  0  0  0
   -5.3890    2.5856    0.8542 H   0  0  0  0  0  0  0  0  0  0  0  0
   -7.3924    3.8609    0.5801 H   0  0  0  0  0  0  0  0  0  0  0  0
   -7.6543    3.0823   -0.9715 H   0  0  0  0  0  0  0  0  0  0  0  0
   -7.5885    1.7363    1.7872 H   0  0  0  0  0  0  0  0  0  0  0  0
   -9.6795    2.9839    1.2972 H   0  0  0  0  0  0  0  0  0  0  0  0
   -9.9762    1.2330    1.3331 H   0  0  0  0  0  0  0  0  0  0  0  0
   -8.1436    0.4046   -0.9142 H   0  0  0  0  0  0  0  0  0  0  0  0
   -8.0786   -0.3892    0.6571 H   0  0  0  0  0  0  0  0  0  0  0  0
  1  2  2  0
  2  3  2  0
  2  4  1  0
  4  5  1  0
  5  6  2  0
  6  7  1  0
  7  8  2  0
  8  9  1  0
  9 10  2  0
  2 11  1  0
 11 12  1  0
 12 13  2  0
 13 14  1  0
 13 15  1  0
 15 16  2  0
 16 17  1  0
 17 18  1  0
 18 19  2  0
 19 20  1  0
 20 21  2  0
 21 22  1  0
 22 23  2  0
 23 24  1  0
 24 25  2  0
 25 26  1  0
 26 27  2  0
 27 28  1  0
 28 29  1  0
 29 30  1  0
 30 31  1  0
 31 32  1  0
 32 33  1  0
 33 34  1  0
 34 35  1  0
 35 36  1  0
 34 37  1  0
 28 38  2  0
 16 39  1  0
 39 40  1  0
 39 41  2  0
 41 42  1  0
 10  5  1  0
 41 12  1  0
 23 18  1  0
 38 24  1  0
 37 30  1  0
  4 43  1  0
  4 44  1  0
  6 45  1  0
  7 46  1  0
  8 47  1  0
  9 48  1  0
 10 49  1  0
 11 50  1  0
 15 51  1  0
 20 52  1  0
 21 53  1  0
 22 54  1  0
 25 55  1  0
 26 56  1  0
 29 57  1  0
 30 58  1  6
 31 59  1  0
 31 60  1  0
 32 61  1  0
 33 62  1  0
 33 63  1  0
 34 64  1  1
 35 65  1  0
 35 66  1  0
 37 67  1  0
 37 68  1  0
M  END
>  <mol_id>  (1) 
100233

>  <source_index>  (1) 
8

>  <layer>  (1) 
L2

>  <uniprot>  (1) 
O75460

>  <paff>  (1) 
6.2675999999999998

>  <smiles>  (1) 
O=S(=O)(Cc1ccccc1)Nc1c(F)cc(Oc2ncccc2-c2ccnc(N[C@@H]3CNC[C@@H](CF)C3)n2)c(F)c1F

$$$$
