L2:O75460:100233
 OpenBabel09212617543D

 68 72  0  0  0  0  0  0  0  0999 V2000
   17.0255   35.5203   23.9993 C   0  0  0  0  0  0  0  0  0  0  0  0
   17.7860   35.6858   22.8821 N   0  0  0  0  0  0  0  0  0  0  0  0
   18.8012   34.8175   22.7011 C   0  0  0  0  0  0  0  0  0  0  0  0
   19.0905   33.7860   23.5741 C   0  0  0  0  0  0  0  0  0  0  0  0
   18.2942   33.6398   24.7079 C   0  0  0  0  0  0  0  0  0  0  0  0
   17.2295   34.5216   24.9587 C   0  0  0  0  0  0  0  0  0  0  0  0
   16.4075   34.3671   26.1676 C   0  0  0  0  0  0  0  0  0  0  0  0
   15.0398   34.1877   26.1297 C   0  0  0  0  0  0  0  0  0  0  0  0
   14.4150   34.0766   27.3462 C   0  0  0  0  0  0  0  0  0  0  0  0
   15.0634   34.1397   28.5215 N   0  0  0  0  0  0  0  0  0  0  0  0
   16.3858   34.3286   28.4729 C   0  0  0  0  0  0  0  0  0  0  0  0
   17.0816   34.4532   27.3365 N   0  0  0  0  0  0  0  0  0  0  0  0
   17.0206   34.3860   29.6815 N   0  0  0  0  0  0  0  0  0  0  0  0
   16.7339   35.1597   30.2583 H   0  0  0  0  0  0  0  0  0  0  0  0
   17.8528   33.3036   30.1766 C   0  0  2  0  0  0  0  0  0  0  0  0
   18.5551   33.6983   31.4973 C   0  0  0  0  0  0  0  0  0  0  0  0
   19.5272   34.7934   31.3202 N   0  0  0  0  0  0  0  0  0  0  0  0
   20.5682   34.3992   30.3661 C   0  0  0  0  0  0  0  0  0  0  0  0
   19.9895   34.0453   28.9895 C   0  0  2  0  0  0  0  0  0  0  0  0
   18.9093   32.9552   29.1151 C   0  0  0  0  0  0  0  0  0  0  0  0
   19.0140   35.5977   30.9549 H   0  0  0  0  0  0  0  0  0  0  0  0
   21.1000   33.5989   28.0435 C   0  0  0  0  0  0  0  0  0  0  0  0
   20.7485   33.8809   26.7612 F   0  0  0  0  0  0  0  0  0  0  0  0
   15.9203   36.3552   24.1563 O   0  0  0  0  0  0  0  0  0  0  0  0
   13.0502   36.0788   21.1519 C   0  0  0  0  0  0  0  0  0  0  0  0
   13.9751   35.0496   21.3598 C   0  0  0  0  0  0  0  0  0  0  0  0
   13.9490   33.9546   20.5861 F   0  0  0  0  0  0  0  0  0  0  0  0
   14.9388   35.1397   22.3604 C   0  0  0  0  0  0  0  0  0  0  0  0
   14.9788   36.2807   23.1605 C   0  0  0  0  0  0  0  0  0  0  0  0
   14.0423   37.3001   22.9873 C   0  0  0  0  0  0  0  0  0  0  0  0
   14.0531   38.3703   23.7967 F   0  0  0  0  0  0  0  0  0  0  0  0
   13.0858   37.1980   21.9853 C   0  0  0  0  0  0  0  0  0  0  0  0
   12.1864   38.1798   21.8145 F   0  0  0  0  0  0  0  0  0  0  0  0
   12.0047   35.9598   20.1667 N   0  0  0  0  0  0  0  0  0  0  0  0
   11.4745   35.0842   20.2382 H   0  0  0  0  0  0  0  0  0  0  0  0
   13.9194   36.4652   18.5333 O   0  0  0  0  0  0  0  0  0  0  0  0
   12.5160   36.1090   18.5446 S   0  0  0  0  0  0  0  0  0  0  0  0
   12.0348   34.8960   17.9147 O   0  0  0  0  0  0  0  0  0  0  0  0
   11.5058   37.4941   17.9988 C   0  0  0  0  0  0  0  0  0  0  0  0
   11.7621   37.7468   16.5360 C   0  0  0  0  0  0  0  0  0  0  0  0
   11.0696   37.0233   15.5543 C   0  0  0  0  0  0  0  0  0  0  0  0
   11.3131   37.2567   14.2000 C   0  0  0  0  0  0  0  0  0  0  0  0
   12.2506   38.2119   13.8132 C   0  0  0  0  0  0  0  0  0  0  0  0
   12.9486   38.9329   14.7797 C   0  0  0  0  0  0  0  0  0  0  0  0
   12.7076   38.7018   16.1347 C   0  0  0  0  0  0  0  0  0  0  0  0
   19.3951   34.9292   21.8645 H   0  0  0  0  0  0  0  0  0  0  0  0
   19.8753   33.1413   23.3911 H   0  0  0  0  0  0  0  0  0  0  0  0
   18.4888   32.8742   25.3719 H   0  0  0  0  0  0  0  0  0  0  0  0
   14.5185   34.1400   25.2403 H   0  0  0  0  0  0  0  0  0  0  0  0
   13.3926   33.9371   27.3593 H   0  0  0  0  0  0  0  0  0  0  0  0
   17.2302   32.4554   30.3712 H   0  0  0  0  0  0  0  0  0  0  0  0
   19.0701   32.8421   31.8802 H   0  0  0  0  0  0  0  0  0  0  0  0
   17.8009   34.0421   32.1740 H   0  0  0  0  0  0  0  0  0  0  0  0
   21.0844   33.5454   30.7527 H   0  0  0  0  0  0  0  0  0  0  0  0
   21.2300   35.2305   30.2402 H   0  0  0  0  0  0  0  0  0  0  0  0
   19.5304   34.9215   28.5816 H   0  0  0  0  0  0  0  0  0  0  0  0
   19.3799   32.0335   29.3869 H   0  0  0  0  0  0  0  0  0  0  0  0
   18.4122   32.8752   28.1710 H   0  0  0  0  0  0  0  0  0  0  0  0
   21.2535   32.5450   28.1469 H   0  0  0  0  0  0  0  0  0  0  0  0
   22.0034   34.1184   28.2864 H   0  0  0  0  0  0  0  0  0  0  0  0
   15.6138   34.3731   22.5077 H   0  0  0  0  0  0  0  0  0  0  0  0
   11.7602   38.3670   18.5629 H   0  0  0  0  0  0  0  0  0  0  0  0
   10.4712   37.2660   18.1487 H   0  0  0  0  0  0  0  0  0  0  0  0
   10.3752   36.3134   15.8352 H   0  0  0  0  0  0  0  0  0  0  0  0
   10.7979   36.7209   13.4841 H   0  0  0  0  0  0  0  0  0  0  0  0
   12.4279   38.3853   12.8114 H   0  0  0  0  0  0  0  0  0  0  0  0
   13.6448   39.6388   14.4932 H   0  0  0  0  0  0  0  0  0  0  0  0
   13.2288   39.2374   16.8464 H   0  0  0  0  0  0  0  0  0  0  0  0
  1  2  2  0  0  0  0
  2  3  1  0  0  0  0
  3  4  2  0  0  0  0
  3 46  1  0  0  0  0
  4  5  1  0  0  0  0
  4 47  1  0  0  0  0
  5  6  2  0  0  0  0
  5 48  1  0  0  0  0
  6  7  1  0  0  0  0
  6  1  1  0  0  0  0
  7  8  2  0  0  0  0
  8  9  1  0  0  0  0
  8 49  1  0  0  0  0
  9 10  2  0  0  0  0
  9 50  1  0  0  0  0
 10 11  1  0  0  0  0
 11 13  1  0  0  0  0
 11 12  2  0  0  0  0
 12  7  1  0  0  0  0
 13 15  1  0  0  0  0
 13 14  1  0  0  0  0
 15 16  1  0  0  0  0
 15 51  1  1  0  0  0
 16 17  1  0  0  0  0
 16 52  1  0  0  0  0
 16 53  1  0  0  0  0
 17 18  1  0  0  0  0
 17 21  1  0  0  0  0
 18 19  1  0  0  0  0
 18 54  1  0  0  0  0
 18 55  1  0  0  0  0
 19 22  1  0  0  0  0
 19 20  1  0  0  0  0
 19 56  1  6  0  0  0
 20 15  1  0  0  0  0
 20 57  1  0  0  0  0
 20 58  1  0  0  0  0
 22 23  1  0  0  0  0
 22 59  1  0  0  0  0
 22 60  1  0  0  0  0
 24  1  1  0  0  0  0
 25 26  2  0  0  0  0
 26 27  1  0  0  0  0
 26 28  1  0  0  0  0
 28 29  2  0  0  0  0
 28 61  1  0  0  0  0
 29 24  1  0  0  0  0
 29 30  1  0  0  0  0
 30 31  1  0  0  0  0
 30 32  2  0  0  0  0
 32 33  1  0  0  0  0
 32 25  1  0  0  0  0
 34 25  1  0  0  0  0
 34 35  1  0  0  0  0
 36 37  2  0  0  0  0
 37 38  2  0  0  0  0
 37 39  1  0  0  0  0
 37 34  1  0  0  0  0
 39 40  1  0  0  0  0
 39 62  1  0  0  0  0
 39 63  1  0  0  0  0
 40 41  2  0  0  0  0
 41 42  1  0  0  0  0
 41 64  1  0  0  0  0
 42 43  2  0  0  0  0
 42 65  1  0  0  0  0
 43 44  1  0  0  0  0
 43 66  1  0  0  0  0
 44 45  2  0  0  0  0
 44 67  1  0  0  0  0
 45 40  1  0  0  0  0
 45 68  1  0  0  0  0
M  END
>  <minimizedAffinity>
-11.11218

$$$$
