L2:O75460:127767


 41 45  0  0  0  0  0  0  0  0999 V2000
   17.1197   34.3092   23.1368 N   0  0  0  0  0  0  0  0  0  0  0  0
   17.7615   33.8532   24.2847 C   0  0  0  0  0  0  0  0  0  0  0  0
   18.6694   33.0217   24.2727 O   0  0  0  0  0  0  0  0  0  0  0  0
   17.3206   34.4150   25.6117 C   0  0  0  0  0  0  0  0  0  0  0  0
   16.3428   35.3326   25.6595 C   0  0  0  0  0  0  0  0  0  0  0  0
   15.7035   35.7751   24.4343 C   0  0  0  0  0  0  0  0  0  0  0  0
   14.6929   36.7100   24.4156 C   0  0  0  0  0  0  0  0  0  0  0  0
   14.0933   37.1397   23.2907 N   0  0  0  0  0  0  0  0  0  0  0  0
   14.5172   36.6084   22.1412 C   0  0  0  0  0  0  0  0  0  0  0  0
   15.4897   35.6936   22.0606 N   0  0  0  0  0  0  0  0  0  0  0  0
   16.0774   35.2807   23.2008 C   0  0  0  0  0  0  0  0  0  0  0  0
   17.9668   33.9744   26.8660 C   0  0  0  0  0  0  0  0  0  0  0  0
   19.3031   34.2936   27.1263 C   0  0  0  0  0  0  0  0  0  0  0  0
   19.9049   33.8621   28.3080 C   0  0  0  0  0  0  0  0  0  0  0  0
   21.1893   34.1873   28.5286 F   0  0  0  0  0  0  0  0  0  0  0  0
   19.2126   33.1193   29.2738 C   0  0  0  0  0  0  0  0  0  0  0  0
   17.8862   32.7834   28.9979 C   0  0  0  0  0  0  0  0  0  0  0  0
   17.1666   32.0025   29.8123 F   0  0  0  0  0  0  0  0  0  0  0  0
   17.2760   33.2082   27.8135 C   0  0  0  0  0  0  0  0  0  0  0  0
   16.0001   32.8575   27.5824 F   0  0  0  0  0  0  0  0  0  0  0  0
   19.9473   32.7676   30.4297 N   0  0  0  0  0  0  0  0  0  0  0  0
   20.1606   33.5131   31.5632 C   0  0  0  0  0  0  0  0  0  0  0  0
   19.8610   34.6763   31.7692 O   0  0  0  0  0  0  0  0  0  0  0  0
   20.4188   31.8696   30.3879 H   0  0  0  0  0  0  0  0  0  0  0  0
   20.9298   32.7726   32.6033 C   0  0  0  0  0  0  0  0  0  0  0  0
   20.5548   32.8457   34.0661 C   0  0  0  0  0  0  0  0  0  0  0  0
   21.7894   33.5439   33.5783 C   0  0  0  0  0  0  0  0  0  0  0  0
   17.6512   32.2639   21.8023 C   0  0  0  0  0  0  0  0  0  0  0  0
   17.5082   33.7890   21.8074 C   0  0  0  0  0  0  0  0  0  0  0  0
   18.7678   34.4727   21.2671 C   0  0  0  0  0  0  0  0  0  0  0  0
   13.8960   37.0600   21.0123 N   0  0  0  0  0  0  0  0  0  0  0  0
   14.5250   37.4110   20.3060 H   0  0  0  0  0  0  0  0  0  0  0  0
   12.4601   37.0284   20.8260 C   0  0  0  0  0  0  0  0  0  0  0  0
   12.0426   38.1310   19.8345 C   0  0  0  0  0  0  0  0  0  0  0  0
   11.8400   37.6427   18.3931 C   0  0  0  0  0  0  0  0  0  0  0  0
   12.7973   36.4965   18.0302 C   0  0  0  0  0  0  0  0  0  0  0  0
   12.5671   35.2796   18.9540 C   0  0  0  0  0  0  0  0  0  0  0  0
   12.0091   35.6504   20.3340 C   0  0  0  0  0  0  0  0  0  0  0  0
   12.8027   36.2002   16.5827 N   0  0  0  0  0  0  0  0  0  0  0  0
   11.5353   36.5562   15.9428 C   0  0  0  0  0  0  0  0  0  0  0  0
   13.9254   36.7654   15.8379 C   0  0  0  0  0  0  0  0  0  0  0  0
 28 29  1  0  0  0
 29 30  1  0  0  0
 29  1  1  0  0  0
  1  2  1  0  0  0
  2  3  2  0  0  0
  2  4  1  0  0  0
  4 12  1  0  0  0
 12 13  2  0  0  0
 13 14  1  0  0  0
 14 15  1  0  0  0
 14 16  2  0  0  0
 16 21  1  0  0  0
 21 22  1  0  0  0
 22 23  2  0  0  0
 22 25  1  0  0  0
 25 26  1  0  0  0
 26 27  1  0  0  0
 16 17  1  0  0  0
 17 18  1  0  0  0
 17 19  2  0  0  0
 19 20  1  0  0  0
  4  5  2  0  0  0
  5  6  1  0  0  0
  6  7  2  0  0  0
  7  8  1  0  0  0
  8  9  2  0  0  0
  9 31  1  0  0  0
 31 33  1  0  0  0
 33 34  1  0  0  0
 34 35  1  0  0  0
 35 36  1  0  0  0
 36 39  1  0  0  0
 39 40  1  0  0  0
 39 41  1  0  0  0
 36 37  1  0  0  0
 37 38  1  0  0  0
  9 10  1  0  0  0
 10 11  2  0  0  0
 11  1  1  0  0  0
 19 12  1  0  0  0
 11  6  1  0  0  0
 27 25  1  0  0  0
 38 33  1  0  0  0
 21 24  1  0  0  0
 31 32  1  0  0  0
M  END
> <minimizedAffinity>
-10.14998

$$$$
