L2:O75460:127767
     RDKit          3D

 72 76  0  0  0  0  0  0  0  0999 V2000
    0.3440   -3.7247   -0.7544 C   0  0  0  0  0  0  0  0  0  0  0  0
   -0.2285   -2.3678   -1.1757 C   0  0  0  0  0  0  0  0  0  0  0  0
   -0.1551   -2.1744   -2.6934 C   0  0  0  0  0  0  0  0  0  0  0  0
    0.3960   -1.2456   -0.4412 N   0  0  0  0  0  0  0  0  0  0  0  0
    1.7577   -0.9898   -0.5745 C   0  0  0  0  0  0  0  0  0  0  0  0
    2.5077   -1.6508   -1.2932 O   0  0  0  0  0  0  0  0  0  0  0  0
    2.3398    0.1634    0.2014 C   0  0  0  0  0  0  0  0  0  0  0  0
    3.7780    0.4887    0.0980 C   0  0  0  0  0  0  0  0  0  0  0  0
    4.3627    0.7332   -1.1485 C   0  0  0  0  0  0  0  0  0  0  0  0
    5.7231    1.0276   -1.2341 C   0  0  0  0  0  0  0  0  0  0  0  0
    6.2534    1.2594   -2.4462 F   0  0  0  0  0  0  0  0  0  0  0  0
    6.5458    1.1052   -0.1023 C   0  0  0  0  0  0  0  0  0  0  0  0
    7.9009    1.4308   -0.3417 N   0  0  0  0  0  0  0  0  0  0  0  0
    8.8663    1.7827    0.5695 C   0  0  0  0  0  0  0  0  0  0  0  0
    8.7358    2.0008    1.7614 O   0  0  0  0  0  0  0  0  0  0  0  0
   10.2036    1.9842   -0.0573 C   0  0  0  0  0  0  0  0  0  0  0  0
   10.8383    0.9214   -0.9253 C   0  0  0  0  0  0  0  0  0  0  0  0
   11.3851    1.1871    0.4459 C   0  0  0  0  0  0  0  0  0  0  0  0
    5.9619    0.8369    1.1369 C   0  0  0  0  0  0  0  0  0  0  0  0
    6.6784    0.7968    2.2664 F   0  0  0  0  0  0  0  0  0  0  0  0
    4.5994    0.5366    1.2316 C   0  0  0  0  0  0  0  0  0  0  0  0
    4.0777    0.2773    2.4419 F   0  0  0  0  0  0  0  0  0  0  0  0
    1.5479    0.9124    0.9839 C   0  0  0  0  0  0  0  0  0  0  0  0
    0.1339    0.6045    1.0906 C   0  0  0  0  0  0  0  0  0  0  0  0
   -0.7306    1.3312    1.8782 C   0  0  0  0  0  0  0  0  0  0  0  0
   -2.0455    1.0676    1.9843 N   0  0  0  0  0  0  0  0  0  0  0  0
   -2.5114    0.0331    1.2800 C   0  0  0  0  0  0  0  0  0  0  0  0
   -3.8485   -0.2152    1.4014 N   0  0  0  0  0  0  0  0  0  0  0  0
   -4.5278   -1.2831    0.6974 C   0  0  1  0  0  0  0  0  0  0  0  0
   -5.8358   -1.6362    1.4307 C   0  0  0  0  0  0  0  0  0  0  0  0
   -7.0914   -0.9834    0.8355 C   0  0  0  0  0  0  0  0  0  0  0  0
   -6.7987    0.4067    0.2491 C   0  0  2  0  0  0  0  0  0  0  0  0
   -8.0305    1.1532   -0.0800 N   0  0  0  0  0  0  0  0  0  0  0  0
   -7.7515    2.5429   -0.4450 C   0  0  0  0  0  0  0  0  0  0  0  0
   -8.8871    0.5255   -1.0834 C   0  0  0  0  0  0  0  0  0  0  0  0
   -5.7585    0.3111   -0.8894 C   0  0  0  0  0  0  0  0  0  0  0  0
   -4.8050   -0.8830   -0.7543 C   0  0  0  0  0  0  0  0  0  0  0  0
   -1.7484   -0.7312    0.4908 N   0  0  0  0  0  0  0  0  0  0  0  0
   -0.4346   -0.4459    0.3984 C   0  0  0  0  0  0  0  0  0  0  0  0
    0.2895   -3.8457    0.3329 H   0  0  0  0  0  0  0  0  0  0  0  0
    1.3889   -3.8490   -1.0526 H   0  0  0  0  0  0  0  0  0  0  0  0
   -0.2264   -4.5396   -1.2134 H   0  0  0  0  0  0  0  0  0  0  0  0
   -1.2963   -2.4153   -0.9377 H   0  0  0  0  0  0  0  0  0  0  0  0
   -0.5686   -1.2010   -2.9785 H   0  0  0  0  0  0  0  0  0  0  0  0
    0.8696   -2.2260   -3.0724 H   0  0  0  0  0  0  0  0  0  0  0  0
   -0.7341   -2.9500   -3.2065 H   0  0  0  0  0  0  0  0  0  0  0  0
    3.7787    0.6860   -2.0647 H   0  0  0  0  0  0  0  0  0  0  0  0
    8.1748    1.4578   -1.3188 H   0  0  0  0  0  0  0  0  0  0  0  0
   10.4090    3.0222   -0.3008 H   0  0  0  0  0  0  0  0  0  0  0  0
   10.3203   -0.0191   -1.0767 H   0  0  0  0  0  0  0  0  0  0  0  0
   11.4278    1.2454   -1.7754 H   0  0  0  0  0  0  0  0  0  0  0  0
   11.2086    0.4503    1.2227 H   0  0  0  0  0  0  0  0  0  0  0  0
   12.3374    1.6975    0.5314 H   0  0  0  0  0  0  0  0  0  0  0  0
    1.9312    1.7526    1.5554 H   0  0  0  0  0  0  0  0  0  0  0  0
   -0.3909    2.1768    2.4696 H   0  0  0  0  0  0  0  0  0  0  0  0
   -4.3328    0.4188    2.0188 H   0  0  0  0  0  0  0  0  0  0  0  0
   -3.8979   -2.1820    0.7142 H   0  0  0  0  0  0  0  0  0  0  0  0
   -5.9819   -2.7238    1.3984 H   0  0  0  0  0  0  0  0  0  0  0  0
   -5.7601   -1.3779    2.4948 H   0  0  0  0  0  0  0  0  0  0  0  0
   -7.4861   -1.6457    0.0545 H   0  0  0  0  0  0  0  0  0  0  0  0
   -7.8617   -0.9238    1.6144 H   0  0  0  0  0  0  0  0  0  0  0  0
   -6.3294    0.9717    1.0667 H   0  0  0  0  0  0  0  0  0  0  0  0
   -7.1551    3.0375    0.3298 H   0  0  0  0  0  0  0  0  0  0  0  0
   -7.2197    2.6270   -1.3990 H   0  0  0  0  0  0  0  0  0  0  0  0
   -8.6851    3.1112   -0.5260 H   0  0  0  0  0  0  0  0  0  0  0  0
   -8.4103    0.4515   -2.0657 H   0  0  0  0  0  0  0  0  0  0  0  0
   -9.8107    1.1035   -1.2062 H   0  0  0  0  0  0  0  0  0  0  0  0
   -9.2042   -0.4747   -0.7734 H   0  0  0  0  0  0  0  0  0  0  0  0
   -6.2358    0.2398   -1.8727 H   0  0  0  0  0  0  0  0  0  0  0  0
   -5.1728    1.2394   -0.9085 H   0  0  0  0  0  0  0  0  0  0  0  0
   -5.2497   -1.7444   -1.2705 H   0  0  0  0  0  0  0  0  0  0  0  0
   -3.8752   -0.6600   -1.2907 H   0  0  0  0  0  0  0  0  0  0  0  0
  1  2  1  0
  2  3  1  0
  2  4  1  0
  4  5  1  0
  5  6  2  0
  5  7  1  0
  7  8  1  0
  8  9  2  0
  9 10  1  0
 10 11  1  0
 10 12  2  0
 12 13  1  0
 13 14  1  0
 14 15  2  0
 14 16  1  0
 16 17  1  0
 17 18  1  0
 12 19  1  0
 19 20  1  0
 19 21  2  0
 21 22  1  0
  7 23  2  0
 23 24  1  0
 24 25  2  0
 25 26  1  0
 26 27  2  0
 27 28  1  0
 28 29  1  0
 29 30  1  0
 30 31  1  0
 31 32  1  0
 32 33  1  0
 33 34  1  0
 33 35  1  0
 32 36  1  0
 36 37  1  0
 27 38  1  0
 38 39  2  0
 39  4  1  0
 21  8  1  0
 39 24  1  0
 18 16  1  0
 37 29  1  0
  1 40  1  0
  1 41  1  0
  1 42  1  0
  2 43  1  0
  3 44  1  0
  3 45  1  0
  3 46  1  0
  9 47  1  0
 13 48  1  0
 16 49  1  0
 17 50  1  0
 17 51  1  0
 18 52  1  0
 18 53  1  0
 23 54  1  0
 25 55  1  0
 28 56  1  0
 29 57  1  6
 30 58  1  0
 30 59  1  0
 31 60  1  0
 31 61  1  0
 32 62  1  1
 34 63  1  0
 34 64  1  0
 34 65  1  0
 35 66  1  0
 35 67  1  0
 35 68  1  0
 36 69  1  0
 36 70  1  0
 37 71  1  0
 37 72  1  0
M  END
>  <mol_id>  (1) 
127767

>  <source_index>  (1) 
9

>  <layer>  (1) 
L2

>  <uniprot>  (1) 
O75460

>  <paff>  (1) 
8.8538999999999994

>  <smiles>  (1) 
CC(C)n1c(=O)c(-c2cc(F)c(NC(=O)C3CC3)c(F)c2F)cc2cnc(N[C@H]3CC[C@H](N(C)C)CC3)nc21

$$$$
