L2:O75460:14710
     RDKit          3D

 74 77  0  0  0  0  0  0  0  0999 V2000
   10.1005    0.5320   -2.4649 C   0  0  0  0  0  0  0  0  0  0  0  0
   10.3146   -0.8976   -1.9951 C   0  0  0  0  0  0  0  0  0  0  0  0
    9.0506   -1.5880   -1.4975 C   0  0  0  0  0  0  0  0  0  0  0  0
    8.4324   -1.0077    0.0795 S   0  0  0  0  0  6  0  0  0  0  0  0
    7.4076   -1.9197    0.5402 O   0  0  0  0  0  0  0  0  0  0  0  0
    9.5627   -0.6757    0.9205 O   0  0  0  0  0  0  0  0  0  0  0  0
    7.7216    0.4747   -0.3239 N   0  0  0  0  0  0  0  0  0  0  0  0
    6.2871    0.5337   -0.2291 C   0  0  0  0  0  0  0  0  0  0  0  0
    5.4568   -0.1549   -1.1125 C   0  0  0  0  0  0  0  0  0  0  0  0
    5.9804   -0.8554   -2.1288 F   0  0  0  0  0  0  0  0  0  0  0  0
    4.0710   -0.1147   -0.9734 C   0  0  0  0  0  0  0  0  0  0  0  0
    3.4911    0.6139    0.0756 C   0  0  0  0  0  0  0  0  0  0  0  0
    2.0024    0.6553    0.1715 C   0  0  0  0  0  0  0  0  0  0  0  0
    1.3190    0.6193   -0.9364 N   0  0  0  0  0  0  0  0  0  0  0  0
   -0.0775    0.6889   -0.8480 C   0  0  0  0  0  0  0  0  0  0  0  0
   -0.8567    0.6422   -1.9827 C   0  0  0  0  0  0  0  0  0  0  0  0
   -2.2033    0.7121   -1.9842 N   0  0  0  0  0  0  0  0  0  0  0  0
   -2.7980    0.8384   -0.7952 C   0  0  0  0  0  0  0  0  0  0  0  0
   -4.1615    0.9025   -0.8173 N   0  0  0  0  0  0  0  0  0  0  0  0
   -4.9747    1.0018    0.3771 C   0  0  1  0  0  0  0  0  0  0  0  0
   -6.3618    1.5543    0.0141 C   0  0  0  0  0  0  0  0  0  0  0  0
   -7.4380    0.4825   -0.2161 C   0  0  0  0  0  0  0  0  0  0  0  0
   -6.8675   -0.8290   -0.7896 C   0  0  2  0  0  0  0  0  0  0  0  0
   -7.9045   -1.8499   -1.0970 N   0  0  0  0  0  0  0  0  0  0  0  0
   -7.3201   -3.0392   -1.7341 C   0  0  0  0  0  0  0  0  0  0  0  0
   -8.9724   -1.3361   -1.9610 C   0  0  0  0  0  0  0  0  0  0  0  0
   -5.8232   -1.4024    0.2024 C   0  0  0  0  0  0  0  0  0  0  0  0
   -5.1074   -0.3560    1.0626 C   0  0  0  0  0  0  0  0  0  0  0  0
   -2.1349    0.8976    0.3653 N   0  0  0  0  0  0  0  0  0  0  0  0
   -0.7886    0.8203    0.3327 C   0  0  0  0  0  0  0  0  0  0  0  0
   -0.0630    0.8595    1.5545 N   0  0  0  0  0  0  0  0  0  0  0  0
   -0.8090    0.9641    2.8234 C   0  0  0  0  0  0  0  0  0  0  0  0
   -0.3655    2.1681    3.6609 C   0  0  0  0  0  0  0  0  0  0  0  0
   -0.7380   -0.3336    3.6320 C   0  0  0  0  0  0  0  0  0  0  0  0
    1.3225    0.7255    1.5461 C   0  0  0  0  0  0  0  0  0  0  0  0
    2.0208    0.6469    2.5492 O   0  0  0  0  0  0  0  0  0  0  0  0
    4.3143    1.3195    0.9590 C   0  0  0  0  0  0  0  0  0  0  0  0
    5.6984    1.2651    0.8025 C   0  0  0  0  0  0  0  0  0  0  0  0
    6.4771    1.9495    1.6544 F   0  0  0  0  0  0  0  0  0  0  0  0
    9.2644    0.5980   -3.1680 H   0  0  0  0  0  0  0  0  0  0  0  0
   10.9991    0.8963   -2.9736 H   0  0  0  0  0  0  0  0  0  0  0  0
    9.9090    1.2056   -1.6259 H   0  0  0  0  0  0  0  0  0  0  0  0
   10.7009   -1.4753   -2.8438 H   0  0  0  0  0  0  0  0  0  0  0  0
   11.0945   -0.9150   -1.2259 H   0  0  0  0  0  0  0  0  0  0  0  0
    9.2722   -2.6503   -1.3396 H   0  0  0  0  0  0  0  0  0  0  0  0
    8.2411   -1.5356   -2.2292 H   0  0  0  0  0  0  0  0  0  0  0  0
    8.1940    1.2070    0.2166 H   0  0  0  0  0  0  0  0  0  0  0  0
    3.4574   -0.6598   -1.6862 H   0  0  0  0  0  0  0  0  0  0  0  0
   -0.3987    0.5439   -2.9625 H   0  0  0  0  0  0  0  0  0  0  0  0
   -4.5614    0.8426   -1.7411 H   0  0  0  0  0  0  0  0  0  0  0  0
   -4.5119    1.7186    1.0678 H   0  0  0  0  0  0  0  0  0  0  0  0
   -6.2942    2.1990   -0.8720 H   0  0  0  0  0  0  0  0  0  0  0  0
   -6.7127    2.2031    0.8272 H   0  0  0  0  0  0  0  0  0  0  0  0
   -7.9471    0.2718    0.7339 H   0  0  0  0  0  0  0  0  0  0  0  0
   -8.1895    0.9243   -0.8788 H   0  0  0  0  0  0  0  0  0  0  0  0
   -6.3528   -0.5777   -1.7273 H   0  0  0  0  0  0  0  0  0  0  0  0
   -8.0981   -3.7784   -1.9588 H   0  0  0  0  0  0  0  0  0  0  0  0
   -6.8037   -2.7915   -2.6686 H   0  0  0  0  0  0  0  0  0  0  0  0
   -6.6156   -3.5491   -1.0699 H   0  0  0  0  0  0  0  0  0  0  0  0
   -8.5792   -0.8926   -2.8827 H   0  0  0  0  0  0  0  0  0  0  0  0
   -9.6688   -2.1365   -2.2384 H   0  0  0  0  0  0  0  0  0  0  0  0
   -9.5835   -0.5939   -1.4387 H   0  0  0  0  0  0  0  0  0  0  0  0
   -6.2923   -2.1225    0.8861 H   0  0  0  0  0  0  0  0  0  0  0  0
   -5.0703   -1.9653   -0.3649 H   0  0  0  0  0  0  0  0  0  0  0  0
   -5.6751   -0.2207    1.9931 H   0  0  0  0  0  0  0  0  0  0  0  0
   -4.1293   -0.7488    1.3646 H   0  0  0  0  0  0  0  0  0  0  0  0
   -1.8697    1.1368    2.6114 H   0  0  0  0  0  0  0  0  0  0  0  0
    0.6506    2.0564    4.0498 H   0  0  0  0  0  0  0  0  0  0  0  0
   -1.0310    2.3008    4.5210 H   0  0  0  0  0  0  0  0  0  0  0  0
   -0.3978    3.0864    3.0647 H   0  0  0  0  0  0  0  0  0  0  0  0
    0.2780   -0.5526    3.9741 H   0  0  0  0  0  0  0  0  0  0  0  0
   -1.3797   -0.2709    4.5174 H   0  0  0  0  0  0  0  0  0  0  0  0
   -1.0769   -1.1830    3.0291 H   0  0  0  0  0  0  0  0  0  0  0  0
    3.9123    1.9208    1.7691 H   0  0  0  0  0  0  0  0  0  0  0  0
  1  2  1  0
  2  3  1  0
  3  4  1  0
  4  5  2  0
  4  6  2  0
  4  7  1  0
  7  8  1  0
  8  9  2  0
  9 10  1  0
  9 11  1  0
 11 12  2  0
 12 13  1  0
 13 14  2  0
 14 15  1  0
 15 16  2  0
 16 17  1  0
 17 18  2  0
 18 19  1  0
 19 20  1  0
 20 21  1  0
 21 22  1  0
 22 23  1  0
 23 24  1  0
 24 25  1  0
 24 26  1  0
 23 27  1  0
 27 28  1  0
 18 29  1  0
 29 30  2  0
 30 31  1  0
 31 32  1  0
 32 33  1  0
 32 34  1  0
 31 35  1  0
 35 36  2  0
 12 37  1  0
 37 38  2  0
 38 39  1  0
 38  8  1  0
 35 13  1  0
 30 15  1  0
 28 20  1  0
  1 40  1  0
  1 41  1  0
  1 42  1  0
  2 43  1  0
  2 44  1  0
  3 45  1  0
  3 46  1  0
  7 47  1  0
 11 48  1  0
 16 49  1  0
 19 50  1  0
 20 51  1  1
 21 52  1  0
 21 53  1  0
 22 54  1  0
 22 55  1  0
 23 56  1  6
 25 57  1  0
 25 58  1  0
 25 59  1  0
 26 60  1  0
 26 61  1  0
 26 62  1  0
 27 63  1  0
 27 64  1  0
 28 65  1  0
 28 66  1  0
 32 67  1  0
 33 68  1  0
 33 69  1  0
 33 70  1  0
 34 71  1  0
 34 72  1  0
 34 73  1  0
 37 74  1  0
M  END
>  <mol_id>  (1) 
14710

>  <source_index>  (1) 
2

>  <layer>  (1) 
L2

>  <uniprot>  (1) 
O75460

>  <paff>  (1) 
10

>  <smiles>  (1) 
CCCS(=O)(=O)Nc1c(F)cc(-c2nc3cnc(N[C@H]4CC[C@H](N(C)C)CC4)nc3n(C(C)C)c2=O)cc1F

$$$$
