L2:O75460:14710


 41 44  0  0  0  0  0  0  0  0999 V2000
   14.7262   35.6424   21.5506 C   0  0  0  0  0  0  0  0  0  0  0  0
   14.4426   35.9018   22.7948 N   0  0  0  0  0  0  0  0  0  0  0  0
   15.4195   35.6279   23.7610 C   0  0  0  0  0  0  0  0  0  0  0  0
   15.1753   35.8677   25.0950 C   0  0  0  0  0  0  0  0  0  0  0  0
   16.0634   35.6404   26.0838 N   0  0  0  0  0  0  0  0  0  0  0  0
   17.2529   35.1540   25.7206 C   0  0  0  0  0  0  0  0  0  0  0  0
   17.5930   34.8902   24.4539 N   0  0  0  0  0  0  0  0  0  0  0  0
   16.6802   35.1242   23.4888 C   0  0  0  0  0  0  0  0  0  0  0  0
   17.0106   34.8317   22.1375 N   0  0  0  0  0  0  0  0  0  0  0  0
   16.0634   35.0140   21.1339 C   0  0  0  0  0  0  0  0  0  0  0  0
   16.2211   34.6971   19.9614 O   0  0  0  0  0  0  0  0  0  0  0  0
   11.6910   36.4763   18.6136 C   0  0  0  0  0  0  0  0  0  0  0  0
   11.9894   35.1693   18.9965 C   0  0  0  0  0  0  0  0  0  0  0  0
   11.3134   34.1376   18.4706 F   0  0  0  0  0  0  0  0  0  0  0  0
   12.9765   34.9071   19.9442 C   0  0  0  0  0  0  0  0  0  0  0  0
   13.6980   35.9643   20.5180 C   0  0  0  0  0  0  0  0  0  0  0  0
   13.3972   37.2799   20.1512 C   0  0  0  0  0  0  0  0  0  0  0  0
   12.4064   37.5201   19.2005 C   0  0  0  0  0  0  0  0  0  0  0  0
   12.1247   38.7870   18.8599 F   0  0  0  0  0  0  0  0  0  0  0  0
   10.7069   36.7729   17.6067 N   0  0  0  0  0  0  0  0  0  0  0  0
   10.1844   37.6355   17.7922 H   0  0  0  0  0  0  0  0  0  0  0  0
   11.2725   36.8419   16.0127 S   0  0  0  0  0  0  0  0  0  0  0  0
   10.1847   36.5434   15.1061 O   0  0  0  0  0  0  0  0  0  0  0  0
   12.4858   36.0528   16.0009 O   0  0  0  0  0  0  0  0  0  0  0  0
   11.7164   38.5667   15.8286 C   0  0  0  0  0  0  0  0  0  0  0  0
   13.8253   39.9319   16.2989 C   0  0  0  0  0  0  0  0  0  0  0  0
   13.1760   38.8293   15.4786 C   0  0  0  0  0  0  0  0  0  0  0  0
   18.3379   34.2617   21.8357 C   0  0  0  0  0  0  0  0  0  0  0  0
   19.0814   35.0583   20.7585 C   0  0  0  0  0  0  0  0  0  0  0  0
   18.2483   32.7782   21.4694 C   0  0  0  0  0  0  0  0  0  0  0  0
   18.1362   34.9261   26.7363 N   0  0  0  0  0  0  0  0  0  0  0  0
   18.4581   35.7632   27.1974 H   0  0  0  0  0  0  0  0  0  0  0  0
   18.5472   33.6015   27.1536 C   0  0  0  0  0  0  0  0  0  0  0  0
   19.9689   33.6596   27.7335 C   0  0  0  0  0  0  0  0  0  0  0  0
   20.0321   33.7883   29.2630 C   0  0  0  0  0  0  0  0  0  0  0  0
   18.8408   34.5695   29.8504 C   0  0  0  0  0  0  0  0  0  0  0  0
   17.5252   33.8356   29.4842 C   0  0  0  0  0  0  0  0  0  0  0  0
   17.5773   33.0274   28.1837 C   0  0  0  0  0  0  0  0  0  0  0  0
   18.9261   34.7763   31.3208 N   0  0  0  0  0  0  0  0  0  0  0  0
   19.7298   33.7291   31.9683 C   0  0  0  0  0  0  0  0  0  0  0  0
   17.6107   34.8207   31.9679 C   0  0  0  0  0  0  0  0  0  0  0  0
 26 27  1  0  0  0
 27 25  1  0  0  0
 25 22  1  0  0  0
 22 23  2  0  0  0
 22 24  2  0  0  0
 22 20  1  0  0  0
 20 12  1  0  0  0
 12 13  2  0  0  0
 13 14  1  0  0  0
 13 15  1  0  0  0
 15 16  2  0  0  0
 16  1  1  0  0  0
  1  2  2  0  0  0
  2  3  1  0  0  0
  3  4  2  0  0  0
  4  5  1  0  0  0
  5  6  2  0  0  0
  6 31  1  0  0  0
 31 33  1  0  0  0
 33 34  1  0  0  0
 34 35  1  0  0  0
 35 36  1  0  0  0
 36 39  1  0  0  0
 39 40  1  0  0  0
 39 41  1  0  0  0
 36 37  1  0  0  0
 37 38  1  0  0  0
  6  7  1  0  0  0
  7  8  2  0  0  0
  8  9  1  0  0  0
  9 28  1  0  0  0
 28 29  1  0  0  0
 28 30  1  0  0  0
  9 10  1  0  0  0
 10 11  2  0  0  0
 16 17  1  0  0  0
 17 18  2  0  0  0
 18 19  1  0  0  0
 18 12  1  0  0  0
 10  1  1  0  0  0
  8  3  1  0  0  0
 38 33  1  0  0  0
 20 21  1  0  0  0
 31 32  1  0  0  0
M  END
> <minimizedAffinity>
-9.66082

$$$$
