L2:O75460:25683
     RDKit          3D

 68 73  0  0  0  0  0  0  0  0999 V2000
    0.1423   -3.7400    0.6010 O   0  0  0  0  0  0  0  0  0  0  0  0
   -0.4338   -2.6606    0.4563 C   0  0  0  0  0  0  0  0  0  0  0  0
    0.3905   -1.4185    0.2336 C   0  0  0  0  0  0  0  0  0  0  0  0
    1.8663   -1.4826    0.2502 C   0  0  0  0  0  0  0  0  0  0  0  0
    2.5538   -2.3279   -0.6332 C   0  0  0  0  0  0  0  0  0  0  0  0
    3.9548   -2.3997   -0.6207 C   0  0  0  0  0  0  0  0  0  0  0  0
    4.6936   -1.6087    0.2575 C   0  0  0  0  0  0  0  0  0  0  0  0
    6.1212   -1.6710    0.3585 N   0  0  0  0  0  0  0  0  0  0  0  0
    7.1192   -1.6840   -0.9931 S   0  0  0  0  0  6  0  0  0  0  0  0
    8.4752   -1.7178   -0.4823 O   0  0  0  0  0  0  0  0  0  0  0  0
    6.6721   -2.7113   -1.9109 O   0  0  0  0  0  0  0  0  0  0  0  0
    6.8468   -0.0856   -1.7824 C   0  0  0  0  0  0  0  0  0  0  0  0
    6.8962    1.0497   -0.7922 C   0  0  0  0  0  0  0  0  0  0  0  0
    8.0882    1.3955   -0.1391 C   0  0  0  0  0  0  0  0  0  0  0  0
    8.1174    2.4492    0.7755 C   0  0  0  0  0  0  0  0  0  0  0  0
    6.9610    3.1793    1.0377 C   0  0  0  0  0  0  0  0  0  0  0  0
    5.7758    2.8629    0.3787 C   0  0  0  0  0  0  0  0  0  0  0  0
    5.7442    1.8094   -0.5363 C   0  0  0  0  0  0  0  0  0  0  0  0
    4.0053   -0.8020    1.1688 C   0  0  0  0  0  0  0  0  0  0  0  0
    4.6984   -0.0726    2.0583 F   0  0  0  0  0  0  0  0  0  0  0  0
    2.6156   -0.7282    1.1577 C   0  0  0  0  0  0  0  0  0  0  0  0
    1.9988    0.0845    2.0305 F   0  0  0  0  0  0  0  0  0  0  0  0
   -0.2158   -0.2431    0.0023 C   0  0  0  0  0  0  0  0  0  0  0  0
   -1.6654   -0.1666   -0.0285 C   0  0  0  0  0  0  0  0  0  0  0  0
   -2.3512    0.9969   -0.2900 C   0  0  0  0  0  0  0  0  0  0  0  0
   -3.6938    1.0785   -0.3319 N   0  0  0  0  0  0  0  0  0  0  0  0
   -4.3790   -0.0455   -0.1020 C   0  0  0  0  0  0  0  0  0  0  0  0
   -5.7423   -0.0432   -0.1219 N   0  0  0  0  0  0  0  0  0  0  0  0
   -6.5862    1.0949   -0.4326 C   0  0  2  0  0  0  0  0  0  0  0  0
   -6.4278    1.5602   -1.9019 C   0  0  0  0  0  0  0  0  0  0  0  0
   -7.2322    2.7471   -2.2233 N   0  0  0  0  0  0  0  0  0  0  0  0
   -7.0095    3.8462   -1.2695 C   0  0  0  0  0  0  0  0  0  0  0  0
   -6.0641    3.5484   -0.0972 C   0  0  1  0  0  0  0  0  0  0  0  0
   -6.1703    4.5531    0.8179 F   0  0  0  0  0  0  0  0  0  0  0  0
   -6.4300    2.2367    0.5822 C   0  0  0  0  0  0  0  0  0  0  0  0
   -3.8045   -1.2213    0.1607 N   0  0  0  0  0  0  0  0  0  0  0  0
   -2.4546   -1.2743    0.2035 C   0  0  0  0  0  0  0  0  0  0  0  0
   -1.8197   -2.5176    0.4856 N   0  0  0  0  0  0  0  0  0  0  0  0
   -2.6579   -3.6769    0.7190 C   0  0  0  0  0  0  0  0  0  0  0  0
   -2.4236   -4.6210    1.8759 C   0  0  0  0  0  0  0  0  0  0  0  0
   -3.6320   -3.7418    1.8739 C   0  0  0  0  0  0  0  0  0  0  0  0
    2.0046   -2.9668   -1.3250 H   0  0  0  0  0  0  0  0  0  0  0  0
    4.4360   -3.1113   -1.2868 H   0  0  0  0  0  0  0  0  0  0  0  0
    6.5254   -1.1113    1.1169 H   0  0  0  0  0  0  0  0  0  0  0  0
    7.6199    0.0386   -2.5477 H   0  0  0  0  0  0  0  0  0  0  0  0
    5.8763   -0.1389   -2.2869 H   0  0  0  0  0  0  0  0  0  0  0  0
    9.0100    0.8474   -0.3321 H   0  0  0  0  0  0  0  0  0  0  0  0
    9.0459    2.7016    1.2822 H   0  0  0  0  0  0  0  0  0  0  0  0
    6.9857    3.9993    1.7510 H   0  0  0  0  0  0  0  0  0  0  0  0
    4.8759    3.4395    0.5781 H   0  0  0  0  0  0  0  0  0  0  0  0
    4.8084    1.5891   -1.0454 H   0  0  0  0  0  0  0  0  0  0  0  0
    0.3464    0.6704   -0.1670 H   0  0  0  0  0  0  0  0  0  0  0  0
   -1.8358    1.9337   -0.4829 H   0  0  0  0  0  0  0  0  0  0  0  0
   -6.1523   -0.9471    0.0638 H   0  0  0  0  0  0  0  0  0  0  0  0
   -7.6193    0.7337   -0.3327 H   0  0  0  0  0  0  0  0  0  0  0  0
   -6.7247    0.7452   -2.5734 H   0  0  0  0  0  0  0  0  0  0  0  0
   -5.3818    1.7737   -2.1489 H   0  0  0  0  0  0  0  0  0  0  0  0
   -8.2222    2.4996   -2.2231 H   0  0  0  0  0  0  0  0  0  0  0  0
   -6.6285    4.7150   -1.8185 H   0  0  0  0  0  0  0  0  0  0  0  0
   -7.9804    4.1619   -0.8671 H   0  0  0  0  0  0  0  0  0  0  0  0
   -5.0246    3.5312   -0.4412 H   0  0  0  0  0  0  0  0  0  0  0  0
   -5.7032    2.0120    1.3716 H   0  0  0  0  0  0  0  0  0  0  0  0
   -7.3816    2.3748    1.1133 H   0  0  0  0  0  0  0  0  0  0  0  0
   -2.9785   -4.1347   -0.2144 H   0  0  0  0  0  0  0  0  0  0  0  0
   -2.5557   -5.6805    1.6905 H   0  0  0  0  0  0  0  0  0  0  0  0
   -1.6324   -4.3946    2.5811 H   0  0  0  0  0  0  0  0  0  0  0  0
   -3.6587   -2.9161    2.5751 H   0  0  0  0  0  0  0  0  0  0  0  0
   -4.5977   -4.1961    1.6879 H   0  0  0  0  0  0  0  0  0  0  0  0
  1  2  2  0
  2  3  1  0
  3  4  1  0
  4  5  2  0
  5  6  1  0
  6  7  2  0
  7  8  1  0
  8  9  1  0
  9 10  2  0
  9 11  2  0
  9 12  1  0
 12 13  1  0
 13 14  2  0
 14 15  1  0
 15 16  2  0
 16 17  1  0
 17 18  2  0
  7 19  1  0
 19 20  1  0
 19 21  2  0
 21 22  1  0
  3 23  2  0
 23 24  1  0
 24 25  2  0
 25 26  1  0
 26 27  2  0
 27 28  1  0
 28 29  1  0
 29 30  1  0
 30 31  1  0
 31 32  1  0
 32 33  1  0
 33 34  1  0
 33 35  1  0
 27 36  1  0
 36 37  2  0
 37 38  1  0
 38 39  1  0
 39 40  1  0
 40 41  1  0
 38  2  1  0
 41 39  1  0
 21  4  1  0
 37 24  1  0
 18 13  1  0
 35 29  1  0
  5 42  1  0
  6 43  1  0
  8 44  1  0
 12 45  1  0
 12 46  1  0
 14 47  1  0
 15 48  1  0
 16 49  1  0
 17 50  1  0
 18 51  1  0
 23 52  1  0
 25 53  1  0
 28 54  1  0
 29 55  1  6
 30 56  1  0
 30 57  1  0
 31 58  1  0
 32 59  1  0
 32 60  1  0
 33 61  1  6
 35 62  1  0
 35 63  1  0
 39 64  1  0
 40 65  1  0
 40 66  1  0
 41 67  1  0
 41 68  1  0
M  END
>  <mol_id>  (1) 
25683

>  <source_index>  (1) 
3

>  <layer>  (1) 
L2

>  <uniprot>  (1) 
O75460

>  <paff>  (1) 
8.9586000000000006

>  <smiles>  (1) 
O=c1c(-c2ccc(NS(=O)(=O)Cc3ccccc3)c(F)c2F)cc2cnc(N[C@@H]3CNC[C@@H](F)C3)nc2n1C1CC1

$$$$
