L2:O75460:25683
 OpenBabel09212617523D

 68 73  0  0  0  0  0  0  0  0999 V2000
   17.9470   35.5009   23.7623 O   0  0  0  0  0  0  0  0  0  0  0  0
   17.2293   35.2520   24.7324 C   0  0  0  0  0  0  0  0  0  0  0  0
   15.7489   35.0689   24.5160 C   0  0  0  0  0  0  0  0  0  0  0  0
   14.9574   34.7269   25.5452 C   0  0  0  0  0  0  0  0  0  0  0  0
   15.5258   34.5382   26.8679 C   0  0  0  0  0  0  0  0  0  0  0  0
   14.7796   34.1582   27.9593 C   0  0  0  0  0  0  0  0  0  0  0  0
   15.2962   33.9697   29.1875 N   0  0  0  0  0  0  0  0  0  0  0  0
   16.6094   34.1702   29.3324 C   0  0  0  0  0  0  0  0  0  0  0  0
   17.4156   34.5399   28.3350 N   0  0  0  0  0  0  0  0  0  0  0  0
   16.8701   34.7289   27.1128 C   0  0  0  0  0  0  0  0  0  0  0  0
   17.7106   35.1272   26.0342 N   0  0  0  0  0  0  0  0  0  0  0  0
   15.1578   35.2458   23.1738 C   0  0  0  0  0  0  0  0  0  0  0  0
   15.3390   34.2722   22.1803 C   0  0  0  0  0  0  0  0  0  0  0  0
   14.7862   34.4344   20.9011 C   0  0  0  0  0  0  0  0  0  0  0  0
   14.0214   35.5603   20.6010 C   0  0  0  0  0  0  0  0  0  0  0  0
   13.8811   36.5512   21.5774 C   0  0  0  0  0  0  0  0  0  0  0  0
   13.1922   37.6675   21.2897 F   0  0  0  0  0  0  0  0  0  0  0  0
   14.4275   36.3922   22.8474 C   0  0  0  0  0  0  0  0  0  0  0  0
   14.2402   37.3561   23.7631 F   0  0  0  0  0  0  0  0  0  0  0  0
   13.4728   35.8131   19.3020 N   0  0  0  0  0  0  0  0  0  0  0  0
   13.8103   36.6694   18.8498 H   0  0  0  0  0  0  0  0  0  0  0  0
   11.8599   35.5198   18.9338 S   0  0  0  0  0  0  0  0  0  0  0  0
   11.8716   34.6148   17.8017 O   0  0  0  0  0  0  0  0  0  0  0  0
   11.1507   35.1498   20.1412 O   0  0  0  0  0  0  0  0  0  0  0  0
   11.2158   37.1121   18.3844 C   0  0  0  0  0  0  0  0  0  0  0  0
   11.5706   37.4004   16.9481 C   0  0  0  0  0  0  0  0  0  0  0  0
   10.7933   36.9034   15.8918 C   0  0  0  0  0  0  0  0  0  0  0  0
   11.1353   37.1790   14.5671 C   0  0  0  0  0  0  0  0  0  0  0  0
   12.2482   37.9658   14.2818 C   0  0  0  0  0  0  0  0  0  0  0  0
   13.0154   38.4862   15.3209 C   0  0  0  0  0  0  0  0  0  0  0  0
   12.6753   38.2118   16.6465 C   0  0  0  0  0  0  0  0  0  0  0  0
   19.1228   35.3162   26.3005 C   0  0  0  0  0  0  0  0  0  0  0  0
   19.9716   34.2449   26.9460 C   0  0  0  0  0  0  0  0  0  0  0  0
   20.1908   34.5944   25.5096 C   0  0  0  0  0  0  0  0  0  0  0  0
   17.2066   34.0045   30.5469 N   0  0  0  0  0  0  0  0  0  0  0  0
   16.5850   33.6511   31.2598 H   0  0  0  0  0  0  0  0  0  0  0  0
   18.5798   34.3400   30.8719 C   0  0  2  0  0  0  0  0  0  0  0  0
   19.5542   33.1700   30.5853 C   0  0  0  0  0  0  0  0  0  0  0  0
   20.9434   33.4685   30.9598 N   0  0  0  0  0  0  0  0  0  0  0  0
   21.0553   33.9528   32.3455 C   0  0  0  0  0  0  0  0  0  0  0  0
   19.7374   34.1299   33.1126 C   0  0  1  0  0  0  0  0  0  0  0  0
   19.9877   34.8212   34.2605 F   0  0  0  0  0  0  0  0  0  0  0  0
   18.7251   34.9130   32.2892 C   0  0  0  0  0  0  0  0  0  0  0  0
   21.3241   34.1732   30.3275 H   0  0  0  0  0  0  0  0  0  0  0  0
   13.9444   34.5981   25.3961 H   0  0  0  0  0  0  0  0  0  0  0  0
   13.7668   34.0093   27.8288 H   0  0  0  0  0  0  0  0  0  0  0  0
   15.8870   33.4241   22.3935 H   0  0  0  0  0  0  0  0  0  0  0  0
   14.9468   33.7158   20.1780 H   0  0  0  0  0  0  0  0  0  0  0  0
   11.6264   37.8827   19.0029 H   0  0  0  0  0  0  0  0  0  0  0  0
   10.1490   37.0810   18.4611 H   0  0  0  0  0  0  0  0  0  0  0  0
    9.9608   36.3286   16.0960 H   0  0  0  0  0  0  0  0  0  0  0  0
   10.5623   36.7990   13.7975 H   0  0  0  0  0  0  0  0  0  0  0  0
   12.5041   38.1630   13.3017 H   0  0  0  0  0  0  0  0  0  0  0  0
   13.8362   39.0753   15.1107 H   0  0  0  0  0  0  0  0  0  0  0  0
   13.2416   38.6094   17.4122 H   0  0  0  0  0  0  0  0  0  0  0  0
   18.8948   36.3388   26.5177 H   0  0  0  0  0  0  0  0  0  0  0  0
   19.5358   33.3028   27.2058 H   0  0  0  0  0  0  0  0  0  0  0  0
   20.5949   34.1978   27.8144 H   0  0  0  0  0  0  0  0  0  0  0  0
   19.9115   33.9022   24.7429 H   0  0  0  0  0  0  0  0  0  0  0  0
   21.0351   34.9002   24.9278 H   0  0  0  0  0  0  0  0  0  0  0  0
   18.8673   35.1300   30.2100 H   0  0  0  0  0  0  0  0  0  0  0  0
   19.5238   32.9508   29.5384 H   0  0  0  0  0  0  0  0  0  0  0  0
   19.2364   32.3388   31.1794 H   0  0  0  0  0  0  0  0  0  0  0  0
   21.5479   34.9023   32.3202 H   0  0  0  0  0  0  0  0  0  0  0  0
   21.5915   33.1908   32.8716 H   0  0  0  0  0  0  0  0  0  0  0  0
   19.3347   33.1616   33.3249 H   0  0  0  0  0  0  0  0  0  0  0  0
   19.0476   35.9309   32.2202 H   0  0  0  0  0  0  0  0  0  0  0  0
   17.7747   34.8437   32.7758 H   0  0  0  0  0  0  0  0  0  0  0  0
  1  2  2  0  0  0  0
  2  3  1  0  0  0  0
  3 12  1  0  0  0  0
  3  4  2  0  0  0  0
  4  5  1  0  0  0  0
  4 45  1  0  0  0  0
  5  6  2  0  0  0  0
  6  7  1  0  0  0  0
  6 46  1  0  0  0  0
  7  8  2  0  0  0  0
  8 35  1  0  0  0  0
  8  9  1  0  0  0  0
  9 10  2  0  0  0  0
 10 11  1  0  0  0  0
 10  5  1  0  0  0  0
 11 32  1  0  0  0  0
 11  2  1  0  0  0  0
 12 13  2  0  0  0  0
 13 14  1  0  0  0  0
 13 47  1  0  0  0  0
 14 15  2  0  0  0  0
 14 48  1  0  0  0  0
 15 20  1  0  0  0  0
 15 16  1  0  0  0  0
 16 17  1  0  0  0  0
 16 18  2  0  0  0  0
 18 19  1  0  0  0  0
 18 12  1  0  0  0  0
 20 22  1  0  0  0  0
 20 21  1  0  0  0  0
 22 23  2  0  0  0  0
 22 24  2  0  0  0  0
 22 25  1  0  0  0  0
 25 26  1  0  0  0  0
 25 49  1  0  0  0  0
 25 50  1  0  0  0  0
 26 27  2  0  0  0  0
 27 28  1  0  0  0  0
 27 51  1  0  0  0  0
 28 29  2  0  0  0  0
 28 52  1  0  0  0  0
 29 30  1  0  0  0  0
 29 53  1  0  0  0  0
 30 31  2  0  0  0  0
 30 54  1  0  0  0  0
 31 26  1  0  0  0  0
 31 55  1  0  0  0  0
 32 33  1  0  0  0  0
 32 56  1  0  0  0  0
 33 34  1  0  0  0  0
 33 57  1  0  0  0  0
 33 58  1  0  0  0  0
 34 32  1  0  0  0  0
 34 59  1  0  0  0  0
 34 60  1  0  0  0  0
 35 37  1  0  0  0  0
 35 36  1  0  0  0  0
 37 38  1  0  0  0  0
 37 61  1  6  0  0  0
 38 39  1  0  0  0  0
 38 62  1  0  0  0  0
 38 63  1  0  0  0  0
 39 40  1  0  0  0  0
 39 44  1  0  0  0  0
 40 41  1  0  0  0  0
 40 64  1  0  0  0  0
 40 65  1  0  0  0  0
 41 42  1  0  0  0  0
 41 43  1  0  0  0  0
 41 66  1  1  0  0  0
 43 37  1  0  0  0  0
 43 67  1  0  0  0  0
 43 68  1  0  0  0  0
M  END
>  <minimizedAffinity>
-11.95574

$$$$
