L2:O75460:4142
     RDKit          3D

 81 85  0  0  0  0  0  0  0  0999 V2000
   -0.6336    2.3456    2.1315 C   0  0  0  0  0  0  0  0  0  0  0  0
   -0.7551    2.5186    0.6156 C   0  0  0  0  0  0  0  0  0  0  0  0
   -0.0957    3.8203    0.1480 C   0  0  0  0  0  0  0  0  0  0  0  0
   -0.2466    1.3401   -0.1124 N   0  0  0  0  0  0  0  0  0  0  0  0
    1.1057    1.0086   -0.0849 C   0  0  0  0  0  0  0  0  0  0  0  0
    1.9556    1.6168    0.5535 O   0  0  0  0  0  0  0  0  0  0  0  0
    1.5341   -0.2185   -0.9037 C   0  0  0  0  0  0  0  0  0  0  0  0
    2.9793   -0.5786   -1.0114 C   0  0  0  0  0  0  0  0  0  0  0  0
    3.3243   -1.9371   -1.1153 C   0  0  0  0  0  0  0  0  0  0  0  0
    4.6618   -2.3267   -1.2445 C   0  0  0  0  0  0  0  0  0  0  0  0
    5.6629   -1.3578   -1.2907 C   0  0  0  0  0  0  0  0  0  0  0  0
    7.0318   -1.7696   -1.3692 N   0  0  0  0  0  0  0  0  0  0  0  0
    7.9176   -1.7200    0.0735 S   0  0  0  0  0  6  0  0  0  0  0  0
    8.7193   -2.9258    0.0525 O   0  0  0  0  0  0  0  0  0  0  0  0
    7.0420   -1.4176    1.1827 O   0  0  0  0  0  0  0  0  0  0  0  0
    9.0095   -0.3317   -0.2234 C   0  0  0  0  0  0  0  0  0  0  0  0
    9.9675   -0.1560    0.9432 C   0  0  0  0  0  0  0  0  0  0  0  0
   11.0460    0.9385    0.7494 C   0  0  0  0  0  0  0  0  0  0  0  0
   12.0303    0.0235    1.5154 C   0  0  0  0  0  0  0  0  0  0  0  0
   13.2969    0.0059    1.0468 F   0  0  0  0  0  0  0  0  0  0  0  0
   12.1046    0.2430    2.8476 F   0  0  0  0  0  0  0  0  0  0  0  0
   11.1371   -1.1634    1.0863 C   0  0  0  0  0  0  0  0  0  0  0  0
    5.3156   -0.0076   -1.1869 C   0  0  0  0  0  0  0  0  0  0  0  0
    6.2651    0.9382   -1.2402 F   0  0  0  0  0  0  0  0  0  0  0  0
    3.9860    0.3888   -1.0610 C   0  0  0  0  0  0  0  0  0  0  0  0
    0.6680   -0.9784   -1.5115 N   0  0  0  0  0  0  0  0  0  0  0  0
   -0.6845   -0.6226   -1.4373 C   0  0  0  0  0  0  0  0  0  0  0  0
   -1.6484   -1.3936   -2.0488 C   0  0  0  0  0  0  0  0  0  0  0  0
   -2.9682   -1.1165   -2.0321 N   0  0  0  0  0  0  0  0  0  0  0  0
   -3.3398   -0.0141   -1.3771 C   0  0  0  0  0  0  0  0  0  0  0  0
   -4.6802    0.2474   -1.3675 N   0  0  0  0  0  0  0  0  0  0  0  0
   -5.2549    1.4278   -0.7551 C   0  0  1  0  0  0  0  0  0  0  0  0
   -6.6496    1.6669   -1.3325 C   0  0  0  0  0  0  0  0  0  0  0  0
   -7.6554    0.5637   -0.9812 C   0  0  0  0  0  0  0  0  0  0  0  0
   -7.3551   -0.1972    0.3357 C   0  0  2  0  0  0  0  0  0  0  0  0
   -8.5942   -0.8076    0.8805 N   0  0  0  0  0  0  0  0  0  0  0  0
   -8.3921   -1.4669    2.1741 C   0  0  0  0  0  0  0  0  0  0  0  0
   -9.2768   -1.7268   -0.0592 C   0  0  0  0  0  0  0  0  0  0  0  0
   -8.5080   -2.9661   -0.5261 C   0  0  0  0  0  0  0  0  0  0  0  0
   -9.3134   -3.6927   -1.3511 F   0  0  0  0  0  0  0  0  0  0  0  0
   -6.6621    0.7703    1.3132 C   0  0  0  0  0  0  0  0  0  0  0  0
   -5.3223    1.2917    0.7737 C   0  0  0  0  0  0  0  0  0  0  0  0
   -2.4853    0.8048   -0.7530 N   0  0  0  0  0  0  0  0  0  0  0  0
   -1.1722    0.4968   -0.7850 C   0  0  0  0  0  0  0  0  0  0  0  0
   -1.1267    1.4226    2.4554 H   0  0  0  0  0  0  0  0  0  0  0  0
    0.4089    2.2991    2.4604 H   0  0  0  0  0  0  0  0  0  0  0  0
   -1.1089    3.1829    2.6537 H   0  0  0  0  0  0  0  0  0  0  0  0
   -1.8225    2.6463    0.4052 H   0  0  0  0  0  0  0  0  0  0  0  0
   -0.1681    3.9208   -0.9403 H   0  0  0  0  0  0  0  0  0  0  0  0
    0.9622    3.8754    0.4202 H   0  0  0  0  0  0  0  0  0  0  0  0
   -0.5941    4.6846    0.6004 H   0  0  0  0  0  0  0  0  0  0  0  0
    2.5516   -2.7040   -1.0838 H   0  0  0  0  0  0  0  0  0  0  0  0
    4.9049   -3.3846   -1.2953 H   0  0  0  0  0  0  0  0  0  0  0  0
    7.1931   -2.6709   -1.8230 H   0  0  0  0  0  0  0  0  0  0  0  0
    9.5437   -0.5242   -1.1591 H   0  0  0  0  0  0  0  0  0  0  0  0
    8.3899    0.5605   -0.3348 H   0  0  0  0  0  0  0  0  0  0  0  0
    9.4273   -0.0146    1.8909 H   0  0  0  0  0  0  0  0  0  0  0  0
   10.8283    1.8972    1.2276 H   0  0  0  0  0  0  0  0  0  0  0  0
   11.3408    1.1195   -0.2908 H   0  0  0  0  0  0  0  0  0  0  0  0
   10.9952   -1.9386    1.8439 H   0  0  0  0  0  0  0  0  0  0  0  0
   11.4593   -1.6338    0.1502 H   0  0  0  0  0  0  0  0  0  0  0  0
    3.7705    1.4514   -1.0111 H   0  0  0  0  0  0  0  0  0  0  0  0
   -1.3722   -2.2924   -2.5921 H   0  0  0  0  0  0  0  0  0  0  0  0
   -5.2278   -0.4020   -1.9116 H   0  0  0  0  0  0  0  0  0  0  0  0
   -4.6366    2.2987   -1.0092 H   0  0  0  0  0  0  0  0  0  0  0  0
   -6.6036    1.7787   -2.4230 H   0  0  0  0  0  0  0  0  0  0  0  0
   -7.0283    2.6218   -0.9441 H   0  0  0  0  0  0  0  0  0  0  0  0
   -7.6894   -0.1569   -1.8084 H   0  0  0  0  0  0  0  0  0  0  0  0
   -8.6494    1.0289   -0.9405 H   0  0  0  0  0  0  0  0  0  0  0  0
   -6.6396   -1.0015    0.1203 H   0  0  0  0  0  0  0  0  0  0  0  0
   -8.1964   -0.7341    2.9629 H   0  0  0  0  0  0  0  0  0  0  0  0
   -7.5676   -2.1875    2.1486 H   0  0  0  0  0  0  0  0  0  0  0  0
   -9.2982   -1.9957    2.4926 H   0  0  0  0  0  0  0  0  0  0  0  0
   -9.6157   -1.1742   -0.9435 H   0  0  0  0  0  0  0  0  0  0  0  0
  -10.2184   -2.0622    0.3967 H   0  0  0  0  0  0  0  0  0  0  0  0
   -7.6115   -2.7034   -1.0935 H   0  0  0  0  0  0  0  0  0  0  0  0
   -8.2266   -3.6116    0.3101 H   0  0  0  0  0  0  0  0  0  0  0  0
   -7.3268    1.6199    1.5193 H   0  0  0  0  0  0  0  0  0  0  0  0
   -6.4542    0.2983    2.2791 H   0  0  0  0  0  0  0  0  0  0  0  0
   -5.1439    2.2756    1.2268 H   0  0  0  0  0  0  0  0  0  0  0  0
   -4.5165    0.6456    1.1430 H   0  0  0  0  0  0  0  0  0  0  0  0
  1  2  1  0
  2  3  1  0
  2  4  1  0
  4  5  1  0
  5  6  2  0
  5  7  1  0
  7  8  1  0
  8  9  2  0
  9 10  1  0
 10 11  2  0
 11 12  1  0
 12 13  1  0
 13 14  2  0
 13 15  2  0
 13 16  1  0
 16 17  1  0
 17 18  1  0
 18 19  1  0
 19 20  1  0
 19 21  1  0
 19 22  1  0
 11 23  1  0
 23 24  1  0
 23 25  2  0
  7 26  2  0
 26 27  1  0
 27 28  2  0
 28 29  1  0
 29 30  2  0
 30 31  1  0
 31 32  1  0
 32 33  1  0
 33 34  1  0
 34 35  1  0
 35 36  1  0
 36 37  1  0
 36 38  1  0
 38 39  1  0
 39 40  1  0
 35 41  1  0
 41 42  1  0
 30 43  1  0
 43 44  2  0
 44  4  1  0
 25  8  1  0
 44 27  1  0
 22 17  1  0
 42 32  1  0
  1 45  1  0
  1 46  1  0
  1 47  1  0
  2 48  1  0
  3 49  1  0
  3 50  1  0
  3 51  1  0
  9 52  1  0
 10 53  1  0
 12 54  1  0
 16 55  1  0
 16 56  1  0
 17 57  1  0
 18 58  1  0
 18 59  1  0
 22 60  1  0
 22 61  1  0
 25 62  1  0
 28 63  1  0
 31 64  1  0
 32 65  1  1
 33 66  1  0
 33 67  1  0
 34 68  1  0
 34 69  1  0
 35 70  1  6
 37 71  1  0
 37 72  1  0
 37 73  1  0
 38 74  1  0
 38 75  1  0
 39 76  1  0
 39 77  1  0
 41 78  1  0
 41 79  1  0
 42 80  1  0
 42 81  1  0
M  END
>  <mol_id>  (1) 
4142

>  <source_index>  (1) 
0

>  <layer>  (1) 
L2

>  <uniprot>  (1) 
O75460

>  <paff>  (1) 
9.5375999999999994

>  <smiles>  (1) 
CC(C)n1c(=O)c(-c2ccc(NS(=O)(=O)CC3CC(F)(F)C3)c(F)c2)nc2cnc(N[C@H]3CC[C@H](N(C)CCF)CC3)nc21

$$$$
