L2:O75460:4142
 OpenBabel09212617513D

 81 85  0  0  0  0  0  0  0  0999 V2000
   17.0389   34.8006   22.4409 N   0  0  0  0  0  0  0  0  0  0  0  0
   16.0583   34.9568   21.4645 C   0  0  0  0  0  0  0  0  0  0  0  0
   16.2036   34.6665   20.2836 O   0  0  0  0  0  0  0  0  0  0  0  0
   14.7041   35.5152   21.9269 C   0  0  0  0  0  0  0  0  0  0  0  0
   14.4422   35.7359   23.1838 N   0  0  0  0  0  0  0  0  0  0  0  0
   15.4550   35.4892   24.1191 C   0  0  0  0  0  0  0  0  0  0  0  0
   15.2341   35.6916   25.4637 C   0  0  0  0  0  0  0  0  0  0  0  0
   16.1568   35.4865   26.4257 N   0  0  0  0  0  0  0  0  0  0  0  0
   17.3574   35.0638   26.0229 C   0  0  0  0  0  0  0  0  0  0  0  0
   17.6771   34.8399   24.7431 N   0  0  0  0  0  0  0  0  0  0  0  0
   16.7301   35.0507   23.8056 C   0  0  0  0  0  0  0  0  0  0  0  0
   13.6357   35.8108   20.9264 C   0  0  0  0  0  0  0  0  0  0  0  0
   13.4100   37.1500   20.5646 C   0  0  0  0  0  0  0  0  0  0  0  0
   12.4387   37.4789   19.6128 C   0  0  0  0  0  0  0  0  0  0  0  0
   11.6996   36.4677   19.0011 C   0  0  0  0  0  0  0  0  0  0  0  0
   11.9271   35.1368   19.3638 C   0  0  0  0  0  0  0  0  0  0  0  0
   11.2324   34.1507   18.7776 F   0  0  0  0  0  0  0  0  0  0  0  0
   12.8943   34.8007   20.3085 C   0  0  0  0  0  0  0  0  0  0  0  0
   10.6719   36.8189   18.0683 N   0  0  0  0  0  0  0  0  0  0  0  0
    9.7692   36.3641   18.2188 H   0  0  0  0  0  0  0  0  0  0  0  0
   11.0727   36.7038   16.4268 S   0  0  0  0  0  0  0  0  0  0  0  0
    9.8263   36.3729   15.7679 O   0  0  0  0  0  0  0  0  0  0  0  0
   12.2522   35.8855   16.2606 O   0  0  0  0  0  0  0  0  0  0  0  0
   11.4646   38.4065   16.0329 C   0  0  0  0  0  0  0  0  0  0  0  0
   12.9639   38.5730   15.8486 C   0  0  0  0  0  0  0  0  0  0  0  0
   13.4749   40.0340   15.9027 C   0  0  0  0  0  0  0  0  0  0  0  0
   14.5001   39.6555   14.8079 C   0  0  0  0  0  0  0  0  0  0  0  0
   14.7223   40.5966   13.8650 F   0  0  0  0  0  0  0  0  0  0  0  0
   15.7099   39.2581   15.2628 F   0  0  0  0  0  0  0  0  0  0  0  0
   13.5337   38.5167   14.4080 C   0  0  0  0  0  0  0  0  0  0  0  0
   18.3567   32.8198   21.7090 C   0  0  0  0  0  0  0  0  0  0  0  0
   18.3834   34.3008   22.0947 C   0  0  0  0  0  0  0  0  0  0  0  0
   19.0573   35.1476   21.0100 C   0  0  0  0  0  0  0  0  0  0  0  0
   18.2767   34.8576   27.0116 N   0  0  0  0  0  0  0  0  0  0  0  0
   18.5641   35.7004   27.4855 H   0  0  0  0  0  0  0  0  0  0  0  0
   18.8946   33.5723   27.2662 C   0  0  1  0  0  0  0  0  0  0  0  0
   20.1080   33.7675   28.1747 C   0  0  0  0  0  0  0  0  0  0  0  0
   19.7477   34.2684   29.5787 C   0  0  0  0  0  0  0  0  0  0  0  0
   18.3253   33.8861   30.0624 C   0  0  1  0  0  0  0  0  0  0  0  0
   17.9419   32.5330   29.4347 C   0  0  0  0  0  0  0  0  0  0  0  0
   17.9013   32.5868   27.9007 C   0  0  0  0  0  0  0  0  0  0  0  0
   18.2581   33.8946   31.5457 N   0  0  0  0  0  0  0  0  0  0  0  0
   17.4386   34.9864   32.0799 C   0  0  0  0  0  0  0  0  0  0  0  0
   19.5823   33.8792   32.2091 C   0  0  0  0  0  0  0  0  0  0  0  0
   19.9336   35.0569   33.1227 C   0  0  0  0  0  0  0  0  0  0  0  0
   20.7611   35.9015   32.4452 F   0  0  0  0  0  0  0  0  0  0  0  0
   14.3006   36.0221   25.7542 H   0  0  0  0  0  0  0  0  0  0  0  0
   13.9666   37.8987   21.0057 H   0  0  0  0  0  0  0  0  0  0  0  0
   12.2701   38.4663   19.3646 H   0  0  0  0  0  0  0  0  0  0  0  0
   13.0621   33.8116   20.5504 H   0  0  0  0  0  0  0  0  0  0  0  0
   11.1346   39.0384   16.8308 H   0  0  0  0  0  0  0  0  0  0  0  0
   10.9698   38.6763   15.1234 H   0  0  0  0  0  0  0  0  0  0  0  0
   13.2334   37.8295   16.5694 H   0  0  0  0  0  0  0  0  0  0  0  0
   13.9083   40.3193   16.8385 H   0  0  0  0  0  0  0  0  0  0  0  0
   12.8102   40.8640   15.7839 H   0  0  0  0  0  0  0  0  0  0  0  0
   14.0134   37.5943   14.1550 H   0  0  0  0  0  0  0  0  0  0  0  0
   12.8980   38.5970   13.5510 H   0  0  0  0  0  0  0  0  0  0  0  0
   19.3473   32.4967   21.4658 H   0  0  0  0  0  0  0  0  0  0  0  0
   17.7188   32.6836   20.8608 H   0  0  0  0  0  0  0  0  0  0  0  0
   17.9853   32.2439   22.5308 H   0  0  0  0  0  0  0  0  0  0  0  0
   18.9791   34.3937   22.9787 H   0  0  0  0  0  0  0  0  0  0  0  0
   18.4915   35.0830   20.1042 H   0  0  0  0  0  0  0  0  0  0  0  0
   20.0487   34.7837   20.8380 H   0  0  0  0  0  0  0  0  0  0  0  0
   19.1023   36.1675   21.3304 H   0  0  0  0  0  0  0  0  0  0  0  0
   19.2078   33.1531   26.3329 H   0  0  0  0  0  0  0  0  0  0  0  0
   20.7615   34.4811   27.7180 H   0  0  0  0  0  0  0  0  0  0  0  0
   20.5705   32.8097   28.2917 H   0  0  0  0  0  0  0  0  0  0  0  0
   19.8239   35.3357   29.5807 H   0  0  0  0  0  0  0  0  0  0  0  0
   20.4313   33.7940   30.2514 H   0  0  0  0  0  0  0  0  0  0  0  0
   17.6056   34.6092   29.7398 H   0  0  0  0  0  0  0  0  0  0  0  0
   16.9745   32.2500   29.7938 H   0  0  0  0  0  0  0  0  0  0  0  0
   18.6896   31.8209   29.7153 H   0  0  0  0  0  0  0  0  0  0  0  0
   16.9136   32.8712   27.6032 H   0  0  0  0  0  0  0  0  0  0  0  0
   18.1806   31.6128   27.5567 H   0  0  0  0  0  0  0  0  0  0  0  0
   16.4854   34.9877   31.5938 H   0  0  0  0  0  0  0  0  0  0  0  0
   17.9301   35.9204   31.9037 H   0  0  0  0  0  0  0  0  0  0  0  0
   17.3022   34.8481   33.1321 H   0  0  0  0  0  0  0  0  0  0  0  0
   20.3249   33.8388   31.4398 H   0  0  0  0  0  0  0  0  0  0  0  0
   19.5487   33.0314   32.8610 H   0  0  0  0  0  0  0  0  0  0  0  0
   20.4269   34.6968   34.0013 H   0  0  0  0  0  0  0  0  0  0  0  0
   19.0423   35.5731   33.4124 H   0  0  0  0  0  0  0  0  0  0  0  0
  1  2  1  0  0  0  0
  2  3  2  0  0  0  0
  2  4  1  0  0  0  0
  4 12  1  0  0  0  0
  4  5  2  0  0  0  0
  5  6  1  0  0  0  0
  6  7  2  0  0  0  0
  7  8  1  0  0  0  0
  7 47  1  0  0  0  0
  8  9  2  0  0  0  0
  9 34  1  0  0  0  0
  9 10  1  0  0  0  0
 10 11  2  0  0  0  0
 11  1  1  0  0  0  0
 11  6  1  0  0  0  0
 12 13  2  0  0  0  0
 13 14  1  0  0  0  0
 13 48  1  0  0  0  0
 14 15  2  0  0  0  0
 14 49  1  0  0  0  0
 15 19  1  0  0  0  0
 15 16  1  0  0  0  0
 16 17  1  0  0  0  0
 16 18  2  0  0  0  0
 18 12  1  0  0  0  0
 18 50  1  0  0  0  0
 19 21  1  0  0  0  0
 19 20  1  0  0  0  0
 21 22  2  0  0  0  0
 21 23  2  0  0  0  0
 21 24  1  0  0  0  0
 24 25  1  0  0  0  0
 24 51  1  0  0  0  0
 24 52  1  0  0  0  0
 25 26  1  0  0  0  0
 25 53  1  0  0  0  0
 26 27  1  0  0  0  0
 26 54  1  0  0  0  0
 26 55  1  0  0  0  0
 27 28  1  0  0  0  0
 27 29  1  0  0  0  0
 27 30  1  0  0  0  0
 30 25  1  0  0  0  0
 30 56  1  0  0  0  0
 30 57  1  0  0  0  0
 31 32  1  0  0  0  0
 31 58  1  0  0  0  0
 31 59  1  0  0  0  0
 31 60  1  0  0  0  0
 32 33  1  0  0  0  0
 32  1  1  0  0  0  0
 32 61  1  0  0  0  0
 33 62  1  0  0  0  0
 33 63  1  0  0  0  0
 33 64  1  0  0  0  0
 34 36  1  0  0  0  0
 34 35  1  0  0  0  0
 36 37  1  0  0  0  0
 36 65  1  6  0  0  0
 37 38  1  0  0  0  0
 37 66  1  0  0  0  0
 37 67  1  0  0  0  0
 38 39  1  0  0  0  0
 38 68  1  0  0  0  0
 38 69  1  0  0  0  0
 39 42  1  0  0  0  0
 39 40  1  0  0  0  0
 39 70  1  6  0  0  0
 40 41  1  0  0  0  0
 40 71  1  0  0  0  0
 40 72  1  0  0  0  0
 41 36  1  0  0  0  0
 41 73  1  0  0  0  0
 41 74  1  0  0  0  0
 42 43  1  0  0  0  0
 42 44  1  0  0  0  0
 43 75  1  0  0  0  0
 43 76  1  0  0  0  0
 43 77  1  0  0  0  0
 44 45  1  0  0  0  0
 44 78  1  0  0  0  0
 44 79  1  0  0  0  0
 45 46  1  0  0  0  0
 45 80  1  0  0  0  0
 45 81  1  0  0  0  0
M  END
>  <minimizedAffinity>
-9.76934

$$$$
