L2:O75460:48303
     RDKit          3D

 70 74  0  0  0  0  0  0  0  0999 V2000
   -1.9004   -2.4810   -3.6328 C   0  0  0  0  0  0  0  0  0  0  0  0
   -2.1702   -1.7237   -2.3648 C   0  0  0  0  0  0  0  0  0  0  0  0
   -3.4593   -1.2695   -2.0890 C   0  0  0  0  0  0  0  0  0  0  0  0
   -3.7195   -0.5475   -0.9222 C   0  0  0  0  0  0  0  0  0  0  0  0
   -2.7054   -0.2551    0.0161 C   0  0  0  0  0  0  0  0  0  0  0  0
   -2.9562    0.4489    1.2211 C   0  0  0  0  0  0  0  0  0  0  0  0
   -4.2656    0.9775    1.5073 N   0  0  0  0  0  0  0  0  0  0  0  0
   -4.4827    2.6168    1.1243 S   0  0  0  0  0  6  0  0  0  0  0  0
   -3.4750    3.0564    0.1865 O   0  0  0  0  0  0  0  0  0  0  0  0
   -4.6854    3.2991    2.3825 O   0  0  0  0  0  0  0  0  0  0  0  0
   -6.0397    2.5822    0.2552 C   0  0  0  0  0  0  0  0  0  0  0  0
   -7.0894    1.6201    0.7892 C   0  0  0  0  0  0  0  0  0  0  0  0
   -7.4324    1.8159    2.2471 C   0  0  0  0  0  0  0  0  0  0  0  0
   -8.5297    1.0884    2.5584 F   0  0  0  0  0  0  0  0  0  0  0  0
   -7.7065    3.1049    2.5198 F   0  0  0  0  0  0  0  0  0  0  0  0
   -6.4397    1.3949    3.0565 F   0  0  0  0  0  0  0  0  0  0  0  0
   -1.9350    0.7043    2.1409 C   0  0  0  0  0  0  0  0  0  0  0  0
   -0.6495    0.2480    1.8881 C   0  0  0  0  0  0  0  0  0  0  0  0
   -0.3824   -0.4479    0.7095 C   0  0  0  0  0  0  0  0  0  0  0  0
   -1.3892   -0.7047   -0.2509 C   0  0  0  0  0  0  0  0  0  0  0  0
   -1.1403   -1.4014   -1.4643 C   0  0  0  0  0  0  0  0  0  0  0  0
    0.1362   -1.8548   -1.7424 O   0  0  0  0  0  0  0  0  0  0  0  0
    0.9860   -0.9276   -2.3472 C   0  0  0  0  0  0  0  0  0  0  0  0
    0.4452   -0.0115   -3.1915 N   0  0  0  0  0  0  0  0  0  0  0  0
    1.2852    0.8902   -3.7365 C   0  0  0  0  0  0  0  0  0  0  0  0
    2.6464    0.9123   -3.4953 C   0  0  0  0  0  0  0  0  0  0  0  0
    3.1797   -0.0540   -2.6459 C   0  0  0  0  0  0  0  0  0  0  0  0
    2.3510   -1.0196   -2.0536 C   0  0  0  0  0  0  0  0  0  0  0  0
    2.9116   -2.0262   -1.1477 C   0  0  0  0  0  0  0  0  0  0  0  0
    2.7265   -3.3802   -1.3262 C   0  0  0  0  0  0  0  0  0  0  0  0
    3.3203   -4.1889   -0.3916 C   0  0  0  0  0  0  0  0  0  0  0  0
    4.0406   -3.7221    0.6431 N   0  0  0  0  0  0  0  0  0  0  0  0
    4.1714   -2.3952    0.7456 C   0  0  0  0  0  0  0  0  0  0  0  0
    4.8876   -1.9532    1.8178 N   0  0  0  0  0  0  0  0  0  0  0  0
    5.0372   -0.5710    2.2360 C   0  0  1  0  0  0  0  0  0  0  0  0
    5.8086    0.2792    1.2120 C   0  0  0  0  0  0  0  0  0  0  0  0
    5.0021    1.4933    0.7567 C   0  0  0  0  0  0  0  0  0  0  0  0
    4.4378    2.2857    1.9393 C   0  0  0  0  0  0  0  0  0  0  0  0
    3.8569    1.4798    3.0168 N   0  0  0  0  0  0  0  0  0  0  0  0
    3.6915    0.0707    2.6478 C   0  0  0  0  0  0  0  0  0  0  0  0
    3.6368   -1.5304   -0.1215 N   0  0  0  0  0  0  0  0  0  0  0  0
   -1.1913   -3.2970   -3.4595 H   0  0  0  0  0  0  0  0  0  0  0  0
   -2.8178   -2.9356   -4.0223 H   0  0  0  0  0  0  0  0  0  0  0  0
   -1.4986   -1.8092   -4.3971 H   0  0  0  0  0  0  0  0  0  0  0  0
   -4.2741   -1.4734   -2.7799 H   0  0  0  0  0  0  0  0  0  0  0  0
   -4.7403   -0.2233   -0.7414 H   0  0  0  0  0  0  0  0  0  0  0  0
   -4.5169    0.8633    2.4969 H   0  0  0  0  0  0  0  0  0  0  0  0
   -6.4196    3.6097    0.2638 H   0  0  0  0  0  0  0  0  0  0  0  0
   -5.8119    2.3235   -0.7849 H   0  0  0  0  0  0  0  0  0  0  0  0
   -8.0012    1.7490    0.1938 H   0  0  0  0  0  0  0  0  0  0  0  0
   -6.7688    0.5838    0.6353 H   0  0  0  0  0  0  0  0  0  0  0  0
   -2.1312    1.2671    3.0496 H   0  0  0  0  0  0  0  0  0  0  0  0
    0.1503    0.4394    2.5984 H   0  0  0  0  0  0  0  0  0  0  0  0
    0.6364   -0.7924    0.5461 H   0  0  0  0  0  0  0  0  0  0  0  0
    0.8188    1.6218   -4.3903 H   0  0  0  0  0  0  0  0  0  0  0  0
    3.2789    1.6648   -3.9528 H   0  0  0  0  0  0  0  0  0  0  0  0
    4.2477   -0.0522   -2.4348 H   0  0  0  0  0  0  0  0  0  0  0  0
    2.1549   -3.7900   -2.1478 H   0  0  0  0  0  0  0  0  0  0  0  0
    3.2328   -5.2699   -0.4455 H   0  0  0  0  0  0  0  0  0  0  0  0
    5.2201   -2.6971    2.4129 H   0  0  0  0  0  0  0  0  0  0  0  0
    5.6600   -0.6026    3.1411 H   0  0  0  0  0  0  0  0  0  0  0  0
    6.7333    0.6379    1.6835 H   0  0  0  0  0  0  0  0  0  0  0  0
    6.1273   -0.3042    0.3405 H   0  0  0  0  0  0  0  0  0  0  0  0
    5.6319    2.1472    0.1426 H   0  0  0  0  0  0  0  0  0  0  0  0
    4.1766    1.1658    0.1142 H   0  0  0  0  0  0  0  0  0  0  0  0
    3.6817    2.9843    1.5615 H   0  0  0  0  0  0  0  0  0  0  0  0
    5.2348    2.8979    2.3764 H   0  0  0  0  0  0  0  0  0  0  0  0
    2.9575    1.8735    3.2911 H   0  0  0  0  0  0  0  0  0  0  0  0
    2.9349   -0.0129    1.8597 H   0  0  0  0  0  0  0  0  0  0  0  0
    3.2885   -0.4723    3.5112 H   0  0  0  0  0  0  0  0  0  0  0  0
  1  2  1  0
  2  3  2  0
  3  4  1  0
  4  5  2  0
  5  6  1  0
  6  7  1  0
  7  8  1  0
  8  9  2  0
  8 10  2  0
  8 11  1  0
 11 12  1  0
 12 13  1  0
 13 14  1  0
 13 15  1  0
 13 16  1  0
  6 17  2  0
 17 18  1  0
 18 19  2  0
 19 20  1  0
 20 21  2  0
 21 22  1  0
 22 23  1  0
 23 24  2  0
 24 25  1  0
 25 26  2  0
 26 27  1  0
 27 28  2  0
 28 29  1  0
 29 30  2  0
 30 31  1  0
 31 32  2  0
 32 33  1  0
 33 34  1  0
 34 35  1  0
 35 36  1  0
 36 37  1  0
 37 38  1  0
 38 39  1  0
 39 40  1  0
 33 41  2  0
 21  2  1  0
 28 23  1  0
 41 29  1  0
 20  5  1  0
 40 35  1  0
  1 42  1  0
  1 43  1  0
  1 44  1  0
  3 45  1  0
  4 46  1  0
  7 47  1  0
 11 48  1  0
 11 49  1  0
 12 50  1  0
 12 51  1  0
 17 52  1  0
 18 53  1  0
 19 54  1  0
 25 55  1  0
 26 56  1  0
 27 57  1  0
 30 58  1  0
 31 59  1  0
 34 60  1  0
 35 61  1  1
 36 62  1  0
 36 63  1  0
 37 64  1  0
 37 65  1  0
 38 66  1  0
 38 67  1  0
 39 68  1  0
 40 69  1  0
 40 70  1  0
M  END
>  <mol_id>  (1) 
48303

>  <source_index>  (1) 
4

>  <layer>  (1) 
L2

>  <uniprot>  (1) 
O75460

>  <paff>  (1) 
7.0757000000000003

>  <smiles>  (1) 
Cc1ccc2c(NS(=O)(=O)CCC(F)(F)F)cccc2c1Oc1ncccc1-c1ccnc(N[C@H]2CCCNC2)n1

$$$$
