L2:O75460:48303


 44 48  0  0  0  0  0  0  0  0999 V2000
   18.1885   36.2279   23.2494 C   0  0  0  0  0  0  0  0  0  0  0  0
   17.8535   35.8055   24.6506 C   0  0  0  0  0  0  0  0  0  0  0  0
   18.7518   36.0615   25.6858 C   0  0  0  0  0  0  0  0  0  0  0  0
   18.4605   35.6567   26.9903 C   0  0  0  0  0  0  0  0  0  0  0  0
   17.2605   34.9857   27.3130 C   0  0  0  0  0  0  0  0  0  0  0  0
   16.9328   34.5952   28.6361 C   0  0  0  0  0  0  0  0  0  0  0  0
   15.7267   33.9514   28.9274 C   0  0  0  0  0  0  0  0  0  0  0  0
   14.8160   33.7008   27.9112 C   0  0  0  0  0  0  0  0  0  0  0  0
   15.1186   34.0786   26.6034 C   0  0  0  0  0  0  0  0  0  0  0  0
   16.3391   34.7132   26.2725 C   0  0  0  0  0  0  0  0  0  0  0  0
   16.6758   35.0977   24.9464 C   0  0  0  0  0  0  0  0  0  0  0  0
   17.8643   34.7973   29.7166 N   0  0  0  0  0  0  0  0  0  0  0  0
   17.3946   35.1170   30.5725 H   0  0  0  0  0  0  0  0  0  0  0  0
   18.7914   33.4384   30.1351 S   0  0  0  0  0  0  0  0  0  0  0  0
   18.2884   32.2573   29.4717 O   0  0  0  0  0  0  0  0  0  0  0  0
   18.9443   33.4844   31.5718 O   0  0  0  0  0  0  0  0  0  0  0  0
   20.3662   33.8335   29.3969 C   0  0  0  0  0  0  0  0  0  0  0  0
   20.5854   33.3462   27.9732 C   0  0  0  0  0  0  0  0  0  0  0  0
   21.9348   33.6983   27.3930 C   0  0  0  0  0  0  0  0  0  0  0  0
   22.5905   32.5670   27.0460 F   0  0  0  0  0  0  0  0  0  0  0  0
   22.6984   34.3551   28.2855 F   0  0  0  0  0  0  0  0  0  0  0  0
   21.8208   34.4443   26.2758 F   0  0  0  0  0  0  0  0  0  0  0  0
   15.7881   34.8469   23.9161 O   0  0  0  0  0  0  0  0  0  0  0  0
   16.3130   34.1534   22.8246 C   0  0  0  0  0  0  0  0  0  0  0  0
   17.3595   33.3140   23.0362 N   0  0  0  0  0  0  0  0  0  0  0  0
   17.8252   32.6348   21.9696 C   0  0  0  0  0  0  0  0  0  0  0  0
   17.3093   32.7656   20.6936 C   0  0  0  0  0  0  0  0  0  0  0  0
   16.2532   33.6522   20.4987 C   0  0  0  0  0  0  0  0  0  0  0  0
   15.7312   34.3882   21.5739 C   0  0  0  0  0  0  0  0  0  0  0  0
   14.6095   35.3092   21.3699 C   0  0  0  0  0  0  0  0  0  0  0  0
   14.4568   36.4742   22.0902 C   0  0  0  0  0  0  0  0  0  0  0  0
   13.3548   37.2269   21.7751 C   0  0  0  0  0  0  0  0  0  0  0  0
   12.4629   36.8776   20.8318 N   0  0  0  0  0  0  0  0  0  0  0  0
   12.6828   35.7313   20.1793 C   0  0  0  0  0  0  0  0  0  0  0  0
   13.7328   34.9381   20.4116 N   0  0  0  0  0  0  0  0  0  0  0  0
   11.7485   35.3941   19.2459 N   0  0  0  0  0  0  0  0  0  0  0  0
   10.9089   34.9992   19.6425 H   0  0  0  0  0  0  0  0  0  0  0  0
   11.9387   35.3917   17.8066 C   0  0  0  0  0  0  0  0  0  0  0  0
   10.6290   35.6239   17.0340 C   0  0  0  0  0  0  0  0  0  0  0  0
   10.7266   36.8242   16.0950 C   0  0  0  0  0  0  0  0  0  0  0  0
   11.9781   36.7658   15.2146 C   0  0  0  0  0  0  0  0  0  0  0  0
   13.2111   36.3676   15.8995 N   0  0  0  0  0  0  0  0  0  0  0  0
   13.0703   36.3462   17.3585 C   0  0  0  0  0  0  0  0  0  0  0  0
   13.9679   36.9971   15.6342 H   0  0  0  0  0  0  0  0  0  0  0  0
  1  2  1  0  0  0
  2  3  2  0  0  0
  3  4  1  0  0  0
  4  5  2  0  0  0
  5  6  1  0  0  0
  6 12  1  0  0  0
 12 14  1  0  0  0
 14 15  2  0  0  0
 14 16  2  0  0  0
 14 17  1  0  0  0
 17 18  1  0  0  0
 18 19  1  0  0  0
 19 20  1  0  0  0
 19 21  1  0  0  0
 19 22  1  0  0  0
  6  7  2  0  0  0
  7  8  1  0  0  0
  8  9  2  0  0  0
  9 10  1  0  0  0
 10 11  2  0  0  0
 11 23  1  0  0  0
 23 24  1  0  0  0
 24 25  2  0  0  0
 25 26  1  0  0  0
 26 27  2  0  0  0
 27 28  1  0  0  0
 28 29  2  0  0  0
 29 30  1  0  0  0
 30 31  2  0  0  0
 31 32  1  0  0  0
 32 33  2  0  0  0
 33 34  1  0  0  0
 34 36  1  0  0  0
 36 38  1  0  0  0
 38 39  1  0  0  0
 39 40  1  0  0  0
 40 41  1  0  0  0
 41 42  1  0  0  0
 42 43  1  0  0  0
 34 35  2  0  0  0
 11  2  1  0  0  0
 29 24  1  0  0  0
 35 30  1  0  0  0
 10  5  1  0  0  0
 43 38  1  0  0  0
 12 13  1  0  0  0
 36 37  1  0  0  0
 42 44  1  0  0  0
M  END
> <minimizedAffinity>
-10.58237

$$$$
