L2:O75460:6730


 42 45  0  0  0  0  0  0  0  0999 V2000
   16.9741   34.9285   22.1526 N   0  0  0  0  0  0  0  0  0  0  0  0
   16.0141   35.0538   21.1516 C   0  0  0  0  0  0  0  0  0  0  0  0
   16.1770   34.7123   19.9867 O   0  0  0  0  0  0  0  0  0  0  0  0
   14.6586   35.6468   21.5633 C   0  0  0  0  0  0  0  0  0  0  0  0
   14.3787   35.9345   22.8025 N   0  0  0  0  0  0  0  0  0  0  0  0
   15.3738   35.7267   23.7657 C   0  0  0  0  0  0  0  0  0  0  0  0
   15.1371   36.0111   25.0925 C   0  0  0  0  0  0  0  0  0  0  0  0
   16.0437   35.8530   26.0784 N   0  0  0  0  0  0  0  0  0  0  0  0
   17.2418   35.3863   25.7193 C   0  0  0  0  0  0  0  0  0  0  0  0
   17.5753   35.0797   24.4606 N   0  0  0  0  0  0  0  0  0  0  0  0
   16.6464   35.2525   23.4973 C   0  0  0  0  0  0  0  0  0  0  0  0
   13.6104   35.8983   20.5306 C   0  0  0  0  0  0  0  0  0  0  0  0
   13.3855   37.2218   20.1135 C   0  0  0  0  0  0  0  0  0  0  0  0
   12.4328   37.5093   19.1300 C   0  0  0  0  0  0  0  0  0  0  0  0
   11.7071   36.4727   18.5497 C   0  0  0  0  0  0  0  0  0  0  0  0
   11.9448   35.1570   18.9578 C   0  0  0  0  0  0  0  0  0  0  0  0
   11.2645   34.1563   18.3776 F   0  0  0  0  0  0  0  0  0  0  0  0
   12.8912   34.8593   19.9342 C   0  0  0  0  0  0  0  0  0  0  0  0
   10.7015   36.7339   17.5482 N   0  0  0  0  0  0  0  0  0  0  0  0
   10.2502   37.6337   17.7563 H   0  0  0  0  0  0  0  0  0  0  0  0
   11.3007   36.7999   15.9576 S   0  0  0  0  0  0  0  0  0  0  0  0
   10.2122   36.5753   15.0322 O   0  0  0  0  0  0  0  0  0  0  0  0
   12.5030   35.9989   15.9331 O   0  0  0  0  0  0  0  0  0  0  0  0
   11.7738   38.5171   15.8426 C   0  0  0  0  0  0  0  0  0  0  0  0
   13.2663   38.7426   15.6581 C   0  0  0  0  0  0  0  0  0  0  0  0
   13.6971   40.1764   15.8795 C   0  0  0  0  0  0  0  0  0  0  0  0
   13.8210   40.3950   17.2139 F   0  0  0  0  0  0  0  0  0  0  0  0
   12.7178   41.0079   15.4432 F   0  0  0  0  0  0  0  0  0  0  0  0
   18.2967   32.8964   21.5839 C   0  0  0  0  0  0  0  0  0  0  0  0
   18.3199   34.4031   21.8527 C   0  0  0  0  0  0  0  0  0  0  0  0
   18.9962   35.1637   20.7074 C   0  0  0  0  0  0  0  0  0  0  0  0
   18.1491   35.2385   26.7259 N   0  0  0  0  0  0  0  0  0  0  0  0
   18.5842   36.0914   27.0396 H   0  0  0  0  0  0  0  0  0  0  0  0
   18.5210   33.9502   27.2851 C   0  0  0  0  0  0  0  0  0  0  0  0
   17.2659   33.0518   27.3643 C   0  0  0  0  0  0  0  0  0  0  0  0
   16.2059   33.5474   28.2575 N   0  0  0  0  0  0  0  0  0  0  0  0
   16.7053   34.3276   29.3930 C   0  0  0  0  0  0  0  0  0  0  0  0
   18.1171   33.9240   29.8241 C   0  0  0  0  0  0  0  0  0  0  0  0
   19.1355   34.1267   28.6844 C   0  0  0  0  0  0  0  0  0  0  0  0
   15.5330   34.1023   27.7300 H   0  0  0  0  0  0  0  0  0  0  0  0
   18.5428   34.6913   31.0705 C   0  0  0  0  0  0  0  0  0  0  0  0
   17.4320   35.0602   31.7639 F   0  0  0  0  0  0  0  0  0  0  0  0
 29 30  1  0  0  0
 30 31  1  0  0  0
 30  1  1  0  0  0
  1  2  1  0  0  0
  2  3  2  0  0  0
  2  4  1  0  0  0
  4 12  1  0  0  0
 12 13  2  0  0  0
 13 14  1  0  0  0
 14 15  2  0  0  0
 15 19  1  0  0  0
 19 21  1  0  0  0
 21 22  2  0  0  0
 21 23  2  0  0  0
 21 24  1  0  0  0
 24 25  1  0  0  0
 25 26  1  0  0  0
 26 27  1  0  0  0
 26 28  1  0  0  0
 15 16  1  0  0  0
 16 17  1  0  0  0
 16 18  2  0  0  0
  4  5  2  0  0  0
  5  6  1  0  0  0
  6  7  2  0  0  0
  7  8  1  0  0  0
  8  9  2  0  0  0
  9 32  1  0  0  0
 32 34  1  0  0  0
 34 35  1  0  0  0
 35 36  1  0  0  0
 36 37  1  0  0  0
 37 38  1  0  0  0
 38 41  1  0  0  0
 41 42  1  0  0  0
 38 39  1  0  0  0
  9 10  1  0  0  0
 10 11  2  0  0  0
 11  1  1  0  0  0
 18 12  1  0  0  0
 11  6  1  0  0  0
 39 34  1  0  0  0
 19 20  1  0  0  0
 32 33  1  0  0  0
 36 40  1  0  0  0
M  END
> <minimizedAffinity>
-9.70411

$$$$
