L2:O75460:72342
 OpenBabel09212617533D

 84 88  0  0  0  0  0  0  0  0999 V2000
   17.0204   34.3354   26.1088 N   0  0  0  0  0  0  0  0  0  0  0  0
   15.9502   34.6338   25.2691 C   0  0  0  0  0  0  0  0  0  0  0  0
   14.7740   34.4505   25.5815 O   0  0  0  0  0  0  0  0  0  0  0  0
   16.2548   35.2078   23.9080 C   0  0  0  0  0  0  0  0  0  0  0  0
   17.5312   35.3888   23.5335 C   0  0  0  0  0  0  0  0  0  0  0  0
   18.6120   35.0561   24.4427 C   0  0  0  0  0  0  0  0  0  0  0  0
   19.9385   35.2248   24.1163 C   0  0  0  0  0  0  0  0  0  0  0  0
   20.9540   34.9231   24.9429 N   0  0  0  0  0  0  0  0  0  0  0  0
   20.6331   34.4367   26.1453 C   0  0  0  0  0  0  0  0  0  0  0  0
   19.3736   34.2340   26.5487 N   0  0  0  0  0  0  0  0  0  0  0  0
   18.3712   34.5441   25.7015 C   0  0  0  0  0  0  0  0  0  0  0  0
   15.1686   35.5434   22.9630 C   0  0  0  0  0  0  0  0  0  0  0  0
   14.6172   36.8284   22.8963 C   0  0  0  0  0  0  0  0  0  0  0  0
   13.6032   37.1083   21.9799 C   0  0  0  0  0  0  0  0  0  0  0  0
   13.1501   36.0798   21.1749 C   0  0  0  0  0  0  0  0  0  0  0  0
   13.6700   34.8414   21.1740 N   0  0  0  0  0  0  0  0  0  0  0  0
   14.6458   34.5944   22.0845 C   0  0  0  0  0  0  0  0  0  0  0  0
   12.1985   36.2255   20.1385 N   0  0  0  0  0  0  0  0  0  0  0  0
   11.8634   37.1871   20.2326 H   0  0  0  0  0  0  0  0  0  0  0  0
   12.7671   35.9925   18.5680 S   0  0  0  0  0  0  0  0  0  0  0  0
   12.1254   34.8427   17.9706 O   0  0  0  0  0  0  0  0  0  0  0  0
   14.2095   36.0902   18.6353 O   0  0  0  0  0  0  0  0  0  0  0  0
   12.1717   37.4787   17.7663 C   0  0  0  0  0  0  0  0  0  0  0  0
   12.7423   37.8188   16.3833 C   0  0  0  0  0  0  0  0  0  0  0  0
   13.2019   39.2696   16.2160 C   0  0  0  0  0  0  0  0  0  0  0  0
   13.9587   39.4793   14.9008 C   0  0  0  0  0  0  0  0  0  0  0  0
   13.4616   38.5944   13.7568 C   0  0  0  0  0  0  0  0  0  0  0  0
   12.0098   38.1787   13.9461 C   0  0  0  0  0  0  0  0  0  0  0  0
   11.8150   37.3744   15.2334 C   0  0  0  0  0  0  0  0  0  0  0  0
   16.9362   34.8438   28.5538 C   0  0  0  0  0  0  0  0  0  0  0  0
   16.7758   33.7836   27.4599 C   0  0  0  0  0  0  0  0  0  0  0  0
   17.6361   32.5484   27.7450 C   0  0  0  0  0  0  0  0  0  0  0  0
   21.6044   34.1070   27.0460 N   0  0  0  0  0  0  0  0  0  0  0  0
   21.2666   33.9247   27.9776 H   0  0  0  0  0  0  0  0  0  0  0  0
   22.9857   33.8612   26.6774 C   0  0  1  0  0  0  0  0  0  0  0  0
   23.8975   34.4035   27.7938 C   0  0  0  0  0  0  0  0  0  0  0  0
   25.2870   33.7587   27.8448 C   0  0  0  0  0  0  0  0  0  0  0  0
   25.6937   33.0774   26.5223 C   0  0  1  0  0  0  0  0  0  0  0  0
   24.6714   31.9363   26.3179 C   0  0  0  0  0  0  0  0  0  0  0  0
   23.2020   32.3626   26.4331 C   0  0  0  0  0  0  0  0  0  0  0  0
   25.7697   34.0357   25.3922 N   0  0  0  0  0  0  0  0  0  0  0  0
   26.7917   35.0668   25.6131 C   0  0  0  0  0  0  0  0  0  0  0  0
   26.0406   33.3753   24.1105 C   0  0  0  0  0  0  0  0  0  0  0  0
   17.7443   35.7655   22.5966 H   0  0  0  0  0  0  0  0  0  0  0  0
   20.1660   35.6045   23.1840 H   0  0  0  0  0  0  0  0  0  0  0  0
   14.9614   37.5699   23.5261 H   0  0  0  0  0  0  0  0  0  0  0  0
   13.2026   38.0564   21.9051 H   0  0  0  0  0  0  0  0  0  0  0  0
   15.0279   33.6368   22.1301 H   0  0  0  0  0  0  0  0  0  0  0  0
   12.3914   38.3015   18.4141 H   0  0  0  0  0  0  0  0  0  0  0  0
   11.1319   37.2952   17.5929 H   0  0  0  0  0  0  0  0  0  0  0  0
   13.6376   37.2362   16.3211 H   0  0  0  0  0  0  0  0  0  0  0  0
   13.8467   39.5247   17.0309 H   0  0  0  0  0  0  0  0  0  0  0  0
   12.3330   39.8939   16.2026 H   0  0  0  0  0  0  0  0  0  0  0  0
   14.9934   39.2646   15.0687 H   0  0  0  0  0  0  0  0  0  0  0  0
   13.7948   40.4943   14.6045 H   0  0  0  0  0  0  0  0  0  0  0  0
   14.0695   37.7150   13.7112 H   0  0  0  0  0  0  0  0  0  0  0  0
   13.5280   39.1586   12.8501 H   0  0  0  0  0  0  0  0  0  0  0  0
   11.7096   37.5780   13.1131 H   0  0  0  0  0  0  0  0  0  0  0  0
   11.4148   39.0655   14.0134 H   0  0  0  0  0  0  0  0  0  0  0  0
   12.0087   36.3437   15.0213 H   0  0  0  0  0  0  0  0  0  0  0  0
   10.8091   37.5399   15.5586 H   0  0  0  0  0  0  0  0  0  0  0  0
   16.7506   34.4007   29.5099 H   0  0  0  0  0  0  0  0  0  0  0  0
   16.2379   35.6371   28.3867 H   0  0  0  0  0  0  0  0  0  0  0  0
   17.9321   35.2341   28.5289 H   0  0  0  0  0  0  0  0  0  0  0  0
   15.7542   33.4657   27.4756 H   0  0  0  0  0  0  0  0  0  0  0  0
   18.6699   32.8244   27.7381 H   0  0  0  0  0  0  0  0  0  0  0  0
   17.4593   31.8091   26.9919 H   0  0  0  0  0  0  0  0  0  0  0  0
   17.3799   32.1490   28.7040 H   0  0  0  0  0  0  0  0  0  0  0  0
   23.2292   34.3673   25.7667 H   0  0  0  0  0  0  0  0  0  0  0  0
   23.4145   34.2326   28.7331 H   0  0  0  0  0  0  0  0  0  0  0  0
   24.0500   35.4421   27.5864 H   0  0  0  0  0  0  0  0  0  0  0  0
   25.2912   33.0224   28.6212 H   0  0  0  0  0  0  0  0  0  0  0  0
   25.9928   34.5420   28.0273 H   0  0  0  0  0  0  0  0  0  0  0  0
   26.6865   32.6805   26.5637 H   0  0  0  0  0  0  0  0  0  0  0  0
   24.8591   31.1847   27.0560 H   0  0  0  0  0  0  0  0  0  0  0  0
   24.8064   31.5860   25.3159 H   0  0  0  0  0  0  0  0  0  0  0  0
   22.7622   31.8255   27.2473 H   0  0  0  0  0  0  0  0  0  0  0  0
   22.7490   32.1423   25.4891 H   0  0  0  0  0  0  0  0  0  0  0  0
   26.6071   35.5580   26.5456 H   0  0  0  0  0  0  0  0  0  0  0  0
   26.7533   35.7829   24.8190 H   0  0  0  0  0  0  0  0  0  0  0  0
   27.7594   34.6108   25.6356 H   0  0  0  0  0  0  0  0  0  0  0  0
   25.3030   32.6202   23.9354 H   0  0  0  0  0  0  0  0  0  0  0  0
   27.0112   32.9259   24.1389 H   0  0  0  0  0  0  0  0  0  0  0  0
   26.0052   34.0981   23.3223 H   0  0  0  0  0  0  0  0  0  0  0  0
  1  2  1  0  0  0  0
  2  3  2  0  0  0  0
  2  4  1  0  0  0  0
  4 12  1  0  0  0  0
  4  5  2  0  0  0  0
  5  6  1  0  0  0  0
  5 44  1  0  0  0  0
  6  7  2  0  0  0  0
  7  8  1  0  0  0  0
  7 45  1  0  0  0  0
  8  9  2  0  0  0  0
  9 33  1  0  0  0  0
  9 10  1  0  0  0  0
 10 11  2  0  0  0  0
 11  1  1  0  0  0  0
 11  6  1  0  0  0  0
 12 13  2  0  0  0  0
 13 14  1  0  0  0  0
 13 46  1  0  0  0  0
 14 15  2  0  0  0  0
 14 47  1  0  0  0  0
 15 18  1  0  0  0  0
 15 16  1  0  0  0  0
 16 17  2  0  0  0  0
 17 12  1  0  0  0  0
 17 48  1  0  0  0  0
 18 20  1  0  0  0  0
 18 19  1  0  0  0  0
 20 21  2  0  0  0  0
 20 22  2  0  0  0  0
 20 23  1  0  0  0  0
 23 24  1  0  0  0  0
 23 49  1  0  0  0  0
 23 50  1  0  0  0  0
 24 25  1  0  0  0  0
 24 51  1  0  0  0  0
 25 26  1  0  0  0  0
 25 52  1  0  0  0  0
 25 53  1  0  0  0  0
 26 27  1  0  0  0  0
 26 54  1  0  0  0  0
 26 55  1  0  0  0  0
 27 28  1  0  0  0  0
 27 56  1  0  0  0  0
 27 57  1  0  0  0  0
 28 29  1  0  0  0  0
 28 58  1  0  0  0  0
 28 59  1  0  0  0  0
 29 24  1  0  0  0  0
 29 60  1  0  0  0  0
 29 61  1  0  0  0  0
 30 31  1  0  0  0  0
 30 62  1  0  0  0  0
 30 63  1  0  0  0  0
 30 64  1  0  0  0  0
 31 32  1  0  0  0  0
 31  1  1  0  0  0  0
 31 65  1  0  0  0  0
 32 66  1  0  0  0  0
 32 67  1  0  0  0  0
 32 68  1  0  0  0  0
 33 35  1  0  0  0  0
 33 34  1  0  0  0  0
 35 36  1  0  0  0  0
 35 69  1  6  0  0  0
 36 37  1  0  0  0  0
 36 70  1  0  0  0  0
 36 71  1  0  0  0  0
 37 38  1  0  0  0  0
 37 72  1  0  0  0  0
 37 73  1  0  0  0  0
 38 41  1  0  0  0  0
 38 39  1  0  0  0  0
 38 74  1  1  0  0  0
 39 40  1  0  0  0  0
 39 75  1  0  0  0  0
 39 76  1  0  0  0  0
 40 35  1  0  0  0  0
 40 77  1  0  0  0  0
 40 78  1  0  0  0  0
 41 42  1  0  0  0  0
 41 43  1  0  0  0  0
 42 79  1  0  0  0  0
 42 80  1  0  0  0  0
 42 81  1  0  0  0  0
 43 82  1  0  0  0  0
 43 83  1  0  0  0  0
 43 84  1  0  0  0  0
M  END
>  <minimizedAffinity>
-10.41530

$$$$
