L2:O75460:84980
     RDKit          3D

 68 72  0  0  0  0  0  0  0  0999 V2000
   -1.6244    2.3271   -2.4963 C   0  0  0  0  0  0  0  0  0  0  0  0
   -1.0907    2.5147   -1.0736 C   0  0  0  0  0  0  0  0  0  0  0  0
   -1.9999    3.4042   -0.2208 C   0  0  0  0  0  0  0  0  0  0  0  0
   -0.7313    1.2463   -0.4183 N   0  0  0  0  0  0  0  0  0  0  0  0
    0.6087    0.9823   -0.1426 C   0  0  0  0  0  0  0  0  0  0  0  0
    1.5385    1.7216   -0.4457 O   0  0  0  0  0  0  0  0  0  0  0  0
    0.9216   -0.3390    0.5712 C   0  0  0  0  0  0  0  0  0  0  0  0
    2.3247   -0.6487    0.9671 C   0  0  0  0  0  0  0  0  0  0  0  0
    2.7710   -1.9772    0.8781 C   0  0  0  0  0  0  0  0  0  0  0  0
    4.0775   -2.3144    1.2475 C   0  0  0  0  0  0  0  0  0  0  0  0
    4.9411   -1.3270    1.7152 C   0  0  0  0  0  0  0  0  0  0  0  0
    6.2841   -1.6273    2.0865 N   0  0  0  0  0  0  0  0  0  0  0  0
    7.3730   -2.1732    0.9355 S   0  0  0  0  0  6  0  0  0  0  0  0
    6.8062   -3.2930    0.2229 O   0  0  0  0  0  0  0  0  0  0  0  0
    8.6376   -2.2748    1.6269 O   0  0  0  0  0  0  0  0  0  0  0  0
    7.4817   -0.8856   -0.0980 N   0  0  0  0  0  0  0  0  0  0  0  0
    6.5838   -0.7141   -1.2444 C   0  0  0  0  0  0  0  0  0  0  0  0
    6.9884    0.6437   -1.8064 C   0  0  0  0  0  0  0  0  0  0  0  0
    7.3625    1.4263   -0.5595 C   0  0  0  0  0  0  0  0  0  0  0  0
    8.0814    0.3929    0.3017 C   0  0  0  0  0  0  0  0  0  0  0  0
    4.4798   -0.0129    1.8306 C   0  0  0  0  0  0  0  0  0  0  0  0
    5.3032    0.9389    2.2974 F   0  0  0  0  0  0  0  0  0  0  0  0
    3.1834    0.3354    1.4637 C   0  0  0  0  0  0  0  0  0  0  0  0
   -0.0013   -1.2183    0.8340 N   0  0  0  0  0  0  0  0  0  0  0  0
   -1.3219   -0.9065    0.4859 C   0  0  0  0  0  0  0  0  0  0  0  0
   -2.3417   -1.7959    0.7417 C   0  0  0  0  0  0  0  0  0  0  0  0
   -3.6378   -1.5686    0.4503 N   0  0  0  0  0  0  0  0  0  0  0  0
   -3.9276   -0.3979   -0.1227 C   0  0  0  0  0  0  0  0  0  0  0  0
   -5.2165   -0.0885   -0.4487 N   0  0  0  0  0  0  0  0  0  0  0  0
   -6.3169   -1.0278   -0.2912 C   0  0  2  0  0  0  0  0  0  0  0  0
   -7.5100   -0.5606   -1.1698 C   0  0  0  0  0  0  0  0  0  0  0  0
   -8.2682    0.5257   -0.5269 N   0  0  0  0  0  0  0  0  0  0  0  0
   -8.9111    0.0248    0.7065 C   0  0  0  0  0  0  0  0  0  0  0  0
   -8.2147   -1.1722    1.3807 C   0  0  1  0  0  0  0  0  0  0  0  0
   -8.6730   -2.3284    0.8185 F   0  0  0  0  0  0  0  0  0  0  0  0
   -6.7073   -1.1244    1.1983 C   0  0  0  0  0  0  0  0  0  0  0  0
   -3.0142    0.5354   -0.4113 N   0  0  0  0  0  0  0  0  0  0  0  0
   -1.7253    0.2780   -0.1092 C   0  0  0  0  0  0  0  0  0  0  0  0
   -2.6134    1.8613   -2.5168 H   0  0  0  0  0  0  0  0  0  0  0  0
   -1.7104    3.2950   -3.0021 H   0  0  0  0  0  0  0  0  0  0  0  0
   -0.9463    1.6990   -3.0841 H   0  0  0  0  0  0  0  0  0  0  0  0
   -0.1644    3.0913   -1.1908 H   0  0  0  0  0  0  0  0  0  0  0  0
   -2.0764    4.4038   -0.6626 H   0  0  0  0  0  0  0  0  0  0  0  0
   -3.0166    3.0115   -0.1352 H   0  0  0  0  0  0  0  0  0  0  0  0
   -1.5955    3.5137    0.7913 H   0  0  0  0  0  0  0  0  0  0  0  0
    2.1062   -2.7602    0.5161 H   0  0  0  0  0  0  0  0  0  0  0  0
    4.4057   -3.3488    1.1716 H   0  0  0  0  0  0  0  0  0  0  0  0
    6.7325   -0.9388    2.6898 H   0  0  0  0  0  0  0  0  0  0  0  0
    5.5377   -0.6939   -0.9325 H   0  0  0  0  0  0  0  0  0  0  0  0
    6.7274   -1.5025   -1.9880 H   0  0  0  0  0  0  0  0  0  0  0  0
    6.1859    1.1154   -2.3801 H   0  0  0  0  0  0  0  0  0  0  0  0
    7.8632    0.5383   -2.4593 H   0  0  0  0  0  0  0  0  0  0  0  0
    6.4554    1.7749   -0.0520 H   0  0  0  0  0  0  0  0  0  0  0  0
    7.9874    2.2974   -0.7751 H   0  0  0  0  0  0  0  0  0  0  0  0
    7.9493    0.6129    1.3640 H   0  0  0  0  0  0  0  0  0  0  0  0
    9.1515    0.3720    0.0707 H   0  0  0  0  0  0  0  0  0  0  0  0
    2.8712    1.3684    1.5801 H   0  0  0  0  0  0  0  0  0  0  0  0
   -2.1342   -2.7540    1.2092 H   0  0  0  0  0  0  0  0  0  0  0  0
   -5.3342    0.7901   -0.9294 H   0  0  0  0  0  0  0  0  0  0  0  0
   -6.0180   -2.0166   -0.6630 H   0  0  0  0  0  0  0  0  0  0  0  0
   -8.1807   -1.4008   -1.3888 H   0  0  0  0  0  0  0  0  0  0  0  0
   -7.1452   -0.2045   -2.1408 H   0  0  0  0  0  0  0  0  0  0  0  0
   -7.6062    1.2596   -0.2700 H   0  0  0  0  0  0  0  0  0  0  0  0
   -9.9431   -0.2541    0.4661 H   0  0  0  0  0  0  0  0  0  0  0  0
   -8.9600    0.8608    1.4137 H   0  0  0  0  0  0  0  0  0  0  0  0
   -8.4761   -1.2102    2.4430 H   0  0  0  0  0  0  0  0  0  0  0  0
   -6.3092   -0.2733    1.7659 H   0  0  0  0  0  0  0  0  0  0  0  0
   -6.2574   -2.0287    1.6251 H   0  0  0  0  0  0  0  0  0  0  0  0
  1  2  1  0
  2  3  1  0
  2  4  1  0
  4  5  1  0
  5  6  2  0
  5  7  1  0
  7  8  1  0
  8  9  2  0
  9 10  1  0
 10 11  2  0
 11 12  1  0
 12 13  1  0
 13 14  2  0
 13 15  2  0
 13 16  1  0
 16 17  1  0
 17 18  1  0
 18 19  1  0
 19 20  1  0
 11 21  1  0
 21 22  1  0
 21 23  2  0
  7 24  2  0
 24 25  1  0
 25 26  2  0
 26 27  1  0
 27 28  2  0
 28 29  1  0
 29 30  1  0
 30 31  1  0
 31 32  1  0
 32 33  1  0
 33 34  1  0
 34 35  1  0
 34 36  1  0
 28 37  1  0
 37 38  2  0
 38  4  1  0
 23  8  1  0
 38 25  1  0
 20 16  1  0
 36 30  1  0
  1 39  1  0
  1 40  1  0
  1 41  1  0
  2 42  1  0
  3 43  1  0
  3 44  1  0
  3 45  1  0
  9 46  1  0
 10 47  1  0
 12 48  1  0
 17 49  1  0
 17 50  1  0
 18 51  1  0
 18 52  1  0
 19 53  1  0
 19 54  1  0
 20 55  1  0
 20 56  1  0
 23 57  1  0
 26 58  1  0
 29 59  1  0
 30 60  1  6
 31 61  1  0
 31 62  1  0
 32 63  1  0
 33 64  1  0
 33 65  1  0
 34 66  1  1
 36 67  1  0
 36 68  1  0
M  END
>  <mol_id>  (1) 
84980

>  <source_index>  (1) 
6

>  <layer>  (1) 
L2

>  <uniprot>  (1) 
O75460

>  <paff>  (1) 
9.0131999999999994

>  <smiles>  (1) 
CC(C)n1c(=O)c(-c2ccc(NS(=O)(=O)N3CCCC3)c(F)c2)nc2cnc(N[C@@H]3CNC[C@@H](F)C3)nc21

$$$$
