L2:O75460:96586
     RDKit          3D

 72 76  0  0  0  0  0  0  0  0999 V2000
   -2.1015    0.5197    2.9671 C   0  0  0  0  0  0  0  0  0  0  0  0
   -1.2374   -0.5839    2.3500 C   0  0  0  0  0  0  0  0  0  0  0  0
   -1.9040   -1.9600    2.4279 C   0  0  0  0  0  0  0  0  0  0  0  0
   -0.7433   -0.2562    1.0026 N   0  0  0  0  0  0  0  0  0  0  0  0
    0.6306   -0.1712    0.7872 C   0  0  0  0  0  0  0  0  0  0  0  0
    1.4822   -0.3987    1.6392 O   0  0  0  0  0  0  0  0  0  0  0  0
    1.0876    0.2114   -0.6264 C   0  0  0  0  0  0  0  0  0  0  0  0
    2.5391    0.4047   -0.9042 C   0  0  0  0  0  0  0  0  0  0  0  0
    3.0462    0.0109   -2.1516 C   0  0  0  0  0  0  0  0  0  0  0  0
    4.4017    0.1856   -2.4602 C   0  0  0  0  0  0  0  0  0  0  0  0
    5.2660    0.7416   -1.5203 C   0  0  0  0  0  0  0  0  0  0  0  0
    6.6520    0.9929   -1.7771 N   0  0  0  0  0  0  0  0  0  0  0  0
    7.6440   -0.1553   -2.4992 S   0  0  0  0  0  6  0  0  0  0  0  0
    7.0338   -0.6066   -3.7332 O   0  0  0  0  0  0  0  0  0  0  0  0
    8.9696    0.4305   -2.5287 O   0  0  0  0  0  0  0  0  0  0  0  0
    7.6568   -1.5454   -1.3498 C   0  0  0  0  0  0  0  0  0  0  0  0
    7.9126   -1.1041    0.0685 C   0  0  0  0  0  0  0  0  0  0  0  0
    6.9127   -1.2535    1.0419 C   0  0  0  0  0  0  0  0  0  0  0  0
    7.1362   -0.8502    2.3592 C   0  0  0  0  0  0  0  0  0  0  0  0
    8.3653   -0.3066    2.7234 C   0  0  0  0  0  0  0  0  0  0  0  0
    9.3745   -0.1737    1.7731 C   0  0  0  0  0  0  0  0  0  0  0  0
    9.1531   -0.5762    0.4551 C   0  0  0  0  0  0  0  0  0  0  0  0
    4.7324    1.1905   -0.3057 C   0  0  0  0  0  0  0  0  0  0  0  0
    5.5358    1.7964    0.5825 F   0  0  0  0  0  0  0  0  0  0  0  0
    3.3885    1.0200    0.0156 C   0  0  0  0  0  0  0  0  0  0  0  0
    0.2464    0.3594   -1.6084 N   0  0  0  0  0  0  0  0  0  0  0  0
   -1.1185    0.2096   -1.3305 C   0  0  0  0  0  0  0  0  0  0  0  0
   -2.0564    0.3610   -2.3275 C   0  0  0  0  0  0  0  0  0  0  0  0
   -3.3865    0.2459   -2.1422 N   0  0  0  0  0  0  0  0  0  0  0  0
   -3.7972   -0.0341   -0.9027 C   0  0  0  0  0  0  0  0  0  0  0  0
   -5.1291   -0.1630   -0.6267 N   0  0  0  0  0  0  0  0  0  0  0  0
   -6.1576    0.1982   -1.5902 C   0  0  2  0  0  0  0  0  0  0  0  0
   -6.3702    1.7262   -1.6083 C   0  0  0  0  0  0  0  0  0  0  0  0
   -6.8169    2.2857   -0.3219 N   0  0  0  0  0  0  0  0  0  0  0  0
   -7.7360    1.4142    0.4188 C   0  0  0  0  0  0  0  0  0  0  0  0
   -8.4625    0.3905   -0.4614 C   0  0  2  0  0  0  0  0  0  0  0  0
   -9.4301   -0.4482    0.3669 C   0  0  0  0  0  0  0  0  0  0  0  0
  -10.3519    0.3683    0.9423 F   0  0  0  0  0  0  0  0  0  0  0  0
   -7.4698   -0.5156   -1.2131 C   0  0  0  0  0  0  0  0  0  0  0  0
   -2.9710   -0.1953    0.1365 N   0  0  0  0  0  0  0  0  0  0  0  0
   -1.6455   -0.0751   -0.0811 C   0  0  0  0  0  0  0  0  0  0  0  0
   -2.2765    0.3159    4.0293 H   0  0  0  0  0  0  0  0  0  0  0  0
   -1.6023    1.4916    2.8888 H   0  0  0  0  0  0  0  0  0  0  0  0
   -3.0815    0.6065    2.4906 H   0  0  0  0  0  0  0  0  0  0  0  0
   -0.3612   -0.6540    3.0070 H   0  0  0  0  0  0  0  0  0  0  0  0
   -2.8620   -1.9936    1.9019 H   0  0  0  0  0  0  0  0  0  0  0  0
   -2.0961   -2.2322    3.4714 H   0  0  0  0  0  0  0  0  0  0  0  0
   -1.2563   -2.7288    1.9930 H   0  0  0  0  0  0  0  0  0  0  0  0
    2.3879   -0.4277   -2.9005 H   0  0  0  0  0  0  0  0  0  0  0  0
    4.7447   -0.0968   -3.4517 H   0  0  0  0  0  0  0  0  0  0  0  0
    7.1417    1.4833   -1.0214 H   0  0  0  0  0  0  0  0  0  0  0  0
    6.6912   -2.0523   -1.4477 H   0  0  0  0  0  0  0  0  0  0  0  0
    8.4370   -2.2379   -1.6823 H   0  0  0  0  0  0  0  0  0  0  0  0
    5.9457   -1.6829    0.7864 H   0  0  0  0  0  0  0  0  0  0  0  0
    6.3504   -0.9612    3.1025 H   0  0  0  0  0  0  0  0  0  0  0  0
    8.5392    0.0077    3.7493 H   0  0  0  0  0  0  0  0  0  0  0  0
   10.3380    0.2420    2.0582 H   0  0  0  0  0  0  0  0  0  0  0  0
    9.9631   -0.4694   -0.2658 H   0  0  0  0  0  0  0  0  0  0  0  0
    3.0353    1.3862    0.9745 H   0  0  0  0  0  0  0  0  0  0  0  0
   -1.7492    0.5911   -3.3435 H   0  0  0  0  0  0  0  0  0  0  0  0
   -5.3397   -0.2641    0.3532 H   0  0  0  0  0  0  0  0  0  0  0  0
   -5.8697   -0.1496   -2.5903 H   0  0  0  0  0  0  0  0  0  0  0  0
   -7.1146    1.9780   -2.3739 H   0  0  0  0  0  0  0  0  0  0  0  0
   -5.4486    2.2402   -1.9050 H   0  0  0  0  0  0  0  0  0  0  0  0
   -5.9973    2.4700    0.2580 H   0  0  0  0  0  0  0  0  0  0  0  0
   -7.1748    0.8888    1.2018 H   0  0  0  0  0  0  0  0  0  0  0  0
   -8.4614    2.0522    0.9361 H   0  0  0  0  0  0  0  0  0  0  0  0
   -9.0584    0.9486   -1.1970 H   0  0  0  0  0  0  0  0  0  0  0  0
   -8.9183   -0.9927    1.1666 H   0  0  0  0  0  0  0  0  0  0  0  0
   -9.9675   -1.1673   -0.2588 H   0  0  0  0  0  0  0  0  0  0  0  0
   -7.9646   -0.8574   -2.1321 H   0  0  0  0  0  0  0  0  0  0  0  0
   -7.2559   -1.4244   -0.6353 H   0  0  0  0  0  0  0  0  0  0  0  0
  1  2  1  0
  2  3  1  0
  2  4  1  0
  4  5  1  0
  5  6  2  0
  5  7  1  0
  7  8  1  0
  8  9  2  0
  9 10  1  0
 10 11  2  0
 11 12  1  0
 12 13  1  0
 13 14  2  0
 13 15  2  0
 13 16  1  0
 16 17  1  0
 17 18  2  0
 18 19  1  0
 19 20  2  0
 20 21  1  0
 21 22  2  0
 11 23  1  0
 23 24  1  0
 23 25  2  0
  7 26  2  0
 26 27  1  0
 27 28  2  0
 28 29  1  0
 29 30  2  0
 30 31  1  0
 31 32  1  0
 32 33  1  0
 33 34  1  0
 34 35  1  0
 35 36  1  0
 36 37  1  0
 37 38  1  0
 36 39  1  0
 30 40  1  0
 40 41  2  0
 41  4  1  0
 25  8  1  0
 41 27  1  0
 22 17  1  0
 39 32  1  0
  1 42  1  0
  1 43  1  0
  1 44  1  0
  2 45  1  0
  3 46  1  0
  3 47  1  0
  3 48  1  0
  9 49  1  0
 10 50  1  0
 12 51  1  0
 16 52  1  0
 16 53  1  0
 18 54  1  0
 19 55  1  0
 20 56  1  0
 21 57  1  0
 22 58  1  0
 25 59  1  0
 28 60  1  0
 31 61  1  0
 32 62  1  6
 33 63  1  0
 33 64  1  0
 34 65  1  0
 35 66  1  0
 35 67  1  0
 36 68  1  6
 37 69  1  0
 37 70  1  0
 39 71  1  0
 39 72  1  0
M  END
>  <mol_id>  (1) 
96586

>  <source_index>  (1) 
7

>  <layer>  (1) 
L2

>  <uniprot>  (1) 
O75460

>  <paff>  (1) 
9.6197999999999997

>  <smiles>  (1) 
CC(C)n1c(=O)c(-c2ccc(NS(=O)(=O)Cc3ccccc3)c(F)c2)nc2cnc(N[C@@H]3CNC[C@H](CF)C3)nc21

$$$$
