L4:O75747:107
     RDKit          3D

 47 51  0  0  0  0  0  0  0  0999 V2000
  -16.0643   -2.8228    1.9477 C   0  0  0  0  0  0  0  0  0  0  0  0
  -16.1323   -4.0812    2.4170 C   0  0  0  0  0  0  0  0  0  0  0  0
  -15.6545   -5.2195    1.6460 C   0  0  0  0  0  0  0  0  0  0  0  0
  -15.7005   -6.4970    2.2258 C   0  0  0  0  0  0  0  0  0  0  0  0
  -15.2620   -7.6083    1.5153 C   0  0  0  0  0  0  0  0  0  0  0  0
  -14.7760   -7.4454    0.2225 C   0  0  0  0  0  0  0  0  0  0  0  0
  -14.7260   -6.1736   -0.3697 C   0  0  0  0  0  0  0  0  0  0  0  0
  -14.0850   -6.1415   -1.9764 Cl  0  0  0  0  0  0  0  0  0  0  0  0
  -15.1708   -5.0441    0.3425 C   0  0  0  0  0  0  0  0  0  0  0  0
  -15.1515   -3.6534   -0.2045 C   0  0  0  0  0  0  0  0  0  0  0  0
  -14.7838   -3.4627   -1.3628 O   0  0  0  0  0  0  0  0  0  0  0  0
  -15.5520   -2.5966    0.6554 N   0  0  0  0  0  0  0  0  0  0  0  0
  -15.4114   -1.2825    0.1123 C   0  0  0  0  0  0  0  0  0  0  0  0
  -14.1700   -0.6384    0.1462 C   0  0  0  0  0  0  0  0  0  0  0  0
  -14.0354    0.6509   -0.3706 C   0  0  0  0  0  0  0  0  0  0  0  0
  -15.1358    1.2922   -0.9393 C   0  0  0  0  0  0  0  0  0  0  0  0
  -16.3681    0.6413   -1.0040 C   0  0  0  0  0  0  0  0  0  0  0  0
  -16.5061   -0.6472   -0.4848 C   0  0  0  0  0  0  0  0  0  0  0  0
  -18.1894   -1.6764    2.9559 C   0  0  0  0  0  0  0  0  0  0  0  0
  -16.6652   -1.6535    2.7578 C   0  0  1  0  0  0  0  0  0  0  0  0
  -15.9875   -1.4396    4.0345 N   0  0  0  0  0  0  0  0  0  0  0  0
  -16.6237   -1.2858    4.8127 H   0  0  0  0  0  0  0  0  0  0  0  0
  -14.8844   -0.6020    4.1449 C   0  0  0  0  0  0  0  0  0  0  0  0
  -14.7256    0.4865    3.3459 N   0  0  0  0  0  0  0  0  0  0  0  0
  -13.6155    1.2455    3.4886 C   0  0  0  0  0  0  0  0  0  0  0  0
  -12.5940    1.0855    4.3539 N   0  0  0  0  0  0  0  0  0  0  0  0
  -12.7965    0.0043    5.1183 C   0  0  0  0  0  0  0  0  0  0  0  0
  -11.9817   -0.4702    6.1042 N   0  0  0  0  0  0  0  0  0  0  0  0
  -12.5742   -1.5879    6.6278 C   0  0  0  0  0  0  0  0  0  0  0  0
  -13.7195   -1.8598    6.0376 N   0  0  0  0  0  0  0  0  0  0  0  0
  -13.8678   -0.8690    5.0843 C   0  0  0  0  0  0  0  0  0  0  0  0
  -11.1029   -0.0594    6.3817 H   0  0  0  0  0  0  0  0  0  0  0  0
  -16.5357   -4.2449    3.3527 H   0  0  0  0  0  0  0  0  0  0  0  0
  -16.0621   -6.6119    3.1855 H   0  0  0  0  0  0  0  0  0  0  0  0
  -15.2968   -8.5466    1.9436 H   0  0  0  0  0  0  0  0  0  0  0  0
  -14.4486   -8.2683   -0.3072 H   0  0  0  0  0  0  0  0  0  0  0  0
  -13.3521   -1.1176    0.5542 H   0  0  0  0  0  0  0  0  0  0  0  0
  -13.1220    1.1297   -0.3320 H   0  0  0  0  0  0  0  0  0  0  0  0
  -15.0383    2.2493   -1.3127 H   0  0  0  0  0  0  0  0  0  0  0  0
  -17.1782    1.1127   -1.4360 H   0  0  0  0  0  0  0  0  0  0  0  0
  -17.4157   -1.1314   -0.5413 H   0  0  0  0  0  0  0  0  0  0  0  0
  -18.4876   -0.8226    3.5278 H   0  0  0  0  0  0  0  0  0  0  0  0
  -18.4681   -2.5691    3.4759 H   0  0  0  0  0  0  0  0  0  0  0  0
  -18.6734   -1.6534    2.0019 H   0  0  0  0  0  0  0  0  0  0  0  0
  -16.4797   -0.8161    2.1181 H   0  0  0  0  0  0  0  0  0  0  0  0
  -13.5403    2.0536    2.8512 H   0  0  0  0  0  0  0  0  0  0  0  0
  -12.1713   -2.1502    7.3936 H   0  0  0  0  0  0  0  0  0  0  0  0
  1  2  2  0
  2  3  1  0
  2 33  1  0
  3  4  2  0
  4  5  1  0
  4 34  1  0
  5  6  2  0
  5 35  1  0
  6  7  1  0
  6 36  1  0
  7  8  1  0
  7  9  2  0
  9 10  1  0
  9  3  1  0
 10 11  2  0
 10 12  1  0
 12 13  1  0
 12  1  1  0
 13 14  2  0
 14 15  1  0
 14 37  1  0
 15 16  2  0
 15 38  1  0
 16 17  1  0
 16 39  1  0
 17 18  2  0
 17 40  1  0
 18 13  1  0
 18 41  1  0
 19 20  1  0
 19 42  1  0
 19 43  1  0
 19 44  1  0
 20 21  1  0
 20  1  1  0
 20 45  1  6
 21 23  1  0
 21 22  1  0
 23 24  2  0
 24 25  1  0
 25 26  2  0
 25 46  1  0
 26 27  1  0
 27 28  1  0
 28 29  1  0
 28 32  1  0
 29 30  2  0
 29 47  1  0
 30 31  1  0
 31 23  1  0
 31 27  2  0
M  END
>  <minimizedAffinity>  (1) 
-7.71835

>  <mol_id>  (1) 
107

>  <source_index>  (1) 
0

>  <layer>  (1) 
L4

>  <uniprot>  (1) 
O75747

>  <paff>  (1) 
7

>  <smiles>  (1) 
CC(Nc1ncnc2[nH]cnc12)c1cc2cccc(Cl)c2c(=O)n1-c1ccccc1

$$$$
L4:O75747:31150
     RDKit          3D

 52 55  0  0  0  0  0  0  0  0999 V2000
  -16.6001   -0.6230    2.3739 C   0  0  0  0  0  0  0  0  0  0  0  0
  -15.9986   -1.2091    3.4254 C   0  0  0  0  0  0  0  0  0  0  0  0
  -14.8002   -0.6543    4.0328 C   0  0  0  0  0  0  0  0  0  0  0  0
  -14.2395   -1.3070    5.1417 C   0  0  0  0  0  0  0  0  0  0  0  0
  -13.0750   -0.8243    5.7271 C   0  0  0  0  0  0  0  0  0  0  0  0
  -12.4649    0.3092    5.2011 C   0  0  0  0  0  0  0  0  0  0  0  0
  -13.0148    0.9707    4.0916 C   0  0  0  0  0  0  0  0  0  0  0  0
  -12.1274    2.3570    3.5573 Cl  0  0  0  0  0  0  0  0  0  0  0  0
  -14.1979    0.4919    3.4967 C   0  0  0  0  0  0  0  0  0  0  0  0
  -14.8699    1.1472    2.3313 C   0  0  0  0  0  0  0  0  0  0  0  0
  -14.3836    2.1755    1.8645 O   0  0  0  0  0  0  0  0  0  0  0  0
  -16.0769    0.5693    1.8377 N   0  0  0  0  0  0  0  0  0  0  0  0
  -16.7446    1.3057    0.7970 C   0  0  0  0  0  0  0  0  0  0  0  0
  -16.4244    1.0869   -0.5496 C   0  0  0  0  0  0  0  0  0  0  0  0
  -17.0789    1.7953   -1.5601 C   0  0  0  0  0  0  0  0  0  0  0  0
  -18.0518    2.7380   -1.2346 C   0  0  0  0  0  0  0  0  0  0  0  0
  -18.3639    2.9814    0.1012 C   0  0  0  0  0  0  0  0  0  0  0  0
  -17.7100    2.2729    1.1123 C   0  0  0  0  0  0  0  0  0  0  0  0
  -17.7827   -1.3487    1.6897 C   0  0  2  0  0  0  0  0  0  0  0  0
  -19.0566   -1.2084    2.5348 C   0  0  0  0  0  0  0  0  0  0  0  0
  -17.4054   -2.7735    1.5573 N   0  0  0  0  0  0  0  0  0  0  0  0
  -16.9831   -3.1050    2.4262 H   0  0  0  0  0  0  0  0  0  0  0  0
  -15.9580   -2.8908   -1.7334 C   0  0  0  0  0  0  0  0  0  0  0  0
  -14.9702   -3.7825   -1.6286 N   0  0  0  0  0  0  0  0  0  0  0  0
  -14.8024   -4.3560   -0.4253 C   0  0  0  0  0  0  0  0  0  0  0  0
  -15.5678   -4.0582    0.6794 C   0  0  0  0  0  0  0  0  0  0  0  0
  -16.5599   -3.1184    0.4888 C   0  0  0  0  0  0  0  0  0  0  0  0
  -16.7507   -2.5433   -0.7129 N   0  0  0  0  0  0  0  0  0  0  0  0
  -15.3419   -4.7516    1.9712 C   0  0  0  0  0  0  0  0  0  0  0  0
  -14.9589   -3.9070    2.9732 F   0  0  0  0  0  0  0  0  0  0  0  0
  -16.4411   -5.4095    2.4318 F   0  0  0  0  0  0  0  0  0  0  0  0
  -14.3562   -5.6942    1.9067 F   0  0  0  0  0  0  0  0  0  0  0  0
  -17.5406   -1.6847   -3.0464 C   0  0  0  0  0  0  0  0  0  0  0  0
  -16.2179   -2.2568   -2.9390 N   0  0  0  0  0  0  0  0  0  0  0  0
  -15.9695   -2.9191   -3.6655 H   0  0  0  0  0  0  0  0  0  0  0  0
  -16.3999   -2.0778    3.8118 H   0  0  0  0  0  0  0  0  0  0  0  0
  -14.6946   -2.1504    5.5246 H   0  0  0  0  0  0  0  0  0  0  0  0
  -12.6666   -1.3030    6.5451 H   0  0  0  0  0  0  0  0  0  0  0  0
  -11.5982    0.6682    5.6311 H   0  0  0  0  0  0  0  0  0  0  0  0
  -15.6986    0.3962   -0.7970 H   0  0  0  0  0  0  0  0  0  0  0  0
  -16.8415    1.6202   -2.5490 H   0  0  0  0  0  0  0  0  0  0  0  0
  -18.5406    3.2553   -1.9820 H   0  0  0  0  0  0  0  0  0  0  0  0
  -19.0784    3.6854    0.3439 H   0  0  0  0  0  0  0  0  0  0  0  0
  -17.9395    2.4630    2.1003 H   0  0  0  0  0  0  0  0  0  0  0  0
  -17.9842   -0.9211    0.7297 H   0  0  0  0  0  0  0  0  0  0  0  0
  -18.8890   -1.6276    3.5049 H   0  0  0  0  0  0  0  0  0  0  0  0
  -19.8610   -1.7269    2.0563 H   0  0  0  0  0  0  0  0  0  0  0  0
  -19.3077   -0.1729    2.6323 H   0  0  0  0  0  0  0  0  0  0  0  0
  -14.0559   -5.0612   -0.3232 H   0  0  0  0  0  0  0  0  0  0  0  0
  -17.7015   -1.0038   -2.2368 H   0  0  0  0  0  0  0  0  0  0  0  0
  -18.2712   -2.4654   -3.0064 H   0  0  0  0  0  0  0  0  0  0  0  0
  -17.6285   -1.1613   -3.9755 H   0  0  0  0  0  0  0  0  0  0  0  0
  1  2  2  0
  2  3  1  0
  2 36  1  0
  3  4  2  0
  4  5  1  0
  4 37  1  0
  5  6  2  0
  5 38  1  0
  6  7  1  0
  6 39  1  0
  7  8  1  0
  7  9  2  0
  9 10  1  0
  9  3  1  0
 10 11  2  0
 10 12  1  0
 12 13  1  0
 12  1  1  0
 13 14  2  0
 14 15  1  0
 14 40  1  0
 15 16  2  0
 15 41  1  0
 16 17  1  0
 16 42  1  0
 17 18  2  0
 17 43  1  0
 18 13  1  0
 18 44  1  0
 19 20  1  0
 19  1  1  0
 19 45  1  6
 20 46  1  0
 20 47  1  0
 20 48  1  0
 21 19  1  0
 21 22  1  0
 23 24  2  0
 24 25  1  0
 25 26  2  0
 25 49  1  0
 26 29  1  0
 26 27  1  0
 27 21  1  0
 27 28  2  0
 28 23  1  0
 29 30  1  0
 29 31  1  0
 29 32  1  0
 33 34  1  0
 33 50  1  0
 33 51  1  0
 33 52  1  0
 34 23  1  0
 34 35  1  0
M  END
>  <minimizedAffinity>  (2) 
-7.40832

>  <mol_id>  (2) 
31150

>  <source_index>  (2) 
1

>  <layer>  (2) 
L4

>  <uniprot>  (2) 
O75747

>  <paff>  (2) 
7

>  <smiles>  (2) 
CNc4ncc(C(F)(F)F)c(N[C@@H](C)c2cc1cccc(Cl)c1c(=O)n2c3ccccc3)n4

$$$$
L4:O75747:31847
     RDKit          3D

 64 69  0  0  0  0  0  0  0  0999 V2000
  -16.0810   -0.8115    2.5928 N   0  0  0  0  0  0  0  0  0  0  0  0
  -15.7777   -1.0799    3.8790 N   0  0  0  0  0  0  0  0  0  0  0  0
  -14.7124   -0.3028    4.1215 C   0  0  0  0  0  0  0  0  0  0  0  0
  -14.4525    0.6016    3.0583 C   0  0  0  0  0  0  0  0  0  0  0  0
  -13.6137    1.6805    2.7503 C   0  0  0  0  0  0  0  0  0  0  0  0
  -12.7023    2.2631    3.6203 N   0  0  0  0  0  0  0  0  0  0  0  0
  -13.7198    2.2593    1.5342 N   0  0  0  0  0  0  0  0  0  0  0  0
  -14.6308    1.7819    0.6664 C   0  0  0  0  0  0  0  0  0  0  0  0
  -15.5023    0.7791    0.8545 N   0  0  0  0  0  0  0  0  0  0  0  0
  -15.3597    0.2308    2.0749 C   0  0  0  0  0  0  0  0  0  0  0  0
  -12.4423    3.1840    3.2857 H   0  0  0  0  0  0  0  0  0  0  0  0
  -12.9652    2.2117    4.5969 H   0  0  0  0  0  0  0  0  0  0  0  0
  -13.9630   -0.4424    5.3642 C   0  0  0  0  0  0  0  0  0  0  0  0
  -14.5357   -0.4719    6.6518 C   0  0  0  0  0  0  0  0  0  0  0  0
  -13.6209   -0.6413    7.6139 N   0  0  0  0  0  0  0  0  0  0  0  0
  -12.4675   -0.7763    6.9283 N   0  0  0  0  0  0  0  0  0  0  0  0
  -12.6211   -0.6571    5.5759 C   0  0  0  0  0  0  0  0  0  0  0  0
  -11.2292   -1.0166    7.6492 C   0  0  0  0  0  0  0  0  0  0  0  0
  -10.7642   -2.4588    7.5025 C   0  0  0  0  0  0  0  0  0  0  0  0
  -11.8808   -3.3459    7.5576 O   0  0  0  0  0  0  0  0  0  0  0  0
  -11.5243   -4.2531    7.5593 H   0  0  0  0  0  0  0  0  0  0  0  0
  -17.1348   -1.5535    1.9126 C   0  0  0  0  0  0  0  0  0  0  0  0
  -17.9357   -3.9651    2.0778 N   0  0  0  0  0  0  0  0  0  0  0  0
  -16.8825   -3.0550    1.9037 C   0  0  0  0  0  0  0  0  0  0  0  0
  -15.6230   -3.4978    1.7518 C   0  0  0  0  0  0  0  0  0  0  0  0
  -15.3065   -4.9186    1.8034 C   0  0  0  0  0  0  0  0  0  0  0  0
  -13.9722   -5.3254    1.6661 C   0  0  0  0  0  0  0  0  0  0  0  0
  -13.6392   -6.6741    1.7290 C   0  0  0  0  0  0  0  0  0  0  0  0
  -14.6357   -7.6243    1.9333 C   0  0  0  0  0  0  0  0  0  0  0  0
  -15.9825   -7.2428    2.0769 C   0  0  0  0  0  0  0  0  0  0  0  0
  -16.9990   -8.3315    2.2980 C   0  0  0  0  0  0  0  0  0  0  0  0
  -16.3190   -5.8684    2.0071 C   0  0  0  0  0  0  0  0  0  0  0  0
  -17.7275   -5.3675    2.1309 C   0  0  0  0  0  0  0  0  0  0  0  0
  -18.6449   -6.1800    2.2481 O   0  0  0  0  0  0  0  0  0  0  0  0
  -19.5468   -3.6162   -0.3871 C   0  0  0  0  0  0  0  0  0  0  0  0
  -20.0831   -3.3658    0.9942 C   0  0  0  0  0  0  0  0  0  0  0  0
  -21.4105   -2.9288    1.1356 C   0  0  0  0  0  0  0  0  0  0  0  0
  -21.9533   -2.6800    2.3975 C   0  0  0  0  0  0  0  0  0  0  0  0
  -21.1745   -2.8514    3.5384 C   0  0  0  0  0  0  0  0  0  0  0  0
  -19.8518   -3.2754    3.4173 C   0  0  0  0  0  0  0  0  0  0  0  0
  -19.3007   -3.5384    2.1525 C   0  0  0  0  0  0  0  0  0  0  0  0
  -14.6631    2.2432   -0.2562 H   0  0  0  0  0  0  0  0  0  0  0  0
  -15.5470   -0.3739    6.8324 H   0  0  0  0  0  0  0  0  0  0  0  0
  -11.8809   -0.7161    4.8592 H   0  0  0  0  0  0  0  0  0  0  0  0
  -11.3853   -0.8062    8.6866 H   0  0  0  0  0  0  0  0  0  0  0  0
  -10.4745   -0.3789    7.2385 H   0  0  0  0  0  0  0  0  0  0  0  0
  -10.0867   -2.6940    8.2966 H   0  0  0  0  0  0  0  0  0  0  0  0
  -10.2746   -2.5729    6.5580 H   0  0  0  0  0  0  0  0  0  0  0  0
  -18.0628   -1.3650    2.4108 H   0  0  0  0  0  0  0  0  0  0  0  0
  -17.1584   -1.2231    0.8952 H   0  0  0  0  0  0  0  0  0  0  0  0
  -14.8637   -2.8167    1.5952 H   0  0  0  0  0  0  0  0  0  0  0  0
  -13.2332   -4.6205    1.5176 H   0  0  0  0  0  0  0  0  0  0  0  0
  -12.6560   -6.9697    1.6245 H   0  0  0  0  0  0  0  0  0  0  0  0
  -14.3829   -8.6238    1.9802 H   0  0  0  0  0  0  0  0  0  0  0  0
  -16.5067   -9.2814    2.3127 H   0  0  0  0  0  0  0  0  0  0  0  0
  -17.7179   -8.3145    1.5056 H   0  0  0  0  0  0  0  0  0  0  0  0
  -17.4947   -8.1722    3.2328 H   0  0  0  0  0  0  0  0  0  0  0  0
  -20.3133   -3.4220   -1.1079 H   0  0  0  0  0  0  0  0  0  0  0  0
  -19.2312   -4.6354   -0.4679 H   0  0  0  0  0  0  0  0  0  0  0  0
  -18.7140   -2.9695   -0.5690 H   0  0  0  0  0  0  0  0  0  0  0  0
  -21.9926   -2.7897    0.2949 H   0  0  0  0  0  0  0  0  0  0  0  0
  -22.9333   -2.3686    2.4846 H   0  0  0  0  0  0  0  0  0  0  0  0
  -21.5749   -2.6652    4.4711 H   0  0  0  0  0  0  0  0  0  0  0  0
  -19.2734   -3.3969    4.2633 H   0  0  0  0  0  0  0  0  0  0  0  0
  1  2  1  0
  2  3  2  0
  3 13  1  0
  3  4  1  0
  4  5  2  0
  5  6  1  0
  5  7  1  0
  6 11  1  0
  6 12  1  0
  7  8  2  0
  8  9  1  0
  8 42  1  0
  9 10  2  0
 10  1  1  0
 10  4  1  0
 13 14  1  0
 14 15  2  0
 14 43  1  0
 15 16  1  0
 16 18  1  0
 16 17  1  0
 17 13  2  0
 17 44  1  0
 18 19  1  0
 18 45  1  0
 18 46  1  0
 19 20  1  0
 19 47  1  0
 19 48  1  0
 20 21  1  0
 22  1  1  0
 22 49  1  0
 22 50  1  0
 23 24  1  0
 24 22  1  0
 24 25  2  0
 25 26  1  0
 25 51  1  0
 26 27  2  0
 27 28  1  0
 27 52  1  0
 28 29  2  0
 28 53  1  0
 29 30  1  0
 29 54  1  0
 30 31  1  0
 30 32  2  0
 31 55  1  0
 31 56  1  0
 31 57  1  0
 32 33  1  0
 32 26  1  0
 33 34  2  0
 33 23  1  0
 35 36  1  0
 35 58  1  0
 35 59  1  0
 35 60  1  0
 36 37  2  0
 37 38  1  0
 37 61  1  0
 38 39  2  0
 38 62  1  0
 39 40  1  0
 39 63  1  0
 40 41  2  0
 40 64  1  0
 41 23  1  0
 41 36  1  0
M  END
>  <minimizedAffinity>  (3) 
-8.33365

>  <mol_id>  (3) 
31847

>  <source_index>  (3) 
2

>  <layer>  (3) 
L4

>  <uniprot>  (3) 
O75747

>  <paff>  (3) 
6

>  <smiles>  (3) 
Cc1ccccc1-n1c(Cn2nc(-c3cnn(CCO)c3)c3c(N)ncnc32)cc2cccc(C)c2c1=O

$$$$
L4:O75747:46977
     RDKit          3D

 55 60  0  0  0  0  0  0  0  0999 V2000
  -15.7908   -0.8912    2.2535 N   0  0  0  0  0  0  0  0  0  0  0  0
  -15.5855   -1.2257    3.5488 N   0  0  0  0  0  0  0  0  0  0  0  0
  -14.6740   -0.3364    3.9808 C   0  0  0  0  0  0  0  0  0  0  0  0
  -14.2953    0.5661    2.9421 C   0  0  0  0  0  0  0  0  0  0  0  0
  -13.4586    1.6754    2.7635 C   0  0  0  0  0  0  0  0  0  0  0  0
  -12.7130    2.2800    3.7686 N   0  0  0  0  0  0  0  0  0  0  0  0
  -13.3686    2.2292    1.5369 N   0  0  0  0  0  0  0  0  0  0  0  0
  -14.0981    1.7025    0.5353 C   0  0  0  0  0  0  0  0  0  0  0  0
  -14.9496    0.6667    0.5930 N   0  0  0  0  0  0  0  0  0  0  0  0
  -15.0083    0.1466    1.8312 C   0  0  0  0  0  0  0  0  0  0  0  0
  -12.4013    3.1943    3.4545 H   0  0  0  0  0  0  0  0  0  0  0  0
  -13.1621    2.2772    4.6768 H   0  0  0  0  0  0  0  0  0  0  0  0
  -14.1991   -0.3971    5.3605 C   0  0  0  0  0  0  0  0  0  0  0  0
  -14.6229    0.5454    6.3092 C   0  0  0  0  0  0  0  0  0  0  0  0
  -14.1584    0.4650    7.6210 C   0  0  0  0  0  0  0  0  0  0  0  0
  -14.5616    1.3568    8.5704 O   0  0  0  0  0  0  0  0  0  0  0  0
  -13.2683   -0.5293    8.0035 C   0  0  0  0  0  0  0  0  0  0  0  0
  -12.8375   -1.4484    7.0560 C   0  0  0  0  0  0  0  0  0  0  0  0
  -11.9741   -2.4080    7.4139 F   0  0  0  0  0  0  0  0  0  0  0  0
  -13.2900   -1.3923    5.7419 C   0  0  0  0  0  0  0  0  0  0  0  0
  -15.1735    1.9961    8.1677 H   0  0  0  0  0  0  0  0  0  0  0  0
  -16.7184   -1.6718    1.4438 C   0  0  0  0  0  0  0  0  0  0  0  0
  -16.6859   -8.3904    2.3759 C   0  0  0  0  0  0  0  0  0  0  0  0
  -15.6456   -7.3358    2.1092 C   0  0  0  0  0  0  0  0  0  0  0  0
  -14.3029   -7.7457    2.0183 C   0  0  0  0  0  0  0  0  0  0  0  0
  -13.2875   -6.8256    1.7707 C   0  0  0  0  0  0  0  0  0  0  0  0
  -13.5976   -5.4793    1.6094 C   0  0  0  0  0  0  0  0  0  0  0  0
  -14.9270   -5.0454    1.6947 C   0  0  0  0  0  0  0  0  0  0  0  0
  -15.2253   -3.6278    1.5382 C   0  0  0  0  0  0  0  0  0  0  0  0
  -16.4883   -3.1681    1.5746 C   0  0  0  0  0  0  0  0  0  0  0  0
  -17.5538   -4.0600    1.7407 N   0  0  0  0  0  0  0  0  0  0  0  0
  -17.3537   -5.4301    2.0314 C   0  0  0  0  0  0  0  0  0  0  0  0
  -18.2774   -6.1803    2.3438 O   0  0  0  0  0  0  0  0  0  0  0  0
  -15.9560   -5.9640    1.9486 C   0  0  0  0  0  0  0  0  0  0  0  0
  -18.9172   -3.5548    1.7509 C   0  0  0  0  0  0  0  0  0  0  0  0
  -19.9815   -4.1302    2.6608 C   0  0  0  0  0  0  0  0  0  0  0  0
  -19.4693   -2.7532    2.9115 C   0  0  0  0  0  0  0  0  0  0  0  0
  -13.9893    2.1493   -0.3886 H   0  0  0  0  0  0  0  0  0  0  0  0
  -15.2766    1.2960    6.0367 H   0  0  0  0  0  0  0  0  0  0  0  0
  -12.9318   -0.5845    8.9775 H   0  0  0  0  0  0  0  0  0  0  0  0
  -12.9570   -2.0818    5.0500 H   0  0  0  0  0  0  0  0  0  0  0  0
  -17.7173   -1.4497    1.7563 H   0  0  0  0  0  0  0  0  0  0  0  0
  -16.5583   -1.4066    0.4196 H   0  0  0  0  0  0  0  0  0  0  0  0
  -16.2119   -9.3461    2.4589 H   0  0  0  0  0  0  0  0  0  0  0  0
  -17.3890   -8.4098    1.5695 H   0  0  0  0  0  0  0  0  0  0  0  0
  -17.1964   -8.1650    3.2888 H   0  0  0  0  0  0  0  0  0  0  0  0
  -14.0669   -8.7433    2.1369 H   0  0  0  0  0  0  0  0  0  0  0  0
  -12.3072   -7.1418    1.7070 H   0  0  0  0  0  0  0  0  0  0  0  0
  -12.8452   -4.7971    1.4261 H   0  0  0  0  0  0  0  0  0  0  0  0
  -14.4499   -2.9618    1.3963 H   0  0  0  0  0  0  0  0  0  0  0  0
  -18.8166   -3.4011    0.6968 H   0  0  0  0  0  0  0  0  0  0  0  0
  -19.7346   -4.9225    3.3362 H   0  0  0  0  0  0  0  0  0  0  0  0
  -20.9507   -4.5578    2.5103 H   0  0  0  0  0  0  0  0  0  0  0  0
  -18.8555   -2.5595    3.7662 H   0  0  0  0  0  0  0  0  0  0  0  0
  -19.9202   -1.7883    3.0144 H   0  0  0  0  0  0  0  0  0  0  0  0
  1  2  1  0
  2  3  2  0
  3 13  1  0
  3  4  1  0
  4  5  2  0
  5  6  1  0
  5  7  1  0
  6 11  1  0
  6 12  1  0
  7  8  2  0
  8  9  1  0
  8 38  1  0
  9 10  2  0
 10  1  1  0
 10  4  1  0
 13 14  2  0
 14 15  1  0
 14 39  1  0
 15 16  1  0
 15 17  2  0
 16 21  1  0
 17 18  1  0
 17 40  1  0
 18 19  1  0
 18 20  2  0
 20 13  1  0
 20 41  1  0
 22  1  1  0
 22 42  1  0
 22 43  1  0
 23 24  1  0
 23 44  1  0
 23 45  1  0
 23 46  1  0
 24 25  2  0
 25 26  1  0
 25 47  1  0
 26 27  2  0
 26 48  1  0
 27 28  1  0
 27 49  1  0
 28 29  1  0
 29 30  2  0
 29 50  1  0
 30 22  1  0
 30 31  1  0
 31 35  1  0
 31 32  1  0
 32 33  2  0
 32 34  1  0
 34 24  1  0
 34 28  2  0
 35 36  1  0
 35 51  1  0
 36 37  1  0
 36 52  1  0
 36 53  1  0
 37 35  1  0
 37 54  1  0
 37 55  1  0
M  END
>  <minimizedAffinity>  (4) 
-9.90476

>  <mol_id>  (4) 
46977

>  <source_index>  (4) 
3

>  <layer>  (4) 
L4

>  <uniprot>  (4) 
O75747

>  <paff>  (4) 
7

>  <smiles>  (4) 
Cc1cccc2cc(Cn3nc(-c4cc(O)cc(F)c4)c4c(N)ncnc43)n(C3CC3)c(=O)c12

$$$$
L4:O75747:51496
     RDKit          3D

 60 65  0  0  0  0  0  0  0  0999 V2000
  -15.9244   -1.3704    1.8419 N   0  0  0  0  0  0  0  0  0  0  0  0
  -15.6813   -1.6331    3.1470 N   0  0  0  0  0  0  0  0  0  0  0  0
  -14.9017   -0.6115    3.5430 C   0  0  0  0  0  0  0  0  0  0  0  0
  -14.6061    0.2759    2.4662 C   0  0  0  0  0  0  0  0  0  0  0  0
  -13.8490    1.4296    2.2255 C   0  0  0  0  0  0  0  0  0  0  0  0
  -13.0506    2.0701    3.1561 N   0  0  0  0  0  0  0  0  0  0  0  0
  -13.8706    1.9688    0.9875 N   0  0  0  0  0  0  0  0  0  0  0  0
  -14.6012    1.3657    0.0301 C   0  0  0  0  0  0  0  0  0  0  0  0
  -15.3456    0.2559    0.1393 N   0  0  0  0  0  0  0  0  0  0  0  0
  -15.2998   -0.2435    1.3858 C   0  0  0  0  0  0  0  0  0  0  0  0
  -13.2748    1.9587    4.1318 H   0  0  0  0  0  0  0  0  0  0  0  0
  -12.7820    2.9971    2.8486 H   0  0  0  0  0  0  0  0  0  0  0  0
  -14.4737   -0.5262    4.9331 C   0  0  0  0  0  0  0  0  0  0  0  0
  -14.9581    0.5026    5.7545 C   0  0  0  0  0  0  0  0  0  0  0  0
  -14.5453    0.5985    7.0874 C   0  0  0  0  0  0  0  0  0  0  0  0
  -13.6423   -0.3312    7.5979 C   0  0  0  0  0  0  0  0  0  0  0  0
  -13.1351   -0.2130    9.2414 Cl  0  0  0  0  0  0  0  0  0  0  0  0
  -13.1509   -1.3489    6.7770 C   0  0  0  0  0  0  0  0  0  0  0  0
  -12.2621   -2.2820    7.2328 O   0  0  0  0  0  0  0  0  0  0  0  0
  -13.5547   -1.4479    5.4484 C   0  0  0  0  0  0  0  0  0  0  0  0
  -12.0572   -2.0552    8.1598 H   0  0  0  0  0  0  0  0  0  0  0  0
  -16.7778   -2.2598    1.0548 C   0  0  0  0  0  0  0  0  0  0  0  0
  -17.5047   -4.6511    1.5369 N   0  0  0  0  0  0  0  0  0  0  0  0
  -16.4688   -3.7271    1.3265 C   0  0  0  0  0  0  0  0  0  0  0  0
  -15.1837   -4.1121    1.4151 C   0  0  0  0  0  0  0  0  0  0  0  0
  -14.8228   -5.4761    1.7709 C   0  0  0  0  0  0  0  0  0  0  0  0
  -13.4684   -5.8108    1.9046 C   0  0  0  0  0  0  0  0  0  0  0  0
  -13.0979   -7.1027    2.2615 C   0  0  0  0  0  0  0  0  0  0  0  0
  -14.0784   -8.0654    2.4909 C   0  0  0  0  0  0  0  0  0  0  0  0
  -15.4452   -7.7535    2.3670 C   0  0  0  0  0  0  0  0  0  0  0  0
  -16.4412   -8.8531    2.6310 C   0  0  0  0  0  0  0  0  0  0  0  0
  -15.8181   -6.4383    1.9946 C   0  0  0  0  0  0  0  0  0  0  0  0
  -17.2457   -6.0177    1.8061 C   0  0  0  0  0  0  0  0  0  0  0  0
  -18.1255   -6.8775    1.8635 O   0  0  0  0  0  0  0  0  0  0  0  0
  -19.3523   -3.7481    3.7159 C   0  0  0  0  0  0  0  0  0  0  0  0
  -19.7564   -3.9288    2.2816 C   0  0  0  0  0  0  0  0  0  0  0  0
  -21.0907   -3.6787    1.9298 C   0  0  0  0  0  0  0  0  0  0  0  0
  -21.4949   -3.7761    0.6053 C   0  0  0  0  0  0  0  0  0  0  0  0
  -20.5459   -4.1132   -0.3376 C   0  0  0  0  0  0  0  0  0  0  0  0
  -19.2537   -4.3681   -0.0448 N   0  0  0  0  0  0  0  0  0  0  0  0
  -18.8728   -4.3170    1.2623 C   0  0  0  0  0  0  0  0  0  0  0  0
  -14.5862    1.8119   -0.9003 H   0  0  0  0  0  0  0  0  0  0  0  0
  -15.6233    1.1931    5.3729 H   0  0  0  0  0  0  0  0  0  0  0  0
  -14.9078    1.3541    7.6896 H   0  0  0  0  0  0  0  0  0  0  0  0
  -13.1785   -2.1970    4.8464 H   0  0  0  0  0  0  0  0  0  0  0  0
  -17.8006   -2.0692    1.3048 H   0  0  0  0  0  0  0  0  0  0  0  0
  -16.5929   -2.0672    0.0186 H   0  0  0  0  0  0  0  0  0  0  0  0
  -14.4369   -3.4252    1.2266 H   0  0  0  0  0  0  0  0  0  0  0  0
  -12.7433   -5.0957    1.7375 H   0  0  0  0  0  0  0  0  0  0  0  0
  -12.0998   -7.3475    2.3561 H   0  0  0  0  0  0  0  0  0  0  0  0
  -13.7980   -9.0226    2.7559 H   0  0  0  0  0  0  0  0  0  0  0  0
  -15.9207   -9.7500    2.8946 H   0  0  0  0  0  0  0  0  0  0  0  0
  -17.0245   -9.0249    1.7506 H   0  0  0  0  0  0  0  0  0  0  0  0
  -17.0855   -8.5652    3.4352 H   0  0  0  0  0  0  0  0  0  0  0  0
  -20.2038   -3.4506    4.2916 H   0  0  0  0  0  0  0  0  0  0  0  0
  -18.5964   -2.9936    3.7811 H   0  0  0  0  0  0  0  0  0  0  0  0
  -18.9687   -4.6712    4.0974 H   0  0  0  0  0  0  0  0  0  0  0  0
  -21.7748   -3.4213    2.6584 H   0  0  0  0  0  0  0  0  0  0  0  0
  -22.4753   -3.6017    0.3343 H   0  0  0  0  0  0  0  0  0  0  0  0
  -20.8416   -4.1739   -1.3245 H   0  0  0  0  0  0  0  0  0  0  0  0
  1  2  1  0
  2  3  2  0
  3 13  1  0
  3  4  1  0
  4  5  2  0
  5  6  1  0
  5  7  1  0
  6 11  1  0
  6 12  1  0
  7  8  2  0
  8  9  1  0
  8 42  1  0
  9 10  2  0
 10  1  1  0
 10  4  1  0
 13 14  2  0
 14 15  1  0
 14 43  1  0
 15 16  2  0
 15 44  1  0
 16 17  1  0
 16 18  1  0
 18 19  1  0
 18 20  2  0
 19 21  1  0
 20 13  1  0
 20 45  1  0
 22  1  1  0
 22 46  1  0
 22 47  1  0
 23 24  1  0
 24 22  1  0
 24 25  2  0
 25 26  1  0
 25 48  1  0
 26 27  2  0
 27 28  1  0
 27 49  1  0
 28 29  2  0
 28 50  1  0
 29 30  1  0
 29 51  1  0
 30 31  1  0
 30 32  2  0
 31 52  1  0
 31 53  1  0
 31 54  1  0
 32 33  1  0
 32 26  1  0
 33 34  2  0
 33 23  1  0
 35 36  1  0
 35 55  1  0
 35 56  1  0
 35 57  1  0
 36 37  2  0
 37 38  1  0
 37 58  1  0
 38 39  2  0
 38 59  1  0
 39 40  1  0
 39 60  1  0
 40 41  2  0
 41 23  1  0
 41 36  1  0
M  END
>  <minimizedAffinity>  (5) 
-9.71034

>  <mol_id>  (5) 
51496

>  <source_index>  (5) 
4

>  <layer>  (5) 
L4

>  <uniprot>  (5) 
O75747

>  <paff>  (5) 
7

>  <smiles>  (5) 
Cc1cccnc1-n1c(Cn2nc(-c3ccc(Cl)c(O)c3)c3c(N)ncnc32)cc2cccc(C)c2c1=O

$$$$
L4:O75747:79072
     RDKit          3D

 61 66  0  0  0  0  0  0  0  0999 V2000
  -15.6203   -0.9517    2.3948 N   0  0  0  0  0  0  0  0  0  0  0  0
  -15.3059   -1.3565    3.6448 N   0  0  0  0  0  0  0  0  0  0  0  0
  -14.4687   -0.4056    4.0947 C   0  0  0  0  0  0  0  0  0  0  0  0
  -14.1511    0.5391    3.0732 C   0  0  0  0  0  0  0  0  0  0  0  0
  -13.3277    1.6568    2.8866 C   0  0  0  0  0  0  0  0  0  0  0  0
  -12.4475    2.1647    3.8200 N   0  0  0  0  0  0  0  0  0  0  0  0
  -13.3661    2.2924    1.6965 N   0  0  0  0  0  0  0  0  0  0  0  0
  -14.1721    1.8143    0.7303 C   0  0  0  0  0  0  0  0  0  0  0  0
  -14.9822    0.7460    0.7847 N   0  0  0  0  0  0  0  0  0  0  0  0
  -14.9238    0.1532    1.9903 C   0  0  0  0  0  0  0  0  0  0  0  0
  -12.1234    3.0968    3.5932 H   0  0  0  0  0  0  0  0  0  0  0  0
  -12.5712    1.9338    4.7910 H   0  0  0  0  0  0  0  0  0  0  0  0
  -14.0151   -0.4370    5.4793 C   0  0  0  0  0  0  0  0  0  0  0  0
  -14.5340    0.4718    6.4135 C   0  0  0  0  0  0  0  0  0  0  0  0
  -14.0958    0.4389    7.7355 C   0  0  0  0  0  0  0  0  0  0  0  0
  -14.6135    1.3625    8.5940 O   0  0  0  0  0  0  0  0  0  0  0  0
  -13.1631   -0.5014    8.1536 C   0  0  0  0  0  0  0  0  0  0  0  0
  -12.6747   -1.4180    7.2271 C   0  0  0  0  0  0  0  0  0  0  0  0
  -11.7833   -2.3364    7.6240 F   0  0  0  0  0  0  0  0  0  0  0  0
  -13.0899   -1.3987    5.8989 C   0  0  0  0  0  0  0  0  0  0  0  0
  -14.2887    1.1797    9.4925 H   0  0  0  0  0  0  0  0  0  0  0  0
  -16.5753   -1.7032    1.5912 C   0  0  0  0  0  0  0  0  0  0  0  0
  -16.6896   -8.4558    2.3668 C   0  0  0  0  0  0  0  0  0  0  0  0
  -15.6336   -7.4103    2.1252 C   0  0  0  0  0  0  0  0  0  0  0  0
  -14.2989   -7.8418    2.0092 C   0  0  0  0  0  0  0  0  0  0  0  0
  -13.2691   -6.9326    1.7833 C   0  0  0  0  0  0  0  0  0  0  0  0
  -13.5579   -5.5766    1.6726 C   0  0  0  0  0  0  0  0  0  0  0  0
  -14.8797   -5.1226    1.7864 C   0  0  0  0  0  0  0  0  0  0  0  0
  -15.1561   -3.7000    1.6624 C   0  0  0  0  0  0  0  0  0  0  0  0
  -16.4060   -3.2092    1.7338 C   0  0  0  0  0  0  0  0  0  0  0  0
  -17.4912   -4.0732    1.9706 N   0  0  0  0  0  0  0  0  0  0  0  0
  -17.3089   -5.4722    2.1238 C   0  0  0  0  0  0  0  0  0  0  0  0
  -18.2443   -6.2363    2.3536 O   0  0  0  0  0  0  0  0  0  0  0  0
  -15.9232   -6.0285    2.0118 C   0  0  0  0  0  0  0  0  0  0  0  0
  -18.8783   -3.5671    2.0552 C   0  0  0  0  0  0  0  0  0  0  0  0
  -19.5053   -3.6262    3.4658 C   0  0  0  0  0  0  0  0  0  0  0  0
  -20.8508   -4.3260    3.2964 C   0  0  0  0  0  0  0  0  0  0  0  0
  -21.2075   -4.1175    1.8325 C   0  0  0  0  0  0  0  0  0  0  0  0
  -19.8718   -4.2804    1.1230 C   0  0  0  0  0  0  0  0  0  0  0  0
  -14.1663    2.3330   -0.1618 H   0  0  0  0  0  0  0  0  0  0  0  0
  -15.2406    1.1649    6.1214 H   0  0  0  0  0  0  0  0  0  0  0  0
  -12.8383   -0.5201    9.1330 H   0  0  0  0  0  0  0  0  0  0  0  0
  -12.7178   -2.0891    5.2282 H   0  0  0  0  0  0  0  0  0  0  0  0
  -17.5652   -1.4392    1.9000 H   0  0  0  0  0  0  0  0  0  0  0  0
  -16.4013   -1.4540    0.5653 H   0  0  0  0  0  0  0  0  0  0  0  0
  -16.2311   -9.4214    2.4148 H   0  0  0  0  0  0  0  0  0  0  0  0
  -17.3995   -8.4374    1.5664 H   0  0  0  0  0  0  0  0  0  0  0  0
  -17.1887   -8.2517    3.2910 H   0  0  0  0  0  0  0  0  0  0  0  0
  -14.0804   -8.8469    2.0928 H   0  0  0  0  0  0  0  0  0  0  0  0
  -12.2953   -7.2635    1.6983 H   0  0  0  0  0  0  0  0  0  0  0  0
  -12.7956   -4.9012    1.5059 H   0  0  0  0  0  0  0  0  0  0  0  0
  -14.3698   -3.0480    1.5153 H   0  0  0  0  0  0  0  0  0  0  0  0
  -18.7409   -2.5495    1.7542 H   0  0  0  0  0  0  0  0  0  0  0  0
  -19.6456   -2.6384    3.8524 H   0  0  0  0  0  0  0  0  0  0  0  0
  -18.8747   -4.1487    4.1545 H   0  0  0  0  0  0  0  0  0  0  0  0
  -21.5894   -3.8843    3.9322 H   0  0  0  0  0  0  0  0  0  0  0  0
  -20.8065   -5.3619    3.5606 H   0  0  0  0  0  0  0  0  0  0  0  0
  -21.6109   -3.1396    1.6713 H   0  0  0  0  0  0  0  0  0  0  0  0
  -21.9549   -4.7980    1.4816 H   0  0  0  0  0  0  0  0  0  0  0  0
  -19.8920   -3.8163    0.1591 H   0  0  0  0  0  0  0  0  0  0  0  0
  -19.6160   -5.3045    0.9479 H   0  0  0  0  0  0  0  0  0  0  0  0
  1  2  1  0
  2  3  2  0
  3 13  1  0
  3  4  1  0
  4  5  2  0
  5  6  1  0
  5  7  1  0
  6 11  1  0
  6 12  1  0
  7  8  2  0
  8  9  1  0
  8 40  1  0
  9 10  2  0
 10  1  1  0
 10  4  1  0
 13 14  2  0
 14 15  1  0
 14 41  1  0
 15 16  1  0
 15 17  2  0
 16 21  1  0
 17 18  1  0
 17 42  1  0
 18 19  1  0
 18 20  2  0
 20 13  1  0
 20 43  1  0
 22  1  1  0
 22 44  1  0
 22 45  1  0
 23 24  1  0
 23 46  1  0
 23 47  1  0
 23 48  1  0
 24 25  2  0
 25 26  1  0
 25 49  1  0
 26 27  2  0
 26 50  1  0
 27 28  1  0
 27 51  1  0
 28 29  1  0
 29 30  2  0
 29 52  1  0
 30 22  1  0
 30 31  1  0
 31 35  1  0
 31 32  1  0
 32 33  2  0
 32 34  1  0
 34 24  1  0
 34 28  2  0
 35 36  1  0
 35 53  1  0
 36 37  1  0
 36 54  1  0
 36 55  1  0
 37 38  1  0
 37 56  1  0
 37 57  1  0
 38 39  1  0
 38 58  1  0
 38 59  1  0
 39 35  1  0
 39 60  1  0
 39 61  1  0
M  END
>  <minimizedAffinity>  (6) 
-10.31406

>  <mol_id>  (6) 
79072

>  <source_index>  (6) 
5

>  <layer>  (6) 
L4

>  <uniprot>  (6) 
O75747

>  <paff>  (6) 
7

>  <smiles>  (6) 
Cc1cccc2cc(Cn3nc(-c4cc(O)cc(F)c4)c4c(N)ncnc43)n(C3CCCC3)c(=O)c12

$$$$
L4:O75747:83896
     RDKit          3D

 54 58  0  0  0  0  0  0  0  0999 V2000
  -17.9183   -1.1191    1.8980 C   0  0  1  0  0  0  0  0  0  0  0  0
  -18.9956   -1.5859    2.8931 C   0  0  0  0  0  0  0  0  0  0  0  0
  -12.2869    2.3379    3.5706 C   0  0  0  0  0  0  0  0  0  0  0  0
  -12.9548    1.0808    4.0548 C   0  0  0  0  0  0  0  0  0  0  0  0
  -12.3494    0.3868    5.1160 C   0  0  0  0  0  0  0  0  0  0  0  0
  -12.9131   -0.7792    5.6212 C   0  0  0  0  0  0  0  0  0  0  0  0
  -14.1081   -1.2609    5.0926 C   0  0  0  0  0  0  0  0  0  0  0  0
  -14.7374   -0.5784    4.0417 C   0  0  0  0  0  0  0  0  0  0  0  0
  -15.9998   -1.0889    3.5215 C   0  0  0  0  0  0  0  0  0  0  0  0
  -16.6151   -0.5193    2.4657 C   0  0  0  0  0  0  0  0  0  0  0  0
  -16.0484    0.6350    1.8622 N   0  0  0  0  0  0  0  0  0  0  0  0
  -14.8798    1.2550    2.3712 C   0  0  0  0  0  0  0  0  0  0  0  0
  -14.4607    2.3394    1.9414 O   0  0  0  0  0  0  0  0  0  0  0  0
  -14.1640    0.5834    3.5091 C   0  0  0  0  0  0  0  0  0  0  0  0
  -16.6713    1.3216    0.7736 C   0  0  0  0  0  0  0  0  0  0  0  0
  -17.6735    2.2713    1.0386 C   0  0  0  0  0  0  0  0  0  0  0  0
  -18.2716    2.9625   -0.0140 C   0  0  0  0  0  0  0  0  0  0  0  0
  -17.8971    2.6912   -1.3305 C   0  0  0  0  0  0  0  0  0  0  0  0
  -16.9202    1.7232   -1.5998 C   0  0  0  0  0  0  0  0  0  0  0  0
  -16.3094    1.0405   -0.5470 C   0  0  0  0  0  0  0  0  0  0  0  0
  -17.6567   -2.1667    0.8978 N   0  0  0  0  0  0  0  0  0  0  0  0
  -17.0991   -1.8061    0.1297 H   0  0  0  0  0  0  0  0  0  0  0  0
  -17.2247   -3.4306    1.2867 C   0  0  0  0  0  0  0  0  0  0  0  0
  -18.0651   -4.2689    1.9464 N   0  0  0  0  0  0  0  0  0  0  0  0
  -17.6301   -5.4853    2.3242 C   0  0  0  0  0  0  0  0  0  0  0  0
  -16.4201   -6.0256    2.1169 N   0  0  0  0  0  0  0  0  0  0  0  0
  -15.6266   -5.1843    1.4433 C   0  0  0  0  0  0  0  0  0  0  0  0
  -14.3392   -5.4212    1.0708 N   0  0  0  0  0  0  0  0  0  0  0  0
  -13.7773   -4.4145    0.3850 N   0  0  0  0  0  0  0  0  0  0  0  0
  -14.7586   -3.4879    0.2912 C   0  0  0  0  0  0  0  0  0  0  0  0
  -15.9368   -3.9167    0.9888 C   0  0  0  0  0  0  0  0  0  0  0  0
  -13.7918   -6.2576    1.2629 H   0  0  0  0  0  0  0  0  0  0  0  0
  -14.5539   -2.2458   -0.4788 C   0  0  0  0  0  0  0  0  0  0  0  0
  -15.2612   -2.1341   -1.6483 N   0  0  0  0  0  0  0  0  0  0  0  0
  -13.7890   -1.3379   -0.1634 O   0  0  0  0  0  0  0  0  0  0  0  0
  -15.7684   -2.9076   -2.0710 H   0  0  0  0  0  0  0  0  0  0  0  0
  -15.0353   -1.3303   -2.2258 H   0  0  0  0  0  0  0  0  0  0  0  0
  -18.3606   -0.2600    1.4385 H   0  0  0  0  0  0  0  0  0  0  0  0
  -18.6483   -2.4539    3.4136 H   0  0  0  0  0  0  0  0  0  0  0  0
  -19.8930   -1.8242    2.3614 H   0  0  0  0  0  0  0  0  0  0  0  0
  -19.1945   -0.8042    3.5961 H   0  0  0  0  0  0  0  0  0  0  0  0
  -11.3927    2.5063    4.1336 H   0  0  0  0  0  0  0  0  0  0  0  0
  -12.9510    3.1670    3.6995 H   0  0  0  0  0  0  0  0  0  0  0  0
  -12.0417    2.2350    2.5342 H   0  0  0  0  0  0  0  0  0  0  0  0
  -11.4739    0.7478    5.5262 H   0  0  0  0  0  0  0  0  0  0  0  0
  -12.4460   -1.2879    6.3880 H   0  0  0  0  0  0  0  0  0  0  0  0
  -14.5310   -2.1212    5.4748 H   0  0  0  0  0  0  0  0  0  0  0  0
  -16.4343   -1.9085    3.9736 H   0  0  0  0  0  0  0  0  0  0  0  0
  -17.9659    2.4565    2.0108 H   0  0  0  0  0  0  0  0  0  0  0  0
  -18.9919    3.6754    0.1806 H   0  0  0  0  0  0  0  0  0  0  0  0
  -18.3407    3.2048   -2.1080 H   0  0  0  0  0  0  0  0  0  0  0  0
  -16.6530    1.5156   -2.5748 H   0  0  0  0  0  0  0  0  0  0  0  0
  -15.5898    0.3274   -0.7436 H   0  0  0  0  0  0  0  0  0  0  0  0
  -18.3085   -6.0723    2.8343 H   0  0  0  0  0  0  0  0  0  0  0  0
  1  2  1  0
  1 21  1  0
  1 38  1  6
  2 39  1  0
  2 40  1  0
  2 41  1  0
  3  4  1  0
  3 42  1  0
  3 43  1  0
  3 44  1  0
  4  5  2  0
  5  6  1  0
  5 45  1  0
  6  7  2  0
  6 46  1  0
  7  8  1  0
  7 47  1  0
  8  9  1  0
  9 10  2  0
  9 48  1  0
 10  1  1  0
 10 11  1  0
 11 15  1  0
 11 12  1  0
 12 13  2  0
 12 14  1  0
 14  4  1  0
 14  8  2  0
 15 16  2  0
 16 17  1  0
 16 49  1  0
 17 18  2  0
 17 50  1  0
 18 19  1  0
 18 51  1  0
 19 20  2  0
 19 52  1  0
 20 15  1  0
 20 53  1  0
 21 23  1  0
 21 22  1  0
 23 24  2  0
 24 25  1  0
 25 26  2  0
 25 54  1  0
 26 27  1  0
 27 28  1  0
 28 29  1  0
 28 32  1  0
 29 30  2  0
 30 33  1  0
 30 31  1  0
 31 23  1  0
 31 27  2  0
 33 34  1  0
 33 35  2  0
 34 36  1  0
 34 37  1  0
M  END
>  <minimizedAffinity>  (7) 
-7.90709

>  <mol_id>  (7) 
83896

>  <source_index>  (7) 
6

>  <layer>  (7) 
L4

>  <uniprot>  (7) 
O75747

>  <paff>  (7) 
7

>  <smiles>  (7) 
Cc1cccc2cc([C@H](C)Nc3ncnc4[nH]nc(C(N)=O)c34)n(-c3ccccc3)c(=O)c12

$$$$
L4:O75747:119464
     RDKit          3D

 64 70  0  0  0  0  0  0  0  0999 V2000
  -16.2514   -3.7366    0.9886 N   0  0  0  0  0  0  0  0  0  0  0  0
  -15.8561   -4.6436    1.9161 N   0  0  0  0  0  0  0  0  0  0  0  0
  -15.2873   -5.6204    1.1890 C   0  0  0  0  0  0  0  0  0  0  0  0
  -15.3394   -5.3412   -0.2055 C   0  0  0  0  0  0  0  0  0  0  0  0
  -14.9233   -5.9231   -1.4091 C   0  0  0  0  0  0  0  0  0  0  0  0
  -14.1988   -7.0954   -1.5090 N   0  0  0  0  0  0  0  0  0  0  0  0
  -15.2362   -5.3023   -2.5671 N   0  0  0  0  0  0  0  0  0  0  0  0
  -15.9161   -4.1406   -2.5134 C   0  0  0  0  0  0  0  0  0  0  0  0
  -16.3460   -3.4873   -1.4237 N   0  0  0  0  0  0  0  0  0  0  0  0
  -16.0107   -4.1349   -0.2966 C   0  0  0  0  0  0  0  0  0  0  0  0
  -14.2104   -7.7351   -0.7284 H   0  0  0  0  0  0  0  0  0  0  0  0
  -14.2045   -7.4846   -2.4431 H   0  0  0  0  0  0  0  0  0  0  0  0
  -14.7348   -6.7983    1.8406 C   0  0  0  0  0  0  0  0  0  0  0  0
  -13.3771   -6.8312    2.1799 C   0  0  0  0  0  0  0  0  0  0  0  0
  -12.8282   -7.9445    2.8300 C   0  0  0  0  0  0  0  0  0  0  0  0
  -13.6576   -9.0397    3.1399 C   0  0  0  0  0  0  0  0  0  0  0  0
  -13.4423  -10.2936    3.7754 C   0  0  0  0  0  0  0  0  0  0  0  0
  -14.6438  -10.9662    3.7944 C   0  0  0  0  0  0  0  0  0  0  0  0
  -15.5813  -10.1696    3.1911 N   0  0  0  0  0  0  0  0  0  0  0  0
  -15.0060   -8.9868    2.7825 C   0  0  0  0  0  0  0  0  0  0  0  0
  -15.5735   -7.8860    2.1278 C   0  0  0  0  0  0  0  0  0  0  0  0
  -16.5560  -10.4093    3.0615 H   0  0  0  0  0  0  0  0  0  0  0  0
  -16.9175   -2.5086    1.4101 C   0  0  0  0  0  0  0  0  0  0  0  0
  -15.5718   -0.3497    1.5370 N   0  0  0  0  0  0  0  0  0  0  0  0
  -15.9722   -1.5557    2.1282 C   0  0  0  0  0  0  0  0  0  0  0  0
  -15.5040   -1.9034    3.3396 C   0  0  0  0  0  0  0  0  0  0  0  0
  -14.5369   -1.0770    4.0476 C   0  0  0  0  0  0  0  0  0  0  0  0
  -14.0664   -1.4984    5.2986 C   0  0  0  0  0  0  0  0  0  0  0  0
  -13.1293   -0.7377    5.9889 C   0  0  0  0  0  0  0  0  0  0  0  0
  -12.6575    0.4486    5.4336 C   0  0  0  0  0  0  0  0  0  0  0  0
  -13.1130    0.8934    4.1783 C   0  0  0  0  0  0  0  0  0  0  0  0
  -12.5563    2.1883    3.6493 C   0  0  0  0  0  0  0  0  0  0  0  0
  -14.0643    0.1134    3.4765 C   0  0  0  0  0  0  0  0  0  0  0  0
  -14.6105    0.5054    2.1348 C   0  0  0  0  0  0  0  0  0  0  0  0
  -14.2290    1.5528    1.6131 O   0  0  0  0  0  0  0  0  0  0  0  0
  -17.9823    1.3710    1.4736 C   0  0  0  0  0  0  0  0  0  0  0  0
  -17.2694    0.9026    0.2350 C   0  0  0  0  0  0  0  0  0  0  0  0
  -17.7678    1.2823   -1.0226 C   0  0  0  0  0  0  0  0  0  0  0  0
  -17.1057    0.9146   -2.1962 C   0  0  0  0  0  0  0  0  0  0  0  0
  -15.9343    0.1640   -2.1311 C   0  0  0  0  0  0  0  0  0  0  0  0
  -15.4350   -0.2379   -0.8923 C   0  0  0  0  0  0  0  0  0  0  0  0
  -16.1090    0.1028    0.2899 C   0  0  0  0  0  0  0  0  0  0  0  0
  -16.1325   -3.6997   -3.4210 H   0  0  0  0  0  0  0  0  0  0  0  0
  -12.7737   -6.0265    1.9487 H   0  0  0  0  0  0  0  0  0  0  0  0
  -11.8269   -7.9617    3.0791 H   0  0  0  0  0  0  0  0  0  0  0  0
  -12.5462  -10.6378    4.1544 H   0  0  0  0  0  0  0  0  0  0  0  0
  -14.8088  -11.9039    4.1924 H   0  0  0  0  0  0  0  0  0  0  0  0
  -16.5718   -7.8754    1.8663 H   0  0  0  0  0  0  0  0  0  0  0  0
  -17.3109   -2.0163    0.5454 H   0  0  0  0  0  0  0  0  0  0  0  0
  -17.6948   -2.7764    2.0949 H   0  0  0  0  0  0  0  0  0  0  0  0
  -15.8378   -2.7762    3.7776 H   0  0  0  0  0  0  0  0  0  0  0  0
  -14.4172   -2.3777    5.7095 H   0  0  0  0  0  0  0  0  0  0  0  0
  -12.7847   -1.0514    6.9097 H   0  0  0  0  0  0  0  0  0  0  0  0
  -11.9631    1.0105    5.9504 H   0  0  0  0  0  0  0  0  0  0  0  0
  -11.8587    2.5909    4.3538 H   0  0  0  0  0  0  0  0  0  0  0  0
  -13.3545    2.8850    3.4998 H   0  0  0  0  0  0  0  0  0  0  0  0
  -12.0600    2.0093    2.7184 H   0  0  0  0  0  0  0  0  0  0  0  0
  -18.8310    1.9602    1.1954 H   0  0  0  0  0  0  0  0  0  0  0  0
  -17.3162    1.9626    2.0663 H   0  0  0  0  0  0  0  0  0  0  0  0
  -18.3069    0.5235    2.0404 H   0  0  0  0  0  0  0  0  0  0  0  0
  -18.6342    1.8400   -1.0799 H   0  0  0  0  0  0  0  0  0  0  0  0
  -17.4850    1.1995   -3.1127 H   0  0  0  0  0  0  0  0  0  0  0  0
  -15.4368   -0.0943   -2.9976 H   0  0  0  0  0  0  0  0  0  0  0  0
  -14.5641   -0.7895   -0.8451 H   0  0  0  0  0  0  0  0  0  0  0  0
  1  2  1  0
  2  3  2  0
  3 13  1  0
  3  4  1  0
  4  5  2  0
  5  6  1  0
  5  7  1  0
  6 11  1  0
  6 12  1  0
  7  8  2  0
  8  9  1  0
  8 43  1  0
  9 10  2  0
 10  1  1  0
 10  4  1  0
 13 14  2  0
 14 15  1  0
 14 44  1  0
 15 16  2  0
 15 45  1  0
 16 17  1  0
 17 18  2  0
 17 46  1  0
 18 19  1  0
 18 47  1  0
 19 20  1  0
 19 22  1  0
 20 21  2  0
 20 16  1  0
 21 13  1  0
 21 48  1  0
 23  1  1  0
 23 49  1  0
 23 50  1  0
 24 25  1  0
 25 23  1  0
 25 26  2  0
 26 27  1  0
 26 51  1  0
 27 28  2  0
 28 29  1  0
 28 52  1  0
 29 30  2  0
 29 53  1  0
 30 31  1  0
 30 54  1  0
 31 32  1  0
 31 33  2  0
 32 55  1  0
 32 56  1  0
 32 57  1  0
 33 34  1  0
 33 27  1  0
 34 35  2  0
 34 24  1  0
 36 37  1  0
 36 58  1  0
 36 59  1  0
 36 60  1  0
 37 38  2  0
 38 39  1  0
 38 61  1  0
 39 40  2  0
 39 62  1  0
 40 41  1  0
 40 63  1  0
 41 42  2  0
 41 64  1  0
 42 24  1  0
 42 37  1  0
M  END
>  <minimizedAffinity>  (8) 
-9.89723

>  <mol_id>  (8) 
119464

>  <source_index>  (8) 
7

>  <layer>  (8) 
L4

>  <uniprot>  (8) 
O75747

>  <paff>  (8) 
7

>  <smiles>  (8) 
Cc1ccccc1-n1c(Cn2nc(-c3ccc4cc[nH]c4c3)c3c(N)ncnc32)cc2cccc(C)c2c1=O

$$$$
L4:O75747:124841
     RDKit          3D

 47 51  0  0  0  0  0  0  0  0999 V2000
  -16.7676   -0.6031    2.3539 C   0  0  0  0  0  0  0  0  0  0  0  0
  -16.1696   -1.2163    3.3921 C   0  0  0  0  0  0  0  0  0  0  0  0
  -14.9518   -0.6980    3.9931 C   0  0  0  0  0  0  0  0  0  0  0  0
  -14.3956   -1.3776    5.0880 C   0  0  0  0  0  0  0  0  0  0  0  0
  -13.2128   -0.9313    5.6653 C   0  0  0  0  0  0  0  0  0  0  0  0
  -12.5798    0.1923    5.1452 C   0  0  0  0  0  0  0  0  0  0  0  0
  -13.1254    0.8807    4.0500 C   0  0  0  0  0  0  0  0  0  0  0  0
  -12.2083    2.2496    3.5209 Cl  0  0  0  0  0  0  0  0  0  0  0  0
  -14.3272    0.4393    3.4636 C   0  0  0  0  0  0  0  0  0  0  0  0
  -14.9968    1.1266    2.3155 C   0  0  0  0  0  0  0  0  0  0  0  0
  -14.4918    2.1502    1.8587 O   0  0  0  0  0  0  0  0  0  0  0  0
  -16.2228    0.5842    1.8285 N   0  0  0  0  0  0  0  0  0  0  0  0
  -16.8877    1.3533    0.8100 C   0  0  0  0  0  0  0  0  0  0  0  0
  -16.5630    1.1788   -0.5419 C   0  0  0  0  0  0  0  0  0  0  0  0
  -17.2142    1.9201   -1.5306 C   0  0  0  0  0  0  0  0  0  0  0  0
  -18.1881    2.8517   -1.1772 C   0  0  0  0  0  0  0  0  0  0  0  0
  -18.5048    3.0511    0.1647 C   0  0  0  0  0  0  0  0  0  0  0  0
  -17.8543    2.3098    1.1542 C   0  0  0  0  0  0  0  0  0  0  0  0
  -19.2106   -1.2232    2.5801 C   0  0  0  0  0  0  0  0  0  0  0  0
  -17.9740   -1.2926    1.6737 C   0  0  2  0  0  0  0  0  0  0  0  0
  -17.5979   -2.6934    1.4219 N   0  0  0  0  0  0  0  0  0  0  0  0
  -17.1169   -3.1307    2.2042 H   0  0  0  0  0  0  0  0  0  0  0  0
  -16.8828   -2.9496    0.2464 C   0  0  0  0  0  0  0  0  0  0  0  0
  -17.2788   -2.4307   -0.9352 N   0  0  0  0  0  0  0  0  0  0  0  0
  -16.5707   -2.7106   -2.0400 C   0  0  0  0  0  0  0  0  0  0  0  0
  -15.4742   -3.4665   -2.1363 N   0  0  0  0  0  0  0  0  0  0  0  0
  -15.0688   -3.9930   -0.9562 C   0  0  0  0  0  0  0  0  0  0  0  0
  -13.9295   -4.8335   -0.7841 C   0  0  0  0  0  0  0  0  0  0  0  0
  -13.7546   -5.2212    0.5245 C   0  0  0  0  0  0  0  0  0  0  0  0
  -14.9602   -4.5741    1.5479 S   0  0  0  0  0  0  0  0  0  0  0  0
  -15.7382   -3.7617    0.2408 C   0  0  0  0  0  0  0  0  0  0  0  0
  -16.5879   -2.0796    3.7726 H   0  0  0  0  0  0  0  0  0  0  0  0
  -14.8677   -2.2136    5.4666 H   0  0  0  0  0  0  0  0  0  0  0  0
  -12.8077   -1.4296    6.4732 H   0  0  0  0  0  0  0  0  0  0  0  0
  -11.6992    0.5238    5.5690 H   0  0  0  0  0  0  0  0  0  0  0  0
  -15.8363    0.4966   -0.8094 H   0  0  0  0  0  0  0  0  0  0  0  0
  -16.9737    1.7776   -2.5240 H   0  0  0  0  0  0  0  0  0  0  0  0
  -18.6743    3.3934   -1.9087 H   0  0  0  0  0  0  0  0  0  0  0  0
  -19.2202    3.7467    0.4279 H   0  0  0  0  0  0  0  0  0  0  0  0
  -18.0870    2.4673    2.1472 H   0  0  0  0  0  0  0  0  0  0  0  0
  -20.0350   -1.7037    2.0960 H   0  0  0  0  0  0  0  0  0  0  0  0
  -19.4562   -0.1993    2.7705 H   0  0  0  0  0  0  0  0  0  0  0  0
  -19.0026   -1.7182    3.5057 H   0  0  0  0  0  0  0  0  0  0  0  0
  -18.2192   -0.8005    0.7558 H   0  0  0  0  0  0  0  0  0  0  0  0
  -16.9140   -2.2924   -2.9188 H   0  0  0  0  0  0  0  0  0  0  0  0
  -13.3058   -5.1191   -1.5551 H   0  0  0  0  0  0  0  0  0  0  0  0
  -12.9871   -5.8300    0.8490 H   0  0  0  0  0  0  0  0  0  0  0  0
  1  2  2  0
  2  3  1  0
  2 32  1  0
  3  4  2  0
  4  5  1  0
  4 33  1  0
  5  6  2  0
  5 34  1  0
  6  7  1  0
  6 35  1  0
  7  8  1  0
  7  9  2  0
  9 10  1  0
  9  3  1  0
 10 11  2  0
 10 12  1  0
 12 13  1  0
 12  1  1  0
 13 14  2  0
 14 15  1  0
 14 36  1  0
 15 16  2  0
 15 37  1  0
 16 17  1  0
 16 38  1  0
 17 18  2  0
 17 39  1  0
 18 13  1  0
 18 40  1  0
 19 20  1  0
 19 41  1  0
 19 42  1  0
 19 43  1  0
 20 21  1  0
 20  1  1  0
 20 44  1  6
 21 23  1  0
 21 22  1  0
 23 24  2  0
 24 25  1  0
 25 26  2  0
 25 45  1  0
 26 27  1  0
 27 28  1  0
 28 29  2  0
 28 46  1  0
 29 30  1  0
 29 47  1  0
 30 31  1  0
 31 23  1  0
 31 27  2  0
M  END
>  <minimizedAffinity>  (9) 
-7.35980

>  <mol_id>  (9) 
124841

>  <source_index>  (9) 
8

>  <layer>  (9) 
L4

>  <uniprot>  (9) 
O75747

>  <paff>  (9) 
7

>  <smiles>  (9) 
C[C@H](Nc1ncnc2ccsc12)c1cc2cccc(Cl)c2c(=O)n1-c1ccccc1

$$$$
L4:O75747:143865
     RDKit          3D

 47 51  0  0  0  0  0  0  0  0999 V2000
  -16.2499   -1.1903    2.0734 C   0  0  0  0  0  0  0  0  0  0  0  0
  -15.7340   -1.6541    3.2262 C   0  0  0  0  0  0  0  0  0  0  0  0
  -14.6428   -0.9879    3.9189 C   0  0  0  0  0  0  0  0  0  0  0  0
  -14.1688   -1.5366    5.1213 C   0  0  0  0  0  0  0  0  0  0  0  0
  -13.1589   -0.9027    5.8350 C   0  0  0  0  0  0  0  0  0  0  0  0
  -12.6255    0.2870    5.3520 C   0  0  0  0  0  0  0  0  0  0  0  0
  -13.0910    0.8458    4.1509 C   0  0  0  0  0  0  0  0  0  0  0  0
  -12.3328    2.3348    3.6993 Cl  0  0  0  0  0  0  0  0  0  0  0  0
  -14.1071    0.2034    3.4177 C   0  0  0  0  0  0  0  0  0  0  0  0
  -14.6328    0.6970    2.1099 C   0  0  0  0  0  0  0  0  0  0  0  0
  -14.1295    1.7020    1.6100 O   0  0  0  0  0  0  0  0  0  0  0  0
  -15.6641   -0.0523    1.4690 N   0  0  0  0  0  0  0  0  0  0  0  0
  -15.9930    0.3756    0.1353 C   0  0  0  0  0  0  0  0  0  0  0  0
  -16.9733    1.3546   -0.0774 C   0  0  0  0  0  0  0  0  0  0  0  0
  -17.2930    1.7700   -1.3720 C   0  0  0  0  0  0  0  0  0  0  0  0
  -16.6249    1.2226   -2.4655 C   0  0  0  0  0  0  0  0  0  0  0  0
  -15.6281    0.2697   -2.2656 C   0  0  0  0  0  0  0  0  0  0  0  0
  -15.3086   -0.1467   -0.9710 C   0  0  0  0  0  0  0  0  0  0  0  0
  -17.5091   -1.8409    1.4439 C   0  0  2  0  0  0  0  0  0  0  0  0
  -18.8169   -1.5023    2.1750 C   0  0  0  0  0  0  0  0  0  0  0  0
  -17.3564   -3.2909    1.2157 N   0  0  0  0  0  0  0  0  0  0  0  0
  -17.2687   -3.8247    2.0803 H   0  0  0  0  0  0  0  0  0  0  0  0
  -13.5028   -6.5766    2.3980 H   0  0  0  0  0  0  0  0  0  0  0  0
  -14.0445   -5.9898    1.6672 C   0  0  0  0  0  0  0  0  0  0  0  0
  -15.0806   -5.2156    1.9155 N   0  0  0  0  0  0  0  0  0  0  0  0
  -15.4254   -4.6860    0.6862 C   0  0  0  0  0  0  0  0  0  0  0  0
  -16.4386   -3.7896    0.2913 C   0  0  0  0  0  0  0  0  0  0  0  0
  -16.5003   -3.4605   -1.0260 N   0  0  0  0  0  0  0  0  0  0  0  0
  -15.5963   -3.9928   -1.8792 C   0  0  0  0  0  0  0  0  0  0  0  0
  -14.5928   -4.8506   -1.6068 N   0  0  0  0  0  0  0  0  0  0  0  0
  -14.5746   -5.1488   -0.3009 C   0  0  0  0  0  0  0  0  0  0  0  0
  -13.7040   -5.9801    0.3411 N   0  0  0  0  0  0  0  0  0  0  0  0
  -12.9498   -6.4864   -0.0977 H   0  0  0  0  0  0  0  0  0  0  0  0
  -16.1280   -2.5161    3.6346 H   0  0  0  0  0  0  0  0  0  0  0  0
  -14.5732   -2.4167    5.4775 H   0  0  0  0  0  0  0  0  0  0  0  0
  -12.8081   -1.3112    6.7154 H   0  0  0  0  0  0  0  0  0  0  0  0
  -11.8796    0.7644    5.8819 H   0  0  0  0  0  0  0  0  0  0  0  0
  -17.4630    1.7720    0.7294 H   0  0  0  0  0  0  0  0  0  0  0  0
  -18.0246    2.4829   -1.5188 H   0  0  0  0  0  0  0  0  0  0  0  0
  -16.8681    1.5227   -3.4225 H   0  0  0  0  0  0  0  0  0  0  0  0
  -15.1257   -0.1286   -3.0743 H   0  0  0  0  0  0  0  0  0  0  0  0
  -14.5622   -0.8449   -0.8278 H   0  0  0  0  0  0  0  0  0  0  0  0
  -17.5940   -1.3863    0.4790 H   0  0  0  0  0  0  0  0  0  0  0  0
  -18.7985   -1.9304    3.1555 H   0  0  0  0  0  0  0  0  0  0  0  0
  -19.6452   -1.9008    1.6273 H   0  0  0  0  0  0  0  0  0  0  0  0
  -18.9180   -0.4398    2.2515 H   0  0  0  0  0  0  0  0  0  0  0  0
  -15.6863   -3.7052   -2.8662 H   0  0  0  0  0  0  0  0  0  0  0  0
  1  2  2  0
  2  3  1  0
  2 34  1  0
  3  4  2  0
  4  5  1  0
  4 35  1  0
  5  6  2  0
  5 36  1  0
  6  7  1  0
  6 37  1  0
  7  8  1  0
  7  9  2  0
  9 10  1  0
  9  3  1  0
 10 11  2  0
 10 12  1  0
 12 13  1  0
 12  1  1  0
 13 14  2  0
 14 15  1  0
 14 38  1  0
 15 16  2  0
 15 39  1  0
 16 17  1  0
 16 40  1  0
 17 18  2  0
 17 41  1  0
 18 13  1  0
 18 42  1  0
 19 20  1  0
 19  1  1  0
 19 43  1  6
 20 44  1  0
 20 45  1  0
 20 46  1  0
 21 19  1  0
 21 22  1  0
 23 24  1  0
 24 25  2  0
 25 26  1  0
 26 27  2  0
 27 21  1  0
 27 28  1  0
 28 29  2  0
 29 30  1  0
 29 47  1  0
 30 31  2  0
 31 32  1  0
 31 26  1  0
 32 24  1  0
 32 33  1  0
M  ISO  1  23   2
M  END
>  <minimizedAffinity>  (10) 
-7.24095

>  <mol_id>  (10) 
143865

>  <source_index>  (10) 
9

>  <layer>  (10) 
L4

>  <uniprot>  (10) 
O75747

>  <paff>  (10) 
7

>  <smiles>  (10) 
[2H]c1nc2c(N[C@@H](C)c3cc4cccc(Cl)c4c(=O)n3-c3ccccc3)ncnc2[nH]1

$$$$
