L2:Q13224:1856
     RDKit          3D

 58 61  0  0  0  0  0  0  0  0999 V2000
   21.3602   -4.4743  -32.8742 C   0  0  1  0  0  0  0  0  0  0  0  0
   22.5631   -5.2296  -32.6804 O   0  0  0  0  0  0  0  0  0  0  0  0
   23.3182   -4.6362  -32.8383 H   0  0  0  0  0  0  0  0  0  0  0  0
   21.4639   -3.0600  -32.2399 C   0  0  0  0  0  0  0  0  0  0  0  0
   18.6852   -1.9635  -29.1093 N   0  0  0  0  0  0  0  0  0  0  0  0
   19.1008   -3.3756  -29.2117 C   0  0  0  0  0  0  0  0  0  0  0  0
   19.7011   -3.6911  -30.6037 C   0  0  0  0  0  0  0  0  0  0  0  0
   20.8659   -2.8543  -30.9141 N   0  0  0  0  0  0  0  0  0  0  0  0
   20.6480   -1.4393  -30.5572 C   0  0  0  0  0  0  0  0  0  0  0  0
   19.2029   -1.0568  -30.1448 C   0  0  0  0  0  0  0  0  0  0  0  0
   14.2296   -0.5617  -25.7678 C   0  0  0  0  0  0  0  0  0  0  0  0
   15.4061   -0.9373  -26.6171 C   0  0  0  0  0  0  0  0  0  0  0  0
   16.5104   -0.0921  -26.7214 C   0  0  0  0  0  0  0  0  0  0  0  0
   17.5954   -0.4342  -27.5415 C   0  0  0  0  0  0  0  0  0  0  0  0
   17.6135   -1.6147  -28.3000 C   0  0  0  0  0  0  0  0  0  0  0  0
   16.4871   -2.4452  -28.1822 C   0  0  0  0  0  0  0  0  0  0  0  0
   15.3983   -2.1152  -27.3637 C   0  0  0  0  0  0  0  0  0  0  0  0
   21.0937   -4.3880  -34.3870 C   0  0  0  0  0  0  0  0  0  0  0  0
   19.9631   -5.1887  -34.7265 O   0  0  0  0  0  0  0  0  0  0  0  0
   18.8537   -5.0673  -33.9361 C   0  0  0  0  0  0  0  0  0  0  0  0
   18.2269   -6.1009  -33.2369 C   0  0  0  0  0  0  0  0  0  0  0  0
   17.0875   -5.8408  -32.4674 C   0  0  0  0  0  0  0  0  0  0  0  0
   16.5870   -4.5430  -32.3841 C   0  0  0  0  0  0  0  0  0  0  0  0
   17.2037   -3.4987  -33.0778 C   0  0  0  0  0  0  0  0  0  0  0  0
   18.3351   -3.7704  -33.8565 C   0  0  0  0  0  0  0  0  0  0  0  0
   16.5749   -2.1335  -33.0641 C   0  0  0  0  0  0  0  0  0  0  0  0
   15.8544   -1.8733  -31.7512 C   0  0  0  0  0  0  0  0  0  0  0  0
   14.9685   -3.0316  -31.3505 C   0  0  0  0  0  0  0  0  0  0  0  0
   13.9211   -2.8743  -30.7266 O   0  0  0  0  0  0  0  0  0  0  0  0
   15.4442   -4.2872  -31.6221 N   0  0  0  0  0  0  0  0  0  0  0  0
   14.9099   -5.0528  -31.2313 H   0  0  0  0  0  0  0  0  0  0  0  0
   20.5444   -4.9638  -32.3845 H   0  0  0  0  0  0  0  0  0  0  0  0
   22.5041   -2.8223  -32.1603 H   0  0  0  0  0  0  0  0  0  0  0  0
   20.8930   -2.4319  -32.8914 H   0  0  0  0  0  0  0  0  0  0  0  0
   18.2480   -4.0015  -29.0509 H   0  0  0  0  0  0  0  0  0  0  0  0
   19.8526   -3.5587  -28.4726 H   0  0  0  0  0  0  0  0  0  0  0  0
   18.9502   -3.5241  -31.3475 H   0  0  0  0  0  0  0  0  0  0  0  0
   20.0253   -4.7108  -30.5953 H   0  0  0  0  0  0  0  0  0  0  0  0
   20.9152   -0.8431  -31.4046 H   0  0  0  0  0  0  0  0  0  0  0  0
   21.2510   -1.2643  -29.6908 H   0  0  0  0  0  0  0  0  0  0  0  0
   18.5688   -1.1118  -31.0049 H   0  0  0  0  0  0  0  0  0  0  0  0
   19.2167   -0.0633  -29.7477 H   0  0  0  0  0  0  0  0  0  0  0  0
   14.4265    0.3685  -25.2771 H   0  0  0  0  0  0  0  0  0  0  0  0
   14.0612   -1.3229  -25.0350 H   0  0  0  0  0  0  0  0  0  0  0  0
   13.3613   -0.4625  -26.3851 H   0  0  0  0  0  0  0  0  0  0  0  0
   16.5294    0.7927  -26.1906 H   0  0  0  0  0  0  0  0  0  0  0  0
   18.4063    0.2024  -27.5887 H   0  0  0  0  0  0  0  0  0  0  0  0
   16.4602   -3.3279  -28.7161 H   0  0  0  0  0  0  0  0  0  0  0  0
   14.5850   -2.7484  -27.3131 H   0  0  0  0  0  0  0  0  0  0  0  0
   21.9518   -4.7417  -34.9193 H   0  0  0  0  0  0  0  0  0  0  0  0
   20.8977   -3.3703  -34.6530 H   0  0  0  0  0  0  0  0  0  0  0  0
   18.6052   -7.0597  -33.2879 H   0  0  0  0  0  0  0  0  0  0  0  0
   16.6186   -6.6089  -31.9623 H   0  0  0  0  0  0  0  0  0  0  0  0
   18.7916   -3.0055  -34.3776 H   0  0  0  0  0  0  0  0  0  0  0  0
   15.8717   -2.0651  -33.8677 H   0  0  0  0  0  0  0  0  0  0  0  0
   17.3486   -1.4030  -33.1766 H   0  0  0  0  0  0  0  0  0  0  0  0
   15.2499   -0.9968  -31.8570 H   0  0  0  0  0  0  0  0  0  0  0  0
   16.5940   -1.7444  -30.9888 H   0  0  0  0  0  0  0  0  0  0  0  0
  1  2  1  0
  1 18  1  0
  1 32  1  1
  2  3  1  0
  4  1  1  0
  4 33  1  0
  4 34  1  0
  5  6  1  0
  6  7  1  0
  6 35  1  0
  6 36  1  0
  7  8  1  0
  7 37  1  0
  7 38  1  0
  8  4  1  0
  8  9  1  0
  9 10  1  0
  9 39  1  0
  9 40  1  0
 10  5  1  0
 10 41  1  0
 10 42  1  0
 11 12  1  0
 11 43  1  0
 11 44  1  0
 11 45  1  0
 12 13  2  0
 13 14  1  0
 13 46  1  0
 14 15  2  0
 14 47  1  0
 15  5  1  0
 15 16  1  0
 16 17  2  0
 16 48  1  0
 17 12  1  0
 17 49  1  0
 18 19  1  0
 18 50  1  0
 18 51  1  0
 19 20  1  0
 20 21  2  0
 21 22  1  0
 21 52  1  0
 22 23  2  0
 22 53  1  0
 23 24  1  0
 24 25  2  0
 24 26  1  0
 25 20  1  0
 25 54  1  0
 26 27  1  0
 26 55  1  0
 26 56  1  0
 27 28  1  0
 27 57  1  0
 27 58  1  0
 28 29  2  0
 28 30  1  0
 30 23  1  0
 30 31  1  0
M  END
>  <minimizedAffinity>  (1) 
-5.58225

>  <mol_id>  (1) 
1856

>  <source_index>  (1) 
0

>  <layer>  (1) 
L2

>  <uniprot>  (1) 
Q13224

>  <paff>  (1) 
6.9546999999999999

>  <smiles>  (1) 
Cc1ccc(N2CCN(C[C@H](O)COc3ccc4c(c3)CCC(=O)N4)CC2)cc1

$$$$
L2:Q13224:6980
     RDKit          3D

 54 57  0  0  0  0  0  0  0  0999 V2000
   17.9881   -4.6489  -33.1096 N   0  0  0  0  0  0  0  0  0  0  0  0
   17.9841   -3.3670  -33.8518 C   0  0  0  0  0  0  0  0  0  0  0  0
   17.3148   -2.2277  -33.0631 C   0  0  0  0  0  0  0  0  0  0  0  0
   18.2375   -1.6562  -31.9728 C   0  0  0  0  0  0  0  0  0  0  0  0
   18.1548   -2.3819  -30.5931 C   0  0  2  0  0  0  0  0  0  0  0  0
   17.9669   -3.9217  -30.7454 C   0  0  0  0  0  0  0  0  0  0  0  0
   18.7963   -4.5616  -31.8712 C   0  0  0  0  0  0  0  0  0  0  0  0
   16.9435   -1.8228  -29.7579 C   0  0  0  0  0  0  0  0  0  0  0  0
   17.2631   -1.8766  -28.2549 C   0  0  1  0  0  0  0  0  0  0  0  0
   18.5443   -1.0705  -27.9496 C   0  0  0  0  0  0  0  0  0  0  0  0
   19.4674   -1.0022  -29.1764 C   0  0  0  0  0  0  0  0  0  0  0  0
   19.4066   -2.2045  -29.9209 O   0  0  0  0  0  0  0  0  0  0  0  0
   16.0878   -1.4142  -27.4120 C   0  0  0  0  0  0  0  0  0  0  0  0
   14.7799   -1.8053  -27.7538 C   0  0  0  0  0  0  0  0  0  0  0  0
   13.6902   -1.3826  -26.9863 C   0  0  0  0  0  0  0  0  0  0  0  0
   13.8925   -0.5671  -25.8709 C   0  0  0  0  0  0  0  0  0  0  0  0
   15.1854   -0.1727  -25.5197 C   0  0  0  0  0  0  0  0  0  0  0  0
   16.2787   -0.5921  -26.2835 C   0  0  0  0  0  0  0  0  0  0  0  0
   18.4841   -5.7417  -33.9771 C   0  0  0  0  0  0  0  0  0  0  0  0
   15.5726   -6.6883  -37.0156 C   0  0  0  0  0  0  0  0  0  0  0  0
   15.2052   -6.6912  -35.6672 C   0  0  0  0  0  0  0  0  0  0  0  0
   16.1506   -6.3883  -34.6827 C   0  0  0  0  0  0  0  0  0  0  0  0
   17.4732   -6.0805  -35.0425 C   0  0  0  0  0  0  0  0  0  0  0  0
   17.8351   -6.0783  -36.4003 C   0  0  0  0  0  0  0  0  0  0  0  0
   16.8862   -6.3818  -37.3817 C   0  0  0  0  0  0  0  0  0  0  0  0
   17.4538   -3.5050  -34.7709 H   0  0  0  0  0  0  0  0  0  0  0  0
   19.0030   -3.0881  -34.0216 H   0  0  0  0  0  0  0  0  0  0  0  0
   16.4266   -2.6043  -32.6004 H   0  0  0  0  0  0  0  0  0  0  0  0
   17.0910   -1.4391  -33.7508 H   0  0  0  0  0  0  0  0  0  0  0  0
   17.9787   -0.6287  -31.8237 H   0  0  0  0  0  0  0  0  0  0  0  0
   19.2385   -1.7948  -32.3246 H   0  0  0  0  0  0  0  0  0  0  0  0
   16.9329   -4.1135  -30.9428 H   0  0  0  0  0  0  0  0  0  0  0  0
   18.3090   -4.3600  -29.8312 H   0  0  0  0  0  0  0  0  0  0  0  0
   19.0973   -5.5446  -31.5746 H   0  0  0  0  0  0  0  0  0  0  0  0
   19.6600   -3.9581  -32.0575 H   0  0  0  0  0  0  0  0  0  0  0  0
   16.0747   -2.4153  -29.9557 H   0  0  0  0  0  0  0  0  0  0  0  0
   16.7652   -0.8062  -30.0401 H   0  0  0  0  0  0  0  0  0  0  0  0
   17.4434   -2.8972  -27.9887 H   0  0  0  0  0  0  0  0  0  0  0  0
   19.0688   -1.5415  -27.1447 H   0  0  0  0  0  0  0  0  0  0  0  0
   18.2606   -0.0734  -27.6848 H   0  0  0  0  0  0  0  0  0  0  0  0
   20.4737   -0.8430  -28.8494 H   0  0  0  0  0  0  0  0  0  0  0  0
   19.1461   -0.1957  -29.8019 H   0  0  0  0  0  0  0  0  0  0  0  0
   14.6239   -2.4083  -28.5767 H   0  0  0  0  0  0  0  0  0  0  0  0
   12.7345   -1.6739  -27.2447 H   0  0  0  0  0  0  0  0  0  0  0  0
   13.0867   -0.2559  -25.3062 H   0  0  0  0  0  0  0  0  0  0  0  0
   15.3340    0.4294  -24.6949 H   0  0  0  0  0  0  0  0  0  0  0  0
   17.2318   -0.2977  -26.0191 H   0  0  0  0  0  0  0  0  0  0  0  0
   19.3957   -5.4324  -34.4442 H   0  0  0  0  0  0  0  0  0  0  0  0
   18.6504   -6.6097  -33.3739 H   0  0  0  0  0  0  0  0  0  0  0  0
   14.8738   -6.9125  -37.7412 H   0  0  0  0  0  0  0  0  0  0  0  0
   14.2349   -6.9172  -35.3979 H   0  0  0  0  0  0  0  0  0  0  0  0
   15.8758   -6.3908  -33.6880 H   0  0  0  0  0  0  0  0  0  0  0  0
   18.8041   -5.8520  -36.6741 H   0  0  0  0  0  0  0  0  0  0  0  0
   17.1563   -6.3795  -38.3777 H   0  0  0  0  0  0  0  0  0  0  0  0
  1  2  1  0
  2  3  1  0
  2 26  1  0
  2 27  1  0
  3  4  1  0
  3 28  1  0
  3 29  1  0
  4  5  1  0
  4 30  1  0
  4 31  1  0
  5  6  1  0
  5  8  1  0
  5 12  1  1
  6  7  1  0
  6 32  1  0
  6 33  1  0
  7  1  1  0
  7 34  1  0
  7 35  1  0
  8  9  1  0
  8 36  1  0
  8 37  1  0
  9 13  1  0
  9 10  1  0
  9 38  1  1
 10 11  1  0
 10 39  1  0
 10 40  1  0
 11 12  1  0
 11 41  1  0
 11 42  1  0
 13 14  2  0
 14 15  1  0
 14 43  1  0
 15 16  2  0
 15 44  1  0
 16 17  1  0
 16 45  1  0
 17 18  2  0
 17 46  1  0
 18 13  1  0
 18 47  1  0
 19  1  1  0
 19 48  1  0
 19 49  1  0
 20 21  2  0
 20 50  1  0
 21 22  1  0
 21 51  1  0
 22 23  2  0
 22 52  1  0
 23 19  1  0
 23 24  1  0
 24 25  2  0
 24 53  1  0
 25 20  1  0
 25 54  1  0
M  END
>  <minimizedAffinity>  (2) 
-5.84976

>  <mol_id>  (2) 
6980

>  <source_index>  (2) 
1

>  <layer>  (2) 
L2

>  <uniprot>  (2) 
Q13224

>  <paff>  (2) 
7.2218

>  <smiles>  (2) 
Cl.c1ccc(CN2CCCC3(CC2)C[C@H](c2ccccc2)CCO3)cc1

$$$$
L2:Q13224:15517
     RDKit          3D

 58 61  0  0  0  0  0  0  0  0999 V2000
   18.6193   -2.8905  -32.9782 N   0  0  0  0  0  0  0  0  0  0  0  0
   18.2669   -4.3057  -32.7782 C   0  0  0  0  0  0  0  0  0  0  0  0
   19.4462   -5.1638  -32.3163 C   0  0  0  0  0  0  0  0  0  0  0  0
   20.6037   -5.1614  -33.3531 C   0  0  0  0  0  0  0  0  0  0  0  0
   20.5325   -3.8688  -34.2048 C   0  0  0  0  0  0  0  0  0  0  0  0
   20.0178   -2.6929  -33.3829 C   0  0  0  0  0  0  0  0  0  0  0  0
   21.9926   -5.2584  -32.6527 C   0  0  0  0  0  0  0  0  0  0  0  0
   22.6067   -6.6714  -32.6285 C   0  0  1  0  0  0  0  0  0  0  0  0
   21.4846   -7.7073  -32.5940 C   0  0  0  0  0  0  0  0  0  0  0  0
   20.5380   -7.5596  -33.7785 C   0  0  0  0  0  0  0  0  0  0  0  0
   20.4657   -6.2342  -34.2974 O   0  0  0  0  0  0  0  0  0  0  0  0
   18.2786   -2.0362  -31.8275 C   0  0  0  0  0  0  0  0  0  0  0  0
   15.9133   -1.5695  -33.5685 O   0  0  0  0  0  0  0  0  0  0  0  0
   15.7560   -1.8818  -32.2472 C   0  0  0  0  0  0  0  0  0  0  0  0
   14.4363   -1.9485  -31.7982 C   0  0  0  0  0  0  0  0  0  0  0  0
   14.1624   -2.3029  -30.4795 C   0  0  0  0  0  0  0  0  0  0  0  0
   15.2106   -2.5923  -29.6115 C   0  0  0  0  0  0  0  0  0  0  0  0
   16.5309   -2.5101  -30.0603 C   0  0  0  0  0  0  0  0  0  0  0  0
   16.8315   -2.1269  -31.3817 C   0  0  0  0  0  0  0  0  0  0  0  0
   16.7394   -1.9637  -33.8874 H   0  0  0  0  0  0  0  0  0  0  0  0
   23.5602   -6.9334  -33.8165 C   0  0  0  0  0  0  0  0  0  0  0  0
   24.3356   -8.2507  -33.6846 C   0  0  0  0  0  0  0  0  0  0  0  0
   25.7739   -8.0115  -33.2943 C   0  0  0  0  0  0  0  0  0  0  0  0
   26.6136   -9.0862  -32.9742 C   0  0  0  0  0  0  0  0  0  0  0  0
   27.9471   -8.8623  -32.6270 C   0  0  0  0  0  0  0  0  0  0  0  0
   28.4537   -7.5642  -32.6012 C   0  0  0  0  0  0  0  0  0  0  0  0
   27.6284   -6.4888  -32.9242 C   0  0  0  0  0  0  0  0  0  0  0  0
   26.2948   -6.7107  -33.2711 C   0  0  0  0  0  0  0  0  0  0  0  0
   17.9028   -4.6991  -33.7043 H   0  0  0  0  0  0  0  0  0  0  0  0
   17.5271   -4.3419  -32.0060 H   0  0  0  0  0  0  0  0  0  0  0  0
   19.1087   -6.1695  -32.1765 H   0  0  0  0  0  0  0  0  0  0  0  0
   19.8186   -4.7520  -31.4016 H   0  0  0  0  0  0  0  0  0  0  0  0
   19.8729   -4.0317  -35.0314 H   0  0  0  0  0  0  0  0  0  0  0  0
   21.5186   -3.6354  -34.5483 H   0  0  0  0  0  0  0  0  0  0  0  0
   20.0872   -1.8012  -33.9703 H   0  0  0  0  0  0  0  0  0  0  0  0
   20.6154   -2.6139  -32.4988 H   0  0  0  0  0  0  0  0  0  0  0  0
   21.8793   -4.9273  -31.6415 H   0  0  0  0  0  0  0  0  0  0  0  0
   22.6613   -4.6491  -33.2240 H   0  0  0  0  0  0  0  0  0  0  0  0
   23.2053   -6.7518  -31.7453 H   0  0  0  0  0  0  0  0  0  0  0  0
   20.9277   -7.5839  -31.6887 H   0  0  0  0  0  0  0  0  0  0  0  0
   21.9292   -8.6793  -32.6442 H   0  0  0  0  0  0  0  0  0  0  0  0
   19.5578   -7.8528  -33.4652 H   0  0  0  0  0  0  0  0  0  0  0  0
   20.9212   -8.1797  -34.5618 H   0  0  0  0  0  0  0  0  0  0  0  0
   18.9001   -2.3211  -31.0044 H   0  0  0  0  0  0  0  0  0  0  0  0
   18.4368   -1.0258  -32.1420 H   0  0  0  0  0  0  0  0  0  0  0  0
   13.6612   -1.7346  -32.4451 H   0  0  0  0  0  0  0  0  0  0  0  0
   13.1864   -2.3506  -30.1476 H   0  0  0  0  0  0  0  0  0  0  0  0
   15.0128   -2.8675  -28.6367 H   0  0  0  0  0  0  0  0  0  0  0  0
   17.3010   -2.7345  -29.4109 H   0  0  0  0  0  0  0  0  0  0  0  0
   24.2629   -6.1285  -33.8735 H   0  0  0  0  0  0  0  0  0  0  0  0
   22.9595   -7.0030  -34.6993 H   0  0  0  0  0  0  0  0  0  0  0  0
   24.3111   -8.7636  -34.6233 H   0  0  0  0  0  0  0  0  0  0  0  0
   23.8733   -8.8361  -32.9174 H   0  0  0  0  0  0  0  0  0  0  0  0
   26.2441  -10.0495  -32.9952 H   0  0  0  0  0  0  0  0  0  0  0  0
   28.5585   -9.6590  -32.3892 H   0  0  0  0  0  0  0  0  0  0  0  0
   29.4392   -7.3995  -32.3431 H   0  0  0  0  0  0  0  0  0  0  0  0
   28.0036   -5.5276  -32.9069 H   0  0  0  0  0  0  0  0  0  0  0  0
   25.6882   -5.9114  -33.5122 H   0  0  0  0  0  0  0  0  0  0  0  0
  1  2  1  0
  2  3  1  0
  2 29  1  0
  2 30  1  0
  3  4  1  0
  3 31  1  0
  3 32  1  0
  4  5  1  0
  4  7  1  0
  5  6  1  0
  5 33  1  0
  5 34  1  0
  6  1  1  0
  6 35  1  0
  6 36  1  0
  7  8  1  0
  7 37  1  0
  7 38  1  0
  8 21  1  0
  8  9  1  0
  8 39  1  1
  9 10  1  0
  9 40  1  0
  9 41  1  0
 10 11  1  0
 10 42  1  0
 10 43  1  0
 11  4  1  0
 12  1  1  0
 12 44  1  0
 12 45  1  0
 13 14  1  0
 13 20  1  0
 14 15  2  0
 15 16  1  0
 15 46  1  0
 16 17  2  0
 16 47  1  0
 17 18  1  0
 17 48  1  0
 18 19  2  0
 18 49  1  0
 19 12  1  0
 19 14  1  0
 21 22  1  0
 21 50  1  0
 21 51  1  0
 22 23  1  0
 22 52  1  0
 22 53  1  0
 23 24  2  0
 24 25  1  0
 24 54  1  0
 25 26  2  0
 25 55  1  0
 26 27  1  0
 26 56  1  0
 27 28  2  0
 27 57  1  0
 28 23  1  0
 28 58  1  0
M  END
>  <minimizedAffinity>  (3) 
-5.93224

>  <mol_id>  (3) 
15517

>  <source_index>  (3) 
2

>  <layer>  (3) 
L2

>  <uniprot>  (3) 
Q13224

>  <paff>  (3) 
6.5816999999999997

>  <smiles>  (3) 
Oc1ccccc1CN1CCC2(CC1)CC(CCc1ccccc1)CCO2

$$$$
L2:Q13224:23218
     RDKit          3D

 57 61  0  0  0  0  0  0  0  0999 V2000
   19.5054   -3.4375  -33.7713 C   0  0  2  0  0  0  0  0  0  0  0  0
   18.8054   -4.2529  -34.8552 C   0  0  0  0  0  0  0  0  0  0  0  0
   18.4495   -5.6612  -34.3964 C   0  0  0  0  0  0  0  0  0  0  0  0
   19.3317   -6.2204  -33.4266 O   0  0  0  0  0  0  0  0  0  0  0  0
   20.6828   -5.7391  -33.4181 C   0  0  0  0  0  0  0  0  0  0  0  0
   21.4165   -6.0787  -34.7452 C   0  0  0  0  0  0  0  0  0  0  0  0
   22.2770   -7.3379  -34.6241 C   0  0  0  0  0  0  0  0  0  0  0  0
   23.3131   -7.2444  -33.5893 N   0  0  0  0  0  0  0  0  0  0  0  0
   22.8864   -6.4821  -32.4054 C   0  0  0  0  0  0  0  0  0  0  0  0
   21.3697   -6.4769  -32.2429 C   0  0  0  0  0  0  0  0  0  0  0  0
   20.6777   -4.2117  -33.1357 C   0  0  0  0  0  0  0  0  0  0  0  0
   16.5712   -1.9071  -30.9644 C   0  0  0  0  0  0  0  0  0  0  0  0
   16.2842   -1.9721  -32.3251 C   0  0  0  0  0  0  0  0  0  0  0  0
   17.2386   -2.4627  -33.2189 C   0  0  0  0  0  0  0  0  0  0  0  0
   18.4978   -2.8907  -32.7661 C   0  0  0  0  0  0  0  0  0  0  0  0
   18.7663   -2.8253  -31.3906 C   0  0  0  0  0  0  0  0  0  0  0  0
   17.8110   -2.3349  -30.4973 C   0  0  0  0  0  0  0  0  0  0  0  0
   24.5961   -6.7645  -34.1259 C   0  0  0  0  0  0  0  0  0  0  0  0
   25.8004   -7.4533  -33.5178 C   0  0  0  0  0  0  0  0  0  0  0  0
   25.7568   -8.8185  -33.2102 C   0  0  0  0  0  0  0  0  0  0  0  0
   26.8679   -9.4581  -32.6570 C   0  0  0  0  0  0  0  0  0  0  0  0
   28.0501   -8.7477  -32.4011 C   0  0  0  0  0  0  0  0  0  0  0  0
   29.1758   -9.3766  -31.8445 C   0  0  0  0  0  0  0  0  0  0  0  0
   30.3450   -8.6562  -31.5952 C   0  0  0  0  0  0  0  0  0  0  0  0
   30.4036   -7.2993  -31.8987 C   0  0  0  0  0  0  0  0  0  0  0  0
   29.2931   -6.6597  -32.4522 C   0  0  0  0  0  0  0  0  0  0  0  0
   28.1087   -7.3698  -32.7093 C   0  0  0  0  0  0  0  0  0  0  0  0
   26.9820   -6.7396  -33.2656 C   0  0  0  0  0  0  0  0  0  0  0  0
   19.9587   -2.5823  -34.2273 H   0  0  0  0  0  0  0  0  0  0  0  0
   19.4544   -4.3232  -35.7030 H   0  0  0  0  0  0  0  0  0  0  0  0
   17.8913   -3.7516  -35.0959 H   0  0  0  0  0  0  0  0  0  0  0  0
   18.4518   -6.3003  -35.2546 H   0  0  0  0  0  0  0  0  0  0  0  0
   17.4927   -5.5883  -33.9231 H   0  0  0  0  0  0  0  0  0  0  0  0
   22.0460   -5.2554  -35.0113 H   0  0  0  0  0  0  0  0  0  0  0  0
   20.6739   -6.2591  -35.4941 H   0  0  0  0  0  0  0  0  0  0  0  0
   22.7542   -7.5133  -35.5656 H   0  0  0  0  0  0  0  0  0  0  0  0
   21.6244   -8.1379  -34.3431 H   0  0  0  0  0  0  0  0  0  0  0  0
   23.2264   -5.4724  -32.5041 H   0  0  0  0  0  0  0  0  0  0  0  0
   23.3090   -6.9510  -31.5414 H   0  0  0  0  0  0  0  0  0  0  0  0
   21.1186   -5.9840  -31.3270 H   0  0  0  0  0  0  0  0  0  0  0  0
   21.0267   -7.4904  -32.2325 H   0  0  0  0  0  0  0  0  0  0  0  0
   21.5908   -3.8009  -33.5132 H   0  0  0  0  0  0  0  0  0  0  0  0
   20.5699   -4.1028  -32.0767 H   0  0  0  0  0  0  0  0  0  0  0  0
   15.8669   -1.5428  -30.3038 H   0  0  0  0  0  0  0  0  0  0  0  0
   15.3652   -1.6574  -32.6737 H   0  0  0  0  0  0  0  0  0  0  0  0
   17.0159   -2.5115  -34.2254 H   0  0  0  0  0  0  0  0  0  0  0  0
   19.6811   -3.1435  -31.0343 H   0  0  0  0  0  0  0  0  0  0  0  0
   18.0247   -2.2896  -29.4887 H   0  0  0  0  0  0  0  0  0  0  0  0
   24.6728   -5.7149  -33.9327 H   0  0  0  0  0  0  0  0  0  0  0  0
   24.6021   -6.9857  -35.1728 H   0  0  0  0  0  0  0  0  0  0  0  0
   24.8957   -9.3569  -33.3940 H   0  0  0  0  0  0  0  0  0  0  0  0
   26.8188  -10.4645  -32.4339 H   0  0  0  0  0  0  0  0  0  0  0  0
   29.1381  -10.3826  -31.6173 H   0  0  0  0  0  0  0  0  0  0  0  0
   31.1657   -9.1296  -31.1860 H   0  0  0  0  0  0  0  0  0  0  0  0
   31.2678   -6.7661  -31.7146 H   0  0  0  0  0  0  0  0  0  0  0  0
   29.3429   -5.6533  -32.6751 H   0  0  0  0  0  0  0  0  0  0  0  0
   27.0246   -5.7338  -33.4927 H   0  0  0  0  0  0  0  0  0  0  0  0
  1  2  1  0
  1 29  1  6
  2  3  1  0
  2 30  1  0
  2 31  1  0
  3  4  1  0
  3 32  1  0
  3 33  1  0
  4  5  1  0
  5  6  1  0
  5 11  1  0
  6  7  1  0
  6 34  1  0
  6 35  1  0
  7  8  1  0
  7 36  1  0
  7 37  1  0
  8 18  1  0
  8  9  1  0
  9 10  1  0
  9 38  1  0
  9 39  1  0
 10  5  1  0
 10 40  1  0
 10 41  1  0
 11  1  1  0
 11 42  1  0
 11 43  1  0
 12 13  2  0
 12 44  1  0
 13 14  1  0
 13 45  1  0
 14 15  2  0
 14 46  1  0
 15  1  1  0
 15 16  1  0
 16 17  2  0
 16 47  1  0
 17 12  1  0
 17 48  1  0
 18 19  1  0
 18 49  1  0
 18 50  1  0
 19 20  2  0
 20 21  1  0
 20 51  1  0
 21 22  2  0
 21 52  1  0
 22 23  1  0
 23 24  2  0
 23 53  1  0
 24 25  1  0
 24 54  1  0
 25 26  2  0
 25 55  1  0
 26 27  1  0
 26 56  1  0
 27 28  2  0
 27 22  1  0
 28 19  1  0
 28 57  1  0
M  END
>  <minimizedAffinity>  (4) 
-6.46451

>  <mol_id>  (4) 
23218

>  <source_index>  (4) 
3

>  <layer>  (4) 
L2

>  <uniprot>  (4) 
Q13224

>  <paff>  (4) 
6.6073000000000004

>  <smiles>  (4) 
c1ccc(C2CCOC3(CCN(Cc4ccc5ccccc5c4)CC3)C2)cc1

$$$$
L2:Q13224:28425
     RDKit          3D

 60 63  0  0  0  0  0  0  0  0999 V2000
   19.1744   -4.6079  -34.5875 C   0  0  1  0  0  0  0  0  0  0  0  0
   20.6026   -4.0528  -34.5600 C   0  0  0  0  0  0  0  0  0  0  0  0
   20.7814   -2.9877  -33.4896 C   0  0  0  0  0  0  0  0  0  0  0  0
   20.0272   -3.3397  -32.3377 O   0  0  0  0  0  0  0  0  0  0  0  0
   18.5955   -3.2602  -32.5190 C   0  0  0  0  0  0  0  0  0  0  0  0
   17.9922   -4.3000  -31.5463 C   0  0  0  0  0  0  0  0  0  0  0  0
   17.8090   -3.7120  -30.1457 C   0  0  0  0  0  0  0  0  0  0  0  0
   16.9444   -2.5349  -30.1295 N   0  0  0  0  0  0  0  0  0  0  0  0
   16.8128   -1.8361  -31.4018 C   0  0  0  0  0  0  0  0  0  0  0  0
   18.1475   -1.8301  -32.1419 C   0  0  0  0  0  0  0  0  0  0  0  0
   18.1996   -3.6039  -33.9752 C   0  0  0  0  0  0  0  0  0  0  0  0
   18.8474   -4.8461  -35.9710 O   0  0  0  0  0  0  0  0  0  0  0  0
   18.9450   -7.1182  -36.2848 O   0  0  0  0  0  0  0  0  0  0  0  0
   18.3233   -6.0638  -36.2781 C   0  0  0  0  0  0  0  0  0  0  0  0
   16.8416   -5.9536  -36.5966 C   0  0  0  0  0  0  0  0  0  0  0  0
   16.5030   -6.7723  -37.8503 C   0  0  0  0  0  0  0  0  0  0  0  0
   15.0135   -7.0809  -37.9232 C   0  0  0  0  0  0  0  0  0  0  0  0
   14.5396   -7.9111  -36.7280 C   0  0  0  0  0  0  0  0  0  0  0  0
   15.3842   -7.7172  -35.4681 C   0  0  0  0  0  0  0  0  0  0  0  0
   15.9725   -6.3124  -35.3759 C   0  0  0  0  0  0  0  0  0  0  0  0
   15.7101   -2.6516  -29.3478 C   0  0  0  0  0  0  0  0  0  0  0  0
   15.6221   -1.8049  -28.0915 C   0  0  0  0  0  0  0  0  0  0  0  0
   16.7504   -1.1368  -27.5892 C   0  0  0  0  0  0  0  0  0  0  0  0
   16.6548   -0.3376  -26.4469 C   0  0  0  0  0  0  0  0  0  0  0  0
   15.4336   -0.1989  -25.7919 C   0  0  0  0  0  0  0  0  0  0  0  0
   14.3047   -0.8567  -26.2778 C   0  0  0  0  0  0  0  0  0  0  0  0
   14.3974   -1.6529  -27.4210 C   0  0  0  0  0  0  0  0  0  0  0  0
   19.1038   -5.5099  -34.0163 H   0  0  0  0  0  0  0  0  0  0  0  0
   20.8243   -3.6233  -35.5146 H   0  0  0  0  0  0  0  0  0  0  0  0
   21.2662   -4.8613  -34.3346 H   0  0  0  0  0  0  0  0  0  0  0  0
   20.4406   -2.0452  -33.8643 H   0  0  0  0  0  0  0  0  0  0  0  0
   21.8166   -2.9156  -33.2288 H   0  0  0  0  0  0  0  0  0  0  0  0
   18.6482   -5.1432  -31.4870 H   0  0  0  0  0  0  0  0  0  0  0  0
   17.0321   -4.5919  -31.9177 H   0  0  0  0  0  0  0  0  0  0  0  0
   18.7694   -3.4349  -29.7639 H   0  0  0  0  0  0  0  0  0  0  0  0
   17.3405   -4.4615  -29.5427 H   0  0  0  0  0  0  0  0  0  0  0  0
   16.5049   -0.8275  -31.2206 H   0  0  0  0  0  0  0  0  0  0  0  0
   16.0837   -2.3391  -32.0020 H   0  0  0  0  0  0  0  0  0  0  0  0
   18.8914   -1.3878  -31.5127 H   0  0  0  0  0  0  0  0  0  0  0  0
   18.0271   -1.2683  -33.0445 H   0  0  0  0  0  0  0  0  0  0  0  0
   18.2072   -2.7080  -34.5602 H   0  0  0  0  0  0  0  0  0  0  0  0
   17.2225   -4.0399  -33.9679 H   0  0  0  0  0  0  0  0  0  0  0  0
   16.6099   -4.9335  -36.8218 H   0  0  0  0  0  0  0  0  0  0  0  0
   17.0488   -7.6923  -37.8239 H   0  0  0  0  0  0  0  0  0  0  0  0
   16.7717   -6.1977  -38.7120 H   0  0  0  0  0  0  0  0  0  0  0  0
   14.8177   -7.6270  -38.8223 H   0  0  0  0  0  0  0  0  0  0  0  0
   14.4830   -6.1518  -37.9107 H   0  0  0  0  0  0  0  0  0  0  0  0
   14.5734   -8.9452  -37.0009 H   0  0  0  0  0  0  0  0  0  0  0  0
   13.5491   -7.5817  -36.4929 H   0  0  0  0  0  0  0  0  0  0  0  0
   16.1858   -8.4259  -35.4787 H   0  0  0  0  0  0  0  0  0  0  0  0
   14.7464   -7.8613  -34.6211 H   0  0  0  0  0  0  0  0  0  0  0  0
   16.5766   -6.2508  -34.4949 H   0  0  0  0  0  0  0  0  0  0  0  0
   15.1569   -5.6206  -35.3437 H   0  0  0  0  0  0  0  0  0  0  0  0
   15.6047   -3.6761  -29.0575 H   0  0  0  0  0  0  0  0  0  0  0  0
   14.9336   -2.2893  -29.9886 H   0  0  0  0  0  0  0  0  0  0  0  0
   17.6590   -1.2370  -28.0682 H   0  0  0  0  0  0  0  0  0  0  0  0
   17.4903    0.1505  -26.0881 H   0  0  0  0  0  0  0  0  0  0  0  0
   15.3645    0.3904  -24.9475 H   0  0  0  0  0  0  0  0  0  0  0  0
   13.3998   -0.7551  -25.7922 H   0  0  0  0  0  0  0  0  0  0  0  0
   13.5572   -2.1348  -27.7771 H   0  0  0  0  0  0  0  0  0  0  0  0
  1  2  1  0
  1 28  1  1
  2  3  1  0
  2 29  1  0
  2 30  1  0
  3  4  1  0
  3 31  1  0
  3 32  1  0
  4  5  1  0
  5  6  1  0
  5 11  1  0
  6  7  1  0
  6 33  1  0
  6 34  1  0
  7  8  1  0
  7 35  1  0
  7 36  1  0
  8 21  1  0
  8  9  1  0
  9 10  1  0
  9 37  1  0
  9 38  1  0
 10  5  1  0
 10 39  1  0
 10 40  1  0
 11  1  1  0
 11 41  1  0
 11 42  1  0
 12  1  1  0
 13 14  2  0
 14 12  1  0
 14 15  1  0
 15 16  1  0
 15 43  1  0
 16 17  1  0
 16 44  1  0
 16 45  1  0
 17 18  1  0
 17 46  1  0
 17 47  1  0
 18 19  1  0
 18 48  1  0
 18 49  1  0
 19 20  1  0
 19 50  1  0
 19 51  1  0
 20 15  1  0
 20 52  1  0
 20 53  1  0
 21 22  1  0
 21 54  1  0
 21 55  1  0
 22 23  2  0
 23 24  1  0
 23 56  1  0
 24 25  2  0
 24 57  1  0
 25 26  1  0
 25 58  1  0
 26 27  2  0
 26 59  1  0
 27 22  1  0
 27 60  1  0
M  END
>  <minimizedAffinity>  (5) 
-5.74039

>  <mol_id>  (5) 
28425

>  <source_index>  (5) 
4

>  <layer>  (5) 
L2

>  <uniprot>  (5) 
Q13224

>  <paff>  (5) 
6.5452000000000004

>  <smiles>  (5) 
O=C(OC1CCOC2(CCN(Cc3ccccc3)CC2)C1)C1CCCCC1

$$$$
L2:Q13224:63129
     RDKit          3D

 52 55  0  0  0  0  0  0  0  0999 V2000
   17.6473   -2.4936  -30.2785 N   0  0  0  0  0  0  0  0  0  0  0  0
   17.2112   -1.8199  -31.5125 C   0  0  0  0  0  0  0  0  0  0  0  0
   18.2936   -1.8462  -32.5882 C   0  0  0  0  0  0  0  0  0  0  0  0
   18.6080   -3.2911  -33.0472 C   0  0  0  0  0  0  0  0  0  0  0  0
   18.4051   -4.2738  -31.8662 C   0  0  0  0  0  0  0  0  0  0  0  0
   18.6101   -3.5774  -30.5209 C   0  0  0  0  0  0  0  0  0  0  0  0
   17.6998   -3.6666  -34.2412 C   0  0  0  0  0  0  0  0  0  0  0  0
   18.1459   -4.9637  -34.9293 C   0  0  2  0  0  0  0  0  0  0  0  0
   19.6239   -4.8312  -35.3196 C   0  0  0  0  0  0  0  0  0  0  0  0
   20.4697   -4.4340  -34.1214 C   0  0  0  0  0  0  0  0  0  0  0  0
   19.9788   -3.2572  -33.4857 O   0  0  0  0  0  0  0  0  0  0  0  0
   17.2842   -5.2940  -36.1576 C   0  0  2  0  0  0  0  0  0  0  0  0
   16.0632   -6.1537  -35.8632 C   0  0  0  0  0  0  0  0  0  0  0  0
   15.8209   -6.8081  -37.1999 C   0  0  0  0  0  0  0  0  0  0  0  0
   17.2313   -7.0643  -37.6831 C   0  0  0  0  0  0  0  0  0  0  0  0
   18.0608   -6.0412  -37.1142 O   0  0  0  0  0  0  0  0  0  0  0  0
   16.5070   -2.9411  -29.4619 C   0  0  0  0  0  0  0  0  0  0  0  0
   15.5777   -0.2979  -26.1720 C   0  0  0  0  0  0  0  0  0  0  0  0
   14.5795   -1.0969  -26.7270 C   0  0  0  0  0  0  0  0  0  0  0  0
   14.8762   -1.9491  -27.7926 C   0  0  0  0  0  0  0  0  0  0  0  0
   16.1762   -2.0081  -28.3151 C   0  0  0  0  0  0  0  0  0  0  0  0
   17.1724   -1.2011  -27.7450 C   0  0  0  0  0  0  0  0  0  0  0  0
   16.8739   -0.3494  -26.6807 C   0  0  0  0  0  0  0  0  0  0  0  0
   16.9739   -0.8016  -31.2853 H   0  0  0  0  0  0  0  0  0  0  0  0
   16.3558   -2.3403  -31.8899 H   0  0  0  0  0  0  0  0  0  0  0  0
   19.1854   -1.4056  -32.1939 H   0  0  0  0  0  0  0  0  0  0  0  0
   17.9370   -1.2970  -33.4344 H   0  0  0  0  0  0  0  0  0  0  0  0
   19.1091   -5.0747  -31.9547 H   0  0  0  0  0  0  0  0  0  0  0  0
   17.4021   -4.6445  -31.9046 H   0  0  0  0  0  0  0  0  0  0  0  0
   19.5978   -3.1667  -30.4974 H   0  0  0  0  0  0  0  0  0  0  0  0
   18.4624   -4.3115  -29.7566 H   0  0  0  0  0  0  0  0  0  0  0  0
   17.7262   -2.8713  -34.9566 H   0  0  0  0  0  0  0  0  0  0  0  0
   16.7107   -3.8209  -33.8633 H   0  0  0  0  0  0  0  0  0  0  0  0
   18.0194   -5.7753  -34.2436 H   0  0  0  0  0  0  0  0  0  0  0  0
   19.7197   -4.0834  -36.0789 H   0  0  0  0  0  0  0  0  0  0  0  0
   19.9675   -5.7780  -35.6807 H   0  0  0  0  0  0  0  0  0  0  0  0
   21.4721   -4.2559  -34.4505 H   0  0  0  0  0  0  0  0  0  0  0  0
   20.4307   -5.2331  -33.4109 H   0  0  0  0  0  0  0  0  0  0  0  0
   16.9577   -4.3412  -36.5187 H   0  0  0  0  0  0  0  0  0  0  0  0
   15.2278   -5.5555  -35.5646 H   0  0  0  0  0  0  0  0  0  0  0  0
   16.2029   -6.8461  -35.0595 H   0  0  0  0  0  0  0  0  0  0  0  0
   15.2951   -6.1540  -37.8637 H   0  0  0  0  0  0  0  0  0  0  0  0
   15.2159   -7.6890  -37.1463 H   0  0  0  0  0  0  0  0  0  0  0  0
   17.2684   -7.0160  -38.7514 H   0  0  0  0  0  0  0  0  0  0  0  0
   17.5661   -8.0365  -37.3871 H   0  0  0  0  0  0  0  0  0  0  0  0
   15.6474   -3.0168  -30.0946 H   0  0  0  0  0  0  0  0  0  0  0  0
   16.7807   -3.8815  -29.0311 H   0  0  0  0  0  0  0  0  0  0  0  0
   15.3568    0.3316  -25.3846 H   0  0  0  0  0  0  0  0  0  0  0  0
   13.6197   -1.0586  -26.3498 H   0  0  0  0  0  0  0  0  0  0  0  0
   14.1336   -2.5397  -28.1985 H   0  0  0  0  0  0  0  0  0  0  0  0
   18.1346   -1.2378  -28.1162 H   0  0  0  0  0  0  0  0  0  0  0  0
   17.6131    0.2423  -26.2704 H   0  0  0  0  0  0  0  0  0  0  0  0
  1  2  1  0
  2  3  1  0
  2 24  1  0
  2 25  1  0
  3  4  1  0
  3 26  1  0
  3 27  1  0
  4  5  1  0
  4  7  1  0
  5  6  1  0
  5 28  1  0
  5 29  1  0
  6  1  1  0
  6 30  1  0
  6 31  1  0
  7  8  1  0
  7 32  1  0
  7 33  1  0
  8 12  1  0
  8  9  1  0
  8 34  1  1
  9 10  1  0
  9 35  1  0
  9 36  1  0
 10 11  1  0
 10 37  1  0
 10 38  1  0
 11  4  1  0
 12 13  1  0
 12 39  1  6
 13 14  1  0
 13 40  1  0
 13 41  1  0
 14 15  1  0
 14 42  1  0
 14 43  1  0
 15 16  1  0
 15 44  1  0
 15 45  1  0
 16 12  1  0
 17  1  1  0
 17 46  1  0
 17 47  1  0
 18 19  2  0
 18 48  1  0
 19 20  1  0
 19 49  1  0
 20 21  2  0
 20 50  1  0
 21 17  1  0
 21 22  1  0
 22 23  2  0
 22 51  1  0
 23 18  1  0
 23 52  1  0
M  END
>  <minimizedAffinity>  (6) 
-5.53127

>  <mol_id>  (6) 
63129

>  <source_index>  (6) 
5

>  <layer>  (6) 
L2

>  <uniprot>  (6) 
Q13224

>  <paff>  (6) 
6.3635000000000002

>  <smiles>  (6) 
c1ccc(CN2CCC3(CC2)CC(C2CCCO2)CCO3)cc1

$$$$
L2:Q13224:82186
     RDKit          3D

 59 63  0  0  0  0  0  0  0  0999 V2000
   17.1756   -1.6856  -28.1827 C   0  0  2  0  0  0  0  0  0  0  0  0
   18.3736   -0.7570  -27.9244 C   0  0  0  0  0  0  0  0  0  0  0  0
   19.2774   -0.6474  -29.1462 C   0  0  0  0  0  0  0  0  0  0  0  0
   19.3327   -1.8938  -29.8290 O   0  0  0  0  0  0  0  0  0  0  0  0
   18.0995   -2.2750  -30.4780 C   0  0  0  0  0  0  0  0  0  0  0  0
   18.1314   -3.8122  -30.5568 C   0  0  0  0  0  0  0  0  0  0  0  0
   17.0473   -4.4010  -31.4625 C   0  0  0  0  0  0  0  0  0  0  0  0
   16.9454   -3.7791  -32.7745 N   0  0  0  0  0  0  0  0  0  0  0  0
   17.0005   -2.3208  -32.7683 C   0  0  0  0  0  0  0  0  0  0  0  0
   18.1195   -1.7315  -31.9158 C   0  0  0  0  0  0  0  0  0  0  0  0
   16.8695   -1.7578  -29.6863 C   0  0  0  0  0  0  0  0  0  0  0  0
   14.6881   -1.7850  -27.7134 C   0  0  0  0  0  0  0  0  0  0  0  0
   13.5467   -1.4439  -26.9820 C   0  0  0  0  0  0  0  0  0  0  0  0
   13.7037   -0.6203  -25.8895 C   0  0  0  0  0  0  0  0  0  0  0  0
   14.9426   -0.1261  -25.5187 C   0  0  0  0  0  0  0  0  0  0  0  0
   16.0821   -0.4445  -26.2377 C   0  0  0  0  0  0  0  0  0  0  0  0
   15.9640   -1.2917  -27.3543 C   0  0  0  0  0  0  0  0  0  0  0  0
   14.7780    0.7782  -24.3594 C   0  0  0  0  0  0  0  0  0  0  0  0
   13.3575    0.3869  -23.9490 C   0  0  0  0  0  0  0  0  0  0  0  0
   12.6778   -0.1977  -25.0849 O   0  0  0  0  0  0  0  0  0  0  0  0
   17.6150   -4.4363  -33.8963 C   0  0  0  0  0  0  0  0  0  0  0  0
   19.1075   -4.1665  -34.1383 C   0  0  0  0  0  0  0  0  0  0  0  0
   20.0619   -5.1548  -33.4621 C   0  0  0  0  0  0  0  0  0  0  0  0
   21.3749   -4.9971  -34.2240 C   0  0  0  0  0  0  0  0  0  0  0  0
   21.0004   -4.4698  -35.6070 C   0  0  0  0  0  0  0  0  0  0  0  0
   19.4808   -4.3615  -35.6125 C   0  0  0  0  0  0  0  0  0  0  0  0
   17.4383   -2.6719  -27.8616 H   0  0  0  0  0  0  0  0  0  0  0  0
   18.9430   -1.1455  -27.1060 H   0  0  0  0  0  0  0  0  0  0  0  0
   17.9962    0.2190  -27.7009 H   0  0  0  0  0  0  0  0  0  0  0  0
   20.2628   -0.3716  -28.8334 H   0  0  0  0  0  0  0  0  0  0  0  0
   18.8828    0.0958  -29.8071 H   0  0  0  0  0  0  0  0  0  0  0  0
   17.9981   -4.2045  -29.5703 H   0  0  0  0  0  0  0  0  0  0  0  0
   19.0759   -4.0856  -30.9787 H   0  0  0  0  0  0  0  0  0  0  0  0
   16.1047   -4.2918  -30.9680 H   0  0  0  0  0  0  0  0  0  0  0  0
   17.3183   -5.4220  -31.6328 H   0  0  0  0  0  0  0  0  0  0  0  0
   16.0676   -1.9531  -32.3950 H   0  0  0  0  0  0  0  0  0  0  0  0
   17.1968   -2.0204  -33.7763 H   0  0  0  0  0  0  0  0  0  0  0  0
   18.0054   -0.6681  -31.8841 H   0  0  0  0  0  0  0  0  0  0  0  0
   19.0526   -2.0092  -32.3597 H   0  0  0  0  0  0  0  0  0  0  0  0
   16.0462   -2.4227  -29.8446 H   0  0  0  0  0  0  0  0  0  0  0  0
   16.6284   -0.7748  -30.0335 H   0  0  0  0  0  0  0  0  0  0  0  0
   14.5980   -2.4085  -28.5308 H   0  0  0  0  0  0  0  0  0  0  0  0
   12.6158   -1.7981  -27.2522 H   0  0  0  0  0  0  0  0  0  0  0  0
   17.0014   -0.0671  -25.9595 H   0  0  0  0  0  0  0  0  0  0  0  0
   14.8445    1.8082  -24.6416 H   0  0  0  0  0  0  0  0  0  0  0  0
   15.5200    0.6844  -23.5942 H   0  0  0  0  0  0  0  0  0  0  0  0
   12.8266    1.2570  -23.6233 H   0  0  0  0  0  0  0  0  0  0  0  0
   13.3971   -0.3231  -23.1495 H   0  0  0  0  0  0  0  0  0  0  0  0
   17.0960   -4.1441  -34.7852 H   0  0  0  0  0  0  0  0  0  0  0  0
   17.5816   -5.4747  -33.6405 H   0  0  0  0  0  0  0  0  0  0  0  0
   19.2176   -3.1723  -33.7584 H   0  0  0  0  0  0  0  0  0  0  0  0
   19.6929   -6.1556  -33.5468 H   0  0  0  0  0  0  0  0  0  0  0  0
   20.1725   -4.9633  -32.4152 H   0  0  0  0  0  0  0  0  0  0  0  0
   21.8712   -5.9413  -34.3083 H   0  0  0  0  0  0  0  0  0  0  0  0
   22.0426   -4.3308  -33.7189 H   0  0  0  0  0  0  0  0  0  0  0  0
   21.3283   -5.1490  -36.3660 H   0  0  0  0  0  0  0  0  0  0  0  0
   21.4632   -3.5261  -35.8072 H   0  0  0  0  0  0  0  0  0  0  0  0
   19.0388   -5.2556  -36.0000 H   0  0  0  0  0  0  0  0  0  0  0  0
   19.1310   -3.5617  -36.2312 H   0  0  0  0  0  0  0  0  0  0  0  0
  1  2  1  0
  1 27  1  1
  2  3  1  0
  2 28  1  0
  2 29  1  0
  3  4  1  0
  3 30  1  0
  3 31  1  0
  4  5  1  0
  5  6  1  0
  5 11  1  0
  6  7  1  0
  6 32  1  0
  6 33  1  0
  7  8  1  0
  7 34  1  0
  7 35  1  0
  8 21  1  0
  8  9  1  0
  9 10  1  0
  9 36  1  0
  9 37  1  0
 10  5  1  0
 10 38  1  0
 10 39  1  0
 11  1  1  0
 11 40  1  0
 11 41  1  0
 12 13  2  0
 12 42  1  0
 13 14  1  0
 13 43  1  0
 14 15  2  0
 15 16  1  0
 15 18  1  0
 16 17  2  0
 16 44  1  0
 17  1  1  0
 17 12  1  0
 18 19  1  0
 18 45  1  0
 18 46  1  0
 19 20  1  0
 19 47  1  0
 19 48  1  0
 20 14  1  0
 21 22  1  0
 21 49  1  0
 21 50  1  0
 22 23  1  0
 22 51  1  0
 23 24  1  0
 23 52  1  0
 23 53  1  0
 24 25  1  0
 24 54  1  0
 24 55  1  0
 25 26  1  0
 25 56  1  0
 25 57  1  0
 26 22  1  0
 26 58  1  0
 26 59  1  0
M  END
>  <minimizedAffinity>  (7) 
-6.07940

>  <mol_id>  (7) 
82186

>  <source_index>  (7) 
6

>  <layer>  (7) 
L2

>  <uniprot>  (7) 
Q13224

>  <paff>  (7) 
7.6778000000000004

>  <smiles>  (7) 
c1cc2c(cc1C1CCOC3(CCN(CC4CCCC4)CC3)C1)CCO2

$$$$
L2:Q13224:89442
     RDKit          3D

 46 49  0  0  0  0  0  0  0  0999 V2000
   18.4442   -1.6219  -30.2639 C   0  0  0  0  0  0  0  0  0  0  0  0
   17.8756   -1.9973  -31.4258 C   0  0  0  0  0  0  0  0  0  0  0  0
   18.7878   -2.3507  -32.5847 C   0  0  0  0  0  0  0  0  0  0  0  0
   20.2435   -2.6636  -32.1511 C   0  0  0  0  0  0  0  0  0  0  0  0
   21.1808   -2.5963  -33.3679 C   0  0  0  0  0  0  0  0  0  0  0  0
   20.8916   -3.6893  -34.4022 C   0  0  0  0  0  0  0  0  0  0  0  0
   20.3429   -4.9081  -33.8036 N   0  0  0  0  0  0  0  0  0  0  0  0
   20.8576   -5.1549  -32.4643 C   0  0  0  0  0  0  0  0  0  0  0  0
   20.3927   -4.0595  -31.4930 C   0  0  0  0  0  0  0  0  0  0  0  0
   20.6773   -1.6201  -31.2568 O   0  0  0  0  0  0  0  0  0  0  0  0
   19.9204   -1.5157  -30.0511 C   0  0  0  0  0  0  0  0  0  0  0  0
   16.4409   -2.0411  -31.4871 C   0  0  0  0  0  0  0  0  0  0  0  0
   15.5404   -2.5683  -30.5649 C   0  0  0  0  0  0  0  0  0  0  0  0
   14.2306   -2.3773  -31.0646 C   0  0  0  0  0  0  0  0  0  0  0  0
   14.3815   -1.7430  -32.2692 C   0  0  0  0  0  0  0  0  0  0  0  0
   15.6929   -1.5362  -32.5337 O   0  0  0  0  0  0  0  0  0  0  0  0
   20.3575   -6.0738  -34.6957 C   0  0  0  0  0  0  0  0  0  0  0  0
   19.1602   -6.2575  -35.6052 C   0  0  0  0  0  0  0  0  0  0  0  0
   19.0998   -7.3335  -36.5039 C   0  0  0  0  0  0  0  0  0  0  0  0
   17.9939   -7.5029  -37.3393 C   0  0  0  0  0  0  0  0  0  0  0  0
   16.9327   -6.6023  -37.2835 C   0  0  0  0  0  0  0  0  0  0  0  0
   16.9745   -5.5337  -36.3906 C   0  0  0  0  0  0  0  0  0  0  0  0
   18.0799   -5.3634  -35.5550 C   0  0  0  0  0  0  0  0  0  0  0  0
   17.8230   -1.3936  -29.4721 H   0  0  0  0  0  0  0  0  0  0  0  0
   18.8068   -1.5251  -33.2650 H   0  0  0  0  0  0  0  0  0  0  0  0
   18.3954   -3.2382  -33.0356 H   0  0  0  0  0  0  0  0  0  0  0  0
   22.1897   -2.7052  -33.0286 H   0  0  0  0  0  0  0  0  0  0  0  0
   21.0219   -1.6517  -33.8448 H   0  0  0  0  0  0  0  0  0  0  0  0
   21.8044   -3.9358  -34.9031 H   0  0  0  0  0  0  0  0  0  0  0  0
   20.1576   -3.3051  -35.0794 H   0  0  0  0  0  0  0  0  0  0  0  0
   21.9271   -5.1657  -32.4956 H   0  0  0  0  0  0  0  0  0  0  0  0
   20.4864   -6.0982  -32.1218 H   0  0  0  0  0  0  0  0  0  0  0  0
   21.1083   -3.9846  -30.7011 H   0  0  0  0  0  0  0  0  0  0  0  0
   19.4229   -4.3445  -31.1421 H   0  0  0  0  0  0  0  0  0  0  0  0
   20.1305   -0.5685  -29.6000 H   0  0  0  0  0  0  0  0  0  0  0  0
   20.2085   -2.3350  -29.4261 H   0  0  0  0  0  0  0  0  0  0  0  0
   15.7863   -3.0207  -29.6705 H   0  0  0  0  0  0  0  0  0  0  0  0
   13.3451   -2.6577  -30.6148 H   0  0  0  0  0  0  0  0  0  0  0  0
   13.6048   -1.4623  -32.8880 H   0  0  0  0  0  0  0  0  0  0  0  0
   20.4353   -6.9480  -34.0836 H   0  0  0  0  0  0  0  0  0  0  0  0
   21.1847   -5.9099  -35.3543 H   0  0  0  0  0  0  0  0  0  0  0  0
   19.8808   -8.0066  -36.5478 H   0  0  0  0  0  0  0  0  0  0  0  0
   17.9627   -8.2961  -37.9987 H   0  0  0  0  0  0  0  0  0  0  0  0
   16.1166   -6.7265  -37.9028 H   0  0  0  0  0  0  0  0  0  0  0  0
   16.1876   -4.8674  -36.3468 H   0  0  0  0  0  0  0  0  0  0  0  0
   18.1027   -4.5716  -34.8935 H   0  0  0  0  0  0  0  0  0  0  0  0
  1  2  2  0
  1 24  1  0
  2 12  1  0
  2  3  1  0
  3  4  1  0
  3 25  1  0
  3 26  1  0
  4  5  1  0
  4 10  1  0
  5  6  1  0
  5 27  1  0
  5 28  1  0
  6  7  1  0
  6 29  1  0
  6 30  1  0
  7 17  1  0
  7  8  1  0
  8  9  1  0
  8 31  1  0
  8 32  1  0
  9  4  1  0
  9 33  1  0
  9 34  1  0
 10 11  1  0
 11  1  1  0
 11 35  1  0
 11 36  1  0
 12 13  2  0
 13 14  1  0
 13 37  1  0
 14 15  2  0
 14 38  1  0
 15 16  1  0
 15 39  1  0
 16 12  1  0
 17 18  1  0
 17 40  1  0
 17 41  1  0
 18 19  2  0
 19 20  1  0
 19 42  1  0
 20 21  2  0
 20 43  1  0
 21 22  1  0
 21 44  1  0
 22 23  2  0
 22 45  1  0
 23 18  1  0
 23 46  1  0
M  END
>  <minimizedAffinity>  (8) 
-5.50512

>  <mol_id>  (8) 
89442

>  <source_index>  (8) 
7

>  <layer>  (8) 
L2

>  <uniprot>  (8) 
Q13224

>  <paff>  (8) 
6.8068999999999997

>  <smiles>  (8) 
C1=C(c2ccco2)CC2(CCN(Cc3ccccc3)CC2)OC1

$$$$
L2:Q13224:110926
     RDKit          3D

 55 59  0  0  0  0  0  0  0  0999 V2000
   16.1400   -1.9626  -29.4897 N   0  0  0  0  0  0  0  0  0  0  0  0
   17.4671   -1.8957  -30.1163 C   0  0  0  0  0  0  0  0  0  0  0  0
   17.8007   -3.1160  -30.9777 C   0  0  0  0  0  0  0  0  0  0  0  0
   16.7824   -3.3140  -32.1344 C   0  0  0  0  0  0  0  0  0  0  0  0
   15.4639   -2.5751  -31.7947 C   0  0  0  0  0  0  0  0  0  0  0  0
   15.1463   -2.6713  -30.3069 C   0  0  0  0  0  0  0  0  0  0  0  0
   16.4818   -4.8168  -32.3865 C   0  0  0  0  0  0  0  0  0  0  0  0
   17.4492   -5.5184  -33.3612 C   0  0  2  0  0  0  0  0  0  0  0  0
   18.7208   -4.7057  -33.5894 C   0  0  0  0  0  0  0  0  0  0  0  0
   18.4388   -3.2464  -33.9233 C   0  0  0  0  0  0  0  0  0  0  0  0
   17.2443   -2.7171  -33.3535 O   0  0  0  0  0  0  0  0  0  0  0  0
   16.8159   -5.9226  -34.6894 C   0  0  0  0  0  0  0  0  0  0  0  0
   17.5316   -5.9107  -35.8948 C   0  0  0  0  0  0  0  0  0  0  0  0
   16.9483   -6.3018  -37.1064 C   0  0  0  0  0  0  0  0  0  0  0  0
   15.6141   -6.7158  -37.0795 C   0  0  0  0  0  0  0  0  0  0  0  0
   14.7954   -7.1490  -38.0979 N   0  0  0  0  0  0  0  0  0  0  0  0
   13.5536   -7.4571  -37.6081 C   0  0  0  0  0  0  0  0  0  0  0  0
   13.5666   -7.2214  -36.2522 C   0  0  0  0  0  0  0  0  0  0  0  0
   14.8638   -6.7518  -35.9063 C   0  0  0  0  0  0  0  0  0  0  0  0
   15.4739   -6.3541  -34.6996 C   0  0  0  0  0  0  0  0  0  0  0  0
   15.0775   -7.2263  -39.0651 H   0  0  0  0  0  0  0  0  0  0  0  0
   16.1589   -2.4894  -28.1174 C   0  0  0  0  0  0  0  0  0  0  0  0
   13.3754    1.0249  -24.0711 Cl  0  0  0  0  0  0  0  0  0  0  0  0
   14.1666    0.0262  -25.2278 C   0  0  0  0  0  0  0  0  0  0  0  0
   15.5536    0.0759  -25.3507 C   0  0  0  0  0  0  0  0  0  0  0  0
   16.1980   -0.7340  -26.2893 C   0  0  0  0  0  0  0  0  0  0  0  0
   15.4578   -1.5938  -27.1148 C   0  0  0  0  0  0  0  0  0  0  0  0
   14.0617   -1.6375  -26.9708 C   0  0  0  0  0  0  0  0  0  0  0  0
   13.4173   -0.8276  -26.0332 C   0  0  0  0  0  0  0  0  0  0  0  0
   18.2025   -1.8163  -29.3432 H   0  0  0  0  0  0  0  0  0  0  0  0
   17.4650   -1.0449  -30.7652 H   0  0  0  0  0  0  0  0  0  0  0  0
   17.7919   -3.9881  -30.3578 H   0  0  0  0  0  0  0  0  0  0  0  0
   18.7652   -2.9572  -31.4128 H   0  0  0  0  0  0  0  0  0  0  0  0
   14.6634   -3.0154  -32.3517 H   0  0  0  0  0  0  0  0  0  0  0  0
   15.5782   -1.5425  -32.0509 H   0  0  0  0  0  0  0  0  0  0  0  0
   15.1349   -3.7024  -30.0212 H   0  0  0  0  0  0  0  0  0  0  0  0
   14.1928   -2.2153  -30.1404 H   0  0  0  0  0  0  0  0  0  0  0  0
   15.4924   -4.8952  -32.7863 H   0  0  0  0  0  0  0  0  0  0  0  0
   16.5979   -5.3082  -31.4431 H   0  0  0  0  0  0  0  0  0  0  0  0
   17.7137   -6.4319  -32.8708 H   0  0  0  0  0  0  0  0  0  0  0  0
   19.2645   -5.1428  -34.4007 H   0  0  0  0  0  0  0  0  0  0  0  0
   19.2820   -4.7244  -32.6786 H   0  0  0  0  0  0  0  0  0  0  0  0
   18.3666   -3.1575  -34.9872 H   0  0  0  0  0  0  0  0  0  0  0  0
   19.2454   -2.6827  -33.5031 H   0  0  0  0  0  0  0  0  0  0  0  0
   18.5172   -5.6048  -35.8891 H   0  0  0  0  0  0  0  0  0  0  0  0
   17.4848   -6.2848  -37.9878 H   0  0  0  0  0  0  0  0  0  0  0  0
   12.7518   -7.8039  -38.1576 H   0  0  0  0  0  0  0  0  0  0  0  0
   12.7767   -7.3605  -35.6028 H   0  0  0  0  0  0  0  0  0  0  0  0
   14.9357   -6.3789  -33.8194 H   0  0  0  0  0  0  0  0  0  0  0  0
   15.6755   -3.4440  -28.1146 H   0  0  0  0  0  0  0  0  0  0  0  0
   17.1845   -2.5524  -27.8191 H   0  0  0  0  0  0  0  0  0  0  0  0
   16.1037    0.7095  -24.7498 H   0  0  0  0  0  0  0  0  0  0  0  0
   17.2258   -0.6996  -26.3760 H   0  0  0  0  0  0  0  0  0  0  0  0
   13.5065   -2.2742  -27.5635 H   0  0  0  0  0  0  0  0  0  0  0  0
   12.3903   -0.8617  -25.9376 H   0  0  0  0  0  0  0  0  0  0  0  0
  1  2  1  0
  2  3  1  0
  2 30  1  0
  2 31  1  0
  3  4  1  0
  3 32  1  0
  3 33  1  0
  4  5  1  0
  4  7  1  0
  5  6  1  0
  5 34  1  0
  5 35  1  0
  6  1  1  0
  6 36  1  0
  6 37  1  0
  7  8  1  0
  7 38  1  0
  7 39  1  0
  8 12  1  0
  8  9  1  0
  8 40  1  1
  9 10  1  0
  9 41  1  0
  9 42  1  0
 10 11  1  0
 10 43  1  0
 10 44  1  0
 11  4  1  0
 12 13  2  0
 13 14  1  0
 13 45  1  0
 14 15  2  0
 14 46  1  0
 15 16  1  0
 16 17  1  0
 16 21  1  0
 17 18  2  0
 17 47  1  0
 18 19  1  0
 18 48  1  0
 19 20  2  0
 19 15  1  0
 20 12  1  0
 20 49  1  0
 22  1  1  0
 22 50  1  0
 22 51  1  0
 23 24  1  0
 24 25  2  0
 25 26  1  0
 25 52  1  0
 26 27  2  0
 26 53  1  0
 27 22  1  0
 27 28  1  0
 28 29  2  0
 28 54  1  0
 29 24  1  0
 29 55  1  0
M  END
>  <minimizedAffinity>  (9) 
-6.04754

>  <mol_id>  (9) 
110926

>  <source_index>  (9) 
8

>  <layer>  (9) 
L2

>  <uniprot>  (9) 
Q13224

>  <paff>  (9) 
6.1778000000000004

>  <smiles>  (9) 
Clc1ccc(CN2CCC3(CC2)CC(c2ccc4[nH]ccc4c2)CCO3)cc1

$$$$
L2:Q13224:142921
     RDKit          3D

 46 49  0  0  0  0  0  0  0  0999 V2000
   17.5371   -4.1577  -33.1164 C   0  0  0  0  0  0  0  0  0  0  0  0
   18.0694   -4.6886  -34.2367 C   0  0  0  0  0  0  0  0  0  0  0  0
   19.5462   -4.4873  -34.4850 C   0  0  0  0  0  0  0  0  0  0  0  0
   20.0763   -3.2981  -33.6966 C   0  0  0  0  0  0  0  0  0  0  0  0
   19.7379   -3.4334  -32.3191 O   0  0  0  0  0  0  0  0  0  0  0  0
   18.3183   -3.4058  -32.0511 C   0  0  0  0  0  0  0  0  0  0  0  0
   17.8353   -1.9415  -31.9714 C   0  0  0  0  0  0  0  0  0  0  0  0
   17.9323   -1.4167  -30.5400 C   0  0  0  0  0  0  0  0  0  0  0  0
   17.0195   -2.1372  -29.6414 N   0  0  0  0  0  0  0  0  0  0  0  0
   16.9568   -3.5832  -29.9082 C   0  0  0  0  0  0  0  0  0  0  0  0
   18.1591   -4.1105  -30.6863 C   0  0  0  0  0  0  0  0  0  0  0  0
   17.1927   -5.4035  -35.1220 C   0  0  0  0  0  0  0  0  0  0  0  0
   17.2720   -5.5509  -36.5045 C   0  0  0  0  0  0  0  0  0  0  0  0
   16.1806   -6.3454  -36.9288 C   0  0  0  0  0  0  0  0  0  0  0  0
   15.4797   -6.6517  -35.7923 C   0  0  0  0  0  0  0  0  0  0  0  0
   16.0716   -6.0972  -34.7087 O   0  0  0  0  0  0  0  0  0  0  0  0
   17.3324   -1.8261  -28.2366 C   0  0  0  0  0  0  0  0  0  0  0  0
   16.1215   -1.4130  -27.4245 C   0  0  0  0  0  0  0  0  0  0  0  0
   14.8345   -1.8343  -27.7925 C   0  0  0  0  0  0  0  0  0  0  0  0
   13.7178   -1.4345  -27.0571 C   0  0  0  0  0  0  0  0  0  0  0  0
   13.8735   -0.6028  -25.9501 C   0  0  0  0  0  0  0  0  0  0  0  0
   15.1451   -0.1692  -25.5788 C   0  0  0  0  0  0  0  0  0  0  0  0
   16.2635   -0.5694  -26.3131 C   0  0  0  0  0  0  0  0  0  0  0  0
   16.5216   -4.2708  -32.9716 H   0  0  0  0  0  0  0  0  0  0  0  0
   19.7047   -4.3135  -35.5288 H   0  0  0  0  0  0  0  0  0  0  0  0
   20.0676   -5.3660  -34.1671 H   0  0  0  0  0  0  0  0  0  0  0  0
   19.6437   -2.3979  -34.0805 H   0  0  0  0  0  0  0  0  0  0  0  0
   21.1412   -3.2605  -33.7934 H   0  0  0  0  0  0  0  0  0  0  0  0
   16.8171   -1.8896  -32.2960 H   0  0  0  0  0  0  0  0  0  0  0  0
   18.4574   -1.3399  -32.6007 H   0  0  0  0  0  0  0  0  0  0  0  0
   17.6794   -0.3770  -30.5326 H   0  0  0  0  0  0  0  0  0  0  0  0
   18.9335   -1.5666  -30.1936 H   0  0  0  0  0  0  0  0  0  0  0  0
   16.0717   -3.7852  -30.4744 H   0  0  0  0  0  0  0  0  0  0  0  0
   16.9533   -4.0787  -28.9599 H   0  0  0  0  0  0  0  0  0  0  0  0
   18.0303   -5.1597  -30.8521 H   0  0  0  0  0  0  0  0  0  0  0  0
   19.0384   -3.9153  -30.1087 H   0  0  0  0  0  0  0  0  0  0  0  0
   18.0013   -5.1497  -37.1146 H   0  0  0  0  0  0  0  0  0  0  0  0
   15.9586   -6.6342  -37.8944 H   0  0  0  0  0  0  0  0  0  0  0  0
   14.6216   -7.2244  -35.7661 H   0  0  0  0  0  0  0  0  0  0  0  0
   18.0423   -1.0258  -28.2170 H   0  0  0  0  0  0  0  0  0  0  0  0
   17.7174   -2.7212  -27.7944 H   0  0  0  0  0  0  0  0  0  0  0  0
   14.7126   -2.4457  -28.6149 H   0  0  0  0  0  0  0  0  0  0  0  0
   12.7765   -1.7549  -27.3333 H   0  0  0  0  0  0  0  0  0  0  0  0
   13.0479   -0.3080  -25.4055 H   0  0  0  0  0  0  0  0  0  0  0  0
   15.2602    0.4484  -24.7601 H   0  0  0  0  0  0  0  0  0  0  0  0
   17.2020   -0.2418  -26.0357 H   0  0  0  0  0  0  0  0  0  0  0  0
  1  2  2  0
  1 24  1  0
  2 12  1  0
  2  3  1  0
  3  4  1  0
  3 25  1  0
  3 26  1  0
  4  5  1  0
  4 27  1  0
  4 28  1  0
  5  6  1  0
  6  7  1  0
  6  1  1  0
  7  8  1  0
  7 29  1  0
  7 30  1  0
  8  9  1  0
  8 31  1  0
  8 32  1  0
  9 17  1  0
  9 10  1  0
 10 11  1  0
 10 33  1  0
 10 34  1  0
 11  6  1  0
 11 35  1  0
 11 36  1  0
 12 13  2  0
 13 14  1  0
 13 37  1  0
 14 15  2  0
 14 38  1  0
 15 16  1  0
 15 39  1  0
 16 12  1  0
 17 18  1  0
 17 40  1  0
 17 41  1  0
 18 19  2  0
 19 20  1  0
 19 42  1  0
 20 21  2  0
 20 43  1  0
 21 22  1  0
 21 44  1  0
 22 23  2  0
 22 45  1  0
 23 18  1  0
 23 46  1  0
M  END
>  <minimizedAffinity>  (10) 
-5.71623

>  <mol_id>  (10) 
142921

>  <source_index>  (10) 
9

>  <layer>  (10) 
L2

>  <uniprot>  (10) 
Q13224

>  <paff>  (10) 
6.8476999999999997

>  <smiles>  (10) 
C1=C(c2ccco2)CCOC12CCN(Cc1ccccc1)CC2

$$$$
