L4:Q99705:17978
     RDKit          3D

 72 77  0  0  0  0  0  0  0  0999 V2000
  135.8958  140.7492  104.5954 C   0  0  0  0  0  0  0  0  0  0  0  0
  136.1379  141.9250  103.8942 C   0  0  0  0  0  0  0  0  0  0  0  0
  135.5852  142.1302  102.6285 C   0  0  0  0  0  0  0  0  0  0  0  0
  134.8251  141.1340  102.0368 C   0  0  0  0  0  0  0  0  0  0  0  0
  134.7198  139.9024  102.6537 C   0  0  0  0  0  0  0  0  0  0  0  0
  135.2601  139.7052  103.9142 C   0  0  0  0  0  0  0  0  0  0  0  0
  135.7686  143.3568  101.9531 N   0  0  0  0  0  0  0  0  0  0  0  0
  137.0632  143.9748  101.7539 C   0  0  0  0  0  0  0  0  0  0  0  0
  136.7626  145.1867  100.9656 C   0  0  0  0  0  0  0  0  0  0  0  0
  135.4432  145.2985  100.8002 C   0  0  0  0  0  0  0  0  0  0  0  0
  134.7615  144.1279  101.4068 C   0  0  0  0  0  0  0  0  0  0  0  0
  133.5617  143.8843  101.4181 O   0  0  0  0  0  0  0  0  0  0  0  0
  134.7365  146.2667  100.1384 O   0  0  0  0  0  0  0  0  0  0  0  0
  134.8920  147.5607  100.6549 C   0  0  0  0  0  0  0  0  0  0  0  0
  135.7301  148.4664  100.0275 C   0  0  0  0  0  0  0  0  0  0  0  0
  135.8400  149.7556  100.5304 C   0  0  0  0  0  0  0  0  0  0  0  0
  135.1149  150.1594  101.6508 C   0  0  0  0  0  0  0  0  0  0  0  0
  134.2392  149.2427  102.2215 C   0  0  0  0  0  0  0  0  0  0  0  0
  134.1818  147.9317  101.7799 C   0  0  0  0  0  0  0  0  0  0  0  0
  135.3241  151.4955  102.2525 C   0  0  0  0  0  0  0  0  0  0  0  0
  134.1821  152.2768  102.8390 C   0  0  0  0  0  0  0  0  0  0  0  0
  135.2172  151.7002  103.7385 C   0  0  0  0  0  0  0  0  0  0  0  0
  136.7016  141.8051  106.7738 C   0  0  0  0  0  0  0  0  0  0  0  0
  136.2410  140.5608  106.0388 C   0  0  0  0  0  0  0  0  0  0  0  0
  135.2811  138.4807  104.5406 O   0  0  0  0  0  0  0  0  0  0  0  0
  134.2829  137.5058  104.2231 C   0  0  0  0  0  0  0  0  0  0  0  0
  134.9852  136.3124  103.6040 C   0  0  0  0  0  0  0  0  0  0  0  0
  134.3085  135.0375  103.7085 N   0  0  0  0  0  0  0  0  0  0  0  0
  132.8524  135.0446  103.7025 C   0  0  0  0  0  0  0  0  0  0  0  0
  132.3343  133.6553  103.3729 C   0  0  0  0  0  0  0  0  0  0  0  0
  132.7117  133.2224  101.9646 C   0  0  0  0  0  0  0  0  0  0  0  0
  134.0895  133.7540  101.5925 C   0  0  0  0  0  0  0  0  0  0  0  0
  134.9183  134.0215  102.8383 C   0  0  0  0  0  0  0  0  0  0  0  0
  131.5908  133.4513  100.9407 C   0  0  0  0  0  0  0  0  0  0  0  0
  131.2368  132.0476  100.9382 O   0  0  0  0  0  0  0  0  0  0  0  0
  132.4290  131.7379  101.6901 C   0  0  0  0  0  0  0  0  0  0  0  0
  136.7475  142.7019  104.3340 H   0  0  0  0  0  0  0  0  0  0  0  0
  134.2946  141.3461  101.1223 H   0  0  0  0  0  0  0  0  0  0  0  0
  134.2100  139.1045  102.1378 H   0  0  0  0  0  0  0  0  0  0  0  0
  137.7512  143.2882  101.2543 H   0  0  0  0  0  0  0  0  0  0  0  0
  137.5299  144.2605  102.6940 H   0  0  0  0  0  0  0  0  0  0  0  0
  137.5399  145.8717  100.6799 H   0  0  0  0  0  0  0  0  0  0  0  0
  136.3012  148.1595   99.1621 H   0  0  0  0  0  0  0  0  0  0  0  0
  136.5062  150.4607  100.0462 H   0  0  0  0  0  0  0  0  0  0  0  0
  133.5928  149.5643  103.0260 H   0  0  0  0  0  0  0  0  0  0  0  0
  133.6156  147.1875  102.3175 H   0  0  0  0  0  0  0  0  0  0  0  0
  136.0919  152.0804  101.7561 H   0  0  0  0  0  0  0  0  0  0  0  0
  133.2007  151.8207  102.8281 H   0  0  0  0  0  0  0  0  0  0  0  0
  134.1714  153.3462  102.6824 H   0  0  0  0  0  0  0  0  0  0  0  0
  134.9493  150.8497  104.3509 H   0  0  0  0  0  0  0  0  0  0  0  0
  135.9126  152.3727  104.2195 H   0  0  0  0  0  0  0  0  0  0  0  0
  136.9861  141.5599  107.7965 H   0  0  0  0  0  0  0  0  0  0  0  0
  135.9154  142.5530  106.8299 H   0  0  0  0  0  0  0  0  0  0  0  0
  137.5549  142.2815  106.2972 H   0  0  0  0  0  0  0  0  0  0  0  0
  135.3657  140.1525  106.5413 H   0  0  0  0  0  0  0  0  0  0  0  0
  136.9916  139.7792  106.1349 H   0  0  0  0  0  0  0  0  0  0  0  0
  133.5202  137.9087  103.5605 H   0  0  0  0  0  0  0  0  0  0  0  0
  133.7847  137.2566  105.1502 H   0  0  0  0  0  0  0  0  0  0  0  0
  135.9476  136.1950  104.1007 H   0  0  0  0  0  0  0  0  0  0  0  0
  135.2254  136.5696  102.5610 H   0  0  0  0  0  0  0  0  0  0  0  0
  132.4331  135.7482  102.9737 H   0  0  0  0  0  0  0  0  0  0  0  0
  132.4893  135.3505  104.6831 H   0  0  0  0  0  0  0  0  0  0  0  0
  131.2563  133.5967  103.5166 H   0  0  0  0  0  0  0  0  0  0  0  0
  132.7834  132.9710  104.0834 H   0  0  0  0  0  0  0  0  0  0  0  0
  133.9751  134.6873  101.0456 H   0  0  0  0  0  0  0  0  0  0  0  0
  134.6035  133.0658  100.9227 H   0  0  0  0  0  0  0  0  0  0  0  0
  135.9260  134.3392  102.5710 H   0  0  0  0  0  0  0  0  0  0  0  0
  135.0315  133.0870  103.3961 H   0  0  0  0  0  0  0  0  0  0  0  0
  131.9313  133.7855   99.9588 H   0  0  0  0  0  0  0  0  0  0  0  0
  130.7553  134.0795  101.2583 H   0  0  0  0  0  0  0  0  0  0  0  0
  133.1817  131.2476  101.0673 H   0  0  0  0  0  0  0  0  0  0  0  0
  132.2141  131.1021  102.5504 H   0  0  0  0  0  0  0  0  0  0  0  0
  1  2  2  0
  2  3  1  0
  2 37  1  0
  3  7  1  0
  3  4  2  0
  4  5  1  0
  4 38  1  0
  5  6  2  0
  5 39  1  0
  6 25  1  0
  6  1  1  0
  7  8  1  0
  8  9  1  0
  8 40  1  0
  8 41  1  0
  9 10  2  0
  9 42  1  0
 10 13  1  0
 10 11  1  0
 11 12  2  0
 11  7  1  0
 13 14  1  0
 14 15  2  0
 15 16  1  0
 15 43  1  0
 16 17  2  0
 16 44  1  0
 17 20  1  0
 17 18  1  0
 18 19  2  0
 18 45  1  0
 19 14  1  0
 19 46  1  0
 20 21  1  0
 20 47  1  0
 21 22  1  0
 21 48  1  0
 21 49  1  0
 22 20  1  0
 22 50  1  0
 22 51  1  0
 23 24  1  0
 23 52  1  0
 23 53  1  0
 23 54  1  0
 24  1  1  0
 24 55  1  0
 24 56  1  0
 25 26  1  0
 26 27  1  0
 26 57  1  0
 26 58  1  0
 27 28  1  0
 27 59  1  0
 27 60  1  0
 28 29  1  0
 29 30  1  0
 29 61  1  0
 29 62  1  0
 30 31  1  0
 30 63  1  0
 30 64  1  0
 31 32  1  0
 31 34  1  0
 32 33  1  0
 32 65  1  0
 32 66  1  0
 33 28  1  0
 33 67  1  0
 33 68  1  0
 34 35  1  0
 34 69  1  0
 34 70  1  0
 35 36  1  0
 36 31  1  0
 36 71  1  0
 36 72  1  0
M  END
>  <minimizedAffinity>  (1) 
-10.44016

>  <mol_id>  (1) 
17978

>  <source_index>  (1) 
0

>  <layer>  (1) 
L4

>  <uniprot>  (1) 
Q99705

>  <paff>  (1) 
9.3565000000000005

>  <smiles>  (1) 
CCc1cc(ccc1OCCN1CCC2(COC2)CC1)N1CC=C(Oc2ccc(cc2)C2CC2)C1=O |t:25|

>  <aimnet_interaction_kcal_mol>  (1) 
-66.202433018379523

$$$$
L4:Q99705:30174
     RDKit          3D

 51 54  0  0  0  0  0  0  0  0999 V2000
  135.5471  144.2031  101.4647 N   0  0  0  0  0  0  0  0  0  0  0  0
  136.8601  144.7294  101.1602 C   0  0  0  0  0  0  0  0  0  0  0  0
  136.5808  146.0288  100.5275 C   0  0  0  0  0  0  0  0  0  0  0  0
  135.2670  146.2340  100.4701 C   0  0  0  0  0  0  0  0  0  0  0  0
  134.5545  145.0765  101.0742 C   0  0  0  0  0  0  0  0  0  0  0  0
  133.3472  144.9350  101.2034 O   0  0  0  0  0  0  0  0  0  0  0  0
  135.9907  141.3426  103.7620 C   0  0  0  0  0  0  0  0  0  0  0  0
  136.1040  142.6178  103.2346 C   0  0  0  0  0  0  0  0  0  0  0  0
  135.3652  142.9538  102.0925 C   0  0  0  0  0  0  0  0  0  0  0  0
  134.4774  142.0416  101.5455 C   0  0  0  0  0  0  0  0  0  0  0  0
  134.4455  140.7381  102.0138 C   0  0  0  0  0  0  0  0  0  0  0  0
  135.2119  140.3820  103.1057 C   0  0  0  0  0  0  0  0  0  0  0  0
  136.8956  141.8635  105.9013 C   0  0  0  0  0  0  0  0  0  0  0  0
  136.6379  140.9001  104.8837 O   0  0  0  0  0  0  0  0  0  0  0  0
  135.3581  139.0933  103.5285 O   0  0  0  0  0  0  0  0  0  0  0  0
  134.2100  138.3386  103.8915 C   0  0  0  0  0  0  0  0  0  0  0  0
  134.6489  136.8913  103.8589 C   0  0  0  0  0  0  0  0  0  0  0  0
  135.2455  136.5519  102.6175 O   0  0  0  0  0  0  0  0  0  0  0  0
  136.0273  137.1159  102.5178 H   0  0  0  0  0  0  0  0  0  0  0  0
  134.6040  147.2962   99.9023 O   0  0  0  0  0  0  0  0  0  0  0  0
  134.7731  148.5014  100.5836 C   0  0  0  0  0  0  0  0  0  0  0  0
  134.3098  148.6260  101.8792 C   0  0  0  0  0  0  0  0  0  0  0  0
  134.4575  149.8313  102.5406 C   0  0  0  0  0  0  0  0  0  0  0  0
  135.1299  150.8991  101.9561 C   0  0  0  0  0  0  0  0  0  0  0  0
  135.5950  150.7467  100.6516 C   0  0  0  0  0  0  0  0  0  0  0  0
  135.4064  149.5604   99.9571 C   0  0  0  0  0  0  0  0  0  0  0  0
  135.3499  152.1560  102.7022 C   0  0  0  0  0  0  0  0  0  0  0  0
  135.3963  152.1893  104.2021 C   0  0  0  0  0  0  0  0  0  0  0  0
  134.2126  152.7371  103.4979 C   0  0  0  0  0  0  0  0  0  0  0  0
  137.4124  144.0460  100.5096 H   0  0  0  0  0  0  0  0  0  0  0  0
  137.4650  144.8668  102.0529 H   0  0  0  0  0  0  0  0  0  0  0  0
  137.3677  146.6983  100.2267 H   0  0  0  0  0  0  0  0  0  0  0  0
  136.7727  143.3353  103.6891 H   0  0  0  0  0  0  0  0  0  0  0  0
  133.7859  142.3881  100.8005 H   0  0  0  0  0  0  0  0  0  0  0  0
  133.8382  139.9907  101.5258 H   0  0  0  0  0  0  0  0  0  0  0  0
  137.2189  141.3046  106.7764 H   0  0  0  0  0  0  0  0  0  0  0  0
  135.9835  142.4018  106.1485 H   0  0  0  0  0  0  0  0  0  0  0  0
  137.6679  142.5722  105.6070 H   0  0  0  0  0  0  0  0  0  0  0  0
  133.3907  138.5017  103.1940 H   0  0  0  0  0  0  0  0  0  0  0  0
  133.8790  138.6291  104.8849 H   0  0  0  0  0  0  0  0  0  0  0  0
  133.7795  136.2440  104.0032 H   0  0  0  0  0  0  0  0  0  0  0  0
  135.3577  136.7197  104.6737 H   0  0  0  0  0  0  0  0  0  0  0  0
  133.8563  147.7726  102.3586 H   0  0  0  0  0  0  0  0  0  0  0  0
  134.0452  149.9529  103.5302 H   0  0  0  0  0  0  0  0  0  0  0  0
  136.1157  151.5690  100.1744 H   0  0  0  0  0  0  0  0  0  0  0  0
  135.7540  149.4474   98.9395 H   0  0  0  0  0  0  0  0  0  0  0  0
  135.9919  152.8667  102.1957 H   0  0  0  0  0  0  0  0  0  0  0  0
  136.0624  152.8917  104.6750 H   0  0  0  0  0  0  0  0  0  0  0  0
  135.2957  151.2627  104.7456 H   0  0  0  0  0  0  0  0  0  0  0  0
  134.0493  153.8041  103.4953 H   0  0  0  0  0  0  0  0  0  0  0  0
  133.3033  152.1554  103.5112 H   0  0  0  0  0  0  0  0  0  0  0  0
  1  2  1  0
  2  3  1  0
  2 30  1  0
  2 31  1  0
  3  4  2  0
  3 32  1  0
  4 20  1  0
  4  5  1  0
  5  6  2  0
  5  1  1  0
  7  8  2  0
  8  9  1  0
  8 33  1  0
  9  1  1  0
  9 10  2  0
 10 11  1  0
 10 34  1  0
 11 12  2  0
 11 35  1  0
 12 15  1  0
 12  7  1  0
 13 14  1  0
 13 36  1  0
 13 37  1  0
 13 38  1  0
 14  7  1  0
 15 16  1  0
 16 17  1  0
 16 39  1  0
 16 40  1  0
 17 18  1  0
 17 41  1  0
 17 42  1  0
 18 19  1  0
 20 21  1  0
 21 22  2  0
 22 23  1  0
 22 43  1  0
 23 24  2  0
 23 44  1  0
 24 27  1  0
 24 25  1  0
 25 26  2  0
 25 45  1  0
 26 21  1  0
 26 46  1  0
 27 28  1  0
 27 47  1  0
 28 29  1  0
 28 48  1  0
 28 49  1  0
 29 27  1  0
 29 50  1  0
 29 51  1  0
M  END
>  <minimizedAffinity>  (2) 
-8.55206

>  <mol_id>  (2) 
30174

>  <source_index>  (2) 
1

>  <layer>  (2) 
L4

>  <uniprot>  (2) 
Q99705

>  <paff>  (2) 
8.3872

>  <smiles>  (2) 
COc1cc(N2CC=C(Oc3ccc(C4CC4)cc3)C2=O)ccc1OCCO

>  <aimnet_interaction_kcal_mol>  (2) 
-55.033638589102551

$$$$
L4:Q99705:54330
     RDKit          3D

 62 66  0  0  0  0  0  0  0  0999 V2000
  136.1006  141.3935  103.9592 C   0  0  0  0  0  0  0  0  0  0  0  0
  136.2900  142.6212  103.3388 C   0  0  0  0  0  0  0  0  0  0  0  0
  135.5882  142.9124  102.1636 C   0  0  0  0  0  0  0  0  0  0  0  0
  134.6594  142.0125  101.6642 C   0  0  0  0  0  0  0  0  0  0  0  0
  134.5235  140.7643  102.2447 C   0  0  0  0  0  0  0  0  0  0  0  0
  135.2355  140.4530  103.3902 C   0  0  0  0  0  0  0  0  0  0  0  0
  135.8128  144.1174  101.4575 N   0  0  0  0  0  0  0  0  0  0  0  0
  137.0924  144.4806  100.8933 C   0  0  0  0  0  0  0  0  0  0  0  0
  136.8179  145.7527  100.1940 C   0  0  0  0  0  0  0  0  0  0  0  0
  135.5450  146.1026  100.3722 C   0  0  0  0  0  0  0  0  0  0  0  0
  134.8374  145.0274  101.1168 C   0  0  0  0  0  0  0  0  0  0  0  0
  133.6402  144.9553  101.3541 O   0  0  0  0  0  0  0  0  0  0  0  0
  134.8998  147.2223   99.9084 O   0  0  0  0  0  0  0  0  0  0  0  0
  134.8198  148.3094  100.7614 C   0  0  0  0  0  0  0  0  0  0  0  0
  135.6490  148.4904  101.8563 C   0  0  0  0  0  0  0  0  0  0  0  0
  135.3797  149.5156  102.7483 C   0  0  0  0  0  0  0  0  0  0  0  0
  134.3495  150.4176  102.5271 C   0  0  0  0  0  0  0  0  0  0  0  0
  133.6062  150.2905  101.3544 C   0  0  0  0  0  0  0  0  0  0  0  0
  133.8375  149.2484  100.4750 C   0  0  0  0  0  0  0  0  0  0  0  0
  133.9787  151.4476  103.5248 C   0  0  0  0  0  0  0  0  0  0  0  0
  134.9214  151.9762  104.5504 C   0  0  0  0  0  0  0  0  0  0  0  0
  134.4754  152.8584  103.4390 C   0  0  0  0  0  0  0  0  0  0  0  0
  136.9482  141.9536  106.1131 C   0  0  0  0  0  0  0  0  0  0  0  0
  136.7358  140.9750  105.0994 O   0  0  0  0  0  0  0  0  0  0  0  0
  135.1607  139.2461  104.0333 O   0  0  0  0  0  0  0  0  0  0  0  0
  134.6846  138.1839  103.2129 C   0  0  0  0  0  0  0  0  0  0  0  0
  134.9053  136.8337  103.8671 C   0  0  0  0  0  0  0  0  0  0  0  0
  134.9979  135.7933  102.8719 N   0  0  0  0  0  0  0  0  0  0  0  0
  136.3312  135.3475  102.4674 C   0  0  0  0  0  0  0  0  0  0  0  0
  136.0035  134.2103  101.5248 C   0  0  0  0  0  0  0  0  0  0  0  0
  134.8120  133.5335  102.1724 C   0  0  1  0  0  0  0  0  0  0  0  0
  135.2332  132.4527  102.9884 F   0  0  0  0  0  0  0  0  0  0  0  0
  134.1778  134.6075  103.0622 C   0  0  0  0  0  0  0  0  0  0  0  0
  136.9728  143.3492  103.7580 H   0  0  0  0  0  0  0  0  0  0  0  0
  134.0114  142.3294  100.8621 H   0  0  0  0  0  0  0  0  0  0  0  0
  133.8431  140.0506  101.8139 H   0  0  0  0  0  0  0  0  0  0  0  0
  137.4653  143.6873  100.2371 H   0  0  0  0  0  0  0  0  0  0  0  0
  137.8523  144.6608  101.6570 H   0  0  0  0  0  0  0  0  0  0  0  0
  137.5903  146.3192   99.7040 H   0  0  0  0  0  0  0  0  0  0  0  0
  136.4672  147.8124  102.0423 H   0  0  0  0  0  0  0  0  0  0  0  0
  135.9598  149.5841  103.6585 H   0  0  0  0  0  0  0  0  0  0  0  0
  132.8218  151.0082  101.1403 H   0  0  0  0  0  0  0  0  0  0  0  0
  133.2486  149.1292   99.5769 H   0  0  0  0  0  0  0  0  0  0  0  0
  132.9567  151.3442  103.8559 H   0  0  0  0  0  0  0  0  0  0  0  0
  135.9445  151.6331  104.5348 H   0  0  0  0  0  0  0  0  0  0  0  0
  134.5474  152.1456  105.5487 H   0  0  0  0  0  0  0  0  0  0  0  0
  135.1849  153.0993  102.6594 H   0  0  0  0  0  0  0  0  0  0  0  0
  133.7892  153.6612  103.6670 H   0  0  0  0  0  0  0  0  0  0  0  0
  137.2847  141.4147  106.9958 H   0  0  0  0  0  0  0  0  0  0  0  0
  136.0127  142.4552  106.3507 H   0  0  0  0  0  0  0  0  0  0  0  0
  137.6928  142.6908  105.8184 H   0  0  0  0  0  0  0  0  0  0  0  0
  135.2239  138.2369  102.2674 H   0  0  0  0  0  0  0  0  0  0  0  0
  133.6191  138.3269  103.0180 H   0  0  0  0  0  0  0  0  0  0  0  0
  134.0625  136.6740  104.5424 H   0  0  0  0  0  0  0  0  0  0  0  0
  135.8073  136.8544  104.4871 H   0  0  0  0  0  0  0  0  0  0  0  0
  136.9345  135.0051  103.3192 H   0  0  0  0  0  0  0  0  0  0  0  0
  136.8796  136.1459  101.9739 H   0  0  0  0  0  0  0  0  0  0  0  0
  136.8277  133.5216  101.3605 H   0  0  0  0  0  0  0  0  0  0  0  0
  135.7113  134.6162  100.5618 H   0  0  0  0  0  0  0  0  0  0  0  0
  134.1231  133.1069  101.4447 H   0  0  0  0  0  0  0  0  0  0  0  0
  134.1890  134.2529  104.1016 H   0  0  0  0  0  0  0  0  0  0  0  0
  133.1354  134.8082  102.7950 H   0  0  0  0  0  0  0  0  0  0  0  0
  1  2  2  0
  2  3  1  0
  2 34  1  0
  3  7  1  0
  3  4  2  0
  4  5  1  0
  4 35  1  0
  5  6  2  0
  5 36  1  0
  6 25  1  0
  6  1  1  0
  7  8  1  0
  8  9  1  0
  8 37  1  0
  8 38  1  0
  9 10  2  0
  9 39  1  0
 10 13  1  0
 10 11  1  0
 11 12  2  0
 11  7  1  0
 13 14  1  0
 14 15  2  0
 15 16  1  0
 15 40  1  0
 16 17  2  0
 16 41  1  0
 17 20  1  0
 17 18  1  0
 18 19  2  0
 18 42  1  0
 19 14  1  0
 19 43  1  0
 20 21  1  0
 20 44  1  0
 21 22  1  0
 21 45  1  0
 21 46  1  0
 22 20  1  0
 22 47  1  0
 22 48  1  0
 23 24  1  0
 23 49  1  0
 23 50  1  0
 23 51  1  0
 24  1  1  0
 25 26  1  0
 26 27  1  0
 26 52  1  0
 26 53  1  0
 27 28  1  0
 27 54  1  0
 27 55  1  0
 28 29  1  0
 29 30  1  0
 29 56  1  0
 29 57  1  0
 30 31  1  0
 30 58  1  0
 30 59  1  0
 31 32  1  0
 31 33  1  0
 31 60  1  6
 33 28  1  0
 33 61  1  0
 33 62  1  0
M  END
>  <minimizedAffinity>  (3) 
-9.03148

>  <mol_id>  (3) 
54330

>  <source_index>  (3) 
2

>  <layer>  (3) 
L4

>  <uniprot>  (3) 
Q99705

>  <paff>  (3) 
9.1937999999999995

>  <smiles>  (3) 
COc1cc(N2CC=C(Oc3ccc(C4CC4)cc3)C2=O)ccc1OCCN1CC[C@@H](F)C1

>  <aimnet_interaction_kcal_mol>  (3) 
-65.58706668756713

$$$$
L4:Q99705:55671
     RDKit          3D

 65 69  0  0  0  0  0  0  0  0999 V2000
  134.0883  144.5984  101.3777 O   0  0  0  0  0  0  0  0  0  0  0  0
  135.1351  144.6880  100.7511 C   0  0  0  0  0  0  0  0  0  0  0  0
  135.5044  145.8738   99.9056 C   0  0  0  0  0  0  0  0  0  0  0  0
  136.7118  145.6881   99.3863 C   0  0  0  0  0  0  0  0  0  0  0  0
  137.2552  144.3899   99.8472 C   0  0  0  0  0  0  0  0  0  0  0  0
  136.1806  143.8005  100.6380 N   0  0  0  0  0  0  0  0  0  0  0  0
  136.4404  142.5003  101.2774 C   0  0  1  0  0  0  0  0  0  0  0  0
  137.4809  142.6458  102.3893 C   0  0  0  0  0  0  0  0  0  0  0  0
  136.7772  142.9711  103.6819 C   0  0  0  0  0  0  0  0  0  0  0  0
  135.9678  141.7902  104.1691 C   0  0  1  0  0  0  0  0  0  0  0  0
  135.4474  140.9460  103.0067 C   0  0  0  0  0  0  0  0  0  0  0  0
  135.1684  141.8144  101.7886 C   0  0  0  0  0  0  0  0  0  0  0  0
  136.8248  141.0480  105.0693 O   0  0  0  0  0  0  0  0  0  0  0  0
  136.1452  140.2627  106.0243 C   0  0  0  0  0  0  0  0  0  0  0  0
  136.8920  140.1943  107.3480 C   0  0  0  0  0  0  0  0  0  0  0  0
  137.0162  141.4506  108.0740 N   0  0  0  0  0  0  0  0  0  0  0  0
  137.2323  141.1783  109.5173 C   0  0  0  0  0  0  0  0  0  0  0  0
  135.8439  141.0355  110.1672 C   0  0  0  0  0  0  0  0  0  0  0  0
  134.8803  141.4890  109.0719 C   0  0  1  0  0  0  0  0  0  0  0  0
  133.7904  142.2903  109.5362 O   0  0  0  0  0  0  0  0  0  0  0  0
  135.7919  142.2483  108.1219 C   0  0  0  0  0  0  0  0  0  0  0  0
  133.0273  142.1103  108.9663 H   0  0  0  0  0  0  0  0  0  0  0  0
  134.6243  146.8946   99.6939 O   0  0  0  0  0  0  0  0  0  0  0  0
  134.8346  148.0629  100.4349 C   0  0  0  0  0  0  0  0  0  0  0  0
  134.2870  148.1847  101.7019 C   0  0  0  0  0  0  0  0  0  0  0  0
  134.3749  149.4018  102.3557 C   0  0  0  0  0  0  0  0  0  0  0  0
  135.1154  150.4568  101.8350 C   0  0  0  0  0  0  0  0  0  0  0  0
  135.6918  150.2949  100.5776 C   0  0  0  0  0  0  0  0  0  0  0  0
  135.5458  149.1102   99.8719 C   0  0  0  0  0  0  0  0  0  0  0  0
  135.3044  151.7026  102.6100 C   0  0  0  0  0  0  0  0  0  0  0  0
  135.2987  151.6906  104.1128 C   0  0  0  0  0  0  0  0  0  0  0  0
  134.1600  152.3011  103.3794 C   0  0  0  0  0  0  0  0  0  0  0  0
  137.2782  146.3690   98.7748 H   0  0  0  0  0  0  0  0  0  0  0  0
  138.1362  144.5697  100.4691 H   0  0  0  0  0  0  0  0  0  0  0  0
  137.5516  143.7349   99.0222 H   0  0  0  0  0  0  0  0  0  0  0  0
  136.8713  141.8711  100.4920 H   0  0  0  0  0  0  0  0  0  0  0  0
  138.2174  143.4082  102.1593 H   0  0  0  0  0  0  0  0  0  0  0  0
  138.0393  141.7136  102.5065 H   0  0  0  0  0  0  0  0  0  0  0  0
  136.1140  143.8157  103.5031 H   0  0  0  0  0  0  0  0  0  0  0  0
  137.4779  143.2935  104.4426 H   0  0  0  0  0  0  0  0  0  0  0  0
  135.1064  142.1709  104.7108 H   0  0  0  0  0  0  0  0  0  0  0  0
  134.5468  140.4073  103.3116 H   0  0  0  0  0  0  0  0  0  0  0  0
  136.1811  140.1900  102.7465 H   0  0  0  0  0  0  0  0  0  0  0  0
  134.4256  142.5630  102.0354 H   0  0  0  0  0  0  0  0  0  0  0  0
  134.7367  141.2057  100.9950 H   0  0  0  0  0  0  0  0  0  0  0  0
  135.9977  139.2524  105.6304 H   0  0  0  0  0  0  0  0  0  0  0  0
  135.1438  140.6442  106.2164 H   0  0  0  0  0  0  0  0  0  0  0  0
  137.8923  139.8056  107.1950 H   0  0  0  0  0  0  0  0  0  0  0  0
  136.3873  139.4447  107.9657 H   0  0  0  0  0  0  0  0  0  0  0  0
  137.7637  142.0256  109.9478 H   0  0  0  0  0  0  0  0  0  0  0  0
  137.8609  140.3007  109.6612 H   0  0  0  0  0  0  0  0  0  0  0  0
  135.7531  141.6723  111.0379 H   0  0  0  0  0  0  0  0  0  0  0  0
  135.6349  140.0222  110.5044 H   0  0  0  0  0  0  0  0  0  0  0  0
  134.4870  140.6043  108.5510 H   0  0  0  0  0  0  0  0  0  0  0  0
  136.0071  143.2172  108.5660 H   0  0  0  0  0  0  0  0  0  0  0  0
  135.3684  142.4273  107.1400 H   0  0  0  0  0  0  0  0  0  0  0  0
  133.8211  147.3298  102.1704 H   0  0  0  0  0  0  0  0  0  0  0  0
  133.8529  149.5420  103.2886 H   0  0  0  0  0  0  0  0  0  0  0  0
  136.2599  151.1091  100.1426 H   0  0  0  0  0  0  0  0  0  0  0  0
  135.9730  149.0030   98.8840 H   0  0  0  0  0  0  0  0  0  0  0  0
  135.9801  152.4160  102.1480 H   0  0  0  0  0  0  0  0  0  0  0  0
  135.9808  152.3397  104.6391 H   0  0  0  0  0  0  0  0  0  0  0  0
  135.1357  150.7485  104.6149 H   0  0  0  0  0  0  0  0  0  0  0  0
  134.0497  153.3766  103.3967 H   0  0  0  0  0  0  0  0  0  0  0  0
  133.2210  151.7657  103.3520 H   0  0  0  0  0  0  0  0  0  0  0  0
  1  2  2  0
  2  3  1  0
  3 23  1  0
  3  4  2  0
  4  5  1  0
  4 33  1  0
  5  6  1  0
  5 34  1  0
  5 35  1  0
  6  7  1  0
  6  2  1  0
  7  8  1  0
  7 36  1  6
  8  9  1  0
  8 37  1  0
  8 38  1  0
  9 10  1  0
  9 39  1  0
  9 40  1  0
 10 13  1  0
 10 11  1  0
 10 41  1  1
 11 12  1  0
 11 42  1  0
 11 43  1  0
 12  7  1  0
 12 44  1  0
 12 45  1  0
 13 14  1  0
 14 15  1  0
 14 46  1  0
 14 47  1  0
 15 16  1  0
 15 48  1  0
 15 49  1  0
 16 17  1  0
 17 18  1  0
 17 50  1  0
 17 51  1  0
 18 19  1  0
 18 52  1  0
 18 53  1  0
 19 20  1  0
 19 21  1  0
 19 54  1  6
 20 22  1  0
 21 16  1  0
 21 55  1  0
 21 56  1  0
 23 24  1  0
 24 25  2  0
 25 26  1  0
 25 57  1  0
 26 27  2  0
 26 58  1  0
 27 30  1  0
 27 28  1  0
 28 29  2  0
 28 59  1  0
 29 24  1  0
 29 60  1  0
 30 31  1  0
 30 61  1  0
 31 32  1  0
 31 62  1  0
 31 63  1  0
 32 30  1  0
 32 64  1  0
 32 65  1  0
M  END
>  <minimizedAffinity>  (4) 
-9.52076

>  <mol_id>  (4) 
55671

>  <source_index>  (4) 
3

>  <layer>  (4) 
L4

>  <uniprot>  (4) 
Q99705

>  <paff>  (4) 
7.3872

>  <smiles>  (4) 
O[C@@H]1CCN(CCO[C@H]2CC[C@@H](CC2)N2CC=C(Oc3ccc(cc3)C3CC3)C2=O)C1 |r,wU:11.14,wD:8.7,1.0,t:17,(11.77,-.73,;10.44,-1.5,;9.19,-2.41,;7.95,-1.5,;8.42,-.04,;7.33,1.05,;5.85,.65,;4.76,1.74,;3.27,1.34,;2.18,2.43,;.69,2.03,;.29,.55,;1.38,-.54,;2.87,-.14,;-1.19,.15,;-2.1,-1.1,;-3.56,-.62,;-3.56,.92,;-4.9,1.69,;-6.23,.92,;-6.23,-.62,;-7.56,-1.39,;-8.9,-.62,;-8.9,.92,;-7.56,1.69,;-10.23,-1.39,;-11.77,-1.39,;-11,-2.73,;-2.1,1.39,;-1.33,2.73,;9.96,-.04,)|

>  <aimnet_interaction_kcal_mol>  (4) 
-59.679046534565458

$$$$
L4:Q99705:66091
     RDKit          3D

 66 70  0  0  0  0  0  0  0  0999 V2000
  135.9597  140.7564  104.4431 C   0  0  0  0  0  0  0  0  0  0  0  0
  136.1487  141.9641  103.7916 C   0  0  0  0  0  0  0  0  0  0  0  0
  135.5629  142.1795  102.5401 C   0  0  0  0  0  0  0  0  0  0  0  0
  134.7948  141.1865  101.9576 C   0  0  0  0  0  0  0  0  0  0  0  0
  134.7055  139.9424  102.5614 C   0  0  0  0  0  0  0  0  0  0  0  0
  135.2843  139.7109  103.7950 C   0  0  0  0  0  0  0  0  0  0  0  0
  135.7485  143.4114  101.8726 N   0  0  0  0  0  0  0  0  0  0  0  0
  137.0471  144.0226  101.6755 C   0  0  0  0  0  0  0  0  0  0  0  0
  136.7500  145.2531  100.9156 C   0  0  0  0  0  0  0  0  0  0  0  0
  135.4314  145.3733  100.7526 C   0  0  0  0  0  0  0  0  0  0  0  0
  134.7433  144.2046  101.3548 C   0  0  0  0  0  0  0  0  0  0  0  0
  133.5409  143.9809  101.3865 O   0  0  0  0  0  0  0  0  0  0  0  0
  134.7292  146.3458  100.0926 O   0  0  0  0  0  0  0  0  0  0  0  0
  134.8745  147.6341  100.6239 C   0  0  0  0  0  0  0  0  0  0  0  0
  134.1915  147.9766  101.7742 C   0  0  0  0  0  0  0  0  0  0  0  0
  134.2480  149.2804  102.2361 C   0  0  0  0  0  0  0  0  0  0  0  0
  135.0967  150.2160  101.6556 C   0  0  0  0  0  0  0  0  0  0  0  0
  135.7917  149.8414  100.5064 C   0  0  0  0  0  0  0  0  0  0  0  0
  135.6801  148.5603   99.9846 C   0  0  0  0  0  0  0  0  0  0  0  0
  135.3050  151.5445  102.2720 C   0  0  0  0  0  0  0  0  0  0  0  0
  134.1629  152.3037  102.8870 C   0  0  0  0  0  0  0  0  0  0  0  0
  135.2196  151.7293  103.7619 C   0  0  0  0  0  0  0  0  0  0  0  0
  136.7097  141.5998  106.5161 C   0  0  0  0  0  0  0  0  0  0  0  0
  136.4102  140.4714  105.7007 O   0  0  0  0  0  0  0  0  0  0  0  0
  135.3150  138.5040  104.4405 O   0  0  0  0  0  0  0  0  0  0  0  0
  134.3632  137.4903  104.0823 C   0  0  0  0  0  0  0  0  0  0  0  0
  135.0786  136.3046  103.4499 C   0  0  0  0  0  0  0  0  0  0  0  0
  134.1638  135.3552  102.8788 N   0  0  0  0  0  0  0  0  0  0  0  0
  133.2485  134.6335  103.7385 C   0  0  0  0  0  0  0  0  0  0  0  0
  132.4717  133.8219  102.7226 C   0  0  0  0  0  0  0  0  0  0  0  0
  133.5596  133.3626  101.7542 C   0  0  0  0  0  0  0  0  0  0  0  0
  134.6494  134.4473  101.8226 C   0  0  2  0  0  0  0  0  0  0  0  0
  136.0295  133.8357  102.0325 C   0  0  0  0  0  0  0  0  0  0  0  0
  137.0995  134.7763  101.9345 O   0  0  0  0  0  0  0  0  0  0  0  0
  137.4116  134.7723  101.0212 H   0  0  0  0  0  0  0  0  0  0  0  0
  136.7536  142.7385  104.2388 H   0  0  0  0  0  0  0  0  0  0  0  0
  134.2377  141.4097  101.0624 H   0  0  0  0  0  0  0  0  0  0  0  0
  134.1782  139.1560  102.0484 H   0  0  0  0  0  0  0  0  0  0  0  0
  137.7225  143.3406  101.1524 H   0  0  0  0  0  0  0  0  0  0  0  0
  137.5270  144.2817  102.6157 H   0  0  0  0  0  0  0  0  0  0  0  0
  137.5304  145.9407  100.6444 H   0  0  0  0  0  0  0  0  0  0  0  0
  133.6428  147.2186  102.3110 H   0  0  0  0  0  0  0  0  0  0  0  0
  133.6212  149.5823  103.0629 H   0  0  0  0  0  0  0  0  0  0  0  0
  136.4338  150.5634  100.0147 H   0  0  0  0  0  0  0  0  0  0  0  0
  136.2246  148.2730   99.0957 H   0  0  0  0  0  0  0  0  0  0  0  0
  136.0565  152.1451  101.7696 H   0  0  0  0  0  0  0  0  0  0  0  0
  133.1877  151.8344  102.8848 H   0  0  0  0  0  0  0  0  0  0  0  0
  134.1358  153.3742  102.7442 H   0  0  0  0  0  0  0  0  0  0  0  0
  134.9719  150.8695  104.3696 H   0  0  0  0  0  0  0  0  0  0  0  0
  135.9157  152.4039  104.2382 H   0  0  0  0  0  0  0  0  0  0  0  0
  136.9815  141.2090  107.4924 H   0  0  0  0  0  0  0  0  0  0  0  0
  135.8389  142.2478  106.6112 H   0  0  0  0  0  0  0  0  0  0  0  0
  137.5350  142.1790  106.1072 H   0  0  0  0  0  0  0  0  0  0  0  0
  133.6033  137.8850  103.4110 H   0  0  0  0  0  0  0  0  0  0  0  0
  133.8434  137.2014  104.9887 H   0  0  0  0  0  0  0  0  0  0  0  0
  135.7587  135.8623  104.1914 H   0  0  0  0  0  0  0  0  0  0  0  0
  135.7274  136.6669  102.6534 H   0  0  0  0  0  0  0  0  0  0  0  0
  132.6107  135.3077  104.3127 H   0  0  0  0  0  0  0  0  0  0  0  0
  133.7611  133.9694  104.4562 H   0  0  0  0  0  0  0  0  0  0  0  0
  131.7569  134.4710  102.2162 H   0  0  0  0  0  0  0  0  0  0  0  0
  131.9131  133.0017  103.1710 H   0  0  0  0  0  0  0  0  0  0  0  0
  133.1882  133.2350  100.7397 H   0  0  0  0  0  0  0  0  0  0  0  0
  133.9602  132.3966  102.0713 H   0  0  0  0  0  0  0  0  0  0  0  0
  134.6896  135.0098  100.8940 H   0  0  0  0  0  0  0  0  0  0  0  0
  136.1455  133.0409  101.2894 H   0  0  0  0  0  0  0  0  0  0  0  0
  136.0883  133.3763  103.0220 H   0  0  0  0  0  0  0  0  0  0  0  0
  1  2  2  0
  2  3  1  0
  2 36  1  0
  3  7  1  0
  3  4  2  0
  4  5  1  0
  4 37  1  0
  5  6  2  0
  5 38  1  0
  6 25  1  0
  6  1  1  0
  7  8  1  0
  8  9  1  0
  8 39  1  0
  8 40  1  0
  9 10  2  0
  9 41  1  0
 10 13  1  0
 10 11  1  0
 11 12  2  0
 11  7  1  0
 13 14  1  0
 14 15  2  0
 15 16  1  0
 15 42  1  0
 16 17  2  0
 16 43  1  0
 17 20  1  0
 17 18  1  0
 18 19  2  0
 18 44  1  0
 19 14  1  0
 19 45  1  0
 20 21  1  0
 20 46  1  0
 21 22  1  0
 21 47  1  0
 21 48  1  0
 22 20  1  0
 22 49  1  0
 22 50  1  0
 23 24  1  0
 23 51  1  0
 23 52  1  0
 23 53  1  0
 24  1  1  0
 25 26  1  0
 26 27  1  0
 26 54  1  0
 26 55  1  0
 27 28  1  0
 27 56  1  0
 27 57  1  0
 28 29  1  0
 29 30  1  0
 29 58  1  0
 29 59  1  0
 30 31  1  0
 30 60  1  0
 30 61  1  0
 31 32  1  0
 31 62  1  0
 31 63  1  0
 32 33  1  0
 32 28  1  0
 32 64  1  6
 33 34  1  0
 33 65  1  0
 33 66  1  0
 34 35  1  0
M  END
>  <minimizedAffinity>  (5) 
-9.40932

>  <mol_id>  (5) 
66091

>  <source_index>  (5) 
4

>  <layer>  (5) 
L4

>  <uniprot>  (5) 
Q99705

>  <paff>  (5) 
9.1870999999999992

>  <smiles>  (5) 
COc1cc(N2CC=C(Oc3ccc(C4CC4)cc3)C2=O)ccc1OCCN1CCC[C@@H]1CO

>  <aimnet_interaction_kcal_mol>  (5) 
-68.949981223469877

$$$$
L4:Q99705:87356
     RDKit          3D

 63 67  0  0  0  0  0  0  0  0999 V2000
  136.0931  141.5399  103.8762 C   0  0  0  0  0  0  0  0  0  0  0  0
  136.3060  142.7613  103.2575 C   0  0  0  0  0  0  0  0  0  0  0  0
  135.5983  143.0679  102.0918 C   0  0  0  0  0  0  0  0  0  0  0  0
  134.6407  142.1949  101.5985 C   0  0  0  0  0  0  0  0  0  0  0  0
  134.4908  140.9429  102.1659 C   0  0  0  0  0  0  0  0  0  0  0  0
  135.1996  140.6241  103.3114 C   0  0  0  0  0  0  0  0  0  0  0  0
  135.8661  144.2555  101.3743 N   0  0  0  0  0  0  0  0  0  0  0  0
  137.1531  144.5453  100.7860 C   0  0  0  0  0  0  0  0  0  0  0  0
  136.9251  145.8075  100.0589 C   0  0  0  0  0  0  0  0  0  0  0  0
  135.6700  146.2184  100.2376 C   0  0  0  0  0  0  0  0  0  0  0  0
  134.9317  145.2075  101.0378 C   0  0  0  0  0  0  0  0  0  0  0  0
  133.7431  145.2068  101.3262 O   0  0  0  0  0  0  0  0  0  0  0  0
  135.0878  147.3384   99.6955 O   0  0  0  0  0  0  0  0  0  0  0  0
  135.1269  148.5027  100.4563 C   0  0  0  0  0  0  0  0  0  0  0  0
  135.7061  149.6286   99.8909 C   0  0  0  0  0  0  0  0  0  0  0  0
  135.7725  150.8054  100.6176 C   0  0  0  0  0  0  0  0  0  0  0  0
  135.2442  150.8865  101.9039 C   0  0  0  0  0  0  0  0  0  0  0  0
  134.6192  149.7591  102.4251 C   0  0  0  0  0  0  0  0  0  0  0  0
  134.5753  148.5618  101.7272 C   0  0  0  0  0  0  0  0  0  0  0  0
  135.3606  152.1329  102.6907 C   0  0  0  0  0  0  0  0  0  0  0  0
  134.1781  152.6271  103.4785 C   0  0  0  0  0  0  0  0  0  0  0  0
  135.3794  152.1296  104.1911 C   0  0  0  0  0  0  0  0  0  0  0  0
  136.9218  142.0649  106.0456 C   0  0  0  0  0  0  0  0  0  0  0  0
  136.7308  141.1058  105.0103 O   0  0  0  0  0  0  0  0  0  0  0  0
  135.0896  139.4366  103.9731 O   0  0  0  0  0  0  0  0  0  0  0  0
  134.5722  138.3608  103.1981 C   0  0  0  0  0  0  0  0  0  0  0  0
  134.6365  137.0787  103.9917 C   0  0  0  0  0  0  0  0  0  0  0  0
  134.3983  135.9591  103.1211 N   0  0  0  0  0  0  0  0  0  0  0  0
  133.5053  134.8447  103.4709 C   0  0  0  0  0  0  0  0  0  0  0  0
  134.5359  133.8557  102.9309 C   0  0  0  0  0  0  0  0  0  0  0  0
  135.4879  135.0483  102.7318 C   0  0  0  0  0  0  0  0  0  0  0  0
  134.0684  133.2367  101.7631 O   0  0  0  0  0  0  0  0  0  0  0  0
  135.0140  132.3495  101.1797 C   0  0  0  0  0  0  0  0  0  0  0  0
  137.0203  143.4682  103.6621 H   0  0  0  0  0  0  0  0  0  0  0  0
  133.9868  142.5368  100.8102 H   0  0  0  0  0  0  0  0  0  0  0  0
  133.7921  140.2425  101.7399 H   0  0  0  0  0  0  0  0  0  0  0  0
  137.4821  143.7177  100.1490 H   0  0  0  0  0  0  0  0  0  0  0  0
  137.9263  144.7149  101.5408 H   0  0  0  0  0  0  0  0  0  0  0  0
  137.7097  146.3280   99.5359 H   0  0  0  0  0  0  0  0  0  0  0  0
  136.1047  149.5697   98.8878 H   0  0  0  0  0  0  0  0  0  0  0  0
  136.2449  151.6767  100.1794 H   0  0  0  0  0  0  0  0  0  0  0  0
  134.1547  149.8182  103.3973 H   0  0  0  0  0  0  0  0  0  0  0  0
  134.1245  147.6814  102.1607 H   0  0  0  0  0  0  0  0  0  0  0  0
  135.9679  152.8961  102.2178 H   0  0  0  0  0  0  0  0  0  0  0  0
  133.3020  151.9956  103.4623 H   0  0  0  0  0  0  0  0  0  0  0  0
  133.9595  153.6851  103.5034 H   0  0  0  0  0  0  0  0  0  0  0  0
  135.3217  151.1849  104.7087 H   0  0  0  0  0  0  0  0  0  0  0  0
  135.9982  152.8557  104.6933 H   0  0  0  0  0  0  0  0  0  0  0  0
  137.3289  141.5237  106.8956 H   0  0  0  0  0  0  0  0  0  0  0  0
  135.9640  142.4895  106.3376 H   0  0  0  0  0  0  0  0  0  0  0  0
  137.6002  142.8627  105.7490 H   0  0  0  0  0  0  0  0  0  0  0  0
  135.1616  138.2878  102.2831 H   0  0  0  0  0  0  0  0  0  0  0  0
  133.5363  138.5579  102.9176 H   0  0  0  0  0  0  0  0  0  0  0  0
  133.8820  137.1332  104.7792 H   0  0  0  0  0  0  0  0  0  0  0  0
  135.6135  136.9936  104.4806 H   0  0  0  0  0  0  0  0  0  0  0  0
  132.5686  134.8488  102.9121 H   0  0  0  0  0  0  0  0  0  0  0  0
  133.2837  134.7204  104.5335 H   0  0  0  0  0  0  0  0  0  0  0  0
  134.8922  133.1140  103.6586 H   0  0  0  0  0  0  0  0  0  0  0  0
  135.8501  135.2005  101.7141 H   0  0  0  0  0  0  0  0  0  0  0  0
  136.3416  135.0405  103.4156 H   0  0  0  0  0  0  0  0  0  0  0  0
  134.5629  131.9351  100.2876 H   0  0  0  0  0  0  0  0  0  0  0  0
  135.2631  131.5370  101.8723 H   0  0  0  0  0  0  0  0  0  0  0  0
  135.9367  132.8557  100.8857 H   0  0  0  0  0  0  0  0  0  0  0  0
  1  2  2  0
  2  3  1  0
  2 34  1  0
  3  7  1  0
  3  4  2  0
  4  5  1  0
  4 35  1  0
  5  6  2  0
  5 36  1  0
  6 25  1  0
  6  1  1  0
  7  8  1  0
  8  9  1  0
  8 37  1  0
  8 38  1  0
  9 10  2  0
  9 39  1  0
 10 13  1  0
 10 11  1  0
 11 12  2  0
 11  7  1  0
 13 14  1  0
 14 15  2  0
 15 16  1  0
 15 40  1  0
 16 17  2  0
 16 41  1  0
 17 20  1  0
 17 18  1  0
 18 19  2  0
 18 42  1  0
 19 14  1  0
 19 43  1  0
 20 21  1  0
 20 44  1  0
 21 22  1  0
 21 45  1  0
 21 46  1  0
 22 20  1  0
 22 47  1  0
 22 48  1  0
 23 24  1  0
 23 49  1  0
 23 50  1  0
 23 51  1  0
 24  1  1  0
 25 26  1  0
 26 27  1  0
 26 52  1  0
 26 53  1  0
 27 28  1  0
 27 54  1  0
 27 55  1  0
 28 29  1  0
 29 30  1  0
 29 56  1  0
 29 57  1  0
 30 32  1  0
 30 31  1  0
 30 58  1  0
 31 28  1  0
 31 59  1  0
 31 60  1  0
 32 33  1  0
 33 61  1  0
 33 62  1  0
 33 63  1  0
M  END
>  <minimizedAffinity>  (6) 
-8.83095

>  <mol_id>  (6) 
87356

>  <source_index>  (6) 
5

>  <layer>  (6) 
L4

>  <uniprot>  (6) 
Q99705

>  <paff>  (6) 
9.3278999999999996

>  <smiles>  (6) 
COC1CN(CCOc2ccc(cc2OC)N2CC=C(Oc3ccc(cc3)C3CC3)C2=O)C1 |t:19|

>  <aimnet_interaction_kcal_mol>  (6) 
-64.321725868251917

$$$$
L4:Q99705:93256
     RDKit          3D

 58 62  0  0  0  0  0  0  0  0999 V2000
  136.9494  142.4665  101.9659 N   0  0  0  0  0  0  0  0  0  0  0  0
  138.1923  143.1062  101.5563 C   0  0  0  0  0  0  0  0  0  0  0  0
  137.8293  143.8486  100.3303 C   0  0  0  0  0  0  0  0  0  0  0  0
  136.5488  143.6319  100.0423 C   0  0  0  0  0  0  0  0  0  0  0  0
  135.9805  142.6479  100.9979 C   0  0  0  0  0  0  0  0  0  0  0  0
  134.8860  142.1102  100.9235 O   0  0  0  0  0  0  0  0  0  0  0  0
  135.7936  140.3825  104.7973 C   0  0  0  0  0  0  0  0  0  0  0  0
  135.8888  140.9049  103.5094 C   0  0  0  0  0  0  0  0  0  0  0  0
  136.7309  141.9907  103.2802 C   0  0  0  0  0  0  0  0  0  0  0  0
  137.3836  142.5872  104.3548 C   0  0  0  0  0  0  0  0  0  0  0  0
  137.2093  142.0975  105.6361 C   0  0  0  0  0  0  0  0  0  0  0  0
  136.4100  140.9986  105.8985 C   0  0  0  0  0  0  0  0  0  0  0  0
  134.5377  138.5053  104.0095 C   0  0  0  0  0  0  0  0  0  0  0  0
  135.1458  139.2090  105.0866 O   0  0  0  0  0  0  0  0  0  0  0  0
  136.2393  140.4680  107.2902 C   0  0  0  0  0  0  0  0  0  0  0  0
  136.8539  141.3119  108.2964 N   0  0  0  0  0  0  0  0  0  0  0  0
  136.8690  140.6515  109.6206 C   0  0  0  0  0  0  0  0  0  0  0  0
  135.5226  140.9312  110.2941 C   0  0  0  0  0  0  0  0  0  0  0  0
  134.9216  142.0961  109.4893 C   0  0  0  0  0  0  0  0  0  0  0  0
  136.0603  142.5221  108.5677 C   0  0  0  0  0  0  0  0  0  0  0  0
  135.7990  144.1704   99.0261 O   0  0  0  0  0  0  0  0  0  0  0  0
  135.3339  145.4696   99.2868 C   0  0  0  0  0  0  0  0  0  0  0  0
  135.4552  146.4271   98.2969 C   0  0  0  0  0  0  0  0  0  0  0  0
  135.1381  147.7474   98.5886 C   0  0  0  0  0  0  0  0  0  0  0  0
  134.6942  148.1234   99.8539 C   0  0  0  0  0  0  0  0  0  0  0  0
  134.5106  147.1198  100.8014 C   0  0  0  0  0  0  0  0  0  0  0  0
  134.7861  145.7958  100.5143 C   0  0  0  0  0  0  0  0  0  0  0  0
  134.4510  149.5316  100.2508 C   0  0  0  0  0  0  0  0  0  0  0  0
  133.1052  150.1752  100.0707 C   0  0  0  0  0  0  0  0  0  0  0  0
  134.2706  150.6439   99.2682 C   0  0  0  0  0  0  0  0  0  0  0  0
  138.9524  142.3523  101.3639 H   0  0  0  0  0  0  0  0  0  0  0  0
  138.5490  143.8014  102.3076 H   0  0  0  0  0  0  0  0  0  0  0  0
  138.5110  144.5222   99.8411 H   0  0  0  0  0  0  0  0  0  0  0  0
  135.3457  140.4866  102.6761 H   0  0  0  0  0  0  0  0  0  0  0  0
  138.0188  143.4501  104.2097 H   0  0  0  0  0  0  0  0  0  0  0  0
  137.6995  142.6035  106.4522 H   0  0  0  0  0  0  0  0  0  0  0  0
  134.0250  137.6500  104.4403 H   0  0  0  0  0  0  0  0  0  0  0  0
  135.2834  138.1635  103.2871 H   0  0  0  0  0  0  0  0  0  0  0  0
  133.8091  139.1331  103.5052 H   0  0  0  0  0  0  0  0  0  0  0  0
  136.6926  139.4751  107.3349 H   0  0  0  0  0  0  0  0  0  0  0  0
  135.1741  140.3037  107.5083 H   0  0  0  0  0  0  0  0  0  0  0  0
  137.6715  141.0848  110.2152 H   0  0  0  0  0  0  0  0  0  0  0  0
  137.0780  139.5911  109.5047 H   0  0  0  0  0  0  0  0  0  0  0  0
  135.6813  141.1811  111.3353 H   0  0  0  0  0  0  0  0  0  0  0  0
  134.8751  140.0638  110.2784 H   0  0  0  0  0  0  0  0  0  0  0  0
  134.5841  142.9157  110.1219 H   0  0  0  0  0  0  0  0  0  0  0  0
  134.0630  141.7742  108.9009 H   0  0  0  0  0  0  0  0  0  0  0  0
  136.7044  143.2296  109.0772 H   0  0  0  0  0  0  0  0  0  0  0  0
  135.7211  142.9819  107.6478 H   0  0  0  0  0  0  0  0  0  0  0  0
  135.8150  146.1444   97.3174 H   0  0  0  0  0  0  0  0  0  0  0  0
  135.2909  148.4951   97.8197 H   0  0  0  0  0  0  0  0  0  0  0  0
  134.1745  147.3762  101.7984 H   0  0  0  0  0  0  0  0  0  0  0  0
  134.5898  145.0293  101.2466 H   0  0  0  0  0  0  0  0  0  0  0  0
  134.9602  149.7999  101.1727 H   0  0  0  0  0  0  0  0  0  0  0  0
  132.7242  150.8031  100.8666 H   0  0  0  0  0  0  0  0  0  0  0  0
  132.3398  149.6031   99.5681 H   0  0  0  0  0  0  0  0  0  0  0  0
  134.7183  151.6005   99.5009 H   0  0  0  0  0  0  0  0  0  0  0  0
  134.2751  150.4203   98.2099 H   0  0  0  0  0  0  0  0  0  0  0  0
  1  2  1  0
  2  3  1  0
  2 31  1  0
  2 32  1  0
  3  4  2  0
  3 33  1  0
  4 21  1  0
  4  5  1  0
  5  6  2  0
  5  1  1  0
  7  8  2  0
  8  9  1  0
  8 34  1  0
  9  1  1  0
  9 10  2  0
 10 11  1  0
 10 35  1  0
 11 12  2  0
 11 36  1  0
 12 15  1  0
 12  7  1  0
 13 14  1  0
 13 37  1  0
 13 38  1  0
 13 39  1  0
 14  7  1  0
 15 16  1  0
 15 40  1  0
 15 41  1  0
 16 17  1  0
 17 18  1  0
 17 42  1  0
 17 43  1  0
 18 19  1  0
 18 44  1  0
 18 45  1  0
 19 20  1  0
 19 46  1  0
 19 47  1  0
 20 16  1  0
 20 48  1  0
 20 49  1  0
 21 22  1  0
 22 23  2  0
 23 24  1  0
 23 50  1  0
 24 25  2  0
 24 51  1  0
 25 28  1  0
 25 26  1  0
 26 27  2  0
 26 52  1  0
 27 22  1  0
 27 53  1  0
 28 29  1  0
 28 54  1  0
 29 30  1  0
 29 55  1  0
 29 56  1  0
 30 28  1  0
 30 57  1  0
 30 58  1  0
M  END
>  <minimizedAffinity>  (7) 
-9.18730

>  <mol_id>  (7) 
93256

>  <source_index>  (7) 
6

>  <layer>  (7) 
L4

>  <uniprot>  (7) 
Q99705

>  <paff>  (7) 
7.0044000000000004

>  <smiles>  (7) 
COc1cc(ccc1CN1CCCC1)N1CC=C(Oc2ccc(cc2)C2CC2)C1=O |t:18|

>  <aimnet_interaction_kcal_mol>  (7) 
-64.526258384640016

$$$$
L4:Q99705:106648
     RDKit          3D

 64 68  0  0  0  0  0  0  0  0999 V2000
  133.6311  145.7197  101.2607 O   0  0  0  0  0  0  0  0  0  0  0  0
  134.6693  145.7702  100.6162 C   0  0  0  0  0  0  0  0  0  0  0  0
  135.0312  146.8097   99.5988 C   0  0  0  0  0  0  0  0  0  0  0  0
  136.1961  146.4964   99.0427 C   0  0  0  0  0  0  0  0  0  0  0  0
  136.7534  145.2934   99.7090 C   0  0  0  0  0  0  0  0  0  0  0  0
  135.7199  144.8961  100.6411 N   0  0  0  0  0  0  0  0  0  0  0  0
  135.8385  143.7870  101.5831 C   0  0  1  0  0  0  0  0  0  0  0  0
  135.1906  142.5173  101.0672 C   0  0  0  0  0  0  0  0  0  0  0  0
  135.0870  141.4911  102.1984 C   0  0  0  0  0  0  0  0  0  0  0  0
  136.2723  141.5487  103.1587 C   0  0  1  0  0  0  0  0  0  0  0  0
  137.4880  142.0820  102.4446 C   0  0  0  0  0  0  0  0  0  0  0  0
  137.2777  143.5143  101.9899 C   0  0  0  0  0  0  0  0  0  0  0  0
  135.9771  142.3826  104.2898 O   0  0  0  0  0  0  0  0  0  0  0  0
  136.6992  142.0588  105.4736 C   0  0  0  0  0  0  0  0  0  0  0  0
  136.0441  140.9040  106.2521 C   0  0  0  0  0  0  0  0  0  0  0  0
  136.0585  140.9852  107.6970 N   0  0  0  0  0  0  0  0  0  0  0  0
  137.0387  140.1410  108.3800 C   0  0  0  0  0  0  0  0  0  0  0  0
  137.0274  140.6047  109.8361 C   0  0  0  0  0  0  0  0  0  0  0  0
  136.2559  141.9336  109.8186 C   0  0  0  0  0  0  0  0  0  0  0  0
  136.1777  142.2910  108.3452 C   0  0  0  0  0  0  0  0  0  0  0  0
  134.2161  147.8832   99.3305 O   0  0  0  0  0  0  0  0  0  0  0  0
  134.5180  149.0182  100.0815 C   0  0  0  0  0  0  0  0  0  0  0  0
  135.7508  149.6444   99.9859 C   0  0  0  0  0  0  0  0  0  0  0  0
  136.0375  150.7094  100.8217 C   0  0  0  0  0  0  0  0  0  0  0  0
  135.1295  151.1485  101.7818 C   0  0  0  0  0  0  0  0  0  0  0  0
  133.8826  150.5312  101.8248 C   0  0  0  0  0  0  0  0  0  0  0  0
  133.5603  149.5069  100.9521 C   0  0  0  0  0  0  0  0  0  0  0  0
  135.5112  152.2164  102.7273 C   0  0  0  0  0  0  0  0  0  0  0  0
  135.2369  152.0774  104.1942 C   0  0  0  0  0  0  0  0  0  0  0  0
  134.4846  153.0777  103.3996 C   0  0  0  0  0  0  0  0  0  0  0  0
  136.7082  147.0193   98.2517 H   0  0  0  0  0  0  0  0  0  0  0  0
  137.6772  145.5471  100.2393 H   0  0  0  0  0  0  0  0  0  0  0  0
  136.9955  144.4906   99.0072 H   0  0  0  0  0  0  0  0  0  0  0  0
  135.2659  144.0868  102.4545 H   0  0  0  0  0  0  0  0  0  0  0  0
  135.7867  142.1170  100.2384 H   0  0  0  0  0  0  0  0  0  0  0  0
  134.2003  142.7287  100.6694 H   0  0  0  0  0  0  0  0  0  0  0  0
  135.0289  140.4904  101.7702 H   0  0  0  0  0  0  0  0  0  0  0  0
  134.1791  141.6651  102.7622 H   0  0  0  0  0  0  0  0  0  0  0  0
  136.4622  140.5332  103.5229 H   0  0  0  0  0  0  0  0  0  0  0  0
  137.6688  141.4423  101.5845 H   0  0  0  0  0  0  0  0  0  0  0  0
  138.3719  142.0240  103.0729 H   0  0  0  0  0  0  0  0  0  0  0  0
  137.9563  143.7038  101.1656 H   0  0  0  0  0  0  0  0  0  0  0  0
  137.5781  144.2157  102.7614 H   0  0  0  0  0  0  0  0  0  0  0  0
  136.6946  142.9707  106.0560 H   0  0  0  0  0  0  0  0  0  0  0  0
  137.7524  141.8336  105.2631 H   0  0  0  0  0  0  0  0  0  0  0  0
  136.5194  139.9691  105.9407 H   0  0  0  0  0  0  0  0  0  0  0  0
  135.0117  140.8275  105.9090 H   0  0  0  0  0  0  0  0  0  0  0  0
  138.0282  140.2649  107.9312 H   0  0  0  0  0  0  0  0  0  0  0  0
  136.8058  139.0876  108.2473 H   0  0  0  0  0  0  0  0  0  0  0  0
  138.0365  140.7318  110.2223 H   0  0  0  0  0  0  0  0  0  0  0  0
  136.5339  139.8963  110.4942 H   0  0  0  0  0  0  0  0  0  0  0  0
  136.7406  142.7131  110.3981 H   0  0  0  0  0  0  0  0  0  0  0  0
  135.2568  141.7969  110.2237 H   0  0  0  0  0  0  0  0  0  0  0  0
  137.0990  142.8114  108.0435 H   0  0  0  0  0  0  0  0  0  0  0  0
  135.3456  142.9451  108.0979 H   0  0  0  0  0  0  0  0  0  0  0  0
  136.4809  149.3135   99.2635 H   0  0  0  0  0  0  0  0  0  0  0  0
  136.9988  151.2012  100.7354 H   0  0  0  0  0  0  0  0  0  0  0  0
  133.1478  150.8337  102.5592 H   0  0  0  0  0  0  0  0  0  0  0  0
  132.5740  149.0750  100.9631 H   0  0  0  0  0  0  0  0  0  0  0  0
  136.4262  152.7302  102.4618 H   0  0  0  0  0  0  0  0  0  0  0  0
  135.9682  152.4247  104.9055 H   0  0  0  0  0  0  0  0  0  0  0  0
  134.7072  151.1915  104.5113 H   0  0  0  0  0  0  0  0  0  0  0  0
  134.7077  154.1275  103.5162 H   0  0  0  0  0  0  0  0  0  0  0  0
  133.4467  152.8856  103.1810 H   0  0  0  0  0  0  0  0  0  0  0  0
  1  2  2  0
  2  3  1  0
  3 21  1  0
  3  4  2  0
  4  5  1  0
  4 31  1  0
  5  6  1  0
  5 32  1  0
  5 33  1  0
  6  7  1  0
  6  2  1  0
  7  8  1  0
  7 34  1  1
  8  9  1  0
  8 35  1  0
  8 36  1  0
  9 10  1  0
  9 37  1  0
  9 38  1  0
 10 13  1  0
 10 11  1  0
 10 39  1  1
 11 12  1  0
 11 40  1  0
 11 41  1  0
 12  7  1  0
 12 42  1  0
 12 43  1  0
 13 14  1  0
 14 15  1  0
 14 44  1  0
 14 45  1  0
 15 16  1  0
 15 46  1  0
 15 47  1  0
 16 17  1  0
 17 18  1  0
 17 48  1  0
 17 49  1  0
 18 19  1  0
 18 50  1  0
 18 51  1  0
 19 20  1  0
 19 52  1  0
 19 53  1  0
 20 16  1  0
 20 54  1  0
 20 55  1  0
 21 22  1  0
 22 23  2  0
 23 24  1  0
 23 56  1  0
 24 25  2  0
 24 57  1  0
 25 28  1  0
 25 26  1  0
 26 27  2  0
 26 58  1  0
 27 22  1  0
 27 59  1  0
 28 29  1  0
 28 60  1  0
 29 30  1  0
 29 61  1  0
 29 62  1  0
 30 28  1  0
 30 63  1  0
 30 64  1  0
M  END
>  <minimizedAffinity>  (8) 
-9.00988

>  <mol_id>  (8) 
106648

>  <source_index>  (8) 
7

>  <layer>  (8) 
L4

>  <uniprot>  (8) 
Q99705

>  <paff>  (8) 
7.6576000000000004

>  <smiles>  (8) 
O=C1N(CC=C1Oc1ccc(cc1)C1CC1)[C@H]1CC[C@@H](CC1)OCCN1CCCC1 |r,wU:16.18,wD:19.25,c:4,(-.66,2.73,;-1.43,1.39,;-.53,.15,;-1.43,-1.1,;-2.9,-.62,;-2.9,.92,;-4.23,1.69,;-5.56,.92,;-5.56,-.62,;-6.9,-1.39,;-8.23,-.62,;-8.23,.92,;-6.9,1.69,;-9.56,-1.39,;-11.1,-1.39,;-10.33,-2.73,;.96,.55,;1.36,2.03,;2.85,2.43,;3.94,1.34,;3.54,-.14,;2.05,-.54,;5.42,1.74,;6.51,.65,;8,1.05,;9.09,-.04,;8.61,-1.5,;9.86,-2.41,;11.1,-1.5,;10.63,-.04,)|

>  <aimnet_interaction_kcal_mol>  (8) 
-55.248675962503668

$$$$
L4:Q99705:121682
     RDKit          3D

 67 72  0  0  0  0  0  0  0  0999 V2000
  135.3767  146.3072   97.7950 C   0  0  0  0  0  0  0  0  0  0  0  0
  135.9849  145.1448   98.2551 C   0  0  0  0  0  0  0  0  0  0  0  0
  136.2253  144.9634   99.6088 C   0  0  0  0  0  0  0  0  0  0  0  0
  135.9035  145.9713  100.5079 C   0  0  0  0  0  0  0  0  0  0  0  0
  135.2483  147.1085  100.0645 C   0  0  0  0  0  0  0  0  0  0  0  0
  134.9615  147.2722   98.7229 C   0  0  0  0  0  0  0  0  0  0  0  0
  136.7922  143.7316  100.0765 N   0  0  0  0  0  0  0  0  0  0  0  0
  138.0811  143.7337  100.7517 C   0  0  0  0  0  0  0  0  0  0  0  0
  137.9364  142.7071  101.8062 C   0  0  0  0  0  0  0  0  0  0  0  0
  136.7230  142.1494  101.7151 C   0  0  0  0  0  0  0  0  0  0  0  0
  136.0317  142.6679  100.5136 C   0  0  0  0  0  0  0  0  0  0  0  0
  135.0198  142.2168   99.9890 O   0  0  0  0  0  0  0  0  0  0  0  0
  136.1042  141.1997  102.4550 O   0  0  0  0  0  0  0  0  0  0  0  0
  136.1669  141.2663  103.8387 C   0  0  0  0  0  0  0  0  0  0  0  0
  136.9180  142.1806  104.5609 C   0  0  0  0  0  0  0  0  0  0  0  0
  137.0043  142.0475  105.9435 C   0  0  0  0  0  0  0  0  0  0  0  0
  136.3463  141.0312  106.6320 C   0  0  0  0  0  0  0  0  0  0  0  0
  135.5166  140.1892  105.8868 C   0  0  0  0  0  0  0  0  0  0  0  0
  135.4136  140.3108  104.5117 C   0  0  0  0  0  0  0  0  0  0  0  0
  136.4754  140.8417  108.0995 C   0  0  0  0  0  0  0  0  0  0  0  0
  135.3924  141.3383  109.0146 C   0  0  0  0  0  0  0  0  0  0  0  0
  136.7371  141.9767  109.0310 C   0  0  0  0  0  0  0  0  0  0  0  0
  135.1455  145.4886   95.5853 C   0  0  0  0  0  0  0  0  0  0  0  0
  135.1670  146.5893   96.4794 O   0  0  0  0  0  0  0  0  0  0  0  0
  134.2133  148.3580   98.3085 O   0  0  0  0  0  0  0  0  0  0  0  0
  134.9636  149.5251   97.9530 C   0  0  0  0  0  0  0  0  0  0  0  0
  134.2507  150.7572   98.4480 C   0  0  0  0  0  0  0  0  0  0  0  0
  134.2318  150.8528   99.8858 N   0  0  0  0  0  0  0  0  0  0  0  0
  135.5174  151.1225  100.5691 C   0  0  0  0  0  0  0  0  0  0  0  0
  134.8548  152.2639  101.3584 C   0  0  0  0  0  0  0  0  0  0  0  0
  135.5265  153.5068  101.1605 O   0  0  0  0  0  0  0  0  0  0  0  0
  133.6491  152.0980  100.4194 C   0  0  0  0  0  0  0  0  0  0  0  0
  135.9964  153.7486  101.9715 H   0  0  0  0  0  0  0  0  0  0  0  0
  134.5067  152.0589  102.8116 C   0  0  0  0  0  0  0  0  0  0  0  0
  135.4431  151.4623  103.8101 C   0  0  0  0  0  0  0  0  0  0  0  0
  134.2153  150.7197  103.4046 C   0  0  0  0  0  0  0  0  0  0  0  0
  136.2682  144.3665   97.5638 H   0  0  0  0  0  0  0  0  0  0  0  0
  136.1776  145.8792  101.5479 H   0  0  0  0  0  0  0  0  0  0  0  0
  134.9392  147.8762  100.7591 H   0  0  0  0  0  0  0  0  0  0  0  0
  138.3001  144.7056  101.2031 H   0  0  0  0  0  0  0  0  0  0  0  0
  138.8899  143.5385  100.0346 H   0  0  0  0  0  0  0  0  0  0  0  0
  138.6680  142.5147  102.5719 H   0  0  0  0  0  0  0  0  0  0  0  0
  137.4115  143.0050  104.0741 H   0  0  0  0  0  0  0  0  0  0  0  0
  137.5879  142.7838  106.4785 H   0  0  0  0  0  0  0  0  0  0  0  0
  134.9003  139.4516  106.3764 H   0  0  0  0  0  0  0  0  0  0  0  0
  134.7326  139.6851  103.9520 H   0  0  0  0  0  0  0  0  0  0  0  0
  136.9226  139.8914  108.3718 H   0  0  0  0  0  0  0  0  0  0  0  0
  135.1005  140.7310  109.8578 H   0  0  0  0  0  0  0  0  0  0  0  0
  134.5836  141.9049  108.5727 H   0  0  0  0  0  0  0  0  0  0  0  0
  137.3679  141.7991  109.8883 H   0  0  0  0  0  0  0  0  0  0  0  0
  136.8224  142.9689  108.6164 H   0  0  0  0  0  0  0  0  0  0  0  0
  134.7654  145.8771   94.6454 H   0  0  0  0  0  0  0  0  0  0  0  0
  134.4831  144.7023   95.9460 H   0  0  0  0  0  0  0  0  0  0  0  0
  136.1459  145.0793   95.4279 H   0  0  0  0  0  0  0  0  0  0  0  0
  135.0568  149.5555   96.8654 H   0  0  0  0  0  0  0  0  0  0  0  0
  135.9691  149.4777   98.3747 H   0  0  0  0  0  0  0  0  0  0  0  0
  133.2203  150.7492   98.0864 H   0  0  0  0  0  0  0  0  0  0  0  0
  134.7409  151.6374   97.9984 H   0  0  0  0  0  0  0  0  0  0  0  0
  136.2936  151.5198   99.9083 H   0  0  0  0  0  0  0  0  0  0  0  0
  135.9204  150.2793  101.1264 H   0  0  0  0  0  0  0  0  0  0  0  0
  133.5846  152.9136   99.6889 H   0  0  0  0  0  0  0  0  0  0  0  0
  132.6794  151.9686  100.9047 H   0  0  0  0  0  0  0  0  0  0  0  0
  133.8973  152.8782  103.1832 H   0  0  0  0  0  0  0  0  0  0  0  0
  135.4663  151.8984  104.7976 H   0  0  0  0  0  0  0  0  0  0  0  0
  136.4033  151.0957  103.4862 H   0  0  0  0  0  0  0  0  0  0  0  0
  133.4059  150.6598  104.1162 H   0  0  0  0  0  0  0  0  0  0  0  0
  134.3329  149.8404  102.7909 H   0  0  0  0  0  0  0  0  0  0  0  0
  1  2  2  0
  2  3  1  0
  2 37  1  0
  3  7  1  0
  3  4  2  0
  4  5  1  0
  4 38  1  0
  5  6  2  0
  5 39  1  0
  6 25  1  0
  6  1  1  0
  7  8  1  0
  8  9  1  0
  8 40  1  0
  8 41  1  0
  9 10  2  0
  9 42  1  0
 10 13  1  0
 10 11  1  0
 11 12  2  0
 11  7  1  0
 13 14  1  0
 14 15  2  0
 15 16  1  0
 15 43  1  0
 16 17  2  0
 16 44  1  0
 17 20  1  0
 17 18  1  0
 18 19  2  0
 18 45  1  0
 19 14  1  0
 19 46  1  0
 20 21  1  0
 20 47  1  0
 21 22  1  0
 21 48  1  0
 21 49  1  0
 22 20  1  0
 22 50  1  0
 22 51  1  0
 23 24  1  0
 23 52  1  0
 23 53  1  0
 23 54  1  0
 24  1  1  0
 25 26  1  0
 26 27  1  0
 26 55  1  0
 26 56  1  0
 27 28  1  0
 27 57  1  0
 27 58  1  0
 28 29  1  0
 29 30  1  0
 29 59  1  0
 29 60  1  0
 30 31  1  0
 30 34  1  0
 30 32  1  0
 31 33  1  0
 32 28  1  0
 32 61  1  0
 32 62  1  0
 34 35  1  0
 34 63  1  0
 35 36  1  0
 35 64  1  0
 35 65  1  0
 36 34  1  0
 36 66  1  0
 36 67  1  0
M  END
>  <minimizedAffinity>  (9) 
-8.92534

>  <mol_id>  (9) 
121682

>  <source_index>  (9) 
8

>  <layer>  (9) 
L4

>  <uniprot>  (9) 
Q99705

>  <paff>  (9) 
9.4088999999999992

>  <smiles>  (9) 
COc1cc(N2CC=C(Oc3ccc(C4CC4)cc3)C2=O)ccc1OCCN1CC(O)(C2CC2)C1

>  <aimnet_interaction_kcal_mol>  (9) 
-78.90381103761338

$$$$
L4:Q99705:124879
     RDKit          3D

 64 68  0  0  0  0  0  0  0  0999 V2000
  135.9147  140.8230  104.5779 C   0  0  0  0  0  0  0  0  0  0  0  0
  136.1508  141.9903  103.8605 C   0  0  0  0  0  0  0  0  0  0  0  0
  135.5909  142.1785  102.5952 C   0  0  0  0  0  0  0  0  0  0  0  0
  134.8343  141.1714  102.0186 C   0  0  0  0  0  0  0  0  0  0  0  0
  134.7339  139.9471  102.6517 C   0  0  0  0  0  0  0  0  0  0  0  0
  135.2699  139.7705  103.9181 C   0  0  0  0  0  0  0  0  0  0  0  0
  135.7674  143.3979  101.9043 N   0  0  0  0  0  0  0  0  0  0  0  0
  137.0590  144.0200  101.6996 C   0  0  0  0  0  0  0  0  0  0  0  0
  136.7492  145.2412  100.9289 C   0  0  0  0  0  0  0  0  0  0  0  0
  135.4293  145.3458  100.7644 C   0  0  0  0  0  0  0  0  0  0  0  0
  134.7547  144.1686  101.3690 C   0  0  0  0  0  0  0  0  0  0  0  0
  133.5560  143.9211  101.3877 O   0  0  0  0  0  0  0  0  0  0  0  0
  134.7183  146.3114  100.1029 O   0  0  0  0  0  0  0  0  0  0  0  0
  134.8667  147.6036  100.6250 C   0  0  0  0  0  0  0  0  0  0  0  0
  135.6725  148.5252   99.9794 C   0  0  0  0  0  0  0  0  0  0  0  0
  135.7868  149.8096  100.4935 C   0  0  0  0  0  0  0  0  0  0  0  0
  135.0937  150.1925  101.6412 C   0  0  0  0  0  0  0  0  0  0  0  0
  134.2430  149.2620  102.2268 C   0  0  0  0  0  0  0  0  0  0  0  0
  134.1848  147.9552  101.7733 C   0  0  0  0  0  0  0  0  0  0  0  0
  135.3068  151.5236  102.2513 C   0  0  0  0  0  0  0  0  0  0  0  0
  135.2198  151.7165  103.7403 C   0  0  0  0  0  0  0  0  0  0  0  0
  134.1677  152.2920  102.8605 C   0  0  0  0  0  0  0  0  0  0  0  0
  136.8075  141.8925  106.7187 C   0  0  0  0  0  0  0  0  0  0  0  0
  136.2760  140.6540  106.0211 C   0  0  0  0  0  0  0  0  0  0  0  0
  135.2709  138.5681  104.5836 O   0  0  0  0  0  0  0  0  0  0  0  0
  134.3316  137.5508  104.2223 C   0  0  0  0  0  0  0  0  0  0  0  0
  135.1063  136.3564  103.6854 C   0  0  0  0  0  0  0  0  0  0  0  0
  134.3531  135.1385  103.5128 N   0  0  0  0  0  0  0  0  0  0  0  0
  134.8036  134.3066  102.4023 C   0  0  0  0  0  0  0  0  0  0  0  0
  133.7429  133.2301  102.3130 C   0  0  0  0  0  0  0  0  0  0  0  0
  132.4573  133.9790  102.6650 C   0  0  0  0  0  0  0  0  0  0  0  0
  132.9005  135.1171  103.5930 C   0  0  0  0  0  0  0  0  0  0  0  0
  136.7607  142.7746  104.2864 H   0  0  0  0  0  0  0  0  0  0  0  0
  134.3042  141.3671  101.0999 H   0  0  0  0  0  0  0  0  0  0  0  0
  134.2351  139.1421  102.1364 H   0  0  0  0  0  0  0  0  0  0  0  0
  137.7421  143.3407  101.1833 H   0  0  0  0  0  0  0  0  0  0  0  0
  137.5356  144.2937  102.6372 H   0  0  0  0  0  0  0  0  0  0  0  0
  137.5215  145.9354  100.6518 H   0  0  0  0  0  0  0  0  0  0  0  0
  136.2154  148.2327   99.0912 H   0  0  0  0  0  0  0  0  0  0  0  0
  136.4293  150.5275   99.9963 H   0  0  0  0  0  0  0  0  0  0  0  0
  133.6159  149.5705  103.0511 H   0  0  0  0  0  0  0  0  0  0  0  0
  133.6369  147.2008  102.3161 H   0  0  0  0  0  0  0  0  0  0  0  0
  136.0630  152.1176  101.7479 H   0  0  0  0  0  0  0  0  0  0  0  0
  135.9173  152.3906  104.2155 H   0  0  0  0  0  0  0  0  0  0  0  0
  134.9669  150.8606  104.3516 H   0  0  0  0  0  0  0  0  0  0  0  0
  134.1468  153.3622  102.7130 H   0  0  0  0  0  0  0  0  0  0  0  0
  133.1899  151.8280  102.8594 H   0  0  0  0  0  0  0  0  0  0  0  0
  137.1482  141.6527  107.7259 H   0  0  0  0  0  0  0  0  0  0  0  0
  136.0434  142.6577  106.8205 H   0  0  0  0  0  0  0  0  0  0  0  0
  137.6396  142.3461  106.1854 H   0  0  0  0  0  0  0  0  0  0  0  0
  135.3924  140.2989  106.5499 H   0  0  0  0  0  0  0  0  0  0  0  0
  136.9904  139.8391  106.1223 H   0  0  0  0  0  0  0  0  0  0  0  0
  133.6055  137.9056  103.4944 H   0  0  0  0  0  0  0  0  0  0  0  0
  133.7695  137.2992  105.1125 H   0  0  0  0  0  0  0  0  0  0  0  0
  135.9391  136.1534  104.3641 H   0  0  0  0  0  0  0  0  0  0  0  0
  135.5702  136.6726  102.7427 H   0  0  0  0  0  0  0  0  0  0  0  0
  135.8054  133.9159  102.5918 H   0  0  0  0  0  0  0  0  0  0  0  0
  134.8499  134.8631  101.4583 H   0  0  0  0  0  0  0  0  0  0  0  0
  133.9477  132.4517  103.0465 H   0  0  0  0  0  0  0  0  0  0  0  0
  133.7067  132.7626  101.3302 H   0  0  0  0  0  0  0  0  0  0  0  0
  131.7137  133.3375  103.1359 H   0  0  0  0  0  0  0  0  0  0  0  0
  132.0083  134.3882  101.7623 H   0  0  0  0  0  0  0  0  0  0  0  0
  132.5732  134.9544  104.6243 H   0  0  0  0  0  0  0  0  0  0  0  0
  132.4491  136.0548  103.2747 H   0  0  0  0  0  0  0  0  0  0  0  0
  1  2  2  0
  2  3  1  0
  2 33  1  0
  3  7  1  0
  3  4  2  0
  4  5  1  0
  4 34  1  0
  5  6  2  0
  5 35  1  0
  6 25  1  0
  6  1  1  0
  7  8  1  0
  8  9  1  0
  8 36  1  0
  8 37  1  0
  9 10  2  0
  9 38  1  0
 10 13  1  0
 10 11  1  0
 11 12  2  0
 11  7  1  0
 13 14  1  0
 14 15  2  0
 15 16  1  0
 15 39  1  0
 16 17  2  0
 16 40  1  0
 17 20  1  0
 17 18  1  0
 18 19  2  0
 18 41  1  0
 19 14  1  0
 19 42  1  0
 20 21  1  0
 20 43  1  0
 21 22  1  0
 21 44  1  0
 21 45  1  0
 22 20  1  0
 22 46  1  0
 22 47  1  0
 23 24  1  0
 23 48  1  0
 23 49  1  0
 23 50  1  0
 24  1  1  0
 24 51  1  0
 24 52  1  0
 25 26  1  0
 26 27  1  0
 26 53  1  0
 26 54  1  0
 27 28  1  0
 27 55  1  0
 27 56  1  0
 28 29  1  0
 29 30  1  0
 29 57  1  0
 29 58  1  0
 30 31  1  0
 30 59  1  0
 30 60  1  0
 31 32  1  0
 31 61  1  0
 31 62  1  0
 32 28  1  0
 32 63  1  0
 32 64  1  0
M  END
>  <minimizedAffinity>  (10) 
-9.75805

>  <mol_id>  (10) 
124879

>  <source_index>  (10) 
9

>  <layer>  (10) 
L4

>  <uniprot>  (10) 
Q99705

>  <paff>  (10) 
9.3278999999999996

>  <smiles>  (10) 
CCc1cc(ccc1OCCN1CCCC1)N1CC=C(Oc2ccc(cc2)C2CC2)C1=O |t:20|

>  <aimnet_interaction_kcal_mol>  (10) 
-59.799049062515166

$$$$
