L4:Q99705:17978
     RDKit          3D

 72 77  0  0  0  0  0  0  0  0999 V2000
  135.8888  141.2194  104.0057 C   0  0  0  0  0  0  0  0  0  0  0  0
  135.9796  142.4168  103.2671 C   0  0  0  0  0  0  0  0  0  0  0  0
  135.4260  142.5428  101.9859 C   0  0  0  0  0  0  0  0  0  0  0  0
  134.7808  141.4188  101.4466 C   0  0  0  0  0  0  0  0  0  0  0  0
  134.6861  140.2199  102.1637 C   0  0  0  0  0  0  0  0  0  0  0  0
  135.2216  140.1248  103.4465 C   0  0  0  0  0  0  0  0  0  0  0  0
  135.5132  143.7533  101.2435 N   0  0  0  0  0  0  0  0  0  0  0  0
  136.7072  144.1382  100.5282 C   0  0  0  0  0  0  0  0  0  0  0  0
  136.3332  145.4482   99.9396 C   0  0  0  0  0  0  0  0  0  0  0  0
  135.0874  145.7992  100.2663 C   0  0  0  0  0  0  0  0  0  0  0  0
  134.5093  144.7194  101.0992 C   0  0  0  0  0  0  0  0  0  0  0  0
  133.3784  144.7573  101.5498 O   0  0  0  0  0  0  0  0  0  0  0  0
  134.4000  146.9067   99.8568 O   0  0  0  0  0  0  0  0  0  0  0  0
  134.6867  148.0985  100.4783 C   0  0  0  0  0  0  0  0  0  0  0  0
  134.0233  148.3468  101.6762 C   0  0  0  0  0  0  0  0  0  0  0  0
  134.2782  149.5231  102.3913 C   0  0  0  0  0  0  0  0  0  0  0  0
  135.2067  150.4803  101.9432 C   0  0  0  0  0  0  0  0  0  0  0  0
  135.8721  150.1920  100.7376 C   0  0  0  0  0  0  0  0  0  0  0  0
  135.6244  149.0175  100.0143 C   0  0  0  0  0  0  0  0  0  0  0  0
  135.4579  151.7323  102.7647 C   0  0  0  0  0  0  0  0  0  0  0  0
  134.6402  152.0612  103.9896 C   0  0  0  0  0  0  0  0  0  0  0  0
  134.4733  152.8770  102.7391 C   0  0  0  0  0  0  0  0  0  0  0  0
  137.0344  142.5055  105.8324 C   0  0  0  0  0  0  0  0  0  0  0  0
  136.5311  141.1456  105.3708 C   0  0  0  0  0  0  0  0  0  0  0  0
  135.1798  138.9641  104.1712 O   0  0  0  0  0  0  0  0  0  0  0  0
  134.4344  137.9159  103.5349 C   0  0  0  0  0  0  0  0  0  0  0  0
  135.3367  136.6706  103.4620 C   0  0  0  0  0  0  0  0  0  0  0  0
  134.6795  135.3552  103.4609 N   0  0  0  0  0  0  0  0  0  0  0  0
  133.2291  135.4437  103.6762 C   0  0  0  0  0  0  0  0  0  0  0  0
  132.4898  134.1351  103.3570 C   0  0  0  0  0  0  0  0  0  0  0  0
  133.4417  132.9503  103.5119 C   0  0  0  0  0  0  0  0  0  0  0  0
  133.7792  132.6018  104.9810 C   0  0  0  0  0  0  0  0  0  0  0  0
  132.8331  131.5016  104.9667 O   0  0  0  0  0  0  0  0  0  0  0  0
  132.7547  131.5713  103.5231 C   0  0  0  0  0  0  0  0  0  0  0  0
  134.6335  133.0588  102.5568 C   0  0  0  0  0  0  0  0  0  0  0  0
  135.0281  134.5222  102.3145 C   0  0  0  0  0  0  0  0  0  0  0  0
  136.4686  143.2251  103.6826 H   0  0  0  0  0  0  0  0  0  0  0  0
  134.3680  141.4773  100.5026 H   0  0  0  0  0  0  0  0  0  0  0  0
  134.2178  139.4035  101.7404 H   0  0  0  0  0  0  0  0  0  0  0  0
  136.9448  143.4270   99.7649 H   0  0  0  0  0  0  0  0  0  0  0  0
  137.5757  144.1874  101.1513 H   0  0  0  0  0  0  0  0  0  0  0  0
  136.9596  146.0181   99.3498 H   0  0  0  0  0  0  0  0  0  0  0  0
  133.3416  147.6619  102.0384 H   0  0  0  0  0  0  0  0  0  0  0  0
  133.7699  149.6931  103.2732 H   0  0  0  0  0  0  0  0  0  0  0  0
  136.5640  150.8663  100.3747 H   0  0  0  0  0  0  0  0  0  0  0  0
  136.1370  148.8336   99.1377 H   0  0  0  0  0  0  0  0  0  0  0  0
  136.5035  151.6158  102.5695 H   0  0  0  0  0  0  0  0  0  0  0  0
  135.1128  152.4901  104.8484 H   0  0  0  0  0  0  0  0  0  0  0  0
  133.9794  151.5115  104.6268 H   0  0  0  0  0  0  0  0  0  0  0  0
  134.8274  153.8862  102.7079 H   0  0  0  0  0  0  0  0  0  0  0  0
  133.6450  153.1479  102.1182 H   0  0  0  0  0  0  0  0  0  0  0  0
  137.4810  142.4108  106.8001 H   0  0  0  0  0  0  0  0  0  0  0  0
  136.2142  143.1908  105.8836 H   0  0  0  0  0  0  0  0  0  0  0  0
  137.7619  142.8711  105.1381 H   0  0  0  0  0  0  0  0  0  0  0  0
  135.8093  140.7863  106.0743 H   0  0  0  0  0  0  0  0  0  0  0  0
  137.3697  140.4840  105.3086 H   0  0  0  0  0  0  0  0  0  0  0  0
  134.1517  138.2182  102.5482 H   0  0  0  0  0  0  0  0  0  0  0  0
  133.5458  137.7003  104.0906 H   0  0  0  0  0  0  0  0  0  0  0  0
  135.9929  136.7003  104.3067 H   0  0  0  0  0  0  0  0  0  0  0  0
  135.8159  136.7367  102.5076 H   0  0  0  0  0  0  0  0  0  0  0  0
  132.8385  136.2170  103.0483 H   0  0  0  0  0  0  0  0  0  0  0  0
  133.0734  135.6523  104.7141 H   0  0  0  0  0  0  0  0  0  0  0  0
  132.1261  134.1691  102.3513 H   0  0  0  0  0  0  0  0  0  0  0  0
  131.6694  134.0193  104.0341 H   0  0  0  0  0  0  0  0  0  0  0  0
  133.5320  133.3760  105.6770 H   0  0  0  0  0  0  0  0  0  0  0  0
  134.7954  132.4259  105.2661 H   0  0  0  0  0  0  0  0  0  0  0  0
  131.7535  131.5854  103.1460 H   0  0  0  0  0  0  0  0  0  0  0  0
  133.1580  130.7751  102.9329 H   0  0  0  0  0  0  0  0  0  0  0  0
  134.3717  132.6098  101.6215 H   0  0  0  0  0  0  0  0  0  0  0  0
  135.4667  132.5553  103.0008 H   0  0  0  0  0  0  0  0  0  0  0  0
  134.5133  134.8846  101.4493 H   0  0  0  0  0  0  0  0  0  0  0  0
  136.0870  134.5697  102.1684 H   0  0  0  0  0  0  0  0  0  0  0  0
  1  2  2  0
  2  3  1  0
  2 37  1  0
  3  4  2  0
  3  7  1  0
  4  5  1  0
  4 38  1  0
  5  6  2  0
  5 39  1  0
  6 25  1  0
  6  1  1  0
  7  8  1  0
  8  9  1  0
  8 40  1  0
  8 41  1  0
  9 10  2  0
  9 42  1  0
 10 13  1  0
 10 11  1  0
 11 12  2  0
 11  7  1  0
 13 14  1  0
 14 15  2  0
 15 16  1  0
 15 43  1  0
 16 17  2  0
 16 44  1  0
 17 18  1  0
 17 20  1  0
 18 19  2  0
 18 45  1  0
 19 14  1  0
 19 46  1  0
 20 21  1  0
 20 47  1  0
 21 22  1  0
 21 48  1  0
 21 49  1  0
 22 20  1  0
 22 50  1  0
 22 51  1  0
 23 24  1  0
 23 52  1  0
 23 53  1  0
 23 54  1  0
 24  1  1  0
 24 55  1  0
 24 56  1  0
 25 26  1  0
 26 27  1  0
 26 57  1  0
 26 58  1  0
 27 28  1  0
 27 59  1  0
 27 60  1  0
 28 29  1  0
 29 30  1  0
 29 61  1  0
 29 62  1  0
 30 31  1  0
 30 63  1  0
 30 64  1  0
 31 32  1  0
 31 35  1  0
 32 33  1  0
 32 65  1  0
 32 66  1  0
 33 34  1  0
 34 31  1  0
 34 67  1  0
 34 68  1  0
 35 36  1  0
 35 69  1  0
 35 70  1  0
 36 28  1  0
 36 71  1  0
 36 72  1  0
M  END
>  <minimizedAffinity>  (1) 
-9.03536

>  <mol_id>  (1) 
17978

>  <source_index>  (1) 
0

>  <layer>  (1) 
L4

>  <uniprot>  (1) 
Q99705

>  <paff>  (1) 
9.3565000000000005

>  <smiles>  (1) 
CCc1cc(ccc1OCCN1CCC2(COC2)CC1)N1CC=C(Oc2ccc(cc2)C2CC2)C1=O |t:25|

$$$$
L4:Q99705:30174
     RDKit          3D

 51 54  0  0  0  0  0  0  0  0999 V2000
  135.5723  144.0655  101.1536 N   0  0  0  0  0  0  0  0  0  0  0  0
  136.7401  144.4606  100.4048 C   0  0  0  0  0  0  0  0  0  0  0  0
  136.3595  145.7948   99.8813 C   0  0  0  0  0  0  0  0  0  0  0  0
  135.1163  146.1438  100.2359 C   0  0  0  0  0  0  0  0  0  0  0  0
  134.5582  145.0220  101.0379 C   0  0  0  0  0  0  0  0  0  0  0  0
  133.4183  145.0059  101.4710 O   0  0  0  0  0  0  0  0  0  0  0  0
  136.0790  141.4574  103.8204 C   0  0  0  0  0  0  0  0  0  0  0  0
  136.1507  142.6676  103.1144 C   0  0  0  0  0  0  0  0  0  0  0  0
  135.5093  142.8357  101.8758 C   0  0  0  0  0  0  0  0  0  0  0  0
  134.7998  141.7413  101.3479 C   0  0  0  0  0  0  0  0  0  0  0  0
  134.7118  140.5333  102.0429 C   0  0  0  0  0  0  0  0  0  0  0  0
  135.3588  140.3955  103.2665 C   0  0  0  0  0  0  0  0  0  0  0  0
  136.4970  142.1624  106.0525 C   0  0  0  0  0  0  0  0  0  0  0  0
  136.6903  141.2010  105.0225 O   0  0  0  0  0  0  0  0  0  0  0  0
  135.2254  139.2324  103.9800 O   0  0  0  0  0  0  0  0  0  0  0  0
  134.3799  138.2940  103.2860 C   0  0  0  0  0  0  0  0  0  0  0  0
  134.9304  136.9005  103.5689 C   0  0  0  0  0  0  0  0  0  0  0  0
  135.7796  136.4765  102.5047 O   0  0  0  0  0  0  0  0  0  0  0  0
  136.3618  137.2379  102.2896 H   0  0  0  0  0  0  0  0  0  0  0  0
  134.3863  147.2678   99.9422 O   0  0  0  0  0  0  0  0  0  0  0  0
  134.6637  148.3994  100.6675 C   0  0  0  0  0  0  0  0  0  0  0  0
  135.5308  149.3591  100.1522 C   0  0  0  0  0  0  0  0  0  0  0  0
  135.8079  150.5146  100.8954 C   0  0  0  0  0  0  0  0  0  0  0  0
  135.2204  150.7451  102.1591 C   0  0  0  0  0  0  0  0  0  0  0  0
  134.3329  149.7546  102.6363 C   0  0  0  0  0  0  0  0  0  0  0  0
  134.0487  148.5978  101.8999 C   0  0  0  0  0  0  0  0  0  0  0  0
  135.4863  151.9875  102.9977 C   0  0  0  0  0  0  0  0  0  0  0  0
  134.7947  152.2129  104.3198 C   0  0  0  0  0  0  0  0  0  0  0  0
  134.4396  153.0739  103.1385 C   0  0  0  0  0  0  0  0  0  0  0  0
  136.9363  143.7752   99.6069 H   0  0  0  0  0  0  0  0  0  0  0  0
  137.6345  144.4755  100.9919 H   0  0  0  0  0  0  0  0  0  0  0  0
  136.9817  146.3868   99.3090 H   0  0  0  0  0  0  0  0  0  0  0  0
  136.6874  143.4531  103.5144 H   0  0  0  0  0  0  0  0  0  0  0  0
  134.3361  141.8330  100.4305 H   0  0  0  0  0  0  0  0  0  0  0  0
  134.1699  139.7473  101.6510 H   0  0  0  0  0  0  0  0  0  0  0  0
  137.0194  141.8516  106.9331 H   0  0  0  0  0  0  0  0  0  0  0  0
  135.4526  142.2481  106.2690 H   0  0  0  0  0  0  0  0  0  0  0  0
  136.8735  143.1108  105.7304 H   0  0  0  0  0  0  0  0  0  0  0  0
  134.3999  138.4900  102.2343 H   0  0  0  0  0  0  0  0  0  0  0  0
  133.3659  138.3775  103.6174 H   0  0  0  0  0  0  0  0  0  0  0  0
  134.1164  136.2128  103.6659 H   0  0  0  0  0  0  0  0  0  0  0  0
  135.4977  136.9287  104.4757 H   0  0  0  0  0  0  0  0  0  0  0  0
  135.9674  149.2203   99.2275 H   0  0  0  0  0  0  0  0  0  0  0  0
  136.4588  151.2160  100.5089 H   0  0  0  0  0  0  0  0  0  0  0  0
  133.8808  149.8875  103.5545 H   0  0  0  0  0  0  0  0  0  0  0  0
  133.3873  147.8968  102.2689 H   0  0  0  0  0  0  0  0  0  0  0  0
  136.5059  151.9488  102.6756 H   0  0  0  0  0  0  0  0  0  0  0  0
  135.3372  152.6313  105.1417 H   0  0  0  0  0  0  0  0  0  0  0  0
  134.2419  151.5958  104.9969 H   0  0  0  0  0  0  0  0  0  0  0  0
  134.7310  154.1033  103.1198 H   0  0  0  0  0  0  0  0  0  0  0  0
  133.5324  153.3215  102.6280 H   0  0  0  0  0  0  0  0  0  0  0  0
  1  2  1  0
  2  3  1  0
  2 30  1  0
  2 31  1  0
  3  4  2  0
  3 32  1  0
  4 20  1  0
  4  5  1  0
  5  6  2  0
  5  1  1  0
  7  8  2  0
  8  9  1  0
  8 33  1  0
  9  1  1  0
  9 10  2  0
 10 11  1  0
 10 34  1  0
 11 12  2  0
 11 35  1  0
 12 15  1  0
 12  7  1  0
 13 14  1  0
 13 36  1  0
 13 37  1  0
 13 38  1  0
 14  7  1  0
 15 16  1  0
 16 17  1  0
 16 39  1  0
 16 40  1  0
 17 18  1  0
 17 41  1  0
 17 42  1  0
 18 19  1  0
 20 21  1  0
 21 22  2  0
 22 23  1  0
 22 43  1  0
 23 24  2  0
 23 44  1  0
 24 27  1  0
 24 25  1  0
 25 26  2  0
 25 45  1  0
 26 21  1  0
 26 46  1  0
 27 28  1  0
 27 47  1  0
 28 29  1  0
 28 48  1  0
 28 49  1  0
 29 27  1  0
 29 50  1  0
 29 51  1  0
M  END
>  <minimizedAffinity>  (2) 
-8.01756

>  <mol_id>  (2) 
30174

>  <source_index>  (2) 
1

>  <layer>  (2) 
L4

>  <uniprot>  (2) 
Q99705

>  <paff>  (2) 
8.3872

>  <smiles>  (2) 
COc1cc(N2CC=C(Oc3ccc(C4CC4)cc3)C2=O)ccc1OCCO

$$$$
L4:Q99705:54330
     RDKit          3D

 62 66  0  0  0  0  0  0  0  0999 V2000
  136.5471  148.3003   99.1998 C   0  0  0  0  0  0  0  0  0  0  0  0
  136.7387  146.9224   99.3865 C   0  0  0  0  0  0  0  0  0  0  0  0
  135.8273  146.1471  100.1162 C   0  0  0  0  0  0  0  0  0  0  0  0
  134.7126  146.7989  100.6635 C   0  0  0  0  0  0  0  0  0  0  0  0
  134.5028  148.1700  100.4726 C   0  0  0  0  0  0  0  0  0  0  0  0
  135.4036  148.9217   99.7235 C   0  0  0  0  0  0  0  0  0  0  0  0
  136.0038  144.7451  100.2958 N   0  0  0  0  0  0  0  0  0  0  0  0
  137.1398  144.0359   99.7587 C   0  0  0  0  0  0  0  0  0  0  0  0
  136.9153  142.6488  100.2315 C   0  0  0  0  0  0  0  0  0  0  0  0
  135.7979  142.5347  100.9581 C   0  0  0  0  0  0  0  0  0  0  0  0
  135.1639  143.8771  101.0039 C   0  0  0  0  0  0  0  0  0  0  0  0
  134.1115  144.0971  101.5789 O   0  0  0  0  0  0  0  0  0  0  0  0
  135.2286  141.4399  101.5576 O   0  0  0  0  0  0  0  0  0  0  0  0
  135.5353  141.2232  102.8769 C   0  0  0  0  0  0  0  0  0  0  0  0
  135.2021  140.0146  103.4790 C   0  0  0  0  0  0  0  0  0  0  0  0
  135.5229  139.8015  104.8229 C   0  0  0  0  0  0  0  0  0  0  0  0
  136.1935  140.7770  105.5800 C   0  0  0  0  0  0  0  0  0  0  0  0
  136.5351  141.9787  104.9338 C   0  0  0  0  0  0  0  0  0  0  0  0
  136.2225  142.2005  103.5896 C   0  0  0  0  0  0  0  0  0  0  0  0
  136.5067  140.5505  107.0393 C   0  0  0  0  0  0  0  0  0  0  0  0
  136.7535  141.7296  107.9481 C   0  0  0  0  0  0  0  0  0  0  0  0
  135.5003  140.9236  108.1066 C   0  0  0  0  0  0  0  0  0  0  0  0
  138.7159  149.2565   99.0107 C   0  0  0  0  0  0  0  0  0  0  0  0
  137.4031  149.1038   98.4834 O   0  0  0  0  0  0  0  0  0  0  0  0
  135.2726  150.2656   99.4894 O   0  0  0  0  0  0  0  0  0  0  0  0
  135.4526  151.1377  100.6081 C   0  0  0  0  0  0  0  0  0  0  0  0
  134.0832  151.6932  101.0429 C   0  0  0  0  0  0  0  0  0  0  0  0
  133.9435  151.8471  102.5001 N   0  0  0  0  0  0  0  0  0  0  0  0
  134.9615  152.7123  103.1059 C   0  0  0  0  0  0  0  0  0  0  0  0
  134.8074  152.3991  104.5836 C   0  0  0  0  0  0  0  0  0  0  0  0
  134.5789  150.9007  104.6020 C   0  0  1  0  0  0  0  0  0  0  0  0
  133.6790  150.5840  105.5658 F   0  0  0  0  0  0  0  0  0  0  0  0
  134.0412  150.5600  103.2125 C   0  0  0  0  0  0  0  0  0  0  0  0
  137.5705  146.4694   98.9767 H   0  0  0  0  0  0  0  0  0  0  0  0
  134.0326  146.2564  101.2187 H   0  0  0  0  0  0  0  0  0  0  0  0
  133.6760  148.6257  100.8894 H   0  0  0  0  0  0  0  0  0  0  0  0
  138.0572  144.4303  100.1431 H   0  0  0  0  0  0  0  0  0  0  0  0
  137.2222  144.1124   98.6946 H   0  0  0  0  0  0  0  0  0  0  0  0
  137.5488  141.8611  100.0238 H   0  0  0  0  0  0  0  0  0  0  0  0
  134.7211  139.2797  102.9371 H   0  0  0  0  0  0  0  0  0  0  0  0
  135.2615  138.9082  105.2687 H   0  0  0  0  0  0  0  0  0  0  0  0
  137.0280  142.7138  105.4645 H   0  0  0  0  0  0  0  0  0  0  0  0
  136.4992  143.0819  103.1297 H   0  0  0  0  0  0  0  0  0  0  0  0
  137.0422  139.6606  106.7819 H   0  0  0  0  0  0  0  0  0  0  0  0
  136.7025  142.7245  107.5575 H   0  0  0  0  0  0  0  0  0  0  0  0
  137.5478  142.0249  108.6013 H   0  0  0  0  0  0  0  0  0  0  0  0
  134.5561  141.3429  107.8280 H   0  0  0  0  0  0  0  0  0  0  0  0
  135.0318  140.4063  108.9177 H   0  0  0  0  0  0  0  0  0  0  0  0
  139.2846  149.8989   98.3713 H   0  0  0  0  0  0  0  0  0  0  0  0
  139.1907  148.2993   99.0683 H   0  0  0  0  0  0  0  0  0  0  0  0
  138.6596  149.6861   99.9890 H   0  0  0  0  0  0  0  0  0  0  0  0
  136.0955  151.9470  100.3312 H   0  0  0  0  0  0  0  0  0  0  0  0
  135.8946  150.5964  101.4184 H   0  0  0  0  0  0  0  0  0  0  0  0
  133.3224  151.0238  100.6993 H   0  0  0  0  0  0  0  0  0  0  0  0
  133.9912  152.6695  100.6148 H   0  0  0  0  0  0  0  0  0  0  0  0
  134.7634  153.7444  102.9050 H   0  0  0  0  0  0  0  0  0  0  0  0
  135.9491  152.5426  102.7307 H   0  0  0  0  0  0  0  0  0  0  0  0
  133.9703  152.9194  105.0002 H   0  0  0  0  0  0  0  0  0  0  0  0
  135.6535  152.7002  105.1653 H   0  0  0  0  0  0  0  0  0  0  0  0
  135.4712  150.3516  104.8193 H   0  0  0  0  0  0  0  0  0  0  0  0
  133.0780  150.1000  103.2869 H   0  0  0  0  0  0  0  0  0  0  0  0
  134.6779  149.8701  102.6992 H   0  0  0  0  0  0  0  0  0  0  0  0
  1  2  2  0
  2  3  1  0
  2 34  1  0
  3  7  1  0
  3  4  2  0
  4  5  1  0
  4 35  1  0
  5  6  2  0
  5 36  1  0
  6 25  1  0
  6  1  1  0
  7  8  1  0
  8  9  1  0
  8 37  1  0
  8 38  1  0
  9 10  2  0
  9 39  1  0
 10 13  1  0
 10 11  1  0
 11 12  2  0
 11  7  1  0
 13 14  1  0
 14 15  2  0
 15 16  1  0
 15 40  1  0
 16 17  2  0
 16 41  1  0
 17 20  1  0
 17 18  1  0
 18 19  2  0
 18 42  1  0
 19 14  1  0
 19 43  1  0
 20 21  1  0
 20 44  1  0
 21 22  1  0
 21 45  1  0
 21 46  1  0
 22 20  1  0
 22 47  1  0
 22 48  1  0
 23 24  1  0
 23 49  1  0
 23 50  1  0
 23 51  1  0
 24  1  1  0
 25 26  1  0
 26 27  1  0
 26 52  1  0
 26 53  1  0
 27 28  1  0
 27 54  1  0
 27 55  1  0
 28 29  1  0
 29 30  1  0
 29 56  1  0
 29 57  1  0
 30 31  1  0
 30 58  1  0
 30 59  1  0
 31 32  1  0
 31 33  1  0
 31 60  1  1
 33 28  1  0
 33 61  1  0
 33 62  1  0
M  END
>  <minimizedAffinity>  (3) 
-8.76883

>  <mol_id>  (3) 
54330

>  <source_index>  (3) 
2

>  <layer>  (3) 
L4

>  <uniprot>  (3) 
Q99705

>  <paff>  (3) 
9.1937999999999995

>  <smiles>  (3) 
COc1cc(N2CC=C(Oc3ccc(C4CC4)cc3)C2=O)ccc1OCCN1CC[C@@H](F)C1

$$$$
L4:Q99705:55671
     RDKit          3D

 65 69  0  0  0  0  0  0  0  0999 V2000
  136.4887  141.6238  102.7199 C   0  0  1  0  0  0  0  0  0  0  0  0
  135.3231  141.4953  101.7412 C   0  0  0  0  0  0  0  0  0  0  0  0
  134.7203  142.8513  101.3610 C   0  0  0  0  0  0  0  0  0  0  0  0
  135.7511  143.9932  101.3462 C   0  0  1  0  0  0  0  0  0  0  0  0
  137.1652  143.4723  101.0646 C   0  0  0  0  0  0  0  0  0  0  0  0
  137.6294  142.4619  102.1207 C   0  0  0  0  0  0  0  0  0  0  0  0
  135.3570  145.0627  100.4309 N   0  0  0  0  0  0  0  0  0  0  0  0
  136.0926  145.3128   99.2201 C   0  0  0  0  0  0  0  0  0  0  0  0
  135.5056  146.5978   98.7671 C   0  0  0  0  0  0  0  0  0  0  0  0
  134.5917  147.0758   99.6191 C   0  0  0  0  0  0  0  0  0  0  0  0
  134.5283  146.1285  100.7638 C   0  0  0  0  0  0  0  0  0  0  0  0
  133.9095  146.2818  101.8009 O   0  0  0  0  0  0  0  0  0  0  0  0
  133.9418  148.2794   99.4806 O   0  0  0  0  0  0  0  0  0  0  0  0
  134.2904  149.2874  100.3403 C   0  0  0  0  0  0  0  0  0  0  0  0
  133.4208  149.6217  101.3721 C   0  0  0  0  0  0  0  0  0  0  0  0
  133.7842  150.6146  102.2855 C   0  0  0  0  0  0  0  0  0  0  0  0
  135.0281  151.2644  102.2063 C   0  0  0  0  0  0  0  0  0  0  0  0
  135.8912  150.8902  101.1619 C   0  0  0  0  0  0  0  0  0  0  0  0
  135.5335  149.9042  100.2381 C   0  0  0  0  0  0  0  0  0  0  0  0
  135.4026  152.3528  103.1835 C   0  0  0  0  0  0  0  0  0  0  0  0
  134.3550  153.3297  103.6656 C   0  0  0  0  0  0  0  0  0  0  0  0
  134.9042  152.3044  104.6089 C   0  0  0  0  0  0  0  0  0  0  0  0
  135.9866  142.2626  103.9018 O   0  0  0  0  0  0  0  0  0  0  0  0
  136.8101  142.0762  105.0595 C   0  0  0  0  0  0  0  0  0  0  0  0
  135.9499  141.7839  106.3044 C   0  0  0  0  0  0  0  0  0  0  0  0
  136.5880  139.7121  110.4003 O   0  0  0  0  0  0  0  0  0  0  0  0
  137.2645  140.6807  109.6017 C   0  0  2  0  0  0  0  0  0  0  0  0
  136.7361  142.0838  109.9025 C   0  0  0  0  0  0  0  0  0  0  0  0
  135.8808  142.4268  108.6907 C   0  0  0  0  0  0  0  0  0  0  0  0
  136.6078  141.7753  107.6101 N   0  0  0  0  0  0  0  0  0  0  0  0
  136.9856  140.4521  108.1090 C   0  0  0  0  0  0  0  0  0  0  0  0
  135.6352  139.9031  110.3667 H   0  0  0  0  0  0  0  0  0  0  0  0
  136.8853  140.6549  102.9406 H   0  0  0  0  0  0  0  0  0  0  0  0
  134.5606  140.8961  102.1933 H   0  0  0  0  0  0  0  0  0  0  0  0
  135.6997  141.0459  100.8462 H   0  0  0  0  0  0  0  0  0  0  0  0
  133.9555  143.0934  102.0690 H   0  0  0  0  0  0  0  0  0  0  0  0
  134.3352  142.7593  100.3669 H   0  0  0  0  0  0  0  0  0  0  0  0
  135.7722  144.4223  102.3262 H   0  0  0  0  0  0  0  0  0  0  0  0
  137.8429  144.3003  101.0581 H   0  0  0  0  0  0  0  0  0  0  0  0
  137.1503  142.9750  100.1173 H   0  0  0  0  0  0  0  0  0  0  0  0
  138.1069  142.9982  102.9140 H   0  0  0  0  0  0  0  0  0  0  0  0
  138.2928  141.7805  101.6302 H   0  0  0  0  0  0  0  0  0  0  0  0
  135.9337  144.5369   98.5006 H   0  0  0  0  0  0  0  0  0  0  0  0
  137.1533  145.3458   99.3569 H   0  0  0  0  0  0  0  0  0  0  0  0
  135.7732  147.0714   97.8901 H   0  0  0  0  0  0  0  0  0  0  0  0
  132.5128  149.1397  101.4628 H   0  0  0  0  0  0  0  0  0  0  0  0
  133.1248  150.8767  103.0348 H   0  0  0  0  0  0  0  0  0  0  0  0
  136.8092  151.3537  101.0753 H   0  0  0  0  0  0  0  0  0  0  0  0
  136.1867  149.6356   99.4856 H   0  0  0  0  0  0  0  0  0  0  0  0
  136.3630  152.4333  102.7186 H   0  0  0  0  0  0  0  0  0  0  0  0
  133.3472  153.2482  103.3156 H   0  0  0  0  0  0  0  0  0  0  0  0
  134.2656  154.3959  103.6779 H   0  0  0  0  0  0  0  0  0  0  0  0
  134.2881  151.4915  104.9320 H   0  0  0  0  0  0  0  0  0  0  0  0
  135.3685  152.3370  105.5724 H   0  0  0  0  0  0  0  0  0  0  0  0
  137.4720  141.2528  104.8898 H   0  0  0  0  0  0  0  0  0  0  0  0
  137.3668  142.9737  105.2314 H   0  0  0  0  0  0  0  0  0  0  0  0
  135.1812  142.5273  106.3410 H   0  0  0  0  0  0  0  0  0  0  0  0
  135.6176  140.7761  106.1674 H   0  0  0  0  0  0  0  0  0  0  0  0
  138.3066  140.5876  109.8257 H   0  0  0  0  0  0  0  0  0  0  0  0
  137.5427  142.7790  110.0070 H   0  0  0  0  0  0  0  0  0  0  0  0
  136.1856  142.1273  110.8190 H   0  0  0  0  0  0  0  0  0  0  0  0
  135.8271  143.4848  108.5401 H   0  0  0  0  0  0  0  0  0  0  0  0
  134.8630  142.1085  108.7781 H   0  0  0  0  0  0  0  0  0  0  0  0
  137.8613  140.0935  107.6095 H   0  0  0  0  0  0  0  0  0  0  0  0
  136.2261  139.7174  107.9408 H   0  0  0  0  0  0  0  0  0  0  0  0
  1 23  1  0
  1  2  1  0
  1 33  1  1
  2  3  1  0
  2 34  1  0
  2 35  1  0
  3  4  1  0
  3 36  1  0
  3 37  1  0
  4  5  1  0
  4  7  1  0
  4 38  1  1
  5  6  1  0
  5 39  1  0
  5 40  1  0
  6  1  1  0
  6 41  1  0
  6 42  1  0
  7  8  1  0
  8  9  1  0
  8 43  1  0
  8 44  1  0
  9 10  2  0
  9 45  1  0
 10 13  1  0
 10 11  1  0
 11 12  2  0
 11  7  1  0
 13 14  1  0
 14 15  2  0
 15 16  1  0
 15 46  1  0
 16 17  2  0
 16 47  1  0
 17 18  1  0
 17 20  1  0
 18 19  2  0
 18 48  1  0
 19 14  1  0
 19 49  1  0
 20 21  1  0
 20 50  1  0
 21 22  1  0
 21 51  1  0
 21 52  1  0
 22 20  1  0
 22 53  1  0
 22 54  1  0
 24 23  1  0
 24 55  1  0
 24 56  1  0
 25 24  1  0
 25 57  1  0
 25 58  1  0
 26 32  1  0
 27 26  1  0
 27 28  1  0
 27 59  1  6
 28 29  1  0
 28 60  1  0
 28 61  1  0
 29 30  1  0
 29 62  1  0
 29 63  1  0
 30 25  1  0
 30 31  1  0
 31 27  1  0
 31 64  1  0
 31 65  1  0
M  END
>  <minimizedAffinity>  (4) 
-8.74739

>  <mol_id>  (4) 
55671

>  <source_index>  (4) 
3

>  <layer>  (4) 
L4

>  <uniprot>  (4) 
Q99705

>  <paff>  (4) 
7.3872

>  <smiles>  (4) 
O[C@@H]1CCN(CCO[C@H]2CC[C@@H](CC2)N2CC=C(Oc3ccc(cc3)C3CC3)C2=O)C1 |r,wU:11.14,wD:8.7,1.0,t:17,(11.77,-.73,;10.44,-1.5,;9.19,-2.41,;7.95,-1.5,;8.42,-.04,;7.33,1.05,;5.85,.65,;4.76,1.74,;3.27,1.34,;2.18,2.43,;.69,2.03,;.29,.55,;1.38,-.54,;2.87,-.14,;-1.19,.15,;-2.1,-1.1,;-3.56,-.62,;-3.56,.92,;-4.9,1.69,;-6.23,.92,;-6.23,-.62,;-7.56,-1.39,;-8.9,-.62,;-8.9,.92,;-7.56,1.69,;-10.23,-1.39,;-11.77,-1.39,;-11,-2.73,;-2.1,1.39,;-1.33,2.73,;9.96,-.04,)|

$$$$
L4:Q99705:66091
     RDKit          3D

 66 70  0  0  0  0  0  0  0  0999 V2000
  135.5938  147.7067   97.8683 C   0  0  0  0  0  0  0  0  0  0  0  0
  135.8020  146.3828   98.2888 C   0  0  0  0  0  0  0  0  0  0  0  0
  136.0910  146.0743   99.6300 C   0  0  0  0  0  0  0  0  0  0  0  0
  136.1737  147.1367  100.5351 C   0  0  0  0  0  0  0  0  0  0  0  0
  135.9495  148.4587  100.1318 C   0  0  0  0  0  0  0  0  0  0  0  0
  135.6414  148.7518   98.8048 C   0  0  0  0  0  0  0  0  0  0  0  0
  136.2706  144.7234  100.0441 N   0  0  0  0  0  0  0  0  0  0  0  0
  137.4359  143.9501   99.6874 C   0  0  0  0  0  0  0  0  0  0  0  0
  137.1388  142.6168  100.2665 C   0  0  0  0  0  0  0  0  0  0  0  0
  135.9606  142.5943  100.9025 C   0  0  0  0  0  0  0  0  0  0  0  0
  135.3743  143.9550  100.7959 C   0  0  0  0  0  0  0  0  0  0  0  0
  134.3037  144.2600  101.2952 O   0  0  0  0  0  0  0  0  0  0  0  0
  135.3213  141.5903  101.5806 O   0  0  0  0  0  0  0  0  0  0  0  0
  135.6625  141.3909  102.8931 C   0  0  0  0  0  0  0  0  0  0  0  0
  135.3131  140.2038  103.5310 C   0  0  0  0  0  0  0  0  0  0  0  0
  135.6244  140.0305  104.8819 C   0  0  0  0  0  0  0  0  0  0  0  0
  136.2668  141.0404  105.6216 C   0  0  0  0  0  0  0  0  0  0  0  0
  136.6050  142.2265  104.9452 C   0  0  0  0  0  0  0  0  0  0  0  0
  136.2994  142.4099  103.5932 C   0  0  0  0  0  0  0  0  0  0  0  0
  136.5946  140.8507  107.0832 C   0  0  0  0  0  0  0  0  0  0  0  0
  136.7087  142.0540  107.9912 C   0  0  0  0  0  0  0  0  0  0  0  0
  135.5429  141.1247  108.1350 C   0  0  0  0  0  0  0  0  0  0  0  0
  136.2951  147.8270   95.5911 C   0  0  0  0  0  0  0  0  0  0  0  0
  135.2976  148.0655   96.5751 O   0  0  0  0  0  0  0  0  0  0  0  0
  135.4000  150.0152   98.3278 O   0  0  0  0  0  0  0  0  0  0  0  0
  136.2550  151.0610   98.7991 C   0  0  0  0  0  0  0  0  0  0  0  0
  135.3706  152.2034   99.3207 C   0  0  0  0  0  0  0  0  0  0  0  0
  134.1037  151.7436   99.8916 N   0  0  0  0  0  0  0  0  0  0  0  0
  132.9786  152.6076   99.5282 C   0  0  0  0  0  0  0  0  0  0  0  0
  131.8782  152.2338  100.5133 C   0  0  0  0  0  0  0  0  0  0  0  0
  132.5513  151.3465  101.5533 C   0  0  0  0  0  0  0  0  0  0  0  0
  134.0503  151.5791  101.3525 C   0  0  2  0  0  0  0  0  0  0  0  0
  134.5647  152.7560  102.2119 C   0  0  0  0  0  0  0  0  0  0  0  0
  135.8714  152.4871  102.7170 O   0  0  0  0  0  0  0  0  0  0  0  0
  136.4737  152.4296  101.9528 H   0  0  0  0  0  0  0  0  0  0  0  0
  135.7415  145.6189   97.5976 H   0  0  0  0  0  0  0  0  0  0  0  0
  136.4050  146.9423  101.5219 H   0  0  0  0  0  0  0  0  0  0  0  0
  136.0130  149.2223  100.8231 H   0  0  0  0  0  0  0  0  0  0  0  0
  138.3218  144.3681  100.1179 H   0  0  0  0  0  0  0  0  0  0  0  0
  137.6180  143.9220   98.6334 H   0  0  0  0  0  0  0  0  0  0  0  0
  137.7669  141.8017  100.1883 H   0  0  0  0  0  0  0  0  0  0  0  0
  134.8276  139.4571  103.0097 H   0  0  0  0  0  0  0  0  0  0  0  0
  135.3779  139.1429  105.3471 H   0  0  0  0  0  0  0  0  0  0  0  0
  137.0900  142.9788  105.4588 H   0  0  0  0  0  0  0  0  0  0  0  0
  136.5442  143.2933  103.1192 H   0  0  0  0  0  0  0  0  0  0  0  0
  137.2241  140.0214  106.8365 H   0  0  0  0  0  0  0  0  0  0  0  0
  136.5622  143.0374  107.5957 H   0  0  0  0  0  0  0  0  0  0  0  0
  137.4595  142.4310  108.6538 H   0  0  0  0  0  0  0  0  0  0  0  0
  134.5650  141.4451  107.8419 H   0  0  0  0  0  0  0  0  0  0  0  0
  135.1187  140.5650  108.9423 H   0  0  0  0  0  0  0  0  0  0  0  0
  135.9379  148.1500   94.6356 H   0  0  0  0  0  0  0  0  0  0  0  0
  136.5167  146.7808   95.5541 H   0  0  0  0  0  0  0  0  0  0  0  0
  137.1816  148.3706   95.8429 H   0  0  0  0  0  0  0  0  0  0  0  0
  136.8697  151.4152   97.9982 H   0  0  0  0  0  0  0  0  0  0  0  0
  136.8888  150.6971   99.5806 H   0  0  0  0  0  0  0  0  0  0  0  0
  135.1559  152.8646   98.5073 H   0  0  0  0  0  0  0  0  0  0  0  0
  135.9125  152.6895  100.1049 H   0  0  0  0  0  0  0  0  0  0  0  0
  132.6661  152.4189   98.5224 H   0  0  0  0  0  0  0  0  0  0  0  0
  133.2312  153.6463   99.5747 H   0  0  0  0  0  0  0  0  0  0  0  0
  131.0956  151.7000  100.0157 H   0  0  0  0  0  0  0  0  0  0  0  0
  131.4306  153.0984  100.9572 H   0  0  0  0  0  0  0  0  0  0  0  0
  132.3038  150.3186  101.3890 H   0  0  0  0  0  0  0  0  0  0  0  0
  132.2357  151.5795  102.5488 H   0  0  0  0  0  0  0  0  0  0  0  0
  134.7080  150.8020  101.6819 H   0  0  0  0  0  0  0  0  0  0  0  0
  133.8963  152.9077  103.0336 H   0  0  0  0  0  0  0  0  0  0  0  0
  134.6097  153.6318  101.5988 H   0  0  0  0  0  0  0  0  0  0  0  0
  1  2  2  0
  2  3  1  0
  2 36  1  0
  3  7  1  0
  3  4  2  0
  4  5  1  0
  4 37  1  0
  5  6  2  0
  5 38  1  0
  6 25  1  0
  6  1  1  0
  7  8  1  0
  8  9  1  0
  8 39  1  0
  8 40  1  0
  9 10  2  0
  9 41  1  0
 10 13  1  0
 10 11  1  0
 11 12  2  0
 11  7  1  0
 13 14  1  0
 14 15  2  0
 15 16  1  0
 15 42  1  0
 16 17  2  0
 16 43  1  0
 17 20  1  0
 17 18  1  0
 18 19  2  0
 18 44  1  0
 19 14  1  0
 19 45  1  0
 20 21  1  0
 20 46  1  0
 21 22  1  0
 21 47  1  0
 21 48  1  0
 22 20  1  0
 22 49  1  0
 22 50  1  0
 23 24  1  0
 23 51  1  0
 23 52  1  0
 23 53  1  0
 24  1  1  0
 25 26  1  0
 26 27  1  0
 26 54  1  0
 26 55  1  0
 27 28  1  0
 27 56  1  0
 27 57  1  0
 28 29  1  0
 29 30  1  0
 29 58  1  0
 29 59  1  0
 30 31  1  0
 30 60  1  0
 30 61  1  0
 31 32  1  0
 31 62  1  0
 31 63  1  0
 32 33  1  0
 32 28  1  0
 32 64  1  6
 33 34  1  0
 33 65  1  0
 33 66  1  0
 34 35  1  0
M  END
>  <minimizedAffinity>  (5) 
-7.73177

>  <mol_id>  (5) 
66091

>  <source_index>  (5) 
4

>  <layer>  (5) 
L4

>  <uniprot>  (5) 
Q99705

>  <paff>  (5) 
9.1870999999999992

>  <smiles>  (5) 
COc1cc(N2CC=C(Oc3ccc(C4CC4)cc3)C2=O)ccc1OCCN1CCC[C@@H]1CO

$$$$
L4:Q99705:87356
     RDKit          3D

 63 67  0  0  0  0  0  0  0  0999 V2000
  135.8687  142.6317  101.6147 C   0  0  0  0  0  0  0  0  0  0  0  0
  134.6393  143.2805  101.6970 C   0  0  0  0  0  0  0  0  0  0  0  0
  134.4697  144.5535  101.1338 C   0  0  0  0  0  0  0  0  0  0  0  0
  135.5195  145.2101  100.4783 C   0  0  0  0  0  0  0  0  0  0  0  0
  136.7673  144.5683  100.4472 C   0  0  0  0  0  0  0  0  0  0  0  0
  136.9429  143.3091  101.0328 C   0  0  0  0  0  0  0  0  0  0  0  0
  135.3351  146.4708   99.8466 N   0  0  0  0  0  0  0  0  0  0  0  0
  135.3666  146.6286   98.4108 C   0  0  0  0  0  0  0  0  0  0  0  0
  135.0290  148.0642   98.2295 C   0  0  0  0  0  0  0  0  0  0  0  0
  134.8185  148.6756   99.3995 C   0  0  0  0  0  0  0  0  0  0  0  0
  135.0420  147.6845  100.4792 C   0  0  0  0  0  0  0  0  0  0  0  0
  134.9516  147.9562  101.6642 O   0  0  0  0  0  0  0  0  0  0  0  0
  134.5285  149.9892   99.6512 O   0  0  0  0  0  0  0  0  0  0  0  0
  133.2062  150.3279   99.8048 C   0  0  0  0  0  0  0  0  0  0  0  0
  132.5659  150.2941  101.0413 C   0  0  0  0  0  0  0  0  0  0  0  0
  131.2319  150.7078  101.1425 C   0  0  0  0  0  0  0  0  0  0  0  0
  130.5047  151.1734  100.0273 C   0  0  0  0  0  0  0  0  0  0  0  0
  131.1903  151.2117   98.7987 C   0  0  0  0  0  0  0  0  0  0  0  0
  132.5272  150.8029   98.6863 C   0  0  0  0  0  0  0  0  0  0  0  0
  129.0633  151.6121  100.2081 C   0  0  0  0  0  0  0  0  0  0  0  0
  127.9450  150.6822   99.8031 C   0  0  0  0  0  0  0  0  0  0  0  0
  128.1438  151.0286  101.2506 C   0  0  0  0  0  0  0  0  0  0  0  0
  138.1850  142.7327  100.9295 O   0  0  0  0  0  0  0  0  0  0  0  0
  138.8614  143.2360   99.7744 C   0  0  0  0  0  0  0  0  0  0  0  0
  136.0970  141.3701  102.0991 O   0  0  0  0  0  0  0  0  0  0  0  0
  135.8570  141.2184  103.5058 C   0  0  0  0  0  0  0  0  0  0  0  0
  137.0887  141.7382  104.2678 C   0  0  0  0  0  0  0  0  0  0  0  0
  136.2744  141.3026  107.5191 C   0  0  0  0  0  0  0  0  0  0  0  0
  136.2514  140.4870  106.2012 C   0  0  0  0  0  0  0  0  0  0  0  0
  137.3038  141.3819  105.6772 N   0  0  0  0  0  0  0  0  0  0  0  0
  136.8998  142.4214  106.6438 C   0  0  0  0  0  0  0  0  0  0  0  0
  134.8329  141.1682  109.4665 C   0  0  0  0  0  0  0  0  0  0  0  0
  134.9833  141.5757  108.1149 O   0  0  0  0  0  0  0  0  0  0  0  0
  133.8483  142.8217  102.1753 H   0  0  0  0  0  0  0  0  0  0  0  0
  133.5505  145.0173  101.2038 H   0  0  0  0  0  0  0  0  0  0  0  0
  137.5663  145.0311   99.9863 H   0  0  0  0  0  0  0  0  0  0  0  0
  134.6416  145.9996   97.9380 H   0  0  0  0  0  0  0  0  0  0  0  0
  136.3052  146.3561   97.9753 H   0  0  0  0  0  0  0  0  0  0  0  0
  134.9648  148.5323   97.3120 H   0  0  0  0  0  0  0  0  0  0  0  0
  133.0720  149.9658  101.8786 H   0  0  0  0  0  0  0  0  0  0  0  0
  130.7659  150.6708  102.0626 H   0  0  0  0  0  0  0  0  0  0  0  0
  130.6961  151.5496   97.9581 H   0  0  0  0  0  0  0  0  0  0  0  0
  133.0075  150.8542   97.7743 H   0  0  0  0  0  0  0  0  0  0  0  0
  129.3726  152.6092   99.9734 H   0  0  0  0  0  0  0  0  0  0  0  0
  128.1696  149.6962   99.4535 H   0  0  0  0  0  0  0  0  0  0  0  0
  127.1253  150.7389   99.1177 H   0  0  0  0  0  0  0  0  0  0  0  0
  128.5094  150.2888  101.9318 H   0  0  0  0  0  0  0  0  0  0  0  0
  127.5233  151.4339  102.0224 H   0  0  0  0  0  0  0  0  0  0  0  0
  139.8277  142.7824   99.7010 H   0  0  0  0  0  0  0  0  0  0  0  0
  138.9710  144.2970   99.8593 H   0  0  0  0  0  0  0  0  0  0  0  0
  138.2916  143.0052   98.8986 H   0  0  0  0  0  0  0  0  0  0  0  0
  134.9929  141.7829  103.7878 H   0  0  0  0  0  0  0  0  0  0  0  0
  135.6872  140.1884  103.7407 H   0  0  0  0  0  0  0  0  0  0  0  0
  137.9480  141.3942  103.7309 H   0  0  0  0  0  0  0  0  0  0  0  0
  136.9144  142.7930  104.3121 H   0  0  0  0  0  0  0  0  0  0  0  0
  136.7288  140.9567  108.4240 H   0  0  0  0  0  0  0  0  0  0  0  0
  135.3249  140.5332  105.6679 H   0  0  0  0  0  0  0  0  0  0  0  0
  136.3769  139.4244  106.2037 H   0  0  0  0  0  0  0  0  0  0  0  0
  136.1957  143.1311  106.2625 H   0  0  0  0  0  0  0  0  0  0  0  0
  137.6116  143.1103  107.0483 H   0  0  0  0  0  0  0  0  0  0  0  0
  133.8489  141.4155  109.8062 H   0  0  0  0  0  0  0  0  0  0  0  0
  135.5566  141.6711  110.0733 H   0  0  0  0  0  0  0  0  0  0  0  0
  134.9799  140.1108  109.5387 H   0  0  0  0  0  0  0  0  0  0  0  0
  1  2  2  0
  2  3  1  0
  2 34  1  0
  3  4  2  0
  3 35  1  0
  4  5  1  0
  4  7  1  0
  5  6  2  0
  5 36  1  0
  6 23  1  0
  6  1  1  0
  7  8  1  0
  8  9  1  0
  8 37  1  0
  8 38  1  0
  9 10  2  0
  9 39  1  0
 10 13  1  0
 10 11  1  0
 11 12  2  0
 11  7  1  0
 13 14  1  0
 14 15  2  0
 15 16  1  0
 15 40  1  0
 16 17  2  0
 16 41  1  0
 17 18  1  0
 17 20  1  0
 18 19  2  0
 18 42  1  0
 19 14  1  0
 19 43  1  0
 20 21  1  0
 20 44  1  0
 21 22  1  0
 21 45  1  0
 21 46  1  0
 22 20  1  0
 22 47  1  0
 22 48  1  0
 23 24  1  0
 24 49  1  0
 24 50  1  0
 24 51  1  0
 25  1  1  0
 26 25  1  0
 26 52  1  0
 26 53  1  0
 27 26  1  0
 27 54  1  0
 27 55  1  0
 28 29  1  0
 28 56  1  0
 29 30  1  0
 29 57  1  0
 29 58  1  0
 30 27  1  0
 30 31  1  0
 31 28  1  0
 31 59  1  0
 31 60  1  0
 32 33  1  0
 32 61  1  0
 32 62  1  0
 32 63  1  0
 33 28  1  0
M  END
>  <minimizedAffinity>  (6) 
-7.54039

>  <mol_id>  (6) 
87356

>  <source_index>  (6) 
5

>  <layer>  (6) 
L4

>  <uniprot>  (6) 
Q99705

>  <paff>  (6) 
9.3278999999999996

>  <smiles>  (6) 
COC1CN(CCOc2ccc(cc2OC)N2CC=C(Oc3ccc(cc3)C3CC3)C2=O)C1 |t:19|

$$$$
L4:Q99705:93256
     RDKit          3D

 58 62  0  0  0  0  0  0  0  0999 V2000
  135.0516  146.1931  100.4021 N   0  0  0  0  0  0  0  0  0  0  0  0
  136.3854  145.9237   99.9258 C   0  0  0  0  0  0  0  0  0  0  0  0
  136.5236  144.4616  100.1337 C   0  0  0  0  0  0  0  0  0  0  0  0
  135.4176  143.9192  100.6591 C   0  0  0  0  0  0  0  0  0  0  0  0
  134.4375  145.0189  100.8540 C   0  0  0  0  0  0  0  0  0  0  0  0
  133.3269  144.8418  101.3251 O   0  0  0  0  0  0  0  0  0  0  0  0
  133.4934  149.3935  101.6087 C   0  0  0  0  0  0  0  0  0  0  0  0
  134.0563  148.1058  101.5889 C   0  0  0  0  0  0  0  0  0  0  0  0
  134.4861  147.5008  100.3927 C   0  0  0  0  0  0  0  0  0  0  0  0
  134.3405  148.2304   99.2108 C   0  0  0  0  0  0  0  0  0  0  0  0
  133.7868  149.5143   99.2179 C   0  0  0  0  0  0  0  0  0  0  0  0
  133.3504  150.1102  100.4096 C   0  0  0  0  0  0  0  0  0  0  0  0
  134.0627  150.5151  103.6460 C   0  0  0  0  0  0  0  0  0  0  0  0
  133.0734  150.0364  102.7449 O   0  0  0  0  0  0  0  0  0  0  0  0
  132.7598  151.5073  100.3653 C   0  0  0  0  0  0  0  0  0  0  0  0
  133.6856  152.6333  100.2370 N   0  0  0  0  0  0  0  0  0  0  0  0
  133.8418  153.1673   98.8905 C   0  0  0  0  0  0  0  0  0  0  0  0
  134.9800  154.1653   99.0609 C   0  0  0  0  0  0  0  0  0  0  0  0
  135.7393  153.7010  100.3018 C   0  0  0  0  0  0  0  0  0  0  0  0
  135.0343  152.4255  100.7427 C   0  0  0  0  0  0  0  0  0  0  0  0
  135.1264  142.6277  101.0154 O   0  0  0  0  0  0  0  0  0  0  0  0
  135.5324  142.1994  102.2518 C   0  0  0  0  0  0  0  0  0  0  0  0
  136.1776  143.0924  103.1002 C   0  0  0  0  0  0  0  0  0  0  0  0
  136.5673  142.6710  104.3741 C   0  0  0  0  0  0  0  0  0  0  0  0
  136.3039  141.3661  104.8282 C   0  0  0  0  0  0  0  0  0  0  0  0
  135.6412  140.4923  103.9476 C   0  0  0  0  0  0  0  0  0  0  0  0
  135.2462  140.9040  102.6726 C   0  0  0  0  0  0  0  0  0  0  0  0
  136.7377  140.9138  106.2019 C   0  0  0  0  0  0  0  0  0  0  0  0
  136.7750  141.9002  107.3464 C   0  0  0  0  0  0  0  0  0  0  0  0
  135.7297  140.8277  107.3250 C   0  0  0  0  0  0  0  0  0  0  0  0
  137.1134  146.4637  100.4944 H   0  0  0  0  0  0  0  0  0  0  0  0
  136.5391  146.2220   98.9098 H   0  0  0  0  0  0  0  0  0  0  0  0
  137.3735  143.9246   99.9005 H   0  0  0  0  0  0  0  0  0  0  0  0
  134.1574  147.5891  102.4765 H   0  0  0  0  0  0  0  0  0  0  0  0
  134.6467  147.8149   98.3171 H   0  0  0  0  0  0  0  0  0  0  0  0
  133.6977  150.0326   98.3300 H   0  0  0  0  0  0  0  0  0  0  0  0
  133.5870  150.9901  104.4785 H   0  0  0  0  0  0  0  0  0  0  0  0
  134.6909  151.2208  103.1439 H   0  0  0  0  0  0  0  0  0  0  0  0
  134.6550  149.6948  103.9941 H   0  0  0  0  0  0  0  0  0  0  0  0
  132.2072  151.6495  101.2704 H   0  0  0  0  0  0  0  0  0  0  0  0
  132.1820  151.5283   99.4650 H   0  0  0  0  0  0  0  0  0  0  0  0
  132.9473  153.6536   98.5613 H   0  0  0  0  0  0  0  0  0  0  0  0
  134.0398  152.4164   98.1544 H   0  0  0  0  0  0  0  0  0  0  0  0
  134.5943  155.1529   99.2050 H   0  0  0  0  0  0  0  0  0  0  0  0
  135.6109  154.2027   98.1975 H   0  0  0  0  0  0  0  0  0  0  0  0
  135.6906  154.4426  101.0716 H   0  0  0  0  0  0  0  0  0  0  0  0
  136.7770  153.5365  100.0992 H   0  0  0  0  0  0  0  0  0  0  0  0
  135.0389  152.3274  101.8082 H   0  0  0  0  0  0  0  0  0  0  0  0
  135.4968  151.5307  100.3816 H   0  0  0  0  0  0  0  0  0  0  0  0
  136.3671  144.0587  102.7914 H   0  0  0  0  0  0  0  0  0  0  0  0
  137.0593  143.3318  104.9956 H   0  0  0  0  0  0  0  0  0  0  0  0
  135.4424  139.5258  104.2501 H   0  0  0  0  0  0  0  0  0  0  0  0
  134.7461  140.2527  102.0475 H   0  0  0  0  0  0  0  0  0  0  0  0
  137.4385  140.2388  105.7567 H   0  0  0  0  0  0  0  0  0  0  0  0
  136.4972  142.9203  107.1817 H   0  0  0  0  0  0  0  0  0  0  0  0
  137.5193  142.2149  108.0477 H   0  0  0  0  0  0  0  0  0  0  0  0
  134.7063  141.0827  107.1450 H   0  0  0  0  0  0  0  0  0  0  0  0
  135.4204  140.0614  108.0047 H   0  0  0  0  0  0  0  0  0  0  0  0
  1  2  1  0
  2  3  1  0
  2 31  1  0
  2 32  1  0
  3  4  2  0
  3 33  1  0
  4 21  1  0
  4  5  1  0
  5  6  2  0
  5  1  1  0
  7  8  2  0
  8  9  1  0
  8 34  1  0
  9 10  2  0
  9  1  1  0
 10 11  1  0
 10 35  1  0
 11 12  2  0
 11 36  1  0
 12 15  1  0
 12  7  1  0
 13 14  1  0
 13 37  1  0
 13 38  1  0
 13 39  1  0
 14  7  1  0
 15 16  1  0
 15 40  1  0
 15 41  1  0
 16 17  1  0
 17 18  1  0
 17 42  1  0
 17 43  1  0
 18 19  1  0
 18 44  1  0
 18 45  1  0
 19 20  1  0
 19 46  1  0
 19 47  1  0
 20 16  1  0
 20 48  1  0
 20 49  1  0
 21 22  1  0
 22 23  2  0
 23 24  1  0
 23 50  1  0
 24 25  2  0
 24 51  1  0
 25 26  1  0
 25 28  1  0
 26 27  2  0
 26 52  1  0
 27 22  1  0
 27 53  1  0
 28 29  1  0
 28 54  1  0
 29 30  1  0
 29 55  1  0
 29 56  1  0
 30 28  1  0
 30 57  1  0
 30 58  1  0
M  END
>  <minimizedAffinity>  (7) 
-8.68599

>  <mol_id>  (7) 
93256

>  <source_index>  (7) 
6

>  <layer>  (7) 
L4

>  <uniprot>  (7) 
Q99705

>  <paff>  (7) 
7.0044000000000004

>  <smiles>  (7) 
COc1cc(ccc1CN1CCCC1)N1CC=C(Oc2ccc(cc2)C2CC2)C1=O |t:18|

$$$$
L4:Q99705:106648
     RDKit          3D

 64 68  0  0  0  0  0  0  0  0999 V2000
  137.2137  144.2937  100.1061 O   0  0  0  0  0  0  0  0  0  0  0  0
  136.0527  144.2974  100.4765 C   0  0  0  0  0  0  0  0  0  0  0  0
  135.1114  145.3037  100.2992 N   0  0  0  0  0  0  0  0  0  0  0  0
  133.8924  145.0254  101.0164 C   0  0  0  0  0  0  0  0  0  0  0  0
  134.1523  143.6614  101.5439 C   0  0  0  0  0  0  0  0  0  0  0  0
  135.3857  143.2214  101.2477 C   0  0  0  0  0  0  0  0  0  0  0  0
  135.4707  146.6311   99.8050 C   0  0  1  0  0  0  0  0  0  0  0  0
  134.3011  147.3373   99.1055 C   0  0  0  0  0  0  0  0  0  0  0  0
  134.6923  148.7277   98.6115 C   0  0  0  0  0  0  0  0  0  0  0  0
  135.2422  149.5931   99.7484 C   0  0  1  0  0  0  0  0  0  0  0  0
  136.4162  148.8934  100.4365 C   0  0  0  0  0  0  0  0  0  0  0  0
  136.0502  147.4988  100.9312 C   0  0  0  0  0  0  0  0  0  0  0  0
  135.7357  150.8389   99.2539 O   0  0  0  0  0  0  0  0  0  0  0  0
  135.6467  151.9128  100.1959 C   0  0  0  0  0  0  0  0  0  0  0  0
  134.3031  151.7956  100.9347 C   0  0  0  0  0  0  0  0  0  0  0  0
  134.3046  151.8444  102.3962 N   0  0  0  0  0  0  0  0  0  0  0  0
  135.5836  152.1783  103.0127 C   0  0  0  0  0  0  0  0  0  0  0  0
  135.2830  151.9695  104.4882 C   0  0  0  0  0  0  0  0  0  0  0  0
  134.2060  150.8869  104.5210 C   0  0  0  0  0  0  0  0  0  0  0  0
  133.8518  150.6276  103.0602 C   0  0  0  0  0  0  0  0  0  0  0  0
  136.0200  142.0435  101.5393 O   0  0  0  0  0  0  0  0  0  0  0  0
  136.1482  141.7050  102.8622 C   0  0  0  0  0  0  0  0  0  0  0  0
  136.8460  142.5501  103.7168 C   0  0  0  0  0  0  0  0  0  0  0  0
  136.9540  142.2192  105.0702 C   0  0  0  0  0  0  0  0  0  0  0  0
  136.3603  141.0553  105.5928 C   0  0  0  0  0  0  0  0  0  0  0  0
  135.6592  140.2254  104.6996 C   0  0  0  0  0  0  0  0  0  0  0  0
  135.5413  140.5485  103.3462 C   0  0  0  0  0  0  0  0  0  0  0  0
  136.4926  140.6985  107.0538 C   0  0  0  0  0  0  0  0  0  0  0  0
  135.4213  141.1134  108.0397 C   0  0  0  0  0  0  0  0  0  0  0  0
  136.7609  141.7805  108.0725 C   0  0  0  0  0  0  0  0  0  0  0  0
  133.0453  145.0351  100.3627 H   0  0  0  0  0  0  0  0  0  0  0  0
  133.6622  145.7454  101.7737 H   0  0  0  0  0  0  0  0  0  0  0  0
  133.4612  143.1126  102.0789 H   0  0  0  0  0  0  0  0  0  0  0  0
  136.2293  146.4904   99.0637 H   0  0  0  0  0  0  0  0  0  0  0  0
  133.4897  147.4309   99.7967 H   0  0  0  0  0  0  0  0  0  0  0  0
  134.0176  146.7503   98.2569 H   0  0  0  0  0  0  0  0  0  0  0  0
  133.8289  149.2052   98.1975 H   0  0  0  0  0  0  0  0  0  0  0  0
  135.4583  148.6181   97.8724 H   0  0  0  0  0  0  0  0  0  0  0  0
  134.4355  149.7540  100.4326 H   0  0  0  0  0  0  0  0  0  0  0  0
  136.7267  149.4845  101.2727 H   0  0  0  0  0  0  0  0  0  0  0  0
  137.2019  148.7896   99.7176 H   0  0  0  0  0  0  0  0  0  0  0  0
  135.3223  147.5872  101.7105 H   0  0  0  0  0  0  0  0  0  0  0  0
  136.9412  147.0277  101.2906 H   0  0  0  0  0  0  0  0  0  0  0  0
  135.6967  152.8500   99.6821 H   0  0  0  0  0  0  0  0  0  0  0  0
  136.4569  151.8605  100.8929 H   0  0  0  0  0  0  0  0  0  0  0  0
  133.8665  150.8611  100.6502 H   0  0  0  0  0  0  0  0  0  0  0  0
  133.7662  152.6742  100.6435 H   0  0  0  0  0  0  0  0  0  0  0  0
  135.8600  153.1922  102.8113 H   0  0  0  0  0  0  0  0  0  0  0  0
  136.4039  151.5941  102.6512 H   0  0  0  0  0  0  0  0  0  0  0  0
  134.9209  152.8741  104.9302 H   0  0  0  0  0  0  0  0  0  0  0  0
  136.1547  151.6871  105.0406 H   0  0  0  0  0  0  0  0  0  0  0  0
  133.3472  151.2287  105.0600 H   0  0  0  0  0  0  0  0  0  0  0  0
  134.5469  149.9997  105.0125 H   0  0  0  0  0  0  0  0  0  0  0  0
  132.7976  150.4913  102.9377 H   0  0  0  0  0  0  0  0  0  0  0  0
  134.3001  149.7391  102.6672 H   0  0  0  0  0  0  0  0  0  0  0  0
  137.2802  143.4137  103.3554 H   0  0  0  0  0  0  0  0  0  0  0  0
  137.4814  142.8428  105.7010 H   0  0  0  0  0  0  0  0  0  0  0  0
  135.2226  139.3592  105.0519 H   0  0  0  0  0  0  0  0  0  0  0  0
  135.0087  139.9352  102.7096 H   0  0  0  0  0  0  0  0  0  0  0  0
  136.9582  139.7737  106.7839 H   0  0  0  0  0  0  0  0  0  0  0  0
  135.1353  140.4498  108.8288 H   0  0  0  0  0  0  0  0  0  0  0  0
  134.4100  141.4532  107.9578 H   0  0  0  0  0  0  0  0  0  0  0  0
  137.4305  141.5936  108.8859 H   0  0  0  0  0  0  0  0  0  0  0  0
  137.0997  142.7943  108.0242 H   0  0  0  0  0  0  0  0  0  0  0  0
  1  2  2  0
  2  3  1  0
  3  4  1  0
  4  5  1  0
  4 31  1  0
  4 32  1  0
  5  6  2  0
  5 33  1  0
  6 21  1  0
  6  2  1  0
  7  3  1  0
  7  8  1  0
  7 34  1  6
  8  9  1  0
  8 35  1  0
  8 36  1  0
  9 10  1  0
  9 37  1  0
  9 38  1  0
 10 11  1  0
 10 13  1  0
 10 39  1  1
 11 12  1  0
 11 40  1  0
 11 41  1  0
 12  7  1  0
 12 42  1  0
 12 43  1  0
 13 14  1  0
 14 15  1  0
 14 44  1  0
 14 45  1  0
 15 16  1  0
 15 46  1  0
 15 47  1  0
 16 17  1  0
 17 18  1  0
 17 48  1  0
 17 49  1  0
 18 19  1  0
 18 50  1  0
 18 51  1  0
 19 20  1  0
 19 52  1  0
 19 53  1  0
 20 16  1  0
 20 54  1  0
 20 55  1  0
 21 22  1  0
 22 23  2  0
 23 24  1  0
 23 56  1  0
 24 25  2  0
 24 57  1  0
 25 26  1  0
 25 28  1  0
 26 27  2  0
 26 58  1  0
 27 22  1  0
 27 59  1  0
 28 29  1  0
 28 60  1  0
 29 30  1  0
 29 61  1  0
 29 62  1  0
 30 28  1  0
 30 63  1  0
 30 64  1  0
M  END
>  <minimizedAffinity>  (8) 
-8.24830

>  <mol_id>  (8) 
106648

>  <source_index>  (8) 
7

>  <layer>  (8) 
L4

>  <uniprot>  (8) 
Q99705

>  <paff>  (8) 
7.6576000000000004

>  <smiles>  (8) 
O=C1N(CC=C1Oc1ccc(cc1)C1CC1)[C@H]1CC[C@@H](CC1)OCCN1CCCC1 |r,wU:16.18,wD:19.25,c:4,(-.66,2.73,;-1.43,1.39,;-.53,.15,;-1.43,-1.1,;-2.9,-.62,;-2.9,.92,;-4.23,1.69,;-5.56,.92,;-5.56,-.62,;-6.9,-1.39,;-8.23,-.62,;-8.23,.92,;-6.9,1.69,;-9.56,-1.39,;-11.1,-1.39,;-10.33,-2.73,;.96,.55,;1.36,2.03,;2.85,2.43,;3.94,1.34,;3.54,-.14,;2.05,-.54,;5.42,1.74,;6.51,.65,;8,1.05,;9.09,-.04,;8.61,-1.5,;9.86,-2.41,;11.1,-1.5,;10.63,-.04,)|

$$$$
L4:Q99705:121682
     RDKit          3D

 67 72  0  0  0  0  0  0  0  0999 V2000
  135.3686  146.9479   98.3002 C   0  0  0  0  0  0  0  0  0  0  0  0
  135.6893  145.7224   98.8965 C   0  0  0  0  0  0  0  0  0  0  0  0
  136.2871  145.6708  100.1644 C   0  0  0  0  0  0  0  0  0  0  0  0
  136.5711  146.8904  100.7962 C   0  0  0  0  0  0  0  0  0  0  0  0
  136.2674  148.1192  100.1904 C   0  0  0  0  0  0  0  0  0  0  0  0
  135.6790  148.1533   98.9291 C   0  0  0  0  0  0  0  0  0  0  0  0
  136.5956  144.4191  100.7675 N   0  0  0  0  0  0  0  0  0  0  0  0
  137.7918  143.6801  100.4364 C   0  0  0  0  0  0  0  0  0  0  0  0
  137.6675  142.4598  101.2683 C   0  0  0  0  0  0  0  0  0  0  0  0
  136.5648  142.4793  102.0195 C   0  0  0  0  0  0  0  0  0  0  0  0
  135.8133  143.7194  101.6977 C   0  0  0  0  0  0  0  0  0  0  0  0
  134.7277  143.9987  102.1775 O   0  0  0  0  0  0  0  0  0  0  0  0
  136.1523  141.4922  102.8718 O   0  0  0  0  0  0  0  0  0  0  0  0
  136.3107  141.6848  104.2241 C   0  0  0  0  0  0  0  0  0  0  0  0
  135.9125  140.6342  105.0457 C   0  0  0  0  0  0  0  0  0  0  0  0
  136.1005  140.7149  106.4299 C   0  0  0  0  0  0  0  0  0  0  0  0
  136.6990  141.8340  107.0364 C   0  0  0  0  0  0  0  0  0  0  0  0
  137.0893  142.8790  106.1791 C   0  0  0  0  0  0  0  0  0  0  0  0
  136.9082  142.8080  104.7910 C   0  0  0  0  0  0  0  0  0  0  0  0
  136.9000  141.8544  108.5409 C   0  0  0  0  0  0  0  0  0  0  0  0
  136.2255  140.8322  109.4234 C   0  0  0  0  0  0  0  0  0  0  0  0
  135.8029  142.2728  109.4899 C   0  0  0  0  0  0  0  0  0  0  0  0
  135.8793  146.7570   96.0706 C   0  0  0  0  0  0  0  0  0  0  0  0
  134.8381  146.9281   97.0347 O   0  0  0  0  0  0  0  0  0  0  0  0
  135.3385  149.3172   98.2958 O   0  0  0  0  0  0  0  0  0  0  0  0
  135.8268  150.4939   98.9533 C   0  0  0  0  0  0  0  0  0  0  0  0
  134.7163  151.5541   98.9009 C   0  0  0  0  0  0  0  0  0  0  0  0
  133.8855  151.5360  100.1133 N   0  0  0  0  0  0  0  0  0  0  0  0
  133.9274  152.8366  100.7990 C   0  0  0  0  0  0  0  0  0  0  0  0
  134.7875  152.2376  101.9633 C   0  0  0  0  0  0  0  0  0  0  0  0
  136.1733  152.7002  101.9469 O   0  0  0  0  0  0  0  0  0  0  0  0
  134.5733  150.8685  101.2292 C   0  0  0  0  0  0  0  0  0  0  0  0
  136.4529  152.6317  101.0200 H   0  0  0  0  0  0  0  0  0  0  0  0
  134.2428  152.3044  103.3914 C   0  0  0  0  0  0  0  0  0  0  0  0
  135.0480  152.5597  104.6364 C   0  0  0  0  0  0  0  0  0  0  0  0
  134.4285  151.2066  104.4048 C   0  0  0  0  0  0  0  0  0  0  0  0
  135.4828  144.8440   98.3958 H   0  0  0  0  0  0  0  0  0  0  0  0
  137.0138  146.8839  101.7284 H   0  0  0  0  0  0  0  0  0  0  0  0
  136.4811  149.0012  100.6818 H   0  0  0  0  0  0  0  0  0  0  0  0
  138.6703  144.2340  100.6942 H   0  0  0  0  0  0  0  0  0  0  0  0
  137.8840  143.4714   99.3910 H   0  0  0  0  0  0  0  0  0  0  0  0
  138.3519  141.6874  101.2668 H   0  0  0  0  0  0  0  0  0  0  0  0
  135.4777  139.7941  104.6331 H   0  0  0  0  0  0  0  0  0  0  0  0
  135.7907  139.9297  107.0237 H   0  0  0  0  0  0  0  0  0  0  0  0
  137.5221  143.7235  106.5846 H   0  0  0  0  0  0  0  0  0  0  0  0
  137.2174  143.5874  104.1894 H   0  0  0  0  0  0  0  0  0  0  0  0
  137.9069  142.1732  108.3696 H   0  0  0  0  0  0  0  0  0  0  0  0
  136.7610  140.3940  110.2395 H   0  0  0  0  0  0  0  0  0  0  0  0
  135.7211  139.9037  109.2550 H   0  0  0  0  0  0  0  0  0  0  0  0
  136.0378  142.8595  110.3533 H   0  0  0  0  0  0  0  0  0  0  0  0
  134.8735  142.7933  109.3884 H   0  0  0  0  0  0  0  0  0  0  0  0
  135.4565  146.7428   95.0878 H   0  0  0  0  0  0  0  0  0  0  0  0
  136.3868  145.8330   96.2539 H   0  0  0  0  0  0  0  0  0  0  0  0
  136.5740  147.5671   96.1483 H   0  0  0  0  0  0  0  0  0  0  0  0
  136.6999  150.8558   98.4516 H   0  0  0  0  0  0  0  0  0  0  0  0
  136.0879  150.2750   99.9676 H   0  0  0  0  0  0  0  0  0  0  0  0
  134.0940  151.3620   98.0519 H   0  0  0  0  0  0  0  0  0  0  0  0
  135.1788  152.5163   98.8294 H   0  0  0  0  0  0  0  0  0  0  0  0
  132.9672  153.1915  101.1103 H   0  0  0  0  0  0  0  0  0  0  0  0
  134.2759  153.7012  100.2738 H   0  0  0  0  0  0  0  0  0  0  0  0
  133.9552  150.1815  101.7685 H   0  0  0  0  0  0  0  0  0  0  0  0
  135.4132  150.2356  101.0319 H   0  0  0  0  0  0  0  0  0  0  0  0
  133.4138  152.7972  102.9280 H   0  0  0  0  0  0  0  0  0  0  0  0
  134.6620  153.2010  105.4010 H   0  0  0  0  0  0  0  0  0  0  0  0
  136.0371  152.9144  104.8382 H   0  0  0  0  0  0  0  0  0  0  0  0
  133.6022  150.8866  105.0046 H   0  0  0  0  0  0  0  0  0  0  0  0
  134.7948  150.2017  104.3736 H   0  0  0  0  0  0  0  0  0  0  0  0
  1  2  2  0
  2  3  1  0
  2 37  1  0
  3  7  1  0
  3  4  2  0
  4  5  1  0
  4 38  1  0
  5  6  2  0
  5 39  1  0
  6 25  1  0
  6  1  1  0
  7  8  1  0
  8  9  1  0
  8 40  1  0
  8 41  1  0
  9 10  2  0
  9 42  1  0
 10 13  1  0
 10 11  1  0
 11 12  2  0
 11  7  1  0
 13 14  1  0
 14 15  2  0
 15 16  1  0
 15 43  1  0
 16 17  2  0
 16 44  1  0
 17 20  1  0
 17 18  1  0
 18 19  2  0
 18 45  1  0
 19 14  1  0
 19 46  1  0
 20 21  1  0
 20 47  1  0
 21 22  1  0
 21 48  1  0
 21 49  1  0
 22 20  1  0
 22 50  1  0
 22 51  1  0
 23 24  1  0
 23 52  1  0
 23 53  1  0
 23 54  1  0
 24  1  1  0
 25 26  1  0
 26 27  1  0
 26 55  1  0
 26 56  1  0
 27 28  1  0
 27 57  1  0
 27 58  1  0
 28 29  1  0
 29 30  1  0
 29 59  1  0
 29 60  1  0
 30 31  1  0
 30 34  1  0
 30 32  1  0
 31 33  1  0
 32 28  1  0
 32 61  1  0
 32 62  1  0
 34 35  1  0
 34 63  1  0
 35 36  1  0
 35 64  1  0
 35 65  1  0
 36 34  1  0
 36 66  1  0
 36 67  1  0
M  END
>  <minimizedAffinity>  (9) 
-8.42125

>  <mol_id>  (9) 
121682

>  <source_index>  (9) 
8

>  <layer>  (9) 
L4

>  <uniprot>  (9) 
Q99705

>  <paff>  (9) 
9.4088999999999992

>  <smiles>  (9) 
COc1cc(N2CC=C(Oc3ccc(C4CC4)cc3)C2=O)ccc1OCCN1CC(O)(C2CC2)C1

$$$$
L4:Q99705:124879
     RDKit          3D

 64 68  0  0  0  0  0  0  0  0999 V2000
  135.6785  140.1577  104.4424 C   0  0  0  0  0  0  0  0  0  0  0  0
  135.7165  140.9110  103.2508 C   0  0  0  0  0  0  0  0  0  0  0  0
  136.2920  142.1905  103.1991 C   0  0  0  0  0  0  0  0  0  0  0  0
  136.8198  142.7053  104.3861 C   0  0  0  0  0  0  0  0  0  0  0  0
  136.7913  141.9688  105.5794 C   0  0  0  0  0  0  0  0  0  0  0  0
  136.2306  140.6939  105.6156 C   0  0  0  0  0  0  0  0  0  0  0  0
  136.3372  142.9158  101.9766 N   0  0  0  0  0  0  0  0  0  0  0  0
  137.3800  142.7177  101.0012 C   0  0  0  0  0  0  0  0  0  0  0  0
  137.0499  143.7184   99.9571 C   0  0  0  0  0  0  0  0  0  0  0  0
  135.9494  144.4184  100.2587 C   0  0  0  0  0  0  0  0  0  0  0  0
  135.4454  143.9104  101.5599 C   0  0  0  0  0  0  0  0  0  0  0  0
  134.4380  144.3381  102.0959 O   0  0  0  0  0  0  0  0  0  0  0  0
  135.2974  145.4057   99.5658 O   0  0  0  0  0  0  0  0  0  0  0  0
  135.2020  146.6365  100.1620 C   0  0  0  0  0  0  0  0  0  0  0  0
  133.9503  147.2281  100.2975 C   0  0  0  0  0  0  0  0  0  0  0  0
  133.8422  148.4746  100.9208 C   0  0  0  0  0  0  0  0  0  0  0  0
  134.9700  149.1362  101.4399 C   0  0  0  0  0  0  0  0  0  0  0  0
  136.2172  148.5017  101.3002 C   0  0  0  0  0  0  0  0  0  0  0  0
  136.3371  147.2574  100.6763 C   0  0  0  0  0  0  0  0  0  0  0  0
  134.8553  150.4900  102.0979 C   0  0  0  0  0  0  0  0  0  0  0  0
  134.0250  150.6603  103.3504 C   0  0  0  0  0  0  0  0  0  0  0  0
  135.5196  150.7372  103.4334 C   0  0  0  0  0  0  0  0  0  0  0  0
  134.4369  138.4573  103.0661 C   0  0  0  0  0  0  0  0  0  0  0  0
  135.0172  138.7969  104.4319 C   0  0  0  0  0  0  0  0  0  0  0  0
  136.1565  139.9045  106.7303 O   0  0  0  0  0  0  0  0  0  0  0  0
  137.0938  140.1532  107.7821 C   0  0  0  0  0  0  0  0  0  0  0  0
  136.3627  140.0521  109.1349 C   0  0  0  0  0  0  0  0  0  0  0  0
  136.3357  141.3107  109.9145 N   0  0  0  0  0  0  0  0  0  0  0  0
  135.0716  141.4314  110.6614 C   0  0  0  0  0  0  0  0  0  0  0  0
  134.0700  142.0595  109.6992 C   0  0  0  0  0  0  0  0  0  0  0  0
  134.9167  142.7231  108.6201 C   0  0  0  0  0  0  0  0  0  0  0  0
  136.3524  142.5198  109.0769 C   0  0  0  0  0  0  0  0  0  0  0  0
  135.3093  140.5099  102.3915 H   0  0  0  0  0  0  0  0  0  0  0  0
  137.2397  143.6480  104.3847 H   0  0  0  0  0  0  0  0  0  0  0  0
  137.1900  142.3757  106.4399 H   0  0  0  0  0  0  0  0  0  0  0  0
  137.3529  141.7242  100.6048 H   0  0  0  0  0  0  0  0  0  0  0  0
  138.3642  142.8357  101.4042 H   0  0  0  0  0  0  0  0  0  0  0  0
  137.6043  143.8587   99.0980 H   0  0  0  0  0  0  0  0  0  0  0  0
  133.1080  146.7504   99.9406 H   0  0  0  0  0  0  0  0  0  0  0  0
  132.9145  148.9194  101.0020 H   0  0  0  0  0  0  0  0  0  0  0  0
  137.0630  148.9657  101.6668 H   0  0  0  0  0  0  0  0  0  0  0  0
  137.2598  146.8021  100.5973 H   0  0  0  0  0  0  0  0  0  0  0  0
  134.8807  150.9580  101.1360 H   0  0  0  0  0  0  0  0  0  0  0  0
  133.5092  149.8208  103.7677 H   0  0  0  0  0  0  0  0  0  0  0  0
  133.2187  151.3012  103.6404 H   0  0  0  0  0  0  0  0  0  0  0  0
  136.0692  149.9526  103.9100 H   0  0  0  0  0  0  0  0  0  0  0  0
  136.2189  151.4556  103.8072 H   0  0  0  0  0  0  0  0  0  0  0  0
  133.9804  137.4902  103.1030 H   0  0  0  0  0  0  0  0  0  0  0  0
  135.2197  138.4547  102.3366 H   0  0  0  0  0  0  0  0  0  0  0  0
  133.7027  139.1883  102.7987 H   0  0  0  0  0  0  0  0  0  0  0  0
  135.7449  138.0568  104.6921 H   0  0  0  0  0  0  0  0  0  0  0  0
  134.2137  138.8136  105.1383 H   0  0  0  0  0  0  0  0  0  0  0  0
  137.5082  141.1333  107.6699 H   0  0  0  0  0  0  0  0  0  0  0  0
  137.8841  139.4330  107.7419 H   0  0  0  0  0  0  0  0  0  0  0  0
  136.8518  139.3047  109.7240 H   0  0  0  0  0  0  0  0  0  0  0  0
  135.3444  139.8101  108.9128 H   0  0  0  0  0  0  0  0  0  0  0  0
  135.2053  142.0572  111.5189 H   0  0  0  0  0  0  0  0  0  0  0  0
  134.7324  140.4791  111.0119 H   0  0  0  0  0  0  0  0  0  0  0  0
  133.4689  142.7862  110.2046 H   0  0  0  0  0  0  0  0  0  0  0  0
  133.3978  141.3339  109.2910 H   0  0  0  0  0  0  0  0  0  0  0  0
  134.6875  143.7658  108.5486 H   0  0  0  0  0  0  0  0  0  0  0  0
  134.7372  142.3062  107.6511 H   0  0  0  0  0  0  0  0  0  0  0  0
  136.6861  143.3628  109.6451 H   0  0  0  0  0  0  0  0  0  0  0  0
  137.0201  142.4165  108.2472 H   0  0  0  0  0  0  0  0  0  0  0  0
  1  2  2  0
  2  3  1  0
  2 33  1  0
  3  4  2  0
  3  7  1  0
  4  5  1  0
  4 34  1  0
  5  6  2  0
  5 35  1  0
  6 25  1  0
  6  1  1  0
  7  8  1  0
  8  9  1  0
  8 36  1  0
  8 37  1  0
  9 10  2  0
  9 38  1  0
 10 13  1  0
 10 11  1  0
 11 12  2  0
 11  7  1  0
 13 14  1  0
 14 15  2  0
 15 16  1  0
 15 39  1  0
 16 17  2  0
 16 40  1  0
 17 18  1  0
 17 20  1  0
 18 19  2  0
 18 41  1  0
 19 14  1  0
 19 42  1  0
 20 21  1  0
 20 43  1  0
 21 22  1  0
 21 44  1  0
 21 45  1  0
 22 20  1  0
 22 46  1  0
 22 47  1  0
 23 24  1  0
 23 48  1  0
 23 49  1  0
 23 50  1  0
 24  1  1  0
 24 51  1  0
 24 52  1  0
 25 26  1  0
 26 27  1  0
 26 53  1  0
 26 54  1  0
 27 28  1  0
 27 55  1  0
 27 56  1  0
 28 29  1  0
 29 30  1  0
 29 57  1  0
 29 58  1  0
 30 31  1  0
 30 59  1  0
 30 60  1  0
 31 32  1  0
 31 61  1  0
 31 62  1  0
 32 28  1  0
 32 63  1  0
 32 64  1  0
M  END
>  <minimizedAffinity>  (10) 
-8.55450

>  <mol_id>  (10) 
124879

>  <source_index>  (10) 
9

>  <layer>  (10) 
L4

>  <uniprot>  (10) 
Q99705

>  <paff>  (10) 
9.3278999999999996

>  <smiles>  (10) 
CCc1cc(ccc1OCCN1CCCC1)N1CC=C(Oc2ccc(cc2)C2CC2)C1=O |t:20|

$$$$
