L4:Q99705:17978
     RDKit          3D

 72 77  0  0  0  0  0  0  0  0999 V2000
  135.8052  141.0356  103.9967 C   0  0  0  0  0  0  0  0  0  0  0  0
  135.9161  142.2461  103.2805 C   0  0  0  0  0  0  0  0  0  0  0  0
  135.3759  142.4031  101.9939 C   0  0  0  0  0  0  0  0  0  0  0  0
  134.6989  141.3119  101.4470 C   0  0  0  0  0  0  0  0  0  0  0  0
  134.5733  140.1033  102.1489 C   0  0  0  0  0  0  0  0  0  0  0  0
  135.1285  139.9526  103.4185 C   0  0  0  0  0  0  0  0  0  0  0  0
  135.5280  143.6283  101.2864 N   0  0  0  0  0  0  0  0  0  0  0  0
  136.7789  144.0205  100.6862 C   0  0  0  0  0  0  0  0  0  0  0  0
  136.4445  145.3116  100.0399 C   0  0  0  0  0  0  0  0  0  0  0  0
  135.1632  145.6529  100.2270 C   0  0  0  0  0  0  0  0  0  0  0  0
  134.5360  144.5860  101.0490 C   0  0  0  0  0  0  0  0  0  0  0  0
  133.3666  144.6116  101.3990 O   0  0  0  0  0  0  0  0  0  0  0  0
  134.4625  146.7608   99.8222 O   0  0  0  0  0  0  0  0  0  0  0  0
  134.6961  147.9314  100.4980 C   0  0  0  0  0  0  0  0  0  0  0  0
  135.7287  148.7623  100.0753 C   0  0  0  0  0  0  0  0  0  0  0  0
  135.9775  149.9535  100.7616 C   0  0  0  0  0  0  0  0  0  0  0  0
  135.2228  150.3218  101.8900 C   0  0  0  0  0  0  0  0  0  0  0  0
  134.2003  149.4485  102.3029 C   0  0  0  0  0  0  0  0  0  0  0  0
  133.9395  148.2573  101.6204 C   0  0  0  0  0  0  0  0  0  0  0  0
  135.4785  151.6220  102.6113 C   0  0  0  0  0  0  0  0  0  0  0  0
  134.3559  152.3082  103.3552 C   0  0  0  0  0  0  0  0  0  0  0  0
  135.4730  151.6694  104.1224 C   0  0  0  0  0  0  0  0  0  0  0  0
  136.8326  142.3090  105.9047 C   0  0  0  0  0  0  0  0  0  0  0  0
  136.3925  140.9473  105.3886 C   0  0  0  0  0  0  0  0  0  0  0  0
  135.0593  138.8153  104.1740 O   0  0  0  0  0  0  0  0  0  0  0  0
  134.3548  137.6950  103.6283 C   0  0  0  0  0  0  0  0  0  0  0  0
  135.3676  136.5605  103.4174 C   0  0  0  0  0  0  0  0  0  0  0  0
  134.7787  135.2250  103.6039 N   0  0  0  0  0  0  0  0  0  0  0  0
  133.3132  135.2920  103.5152 C   0  0  0  0  0  0  0  0  0  0  0  0
  132.7113  133.8994  103.3741 C   0  0  0  0  0  0  0  0  0  0  0  0
  133.1500  133.2922  102.0376 C   0  0  0  0  0  0  0  0  0  0  0  0
  134.4889  133.8376  101.5389 C   0  0  0  0  0  0  0  0  0  0  0  0
  135.3760  134.2061  102.7255 C   0  0  0  0  0  0  0  0  0  0  0  0
  132.0573  133.2686  100.9457 C   0  0  0  0  0  0  0  0  0  0  0  0
  131.7485  131.8806  101.2327 O   0  0  0  0  0  0  0  0  0  0  0  0
  132.9789  131.7552  101.9935 C   0  0  0  0  0  0  0  0  0  0  0  0
  136.4097  143.0410  103.7158 H   0  0  0  0  0  0  0  0  0  0  0  0
  134.2820  141.3957  100.5067 H   0  0  0  0  0  0  0  0  0  0  0  0
  134.0632  139.3157  101.7194 H   0  0  0  0  0  0  0  0  0  0  0  0
  137.1019  143.3004   99.9637 H   0  0  0  0  0  0  0  0  0  0  0  0
  137.5809  144.0953  101.3906 H   0  0  0  0  0  0  0  0  0  0  0  0
  137.1205  145.8814   99.5076 H   0  0  0  0  0  0  0  0  0  0  0  0
  136.3064  148.5008   99.2611 H   0  0  0  0  0  0  0  0  0  0  0  0
  136.7316  150.5769  100.4334 H   0  0  0  0  0  0  0  0  0  0  0  0
  133.6303  149.6928  103.1278 H   0  0  0  0  0  0  0  0  0  0  0  0
  133.1922  147.6243  101.9457 H   0  0  0  0  0  0  0  0  0  0  0  0
  136.1701  151.9063  101.8459 H   0  0  0  0  0  0  0  0  0  0  0  0
  133.3794  151.8711  103.3700 H   0  0  0  0  0  0  0  0  0  0  0  0
  133.9196  153.2849  103.3296 H   0  0  0  0  0  0  0  0  0  0  0  0
  135.2932  150.7767  104.6843 H   0  0  0  0  0  0  0  0  0  0  0  0
  136.1625  152.0022  104.8698 H   0  0  0  0  0  0  0  0  0  0  0  0
  137.2406  142.2029  106.8882 H   0  0  0  0  0  0  0  0  0  0  0  0
  135.9898  142.9675  105.9373 H   0  0  0  0  0  0  0  0  0  0  0  0
  137.5769  142.7144  105.2516 H   0  0  0  0  0  0  0  0  0  0  0  0
  135.6534  140.5482  106.0515 H   0  0  0  0  0  0  0  0  0  0  0  0
  137.2539  140.3140  105.3461 H   0  0  0  0  0  0  0  0  0  0  0  0
  133.9107  137.9649  102.6930 H   0  0  0  0  0  0  0  0  0  0  0  0
  133.5772  137.3826  104.2936 H   0  0  0  0  0  0  0  0  0  0  0  0
  136.1671  136.6820  104.1181 H   0  0  0  0  0  0  0  0  0  0  0  0
  135.7117  136.6212  102.4061 H   0  0  0  0  0  0  0  0  0  0  0  0
  133.0405  135.8792  102.6633 H   0  0  0  0  0  0  0  0  0  0  0  0
  132.9370  135.7370  104.4126 H   0  0  0  0  0  0  0  0  0  0  0  0
  131.6438  133.9666  103.4031 H   0  0  0  0  0  0  0  0  0  0  0  0
  133.0491  133.2793  104.1780 H   0  0  0  0  0  0  0  0  0  0  0  0
  134.3166  134.7082  100.9412 H   0  0  0  0  0  0  0  0  0  0  0  0
  134.9782  133.0873  100.9537 H   0  0  0  0  0  0  0  0  0  0  0  0
  136.3050  134.5826  102.3512 H   0  0  0  0  0  0  0  0  0  0  0  0
  135.5070  133.3200  103.3108 H   0  0  0  0  0  0  0  0  0  0  0  0
  132.4322  133.4314   99.9568 H   0  0  0  0  0  0  0  0  0  0  0  0
  131.2756  133.9990  100.9638 H   0  0  0  0  0  0  0  0  0  0  0  0
  133.7615  131.2485  101.4684 H   0  0  0  0  0  0  0  0  0  0  0  0
  132.9839  131.1948  102.9050 H   0  0  0  0  0  0  0  0  0  0  0  0
  1  2  2  0
  2  3  1  0
  2 37  1  0
  3  7  1  0
  3  4  2  0
  4  5  1  0
  4 38  1  0
  5  6  2  0
  5 39  1  0
  6 25  1  0
  6  1  1  0
  7  8  1  0
  8  9  1  0
  8 40  1  0
  8 41  1  0
  9 10  2  0
  9 42  1  0
 10 13  1  0
 10 11  1  0
 11 12  2  0
 11  7  1  0
 13 14  1  0
 14 15  2  0
 15 16  1  0
 15 43  1  0
 16 17  2  0
 16 44  1  0
 17 20  1  0
 17 18  1  0
 18 19  2  0
 18 45  1  0
 19 14  1  0
 19 46  1  0
 20 21  1  0
 20 47  1  0
 21 22  1  0
 21 48  1  0
 21 49  1  0
 22 20  1  0
 22 50  1  0
 22 51  1  0
 23 24  1  0
 23 52  1  0
 23 53  1  0
 23 54  1  0
 24  1  1  0
 24 55  1  0
 24 56  1  0
 25 26  1  0
 26 27  1  0
 26 57  1  0
 26 58  1  0
 27 28  1  0
 27 59  1  0
 27 60  1  0
 28 29  1  0
 29 30  1  0
 29 61  1  0
 29 62  1  0
 30 31  1  0
 30 63  1  0
 30 64  1  0
 31 32  1  0
 31 34  1  0
 32 33  1  0
 32 65  1  0
 32 66  1  0
 33 28  1  0
 33 67  1  0
 33 68  1  0
 34 35  1  0
 34 69  1  0
 34 70  1  0
 35 36  1  0
 36 31  1  0
 36 71  1  0
 36 72  1  0
M  END
>  <minimizedAffinity>  (1) 
-10.44016

>  <mol_id>  (1) 
17978

>  <source_index>  (1) 
0

>  <layer>  (1) 
L4

>  <uniprot>  (1) 
Q99705

>  <paff>  (1) 
9.3565000000000005

>  <smiles>  (1) 
CCc1cc(ccc1OCCN1CCC2(COC2)CC1)N1CC=C(Oc2ccc(cc2)C2CC2)C1=O |t:25|

$$$$
L4:Q99705:30174
     RDKit          3D

 51 54  0  0  0  0  0  0  0  0999 V2000
  135.5955  144.0052  101.2927 N   0  0  0  0  0  0  0  0  0  0  0  0
  136.7311  144.3808  100.4864 C   0  0  0  0  0  0  0  0  0  0  0  0
  136.3194  145.6904   99.9242 C   0  0  0  0  0  0  0  0  0  0  0  0
  135.0988  146.0569  100.3355 C   0  0  0  0  0  0  0  0  0  0  0  0
  134.5952  144.9824  101.2298 C   0  0  0  0  0  0  0  0  0  0  0  0
  133.5016  145.0236  101.7681 O   0  0  0  0  0  0  0  0  0  0  0  0
  136.2260  141.4216  103.9673 C   0  0  0  0  0  0  0  0  0  0  0  0
  136.2613  142.6227  103.2334 C   0  0  0  0  0  0  0  0  0  0  0  0
  135.5561  142.7875  102.0304 C   0  0  0  0  0  0  0  0  0  0  0  0
  134.8067  141.7006  101.5654 C   0  0  0  0  0  0  0  0  0  0  0  0
  134.7561  140.5037  102.2844 C   0  0  0  0  0  0  0  0  0  0  0  0
  135.4418  140.3605  103.4927 C   0  0  0  0  0  0  0  0  0  0  0  0
  136.5802  141.9644  106.2749 C   0  0  0  0  0  0  0  0  0  0  0  0
  136.9427  141.2193  105.1180 O   0  0  0  0  0  0  0  0  0  0  0  0
  135.2795  139.1226  104.0591 O   0  0  0  0  0  0  0  0  0  0  0  0
  134.4520  138.1891  103.3539 C   0  0  0  0  0  0  0  0  0  0  0  0
  135.0261  136.7954  103.5998 C   0  0  0  0  0  0  0  0  0  0  0  0
  135.8074  136.3749  102.4811 O   0  0  0  0  0  0  0  0  0  0  0  0
  136.4022  137.1211  102.2787 H   0  0  0  0  0  0  0  0  0  0  0  0
  134.3494  147.1721  100.0624 O   0  0  0  0  0  0  0  0  0  0  0  0
  134.6392  148.3184  100.7548 C   0  0  0  0  0  0  0  0  0  0  0  0
  133.8556  148.6802  101.8460 C   0  0  0  0  0  0  0  0  0  0  0  0
  134.1401  149.8623  102.5343 C   0  0  0  0  0  0  0  0  0  0  0  0
  135.1903  150.7090  102.1361 C   0  0  0  0  0  0  0  0  0  0  0  0
  135.9540  150.3182  101.0215 C   0  0  0  0  0  0  0  0  0  0  0  0
  135.6781  149.1382  100.3260 C   0  0  0  0  0  0  0  0  0  0  0  0
  135.5020  151.9780  102.8922 C   0  0  0  0  0  0  0  0  0  0  0  0
  135.2399  152.0581  104.3787 C   0  0  0  0  0  0  0  0  0  0  0  0
  134.3788  152.8346  103.4302 C   0  0  0  0  0  0  0  0  0  0  0  0
  136.9050  143.6659   99.7095 H   0  0  0  0  0  0  0  0  0  0  0  0
  137.6456  144.4272  101.0399 H   0  0  0  0  0  0  0  0  0  0  0  0
  136.9060  146.2541   99.2893 H   0  0  0  0  0  0  0  0  0  0  0  0
  136.8250  143.4092  103.5921 H   0  0  0  0  0  0  0  0  0  0  0  0
  134.2844  141.7845  100.6793 H   0  0  0  0  0  0  0  0  0  0  0  0
  134.2036  139.7133  101.9170 H   0  0  0  0  0  0  0  0  0  0  0  0
  137.2253  141.6994  107.0864 H   0  0  0  0  0  0  0  0  0  0  0  0
  135.5668  141.7438  106.5382 H   0  0  0  0  0  0  0  0  0  0  0  0
  136.6759  143.0102  106.0700 H   0  0  0  0  0  0  0  0  0  0  0  0
  134.4619  138.4095  102.3069 H   0  0  0  0  0  0  0  0  0  0  0  0
  133.4398  138.2471  103.6960 H   0  0  0  0  0  0  0  0  0  0  0  0
  134.2229  136.1044  103.7487 H   0  0  0  0  0  0  0  0  0  0  0  0
  135.6507  136.8253  104.4680 H   0  0  0  0  0  0  0  0  0  0  0  0
  133.0707  148.0804  102.1445 H   0  0  0  0  0  0  0  0  0  0  0  0
  133.5670  150.1199  103.3530 H   0  0  0  0  0  0  0  0  0  0  0  0
  136.7354  150.9163  100.7105 H   0  0  0  0  0  0  0  0  0  0  0  0
  136.2404  148.8770   99.5010 H   0  0  0  0  0  0  0  0  0  0  0  0
  136.3489  152.1446  102.2598 H   0  0  0  0  0  0  0  0  0  0  0  0
  135.9298  152.5709  105.0159 H   0  0  0  0  0  0  0  0  0  0  0  0
  135.0555  151.3423  105.1524 H   0  0  0  0  0  0  0  0  0  0  0  0
  134.4545  153.9012  103.3909 H   0  0  0  0  0  0  0  0  0  0  0  0
  133.3266  152.9015  103.2479 H   0  0  0  0  0  0  0  0  0  0  0  0
  1  2  1  0
  2  3  1  0
  2 30  1  0
  2 31  1  0
  3  4  2  0
  3 32  1  0
  4 20  1  0
  4  5  1  0
  5  6  2  0
  5  1  1  0
  7  8  2  0
  8  9  1  0
  8 33  1  0
  9  1  1  0
  9 10  2  0
 10 11  1  0
 10 34  1  0
 11 12  2  0
 11 35  1  0
 12 15  1  0
 12  7  1  0
 13 14  1  0
 13 36  1  0
 13 37  1  0
 13 38  1  0
 14  7  1  0
 15 16  1  0
 16 17  1  0
 16 39  1  0
 16 40  1  0
 17 18  1  0
 17 41  1  0
 17 42  1  0
 18 19  1  0
 20 21  1  0
 21 22  2  0
 22 23  1  0
 22 43  1  0
 23 24  2  0
 23 44  1  0
 24 27  1  0
 24 25  1  0
 25 26  2  0
 25 45  1  0
 26 21  1  0
 26 46  1  0
 27 28  1  0
 27 47  1  0
 28 29  1  0
 28 48  1  0
 28 49  1  0
 29 27  1  0
 29 50  1  0
 29 51  1  0
M  END
>  <minimizedAffinity>  (2) 
-8.55206

>  <mol_id>  (2) 
30174

>  <source_index>  (2) 
1

>  <layer>  (2) 
L4

>  <uniprot>  (2) 
Q99705

>  <paff>  (2) 
8.3872

>  <smiles>  (2) 
COc1cc(N2CC=C(Oc3ccc(C4CC4)cc3)C2=O)ccc1OCCO

$$$$
L4:Q99705:54330
     RDKit          3D

 62 66  0  0  0  0  0  0  0  0999 V2000
  135.8547  140.8301  104.0347 C   0  0  0  0  0  0  0  0  0  0  0  0
  136.0251  142.0278  103.3178 C   0  0  0  0  0  0  0  0  0  0  0  0
  135.5122  142.2017  102.0239 C   0  0  0  0  0  0  0  0  0  0  0  0
  134.7980  141.1362  101.4720 C   0  0  0  0  0  0  0  0  0  0  0  0
  134.5997  139.9447  102.1843 C   0  0  0  0  0  0  0  0  0  0  0  0
  135.1271  139.7766  103.4671 C   0  0  0  0  0  0  0  0  0  0  0  0
  135.7112  143.4234  101.3221 N   0  0  0  0  0  0  0  0  0  0  0  0
  136.9576  143.7383  100.6668 C   0  0  0  0  0  0  0  0  0  0  0  0
  136.6959  145.0790  100.0907 C   0  0  0  0  0  0  0  0  0  0  0  0
  135.4700  145.5220  100.3772 C   0  0  0  0  0  0  0  0  0  0  0  0
  134.7752  144.4523  101.1465 C   0  0  0  0  0  0  0  0  0  0  0  0
  133.6119  144.5106  101.5054 O   0  0  0  0  0  0  0  0  0  0  0  0
  134.9454  146.7148   99.9456 O   0  0  0  0  0  0  0  0  0  0  0  0
  134.7902  147.7267  100.8593 C   0  0  0  0  0  0  0  0  0  0  0  0
  135.8700  148.2910  101.5357 C   0  0  0  0  0  0  0  0  0  0  0  0
  135.6554  149.3567  102.4153 C   0  0  0  0  0  0  0  0  0  0  0  0
  134.3728  149.8935  102.6204 C   0  0  0  0  0  0  0  0  0  0  0  0
  133.3066  149.3115  101.9137 C   0  0  0  0  0  0  0  0  0  0  0  0
  133.5110  148.2459  101.0324 C   0  0  0  0  0  0  0  0  0  0  0  0
  134.1444  151.0297  103.5876 C   0  0  0  0  0  0  0  0  0  0  0  0
  135.3198  151.7999  104.1440 C   0  0  0  0  0  0  0  0  0  0  0  0
  134.4027  152.4555  103.1573 C   0  0  0  0  0  0  0  0  0  0  0  0
  136.9096  142.1282  105.7292 C   0  0  0  0  0  0  0  0  0  0  0  0
  136.4332  140.8640  105.2796 O   0  0  0  0  0  0  0  0  0  0  0  0
  134.8968  138.6586  104.2194 O   0  0  0  0  0  0  0  0  0  0  0  0
  134.3898  137.5094  103.5340 C   0  0  0  0  0  0  0  0  0  0  0  0
  135.4304  136.3742  103.6147 C   0  0  0  0  0  0  0  0  0  0  0  0
  135.6817  135.6930  102.3219 N   0  0  0  0  0  0  0  0  0  0  0  0
  136.9766  134.9924  102.3387 C   0  0  0  0  0  0  0  0  0  0  0  0
  136.7282  133.6432  102.9957 C   0  0  0  0  0  0  0  0  0  0  0  0
  135.2586  133.3590  102.7442 C   0  0  1  0  0  0  0  0  0  0  0  0
  134.6341  133.1824  103.9411 F   0  0  0  0  0  0  0  0  0  0  0  0
  134.7102  134.6091  102.0633 C   0  0  0  0  0  0  0  0  0  0  0  0
  136.5442  142.8037  103.7578 H   0  0  0  0  0  0  0  0  0  0  0  0
  134.4083  141.2275  100.5208 H   0  0  0  0  0  0  0  0  0  0  0  0
  134.0558  139.1802  101.7544 H   0  0  0  0  0  0  0  0  0  0  0  0
  137.1806  143.0261   99.9000 H   0  0  0  0  0  0  0  0  0  0  0  0
  137.8000  143.7175  101.3262 H   0  0  0  0  0  0  0  0  0  0  0  0
  137.3830  145.6090   99.5321 H   0  0  0  0  0  0  0  0  0  0  0  0
  136.8233  147.9242  101.3882 H   0  0  0  0  0  0  0  0  0  0  0  0
  136.4574  149.7583  102.9257 H   0  0  0  0  0  0  0  0  0  0  0  0
  132.3517  149.6789  102.0483 H   0  0  0  0  0  0  0  0  0  0  0  0
  132.7152  147.8454  100.5115 H   0  0  0  0  0  0  0  0  0  0  0  0
  133.3144  150.5013  104.0081 H   0  0  0  0  0  0  0  0  0  0  0  0
  136.3159  151.5371  103.8547 H   0  0  0  0  0  0  0  0  0  0  0  0
  135.6676  152.0405  105.1269 H   0  0  0  0  0  0  0  0  0  0  0  0
  134.7447  152.6602  102.1643 H   0  0  0  0  0  0  0  0  0  0  0  0
  133.8262  153.3568  103.1457 H   0  0  0  0  0  0  0  0  0  0  0  0
  137.3349  142.0225  106.7053 H   0  0  0  0  0  0  0  0  0  0  0  0
  136.0965  142.8226  105.7678 H   0  0  0  0  0  0  0  0  0  0  0  0
  137.6554  142.4896  105.0524 H   0  0  0  0  0  0  0  0  0  0  0  0
  134.2066  137.7554  102.5089 H   0  0  0  0  0  0  0  0  0  0  0  0
  133.4747  137.1927  103.9891 H   0  0  0  0  0  0  0  0  0  0  0  0
  135.0802  135.6460  104.3161 H   0  0  0  0  0  0  0  0  0  0  0  0
  136.3550  136.8226  103.9131 H   0  0  0  0  0  0  0  0  0  0  0  0
  137.6927  135.5523  102.9031 H   0  0  0  0  0  0  0  0  0  0  0  0
  137.3665  134.8754  101.3492 H   0  0  0  0  0  0  0  0  0  0  0  0
  136.9292  133.6917  104.0455 H   0  0  0  0  0  0  0  0  0  0  0  0
  137.3627  132.8771  102.6014 H   0  0  0  0  0  0  0  0  0  0  0  0
  135.1088  132.4839  102.1470 H   0  0  0  0  0  0  0  0  0  0  0  0
  133.7553  134.8639  102.4734 H   0  0  0  0  0  0  0  0  0  0  0  0
  134.5803  134.4504  101.0131 H   0  0  0  0  0  0  0  0  0  0  0  0
  1  2  2  0
  2  3  1  0
  2 34  1  0
  3  7  1  0
  3  4  2  0
  4  5  1  0
  4 35  1  0
  5  6  2  0
  5 36  1  0
  6 25  1  0
  6  1  1  0
  7  8  1  0
  8  9  1  0
  8 37  1  0
  8 38  1  0
  9 10  2  0
  9 39  1  0
 10 13  1  0
 10 11  1  0
 11 12  2  0
 11  7  1  0
 13 14  1  0
 14 15  2  0
 15 16  1  0
 15 40  1  0
 16 17  2  0
 16 41  1  0
 17 20  1  0
 17 18  1  0
 18 19  2  0
 18 42  1  0
 19 14  1  0
 19 43  1  0
 20 21  1  0
 20 44  1  0
 21 22  1  0
 21 45  1  0
 21 46  1  0
 22 20  1  0
 22 47  1  0
 22 48  1  0
 23 24  1  0
 23 49  1  0
 23 50  1  0
 23 51  1  0
 24  1  1  0
 25 26  1  0
 26 27  1  0
 26 52  1  0
 26 53  1  0
 27 28  1  0
 27 54  1  0
 27 55  1  0
 28 29  1  0
 29 30  1  0
 29 56  1  0
 29 57  1  0
 30 31  1  0
 30 58  1  0
 30 59  1  0
 31 32  1  0
 31 33  1  0
 31 60  1  6
 33 28  1  0
 33 61  1  0
 33 62  1  0
M  END
>  <minimizedAffinity>  (3) 
-9.03148

>  <mol_id>  (3) 
54330

>  <source_index>  (3) 
2

>  <layer>  (3) 
L4

>  <uniprot>  (3) 
Q99705

>  <paff>  (3) 
9.1937999999999995

>  <smiles>  (3) 
COc1cc(N2CC=C(Oc3ccc(C4CC4)cc3)C2=O)ccc1OCCN1CC[C@@H](F)C1

$$$$
L4:Q99705:55671
     RDKit          3D

 65 69  0  0  0  0  0  0  0  0999 V2000
  134.4136  144.3751  101.9793 O   0  0  0  0  0  0  0  0  0  0  0  0
  135.1298  144.4023  100.9960 C   0  0  0  0  0  0  0  0  0  0  0  0
  135.1476  145.4394   99.9314 C   0  0  0  0  0  0  0  0  0  0  0  0
  136.0736  145.0712   99.0389 C   0  0  0  0  0  0  0  0  0  0  0  0
  136.7737  143.8191   99.4211 C   0  0  0  0  0  0  0  0  0  0  0  0
  136.0941  143.4664  100.6412 N   0  0  0  0  0  0  0  0  0  0  0  0
  136.4570  142.3295  101.4884 C   0  0  1  0  0  0  0  0  0  0  0  0
  137.4036  142.7027  102.6445 C   0  0  0  0  0  0  0  0  0  0  0  0
  136.6606  142.8922  103.9666 C   0  0  0  0  0  0  0  0  0  0  0  0
  135.9114  141.6176  104.3932 C   0  0  1  0  0  0  0  0  0  0  0  0
  135.4806  140.7531  103.1999 C   0  0  0  0  0  0  0  0  0  0  0  0
  135.1910  141.5952  101.9663 C   0  0  0  0  0  0  0  0  0  0  0  0
  136.7593  140.8030  105.2096 O   0  0  0  0  0  0  0  0  0  0  0  0
  136.1013  140.2262  106.3433 C   0  0  0  0  0  0  0  0  0  0  0  0
  136.8728  140.5505  107.6357 C   0  0  0  0  0  0  0  0  0  0  0  0
  136.4998  141.8593  108.2019 N   0  0  0  0  0  0  0  0  0  0  0  0
  136.7516  141.9093  109.6537 C   0  0  0  0  0  0  0  0  0  0  0  0
  135.5507  141.2438  110.3069 C   0  0  0  0  0  0  0  0  0  0  0  0
  134.3945  141.5736  109.3736 C   0  0  1  0  0  0  0  0  0  0  0  0
  133.5522  142.5417  109.9890 O   0  0  0  0  0  0  0  0  0  0  0  0
  135.0521  142.1225  108.0979 C   0  0  0  0  0  0  0  0  0  0  0  0
  132.8698  142.7938  109.3439 H   0  0  0  0  0  0  0  0  0  0  0  0
  134.3339  146.5380   99.8111 O   0  0  0  0  0  0  0  0  0  0  0  0
  134.7087  147.6991  100.4365 C   0  0  0  0  0  0  0  0  0  0  0  0
  133.9666  148.1108  101.5371 C   0  0  0  0  0  0  0  0  0  0  0  0
  134.2775  149.3174  102.1727 C   0  0  0  0  0  0  0  0  0  0  0  0
  135.3198  150.1499  101.7220 C   0  0  0  0  0  0  0  0  0  0  0  0
  136.0343  149.7112  100.5910 C   0  0  0  0  0  0  0  0  0  0  0  0
  135.7319  148.5059   99.9469 C   0  0  0  0  0  0  0  0  0  0  0  0
  135.6171  151.4469  102.4534 C   0  0  0  0  0  0  0  0  0  0  0  0
  134.9474  151.7812  103.7643 C   0  0  0  0  0  0  0  0  0  0  0  0
  134.5939  152.5547  102.5261 C   0  0  0  0  0  0  0  0  0  0  0  0
  136.2792  145.6007   98.1773 H   0  0  0  0  0  0  0  0  0  0  0  0
  137.8161  143.9911   99.5907 H   0  0  0  0  0  0  0  0  0  0  0  0
  136.7428  143.0572   98.6704 H   0  0  0  0  0  0  0  0  0  0  0  0
  137.0260  141.6524  100.8862 H   0  0  0  0  0  0  0  0  0  0  0  0
  137.9045  143.6155  102.3977 H   0  0  0  0  0  0  0  0  0  0  0  0
  138.0968  141.8977  102.7719 H   0  0  0  0  0  0  0  0  0  0  0  0
  135.9537  143.6876  103.8549 H   0  0  0  0  0  0  0  0  0  0  0  0
  137.3828  143.1203  104.7224 H   0  0  0  0  0  0  0  0  0  0  0  0
  135.0413  141.9487  104.9207 H   0  0  0  0  0  0  0  0  0  0  0  0
  134.5962  140.2125  103.4654 H   0  0  0  0  0  0  0  0  0  0  0  0
  136.2838  140.0861  102.9657 H   0  0  0  0  0  0  0  0  0  0  0  0
  134.4373  142.3164  102.2043 H   0  0  0  0  0  0  0  0  0  0  0  0
  134.8569  140.9476  101.1828 H   0  0  0  0  0  0  0  0  0  0  0  0
  136.0518  139.1645  106.2195 H   0  0  0  0  0  0  0  0  0  0  0  0
  135.1151  140.6348  106.4166 H   0  0  0  0  0  0  0  0  0  0  0  0
  137.9203  140.5568  107.4177 H   0  0  0  0  0  0  0  0  0  0  0  0
  136.6261  139.8011  108.3585 H   0  0  0  0  0  0  0  0  0  0  0  0
  136.8392  142.9240  109.9817 H   0  0  0  0  0  0  0  0  0  0  0  0
  137.6643  141.4142  109.9118 H   0  0  0  0  0  0  0  0  0  0  0  0
  135.3777  141.6454  111.2835 H   0  0  0  0  0  0  0  0  0  0  0  0
  135.6852  140.1907  110.4400 H   0  0  0  0  0  0  0  0  0  0  0  0
  133.7797  140.7266  109.1513 H   0  0  0  0  0  0  0  0  0  0  0  0
  134.8761  143.1750  108.0191 H   0  0  0  0  0  0  0  0  0  0  0  0
  134.6432  141.6516  107.2285 H   0  0  0  0  0  0  0  0  0  0  0  0
  133.1887  147.5282  101.8843 H   0  0  0  0  0  0  0  0  0  0  0  0
  133.7267  149.6060  102.9963 H   0  0  0  0  0  0  0  0  0  0  0  0
  136.8031  150.2951  100.2264 H   0  0  0  0  0  0  0  0  0  0  0  0
  136.2654  148.2165   99.1123 H   0  0  0  0  0  0  0  0  0  0  0  0
  136.6305  151.3692  102.1188 H   0  0  0  0  0  0  0  0  0  0  0  0
  135.5072  152.2505  104.5461 H   0  0  0  0  0  0  0  0  0  0  0  0
  134.3935  151.2268  104.4928 H   0  0  0  0  0  0  0  0  0  0  0  0
  134.9022  153.5745  102.4266 H   0  0  0  0  0  0  0  0  0  0  0  0
  133.6844  152.7785  102.0088 H   0  0  0  0  0  0  0  0  0  0  0  0
  1  2  2  0
  2  3  1  0
  3 23  1  0
  3  4  2  0
  4  5  1  0
  4 33  1  0
  5  6  1  0
  5 34  1  0
  5 35  1  0
  6  7  1  0
  6  2  1  0
  7  8  1  0
  7 36  1  6
  8  9  1  0
  8 37  1  0
  8 38  1  0
  9 10  1  0
  9 39  1  0
  9 40  1  0
 10 13  1  0
 10 11  1  0
 10 41  1  1
 11 12  1  0
 11 42  1  0
 11 43  1  0
 12  7  1  0
 12 44  1  0
 12 45  1  0
 13 14  1  0
 14 15  1  0
 14 46  1  0
 14 47  1  0
 15 16  1  0
 15 48  1  0
 15 49  1  0
 16 17  1  0
 17 18  1  0
 17 50  1  0
 17 51  1  0
 18 19  1  0
 18 52  1  0
 18 53  1  0
 19 20  1  0
 19 21  1  0
 19 54  1  6
 20 22  1  0
 21 16  1  0
 21 55  1  0
 21 56  1  0
 23 24  1  0
 24 25  2  0
 25 26  1  0
 25 57  1  0
 26 27  2  0
 26 58  1  0
 27 30  1  0
 27 28  1  0
 28 29  2  0
 28 59  1  0
 29 24  1  0
 29 60  1  0
 30 31  1  0
 30 61  1  0
 31 32  1  0
 31 62  1  0
 31 63  1  0
 32 30  1  0
 32 64  1  0
 32 65  1  0
M  END
>  <minimizedAffinity>  (4) 
-9.52076

>  <mol_id>  (4) 
55671

>  <source_index>  (4) 
3

>  <layer>  (4) 
L4

>  <uniprot>  (4) 
Q99705

>  <paff>  (4) 
7.3872

>  <smiles>  (4) 
O[C@@H]1CCN(CCO[C@H]2CC[C@@H](CC2)N2CC=C(Oc3ccc(cc3)C3CC3)C2=O)C1 |r,wU:11.14,wD:8.7,1.0,t:17,(11.77,-.73,;10.44,-1.5,;9.19,-2.41,;7.95,-1.5,;8.42,-.04,;7.33,1.05,;5.85,.65,;4.76,1.74,;3.27,1.34,;2.18,2.43,;.69,2.03,;.29,.55,;1.38,-.54,;2.87,-.14,;-1.19,.15,;-2.1,-1.1,;-3.56,-.62,;-3.56,.92,;-4.9,1.69,;-6.23,.92,;-6.23,-.62,;-7.56,-1.39,;-8.9,-.62,;-8.9,.92,;-7.56,1.69,;-10.23,-1.39,;-11.77,-1.39,;-11,-2.73,;-2.1,1.39,;-1.33,2.73,;9.96,-.04,)|

$$$$
L4:Q99705:66091
     RDKit          3D

 66 70  0  0  0  0  0  0  0  0999 V2000
  135.8315  141.1447  103.9519 C   0  0  0  0  0  0  0  0  0  0  0  0
  135.9395  142.3578  103.2517 C   0  0  0  0  0  0  0  0  0  0  0  0
  135.4057  142.5157  101.9652 C   0  0  0  0  0  0  0  0  0  0  0  0
  134.7596  141.4112  101.3923 C   0  0  0  0  0  0  0  0  0  0  0  0
  134.6455  140.1946  102.0776 C   0  0  0  0  0  0  0  0  0  0  0  0
  135.1766  140.0513  103.3587 C   0  0  0  0  0  0  0  0  0  0  0  0
  135.5127  143.7418  101.2472 N   0  0  0  0  0  0  0  0  0  0  0  0
  136.7342  144.1476  100.5953 C   0  0  0  0  0  0  0  0  0  0  0  0
  136.3727  145.4564  100.0013 C   0  0  0  0  0  0  0  0  0  0  0  0
  135.1135  145.8044  100.2735 C   0  0  0  0  0  0  0  0  0  0  0  0
  134.4991  144.6919  101.0506 C   0  0  0  0  0  0  0  0  0  0  0  0
  133.3317  144.6631  101.3990 O   0  0  0  0  0  0  0  0  0  0  0  0
  134.5004  146.9473   99.8238 O   0  0  0  0  0  0  0  0  0  0  0  0
  134.6704  148.1033  100.5422 C   0  0  0  0  0  0  0  0  0  0  0  0
  133.9879  148.3490  101.7306 C   0  0  0  0  0  0  0  0  0  0  0  0
  134.2429  149.5234  102.4483 C   0  0  0  0  0  0  0  0  0  0  0  0
  135.1894  150.4704  102.0135 C   0  0  0  0  0  0  0  0  0  0  0  0
  135.8755  150.1752  100.8200 C   0  0  0  0  0  0  0  0  0  0  0  0
  135.6287  149.0050  100.0946 C   0  0  0  0  0  0  0  0  0  0  0  0
  135.4936  151.7582  102.7582 C   0  0  0  0  0  0  0  0  0  0  0  0
  134.4979  152.8923  102.7975 C   0  0  0  0  0  0  0  0  0  0  0  0
  134.7858  152.1069  104.0452 C   0  0  0  0  0  0  0  0  0  0  0  0
  137.0055  142.0107  105.8484 C   0  0  0  0  0  0  0  0  0  0  0  0
  136.3385  140.9301  105.2111 O   0  0  0  0  0  0  0  0  0  0  0  0
  135.1145  138.9019  104.1040 O   0  0  0  0  0  0  0  0  0  0  0  0
  134.5277  137.7459  103.5071 C   0  0  0  0  0  0  0  0  0  0  0  0
  135.5463  136.5894  103.4984 C   0  0  0  0  0  0  0  0  0  0  0  0
  135.2209  135.4851  102.5891 N   0  0  0  0  0  0  0  0  0  0  0  0
  134.4526  134.4319  103.2463 C   0  0  0  0  0  0  0  0  0  0  0  0
  134.5321  133.2566  102.2845 C   0  0  0  0  0  0  0  0  0  0  0  0
  135.6611  133.5936  101.3171 C   0  0  0  0  0  0  0  0  0  0  0  0
  136.3395  134.8431  101.8840 C   0  0  2  0  0  0  0  0  0  0  0  0
  137.6154  134.5013  102.6948 C   0  0  0  0  0  0  0  0  0  0  0  0
  138.7665  135.2488  102.3179 O   0  0  0  0  0  0  0  0  0  0  0  0
  138.5727  136.1873  102.4771 H   0  0  0  0  0  0  0  0  0  0  0  0
  136.4243  143.1532  103.6959 H   0  0  0  0  0  0  0  0  0  0  0  0
  134.3592  141.4962  100.4449 H   0  0  0  0  0  0  0  0  0  0  0  0
  134.1646  139.3983  101.6307 H   0  0  0  0  0  0  0  0  0  0  0  0
  137.0180  143.4465   99.8385 H   0  0  0  0  0  0  0  0  0  0  0  0
  137.5706  144.2017  101.2604 H   0  0  0  0  0  0  0  0  0  0  0  0
  137.0205  146.0325   99.4414 H   0  0  0  0  0  0  0  0  0  0  0  0
  133.2965  147.6677  102.0811 H   0  0  0  0  0  0  0  0  0  0  0  0
  133.7220  149.7001  103.3215 H   0  0  0  0  0  0  0  0  0  0  0  0
  136.5813  150.8419  100.4701 H   0  0  0  0  0  0  0  0  0  0  0  0
  136.1568  148.8116   99.2293 H   0  0  0  0  0  0  0  0  0  0  0  0
  136.5159  151.6550  102.4596 H   0  0  0  0  0  0  0  0  0  0  0  0
  133.5519  152.7903  102.3080 H   0  0  0  0  0  0  0  0  0  0  0  0
  134.5228  153.9292  102.5347 H   0  0  0  0  0  0  0  0  0  0  0  0
  134.0447  151.4459  104.4437 H   0  0  0  0  0  0  0  0  0  0  0  0
  135.1004  152.3536  105.0377 H   0  0  0  0  0  0  0  0  0  0  0  0
  137.3444  141.7005  106.8148 H   0  0  0  0  0  0  0  0  0  0  0  0
  136.3302  142.8339  105.9545 H   0  0  0  0  0  0  0  0  0  0  0  0
  137.8442  142.3114  105.2559 H   0  0  0  0  0  0  0  0  0  0  0  0
  134.2391  137.9727  102.5020 H   0  0  0  0  0  0  0  0  0  0  0  0
  133.6670  137.4546  104.0721 H   0  0  0  0  0  0  0  0  0  0  0  0
  135.6093  136.1948  104.4910 H   0  0  0  0  0  0  0  0  0  0  0  0
  136.4680  137.0046  103.1477 H   0  0  0  0  0  0  0  0  0  0  0  0
  133.4370  134.7365  103.3902 H   0  0  0  0  0  0  0  0  0  0  0  0
  134.8323  134.1929  104.2177 H   0  0  0  0  0  0  0  0  0  0  0  0
  133.6087  133.1435  101.7559 H   0  0  0  0  0  0  0  0  0  0  0  0
  134.7132  132.3359  102.7988 H   0  0  0  0  0  0  0  0  0  0  0  0
  135.2686  133.7931  100.3419 H   0  0  0  0  0  0  0  0  0  0  0  0
  136.3510  132.7815  101.2200 H   0  0  0  0  0  0  0  0  0  0  0  0
  136.7680  135.5180  101.1727 H   0  0  0  0  0  0  0  0  0  0  0  0
  137.8310  133.4622  102.5581 H   0  0  0  0  0  0  0  0  0  0  0  0
  137.4072  134.7522  103.7139 H   0  0  0  0  0  0  0  0  0  0  0  0
  1  2  2  0
  2  3  1  0
  2 36  1  0
  3  7  1  0
  3  4  2  0
  4  5  1  0
  4 37  1  0
  5  6  2  0
  5 38  1  0
  6 25  1  0
  6  1  1  0
  7  8  1  0
  8  9  1  0
  8 39  1  0
  8 40  1  0
  9 10  2  0
  9 41  1  0
 10 13  1  0
 10 11  1  0
 11 12  2  0
 11  7  1  0
 13 14  1  0
 14 15  2  0
 15 16  1  0
 15 42  1  0
 16 17  2  0
 16 43  1  0
 17 20  1  0
 17 18  1  0
 18 19  2  0
 18 44  1  0
 19 14  1  0
 19 45  1  0
 20 21  1  0
 20 46  1  0
 21 22  1  0
 21 47  1  0
 21 48  1  0
 22 20  1  0
 22 49  1  0
 22 50  1  0
 23 24  1  0
 23 51  1  0
 23 52  1  0
 23 53  1  0
 24  1  1  0
 25 26  1  0
 26 27  1  0
 26 54  1  0
 26 55  1  0
 27 28  1  0
 27 56  1  0
 27 57  1  0
 28 29  1  0
 29 30  1  0
 29 58  1  0
 29 59  1  0
 30 31  1  0
 30 60  1  0
 30 61  1  0
 31 32  1  0
 31 62  1  0
 31 63  1  0
 32 33  1  0
 32 28  1  0
 32 64  1  6
 33 34  1  0
 33 65  1  0
 33 66  1  0
 34 35  1  0
M  END
>  <minimizedAffinity>  (5) 
-9.40932

>  <mol_id>  (5) 
66091

>  <source_index>  (5) 
4

>  <layer>  (5) 
L4

>  <uniprot>  (5) 
Q99705

>  <paff>  (5) 
9.1870999999999992

>  <smiles>  (5) 
COc1cc(N2CC=C(Oc3ccc(C4CC4)cc3)C2=O)ccc1OCCN1CCC[C@@H]1CO

$$$$
L4:Q99705:87356
     RDKit          3D

 63 67  0  0  0  0  0  0  0  0999 V2000
  135.9651  141.0408  104.1425 C   0  0  0  0  0  0  0  0  0  0  0  0
  136.0893  142.2160  103.3877 C   0  0  0  0  0  0  0  0  0  0  0  0
  135.4932  142.3464  102.1211 C   0  0  0  0  0  0  0  0  0  0  0  0
  134.7682  141.2517  101.6209 C   0  0  0  0  0  0  0  0  0  0  0  0
  134.6345  140.0746  102.3608 C   0  0  0  0  0  0  0  0  0  0  0  0
  135.2140  139.9818  103.6215 C   0  0  0  0  0  0  0  0  0  0  0  0
  135.6156  143.5392  101.3515 N   0  0  0  0  0  0  0  0  0  0  0  0
  136.8383  143.8987  100.6762 C   0  0  0  0  0  0  0  0  0  0  0  0
  136.4919  145.1862  100.0263 C   0  0  0  0  0  0  0  0  0  0  0  0
  135.2288  145.5551  100.2750 C   0  0  0  0  0  0  0  0  0  0  0  0
  134.6249  144.5042  101.1346 C   0  0  0  0  0  0  0  0  0  0  0  0
  133.4727  144.5515  101.5313 O   0  0  0  0  0  0  0  0  0  0  0  0
  134.5123  146.6537   99.8752 O   0  0  0  0  0  0  0  0  0  0  0  0
  134.7529  147.8384  100.5190 C   0  0  0  0  0  0  0  0  0  0  0  0
  135.7001  148.7183  100.0095 C   0  0  0  0  0  0  0  0  0  0  0  0
  135.9255  149.9366  100.6571 C   0  0  0  0  0  0  0  0  0  0  0  0
  135.2086  150.3113  101.8110 C   0  0  0  0  0  0  0  0  0  0  0  0
  134.2419  149.4006  102.2807 C   0  0  0  0  0  0  0  0  0  0  0  0
  134.0072  148.1788  101.6417 C   0  0  0  0  0  0  0  0  0  0  0  0
  135.4948  151.6476  102.4729 C   0  0  0  0  0  0  0  0  0  0  0  0
  134.4602  152.7469  102.4913 C   0  0  0  0  0  0  0  0  0  0  0  0
  134.8261  152.0434  103.7671 C   0  0  0  0  0  0  0  0  0  0  0  0
  136.3517  141.8320  106.3613 C   0  0  0  0  0  0  0  0  0  0  0  0
  136.5348  140.8290  105.3708 O   0  0  0  0  0  0  0  0  0  0  0  0
  135.0835  138.7950  104.2962 O   0  0  0  0  0  0  0  0  0  0  0  0
  134.5058  137.7938  103.4437 C   0  0  0  0  0  0  0  0  0  0  0  0
  135.2401  136.4583  103.6575 C   0  0  0  0  0  0  0  0  0  0  0  0
  135.6725  135.8387  102.3887 N   0  0  0  0  0  0  0  0  0  0  0  0
  135.0927  134.4860  102.2147 C   0  0  0  0  0  0  0  0  0  0  0  0
  136.3691  133.8543  102.8116 C   0  0  0  0  0  0  0  0  0  0  0  0
  137.0152  135.2298  102.5395 C   0  0  0  0  0  0  0  0  0  0  0  0
  136.9498  132.7256  102.1158 O   0  0  0  0  0  0  0  0  0  0  0  0
  137.0721  131.5346  102.8798 C   0  0  0  0  0  0  0  0  0  0  0  0
  136.6321  143.0053  103.7717 H   0  0  0  0  0  0  0  0  0  0  0  0
  134.3267  141.3185  100.6905 H   0  0  0  0  0  0  0  0  0  0  0  0
  134.1074  139.2765  101.9732 H   0  0  0  0  0  0  0  0  0  0  0  0
  137.1079  143.1610   99.9496 H   0  0  0  0  0  0  0  0  0  0  0  0
  137.6790  143.9703  101.3342 H   0  0  0  0  0  0  0  0  0  0  0  0
  137.1485  145.7345   99.4490 H   0  0  0  0  0  0  0  0  0  0  0  0
  136.2328  148.4744   99.1600 H   0  0  0  0  0  0  0  0  0  0  0  0
  136.6379  150.5805  100.2790 H   0  0  0  0  0  0  0  0  0  0  0  0
  133.6915  149.6417  103.1197 H   0  0  0  0  0  0  0  0  0  0  0  0
  133.2855  147.5346  102.0011 H   0  0  0  0  0  0  0  0  0  0  0  0
  136.5079  151.5627  102.1393 H   0  0  0  0  0  0  0  0  0  0  0  0
  133.5000  152.5848  102.0479 H   0  0  0  0  0  0  0  0  0  0  0  0
  134.4363  153.7676  102.1712 H   0  0  0  0  0  0  0  0  0  0  0  0
  134.1263  151.3806  104.2317 H   0  0  0  0  0  0  0  0  0  0  0  0
  135.1704  152.3564  104.7306 H   0  0  0  0  0  0  0  0  0  0  0  0
  136.8463  141.5371  107.2632 H   0  0  0  0  0  0  0  0  0  0  0  0
  135.3065  141.9579  106.5525 H   0  0  0  0  0  0  0  0  0  0  0  0
  136.7645  142.7560  106.0138 H   0  0  0  0  0  0  0  0  0  0  0  0
  134.6028  138.0954  102.4217 H   0  0  0  0  0  0  0  0  0  0  0  0
  133.4694  137.6751  103.6817 H   0  0  0  0  0  0  0  0  0  0  0  0
  134.5819  135.7823  104.1622 H   0  0  0  0  0  0  0  0  0  0  0  0
  136.1177  136.6598  104.2354 H   0  0  0  0  0  0  0  0  0  0  0  0
  134.9097  134.2181  101.1951 H   0  0  0  0  0  0  0  0  0  0  0  0
  134.1328  134.2537  102.6264 H   0  0  0  0  0  0  0  0  0  0  0  0
  136.3754  133.3769  103.7692 H   0  0  0  0  0  0  0  0  0  0  0  0
  137.6111  135.2633  101.6514 H   0  0  0  0  0  0  0  0  0  0  0  0
  137.7191  135.6414  103.2323 H   0  0  0  0  0  0  0  0  0  0  0  0
  137.5097  130.7670  102.2762 H   0  0  0  0  0  0  0  0  0  0  0  0
  136.1035  131.2209  103.2088 H   0  0  0  0  0  0  0  0  0  0  0  0
  137.6953  131.7186  103.7299 H   0  0  0  0  0  0  0  0  0  0  0  0
  1  2  2  0
  2  3  1  0
  2 34  1  0
  3  7  1  0
  3  4  2  0
  4  5  1  0
  4 35  1  0
  5  6  2  0
  5 36  1  0
  6 25  1  0
  6  1  1  0
  7  8  1  0
  8  9  1  0
  8 37  1  0
  8 38  1  0
  9 10  2  0
  9 39  1  0
 10 13  1  0
 10 11  1  0
 11 12  2  0
 11  7  1  0
 13 14  1  0
 14 15  2  0
 15 16  1  0
 15 40  1  0
 16 17  2  0
 16 41  1  0
 17 20  1  0
 17 18  1  0
 18 19  2  0
 18 42  1  0
 19 14  1  0
 19 43  1  0
 20 21  1  0
 20 44  1  0
 21 22  1  0
 21 45  1  0
 21 46  1  0
 22 20  1  0
 22 47  1  0
 22 48  1  0
 23 24  1  0
 23 49  1  0
 23 50  1  0
 23 51  1  0
 24  1  1  0
 25 26  1  0
 26 27  1  0
 26 52  1  0
 26 53  1  0
 27 28  1  0
 27 54  1  0
 27 55  1  0
 28 29  1  0
 29 30  1  0
 29 56  1  0
 29 57  1  0
 30 32  1  0
 30 31  1  0
 30 58  1  0
 31 28  1  0
 31 59  1  0
 31 60  1  0
 32 33  1  0
 33 61  1  0
 33 62  1  0
 33 63  1  0
M  END
>  <minimizedAffinity>  (6) 
-8.83095

>  <mol_id>  (6) 
87356

>  <source_index>  (6) 
5

>  <layer>  (6) 
L4

>  <uniprot>  (6) 
Q99705

>  <paff>  (6) 
9.3278999999999996

>  <smiles>  (6) 
COC1CN(CCOc2ccc(cc2OC)N2CC=C(Oc3ccc(cc3)C3CC3)C2=O)C1 |t:19|

$$$$
L4:Q99705:93256
     RDKit          3D

 58 62  0  0  0  0  0  0  0  0999 V2000
  136.3793  142.9428  102.0426 N   0  0  0  0  0  0  0  0  0  0  0  0
  137.4088  142.7454  101.0527 C   0  0  0  0  0  0  0  0  0  0  0  0
  136.9915  143.6516   99.9550 C   0  0  0  0  0  0  0  0  0  0  0  0
  135.8588  144.3058  100.2423 C   0  0  0  0  0  0  0  0  0  0  0  0
  135.4284  143.8677  101.5955 C   0  0  0  0  0  0  0  0  0  0  0  0
  134.4198  144.2862  102.1387 O   0  0  0  0  0  0  0  0  0  0  0  0
  135.7377  140.3478  104.6925 C   0  0  0  0  0  0  0  0  0  0  0  0
  135.7252  141.0275  103.4629 C   0  0  0  0  0  0  0  0  0  0  0  0
  136.3818  142.2546  103.2899 C   0  0  0  0  0  0  0  0  0  0  0  0
  137.0472  142.7964  104.3983 C   0  0  0  0  0  0  0  0  0  0  0  0
  137.0576  142.1358  105.6307 C   0  0  0  0  0  0  0  0  0  0  0  0
  136.4073  140.9051  105.7935 C   0  0  0  0  0  0  0  0  0  0  0  0
  134.7277  138.3972  103.7717 C   0  0  0  0  0  0  0  0  0  0  0  0
  135.0854  139.1614  104.9169 O   0  0  0  0  0  0  0  0  0  0  0  0
  136.4506  140.2071  107.1405 C   0  0  0  0  0  0  0  0  0  0  0  0
  136.7976  141.1068  108.2569 N   0  0  0  0  0  0  0  0  0  0  0  0
  136.4171  140.5165  109.5482 C   0  0  0  0  0  0  0  0  0  0  0  0
  134.9539  140.8788  109.7563 C   0  0  0  0  0  0  0  0  0  0  0  0
  134.7259  142.1107  108.8909 C   0  0  0  0  0  0  0  0  0  0  0  0
  136.0689  142.3810  108.2274 C   0  0  0  0  0  0  0  0  0  0  0  0
  135.1364  145.2220   99.5217 O   0  0  0  0  0  0  0  0  0  0  0  0
  135.2020  146.5331   99.9136 C   0  0  0  0  0  0  0  0  0  0  0  0
  136.3872  147.2424   99.7484 C   0  0  0  0  0  0  0  0  0  0  0  0
  136.4567  148.5722  100.1713 C   0  0  0  0  0  0  0  0  0  0  0  0
  135.3553  149.2108  100.7690 C   0  0  0  0  0  0  0  0  0  0  0  0
  134.1836  148.4540  100.9490 C   0  0  0  0  0  0  0  0  0  0  0  0
  134.1033  147.1237  100.5298 C   0  0  0  0  0  0  0  0  0  0  0  0
  135.4423  150.6421  101.2407 C   0  0  0  0  0  0  0  0  0  0  0  0
  134.2039  151.3534  101.7358 C   0  0  0  0  0  0  0  0  0  0  0  0
  134.8130  151.7484  100.4253 C   0  0  0  0  0  0  0  0  0  0  0  0
  137.4355  141.7279  100.7227 H   0  0  0  0  0  0  0  0  0  0  0  0
  138.3926  142.9513  101.4195 H   0  0  0  0  0  0  0  0  0  0  0  0
  137.5136  143.7648   99.0721 H   0  0  0  0  0  0  0  0  0  0  0  0
  135.2190  140.6124  102.6651 H   0  0  0  0  0  0  0  0  0  0  0  0
  137.5383  143.6991  104.3031 H   0  0  0  0  0  0  0  0  0  0  0  0
  137.5510  142.5604  106.4315 H   0  0  0  0  0  0  0  0  0  0  0  0
  134.2290  137.5026  104.0814 H   0  0  0  0  0  0  0  0  0  0  0  0
  135.6103  138.1420  103.2233 H   0  0  0  0  0  0  0  0  0  0  0  0
  134.0747  138.9722  103.1489 H   0  0  0  0  0  0  0  0  0  0  0  0
  137.1811  139.4266  107.0945 H   0  0  0  0  0  0  0  0  0  0  0  0
  135.4675  139.8309  107.3325 H   0  0  0  0  0  0  0  0  0  0  0  0
  137.0171  140.9238  110.3350 H   0  0  0  0  0  0  0  0  0  0  0  0
  136.5646  139.4567  109.5548 H   0  0  0  0  0  0  0  0  0  0  0  0
  134.7644  141.1019  110.7855 H   0  0  0  0  0  0  0  0  0  0  0  0
  134.2993  140.0749  109.4915 H   0  0  0  0  0  0  0  0  0  0  0  0
  134.4298  142.9439  109.4934 H   0  0  0  0  0  0  0  0  0  0  0  0
  133.9468  141.9589  108.1734 H   0  0  0  0  0  0  0  0  0  0  0  0
  136.6074  143.1301  108.7694 H   0  0  0  0  0  0  0  0  0  0  0  0
  135.9469  142.7400  107.2268 H   0  0  0  0  0  0  0  0  0  0  0  0
  137.2084  146.7901   99.3170 H   0  0  0  0  0  0  0  0  0  0  0  0
  137.3356  149.0975  100.0423 H   0  0  0  0  0  0  0  0  0  0  0  0
  133.3651  148.8910  101.4007 H   0  0  0  0  0  0  0  0  0  0  0  0
  133.2362  146.5836  100.6760 H   0  0  0  0  0  0  0  0  0  0  0  0
  136.4178  150.4503  101.6362 H   0  0  0  0  0  0  0  0  0  0  0  0
  134.2669  152.0142  102.5750 H   0  0  0  0  0  0  0  0  0  0  0  0
  133.2304  151.0422  102.0525 H   0  0  0  0  0  0  0  0  0  0  0  0
  135.3104  152.6909  100.3299 H   0  0  0  0  0  0  0  0  0  0  0  0
  134.4534  151.8353   99.4213 H   0  0  0  0  0  0  0  0  0  0  0  0
  1  2  1  0
  2  3  1  0
  2 31  1  0
  2 32  1  0
  3  4  2  0
  3 33  1  0
  4 21  1  0
  4  5  1  0
  5  6  2  0
  5  1  1  0
  7  8  2  0
  8  9  1  0
  8 34  1  0
  9  1  1  0
  9 10  2  0
 10 11  1  0
 10 35  1  0
 11 12  2  0
 11 36  1  0
 12 15  1  0
 12  7  1  0
 13 14  1  0
 13 37  1  0
 13 38  1  0
 13 39  1  0
 14  7  1  0
 15 16  1  0
 15 40  1  0
 15 41  1  0
 16 17  1  0
 17 18  1  0
 17 42  1  0
 17 43  1  0
 18 19  1  0
 18 44  1  0
 18 45  1  0
 19 20  1  0
 19 46  1  0
 19 47  1  0
 20 16  1  0
 20 48  1  0
 20 49  1  0
 21 22  1  0
 22 23  2  0
 23 24  1  0
 23 50  1  0
 24 25  2  0
 24 51  1  0
 25 28  1  0
 25 26  1  0
 26 27  2  0
 26 52  1  0
 27 22  1  0
 27 53  1  0
 28 29  1  0
 28 54  1  0
 29 30  1  0
 29 55  1  0
 29 56  1  0
 30 28  1  0
 30 57  1  0
 30 58  1  0
M  END
>  <minimizedAffinity>  (7) 
-9.18730

>  <mol_id>  (7) 
93256

>  <source_index>  (7) 
6

>  <layer>  (7) 
L4

>  <uniprot>  (7) 
Q99705

>  <paff>  (7) 
7.0044000000000004

>  <smiles>  (7) 
COc1cc(ccc1CN1CCCC1)N1CC=C(Oc2ccc(cc2)C2CC2)C1=O |t:18|

$$$$
L4:Q99705:106648
     RDKit          3D

 64 68  0  0  0  0  0  0  0  0999 V2000
  133.7122  146.0061  101.8255 O   0  0  0  0  0  0  0  0  0  0  0  0
  134.4703  145.8626  100.8836 C   0  0  0  0  0  0  0  0  0  0  0  0
  134.6586  146.8284   99.7741 C   0  0  0  0  0  0  0  0  0  0  0  0
  135.6080  146.3208   98.9721 C   0  0  0  0  0  0  0  0  0  0  0  0
  136.1168  145.0084   99.4488 C   0  0  0  0  0  0  0  0  0  0  0  0
  135.3241  144.8000  100.6323 N   0  0  0  0  0  0  0  0  0  0  0  0
  135.5126  143.6795  101.5526 C   0  0  1  0  0  0  0  0  0  0  0  0
  135.0152  142.3498  100.9794 C   0  0  0  0  0  0  0  0  0  0  0  0
  135.0945  141.2110  102.0033 C   0  0  0  0  0  0  0  0  0  0  0  0
  136.2693  141.3415  102.9868 C   0  0  1  0  0  0  0  0  0  0  0  0
  137.4098  142.1573  102.3790 C   0  0  0  0  0  0  0  0  0  0  0  0
  136.9823  143.5803  102.0011 C   0  0  0  0  0  0  0  0  0  0  0  0
  135.8407  142.0262  104.1690 O   0  0  0  0  0  0  0  0  0  0  0  0
  136.7048  141.8410  105.2956 C   0  0  0  0  0  0  0  0  0  0  0  0
  136.3154  140.5706  106.0706 C   0  0  0  0  0  0  0  0  0  0  0  0
  136.0605  140.8121  107.4954 N   0  0  0  0  0  0  0  0  0  0  0  0
  137.0364  140.1247  108.3450 C   0  0  0  0  0  0  0  0  0  0  0  0
  136.8220  140.7759  109.7012 C   0  0  0  0  0  0  0  0  0  0  0  0
  136.3075  142.1761  109.3887 C   0  0  0  0  0  0  0  0  0  0  0  0
  136.1685  142.2237  107.8730 C   0  0  0  0  0  0  0  0  0  0  0  0
  133.9446  147.9963   99.7079 O   0  0  0  0  0  0  0  0  0  0  0  0
  134.3123  149.0142  100.5479 C   0  0  0  0  0  0  0  0  0  0  0  0
  135.4433  149.7731  100.2637 C   0  0  0  0  0  0  0  0  0  0  0  0
  135.7960  150.8254  101.1124 C   0  0  0  0  0  0  0  0  0  0  0  0
  135.0205  151.1506  102.2398 C   0  0  0  0  0  0  0  0  0  0  0  0
  133.8774  150.3700  102.4901 C   0  0  0  0  0  0  0  0  0  0  0  0
  133.5158  149.3157  101.6477 C   0  0  0  0  0  0  0  0  0  0  0  0
  135.4142  152.2798  103.1613 C   0  0  0  0  0  0  0  0  0  0  0  0
  134.9363  152.2890  104.5953 C   0  0  0  0  0  0  0  0  0  0  0  0
  134.3775  153.2795  103.6203 C   0  0  0  0  0  0  0  0  0  0  0  0
  135.9473  146.7905   98.1181 H   0  0  0  0  0  0  0  0  0  0  0  0
  137.1601  145.0558   99.6816 H   0  0  0  0  0  0  0  0  0  0  0  0
  136.0344  144.2227   98.7271 H   0  0  0  0  0  0  0  0  0  0  0  0
  134.9084  143.8806  102.4125 H   0  0  0  0  0  0  0  0  0  0  0  0
  135.6163  142.0936  100.1320 H   0  0  0  0  0  0  0  0  0  0  0  0
  133.9883  142.4741  100.7056 H   0  0  0  0  0  0  0  0  0  0  0  0
  135.1993  140.2874  101.4732 H   0  0  0  0  0  0  0  0  0  0  0  0
  134.1964  141.2505  102.5836 H   0  0  0  0  0  0  0  0  0  0  0  0
  136.6078  140.3519  103.2127 H   0  0  0  0  0  0  0  0  0  0  0  0
  137.7561  141.6584  101.4980 H   0  0  0  0  0  0  0  0  0  0  0  0
  138.1803  142.2363  103.1172 H   0  0  0  0  0  0  0  0  0  0  0  0
  137.6049  143.9198  101.1998 H   0  0  0  0  0  0  0  0  0  0  0  0
  137.0859  144.1843  102.8782 H   0  0  0  0  0  0  0  0  0  0  0  0
  136.6237  142.6880  105.9444 H   0  0  0  0  0  0  0  0  0  0  0  0
  137.7111  141.7385  104.9466 H   0  0  0  0  0  0  0  0  0  0  0  0
  137.1130  139.8626  105.9840 H   0  0  0  0  0  0  0  0  0  0  0  0
  135.4039  140.2073  105.6439 H   0  0  0  0  0  0  0  0  0  0  0  0
  138.0341  140.2860  107.9937 H   0  0  0  0  0  0  0  0  0  0  0  0
  136.9094  139.0624  108.3610 H   0  0  0  0  0  0  0  0  0  0  0  0
  137.7426  140.8259  110.2443 H   0  0  0  0  0  0  0  0  0  0  0  0
  136.1375  140.2224  110.3095 H   0  0  0  0  0  0  0  0  0  0  0  0
  137.0045  142.9152  109.7246 H   0  0  0  0  0  0  0  0  0  0  0  0
  135.3796  142.3794  109.8811 H   0  0  0  0  0  0  0  0  0  0  0  0
  137.0285  142.6751  107.4240 H   0  0  0  0  0  0  0  0  0  0  0  0
  135.3320  142.8071  107.5491 H   0  0  0  0  0  0  0  0  0  0  0  0
  136.0171  149.5604   99.4327 H   0  0  0  0  0  0  0  0  0  0  0  0
  136.6443  151.3762  100.9075 H   0  0  0  0  0  0  0  0  0  0  0  0
  133.2930  150.5807  103.3142 H   0  0  0  0  0  0  0  0  0  0  0  0
  132.6645  148.7650  101.8399 H   0  0  0  0  0  0  0  0  0  0  0  0
  136.3665  152.3405  102.6772 H   0  0  0  0  0  0  0  0  0  0  0  0
  135.5915  152.6179  105.3746 H   0  0  0  0  0  0  0  0  0  0  0  0
  134.5154  151.5597  105.2554 H   0  0  0  0  0  0  0  0  0  0  0  0
  134.6342  154.3149  103.7043 H   0  0  0  0  0  0  0  0  0  0  0  0
  133.3934  153.5485  103.2977 H   0  0  0  0  0  0  0  0  0  0  0  0
  1  2  2  0
  2  3  1  0
  3 21  1  0
  3  4  2  0
  4  5  1  0
  4 31  1  0
  5  6  1  0
  5 32  1  0
  5 33  1  0
  6  7  1  0
  6  2  1  0
  7  8  1  0
  7 34  1  1
  8  9  1  0
  8 35  1  0
  8 36  1  0
  9 10  1  0
  9 37  1  0
  9 38  1  0
 10 13  1  0
 10 11  1  0
 10 39  1  1
 11 12  1  0
 11 40  1  0
 11 41  1  0
 12  7  1  0
 12 42  1  0
 12 43  1  0
 13 14  1  0
 14 15  1  0
 14 44  1  0
 14 45  1  0
 15 16  1  0
 15 46  1  0
 15 47  1  0
 16 17  1  0
 17 18  1  0
 17 48  1  0
 17 49  1  0
 18 19  1  0
 18 50  1  0
 18 51  1  0
 19 20  1  0
 19 52  1  0
 19 53  1  0
 20 16  1  0
 20 54  1  0
 20 55  1  0
 21 22  1  0
 22 23  2  0
 23 24  1  0
 23 56  1  0
 24 25  2  0
 24 57  1  0
 25 28  1  0
 25 26  1  0
 26 27  2  0
 26 58  1  0
 27 22  1  0
 27 59  1  0
 28 29  1  0
 28 60  1  0
 29 30  1  0
 29 61  1  0
 29 62  1  0
 30 28  1  0
 30 63  1  0
 30 64  1  0
M  END
>  <minimizedAffinity>  (8) 
-9.00988

>  <mol_id>  (8) 
106648

>  <source_index>  (8) 
7

>  <layer>  (8) 
L4

>  <uniprot>  (8) 
Q99705

>  <paff>  (8) 
7.6576000000000004

>  <smiles>  (8) 
O=C1N(CC=C1Oc1ccc(cc1)C1CC1)[C@H]1CC[C@@H](CC1)OCCN1CCCC1 |r,wU:16.18,wD:19.25,c:4,(-.66,2.73,;-1.43,1.39,;-.53,.15,;-1.43,-1.1,;-2.9,-.62,;-2.9,.92,;-4.23,1.69,;-5.56,.92,;-5.56,-.62,;-6.9,-1.39,;-8.23,-.62,;-8.23,.92,;-6.9,1.69,;-9.56,-1.39,;-11.1,-1.39,;-10.33,-2.73,;.96,.55,;1.36,2.03,;2.85,2.43,;3.94,1.34,;3.54,-.14,;2.05,-.54,;5.42,1.74,;6.51,.65,;8,1.05,;9.09,-.04,;8.61,-1.5,;9.86,-2.41,;11.1,-1.5,;10.63,-.04,)|

$$$$
L4:Q99705:121682
     RDKit          3D

 67 72  0  0  0  0  0  0  0  0999 V2000
  135.5279  147.3583   97.5586 C   0  0  0  0  0  0  0  0  0  0  0  0
  135.7096  146.0637   98.0769 C   0  0  0  0  0  0  0  0  0  0  0  0
  136.2245  145.8409   99.3648 C   0  0  0  0  0  0  0  0  0  0  0  0
  136.5677  146.9630  100.1309 C   0  0  0  0  0  0  0  0  0  0  0  0
  136.3887  148.2556   99.6327 C   0  0  0  0  0  0  0  0  0  0  0  0
  135.8490  148.4599   98.3632 C   0  0  0  0  0  0  0  0  0  0  0  0
  136.4067  144.5285   99.8877 N   0  0  0  0  0  0  0  0  0  0  0  0
  137.6414  143.8004   99.7272 C   0  0  0  0  0  0  0  0  0  0  0  0
  137.3628  142.5189  100.4205 C   0  0  0  0  0  0  0  0  0  0  0  0
  136.1256  142.4784  100.9317 C   0  0  0  0  0  0  0  0  0  0  0  0
  135.4721  143.7722  100.6046 C   0  0  0  0  0  0  0  0  0  0  0  0
  134.3306  144.0430  100.9381 O   0  0  0  0  0  0  0  0  0  0  0  0
  135.4700  141.5021  101.6368 O   0  0  0  0  0  0  0  0  0  0  0  0
  135.7363  141.3978  102.9767 C   0  0  0  0  0  0  0  0  0  0  0  0
  136.3731  142.4443  103.6361 C   0  0  0  0  0  0  0  0  0  0  0  0
  136.6639  142.3230  104.9972 C   0  0  0  0  0  0  0  0  0  0  0  0
  136.3462  141.1557  105.7146 C   0  0  0  0  0  0  0  0  0  0  0  0
  135.7138  140.1132  105.0135 C   0  0  0  0  0  0  0  0  0  0  0  0
  135.4185  140.2239  103.6524 C   0  0  0  0  0  0  0  0  0  0  0  0
  136.6501  141.0359  107.1886 C   0  0  0  0  0  0  0  0  0  0  0  0
  135.5556  141.2545  108.2080 C   0  0  0  0  0  0  0  0  0  0  0  0
  136.6497  142.2676  108.0647 C   0  0  0  0  0  0  0  0  0  0  0  0
  135.5897  146.8261   95.2260 C   0  0  0  0  0  0  0  0  0  0  0  0
  135.0776  147.6185   96.2903 O   0  0  0  0  0  0  0  0  0  0  0  0
  135.7412  149.7787   98.0040 O   0  0  0  0  0  0  0  0  0  0  0  0
  136.2289  150.7116   98.9782 C   0  0  0  0  0  0  0  0  0  0  0  0
  135.2531  151.8981   99.0247 C   0  0  0  0  0  0  0  0  0  0  0  0
  134.1957  151.7049  100.0337 N   0  0  0  0  0  0  0  0  0  0  0  0
  134.7435  151.0000  101.2086 C   0  0  0  0  0  0  0  0  0  0  0  0
  134.8566  152.3429  102.0041 C   0  0  0  0  0  0  0  0  0  0  0  0
  136.2147  152.8773  102.0417 O   0  0  0  0  0  0  0  0  0  0  0  0
  134.0002  152.9308  100.8304 C   0  0  0  0  0  0  0  0  0  0  0  0
  136.1031  153.7850  102.3711 H   0  0  0  0  0  0  0  0  0  0  0  0
  134.2675  152.3234  103.4148 C   0  0  0  0  0  0  0  0  0  0  0  0
  135.0259  152.4897  104.7022 C   0  0  0  0  0  0  0  0  0  0  0  0
  134.4164  151.1579  104.3568 C   0  0  0  0  0  0  0  0  0  0  0  0
  135.4566  145.2515   97.4926 H   0  0  0  0  0  0  0  0  0  0  0  0
  136.9584  146.8324  101.0771 H   0  0  0  0  0  0  0  0  0  0  0  0
  136.6585  149.0675  100.2098 H   0  0  0  0  0  0  0  0  0  0  0  0
  138.4564  144.3182  100.1882 H   0  0  0  0  0  0  0  0  0  0  0  0
  137.9274  143.6738   98.7039 H   0  0  0  0  0  0  0  0  0  0  0  0
  138.0438  141.7475  100.4998 H   0  0  0  0  0  0  0  0  0  0  0  0
  136.6286  143.3031  103.1240 H   0  0  0  0  0  0  0  0  0  0  0  0
  137.1220  143.1073  105.4871 H   0  0  0  0  0  0  0  0  0  0  0  0
  135.4623  139.2473  105.5156 H   0  0  0  0  0  0  0  0  0  0  0  0
  134.9684  139.4414  103.1524 H   0  0  0  0  0  0  0  0  0  0  0  0
  137.3481  140.2525  106.9792 H   0  0  0  0  0  0  0  0  0  0  0  0
  135.5088  140.6388  109.0819 H   0  0  0  0  0  0  0  0  0  0  0  0
  134.4867  141.2876  108.1727 H   0  0  0  0  0  0  0  0  0  0  0  0
  137.3832  142.3745  108.8364 H   0  0  0  0  0  0  0  0  0  0  0  0
  136.6835  143.3218  107.8849 H   0  0  0  0  0  0  0  0  0  0  0  0
  135.1505  147.1420   94.3028 H   0  0  0  0  0  0  0  0  0  0  0  0
  135.3518  145.7976   95.4006 H   0  0  0  0  0  0  0  0  0  0  0  0
  136.6521  146.9425   95.1738 H   0  0  0  0  0  0  0  0  0  0  0  0
  137.2037  151.0531   98.6987 H   0  0  0  0  0  0  0  0  0  0  0  0
  136.2964  150.2462   99.9393 H   0  0  0  0  0  0  0  0  0  0  0  0
  134.7969  152.0080   98.0631 H   0  0  0  0  0  0  0  0  0  0  0  0
  135.8088  152.7725   99.2919 H   0  0  0  0  0  0  0  0  0  0  0  0
  135.6848  150.5247  101.0272 H   0  0  0  0  0  0  0  0  0  0  0  0
  134.2070  150.1763  101.6312 H   0  0  0  0  0  0  0  0  0  0  0  0
  134.4214  153.8077  100.3849 H   0  0  0  0  0  0  0  0  0  0  0  0
  133.0099  153.2878  101.0221 H   0  0  0  0  0  0  0  0  0  0  0  0
  133.4593  152.8552  102.9577 H   0  0  0  0  0  0  0  0  0  0  0  0
  134.6121  153.0779  105.4945 H   0  0  0  0  0  0  0  0  0  0  0  0
  136.0070  152.8273  104.9636 H   0  0  0  0  0  0  0  0  0  0  0  0
  133.5689  150.7994  104.9028 H   0  0  0  0  0  0  0  0  0  0  0  0
  134.7838  150.1567  104.2703 H   0  0  0  0  0  0  0  0  0  0  0  0
  1  2  2  0
  2  3  1  0
  2 37  1  0
  3  7  1  0
  3  4  2  0
  4  5  1  0
  4 38  1  0
  5  6  2  0
  5 39  1  0
  6 25  1  0
  6  1  1  0
  7  8  1  0
  8  9  1  0
  8 40  1  0
  8 41  1  0
  9 10  2  0
  9 42  1  0
 10 13  1  0
 10 11  1  0
 11 12  2  0
 11  7  1  0
 13 14  1  0
 14 15  2  0
 15 16  1  0
 15 43  1  0
 16 17  2  0
 16 44  1  0
 17 20  1  0
 17 18  1  0
 18 19  2  0
 18 45  1  0
 19 14  1  0
 19 46  1  0
 20 21  1  0
 20 47  1  0
 21 22  1  0
 21 48  1  0
 21 49  1  0
 22 20  1  0
 22 50  1  0
 22 51  1  0
 23 24  1  0
 23 52  1  0
 23 53  1  0
 23 54  1  0
 24  1  1  0
 25 26  1  0
 26 27  1  0
 26 55  1  0
 26 56  1  0
 27 28  1  0
 27 57  1  0
 27 58  1  0
 28 29  1  0
 29 30  1  0
 29 59  1  0
 29 60  1  0
 30 31  1  0
 30 34  1  0
 30 32  1  0
 31 33  1  0
 32 28  1  0
 32 61  1  0
 32 62  1  0
 34 35  1  0
 34 63  1  0
 35 36  1  0
 35 64  1  0
 35 65  1  0
 36 34  1  0
 36 66  1  0
 36 67  1  0
M  END
>  <minimizedAffinity>  (9) 
-8.92534

>  <mol_id>  (9) 
121682

>  <source_index>  (9) 
8

>  <layer>  (9) 
L4

>  <uniprot>  (9) 
Q99705

>  <paff>  (9) 
9.4088999999999992

>  <smiles>  (9) 
COc1cc(N2CC=C(Oc3ccc(C4CC4)cc3)C2=O)ccc1OCCN1CC(O)(C2CC2)C1

$$$$
L4:Q99705:124879
     RDKit          3D

 64 68  0  0  0  0  0  0  0  0999 V2000
  135.8658  141.2535  103.9302 C   0  0  0  0  0  0  0  0  0  0  0  0
  135.9673  142.4774  103.2342 C   0  0  0  0  0  0  0  0  0  0  0  0
  135.4079  142.6559  101.9645 C   0  0  0  0  0  0  0  0  0  0  0  0
  134.7387  141.5615  101.3999 C   0  0  0  0  0  0  0  0  0  0  0  0
  134.6373  140.3356  102.0737 C   0  0  0  0  0  0  0  0  0  0  0  0
  135.2054  140.1679  103.3348 C   0  0  0  0  0  0  0  0  0  0  0  0
  135.5064  143.8881  101.2589 N   0  0  0  0  0  0  0  0  0  0  0  0
  136.7215  144.3020  100.6009 C   0  0  0  0  0  0  0  0  0  0  0  0
  136.3511  145.6129  100.0174 C   0  0  0  0  0  0  0  0  0  0  0  0
  135.0935  145.9560  100.3036 C   0  0  0  0  0  0  0  0  0  0  0  0
  134.4894  144.8378  101.0811 C   0  0  0  0  0  0  0  0  0  0  0  0
  133.3270  144.8074  101.4450 O   0  0  0  0  0  0  0  0  0  0  0  0
  134.4737  147.0997   99.8651 O   0  0  0  0  0  0  0  0  0  0  0  0
  134.6581  148.2561  100.5801 C   0  0  0  0  0  0  0  0  0  0  0  0
  135.6068  149.1587  100.1098 C   0  0  0  0  0  0  0  0  0  0  0  0
  135.8692  150.3286  100.8282 C   0  0  0  0  0  0  0  0  0  0  0  0
  135.2104  150.6103  102.0371 C   0  0  0  0  0  0  0  0  0  0  0  0
  134.2671  149.6739  102.4941 C   0  0  0  0  0  0  0  0  0  0  0  0
  133.9978  148.5006  101.7827 C   0  0  0  0  0  0  0  0  0  0  0  0
  135.4805  151.8857  102.7980 C   0  0  0  0  0  0  0  0  0  0  0  0
  134.7439  152.1704  104.0868 C   0  0  0  0  0  0  0  0  0  0  0  0
  134.4285  152.9694  102.8595 C   0  0  0  0  0  0  0  0  0  0  0  0
  136.9618  142.4909  105.8244 C   0  0  0  0  0  0  0  0  0  0  0  0
  136.5075  141.1386  105.2957 C   0  0  0  0  0  0  0  0  0  0  0  0
  135.1589  139.0171  104.0726 O   0  0  0  0  0  0  0  0  0  0  0  0
  134.4106  137.9021  103.5788 C   0  0  0  0  0  0  0  0  0  0  0  0
  135.3073  136.6561  103.4634 C   0  0  0  0  0  0  0  0  0  0  0  0
  134.6691  135.3398  103.5114 N   0  0  0  0  0  0  0  0  0  0  0  0
  134.9349  134.4772  102.3657 C   0  0  0  0  0  0  0  0  0  0  0  0
  133.9785  133.3170  102.6012 C   0  0  0  0  0  0  0  0  0  0  0  0
  132.8398  133.9005  103.4338 C   0  0  0  0  0  0  0  0  0  0  0  0
  133.2197  135.3562  103.6696 C   0  0  0  0  0  0  0  0  0  0  0  0
  136.4692  143.2640  103.6752 H   0  0  0  0  0  0  0  0  0  0  0  0
  134.3104  141.6600  100.4662 H   0  0  0  0  0  0  0  0  0  0  0  0
  134.1366  139.5494  101.6307 H   0  0  0  0  0  0  0  0  0  0  0  0
  137.0024  143.6064   99.8379 H   0  0  0  0  0  0  0  0  0  0  0  0
  137.5625  144.3551  101.2603 H   0  0  0  0  0  0  0  0  0  0  0  0
  136.9920  146.1937   99.4544 H   0  0  0  0  0  0  0  0  0  0  0  0
  136.1153  148.9649   99.2329 H   0  0  0  0  0  0  0  0  0  0  0  0
  136.5621  151.0004  100.4627 H   0  0  0  0  0  0  0  0  0  0  0  0
  133.7616  149.8565  103.3751 H   0  0  0  0  0  0  0  0  0  0  0  0
  133.3135  147.8191  102.1464 H   0  0  0  0  0  0  0  0  0  0  0  0
  136.5084  151.8402  102.5043 H   0  0  0  0  0  0  0  0  0  0  0  0
  135.2577  152.6293  104.9056 H   0  0  0  0  0  0  0  0  0  0  0  0
  134.1703  151.5840  104.7739 H   0  0  0  0  0  0  0  0  0  0  0  0
  134.7173  153.9981  102.8029 H   0  0  0  0  0  0  0  0  0  0  0  0
  133.5371  153.1883  102.3096 H   0  0  0  0  0  0  0  0  0  0  0  0
  137.4083  142.3652  106.7886 H   0  0  0  0  0  0  0  0  0  0  0  0
  136.1182  143.1443  105.9045 H   0  0  0  0  0  0  0  0  0  0  0  0
  137.6783  142.9143  105.1520 H   0  0  0  0  0  0  0  0  0  0  0  0
  135.7967  140.7214  105.9780 H   0  0  0  0  0  0  0  0  0  0  0  0
  137.3695  140.5112  105.2054 H   0  0  0  0  0  0  0  0  0  0  0  0
  134.0169  138.1427  102.6134 H   0  0  0  0  0  0  0  0  0  0  0  0
  133.6140  137.6918  104.2615 H   0  0  0  0  0  0  0  0  0  0  0  0
  136.0124  136.6967  104.2672 H   0  0  0  0  0  0  0  0  0  0  0  0
  135.7198  136.7158  102.4779 H   0  0  0  0  0  0  0  0  0  0  0  0
  135.9520  134.1451  102.3589 H   0  0  0  0  0  0  0  0  0  0  0  0
  134.7936  134.9631  101.4229 H   0  0  0  0  0  0  0  0  0  0  0  0
  134.4682  132.5293  103.1348 H   0  0  0  0  0  0  0  0  0  0  0  0
  133.6272  132.8952  101.6827 H   0  0  0  0  0  0  0  0  0  0  0  0
  132.7517  133.3806  104.3648 H   0  0  0  0  0  0  0  0  0  0  0  0
  131.8959  133.8097  102.9380 H   0  0  0  0  0  0  0  0  0  0  0  0
  132.9427  135.6726  104.6535 H   0  0  0  0  0  0  0  0  0  0  0  0
  132.7281  136.0359  103.0054 H   0  0  0  0  0  0  0  0  0  0  0  0
  1  2  2  0
  2  3  1  0
  2 33  1  0
  3  7  1  0
  3  4  2  0
  4  5  1  0
  4 34  1  0
  5  6  2  0
  5 35  1  0
  6 25  1  0
  6  1  1  0
  7  8  1  0
  8  9  1  0
  8 36  1  0
  8 37  1  0
  9 10  2  0
  9 38  1  0
 10 13  1  0
 10 11  1  0
 11 12  2  0
 11  7  1  0
 13 14  1  0
 14 15  2  0
 15 16  1  0
 15 39  1  0
 16 17  2  0
 16 40  1  0
 17 20  1  0
 17 18  1  0
 18 19  2  0
 18 41  1  0
 19 14  1  0
 19 42  1  0
 20 21  1  0
 20 43  1  0
 21 22  1  0
 21 44  1  0
 21 45  1  0
 22 20  1  0
 22 46  1  0
 22 47  1  0
 23 24  1  0
 23 48  1  0
 23 49  1  0
 23 50  1  0
 24  1  1  0
 24 51  1  0
 24 52  1  0
 25 26  1  0
 26 27  1  0
 26 53  1  0
 26 54  1  0
 27 28  1  0
 27 55  1  0
 27 56  1  0
 28 29  1  0
 29 30  1  0
 29 57  1  0
 29 58  1  0
 30 31  1  0
 30 59  1  0
 30 60  1  0
 31 32  1  0
 31 61  1  0
 31 62  1  0
 32 28  1  0
 32 63  1  0
 32 64  1  0
M  END
>  <minimizedAffinity>  (10) 
-9.75805

>  <mol_id>  (10) 
124879

>  <source_index>  (10) 
9

>  <layer>  (10) 
L4

>  <uniprot>  (10) 
Q99705

>  <paff>  (10) 
9.3278999999999996

>  <smiles>  (10) 
CCc1cc(ccc1OCCN1CCCC1)N1CC=C(Oc2ccc(cc2)C2CC2)C1=O |t:20|

$$$$
