L2:Q9Y5Z0:10341
     RDKit          3D

 57 62  0  0  0  0  0  0  0  0999 V2000
   19.9060   -6.8293  -18.2935 C   0  0  0  0  0  0  0  0  0  0  0  0
   20.3170   -7.9105  -17.4807 C   0  0  0  0  0  0  0  0  0  0  0  0
   19.5185   -9.0529  -17.2603 C   0  0  0  0  0  0  0  0  0  0  0  0
   18.2614   -9.0929  -17.8607 C   0  0  0  0  0  0  0  0  0  0  0  0
   17.8381   -8.0466  -18.6727 C   0  0  0  0  0  0  0  0  0  0  0  0
   16.6304   -8.1168  -19.2520 F   0  0  0  0  0  0  0  0  0  0  0  0
   18.6456   -6.9359  -18.8925 C   0  0  0  0  0  0  0  0  0  0  0  0
   18.1939   -5.9707  -19.7067 F   0  0  0  0  0  0  0  0  0  0  0  0
   20.2418   -4.3662  -17.8158 C   0  0  0  0  0  0  0  0  0  0  0  0
   20.8201   -5.6106  -18.5278 C   0  0  1  0  0  0  0  0  0  0  0  0
   22.1337   -5.8489  -17.9145 N   0  0  0  0  0  0  0  0  0  0  0  0
   23.2139   -5.2779  -18.2909 C   0  0  0  0  0  0  0  0  0  0  0  0
   24.3716   -5.5228  -17.6270 N   0  0  0  0  0  0  0  0  0  0  0  0
   23.4162   -4.1951  -19.6346 S   0  0  0  0  0  0  0  0  0  0  0  0
   22.0660   -4.6703  -20.6467 C   0  0  1  0  0  0  0  0  0  0  0  0
   21.8333   -6.1505  -20.9195 C   0  0  0  0  0  0  0  0  0  0  0  0
   20.8937   -5.3822  -20.0172 C   0  0  1  0  0  0  0  0  0  0  0  0
   25.2169   -5.4043  -18.1691 H   0  0  0  0  0  0  0  0  0  0  0  0
   24.3389   -6.3558  -17.0534 H   0  0  0  0  0  0  0  0  0  0  0  0
   21.7648   -3.6710  -21.7443 C   0  0  0  0  0  0  0  0  0  0  0  0
   21.0350   -2.6307  -21.2560 F   0  0  0  0  0  0  0  0  0  0  0  0
   22.9265   -3.1349  -22.2042 F   0  0  0  0  0  0  0  0  0  0  0  0
   20.0118  -10.0543  -16.4110 N   0  0  0  0  0  0  0  0  0  0  0  0
   20.4570   -9.7245  -15.5570 H   0  0  0  0  0  0  0  0  0  0  0  0
   20.3223  -11.4264  -16.6144 C   0  0  0  0  0  0  0  0  0  0  0  0
   19.5223  -12.2124  -17.3734 N   0  0  0  0  0  0  0  0  0  0  0  0
   19.8464  -13.5104  -17.4996 C   0  0  0  0  0  0  0  0  0  0  0  0
   20.9471  -14.0786  -16.8964 C   0  0  0  0  0  0  0  0  0  0  0  0
   21.7703  -13.2864  -16.1218 C   0  0  0  0  0  0  0  0  0  0  0  0
   22.8489  -13.8526  -15.5406 N   0  0  0  0  0  0  0  0  0  0  0  0
   23.6298  -13.0425  -14.7953 C   0  0  0  0  0  0  0  0  0  0  0  0
   23.3448  -11.7002  -14.6320 C   0  0  0  0  0  0  0  0  0  0  0  0
   22.2726  -11.1097  -15.2090 N   0  0  0  0  0  0  0  0  0  0  0  0
   21.4689  -11.9150  -15.9600 C   0  0  0  0  0  0  0  0  0  0  0  0
   24.7403  -13.5363  -14.1517 O   0  0  0  0  0  0  0  0  0  0  0  0
   25.3810  -14.6346  -14.8127 C   0  0  0  0  0  0  0  0  0  0  0  0
   25.8941  -15.6628  -13.8652 C   0  0  0  0  0  0  0  0  0  0  0  0
   25.5957  -15.8420  -12.5330 C   0  0  0  0  0  0  0  0  0  0  0  0
   26.3056  -16.9096  -12.0754 O   0  0  0  0  0  0  0  0  0  0  0  0
   27.0045  -17.3264  -13.1659 C   0  0  0  0  0  0  0  0  0  0  0  0
   26.8049  -16.6238  -14.2579 N   0  0  0  0  0  0  0  0  0  0  0  0
   21.2431   -7.8621  -17.0280 H   0  0  0  0  0  0  0  0  0  0  0  0
   17.6419   -9.9028  -17.7019 H   0  0  0  0  0  0  0  0  0  0  0  0
   20.1973   -4.5467  -16.7621 H   0  0  0  0  0  0  0  0  0  0  0  0
   19.2574   -4.1689  -18.1857 H   0  0  0  0  0  0  0  0  0  0  0  0
   20.8705   -3.5217  -18.0068 H   0  0  0  0  0  0  0  0  0  0  0  0
   22.4951   -6.8823  -20.5056 H   0  0  0  0  0  0  0  0  0  0  0  0
   21.7200   -6.7516  -21.7974 H   0  0  0  0  0  0  0  0  0  0  0  0
   19.8341   -5.2348  -19.9964 H   0  0  0  0  0  0  0  0  0  0  0  0
   21.2301   -4.1865  -22.5145 H   0  0  0  0  0  0  0  0  0  0  0  0
   19.2398  -14.1125  -18.0780 H   0  0  0  0  0  0  0  0  0  0  0  0
   21.1531  -15.0820  -17.0219 H   0  0  0  0  0  0  0  0  0  0  0  0
   23.9733  -11.1265  -14.0481 H   0  0  0  0  0  0  0  0  0  0  0  0
   26.2030  -14.2566  -15.3840 H   0  0  0  0  0  0  0  0  0  0  0  0
   24.6483  -15.1072  -15.4330 H   0  0  0  0  0  0  0  0  0  0  0  0
   24.9452  -15.2656  -11.9766 H   0  0  0  0  0  0  0  0  0  0  0  0
   27.6446  -18.1354  -13.1373 H   0  0  0  0  0  0  0  0  0  0  0  0
  1  2  2  0
  2  3  1  0
  2 42  1  0
  3 23  1  0
  3  4  2  0
  4  5  1  0
  4 43  1  0
  5  6  1  0
  5  7  2  0
  7  8  1  0
  7  1  1  0
  9 44  1  0
  9 45  1  0
  9 46  1  0
 10  9  1  1
 10  1  1  0
 10 11  1  0
 11 12  2  0
 12 13  1  0
 12 14  1  0
 13 18  1  0
 13 19  1  0
 14 15  1  0
 15 20  1  6
 15 16  1  0
 16 17  1  0
 16 47  1  0
 16 48  1  0
 17 10  1  0
 17 15  1  0
 17 49  1  6
 20 21  1  0
 20 22  1  0
 20 50  1  0
 23 25  1  0
 23 24  1  0
 25 26  2  0
 26 27  1  0
 27 28  2  0
 27 51  1  0
 28 29  1  0
 28 52  1  0
 29 30  2  0
 30 31  1  0
 31 35  1  0
 31 32  2  0
 32 33  1  0
 32 53  1  0
 33 34  2  0
 34 25  1  0
 34 29  1  0
 35 36  1  0
 36 37  1  0
 36 54  1  0
 36 55  1  0
 37 38  2  0
 38 39  1  0
 38 56  1  0
 39 40  1  0
 40 41  2  0
 40 57  1  0
 41 37  1  0
M  END
>  <minimizedAffinity>  (1) 
-7.49521

>  <mol_id>  (1) 
10341

>  <source_index>  (1) 
0

>  <layer>  (1) 
L2

>  <uniprot>  (1) 
Q9Y5Z0

>  <paff>  (1) 
7.2603999999999997

>  <smiles>  (1) 
C[C@]1(c2cc(Nc3nccc4nc(OCc5cocn5)cnc34)cc(F)c2F)N=C(N)S[C@@]2(C(F)F)C[C@@H]12

$$$$
L2:Q9Y5Z0:49521
     RDKit          3D

 60 64  0  0  0  0  0  0  0  0999 V2000
   20.3617   -4.0456  -20.9368 C   0  0  0  0  0  0  0  0  0  0  0  0
   20.8090   -5.3207  -20.5173 C   0  0  0  0  0  0  0  0  0  0  0  0
   19.9606   -6.2315  -19.8705 C   0  0  0  0  0  0  0  0  0  0  0  0
   18.6364   -5.8699  -19.6257 C   0  0  0  0  0  0  0  0  0  0  0  0
   18.1832   -4.6154  -20.0123 C   0  0  0  0  0  0  0  0  0  0  0  0
   16.9122   -4.2766  -19.7515 F   0  0  0  0  0  0  0  0  0  0  0  0
   19.0275   -3.7126  -20.6509 C   0  0  0  0  0  0  0  0  0  0  0  0
   18.5320   -2.5072  -20.9679 F   0  0  0  0  0  0  0  0  0  0  0  0
   22.3239   -0.7351  -20.8879 C   0  0  1  0  0  0  0  0  0  0  0  0
   21.0865   -0.9147  -20.0298 C   0  0  0  0  0  0  0  0  0  0  0  0
   21.8314   -2.1237  -20.5514 C   0  0  1  0  0  0  0  0  0  0  0  0
   21.2919   -3.0308  -21.6323 C   0  0  1  0  0  0  0  0  0  0  0  0
   22.4833   -3.7258  -22.3435 C   0  0  0  0  0  0  0  0  0  0  0  0
   20.5534   -2.3453  -22.6934 N   0  0  0  0  0  0  0  0  0  0  0  0
   20.8440   -1.1656  -23.0976 C   0  0  0  0  0  0  0  0  0  0  0  0
   20.1233   -0.5988  -24.0983 N   0  0  0  0  0  0  0  0  0  0  0  0
   22.1429   -0.1522  -22.5323 S   0  0  0  0  0  0  0  0  0  0  0  0
   19.5893   -1.2733  -24.6308 H   0  0  0  0  0  0  0  0  0  0  0  0
   20.6215    0.0903  -24.6448 H   0  0  0  0  0  0  0  0  0  0  0  0
   23.5878   -0.2495  -20.2008 C   0  0  0  0  0  0  0  0  0  0  0  0
   23.8868    1.9676  -19.4564 C   0  0  0  0  0  0  0  0  0  0  0  0
   23.8491    1.1036  -20.5826 O   0  0  0  0  0  0  0  0  0  0  0  0
   20.3648   -7.5086  -19.4415 N   0  0  0  0  0  0  0  0  0  0  0  0
   20.0633   -8.7381  -19.9976 C   0  0  0  0  0  0  0  0  0  0  0  0
   19.3823   -8.9590  -20.9909 O   0  0  0  0  0  0  0  0  0  0  0  0
   20.9613   -7.5613  -18.6166 H   0  0  0  0  0  0  0  0  0  0  0  0
   20.6736   -9.8782  -19.2547 C   0  0  0  0  0  0  0  0  0  0  0  0
   20.2232  -10.2116  -17.9846 C   0  0  0  0  0  0  0  0  0  0  0  0
   20.7493  -11.2437  -17.2722 N   0  0  0  0  0  0  0  0  0  0  0  0
   21.7412  -11.9256  -17.8892 C   0  0  0  0  0  0  0  0  0  0  0  0
   22.1934  -11.5894  -19.1612 C   0  0  0  0  0  0  0  0  0  0  0  0
   21.6770  -10.5607  -19.8813 N   0  0  0  0  0  0  0  0  0  0  0  0
   22.3470  -12.9863  -17.2576 O   0  0  0  0  0  0  0  0  0  0  0  0
   22.1825  -12.9513  -15.8374 C   0  0  0  0  0  0  0  0  0  0  0  0
   23.5212  -13.1864  -15.2468 C   0  0  0  0  0  0  0  0  0  0  0  0
   24.4822  -12.3284  -14.9718 N   0  0  0  0  0  0  0  0  0  0  0  0
   25.5201  -13.0636  -14.4382 N   0  0  0  0  0  0  0  0  0  0  0  0
   25.1193  -14.3161  -14.4255 C   0  0  0  0  0  0  0  0  0  0  0  0
   25.8203  -15.5247  -13.9631 C   0  0  0  0  0  0  0  0  0  0  0  0
   23.8571  -14.4786  -14.9298 O   0  0  0  0  0  0  0  0  0  0  0  0
   21.7900   -5.5890  -20.6926 H   0  0  0  0  0  0  0  0  0  0  0  0
   17.9961   -6.5314  -19.1594 H   0  0  0  0  0  0  0  0  0  0  0  0
   20.1221   -0.6693  -20.4230 H   0  0  0  0  0  0  0  0  0  0  0  0
   20.7788   -0.5734  -19.0635 H   0  0  0  0  0  0  0  0  0  0  0  0
   22.2406   -2.9969  -20.0878 H   0  0  0  0  0  0  0  0  0  0  0  0
   23.0723   -4.2515  -21.6213 H   0  0  0  0  0  0  0  0  0  0  0  0
   23.0883   -2.9886  -22.8287 H   0  0  0  0  0  0  0  0  0  0  0  0
   22.1108   -4.4165  -23.0709 H   0  0  0  0  0  0  0  0  0  0  0  0
   23.4595   -0.3021  -19.1398 H   0  0  0  0  0  0  0  0  0  0  0  0
   24.4115   -0.8673  -20.4920 H   0  0  0  0  0  0  0  0  0  0  0  0
   24.0840    2.9680  -19.7808 H   0  0  0  0  0  0  0  0  0  0  0  0
   24.6605    1.6501  -18.7890 H   0  0  0  0  0  0  0  0  0  0  0  0
   22.9443    1.9358  -18.9508 H   0  0  0  0  0  0  0  0  0  0  0  0
   19.4612   -9.6559  -17.5656 H   0  0  0  0  0  0  0  0  0  0  0  0
   22.9560  -12.1473  -19.5763 H   0  0  0  0  0  0  0  0  0  0  0  0
   21.5027  -13.7167  -15.5261 H   0  0  0  0  0  0  0  0  0  0  0  0
   21.7818  -12.0114  -15.5198 H   0  0  0  0  0  0  0  0  0  0  0  0
   26.7890  -15.2567  -13.5962 H   0  0  0  0  0  0  0  0  0  0  0  0
   25.9246  -16.2103  -14.7780 H   0  0  0  0  0  0  0  0  0  0  0  0
   25.2569  -15.9858  -13.1790 H   0  0  0  0  0  0  0  0  0  0  0  0
  1  2  2  0
  2  3  1  0
  2 41  1  0
  3 23  1  0
  3  4  2  0
  4  5  1  0
  4 42  1  0
  5  6  1  0
  5  7  2  0
  7  8  1  0
  7  1  1  0
  9 20  1  1
  9 10  1  0
 10 11  1  0
 10 43  1  0
 10 44  1  0
 11 12  1  0
 11  9  1  0
 11 45  1  1
 12 13  1  6
 12  1  1  0
 12 14  1  0
 13 46  1  0
 13 47  1  0
 13 48  1  0
 14 15  2  0
 15 16  1  0
 15 17  1  0
 16 18  1  0
 16 19  1  0
 17  9  1  0
 20 49  1  0
 20 50  1  0
 21 22  1  0
 21 51  1  0
 21 52  1  0
 21 53  1  0
 22 20  1  0
 23 24  1  0
 23 26  1  0
 24 25  2  0
 24 27  1  0
 27 28  2  0
 28 29  1  0
 28 54  1  0
 29 30  2  0
 30 33  1  0
 30 31  1  0
 31 32  2  0
 31 55  1  0
 32 27  1  0
 33 34  1  0
 34 35  1  0
 34 56  1  0
 34 57  1  0
 35 36  2  0
 36 37  1  0
 37 38  2  0
 38 39  1  0
 38 40  1  0
 39 58  1  0
 39 59  1  0
 39 60  1  0
 40 35  1  0
M  END
>  <minimizedAffinity>  (2) 
-6.99990

>  <mol_id>  (2) 
49521

>  <source_index>  (2) 
1

>  <layer>  (2) 
L2

>  <uniprot>  (2) 
Q9Y5Z0

>  <paff>  (2) 
6.8928000000000003

>  <smiles>  (2) 
COC[C@]12C[C@H]1[C@@](C)(c1cc(NC(=O)c3cnc(OCc4nnc(C)o4)cn3)cc(F)c1F)N=C(N)S2

$$$$
L2:Q9Y5Z0:51240
     RDKit          3D

 62 66  0  0  0  0  0  0  0  0999 V2000
   19.8935   -6.5114  -18.2120 C   0  0  0  0  0  0  0  0  0  0  0  0
   20.6690   -7.5348  -17.6229 C   0  0  0  0  0  0  0  0  0  0  0  0
   20.1528   -8.8240  -17.3911 C   0  0  0  0  0  0  0  0  0  0  0  0
   18.8368   -9.1050  -17.7487 C   0  0  0  0  0  0  0  0  0  0  0  0
   18.0483   -8.1163  -18.3335 C   0  0  0  0  0  0  0  0  0  0  0  0
   18.5715   -6.8454  -18.5583 C   0  0  0  0  0  0  0  0  0  0  0  0
   17.7627   -5.9409  -19.1311 F   0  0  0  0  0  0  0  0  0  0  0  0
   19.5785   -4.0992  -17.6073 C   0  0  0  0  0  0  0  0  0  0  0  0
   20.4130   -5.0779  -18.4640 C   0  0  1  0  0  0  0  0  0  0  0  0
   21.7999   -5.0102  -18.0045 N   0  0  0  0  0  0  0  0  0  0  0  0
   22.6697   -4.1663  -18.4065 C   0  0  0  0  0  0  0  0  0  0  0  0
   23.9180   -4.1790  -17.8750 N   0  0  0  0  0  0  0  0  0  0  0  0
   22.4307   -2.9187  -19.5885 S   0  0  0  0  0  0  0  0  0  0  0  0
   21.1786   -3.6598  -20.5647 C   0  0  1  0  0  0  0  0  0  0  0  0
   21.2978   -5.1384  -20.9407 C   0  0  0  0  0  0  0  0  0  0  0  0
   20.2736   -4.6938  -19.9255 C   0  0  1  0  0  0  0  0  0  0  0  0
   23.9431   -4.6582  -16.9839 H   0  0  0  0  0  0  0  0  0  0  0  0
   24.3930   -3.2845  -17.8875 H   0  0  0  0  0  0  0  0  0  0  0  0
   20.6783   -2.7713  -21.6831 C   0  0  0  0  0  0  0  0  0  0  0  0
   19.5393   -2.3140  -21.6215 O   0  0  0  0  0  0  0  0  0  0  0  0
   21.5338   -2.4658  -22.7255 N   0  0  0  0  0  0  0  0  0  0  0  0
   21.0763   -1.6522  -23.8371 C   0  0  0  0  0  0  0  0  0  0  0  0
   22.3231   -1.4035  -24.6761 C   0  0  0  0  0  0  0  0  0  0  0  0
   23.1057   -2.6883  -24.4780 C   0  0  2  0  0  0  0  0  0  0  0  0
   22.5768   -3.6479  -25.2920 F   0  0  0  0  0  0  0  0  0  0  0  0
   22.8282   -3.0616  -23.0207 C   0  0  0  0  0  0  0  0  0  0  0  0
   21.0189   -9.7679  -16.8085 N   0  0  0  0  0  0  0  0  0  0  0  0
   20.7626  -11.0884  -16.5071 C   0  0  0  0  0  0  0  0  0  0  0  0
   19.7137  -11.6999  -16.6729 O   0  0  0  0  0  0  0  0  0  0  0  0
   21.9494   -9.4522  -16.5456 H   0  0  0  0  0  0  0  0  0  0  0  0
   21.9311  -11.7805  -15.8905 C   0  0  0  0  0  0  0  0  0  0  0  0
   22.0957  -13.1493  -16.0507 C   0  0  0  0  0  0  0  0  0  0  0  0
   23.1362  -13.8283  -15.4963 N   0  0  0  0  0  0  0  0  0  0  0  0
   24.0101  -13.0732  -14.7933 C   0  0  0  0  0  0  0  0  0  0  0  0
   23.8513  -11.6987  -14.6419 C   0  0  0  0  0  0  0  0  0  0  0  0
   22.8046  -11.0151  -15.1713 N   0  0  0  0  0  0  0  0  0  0  0  0
   25.1054  -13.6630  -14.2044 O   0  0  0  0  0  0  0  0  0  0  0  0
   25.0773  -15.1001  -14.2884 C   0  0  0  0  0  0  0  0  0  0  0  0
   25.9184  -15.7172  -13.1859 C   0  0  0  0  0  0  0  0  0  0  0  0
   26.6762  -14.7907  -12.5506 F   0  0  0  0  0  0  0  0  0  0  0  0
   25.1264  -16.2988  -12.2514 F   0  0  0  0  0  0  0  0  0  0  0  0
   26.7420  -16.6736  -13.6683 F   0  0  0  0  0  0  0  0  0  0  0  0
   21.6443   -7.3311  -17.3541 H   0  0  0  0  0  0  0  0  0  0  0  0
   18.4456  -10.0451  -17.5807 H   0  0  0  0  0  0  0  0  0  0  0  0
   17.0739   -8.3263  -18.6008 H   0  0  0  0  0  0  0  0  0  0  0  0
   19.6704   -4.3620  -16.5742 H   0  0  0  0  0  0  0  0  0  0  0  0
   18.5508   -4.1563  -17.8998 H   0  0  0  0  0  0  0  0  0  0  0  0
   19.9365   -3.1017  -17.7548 H   0  0  0  0  0  0  0  0  0  0  0  0
   22.1512   -5.7033  -20.6284 H   0  0  0  0  0  0  0  0  0  0  0  0
   21.2668   -5.6924  -21.8556 H   0  0  0  0  0  0  0  0  0  0  0  0
   19.2136   -4.7981  -19.8236 H   0  0  0  0  0  0  0  0  0  0  0  0
   20.6684   -0.7278  -23.4849 H   0  0  0  0  0  0  0  0  0  0  0  0
   20.3016   -2.1326  -24.3974 H   0  0  0  0  0  0  0  0  0  0  0  0
   22.8700   -0.5570  -24.3165 H   0  0  0  0  0  0  0  0  0  0  0  0
   22.1131   -1.1828  -25.7018 H   0  0  0  0  0  0  0  0  0  0  0  0
   24.1490   -2.5918  -24.6951 H   0  0  0  0  0  0  0  0  0  0  0  0
   23.5836   -2.6599  -22.3781 H   0  0  0  0  0  0  0  0  0  0  0  0
   22.8304   -4.1205  -22.8671 H   0  0  0  0  0  0  0  0  0  0  0  0
   21.4036  -13.6711  -16.6108 H   0  0  0  0  0  0  0  0  0  0  0  0
   24.5602  -11.1764  -14.1037 H   0  0  0  0  0  0  0  0  0  0  0  0
   25.4649  -15.4043  -15.2382 H   0  0  0  0  0  0  0  0  0  0  0  0
   24.0662  -15.4320  -14.1772 H   0  0  0  0  0  0  0  0  0  0  0  0
  1  2  2  0
  2  3  1  0
  2 43  1  0
  3 27  1  0
  3  4  2  0
  4  5  1  0
  4 44  1  0
  5  6  2  0
  5 45  1  0
  6  7  1  0
  6  1  1  0
  8 46  1  0
  8 47  1  0
  8 48  1  0
  9  8  1  1
  9  1  1  0
  9 10  1  0
 10 11  2  0
 11 12  1  0
 11 13  1  0
 12 17  1  0
 12 18  1  0
 13 14  1  0
 14 19  1  6
 14 15  1  0
 15 16  1  0
 15 49  1  0
 15 50  1  0
 16  9  1  0
 16 14  1  0
 16 51  1  6
 19 20  2  0
 19 21  1  0
 21 22  1  0
 22 23  1  0
 22 52  1  0
 22 53  1  0
 23 24  1  0
 23 54  1  0
 23 55  1  0
 24 25  1  0
 24 26  1  0
 24 56  1  1
 26 21  1  0
 26 57  1  0
 26 58  1  0
 27 28  1  0
 27 30  1  0
 28 29  2  0
 28 31  1  0
 31 32  2  0
 32 33  1  0
 32 59  1  0
 33 34  2  0
 34 37  1  0
 34 35  1  0
 35 36  2  0
 35 60  1  0
 36 31  1  0
 37 38  1  0
 38 39  1  0
 38 61  1  0
 38 62  1  0
 39 40  1  0
 39 41  1  0
 39 42  1  0
M  END
>  <minimizedAffinity>  (3) 
-8.36457

>  <mol_id>  (3) 
51240

>  <source_index>  (3) 
2

>  <layer>  (3) 
L2

>  <uniprot>  (3) 
Q9Y5Z0

>  <paff>  (3) 
7.9031000000000002

>  <smiles>  (3) 
C[C@]1(c2cc(NC(=O)c3cnc(OCC(F)(F)F)cn3)ccc2F)N=C(N)S[C@@]2(C(=O)N3CC[C@H](F)C3)C[C@H]21

$$$$
L2:Q9Y5Z0:67242
     RDKit          3D

 44 47  0  0  0  0  0  0  0  0999 V2000
   18.9881   -5.4667  -19.9343 C   0  0  0  0  0  0  0  0  0  0  0  0
   18.4646   -4.8719  -18.7707 C   0  0  0  0  0  0  0  0  0  0  0  0
   18.2525   -3.4908  -18.6952 C   0  0  0  0  0  0  0  0  0  0  0  0
   18.5891   -2.7332  -19.8083 C   0  0  0  0  0  0  0  0  0  0  0  0
   19.1082   -3.2526  -20.9445 N   0  0  0  0  0  0  0  0  0  0  0  0
   19.2925   -4.5920  -20.9803 C   0  0  0  0  0  0  0  0  0  0  0  0
   19.8323   -5.0661  -22.1144 F   0  0  0  0  0  0  0  0  0  0  0  0
   18.2797   -7.6600  -21.0430 C   0  0  0  0  0  0  0  0  0  0  0  0
   19.2641   -6.9710  -20.0613 C   0  0  1  0  0  0  0  0  0  0  0  0
   20.5903   -7.1734  -20.6370 N   0  0  0  0  0  0  0  0  0  0  0  0
   21.3041   -8.2152  -20.4356 C   0  0  0  0  0  0  0  0  0  0  0  0
   22.5248   -8.3163  -21.0200 N   0  0  0  0  0  0  0  0  0  0  0  0
   20.9009   -9.5888  -19.4461 S   0  0  0  0  0  0  0  0  0  0  0  0
   19.7613   -8.8716  -18.3195 C   0  0  1  0  0  0  0  0  0  0  0  0
   20.1486   -7.5797  -17.6213 C   0  0  0  0  0  0  0  0  0  0  0  0
   19.0780   -7.5734  -18.6907 C   0  0  1  0  0  0  0  0  0  0  0  0
   23.1899   -8.8774  -20.5036 H   0  0  0  0  0  0  0  0  0  0  0  0
   22.8844   -7.4126  -21.3065 H   0  0  0  0  0  0  0  0  0  0  0  0
   18.9792   -9.8984  -17.5280 C   0  0  0  0  0  0  0  0  0  0  0  0
   19.7615  -10.9754  -17.2408 F   0  0  0  0  0  0  0  0  0  0  0  0
   17.9486  -10.3692  -18.2789 F   0  0  0  0  0  0  0  0  0  0  0  0
   17.7189   -2.9753  -17.5014 N   0  0  0  0  0  0  0  0  0  0  0  0
   18.3894   -2.7216  -16.3203 C   0  0  0  0  0  0  0  0  0  0  0  0
   19.5791   -2.9058  -16.0985 O   0  0  0  0  0  0  0  0  0  0  0  0
   16.7263   -2.7495  -17.4733 H   0  0  0  0  0  0  0  0  0  0  0  0
   17.4968   -2.1660  -15.2494 C   0  0  0  0  0  0  0  0  0  0  0  0
   16.1564   -2.5341  -15.1948 C   0  0  0  0  0  0  0  0  0  0  0  0
   15.3630   -1.9941  -14.1830 C   0  0  0  0  0  0  0  0  0  0  0  0
   15.9326   -1.1131  -13.2695 C   0  0  0  0  0  0  0  0  0  0  0  0
   14.9888   -0.4285  -12.0112 Cl  0  0  0  0  0  0  0  0  0  0  0  0
   17.2798   -0.8009  -13.3991 C   0  0  0  0  0  0  0  0  0  0  0  0
   18.0854   -1.3037  -14.3682 N   0  0  0  0  0  0  0  0  0  0  0  0
   18.2331   -5.4652  -17.9586 H   0  0  0  0  0  0  0  0  0  0  0  0
   18.4343   -1.7137  -19.7668 H   0  0  0  0  0  0  0  0  0  0  0  0
   18.4003   -7.2424  -22.0207 H   0  0  0  0  0  0  0  0  0  0  0  0
   17.2752   -7.5030  -20.7096 H   0  0  0  0  0  0  0  0  0  0  0  0
   18.4848   -8.7097  -21.0757 H   0  0  0  0  0  0  0  0  0  0  0  0
   21.1008   -7.1315  -17.8144 H   0  0  0  0  0  0  0  0  0  0  0  0
   20.2035   -7.2564  -16.6028 H   0  0  0  0  0  0  0  0  0  0  0  0
   18.0720   -7.2104  -18.7248 H   0  0  0  0  0  0  0  0  0  0  0  0
   18.6347   -9.4232  -16.6334 H   0  0  0  0  0  0  0  0  0  0  0  0
   15.7593   -3.1901  -15.8854 H   0  0  0  0  0  0  0  0  0  0  0  0
   14.3645   -2.2453  -14.1127 H   0  0  0  0  0  0  0  0  0  0  0  0
   17.6933   -0.1465  -12.7166 H   0  0  0  0  0  0  0  0  0  0  0  0
  1  2  2  0
  2  3  1  0
  2 33  1  0
  3 22  1  0
  3  4  2  0
  4  5  1  0
  4 34  1  0
  5  6  2  0
  6  7  1  0
  6  1  1  0
  8 35  1  0
  8 36  1  0
  8 37  1  0
  9  8  1  6
  9  1  1  0
  9 10  1  0
 10 11  2  0
 11 12  1  0
 11 13  1  0
 12 17  1  0
 12 18  1  0
 13 14  1  0
 14 19  1  1
 14 15  1  0
 15 16  1  0
 15 38  1  0
 15 39  1  0
 16  9  1  0
 16 14  1  0
 16 40  1  1
 19 20  1  0
 19 21  1  0
 19 41  1  0
 22 23  1  0
 22 25  1  0
 23 24  2  0
 23 26  1  0
 26 27  2  0
 27 28  1  0
 27 42  1  0
 28 29  2  0
 28 43  1  0
 29 30  1  0
 29 31  1  0
 31 32  2  0
 31 44  1  0
 32 26  1  0
M  END
>  <minimizedAffinity>  (4) 
-7.09243

>  <mol_id>  (4) 
67242

>  <source_index>  (4) 
3

>  <layer>  (4) 
L2

>  <uniprot>  (4) 
Q9Y5Z0

>  <paff>  (4) 
7.8794000000000004

>  <smiles>  (4) 
C[C@]1(c2cc(NC(=O)c3ccc(Cl)cn3)cnc2F)N=C(N)S[C@@]2(C(F)F)C[C@@H]12

$$$$
L2:Q9Y5Z0:82278
     RDKit          3D

 68 72  0  0  0  0  0  0  0  0999 V2000
   19.3287   -8.0658  -17.8890 C   0  0  0  0  0  0  0  0  0  0  0  0
   18.1052   -7.9362  -18.5460 C   0  0  0  0  0  0  0  0  0  0  0  0
   17.8060   -6.7865  -19.2756 C   0  0  0  0  0  0  0  0  0  0  0  0
   18.7332   -5.7524  -19.3611 C   0  0  0  0  0  0  0  0  0  0  0  0
   18.3715   -4.6581  -20.0477 F   0  0  0  0  0  0  0  0  0  0  0  0
   19.9864   -5.8330  -18.7361 C   0  0  0  0  0  0  0  0  0  0  0  0
   20.2454   -6.9984  -17.9817 C   0  0  0  0  0  0  0  0  0  0  0  0
   20.9929   -4.6680  -18.8299 C   0  0  1  0  0  0  0  0  0  0  0  0
   22.2543   -5.0644  -18.1864 N   0  0  0  0  0  0  0  0  0  0  0  0
   23.3901   -4.5642  -18.4989 C   0  0  0  0  0  0  0  0  0  0  0  0
   24.5059   -4.9780  -17.8459 N   0  0  0  0  0  0  0  0  0  0  0  0
   23.7075   -3.3675  -19.7219 S   0  0  0  0  0  0  0  0  0  0  0  0
   22.3695   -3.6478  -20.7966 C   0  0  1  0  0  0  0  0  0  0  0  0
   22.0523   -5.0585  -21.2479 C   0  0  0  0  0  0  0  0  0  0  0  0
   21.1279   -4.3331  -20.2971 C   0  0  1  0  0  0  0  0  0  0  0  0
   25.3533   -4.9212  -18.3963 H   0  0  0  0  0  0  0  0  0  0  0  0
   24.3666   -5.8754  -17.3946 H   0  0  0  0  0  0  0  0  0  0  0  0
   20.5091   -3.4031  -18.0513 C   0  0  0  0  0  0  0  0  0  0  0  0
   19.7569   -3.7458  -16.9661 F   0  0  0  0  0  0  0  0  0  0  0  0
   22.2059   -2.5760  -21.7964 C   0  0  0  0  0  0  0  0  0  0  0  0
   21.1032   -1.8311  -21.9831 C   0  0  0  0  0  0  0  0  0  0  0  0
   21.0741   -0.8019  -23.0515 C   0  0  0  0  0  0  0  0  0  0  0  0
   21.2217   -1.1376  -24.2252 O   0  0  0  0  0  0  0  0  0  0  0  0
   20.8597    0.5127  -22.6549 N   0  0  0  0  0  0  0  0  0  0  0  0
   21.0860    1.0185  -21.3068 C   0  0  0  0  0  0  0  0  0  0  0  0
   20.8182    1.5226  -23.7001 C   0  0  0  0  0  0  0  0  0  0  0  0
   19.6669   -9.1736  -17.0983 N   0  0  0  0  0  0  0  0  0  0  0  0
   20.3825   -9.0110  -16.3937 H   0  0  0  0  0  0  0  0  0  0  0  0
   22.4462  -13.1042  -15.6786 C   0  0  0  0  0  0  0  0  0  0  0  0
   22.5252  -11.7252  -15.5829 C   0  0  0  0  0  0  0  0  0  0  0  0
   21.6073  -10.8720  -16.1000 N   0  0  0  0  0  0  0  0  0  0  0  0
   20.5299  -11.3940  -16.7465 C   0  0  0  0  0  0  0  0  0  0  0  0
   19.5216  -10.5749  -17.3013 C   0  0  0  0  0  0  0  0  0  0  0  0
   18.4448  -11.0701  -17.9650 N   0  0  0  0  0  0  0  0  0  0  0  0
   18.3441  -12.4051  -18.0984 C   0  0  0  0  0  0  0  0  0  0  0  0
   19.2693  -13.2945  -17.5914 C   0  0  0  0  0  0  0  0  0  0  0  0
   20.3761  -12.7838  -16.9057 C   0  0  0  0  0  0  0  0  0  0  0  0
   21.3539  -13.6307  -16.3613 C   0  0  0  0  0  0  0  0  0  0  0  0
   23.3264  -14.0195  -15.1821 O   0  0  0  0  0  0  0  0  0  0  0  0
   24.5942  -13.5255  -14.7465 C   0  0  0  0  0  0  0  0  0  0  0  0
   26.6628  -16.5873  -12.8939 C   0  0  0  0  0  0  0  0  0  0  0  0
   25.9276  -15.5044  -13.5473 C   0  0  0  0  0  0  0  0  0  0  0  0
   25.3281  -14.6118  -14.0832 C   0  0  0  0  0  0  0  0  0  0  0  0
   17.4135   -8.7001  -18.4914 H   0  0  0  0  0  0  0  0  0  0  0  0
   16.8951   -6.7022  -19.7532 H   0  0  0  0  0  0  0  0  0  0  0  0
   21.1428   -7.0719  -17.4774 H   0  0  0  0  0  0  0  0  0  0  0  0
   22.6441   -5.8788  -20.8990 H   0  0  0  0  0  0  0  0  0  0  0  0
   21.9384   -5.5452  -22.1940 H   0  0  0  0  0  0  0  0  0  0  0  0
   20.0753   -4.1412  -20.3047 H   0  0  0  0  0  0  0  0  0  0  0  0
   19.9199   -2.7953  -18.7058 H   0  0  0  0  0  0  0  0  0  0  0  0
   21.3700   -2.8675  -17.7095 H   0  0  0  0  0  0  0  0  0  0  0  0
   23.0128   -2.3800  -22.4092 H   0  0  0  0  0  0  0  0  0  0  0  0
   20.2760   -1.9749  -21.3830 H   0  0  0  0  0  0  0  0  0  0  0  0
   21.0990    0.2009  -20.6166 H   0  0  0  0  0  0  0  0  0  0  0  0
   20.3003    1.6953  -21.0432 H   0  0  0  0  0  0  0  0  0  0  0  0
   22.0248    1.5306  -21.2709 H   0  0  0  0  0  0  0  0  0  0  0  0
   20.6483    1.0508  -24.6453 H   0  0  0  0  0  0  0  0  0  0  0  0
   21.7501    2.0477  -23.7259 H   0  0  0  0  0  0  0  0  0  0  0  0
   20.0256    2.2125  -23.4982 H   0  0  0  0  0  0  0  0  0  0  0  0
   23.3345  -11.3210  -15.0862 H   0  0  0  0  0  0  0  0  0  0  0  0
   17.5306  -12.7846  -18.6076 H   0  0  0  0  0  0  0  0  0  0  0  0
   19.1475  -14.3118  -17.7152 H   0  0  0  0  0  0  0  0  0  0  0  0
   21.2620  -14.6530  -16.4682 H   0  0  0  0  0  0  0  0  0  0  0  0
   25.1530  -13.1779  -15.5902 H   0  0  0  0  0  0  0  0  0  0  0  0
   24.4510  -12.7153  -14.0624 H   0  0  0  0  0  0  0  0  0  0  0  0
   26.0813  -16.9751  -12.0838 H   0  0  0  0  0  0  0  0  0  0  0  0
   27.5918  -16.2119  -12.5184 H   0  0  0  0  0  0  0  0  0  0  0  0
   26.8531  -17.3669  -13.6016 H   0  0  0  0  0  0  0  0  0  0  0  0
  1  2  2  0
  2  3  1  0
  2 44  1  0
  3  4  2  0
  3 45  1  0
  4  5  1  0
  4  6  1  0
  6  8  1  0
  6  7  2  0
  7  1  1  0
  7 46  1  0
  8 18  1  1
  8  9  1  0
  9 10  2  0
 10 11  1  0
 10 12  1  0
 11 16  1  0
 11 17  1  0
 12 13  1  0
 13 20  1  6
 13 14  1  0
 14 15  1  0
 14 47  1  0
 14 48  1  0
 15  8  1  0
 15 13  1  0
 15 49  1  6
 18 19  1  0
 18 50  1  0
 18 51  1  0
 20 21  2  0
 20 52  1  0
 21 22  1  0
 21 53  1  0
 22 23  2  0
 22 24  1  0
 24 25  1  0
 24 26  1  0
 25 54  1  0
 25 55  1  0
 25 56  1  0
 26 57  1  0
 26 58  1  0
 26 59  1  0
 27  1  1  0
 27 28  1  0
 29 30  2  0
 30 31  1  0
 30 60  1  0
 31 32  2  0
 32 33  1  0
 33 27  1  0
 33 34  2  0
 34 35  1  0
 35 36  2  0
 35 61  1  0
 36 37  1  0
 36 62  1  0
 37 38  2  0
 37 32  1  0
 38 29  1  0
 38 63  1  0
 39 29  1  0
 40 39  1  0
 40 64  1  0
 40 65  1  0
 41 42  1  0
 41 66  1  0
 41 67  1  0
 41 68  1  0
 42 43  3  0
 43 40  1  0
M  END
>  <minimizedAffinity>  (5) 
-7.97161

>  <mol_id>  (5) 
82278

>  <source_index>  (5) 
4

>  <layer>  (5) 
L2

>  <uniprot>  (5) 
Q9Y5Z0

>  <paff>  (5) 
7.1045999999999996

>  <smiles>  (5) 
CC#CCOc1cnc2c(Nc3ccc(F)c([C@@]4(CF)N=C(N)S[C@@]5(/C=C/C(=O)N(C)C)C[C@H]54)c3)nccc2c1

$$$$
L2:Q9Y5Z0:87330
     RDKit          3D

 57 62  0  0  0  0  0  0  0  0999 V2000
   20.6753   -4.1769  -19.8624 C   0  0  0  0  0  0  0  0  0  0  0  0
   20.1205   -5.3305  -19.2645 C   0  0  0  0  0  0  0  0  0  0  0  0
   18.7296   -5.5295  -19.1225 C   0  0  0  0  0  0  0  0  0  0  0  0
   17.8789   -4.5146  -19.5582 C   0  0  0  0  0  0  0  0  0  0  0  0
   18.3916   -3.3576  -20.1435 C   0  0  0  0  0  0  0  0  0  0  0  0
   19.7662   -3.1977  -20.2899 C   0  0  0  0  0  0  0  0  0  0  0  0
   20.1960   -2.0590  -20.8529 F   0  0  0  0  0  0  0  0  0  0  0  0
   22.6098   -2.7086  -19.1967 C   0  0  0  0  0  0  0  0  0  0  0  0
   22.1939   -3.9488  -20.0264 C   0  0  1  0  0  0  0  0  0  0  0  0
   22.8863   -5.1204  -19.4875 N   0  0  0  0  0  0  0  0  0  0  0  0
   24.0905   -5.4373  -19.7733 C   0  0  0  0  0  0  0  0  0  0  0  0
   24.6629   -6.5138  -19.1775 N   0  0  0  0  0  0  0  0  0  0  0  0
   25.1328   -4.6508  -20.9218 S   0  0  0  0  0  0  0  0  0  0  0  0
   23.9484   -3.9276  -21.9883 C   0  0  1  0  0  0  0  0  0  0  0  0
   22.7908   -4.7714  -22.4917 C   0  0  0  0  0  0  0  0  0  0  0  0
   22.5500   -3.6763  -21.4740 C   0  0  1  0  0  0  0  0  0  0  0  0
   23.9797   -7.1340  -18.7596 H   0  0  0  0  0  0  0  0  0  0  0  0
   25.3827   -6.9704  -19.7203 H   0  0  0  0  0  0  0  0  0  0  0  0
   24.5320   -2.8940  -22.9235 C   0  0  0  0  0  0  0  0  0  0  0  0
   24.2360   -1.6508  -22.4522 F   0  0  0  0  0  0  0  0  0  0  0  0
   18.2900   -6.7013  -18.4872 N   0  0  0  0  0  0  0  0  0  0  0  0
   18.4842   -6.7527  -17.4895 H   0  0  0  0  0  0  0  0  0  0  0  0
   17.9474   -7.9960  -18.9670 C   0  0  0  0  0  0  0  0  0  0  0  0
   16.9681   -8.1622  -19.8879 N   0  0  0  0  0  0  0  0  0  0  0  0
   16.6669   -9.4145  -20.2721 C   0  0  0  0  0  0  0  0  0  0  0  0
   17.2993  -10.5327  -19.7752 C   0  0  0  0  0  0  0  0  0  0  0  0
   18.2972  -10.3748  -18.8355 C   0  0  0  0  0  0  0  0  0  0  0  0
   18.9124  -11.4767  -18.3599 N   0  0  0  0  0  0  0  0  0  0  0  0
   19.8749  -11.2817  -17.4359 C   0  0  0  0  0  0  0  0  0  0  0  0
   20.2372  -10.0174  -17.0123 C   0  0  0  0  0  0  0  0  0  0  0  0
   19.6424   -8.8960  -17.4824 N   0  0  0  0  0  0  0  0  0  0  0  0
   18.6502   -9.0773  -18.4010 C   0  0  0  0  0  0  0  0  0  0  0  0
   20.5570  -12.3532  -16.9078 O   0  0  0  0  0  0  0  0  0  0  0  0
   20.8276  -12.2444  -15.5039 C   0  0  0  0  0  0  0  0  0  0  0  0
   22.2786  -12.4741  -15.2556 C   0  0  0  0  0  0  0  0  0  0  0  0
   22.9713  -13.5974  -15.3263 N   0  0  0  0  0  0  0  0  0  0  0  0
   24.2468  -13.2174  -14.9970 C   0  0  0  0  0  0  0  0  0  0  0  0
   24.2783  -11.8735  -14.7258 C   0  0  0  0  0  0  0  0  0  0  0  0
   23.0184  -11.3818  -14.8795 O   0  0  0  0  0  0  0  0  0  0  0  0
   20.7607   -6.0609  -18.9157 H   0  0  0  0  0  0  0  0  0  0  0  0
   16.8585   -4.6208  -19.4463 H   0  0  0  0  0  0  0  0  0  0  0  0
   17.7499   -2.6178  -20.4690 H   0  0  0  0  0  0  0  0  0  0  0  0
   22.3701   -2.8718  -18.1667 H   0  0  0  0  0  0  0  0  0  0  0  0
   22.0835   -1.8480  -19.5534 H   0  0  0  0  0  0  0  0  0  0  0  0
   23.6631   -2.5494  -19.2968 H   0  0  0  0  0  0  0  0  0  0  0  0
   22.7111   -5.7984  -22.2024 H   0  0  0  0  0  0  0  0  0  0  0  0
   22.3911   -5.0125  -23.4545 H   0  0  0  0  0  0  0  0  0  0  0  0
   21.8850   -2.8392  -21.4292 H   0  0  0  0  0  0  0  0  0  0  0  0
   24.1124   -3.0165  -23.9001 H   0  0  0  0  0  0  0  0  0  0  0  0
   25.5936   -3.0158  -22.9791 H   0  0  0  0  0  0  0  0  0  0  0  0
   15.9234   -9.5450  -20.9758 H   0  0  0  0  0  0  0  0  0  0  0  0
   17.0308  -11.4744  -20.1009 H   0  0  0  0  0  0  0  0  0  0  0  0
   20.9891   -9.9246  -16.3116 H   0  0  0  0  0  0  0  0  0  0  0  0
   20.2552  -12.9762  -14.9731 H   0  0  0  0  0  0  0  0  0  0  0  0
   20.5596  -11.2655  -15.1651 H   0  0  0  0  0  0  0  0  0  0  0  0
   25.0621  -13.8489  -14.9589 H   0  0  0  0  0  0  0  0  0  0  0  0
   25.1119  -11.3298  -14.4528 H   0  0  0  0  0  0  0  0  0  0  0  0
  1  2  2  0
  2  3  1  0
  2 40  1  0
  3 21  1  0
  3  4  2  0
  4  5  1  0
  4 41  1  0
  5  6  2  0
  5 42  1  0
  6  7  1  0
  6  1  1  0
  8 43  1  0
  8 44  1  0
  8 45  1  0
  9  8  1  1
  9  1  1  0
  9 10  1  0
 10 11  2  0
 11 12  1  0
 11 13  1  0
 12 17  1  0
 12 18  1  0
 13 14  1  0
 14 19  1  6
 14 15  1  0
 15 16  1  0
 15 46  1  0
 15 47  1  0
 16  9  1  0
 16 14  1  0
 16 48  1  6
 19 20  1  0
 19 49  1  0
 19 50  1  0
 21 23  1  0
 21 22  1  0
 23 24  2  0
 24 25  1  0
 25 26  2  0
 25 51  1  0
 26 27  1  0
 26 52  1  0
 27 28  2  0
 28 29  1  0
 29 33  1  0
 29 30  2  0
 30 31  1  0
 30 53  1  0
 31 32  2  0
 32 23  1  0
 32 27  1  0
 33 34  1  0
 34 35  1  0
 34 54  1  0
 34 55  1  0
 35 36  2  0
 36 37  1  0
 37 38  2  0
 37 56  1  0
 38 39  1  0
 38 57  1  0
 39 35  1  0
M  END
>  <minimizedAffinity>  (6) 
-7.33316

>  <mol_id>  (6) 
87330

>  <source_index>  (6) 
5

>  <layer>  (6) 
L2

>  <uniprot>  (6) 
Q9Y5Z0

>  <paff>  (6) 
7.266

>  <smiles>  (6) 
C[C@]1(c2cc(Nc3nccc4nc(OCc5ncco5)cnc34)ccc2F)N=C(N)S[C@@]2(CF)C[C@H]21

$$$$
L2:Q9Y5Z0:92673
     RDKit          3D

 45 49  0  0  0  0  0  0  0  0999 V2000
   19.2171   -8.5444  -17.5126 C   0  0  0  0  0  0  0  0  0  0  0  0
   17.9939   -8.4633  -18.1787 C   0  0  0  0  0  0  0  0  0  0  0  0
   17.7145   -7.3966  -19.0342 C   0  0  0  0  0  0  0  0  0  0  0  0
   18.6624   -6.3998  -19.2385 C   0  0  0  0  0  0  0  0  0  0  0  0
   18.3569   -5.4147  -20.0941 F   0  0  0  0  0  0  0  0  0  0  0  0
   19.9072   -6.4282  -18.6010 C   0  0  0  0  0  0  0  0  0  0  0  0
   20.1652   -7.5302  -17.7560 C   0  0  0  0  0  0  0  0  0  0  0  0
   20.9770   -5.3404  -18.8448 C   0  0  1  0  0  0  0  0  0  0  0  0
   22.1877   -5.6622  -18.0655 N   0  0  0  0  0  0  0  0  0  0  0  0
   23.3709   -5.3230  -18.4180 C   0  0  0  0  0  0  0  0  0  0  0  0
   24.4189   -5.6050  -17.5999 N   0  0  0  0  0  0  0  0  0  0  0  0
   23.8515   -4.4977  -19.8720 S   0  0  0  0  0  0  0  0  0  0  0  0
   22.5339   -4.8960  -20.9093 C   0  0  1  0  0  0  0  0  0  0  0  0
   22.0474   -6.3138  -21.0642 C   0  0  0  0  0  0  0  0  0  0  0  0
   21.2059   -5.2857  -20.3398 C   0  0  1  0  0  0  0  0  0  0  0  0
   24.1268   -5.7406  -16.6402 H   0  0  0  0  0  0  0  0  0  0  0  0
   25.1951   -4.9637  -17.7057 H   0  0  0  0  0  0  0  0  0  0  0  0
   20.4664   -3.9649  -18.3174 C   0  0  0  0  0  0  0  0  0  0  0  0
   19.8491   -4.1082  -17.1081 F   0  0  0  0  0  0  0  0  0  0  0  0
   19.5843   -9.6094  -16.6752 N   0  0  0  0  0  0  0  0  0  0  0  0
   19.3510   -9.4768  -15.6928 H   0  0  0  0  0  0  0  0  0  0  0  0
   23.2552  -12.6991  -15.2923 C   0  0  0  0  0  0  0  0  0  0  0  0
   22.9361  -11.3796  -15.0361 C   0  0  0  0  0  0  0  0  0  0  0  0
   21.8381  -10.7718  -15.5387 N   0  0  0  0  0  0  0  0  0  0  0  0
   21.0157  -11.5083  -16.3451 C   0  0  0  0  0  0  0  0  0  0  0  0
   19.8496  -10.9858  -16.9230 C   0  0  0  0  0  0  0  0  0  0  0  0
   19.0312  -11.7172  -17.7098 N   0  0  0  0  0  0  0  0  0  0  0  0
   19.3762  -12.9895  -17.9206 C   0  0  0  0  0  0  0  0  0  0  0  0
   20.4590  -13.5995  -17.4273 N   0  0  0  0  0  0  0  0  0  0  0  0
   21.2571  -12.8542  -16.6526 C   0  0  0  0  0  0  0  0  0  0  0  0
   22.3957  -13.4326  -16.1100 C   0  0  0  0  0  0  0  0  0  0  0  0
   25.3789  -13.7661  -14.2699 N   0  0  0  0  0  0  0  0  0  0  0  0
   24.4287  -13.2865  -14.7309 C   0  0  0  0  0  0  0  0  0  0  0  0
   17.2867   -9.2014  -18.0370 H   0  0  0  0  0  0  0  0  0  0  0  0
   16.8031   -7.3475  -19.5159 H   0  0  0  0  0  0  0  0  0  0  0  0
   21.0873   -7.5956  -17.2972 H   0  0  0  0  0  0  0  0  0  0  0  0
   22.8787   -4.1456  -21.5897 H   0  0  0  0  0  0  0  0  0  0  0  0
   22.5166   -7.1049  -20.5174 H   0  0  0  0  0  0  0  0  0  0  0  0
   21.8926   -6.9784  -21.8884 H   0  0  0  0  0  0  0  0  0  0  0  0
   20.2011   -4.9318  -20.4398 H   0  0  0  0  0  0  0  0  0  0  0  0
   19.7707   -3.5561  -19.0201 H   0  0  0  0  0  0  0  0  0  0  0  0
   21.3045   -3.3103  -18.1992 H   0  0  0  0  0  0  0  0  0  0  0  0
   23.5670  -10.8308  -14.4312 H   0  0  0  0  0  0  0  0  0  0  0  0
   18.7510  -13.5528  -18.5180 H   0  0  0  0  0  0  0  0  0  0  0  0
   22.6100  -14.4211  -16.3147 H   0  0  0  0  0  0  0  0  0  0  0  0
  1  2  2  0
  2  3  1  0
  2 34  1  0
  3  4  2  0
  3 35  1  0
  4  5  1  0
  4  6  1  0
  6  8  1  0
  6  7  2  0
  7  1  1  0
  7 36  1  0
  8 18  1  1
  8  9  1  0
  9 10  2  0
 10 11  1  0
 10 12  1  0
 11 16  1  0
 11 17  1  0
 12 13  1  0
 13 14  1  0
 13 37  1  6
 14 15  1  0
 14 38  1  0
 14 39  1  0
 15  8  1  0
 15 13  1  0
 15 40  1  6
 18 19  1  0
 18 41  1  0
 18 42  1  0
 20  1  1  0
 20 21  1  0
 22 23  2  0
 23 24  1  0
 23 43  1  0
 24 25  2  0
 25 26  1  0
 26 20  1  0
 26 27  2  0
 27 28  1  0
 28 29  2  0
 28 44  1  0
 29 30  1  0
 30 31  2  0
 30 25  1  0
 31 22  1  0
 31 45  1  0
 32 33  3  0
 33 22  1  0
M  END
>  <minimizedAffinity>  (7) 
-7.02341

>  <mol_id>  (7) 
92673

>  <source_index>  (7) 
6

>  <layer>  (7) 
L2

>  <uniprot>  (7) 
Q9Y5Z0

>  <paff>  (7) 
7.0073999999999996

>  <smiles>  (7) 
N#Cc1cnc2c(Nc3ccc(F)c([C@@]4(CF)N=C(N)S[C@H]5C[C@H]54)c3)ncnc2c1

$$$$
L2:Q9Y5Z0:104482
     RDKit          3D

 56 60  0  0  0  0  0  0  0  0999 V2000
   19.8171   -9.1487  -17.0588 C   0  0  0  0  0  0  0  0  0  0  0  0
   18.5757   -9.3065  -17.6847 C   0  0  0  0  0  0  0  0  0  0  0  0
   18.1320   -8.3786  -18.6173 C   0  0  0  0  0  0  0  0  0  0  0  0
   18.9252   -7.2836  -18.9495 C   0  0  0  0  0  0  0  0  0  0  0  0
   18.4513   -6.4435  -19.8818 F   0  0  0  0  0  0  0  0  0  0  0  0
   20.1763   -7.0703  -18.3525 C   0  0  0  0  0  0  0  0  0  0  0  0
   20.6097   -8.0533  -17.4391 C   0  0  0  0  0  0  0  0  0  0  0  0
   21.0466   -5.8546  -18.7549 C   0  0  1  0  0  0  0  0  0  0  0  0
   22.2923   -5.8690  -17.9706 N   0  0  0  0  0  0  0  0  0  0  0  0
   23.3644   -5.2631  -18.3019 C   0  0  0  0  0  0  0  0  0  0  0  0
   24.4441   -5.2945  -17.4800 N   0  0  0  0  0  0  0  0  0  0  0  0
   23.6108   -4.3330  -19.7469 S   0  0  0  0  0  0  0  0  0  0  0  0
   22.5459   -5.1829  -20.8417 C   0  0  1  0  0  0  0  0  0  0  0  0
   22.4642   -6.6956  -20.8246 C   0  0  0  0  0  0  0  0  0  0  0  0
   21.3370   -5.8700  -20.2485 C   0  0  1  0  0  0  0  0  0  0  0  0
   24.1969   -5.5447  -16.5268 H   0  0  0  0  0  0  0  0  0  0  0  0
   25.0706   -4.5028  -17.5631 H   0  0  0  0  0  0  0  0  0  0  0  0
   20.2571   -4.5677  -18.3873 C   0  0  0  0  0  0  0  0  0  0  0  0
   19.8994   -4.5869  -17.0754 F   0  0  0  0  0  0  0  0  0  0  0  0
   22.4023   -4.5072  -22.1798 C   0  0  0  0  0  0  0  0  0  0  0  0
   23.3248   -3.5007  -22.2706 F   0  0  0  0  0  0  0  0  0  0  0  0
   20.2275  -10.1378  -16.1474 N   0  0  0  0  0  0  0  0  0  0  0  0
   20.7678   -9.7806  -15.3675 H   0  0  0  0  0  0  0  0  0  0  0  0
   24.1045  -12.9958  -14.9594 C   0  0  0  0  0  0  0  0  0  0  0  0
   23.7973  -11.6621  -14.7666 C   0  0  0  0  0  0  0  0  0  0  0  0
   22.6314  -11.1163  -15.1877 N   0  0  0  0  0  0  0  0  0  0  0  0
   21.7504  -11.9620  -15.7963 C   0  0  0  0  0  0  0  0  0  0  0  0
   20.5172  -11.5223  -16.3074 C   0  0  0  0  0  0  0  0  0  0  0  0
   19.6314  -12.3583  -16.9019 N   0  0  0  0  0  0  0  0  0  0  0  0
   19.9608  -13.6515  -17.0181 C   0  0  0  0  0  0  0  0  0  0  0  0
   21.1521  -14.1666  -16.5707 C   0  0  0  0  0  0  0  0  0  0  0  0
   22.0637  -13.3289  -15.9595 C   0  0  0  0  0  0  0  0  0  0  0  0
   23.2383  -13.8487  -15.5479 N   0  0  0  0  0  0  0  0  0  0  0  0
   25.3450  -13.4355  -14.5466 O   0  0  0  0  0  0  0  0  0  0  0  0
   25.2727  -14.3385  -13.4395 C   0  0  0  0  0  0  0  0  0  0  0  0
   27.4857  -17.6982  -14.4114 C   0  0  0  0  0  0  0  0  0  0  0  0
   26.6706  -16.5312  -14.0676 C   0  0  0  0  0  0  0  0  0  0  0  0
   26.0180  -15.5598  -13.7853 C   0  0  0  0  0  0  0  0  0  0  0  0
   17.9848  -10.1197  -17.4511 H   0  0  0  0  0  0  0  0  0  0  0  0
   17.2107   -8.5010  -19.0660 H   0  0  0  0  0  0  0  0  0  0  0  0
   21.5533   -7.9637  -17.0310 H   0  0  0  0  0  0  0  0  0  0  0  0
   23.1013   -7.2586  -20.1750 H   0  0  0  0  0  0  0  0  0  0  0  0
   22.5372   -7.4660  -21.5636 H   0  0  0  0  0  0  0  0  0  0  0  0
   20.2813   -5.8064  -20.4106 H   0  0  0  0  0  0  0  0  0  0  0  0
   19.3760   -4.5104  -18.9917 H   0  0  0  0  0  0  0  0  0  0  0  0
   20.8812   -3.7166  -18.5634 H   0  0  0  0  0  0  0  0  0  0  0  0
   21.4170   -4.1005  -22.2727 H   0  0  0  0  0  0  0  0  0  0  0  0
   22.5635   -5.2178  -22.9633 H   0  0  0  0  0  0  0  0  0  0  0  0
   24.4819  -11.0595  -14.2837 H   0  0  0  0  0  0  0  0  0  0  0  0
   19.2863  -14.2916  -17.4657 H   0  0  0  0  0  0  0  0  0  0  0  0
   21.3641  -15.1695  -16.6900 H   0  0  0  0  0  0  0  0  0  0  0  0
   25.7065  -13.8837  -12.5735 H   0  0  0  0  0  0  0  0  0  0  0  0
   24.2518  -14.5789  -13.2278 H   0  0  0  0  0  0  0  0  0  0  0  0
   26.9707  -18.5905  -14.1226 H   0  0  0  0  0  0  0  0  0  0  0  0
   28.4217  -17.6439  -13.8958 H   0  0  0  0  0  0  0  0  0  0  0  0
   27.6603  -17.7129  -15.4670 H   0  0  0  0  0  0  0  0  0  0  0  0
  1  2  2  0
  2  3  1  0
  2 39  1  0
  3  4  2  0
  3 40  1  0
  4  5  1  0
  4  6  1  0
  6  8  1  0
  6  7  2  0
  7  1  1  0
  7 41  1  0
  8 18  1  6
  8  9  1  0
  9 10  2  0
 10 11  1  0
 10 12  1  0
 11 16  1  0
 11 17  1  0
 12 13  1  0
 13 20  1  6
 13 14  1  0
 14 15  1  0
 14 42  1  0
 14 43  1  0
 15  8  1  0
 15 13  1  0
 15 44  1  6
 18 19  1  0
 18 45  1  0
 18 46  1  0
 20 21  1  0
 20 47  1  0
 20 48  1  0
 22  1  1  0
 22 23  1  0
 24 25  2  0
 25 26  1  0
 25 49  1  0
 26 27  2  0
 27 28  1  0
 28 22  1  0
 28 29  2  0
 29 30  1  0
 30 31  2  0
 30 50  1  0
 31 32  1  0
 31 51  1  0
 32 33  2  0
 32 27  1  0
 33 24  1  0
 34 24  1  0
 35 34  1  0
 35 52  1  0
 35 53  1  0
 36 37  1  0
 36 54  1  0
 36 55  1  0
 36 56  1  0
 37 38  3  0
 38 35  1  0
M  END
>  <minimizedAffinity>  (8) 
-7.24454

>  <mol_id>  (8) 
104482

>  <source_index>  (8) 
7

>  <layer>  (8) 
L2

>  <uniprot>  (8) 
Q9Y5Z0

>  <paff>  (8) 
7.9100999999999999

>  <smiles>  (8) 
CC#CCOc1cnc2c(Nc3ccc(F)c([C@@]4(CF)N=C(N)S[C@@]5(CF)C[C@H]54)c3)nccc2n1

$$$$
L2:Q9Y5Z0:110437
     RDKit          3D

 60 65  0  0  0  0  0  0  0  0999 V2000
   19.4926   -7.9436  -17.8366 C   0  0  0  0  0  0  0  0  0  0  0  0
   18.1721   -7.7682  -18.2423 C   0  0  0  0  0  0  0  0  0  0  0  0
   17.5305   -8.7718  -18.9585 C   0  0  0  0  0  0  0  0  0  0  0  0
   16.2651   -8.5775  -19.3528 F   0  0  0  0  0  0  0  0  0  0  0  0
   18.1783   -9.9640  -19.2752 C   0  0  0  0  0  0  0  0  0  0  0  0
   17.4909  -10.8835  -19.9669 F   0  0  0  0  0  0  0  0  0  0  0  0
   19.4944  -10.1982  -18.8631 C   0  0  0  0  0  0  0  0  0  0  0  0
   20.1089   -9.1831  -18.0936 C   0  0  0  0  0  0  0  0  0  0  0  0
   20.2376  -11.5101  -19.1488 C   0  0  1  0  0  0  0  0  0  0  0  0
   20.3204  -11.6323  -20.6965 C   0  0  0  0  0  0  0  0  0  0  0  0
   21.6457  -11.5281  -18.7239 N   0  0  0  0  0  0  0  0  0  0  0  0
   22.0032  -11.7757  -17.5199 C   0  0  0  0  0  0  0  0  0  0  0  0
   23.3032  -11.7004  -17.1433 N   0  0  0  0  0  0  0  0  0  0  0  0
   20.9226  -12.2318  -16.2353 S   0  0  0  0  0  0  0  0  0  0  0  0
   19.8948  -13.2673  -17.2180 C   0  0  1  0  0  0  0  0  0  0  0  0
   18.4903  -12.7843  -17.4817 C   0  0  0  0  0  0  0  0  0  0  0  0
   19.5218  -12.7486  -18.6030 C   0  0  1  0  0  0  0  0  0  0  0  0
   23.4284  -11.4549  -16.1668 H   0  0  0  0  0  0  0  0  0  0  0  0
   23.8327  -11.1025  -17.7680 H   0  0  0  0  0  0  0  0  0  0  0  0
   20.1685  -14.7425  -17.0665 C   0  0  0  0  0  0  0  0  0  0  0  0
   21.3861  -14.9267  -16.4976 F   0  0  0  0  0  0  0  0  0  0  0  0
   19.2683  -15.3050  -16.2135 F   0  0  0  0  0  0  0  0  0  0  0  0
   20.2174   -6.9681  -17.1150 N   0  0  0  0  0  0  0  0  0  0  0  0
   20.7499   -7.3925  -16.3543 H   0  0  0  0  0  0  0  0  0  0  0  0
   19.4738   -2.2614  -18.5653 C   0  0  0  0  0  0  0  0  0  0  0  0
   18.6428   -3.2546  -18.0830 C   0  0  0  0  0  0  0  0  0  0  0  0
   19.0910   -4.5012  -17.8021 N   0  0  0  0  0  0  0  0  0  0  0  0
   20.4241   -4.7226  -17.9970 C   0  0  0  0  0  0  0  0  0  0  0  0
   21.0352   -5.9523  -17.6910 C   0  0  0  0  0  0  0  0  0  0  0  0
   22.3534   -6.1956  -17.8668 N   0  0  0  0  0  0  0  0  0  0  0  0
   23.1055   -5.2040  -18.3753 C   0  0  0  0  0  0  0  0  0  0  0  0
   22.6037   -3.9629  -18.7041 C   0  0  0  0  0  0  0  0  0  0  0  0
   21.2599   -3.7071  -18.5101 C   0  0  0  0  0  0  0  0  0  0  0  0
   20.7814   -2.4808  -18.8095 N   0  0  0  0  0  0  0  0  0  0  0  0
   18.9236   -1.0218  -18.7879 O   0  0  0  0  0  0  0  0  0  0  0  0
   19.6414    1.2121  -19.1942 C   0  0  0  0  0  0  0  0  0  0  0  0
   19.6321    0.0725  -18.1783 C   0  0  1  0  0  0  0  0  0  0  0  0
   18.9341    0.5162  -16.9270 C   0  0  0  0  0  0  0  0  0  0  0  0
   18.7730   -0.1482  -15.7969 N   0  0  0  0  0  0  0  0  0  0  0  0
   18.0761    0.7222  -14.9968 C   0  0  0  0  0  0  0  0  0  0  0  0
   17.8498    1.8938  -15.6689 C   0  0  0  0  0  0  0  0  0  0  0  0
   18.4054    1.7845  -16.9074 O   0  0  0  0  0  0  0  0  0  0  0  0
   17.6714   -6.8957  -18.0119 H   0  0  0  0  0  0  0  0  0  0  0  0
   21.0484   -9.3583  -17.7042 H   0  0  0  0  0  0  0  0  0  0  0  0
   20.8186  -10.7737  -21.0959 H   0  0  0  0  0  0  0  0  0  0  0  0
   19.3324  -11.6925  -21.1029 H   0  0  0  0  0  0  0  0  0  0  0  0
   20.8671  -12.5147  -20.9559 H   0  0  0  0  0  0  0  0  0  0  0  0
   18.1483  -11.8710  -17.0415 H   0  0  0  0  0  0  0  0  0  0  0  0
   17.5136  -13.2064  -17.3683 H   0  0  0  0  0  0  0  0  0  0  0  0
   19.4941  -13.0984  -19.6138 H   0  0  0  0  0  0  0  0  0  0  0  0
   20.1119  -15.1844  -18.0393 H   0  0  0  0  0  0  0  0  0  0  0  0
   17.6451   -3.0386  -17.9315 H   0  0  0  0  0  0  0  0  0  0  0  0
   24.1107   -5.3812  -18.5274 H   0  0  0  0  0  0  0  0  0  0  0  0
   23.2239   -3.2341  -19.0903 H   0  0  0  0  0  0  0  0  0  0  0  0
   20.1400    0.8917  -20.0851 H   0  0  0  0  0  0  0  0  0  0  0  0
   20.1559    2.0543  -18.7808 H   0  0  0  0  0  0  0  0  0  0  0  0
   18.6348    1.4890  -19.4288 H   0  0  0  0  0  0  0  0  0  0  0  0
   20.6258   -0.2218  -17.9122 H   0  0  0  0  0  0  0  0  0  0  0  0
   17.7683    0.5234  -14.0320 H   0  0  0  0  0  0  0  0  0  0  0  0
   17.3461    2.7160  -15.3010 H   0  0  0  0  0  0  0  0  0  0  0  0
  1  2  2  0
  2  3  1  0
  2 43  1  0
  3  4  1  0
  3  5  2  0
  5  6  1  0
  5  7  1  0
  7  9  1  0
  7  8  2  0
  8  1  1  0
  8 44  1  0
  9 10  1  6
  9 11  1  0
 10 45  1  0
 10 46  1  0
 10 47  1  0
 11 12  2  0
 12 13  1  0
 12 14  1  0
 13 18  1  0
 13 19  1  0
 14 15  1  0
 15 20  1  6
 15 16  1  0
 16 17  1  0
 16 48  1  0
 16 49  1  0
 17  9  1  0
 17 15  1  0
 17 50  1  6
 20 21  1  0
 20 22  1  0
 20 51  1  0
 23  1  1  0
 23 24  1  0
 25 26  2  0
 26 27  1  0
 26 52  1  0
 27 28  2  0
 28 29  1  0
 29 23  1  0
 29 30  2  0
 30 31  1  0
 31 32  2  0
 31 53  1  0
 32 33  1  0
 32 54  1  0
 33 34  2  0
 33 28  1  0
 34 25  1  0
 35 25  1  0
 36 37  1  0
 36 55  1  0
 36 56  1  0
 36 57  1  0
 37 35  1  0
 37 38  1  0
 37 58  1  1
 38 39  2  0
 39 40  1  0
 40 41  2  0
 40 59  1  0
 41 42  1  0
 41 60  1  0
 42 38  1  0
M  END
>  <minimizedAffinity>  (9) 
-7.29094

>  <mol_id>  (9) 
110437

>  <source_index>  (9) 
8

>  <layer>  (9) 
L2

>  <uniprot>  (9) 
Q9Y5Z0

>  <paff>  (9) 
6.0716000000000001

>  <smiles>  (9) 
C[C@H](Oc1cnc2c(Nc3cc(F)c(F)c([C@@]4(C)N=C(N)S[C@@]5(C(F)F)C[C@@H]45)c3)nccc2n1)c1ncco1

$$$$
L2:Q9Y5Z0:113205
     RDKit          3D

 48 52  0  0  0  0  0  0  0  0999 V2000
   20.0988   -7.1003  -18.0863 C   0  0  0  0  0  0  0  0  0  0  0  0
   20.7039   -8.3122  -17.6863 C   0  0  0  0  0  0  0  0  0  0  0  0
   19.9698   -9.4998  -17.4883 C   0  0  0  0  0  0  0  0  0  0  0  0
   18.5887   -9.4684  -17.6715 C   0  0  0  0  0  0  0  0  0  0  0  0
   17.9695   -8.2869  -18.0575 C   0  0  0  0  0  0  0  0  0  0  0  0
   16.6391   -8.2757  -18.2277 F   0  0  0  0  0  0  0  0  0  0  0  0
   18.7053   -7.1232  -18.2611 C   0  0  0  0  0  0  0  0  0  0  0  0
   18.0428   -6.0153  -18.6271 F   0  0  0  0  0  0  0  0  0  0  0  0
   20.2400   -4.6684  -17.4548 C   0  0  0  0  0  0  0  0  0  0  0  0
   20.8839   -5.7903  -18.3063 C   0  0  1  0  0  0  0  0  0  0  0  0
   22.2519   -6.0039  -17.8324 N   0  0  0  0  0  0  0  0  0  0  0  0
   23.2540   -5.2915  -18.1798 C   0  0  0  0  0  0  0  0  0  0  0  0
   24.4747   -5.5349  -17.6403 N   0  0  0  0  0  0  0  0  0  0  0  0
   23.2616   -4.0019  -19.3468 S   0  0  0  0  0  0  0  0  0  0  0  0
   21.8959   -4.4604  -20.3414 C   0  0  1  0  0  0  0  0  0  0  0  0
   21.7709   -5.8962  -20.8161 C   0  0  0  0  0  0  0  0  0  0  0  0
   20.8308   -5.3584  -19.7565 C   0  0  1  0  0  0  0  0  0  0  0  0
   25.2606   -5.2895  -18.2269 H   0  0  0  0  0  0  0  0  0  0  0  0
   24.5339   -6.4473  -17.2043 H   0  0  0  0  0  0  0  0  0  0  0  0
   21.4565   -3.3593  -21.2812 C   0  0  0  0  0  0  0  0  0  0  0  0
   20.1644   -3.0089  -21.0188 F   0  0  0  0  0  0  0  0  0  0  0  0
   20.6767  -10.6516  -17.0802 N   0  0  0  0  0  0  0  0  0  0  0  0
   20.3664  -10.9566  -16.1599 H   0  0  0  0  0  0  0  0  0  0  0  0
   20.9872  -11.8205  -17.8073 C   0  0  0  0  0  0  0  0  0  0  0  0
   21.9186  -11.6248  -18.7695 N   0  0  0  0  0  0  0  0  0  0  0  0
   22.2502  -12.6899  -19.5009 C   0  0  0  0  0  0  0  0  0  0  0  0
   21.7346  -13.9148  -19.3710 N   0  0  0  0  0  0  0  0  0  0  0  0
   20.7939  -14.0718  -18.4301 C   0  0  0  0  0  0  0  0  0  0  0  0
   20.2203  -15.3272  -18.2862 C   0  0  0  0  0  0  0  0  0  0  0  0
   19.2249  -15.5627  -17.3397 C   0  0  0  0  0  0  0  0  0  0  0  0
   18.8273  -14.5052  -16.5499 C   0  0  0  0  0  0  0  0  0  0  0  0
   19.3595  -13.2685  -16.6537 N   0  0  0  0  0  0  0  0  0  0  0  0
   20.3423  -13.0498  -17.5819 C   0  0  0  0  0  0  0  0  0  0  0  0
   18.6291  -16.8508  -17.1903 C   0  0  0  0  0  0  0  0  0  0  0  0
   18.1452  -17.8978  -17.0680 N   0  0  0  0  0  0  0  0  0  0  0  0
   21.7243   -8.3293  -17.5328 H   0  0  0  0  0  0  0  0  0  0  0  0
   18.0274  -10.3212  -17.5207 H   0  0  0  0  0  0  0  0  0  0  0  0
   20.2634   -4.9466  -16.4219 H   0  0  0  0  0  0  0  0  0  0  0  0
   19.2253   -4.5248  -17.7626 H   0  0  0  0  0  0  0  0  0  0  0  0
   20.7864   -3.7586  -17.5916 H   0  0  0  0  0  0  0  0  0  0  0  0
   22.5194   -6.6143  -20.5535 H   0  0  0  0  0  0  0  0  0  0  0  0
   21.6489   -6.3724  -21.7665 H   0  0  0  0  0  0  0  0  0  0  0  0
   19.7661   -5.3225  -19.6558 H   0  0  0  0  0  0  0  0  0  0  0  0
   21.5317   -3.7046  -22.2911 H   0  0  0  0  0  0  0  0  0  0  0  0
   22.0868   -2.5061  -21.1411 H   0  0  0  0  0  0  0  0  0  0  0  0
   22.9676  -12.5556  -20.2305 H   0  0  0  0  0  0  0  0  0  0  0  0
   20.5368  -16.1009  -18.8914 H   0  0  0  0  0  0  0  0  0  0  0  0
   18.0890  -14.6660  -15.8470 H   0  0  0  0  0  0  0  0  0  0  0  0
  1  2  2  0
  2  3  1  0
  2 36  1  0
  3 22  1  0
  3  4  2  0
  4  5  1  0
  4 37  1  0
  5  6  1  0
  5  7  2  0
  7  8  1  0
  7  1  1  0
  9 38  1  0
  9 39  1  0
  9 40  1  0
 10  9  1  1
 10  1  1  0
 10 11  1  0
 11 12  2  0
 12 13  1  0
 12 14  1  0
 13 18  1  0
 13 19  1  0
 14 15  1  0
 15 20  1  6
 15 16  1  0
 16 17  1  0
 16 41  1  0
 16 42  1  0
 17 10  1  0
 17 15  1  0
 17 43  1  6
 20 21  1  0
 20 44  1  0
 20 45  1  0
 22 24  1  0
 22 23  1  0
 24 25  2  0
 25 26  1  0
 26 27  2  0
 26 46  1  0
 27 28  1  0
 28 29  2  0
 29 30  1  0
 29 47  1  0
 30 34  1  0
 30 31  2  0
 31 32  1  0
 31 48  1  0
 32 33  2  0
 33 24  1  0
 33 28  1  0
 34 35  3  0
M  END
>  <minimizedAffinity>  (10) 
-6.99064

>  <mol_id>  (10) 
113205

>  <source_index>  (10) 
9

>  <layer>  (10) 
L2

>  <uniprot>  (10) 
Q9Y5Z0

>  <paff>  (10) 
7.7877999999999998

>  <smiles>  (10) 
C[C@]1(c2cc(Nc3ncnc4cc(C#N)cnc34)cc(F)c2F)N=C(N)S[C@@]2(CF)C[C@H]21

$$$$
