L2:O95819:11547
     RDKit          3D

 46 48  0  0  0  0  0  0  0  0999 V2000
  -14.2484   -3.4975   26.4990 C   0  0  0  0  0  0  0  0  0  0  0  0
  -14.0466   -3.2925   25.1843 N   0  0  0  0  0  0  0  0  0  0  0  0
  -13.5147   -2.1670   24.7727 C   0  0  0  0  0  0  0  0  0  0  0  0
  -13.1559   -1.1194   25.6452 C   0  0  0  0  0  0  0  0  0  0  0  0
  -13.1920   -1.4065   27.0143 C   0  0  0  0  0  0  0  0  0  0  0  0
  -13.7033   -2.6045   27.4665 C   0  0  0  0  0  0  0  0  0  0  0  0
  -13.7721   -2.8989   28.9165 C   0  0  0  0  0  0  0  0  0  0  0  0
  -12.9206   -2.2108   29.7090 N   0  0  0  0  0  0  0  0  0  0  0  0
  -14.5791   -3.7092   29.3987 O   0  0  0  0  0  0  0  0  0  0  0  0
  -12.0115   -1.8929   29.4140 H   0  0  0  0  0  0  0  0  0  0  0  0
  -13.1525   -2.0751   30.6789 H   0  0  0  0  0  0  0  0  0  0  0  0
  -14.9935   -4.5615   26.9030 N   0  0  0  0  0  0  0  0  0  0  0  0
  -15.0296   -4.6252   27.9235 H   0  0  0  0  0  0  0  0  0  0  0  0
  -18.2912   -8.1166   27.2193 C   0  0  0  0  0  0  0  0  0  0  0  0
  -17.4796   -7.1834   26.3660 C   0  0  0  0  0  0  0  0  0  0  0  0
  -17.6080   -7.1967   24.9838 C   0  0  0  0  0  0  0  0  0  0  0  0
  -16.8231   -6.3354   24.2333 C   0  0  0  0  0  0  0  0  0  0  0  0
  -16.9301   -6.3920   22.8972 F   0  0  0  0  0  0  0  0  0  0  0  0
  -15.9283   -5.4437   24.7888 C   0  0  0  0  0  0  0  0  0  0  0  0
  -15.8279   -5.4121   26.1821 C   0  0  0  0  0  0  0  0  0  0  0  0
  -16.6009   -6.2980   26.9572 C   0  0  0  0  0  0  0  0  0  0  0  0
  -12.8999    0.1226   25.1268 N   0  0  0  0  0  0  0  0  0  0  0  0
  -13.2372    0.2765   24.1866 H   0  0  0  0  0  0  0  0  0  0  0  0
  -12.4542    1.2368   25.8225 C   0  0  0  0  0  0  0  0  0  0  0  0
  -13.0409    2.4747   25.5315 C   0  0  0  0  0  0  0  0  0  0  0  0
  -12.6243    3.6090   26.1930 C   0  0  0  0  0  0  0  0  0  0  0  0
  -11.6005    3.5401   27.1376 C   0  0  0  0  0  0  0  0  0  0  0  0
  -10.9953    2.3151   27.4140 C   0  0  0  0  0  0  0  0  0  0  0  0
  -11.4236    1.1719   26.7677 C   0  0  0  0  0  0  0  0  0  0  0  0
  -11.0363    5.0588   27.8940 S   0  0  0  0  0  0  0  0  0  0  0  0
  -11.7336    4.8607   29.5604 C   0  0  0  0  0  0  0  0  0  0  0  0
  -11.2305    3.7836   30.2090 F   0  0  0  0  0  0  0  0  0  0  0  0
  -11.4300    5.9511   30.2812 F   0  0  0  0  0  0  0  0  0  0  0  0
  -13.0741    4.7218   29.5557 F   0  0  0  0  0  0  0  0  0  0  0  0
  -13.3821   -2.0500   23.6988 H   0  0  0  0  0  0  0  0  0  0  0  0
  -12.8959   -0.6422   27.7139 H   0  0  0  0  0  0  0  0  0  0  0  0
  -18.6816   -8.9483   26.6372 H   0  0  0  0  0  0  0  0  0  0  0  0
  -19.1388   -7.6001   27.6665 H   0  0  0  0  0  0  0  0  0  0  0  0
  -17.6995   -8.5199   28.0367 H   0  0  0  0  0  0  0  0  0  0  0  0
  -18.2554   -7.9014   24.4809 H   0  0  0  0  0  0  0  0  0  0  0  0
  -15.3087   -4.8202   24.1669 H   0  0  0  0  0  0  0  0  0  0  0  0
  -16.4945   -6.2994   28.0348 H   0  0  0  0  0  0  0  0  0  0  0  0
  -13.8416    2.5264   24.8063 H   0  0  0  0  0  0  0  0  0  0  0  0
  -13.0892    4.5629   25.9820 H   0  0  0  0  0  0  0  0  0  0  0  0
  -10.1862    2.2679   28.1275 H   0  0  0  0  0  0  0  0  0  0  0  0
  -10.9320    0.2357   26.9780 H   0  0  0  0  0  0  0  0  0  0  0  0
  1  2  2  0
  2  3  1  0
  3  4  2  0
  3 35  1  0
  4 22  1  0
  4  5  1  0
  5  6  2  0
  5 36  1  0
  6  7  1  0
  6  1  1  0
  7  8  1  0
  7  9  2  0
  8 10  1  0
  8 11  1  0
 12  1  1  0
 12 13  1  0
 14 15  1  0
 14 37  1  0
 14 38  1  0
 14 39  1  0
 15 16  2  0
 16 17  1  0
 16 40  1  0
 17 18  1  0
 17 19  2  0
 19 20  1  0
 19 41  1  0
 20 12  1  0
 20 21  2  0
 21 15  1  0
 21 42  1  0
 22 24  1  0
 22 23  1  0
 24 25  2  0
 25 26  1  0
 25 43  1  0
 26 27  2  0
 26 44  1  0
 27 30  1  0
 27 28  1  0
 28 29  2  0
 28 45  1  0
 29 24  1  0
 29 46  1  0
 30 31  1  0
 31 32  1  0
 31 33  1  0
 31 34  1  0
M  END
>  <minimizedAffinity>  (1) 
-8.36945

>  <mol_id>  (1) 
11547

>  <source_index>  (1) 
0

>  <layer>  (1) 
L2

>  <uniprot>  (1) 
O95819

>  <paff>  (1) 
6.3872

>  <smiles>  (1) 
Cc1cc(F)cc(Nc2ncc(Nc3ccc(SC(F)(F)F)cc3)cc2C(N)=O)c1

>  <aimnet_interaction_kcal_mol>  (1) 
-65.689917305986071

$$$$
L2:O95819:16994
     RDKit          3D

 68 72  0  0  0  0  0  0  0  0999 V2000
  -17.0761   -6.7598   26.7493 C   0  0  0  0  0  0  0  0  0  0  0  0
  -16.8414   -6.4250   25.3904 C   0  0  0  0  0  0  0  0  0  0  0  0
  -16.1536   -5.3119   25.0013 C   0  0  0  0  0  0  0  0  0  0  0  0
  -15.5883   -4.4858   26.0317 C   0  0  0  0  0  0  0  0  0  0  0  0
  -14.9596   -3.3436   25.7398 N   0  0  0  0  0  0  0  0  0  0  0  0
  -14.2374   -2.7560   26.6771 C   0  0  0  0  0  0  0  0  0  0  0  0
  -14.2146   -3.0884   27.9937 N   0  0  0  0  0  0  0  0  0  0  0  0
  -14.9605   -4.1293   28.3063 C   0  0  0  0  0  0  0  0  0  0  0  0
  -15.6809   -4.9075   27.3791 C   0  0  0  0  0  0  0  0  0  0  0  0
  -16.4364   -6.0337   27.7258 C   0  0  0  0  0  0  0  0  0  0  0  0
  -18.7821   -9.5647   28.2472 N   0  0  0  0  0  0  0  0  0  0  0  0
  -17.8503   -8.5880   28.2758 C   0  0  0  0  0  0  0  0  0  0  0  0
  -17.9448   -7.8687   27.1022 C   0  0  0  0  0  0  0  0  0  0  0  0
  -19.0108   -8.4933   26.4161 C   0  0  0  0  0  0  0  0  0  0  0  0
  -19.5292   -9.5033   27.1168 N   0  0  0  0  0  0  0  0  0  0  0  0
  -18.7539  -10.7419   29.0787 C   0  0  0  0  0  0  0  0  0  0  0  0
  -19.2917  -11.5231   31.3641 C   0  0  0  0  0  0  0  0  0  0  0  0
  -19.8675  -10.8576   30.1240 C   0  0  0  0  0  0  0  0  0  0  0  0
  -21.0114  -11.6559   29.5315 C   0  0  0  0  0  0  0  0  0  0  0  0
  -20.3702   -9.5642   30.4686 O   0  0  0  0  0  0  0  0  0  0  0  0
  -19.6431   -9.0727   30.8771 H   0  0  0  0  0  0  0  0  0  0  0  0
  -15.9485   -4.9366   23.5567 C   0  0  0  0  0  0  0  0  0  0  0  0
  -16.4660   -6.0012   22.6023 C   0  0  0  0  0  0  0  0  0  0  0  0
  -16.6810   -3.6194   23.2818 C   0  0  0  0  0  0  0  0  0  0  0  0
  -14.5483   -4.7389   23.4268 O   0  0  0  0  0  0  0  0  0  0  0  0
  -14.3243   -4.8493   22.4875 H   0  0  0  0  0  0  0  0  0  0  0  0
  -13.4581   -1.7360   26.2035 N   0  0  0  0  0  0  0  0  0  0  0  0
  -13.5393   -1.6164   25.2010 H   0  0  0  0  0  0  0  0  0  0  0  0
  -12.8968   -0.6639   26.8862 C   0  0  0  0  0  0  0  0  0  0  0  0
  -12.3440   -0.8135   28.1639 C   0  0  0  0  0  0  0  0  0  0  0  0
  -11.8025    0.2834   28.8027 C   0  0  0  0  0  0  0  0  0  0  0  0
  -11.8652    1.5122   28.1733 C   0  0  0  0  0  0  0  0  0  0  0  0
  -12.3424    1.6413   26.8835 C   0  0  0  0  0  0  0  0  0  0  0  0
  -12.8630    0.5643   26.2039 C   0  0  0  0  0  0  0  0  0  0  0  0
  -12.2213    3.0820   26.4628 C   0  0  0  0  0  0  0  0  0  0  0  0
  -13.5498    3.6922   26.0753 C   0  0  0  0  0  0  0  0  0  0  0  0
  -11.1649    3.2653   25.3950 C   0  0  0  0  0  0  0  0  0  0  0  0
  -11.7610    3.7388   27.6883 O   0  0  0  0  0  0  0  0  0  0  0  0
  -11.5765    2.8441   28.6990 C   0  0  0  0  0  0  0  0  0  0  0  0
  -11.2683    3.1760   29.8179 O   0  0  0  0  0  0  0  0  0  0  0  0
  -17.1979   -7.1061   24.6323 H   0  0  0  0  0  0  0  0  0  0  0  0
  -14.9964   -4.3931   29.3592 H   0  0  0  0  0  0  0  0  0  0  0  0
  -16.5000   -6.3040   28.7702 H   0  0  0  0  0  0  0  0  0  0  0  0
  -17.2045   -8.4638   29.1165 H   0  0  0  0  0  0  0  0  0  0  0  0
  -19.3798   -8.2813   25.4250 H   0  0  0  0  0  0  0  0  0  0  0  0
  -18.8147  -11.6084   28.4305 H   0  0  0  0  0  0  0  0  0  0  0  0
  -17.7842  -10.7527   29.5655 H   0  0  0  0  0  0  0  0  0  0  0  0
  -20.0695  -11.6623   32.1100 H   0  0  0  0  0  0  0  0  0  0  0  0
  -18.5115  -10.8979   31.7966 H   0  0  0  0  0  0  0  0  0  0  0  0
  -18.8566  -12.4905   31.1207 H   0  0  0  0  0  0  0  0  0  0  0  0
  -21.8858  -11.5879   30.1673 H   0  0  0  0  0  0  0  0  0  0  0  0
  -20.7346  -12.7019   29.4175 H   0  0  0  0  0  0  0  0  0  0  0  0
  -21.2622  -11.2747   28.5482 H   0  0  0  0  0  0  0  0  0  0  0  0
  -17.5345   -6.1421   22.7324 H   0  0  0  0  0  0  0  0  0  0  0  0
  -15.9553   -6.9496   22.7302 H   0  0  0  0  0  0  0  0  0  0  0  0
  -16.3018   -5.6469   21.5885 H   0  0  0  0  0  0  0  0  0  0  0  0
  -17.7382   -3.7312   23.5006 H   0  0  0  0  0  0  0  0  0  0  0  0
  -16.5559   -3.3572   22.2333 H   0  0  0  0  0  0  0  0  0  0  0  0
  -16.2662   -2.8313   23.8966 H   0  0  0  0  0  0  0  0  0  0  0  0
  -12.3062   -1.7929   28.6051 H   0  0  0  0  0  0  0  0  0  0  0  0
  -11.3223    0.1795   29.7629 H   0  0  0  0  0  0  0  0  0  0  0  0
  -13.2668    0.6509   25.2034 H   0  0  0  0  0  0  0  0  0  0  0  0
  -13.9165    3.2201   25.1666 H   0  0  0  0  0  0  0  0  0  0  0  0
  -13.4336    4.7593   25.8917 H   0  0  0  0  0  0  0  0  0  0  0  0
  -14.2899    3.5481   26.8581 H   0  0  0  0  0  0  0  0  0  0  0  0
  -11.4600    2.7237   24.4987 H   0  0  0  0  0  0  0  0  0  0  0  0
  -10.2058    2.8765   25.7292 H   0  0  0  0  0  0  0  0  0  0  0  0
  -11.0545    4.3193   25.1504 H   0  0  0  0  0  0  0  0  0  0  0  0
  1  2  2  0
  2  3  1  0
  2 41  1  0
  3 22  1  0
  3  4  2  0
  4  5  1  0
  5  6  2  0
  6 27  1  0
  6  7  1  0
  7  8  2  0
  8  9  1  0
  8 42  1  0
  9 10  2  0
  9  4  1  0
 10  1  1  0
 10 43  1  0
 11 12  1  0
 12 13  2  0
 12 44  1  0
 13  1  1  0
 13 14  1  0
 14 15  2  0
 14 45  1  0
 15 11  1  0
 16 11  1  0
 16 46  1  0
 16 47  1  0
 17 18  1  0
 17 48  1  0
 17 49  1  0
 17 50  1  0
 18 19  1  0
 18 20  1  0
 18 16  1  0
 19 51  1  0
 19 52  1  0
 19 53  1  0
 20 21  1  0
 22 23  1  0
 22 24  1  0
 22 25  1  0
 23 54  1  0
 23 55  1  0
 23 56  1  0
 24 57  1  0
 24 58  1  0
 24 59  1  0
 25 26  1  0
 27 29  1  0
 27 28  1  0
 29 30  2  0
 30 31  1  0
 30 60  1  0
 31 32  2  0
 31 61  1  0
 32 33  1  0
 33 34  2  0
 33 35  1  0
 34 29  1  0
 34 62  1  0
 35 36  1  0
 35 37  1  0
 35 38  1  0
 36 63  1  0
 36 64  1  0
 36 65  1  0
 37 66  1  0
 37 67  1  0
 37 68  1  0
 38 39  1  0
 39 40  2  0
 39 32  1  0
M  END
>  <minimizedAffinity>  (2) 
-10.31897

>  <mol_id>  (2) 
16994

>  <source_index>  (2) 
1

>  <layer>  (2) 
L2

>  <uniprot>  (2) 
O95819

>  <paff>  (2) 
7

>  <smiles>  (2) 
CC(C)(O)Cn1cc(-c2cc(C(C)(C)O)c3nc(Nc4ccc5c(c4)C(C)(C)OC5=O)ncc3c2)cn1

>  <aimnet_interaction_kcal_mol>  (2) 
-64.021143044302264

$$$$
L2:O95819:17170
     RDKit          3D

 45 47  0  0  0  0  0  0  0  0999 V2000
  -14.2491   -1.5815   24.5407 C   0  0  0  0  0  0  0  0  0  0  0  0
  -13.8027   -1.4048   25.7873 N   0  0  0  0  0  0  0  0  0  0  0  0
  -13.2031   -0.2744   26.1145 C   0  0  0  0  0  0  0  0  0  0  0  0
  -12.9920    0.7642   25.2006 C   0  0  0  0  0  0  0  0  0  0  0  0
  -13.2257    0.4688   23.8479 C   0  0  0  0  0  0  0  0  0  0  0  0
  -13.9074   -0.6611   23.5106 C   0  0  0  0  0  0  0  0  0  0  0  0
  -14.4440   -0.8138   22.1283 C   0  0  0  0  0  0  0  0  0  0  0  0
  -13.6187   -0.4577   21.1335 N   0  0  0  0  0  0  0  0  0  0  0  0
  -15.6002   -1.2158   21.9473 O   0  0  0  0  0  0  0  0  0  0  0  0
  -14.0184   -0.3695   20.2149 H   0  0  0  0  0  0  0  0  0  0  0  0
  -12.6497   -0.1560   21.2510 H   0  0  0  0  0  0  0  0  0  0  0  0
  -15.0348   -2.6666   24.2548 N   0  0  0  0  0  0  0  0  0  0  0  0
  -15.3530   -2.6967   23.2895 H   0  0  0  0  0  0  0  0  0  0  0  0
  -17.3080   -6.9759   24.6040 C   0  0  0  0  0  0  0  0  0  0  0  0
  -16.6480   -5.8013   25.2557 C   0  0  0  0  0  0  0  0  0  0  0  0
  -16.5078   -5.7524   26.6421 C   0  0  0  0  0  0  0  0  0  0  0  0
  -15.8751   -4.6702   27.2171 C   0  0  0  0  0  0  0  0  0  0  0  0
  -15.7278   -4.6673   28.5752 F   0  0  0  0  0  0  0  0  0  0  0  0
  -15.3856   -3.6089   26.4961 C   0  0  0  0  0  0  0  0  0  0  0  0
  -15.4978   -3.6652   25.0973 C   0  0  0  0  0  0  0  0  0  0  0  0
  -16.1284   -4.7699   24.4931 C   0  0  0  0  0  0  0  0  0  0  0  0
  -12.7071    2.0550   25.5457 N   0  0  0  0  0  0  0  0  0  0  0  0
  -12.9114    2.7167   24.8161 H   0  0  0  0  0  0  0  0  0  0  0  0
  -12.4431    2.5819   26.8053 C   0  0  0  0  0  0  0  0  0  0  0  0
  -11.5528    1.9652   27.6866 C   0  0  0  0  0  0  0  0  0  0  0  0
  -11.3074    2.5207   28.9273 C   0  0  0  0  0  0  0  0  0  0  0  0
  -11.9542    3.6875   29.3052 C   0  0  0  0  0  0  0  0  0  0  0  0
  -12.8209    4.3093   28.4172 C   0  0  0  0  0  0  0  0  0  0  0  0
  -13.0738    3.7945   27.1547 C   0  0  0  0  0  0  0  0  0  0  0  0
  -13.9906    4.4829   26.2014 C   0  0  0  0  0  0  0  0  0  0  0  0
  -12.9068   -0.1763   27.1532 H   0  0  0  0  0  0  0  0  0  0  0  0
  -12.8949    1.1607   23.0817 H   0  0  0  0  0  0  0  0  0  0  0  0
  -17.9441   -7.5245   25.2952 H   0  0  0  0  0  0  0  0  0  0  0  0
  -16.5668   -7.6791   24.2298 H   0  0  0  0  0  0  0  0  0  0  0  0
  -17.9059   -6.6643   23.7536 H   0  0  0  0  0  0  0  0  0  0  0  0
  -16.8744   -6.5511   27.2693 H   0  0  0  0  0  0  0  0  0  0  0  0
  -14.9242   -2.7649   26.9824 H   0  0  0  0  0  0  0  0  0  0  0  0
  -16.1896   -4.8266   23.4148 H   0  0  0  0  0  0  0  0  0  0  0  0
  -11.0178    1.0761   27.3888 H   0  0  0  0  0  0  0  0  0  0  0  0
  -10.5781    2.0536   29.5718 H   0  0  0  0  0  0  0  0  0  0  0  0
  -11.7657    4.1285   30.2742 H   0  0  0  0  0  0  0  0  0  0  0  0
  -13.3144    5.2271   28.7134 H   0  0  0  0  0  0  0  0  0  0  0  0
  -14.4451    5.3601   26.6521 H   0  0  0  0  0  0  0  0  0  0  0  0
  -14.8035    3.8254   25.8875 H   0  0  0  0  0  0  0  0  0  0  0  0
  -13.4763    4.8190   25.2966 H   0  0  0  0  0  0  0  0  0  0  0  0
  1  2  2  0
  2  3  1  0
  3  4  2  0
  3 31  1  0
  4 22  1  0
  4  5  1  0
  5  6  2  0
  5 32  1  0
  6  7  1  0
  6  1  1  0
  7  8  1  0
  7  9  2  0
  8 10  1  0
  8 11  1  0
 12  1  1  0
 12 13  1  0
 14 15  1  0
 14 33  1  0
 14 34  1  0
 14 35  1  0
 15 16  2  0
 16 17  1  0
 16 36  1  0
 17 18  1  0
 17 19  2  0
 19 20  1  0
 19 37  1  0
 20 12  1  0
 20 21  2  0
 21 15  1  0
 21 38  1  0
 22 24  1  0
 22 23  1  0
 24 25  2  0
 25 26  1  0
 25 39  1  0
 26 27  2  0
 26 40  1  0
 27 28  1  0
 27 41  1  0
 28 29  2  0
 28 42  1  0
 29 30  1  0
 29 24  1  0
 30 43  1  0
 30 44  1  0
 30 45  1  0
M  END
>  <minimizedAffinity>  (3) 
-8.49593

>  <mol_id>  (3) 
17170

>  <source_index>  (3) 
2

>  <layer>  (3) 
L2

>  <uniprot>  (3) 
O95819

>  <paff>  (3) 
6.0132000000000003

>  <smiles>  (3) 
Cc1cc(F)cc(Nc2ncc(Nc3ccccc3C)cc2C(N)=O)c1

>  <aimnet_interaction_kcal_mol>  (3) 
-73.569278734382763

$$$$
L2:O95819:35616
     RDKit          3D

 51 55  0  0  0  0  0  0  0  0999 V2000
  -15.9348   -5.3540   27.2358 C   0  0  0  0  0  0  0  0  0  0  0  0
  -15.8396   -4.9077   25.9216 C   0  0  0  0  0  0  0  0  0  0  0  0
  -16.4337   -5.6590   24.9169 C   0  0  0  0  0  0  0  0  0  0  0  0
  -17.1802   -6.7735   25.2558 C   0  0  0  0  0  0  0  0  0  0  0  0
  -17.3425   -7.0622   26.6084 C   0  0  0  0  0  0  0  0  0  0  0  0
  -16.7241   -6.3830   27.5724 N   0  0  0  0  0  0  0  0  0  0  0  0
  -13.3876   -3.3883   28.9021 C   0  0  0  0  0  0  0  0  0  0  0  0
  -13.2075   -3.9911   30.1130 N   0  0  0  0  0  0  0  0  0  0  0  0
  -14.0245   -4.9965   30.4064 C   0  0  0  0  0  0  0  0  0  0  0  0
  -15.0022   -5.4393   29.5289 C   0  0  0  0  0  0  0  0  0  0  0  0
  -15.0840   -4.7820   28.3078 C   0  0  0  0  0  0  0  0  0  0  0  0
  -14.3594   -3.6891   28.0344 N   0  0  0  0  0  0  0  0  0  0  0  0
  -12.4284   -2.4709   28.6049 N   0  0  0  0  0  0  0  0  0  0  0  0
  -11.5643   -2.5871   29.1471 H   0  0  0  0  0  0  0  0  0  0  0  0
  -13.4280   -1.5897   25.5400 C   0  0  0  0  0  0  0  0  0  0  0  0
  -12.9490   -0.7858   26.6833 C   0  0  0  0  0  0  0  0  0  0  0  0
  -12.7765    0.5006   26.5273 N   0  0  0  0  0  0  0  0  0  0  0  0
  -12.2400    0.9885   27.7386 O   0  0  0  0  0  0  0  0  0  0  0  0
  -12.1001   -0.0455   28.5791 C   0  0  0  0  0  0  0  0  0  0  0  0
  -12.5496   -1.1994   28.0052 C   0  0  0  0  0  0  0  0  0  0  0  0
  -18.2068   -8.1452   27.0763 C   0  0  0  0  0  0  0  0  0  0  0  0
  -18.0830   -8.8323   28.3153 C   0  0  0  0  0  0  0  0  0  0  0  0
  -19.0663   -9.7536   28.3150 C   0  0  0  0  0  0  0  0  0  0  0  0
  -19.7450   -9.6413   27.1337 O   0  0  0  0  0  0  0  0  0  0  0  0
  -19.2188   -8.6118   26.3736 N   0  0  0  0  0  0  0  0  0  0  0  0
  -19.6358  -10.7335   29.3022 C   0  0  2  0  0  0  0  0  0  0  0  0
  -20.5899  -11.6058   28.6852 O   0  0  0  0  0  0  0  0  0  0  0  0
  -20.3227  -10.0241   30.4934 C   0  0  0  0  0  0  0  0  0  0  0  0
  -19.5757  -10.4499   31.7647 C   0  0  0  0  0  0  0  0  0  0  0  0
  -18.4917  -11.2836   31.2934 N   0  0  0  0  0  0  0  0  0  0  0  0
  -17.4543  -11.7806   32.1639 C   0  0  0  0  0  0  0  0  0  0  0  0
  -18.5271  -11.5804   29.9879 C   0  0  0  0  0  0  0  0  0  0  0  0
  -17.8237  -12.4190   29.4374 O   0  0  0  0  0  0  0  0  0  0  0  0
  -20.2714  -11.8563   27.7950 H   0  0  0  0  0  0  0  0  0  0  0  0
  -15.2943   -4.0089   25.6911 H   0  0  0  0  0  0  0  0  0  0  0  0
  -16.3025   -5.3908   23.8778 H   0  0  0  0  0  0  0  0  0  0  0  0
  -17.6049   -7.4111   24.4950 H   0  0  0  0  0  0  0  0  0  0  0  0
  -13.8941   -5.4620   31.3781 H   0  0  0  0  0  0  0  0  0  0  0  0
  -15.6555   -6.2581   29.7706 H   0  0  0  0  0  0  0  0  0  0  0  0
  -12.9919   -1.2149   24.6156 H   0  0  0  0  0  0  0  0  0  0  0  0
  -14.5123   -1.5217   25.4451 H   0  0  0  0  0  0  0  0  0  0  0  0
  -13.1652   -2.6385   25.6717 H   0  0  0  0  0  0  0  0  0  0  0  0
  -11.6234    0.1555   29.5209 H   0  0  0  0  0  0  0  0  0  0  0  0
  -17.3404   -8.5976   29.0495 H   0  0  0  0  0  0  0  0  0  0  0  0
  -21.3629  -10.3386   30.5287 H   0  0  0  0  0  0  0  0  0  0  0  0
  -20.3081   -8.9460   30.3902 H   0  0  0  0  0  0  0  0  0  0  0  0
  -20.2070  -11.0269   32.4432 H   0  0  0  0  0  0  0  0  0  0  0  0
  -19.1826   -9.6098   32.3272 H   0  0  0  0  0  0  0  0  0  0  0  0
  -17.8749  -12.0164   33.1401 H   0  0  0  0  0  0  0  0  0  0  0  0
  -16.6656  -11.0437   32.2919 H   0  0  0  0  0  0  0  0  0  0  0  0
  -17.0304  -12.6764   31.7228 H   0  0  0  0  0  0  0  0  0  0  0  0
  1  2  2  0
  2  3  1  0
  2 35  1  0
  3  4  2  0
  3 36  1  0
  4  5  1  0
  4 37  1  0
  5 21  1  0
  5  6  2  0
  6  1  1  0
  7  8  2  0
  8  9  1  0
  9 10  2  0
  9 38  1  0
 10 11  1  0
 10 39  1  0
 11  1  1  0
 11 12  2  0
 12  7  1  0
 13  7  1  0
 13 14  1  0
 15 16  1  0
 15 40  1  0
 15 41  1  0
 15 42  1  0
 16 17  2  0
 17 18  1  0
 18 19  1  0
 19 20  2  0
 19 43  1  0
 20 13  1  0
 20 16  1  0
 21 22  1  0
 22 23  2  0
 22 44  1  0
 23 26  1  0
 23 24  1  0
 24 25  1  0
 25 21  2  0
 26 27  1  6
 26 28  1  0
 27 34  1  0
 28 29  1  0
 28 45  1  0
 28 46  1  0
 29 30  1  0
 29 47  1  0
 29 48  1  0
 30 31  1  0
 30 32  1  0
 31 49  1  0
 31 50  1  0
 31 51  1  0
 32 33  2  0
 32 26  1  0
M  END
>  <minimizedAffinity>  (4) 
-10.30250

>  <mol_id>  (4) 
35616

>  <source_index>  (4) 
3

>  <layer>  (4) 
L2

>  <uniprot>  (4) 
O95819

>  <paff>  (4) 
7.3010000000000002

>  <smiles>  (4) 
Cc1nocc1Nc1nccc(-c2cccc(-c3cc([C@]4(O)CCN(C)C4=O)on3)n2)n1

>  <aimnet_interaction_kcal_mol>  (4) 
-76.807792545676833

$$$$
L2:O95819:48976
     RDKit          3D

 57 60  0  0  0  0  0  0  0  0999 V2000
  -18.3264   -7.8240   27.2477 C   0  0  0  0  0  0  0  0  0  0  0  0
  -17.3726   -6.9410   27.6867 C   0  0  0  0  0  0  0  0  0  0  0  0
  -16.6637   -6.2038   26.7259 C   0  0  0  0  0  0  0  0  0  0  0  0
  -15.9046   -5.0539   27.0280 C   0  0  0  0  0  0  0  0  0  0  0  0
  -15.0932   -4.4558   26.0945 C   0  0  0  0  0  0  0  0  0  0  0  0
  -15.0306   -5.0687   24.8199 C   0  0  0  0  0  0  0  0  0  0  0  0
  -14.0987   -4.6330   23.9631 F   0  0  0  0  0  0  0  0  0  0  0  0
  -15.8490   -6.0986   24.4390 C   0  0  0  0  0  0  0  0  0  0  0  0
  -16.7398   -6.6365   25.3809 C   0  0  0  0  0  0  0  0  0  0  0  0
  -17.7052   -7.6271   25.0689 C   0  0  0  0  0  0  0  0  0  0  0  0
  -18.5121   -8.1515   25.9660 N   0  0  0  0  0  0  0  0  0  0  0  0
  -14.3008   -3.2621   26.4624 C   0  0  0  0  0  0  0  0  0  0  0  0
  -13.7071   -3.2430   27.7291 C   0  0  0  0  0  0  0  0  0  0  0  0
  -12.9435   -2.2537   28.1881 N   0  0  0  0  0  0  0  0  0  0  0  0
  -12.7263   -1.2361   27.3876 C   0  0  0  0  0  0  0  0  0  0  0  0
  -13.2699   -1.1249   26.0784 C   0  0  0  0  0  0  0  0  0  0  0  0
  -14.1332   -2.1499   25.6278 C   0  0  0  0  0  0  0  0  0  0  0  0
  -14.8294   -1.9894   24.3188 C   0  0  0  0  0  0  0  0  0  0  0  0
  -12.9500   -0.0546   25.3225 N   0  0  0  0  0  0  0  0  0  0  0  0
  -11.9483    0.8920   25.7463 C   0  0  0  0  0  0  0  0  0  0  0  0
  -11.9582    0.9967   27.2501 C   0  0  0  0  0  0  0  0  0  0  0  0
  -11.8957   -0.2925   27.8755 O   0  0  0  0  0  0  0  0  0  0  0  0
  -13.3273    0.0372   24.3927 H   0  0  0  0  0  0  0  0  0  0  0  0
  -19.0244   -9.6860   28.6473 C   0  0  0  0  0  0  0  0  0  0  0  0
  -18.2966  -10.5092   28.1469 O   0  0  0  0  0  0  0  0  0  0  0  0
  -19.2350   -8.4219   28.1683 N   0  0  0  0  0  0  0  0  0  0  0  0
  -19.6601   -7.8003   28.8320 H   0  0  0  0  0  0  0  0  0  0  0  0
  -19.7738   -9.8904   29.7691 O   0  0  0  0  0  0  0  0  0  0  0  0
  -19.7056  -11.2113   30.3564 C   0  0  0  0  0  0  0  0  0  0  0  0
  -19.0472  -11.1913   31.7335 C   0  0  0  0  0  0  0  0  0  0  0  0
  -17.9010  -12.1903   31.8541 C   0  0  2  0  0  0  0  0  0  0  0  0
  -17.4677  -12.4045   33.2907 C   0  0  0  0  0  0  0  0  0  0  0  0
  -15.8085  -12.7070   30.8591 C   0  0  0  0  0  0  0  0  0  0  0  0
  -16.8262  -11.7414   31.0379 O   0  0  0  0  0  0  0  0  0  0  0  0
  -17.1587   -6.8046   28.7366 H   0  0  0  0  0  0  0  0  0  0  0  0
  -15.9683   -4.6220   28.0179 H   0  0  0  0  0  0  0  0  0  0  0  0
  -15.7793   -6.5216   23.4459 H   0  0  0  0  0  0  0  0  0  0  0  0
  -17.7875   -8.0015   24.0555 H   0  0  0  0  0  0  0  0  0  0  0  0
  -13.8455   -4.0753   28.4045 H   0  0  0  0  0  0  0  0  0  0  0  0
  -15.1434   -0.9649   24.1879 H   0  0  0  0  0  0  0  0  0  0  0  0
  -15.7085   -2.6233   24.2569 H   0  0  0  0  0  0  0  0  0  0  0  0
  -14.1808   -2.2573   23.4867 H   0  0  0  0  0  0  0  0  0  0  0  0
  -12.1815    1.8601   25.3008 H   0  0  0  0  0  0  0  0  0  0  0  0
  -10.9556    0.6068   25.3916 H   0  0  0  0  0  0  0  0  0  0  0  0
  -12.8620    1.4984   27.5987 H   0  0  0  0  0  0  0  0  0  0  0  0
  -11.0905    1.5425   27.6120 H   0  0  0  0  0  0  0  0  0  0  0  0
  -20.7460  -11.5384   30.4068 H   0  0  0  0  0  0  0  0  0  0  0  0
  -19.1698  -11.8624   29.6773 H   0  0  0  0  0  0  0  0  0  0  0  0
  -18.6679  -10.1983   31.9560 H   0  0  0  0  0  0  0  0  0  0  0  0
  -19.8025  -11.4199   32.4899 H   0  0  0  0  0  0  0  0  0  0  0  0
  -18.2486  -13.1475   31.4542 H   0  0  0  0  0  0  0  0  0  0  0  0
  -17.0688  -11.4931   33.7173 H   0  0  0  0  0  0  0  0  0  0  0  0
  -16.7016  -13.1725   33.3629 H   0  0  0  0  0  0  0  0  0  0  0  0
  -18.3106  -12.7200   33.9017 H   0  0  0  0  0  0  0  0  0  0  0  0
  -15.0302  -12.2570   30.2542 H   0  0  0  0  0  0  0  0  0  0  0  0
  -16.1899  -13.5858   30.3344 H   0  0  0  0  0  0  0  0  0  0  0  0
  -15.3583  -13.0104   31.8029 H   0  0  0  0  0  0  0  0  0  0  0  0
  1  2  2  0
  2  3  1  0
  2 35  1  0
  3  4  2  0
  4  5  1  0
  4 36  1  0
  5 12  1  0
  5  6  2  0
  6  7  1  0
  6  8  1  0
  8  9  2  0
  8 37  1  0
  9 10  1  0
  9  3  1  0
 10 11  2  0
 10 38  1  0
 11  1  1  0
 12 13  2  0
 13 14  1  0
 13 39  1  0
 14 15  2  0
 15 16  1  0
 16 17  2  0
 16 19  1  0
 17 18  1  0
 17 12  1  0
 18 40  1  0
 18 41  1  0
 18 42  1  0
 19 20  1  0
 19 23  1  0
 20 21  1  0
 20 43  1  0
 20 44  1  0
 21 22  1  0
 21 45  1  0
 21 46  1  0
 22 15  1  0
 24 25  2  0
 24 26  1  0
 26  1  1  0
 26 27  1  0
 28 24  1  0
 29 28  1  0
 29 47  1  0
 29 48  1  0
 30 29  1  0
 30 49  1  0
 30 50  1  0
 31 32  1  0
 31 30  1  0
 31 51  1  6
 32 52  1  0
 32 53  1  0
 32 54  1  0
 33 34  1  0
 33 55  1  0
 33 56  1  0
 33 57  1  0
 34 31  1  0
M  END
>  <minimizedAffinity>  (5) 
-10.16245

>  <mol_id>  (5) 
48976

>  <source_index>  (5) 
4

>  <layer>  (5) 
L2

>  <uniprot>  (5) 
O95819

>  <paff>  (5) 
8.8239000000000001

>  <smiles>  (5) 
COC(C)CCOC(=O)Nc1cc2cc(-c3cnc4c(c3C)NCCO4)c(F)cc2cn1

>  <aimnet_interaction_kcal_mol>  (5) 
-68.843775799665735

$$$$
L2:O95819:51207
     RDKit          3D

 52 56  0  0  0  0  0  0  0  0999 V2000
  -15.2587   -4.7162   26.1993 C   0  0  0  0  0  0  0  0  0  0  0  0
  -15.9872   -5.3706   27.1635 C   0  0  0  0  0  0  0  0  0  0  0  0
  -16.7462   -6.5257   26.8753 C   0  0  0  0  0  0  0  0  0  0  0  0
  -17.3496   -7.3225   27.8609 C   0  0  0  0  0  0  0  0  0  0  0  0
  -18.2923   -8.2443   27.4807 C   0  0  0  0  0  0  0  0  0  0  0  0
  -18.5604   -8.5377   26.1990 N   0  0  0  0  0  0  0  0  0  0  0  0
  -17.8713   -7.9212   25.2593 C   0  0  0  0  0  0  0  0  0  0  0  0
  -16.9152   -6.9091   25.5268 C   0  0  0  0  0  0  0  0  0  0  0  0
  -16.0949   -6.3238   24.5441 C   0  0  0  0  0  0  0  0  0  0  0  0
  -15.2799   -5.2825   24.8982 C   0  0  0  0  0  0  0  0  0  0  0  0
  -14.4409   -4.7881   23.9808 F   0  0  0  0  0  0  0  0  0  0  0  0
  -15.1361   -2.1736   24.5153 C   0  0  0  0  0  0  0  0  0  0  0  0
  -14.3565   -2.3786   25.7681 C   0  0  0  0  0  0  0  0  0  0  0  0
  -14.4613   -3.5245   26.5647 C   0  0  0  0  0  0  0  0  0  0  0  0
  -13.7929   -3.5426   27.7931 C   0  0  0  0  0  0  0  0  0  0  0  0
  -12.9918   -2.5739   28.2314 N   0  0  0  0  0  0  0  0  0  0  0  0
  -12.8222   -1.5289   27.4519 C   0  0  0  0  0  0  0  0  0  0  0  0
  -13.4727   -1.3625   26.1983 C   0  0  0  0  0  0  0  0  0  0  0  0
  -13.2359   -0.2463   25.4780 N   0  0  0  0  0  0  0  0  0  0  0  0
  -12.1802    0.6658   25.8402 C   0  0  0  0  0  0  0  0  0  0  0  0
  -12.0339    0.7051   27.3413 C   0  0  0  0  0  0  0  0  0  0  0  0
  -11.9515   -0.6101   27.9092 O   0  0  0  0  0  0  0  0  0  0  0  0
  -13.8202   -0.0297   24.6849 H   0  0  0  0  0  0  0  0  0  0  0  0
  -19.1504   -8.8308   28.4598 N   0  0  0  0  0  0  0  0  0  0  0  0
  -19.0073  -10.0439   29.0955 C   0  0  0  0  0  0  0  0  0  0  0  0
  -18.2592  -10.9366   28.7311 O   0  0  0  0  0  0  0  0  0  0  0  0
  -19.8783  -10.1838   30.1752 N   0  0  0  0  0  0  0  0  0  0  0  0
  -19.7269   -8.1868   28.9706 H   0  0  0  0  0  0  0  0  0  0  0  0
  -20.1063   -9.3400   30.6792 H   0  0  0  0  0  0  0  0  0  0  0  0
  -19.7303  -11.3124   31.0831 C   0  0  0  0  0  0  0  0  0  0  0  0
  -19.0111  -10.9326   32.3523 C   0  0  0  0  0  0  0  0  0  0  0  0
  -18.5078  -11.9266   33.3375 C   0  0  0  0  0  0  0  0  0  0  0  0
  -19.6117  -10.9949   33.7087 C   0  0  0  0  0  0  0  0  0  0  0  0
  -15.9818   -4.9910   28.1758 H   0  0  0  0  0  0  0  0  0  0  0  0
  -17.0531   -7.2029   28.8913 H   0  0  0  0  0  0  0  0  0  0  0  0
  -18.0402   -8.2381   24.2368 H   0  0  0  0  0  0  0  0  0  0  0  0
  -16.0701   -6.7213   23.5379 H   0  0  0  0  0  0  0  0  0  0  0  0
  -15.9831   -2.8490   24.4574 H   0  0  0  0  0  0  0  0  0  0  0  0
  -14.5147   -2.3465   23.6382 H   0  0  0  0  0  0  0  0  0  0  0  0
  -15.5047   -1.1595   24.4643 H   0  0  0  0  0  0  0  0  0  0  0  0
  -13.8955   -4.3947   28.4482 H   0  0  0  0  0  0  0  0  0  0  0  0
  -12.4402    1.6564   25.4677 H   0  0  0  0  0  0  0  0  0  0  0  0
  -11.2364    0.3842   25.3707 H   0  0  0  0  0  0  0  0  0  0  0  0
  -12.8759    1.2228   27.8013 H   0  0  0  0  0  0  0  0  0  0  0  0
  -11.1128    1.2070   27.6278 H   0  0  0  0  0  0  0  0  0  0  0  0
  -19.1876  -12.0838   30.5470 H   0  0  0  0  0  0  0  0  0  0  0  0
  -20.7264  -11.7019   31.2926 H   0  0  0  0  0  0  0  0  0  0  0  0
  -18.3438  -10.1073   32.1814 H   0  0  0  0  0  0  0  0  0  0  0  0
  -17.5289  -11.7689   33.7638 H   0  0  0  0  0  0  0  0  0  0  0  0
  -18.7262  -12.9712   33.1923 H   0  0  0  0  0  0  0  0  0  0  0  0
  -19.4014  -10.2042   34.4124 H   0  0  0  0  0  0  0  0  0  0  0  0
  -20.6068  -11.3986   33.8370 H   0  0  0  0  0  0  0  0  0  0  0  0
  1  2  2  0
  2  3  1  0
  2 34  1  0
  3  4  2  0
  4  5  1  0
  4 35  1  0
  5 24  1  0
  5  6  2  0
  6  7  1  0
  7  8  2  0
  7 36  1  0
  8  9  1  0
  8  3  1  0
  9 10  2  0
  9 37  1  0
 10 11  1  0
 10  1  1  0
 12 13  1  0
 12 38  1  0
 12 39  1  0
 12 40  1  0
 13 14  2  0
 14  1  1  0
 14 15  1  0
 15 16  2  0
 15 41  1  0
 16 17  1  0
 17 18  2  0
 18 19  1  0
 18 13  1  0
 19 20  1  0
 19 23  1  0
 20 21  1  0
 20 42  1  0
 20 43  1  0
 21 22  1  0
 21 44  1  0
 21 45  1  0
 22 17  1  0
 24 25  1  0
 24 28  1  0
 25 26  2  0
 25 27  1  0
 27 30  1  0
 27 29  1  0
 30 31  1  0
 30 46  1  0
 30 47  1  0
 31 32  1  0
 31 48  1  0
 32 33  1  0
 32 49  1  0
 32 50  1  0
 33 31  1  0
 33 51  1  0
 33 52  1  0
M  END
>  <minimizedAffinity>  (6) 
-10.96801

>  <mol_id>  (6) 
51207

>  <source_index>  (6) 
5

>  <layer>  (6) 
L2

>  <uniprot>  (6) 
O95819

>  <paff>  (6) 
9.3010000000000002

>  <smiles>  (6) 
Cc1c(-c2cc3cc(NC(=O)NCC4CC4)ncc3cc2F)cnc2c1NCCO2

>  <aimnet_interaction_kcal_mol>  (6) 
-70.020221796008684

$$$$
L2:O95819:84031
     RDKit          3D

 43 45  0  0  0  0  0  0  0  0999 V2000
  -13.2034   -1.7727   24.9457 C   0  0  0  0  0  0  0  0  0  0  0  0
  -13.3940   -2.3002   23.7233 N   0  0  0  0  0  0  0  0  0  0  0  0
  -14.2743   -3.2496   23.5412 C   0  0  0  0  0  0  0  0  0  0  0  0
  -15.0499   -3.8002   24.5804 C   0  0  0  0  0  0  0  0  0  0  0  0
  -14.8211   -3.2997   25.8634 C   0  0  0  0  0  0  0  0  0  0  0  0
  -13.8001   -2.3834   26.0702 C   0  0  0  0  0  0  0  0  0  0  0  0
  -13.2944   -2.2932   27.4713 C   0  0  0  0  0  0  0  0  0  0  0  0
  -11.9758   -2.5991   27.5983 N   0  0  0  0  0  0  0  0  0  0  0  0
  -14.0160   -2.0804   28.4393 O   0  0  0  0  0  0  0  0  0  0  0  0
  -11.5294   -2.5791   28.5075 H   0  0  0  0  0  0  0  0  0  0  0  0
  -11.5194   -3.1561   26.8993 H   0  0  0  0  0  0  0  0  0  0  0  0
  -12.4262   -0.6506   24.9426 N   0  0  0  0  0  0  0  0  0  0  0  0
  -12.0640   -0.4764   23.9972 H   0  0  0  0  0  0  0  0  0  0  0  0
  -13.9383    4.0286   25.1661 C   0  0  0  0  0  0  0  0  0  0  0  0
  -13.2762    2.8495   25.8083 C   0  0  0  0  0  0  0  0  0  0  0  0
  -12.7267    2.9571   27.0828 C   0  0  0  0  0  0  0  0  0  0  0  0
  -12.1580    1.8426   27.6641 C   0  0  0  0  0  0  0  0  0  0  0  0
  -11.6574    1.9455   28.9226 F   0  0  0  0  0  0  0  0  0  0  0  0
  -12.0885    0.6222   27.0269 C   0  0  0  0  0  0  0  0  0  0  0  0
  -12.6027    0.5193   25.7344 C   0  0  0  0  0  0  0  0  0  0  0  0
  -13.2172    1.6289   25.1474 C   0  0  0  0  0  0  0  0  0  0  0  0
  -15.9502   -4.7819   24.1939 N   0  0  0  0  0  0  0  0  0  0  0  0
  -16.0470   -4.8562   23.1937 H   0  0  0  0  0  0  0  0  0  0  0  0
  -16.5431   -5.7778   24.9187 C   0  0  0  0  0  0  0  0  0  0  0  0
  -16.2450   -6.0358   26.2659 C   0  0  0  0  0  0  0  0  0  0  0  0
  -16.9618   -6.9782   26.9667 C   0  0  0  0  0  0  0  0  0  0  0  0
  -17.9087   -7.7802   26.3237 C   0  0  0  0  0  0  0  0  0  0  0  0
  -18.1215   -7.6079   24.9487 C   0  0  0  0  0  0  0  0  0  0  0  0
  -17.4790   -6.6025   24.2685 C   0  0  0  0  0  0  0  0  0  0  0  0
  -18.6249   -8.7617   27.0431 C   0  0  0  0  0  0  0  0  0  0  0  0
  -19.2214   -9.5664   27.6334 N   0  0  0  0  0  0  0  0  0  0  0  0
  -14.4153   -3.6210   22.5239 H   0  0  0  0  0  0  0  0  0  0  0  0
  -15.4176   -3.5734   26.7180 H   0  0  0  0  0  0  0  0  0  0  0  0
  -13.5832    4.9654   25.5882 H   0  0  0  0  0  0  0  0  0  0  0  0
  -15.0168    3.9835   25.3041 H   0  0  0  0  0  0  0  0  0  0  0  0
  -13.7501    4.0508   24.0955 H   0  0  0  0  0  0  0  0  0  0  0  0
  -12.7481    3.8924   27.6225 H   0  0  0  0  0  0  0  0  0  0  0  0
  -11.6245   -0.2024   27.5423 H   0  0  0  0  0  0  0  0  0  0  0  0
  -13.6683    1.5331   24.1714 H   0  0  0  0  0  0  0  0  0  0  0  0
  -15.4101   -5.5517   26.7397 H   0  0  0  0  0  0  0  0  0  0  0  0
  -16.7667   -7.1352   28.0192 H   0  0  0  0  0  0  0  0  0  0  0  0
  -18.7656   -8.2977   24.4194 H   0  0  0  0  0  0  0  0  0  0  0  0
  -17.6767   -6.4525   23.2159 H   0  0  0  0  0  0  0  0  0  0  0  0
  1  2  2  0
  2  3  1  0
  3  4  2  0
  3 32  1  0
  4 22  1  0
  4  5  1  0
  5  6  2  0
  5 33  1  0
  6  7  1  0
  6  1  1  0
  7  8  1  0
  7  9  2  0
  8 10  1  0
  8 11  1  0
 12  1  1  0
 12 13  1  0
 14 15  1  0
 14 34  1  0
 14 35  1  0
 14 36  1  0
 15 16  2  0
 16 17  1  0
 16 37  1  0
 17 18  1  0
 17 19  2  0
 19 20  1  0
 19 38  1  0
 20 12  1  0
 20 21  2  0
 21 15  1  0
 21 39  1  0
 22 24  1  0
 22 23  1  0
 24 25  2  0
 25 26  1  0
 25 40  1  0
 26 27  2  0
 26 41  1  0
 27 30  1  0
 27 28  1  0
 28 29  2  0
 28 42  1  0
 29 24  1  0
 29 43  1  0
 30 31  3  0
M  END
>  <minimizedAffinity>  (7) 
-8.66364

>  <mol_id>  (7) 
84031

>  <source_index>  (7) 
6

>  <layer>  (7) 
L2

>  <uniprot>  (7) 
O95819

>  <paff>  (7) 
6.3564999999999996

>  <smiles>  (7) 
Cc1cc(F)cc(Nc2ncc(Nc3ccc(C#N)cc3)cc2C(N)=O)c1

>  <aimnet_interaction_kcal_mol>  (7) 
-74.280361371215278

$$$$
L2:O95819:99264
     RDKit          3D

 63 68  0  0  0  0  0  0  0  0999 V2000
  -23.5244  -13.1992   21.9964 C   0  0  0  0  0  0  0  0  0  0  0  0
  -22.1855  -13.3056   22.2883 C   0  0  0  0  0  0  0  0  0  0  0  0
  -21.4006  -14.1409   21.4656 C   0  0  0  0  0  0  0  0  0  0  0  0
  -20.0764  -14.5209   21.7785 C   0  0  0  0  0  0  0  0  0  0  0  0
  -19.4184  -15.4691   21.0290 C   0  0  0  0  0  0  0  0  0  0  0  0
  -19.9941  -15.8551   19.7980 C   0  0  0  0  0  0  0  0  0  0  0  0
  -19.2780  -16.6602   18.9818 F   0  0  0  0  0  0  0  0  0  0  0  0
  -21.2430  -15.4741   19.4159 C   0  0  0  0  0  0  0  0  0  0  0  0
  -21.9977  -14.6657   20.2840 C   0  0  0  0  0  0  0  0  0  0  0  0
  -23.3577  -14.3820   20.0577 C   0  0  0  0  0  0  0  0  0  0  0  0
  -24.1101  -13.7054   20.8941 N   0  0  0  0  0  0  0  0  0  0  0  0
  -18.1897  -16.1194   21.5356 C   0  0  0  0  0  0  0  0  0  0  0  0
  -18.2972  -17.2467   22.3307 C   0  0  0  0  0  0  0  0  0  0  0  0
  -17.2757  -17.7581   23.0169 N   0  0  0  0  0  0  0  0  0  0  0  0
  -16.1001  -17.1744   22.9132 C   0  0  0  0  0  0  0  0  0  0  0  0
  -15.8617  -16.0535   22.0964 C   0  0  0  0  0  0  0  0  0  0  0  0
  -16.9186  -15.5860   21.3085 C   0  0  0  0  0  0  0  0  0  0  0  0
  -16.7260  -14.5560   20.2475 C   0  0  0  0  0  0  0  0  0  0  0  0
  -14.6062  -15.4582   22.1066 N   0  0  0  0  0  0  0  0  0  0  0  0
  -13.7811  -15.7598   23.2632 C   0  0  0  0  0  0  0  0  0  0  0  0
  -13.7969  -17.2548   23.4550 C   0  0  0  0  0  0  0  0  0  0  0  0
  -15.1289  -17.7215   23.7037 O   0  0  0  0  0  0  0  0  0  0  0  0
  -14.6284  -14.4779   21.8907 H   0  0  0  0  0  0  0  0  0  0  0  0
  -24.3225  -11.4881   23.6015 C   0  0  0  0  0  0  0  0  0  0  0  0
  -23.3212  -10.7581   23.5401 O   0  0  0  0  0  0  0  0  0  0  0  0
  -24.4774  -12.6008   22.8564 N   0  0  0  0  0  0  0  0  0  0  0  0
  -25.4238  -12.8914   22.6541 H   0  0  0  0  0  0  0  0  0  0  0  0
  -26.4842  -12.1274   24.9415 C   0  0  1  0  0  0  0  0  0  0  0  0
  -25.4663  -11.1342   24.4940 C   0  0  1  0  0  0  0  0  0  0  0  0
  -25.5397  -11.5400   25.9554 C   0  0  1  0  0  0  0  0  0  0  0  0
  -25.9909  -10.5452   26.9484 C   0  0  0  0  0  0  0  0  0  0  0  0
  -26.2910   -9.1844   26.7443 C   0  0  0  0  0  0  0  0  0  0  0  0
  -26.6859   -8.5924   27.8686 N   0  0  0  0  0  0  0  0  0  0  0  0
  -26.6536   -9.5551   28.8061 N   0  0  0  0  0  0  0  0  0  0  0  0
  -27.0276   -9.2167   30.1618 C   0  0  0  0  0  0  0  0  0  0  0  0
  -26.2387  -10.7470   28.2973 C   0  0  0  0  0  0  0  0  0  0  0  0
  -28.6045  -12.1502   23.5882 C   0  0  0  0  0  0  0  0  0  0  0  0
  -27.9583  -11.8269   24.9237 C   0  0  0  0  0  0  0  0  0  0  0  0
  -21.7360  -12.7758   23.1190 H   0  0  0  0  0  0  0  0  0  0  0  0
  -19.5984  -14.0818   22.6450 H   0  0  0  0  0  0  0  0  0  0  0  0
  -21.6564  -15.8115   18.4767 H   0  0  0  0  0  0  0  0  0  0  0  0
  -23.8429  -14.7417   19.1561 H   0  0  0  0  0  0  0  0  0  0  0  0
  -19.2483  -17.7545   22.4258 H   0  0  0  0  0  0  0  0  0  0  0  0
  -15.6747  -14.3476   20.0560 H   0  0  0  0  0  0  0  0  0  0  0  0
  -17.2403  -13.6284   20.4936 H   0  0  0  0  0  0  0  0  0  0  0  0
  -17.1584  -14.8906   19.3078 H   0  0  0  0  0  0  0  0  0  0  0  0
  -14.1516  -15.2677   24.1723 H   0  0  0  0  0  0  0  0  0  0  0  0
  -12.7665  -15.4135   23.0692 H   0  0  0  0  0  0  0  0  0  0  0  0
  -13.2120  -17.5607   24.3192 H   0  0  0  0  0  0  0  0  0  0  0  0
  -13.4073  -17.7507   22.5621 H   0  0  0  0  0  0  0  0  0  0  0  0
  -26.2622  -13.1626   24.6972 H   0  0  0  0  0  0  0  0  0  0  0  0
  -25.8008  -10.1224   24.3056 H   0  0  0  0  0  0  0  0  0  0  0  0
  -24.7753  -12.2310   26.3032 H   0  0  0  0  0  0  0  0  0  0  0  0
  -26.2268   -8.6012   25.8434 H   0  0  0  0  0  0  0  0  0  0  0  0
  -26.3795   -8.4318   30.5420 H   0  0  0  0  0  0  0  0  0  0  0  0
  -26.9432  -10.1006   30.7861 H   0  0  0  0  0  0  0  0  0  0  0  0
  -28.0526   -8.8542   30.1828 H   0  0  0  0  0  0  0  0  0  0  0  0
  -26.1606  -11.6336   28.9048 H   0  0  0  0  0  0  0  0  0  0  0  0
  -29.6739  -11.9449   23.6084 H   0  0  0  0  0  0  0  0  0  0  0  0
  -28.4772  -13.2026   23.3329 H   0  0  0  0  0  0  0  0  0  0  0  0
  -28.1749  -11.5597   22.7801 H   0  0  0  0  0  0  0  0  0  0  0  0
  -28.4474  -12.4014   25.7143 H   0  0  0  0  0  0  0  0  0  0  0  0
  -28.1290  -10.7835   25.1766 H   0  0  0  0  0  0  0  0  0  0  0  0
  1  2  2  0
  2  3  1  0
  2 39  1  0
  3  4  2  0
  4  5  1  0
  4 40  1  0
  5 12  1  0
  5  6  2  0
  6  7  1  0
  6  8  1  0
  8  9  2  0
  8 41  1  0
  9 10  1  0
  9  3  1  0
 10 11  2  0
 10 42  1  0
 11  1  1  0
 12 13  2  0
 13 14  1  0
 13 43  1  0
 14 15  2  0
 15 16  1  0
 16 17  2  0
 16 19  1  0
 17 18  1  0
 17 12  1  0
 18 44  1  0
 18 45  1  0
 18 46  1  0
 19 20  1  0
 19 23  1  0
 20 21  1  0
 20 47  1  0
 20 48  1  0
 21 22  1  0
 21 49  1  0
 21 50  1  0
 22 15  1  0
 24 25  2  0
 24 26  1  0
 26  1  1  0
 26 27  1  0
 28 29  1  0
 28 51  1  6
 29 24  1  0
 29 30  1  0
 29 52  1  1
 30 31  1  0
 30 28  1  0
 30 53  1  1
 31 32  1  0
 32 33  2  0
 32 54  1  0
 33 34  1  0
 34 35  1  0
 34 36  1  0
 35 55  1  0
 35 56  1  0
 35 57  1  0
 36 31  2  0
 36 58  1  0
 37 38  1  0
 37 59  1  0
 37 60  1  0
 37 61  1  0
 38 28  1  0
 38 62  1  0
 38 63  1  0
M  END
>  <minimizedAffinity>  (8) 
-6.75970

>  <mol_id>  (8) 
99264

>  <source_index>  (8) 
7

>  <layer>  (8) 
L2

>  <uniprot>  (8) 
O95819

>  <paff>  (8) 
8.0968999999999998

>  <smiles>  (8) 
CC[C@H]1[C@H](C(=O)Nc2cc3cc(-c4cnc5c(c4C)NCCO5)c(F)cc3cn2)[C@H]1c1cnn(C)c1

>  <aimnet_interaction_kcal_mol>  (8) 
-59.064324721609957

$$$$
L2:O95819:104627
     RDKit          3D

 42 44  0  0  0  0  0  0  0  0999 V2000
  -17.7909   -7.3830   25.7122 C   0  0  0  0  0  0  0  0  0  0  0  0
  -16.9443   -6.2302   25.7351 C   0  0  0  0  0  0  0  0  0  0  0  0
  -16.5270   -5.8987   26.9893 C   0  0  0  0  0  0  0  0  0  0  0  0
  -17.0830   -7.0388   28.1855 S   0  0  0  0  0  0  0  0  0  0  0  0
  -17.9758   -7.9256   26.9899 C   0  0  0  0  0  0  0  0  0  0  0  0
  -18.6957   -8.4537   22.3959 N   0  0  0  0  0  0  0  0  0  0  0  0
  -18.0000   -7.6518   23.2774 C   0  0  0  0  0  0  0  0  0  0  0  0
  -17.2290   -6.7707   22.9762 O   0  0  0  0  0  0  0  0  0  0  0  0
  -18.3826   -7.9191   24.6150 N   0  0  0  0  0  0  0  0  0  0  0  0
  -18.2412   -8.5105   21.4987 H   0  0  0  0  0  0  0  0  0  0  0  0
  -18.9713   -9.3583   22.7684 H   0  0  0  0  0  0  0  0  0  0  0  0
  -19.0049   -8.6975   24.7986 H   0  0  0  0  0  0  0  0  0  0  0  0
  -15.7125   -4.7546   27.3994 C   0  0  0  0  0  0  0  0  0  0  0  0
  -15.4743   -3.6958   26.5182 C   0  0  0  0  0  0  0  0  0  0  0  0
  -14.5678   -2.6998   26.8540 C   0  0  0  0  0  0  0  0  0  0  0  0
  -13.9165   -2.7192   28.0803 C   0  0  0  0  0  0  0  0  0  0  0  0
  -14.2332   -3.7201   28.9710 C   0  0  0  0  0  0  0  0  0  0  0  0
  -13.6299   -3.7238   30.1940 F   0  0  0  0  0  0  0  0  0  0  0  0
  -15.1232   -4.7325   28.6664 C   0  0  0  0  0  0  0  0  0  0  0  0
  -18.8825   -8.9884   27.3570 C   0  0  0  0  0  0  0  0  0  0  0  0
  -19.8643   -9.2665   26.6368 O   0  0  0  0  0  0  0  0  0  0  0  0
  -18.6425   -9.6384   28.5202 N   0  0  0  0  0  0  0  0  0  0  0  0
  -17.8083   -9.4069   29.0306 H   0  0  0  0  0  0  0  0  0  0  0  0
  -19.5053  -10.6677   29.0730 C   0  0  0  0  0  0  0  0  0  0  0  0
  -19.0207  -11.1310   30.4126 C   0  0  0  0  0  0  0  0  0  0  0  0
  -17.9645  -12.0277   30.5151 C   0  0  0  0  0  0  0  0  0  0  0  0
  -17.4626  -12.4000   31.7542 C   0  0  0  0  0  0  0  0  0  0  0  0
  -18.0661  -11.9307   32.9112 C   0  0  0  0  0  0  0  0  0  0  0  0
  -19.1498  -11.0684   32.8225 C   0  0  0  0  0  0  0  0  0  0  0  0
  -19.6068  -10.6517   31.5807 C   0  0  0  0  0  0  0  0  0  0  0  0
  -16.6554   -5.7026   24.8449 H   0  0  0  0  0  0  0  0  0  0  0  0
  -15.9924   -3.6296   25.5717 H   0  0  0  0  0  0  0  0  0  0  0  0
  -14.3710   -1.8897   26.1670 H   0  0  0  0  0  0  0  0  0  0  0  0
  -13.1833   -1.9704   28.3449 H   0  0  0  0  0  0  0  0  0  0  0  0
  -15.3099   -5.5066   29.4000 H   0  0  0  0  0  0  0  0  0  0  0  0
  -19.5870  -11.4974   28.3694 H   0  0  0  0  0  0  0  0  0  0  0  0
  -20.5129  -10.2718   29.1729 H   0  0  0  0  0  0  0  0  0  0  0  0
  -17.5511  -12.4779   29.6207 H   0  0  0  0  0  0  0  0  0  0  0  0
  -16.6110  -13.0645   31.8229 H   0  0  0  0  0  0  0  0  0  0  0  0
  -17.6771  -12.2208   33.8814 H   0  0  0  0  0  0  0  0  0  0  0  0
  -19.6263  -10.6996   33.7233 H   0  0  0  0  0  0  0  0  0  0  0  0
  -20.4152   -9.9321   31.5235 H   0  0  0  0  0  0  0  0  0  0  0  0
  1  2  1  0
  2  3  2  0
  2 31  1  0
  3 13  1  0
  3  4  1  0
  4  5  1  0
  5 20  1  0
  5  1  2  0
  6  7  1  0
  6 10  1  0
  6 11  1  0
  7  8  2  0
  7  9  1  0
  9  1  1  0
  9 12  1  0
 13 14  2  0
 14 15  1  0
 14 32  1  0
 15 16  2  0
 15 33  1  0
 16 17  1  0
 16 34  1  0
 17 18  1  0
 17 19  2  0
 19 13  1  0
 19 35  1  0
 20 21  2  0
 20 22  1  0
 22 24  1  0
 22 23  1  0
 24 25  1  0
 24 36  1  0
 24 37  1  0
 25 26  2  0
 26 27  1  0
 26 38  1  0
 27 28  2  0
 27 39  1  0
 28 29  1  0
 28 40  1  0
 29 30  2  0
 29 41  1  0
 30 25  1  0
 30 42  1  0
M  END
>  <minimizedAffinity>  (9) 
-10.30710

>  <mol_id>  (9) 
104627

>  <source_index>  (9) 
8

>  <layer>  (9) 
L2

>  <uniprot>  (9) 
O95819

>  <paff>  (9) 
6.0506000000000002

>  <smiles>  (9) 
NC(=O)Nc1cc(-c2cccc(F)c2)sc1C(=O)NCc1ccccc1

>  <aimnet_interaction_kcal_mol>  (9) 
-54.622077006334592

$$$$
L2:O95819:140980
     RDKit          3D

 51 55  0  0  0  0  0  0  0  0999 V2000
  -14.4564   -3.6298   27.2549 C   0  0  0  0  0  0  0  0  0  0  0  0
  -13.8088   -3.0674   26.1868 C   0  0  0  0  0  0  0  0  0  0  0  0
  -13.2269   -1.7781   26.2743 C   0  0  0  0  0  0  0  0  0  0  0  0
  -12.8739   -1.0199   25.1667 C   0  0  0  0  0  0  0  0  0  0  0  0
  -12.4400    0.2953   25.3328 C   0  0  0  0  0  0  0  0  0  0  0  0
  -12.3353    0.8775   26.5534 N   0  0  0  0  0  0  0  0  0  0  0  0
  -12.6215    0.1559   27.6026 C   0  0  0  0  0  0  0  0  0  0  0  0
  -13.0859   -1.1853   27.5534 C   0  0  0  0  0  0  0  0  0  0  0  0
  -13.4600   -1.9117   28.6852 C   0  0  0  0  0  0  0  0  0  0  0  0
  -14.1405   -3.0796   28.5224 C   0  0  0  0  0  0  0  0  0  0  0  0
  -14.5287   -3.7427   29.6452 F   0  0  0  0  0  0  0  0  0  0  0  0
  -16.4572   -3.5484   24.9593 C   0  0  0  0  0  0  0  0  0  0  0  0
  -16.2844   -4.6996   25.8950 C   0  0  0  0  0  0  0  0  0  0  0  0
  -15.4755   -4.6812   27.0465 C   0  0  0  0  0  0  0  0  0  0  0  0
  -15.6313   -5.7230   27.9621 C   0  0  0  0  0  0  0  0  0  0  0  0
  -16.5086   -6.7175   27.8052 N   0  0  0  0  0  0  0  0  0  0  0  0
  -17.1654   -6.7925   26.6779 C   0  0  0  0  0  0  0  0  0  0  0  0
  -17.0097   -5.8641   25.6226 C   0  0  0  0  0  0  0  0  0  0  0  0
  -17.5824   -6.1280   24.4081 N   0  0  0  0  0  0  0  0  0  0  0  0
  -17.9637   -7.5131   24.1931 C   0  0  0  0  0  0  0  0  0  0  0  0
  -18.8039   -7.9105   25.3777 C   0  0  0  0  0  0  0  0  0  0  0  0
  -18.0308   -7.8431   26.5837 O   0  0  0  0  0  0  0  0  0  0  0  0
  -17.2842   -5.5904   23.6087 H   0  0  0  0  0  0  0  0  0  0  0  0
  -12.0329    0.9302   24.1981 N   0  0  0  0  0  0  0  0  0  0  0  0
  -12.1884    2.2660   23.7988 C   0  0  0  0  0  0  0  0  0  0  0  0
  -12.5293    3.1863   24.5198 O   0  0  0  0  0  0  0  0  0  0  0  0
  -11.9147    2.3547   22.4648 N   0  0  0  0  0  0  0  0  0  0  0  0
  -11.6692    0.3061   23.4637 H   0  0  0  0  0  0  0  0  0  0  0  0
  -11.7022    1.5024   21.9616 H   0  0  0  0  0  0  0  0  0  0  0  0
  -11.9702    3.5633   21.6985 C   0  0  0  0  0  0  0  0  0  0  0  0
  -12.7252    3.3979   20.3598 C   0  0  0  0  0  0  0  0  0  0  0  0
  -11.4486    3.2032   19.6353 N   0  0  0  0  0  0  0  0  0  0  0  0
  -10.7268    3.7606   20.8026 C   0  0  0  0  0  0  0  0  0  0  0  0
  -11.2541    2.1991   19.5801 H   0  0  0  0  0  0  0  0  0  0  0  0
  -13.7924   -3.5799   25.2348 H   0  0  0  0  0  0  0  0  0  0  0  0
  -12.9532   -1.4286   24.1667 H   0  0  0  0  0  0  0  0  0  0  0  0
  -12.5034    0.6410   28.5683 H   0  0  0  0  0  0  0  0  0  0  0  0
  -13.2568   -1.5433   29.6788 H   0  0  0  0  0  0  0  0  0  0  0  0
  -16.1393   -2.6118   25.4027 H   0  0  0  0  0  0  0  0  0  0  0  0
  -17.5083   -3.4608   24.6969 H   0  0  0  0  0  0  0  0  0  0  0  0
  -15.9017   -3.6927   24.0328 H   0  0  0  0  0  0  0  0  0  0  0  0
  -15.0189   -5.7793   28.8469 H   0  0  0  0  0  0  0  0  0  0  0  0
  -17.0993   -8.1773   24.1182 H   0  0  0  0  0  0  0  0  0  0  0  0
  -18.5338   -7.5946   23.2719 H   0  0  0  0  0  0  0  0  0  0  0  0
  -19.1573   -8.9343   25.2980 H   0  0  0  0  0  0  0  0  0  0  0  0
  -19.6619   -7.2411   25.4634 H   0  0  0  0  0  0  0  0  0  0  0  0
  -12.2631    4.3635   22.3751 H   0  0  0  0  0  0  0  0  0  0  0  0
  -13.2236    4.3174   20.0537 H   0  0  0  0  0  0  0  0  0  0  0  0
  -13.4256    2.5677   20.2957 H   0  0  0  0  0  0  0  0  0  0  0  0
  -10.4806    4.8134   20.6619 H   0  0  0  0  0  0  0  0  0  0  0  0
   -9.8312    3.2171   21.0970 H   0  0  0  0  0  0  0  0  0  0  0  0
  1  2  2  0
  2  3  1  0
  2 35  1  0
  3  4  2  0
  4  5  1  0
  4 36  1  0
  5 24  1  0
  5  6  2  0
  6  7  1  0
  7  8  2  0
  7 37  1  0
  8  9  1  0
  8  3  1  0
  9 10  2  0
  9 38  1  0
 10 11  1  0
 10  1  1  0
 12 13  1  0
 12 39  1  0
 12 40  1  0
 12 41  1  0
 13 14  2  0
 14  1  1  0
 14 15  1  0
 15 16  2  0
 15 42  1  0
 16 17  1  0
 17 18  2  0
 18 19  1  0
 18 13  1  0
 19 20  1  0
 19 23  1  0
 20 21  1  0
 20 43  1  0
 20 44  1  0
 21 22  1  0
 21 45  1  0
 21 46  1  0
 22 17  1  0
 24 25  1  0
 24 28  1  0
 25 26  2  0
 25 27  1  0
 27 30  1  0
 27 29  1  0
 30 31  1  0
 30 47  1  0
 31 32  1  0
 31 48  1  0
 31 49  1  0
 32 33  1  0
 32 34  1  0
 33 30  1  0
 33 50  1  0
 33 51  1  0
M  END
>  <minimizedAffinity>  (10) 
-10.21651

>  <mol_id>  (10) 
140980

>  <source_index>  (10) 
9

>  <layer>  (10) 
L2

>  <uniprot>  (10) 
O95819

>  <paff>  (10) 
9.1191999999999993

>  <smiles>  (10) 
Cc1c(-c2cc3cc(NC(=O)NC4CNC4)ncc3cc2F)cnc2c1NCCO2

>  <aimnet_interaction_kcal_mol>  (10) 
-85.967457297216441

$$$$
