L2:O95819:11547
     RDKit          3D

 46 48  0  0  0  0  0  0  0  0999 V2000
  -14.5262   -3.9197   26.4003 C   0  0  0  0  0  0  0  0  0  0  0  0
  -14.5761   -3.4486   25.1318 N   0  0  0  0  0  0  0  0  0  0  0  0
  -14.1480   -2.1869   24.8878 C   0  0  0  0  0  0  0  0  0  0  0  0
  -13.6467   -1.3130   25.8466 C   0  0  0  0  0  0  0  0  0  0  0  0
  -13.6139   -1.7971   27.1515 C   0  0  0  0  0  0  0  0  0  0  0  0
  -14.0600   -3.0974   27.4430 C   0  0  0  0  0  0  0  0  0  0  0  0
  -13.9942   -3.6161   28.8335 C   0  0  0  0  0  0  0  0  0  0  0  0
  -12.8879   -3.3180   29.5807 N   0  0  0  0  0  0  0  0  0  0  0  0
  -14.9090   -4.2769   29.3140 O   0  0  0  0  0  0  0  0  0  0  0  0
  -12.1373   -2.7138   29.2808 H   0  0  0  0  0  0  0  0  0  0  0  0
  -12.8590   -3.6746   30.5280 H   0  0  0  0  0  0  0  0  0  0  0  0
  -14.9871   -5.2232   26.6763 N   0  0  0  0  0  0  0  0  0  0  0  0
  -14.3176   -5.7507   27.2412 H   0  0  0  0  0  0  0  0  0  0  0  0
  -18.8038   -8.1660   27.7356 C   0  0  0  0  0  0  0  0  0  0  0  0
  -17.9881   -7.4220   26.7215 C   0  0  0  0  0  0  0  0  0  0  0  0
  -18.2825   -7.5194   25.3612 C   0  0  0  0  0  0  0  0  0  0  0  0
  -17.4941   -6.8428   24.4388 C   0  0  0  0  0  0  0  0  0  0  0  0
  -17.7932   -6.9295   23.1349 F   0  0  0  0  0  0  0  0  0  0  0  0
  -16.4033   -6.0766   24.8406 C   0  0  0  0  0  0  0  0  0  0  0  0
  -16.0681   -5.9772   26.1918 C   0  0  0  0  0  0  0  0  0  0  0  0
  -16.8778   -6.6594   27.1210 C   0  0  0  0  0  0  0  0  0  0  0  0
  -13.2476   -0.0156   25.4949 N   0  0  0  0  0  0  0  0  0  0  0  0
  -13.2557    0.1718   24.4967 H   0  0  0  0  0  0  0  0  0  0  0  0
  -12.8320    1.0756   26.2764 C   0  0  0  0  0  0  0  0  0  0  0  0
  -13.3881    2.3379   26.0334 C   0  0  0  0  0  0  0  0  0  0  0  0
  -12.9749    3.4612   26.7588 C   0  0  0  0  0  0  0  0  0  0  0  0
  -11.9845    3.3458   27.7360 C   0  0  0  0  0  0  0  0  0  0  0  0
  -11.4350    2.0890   27.9967 C   0  0  0  0  0  0  0  0  0  0  0  0
  -11.8492    0.9692   27.2658 C   0  0  0  0  0  0  0  0  0  0  0  0
  -11.4938    4.7878   28.6564 S   0  0  0  0  0  0  0  0  0  0  0  0
  -12.1637    4.3594   30.2657 C   0  0  0  0  0  0  0  0  0  0  0  0
  -11.3030    3.6002   30.9863 F   0  0  0  0  0  0  0  0  0  0  0  0
  -12.4542    5.4579   31.0024 F   0  0  0  0  0  0  0  0  0  0  0  0
  -13.3098    3.6483   30.1388 F   0  0  0  0  0  0  0  0  0  0  0  0
  -14.1977   -1.8476   23.9144 H   0  0  0  0  0  0  0  0  0  0  0  0
  -13.2589   -1.1958   27.9114 H   0  0  0  0  0  0  0  0  0  0  0  0
  -19.5999   -8.6838   27.2426 H   0  0  0  0  0  0  0  0  0  0  0  0
  -19.2121   -7.4739   28.4422 H   0  0  0  0  0  0  0  0  0  0  0  0
  -18.1816   -8.8713   28.2458 H   0  0  0  0  0  0  0  0  0  0  0  0
  -19.0808   -8.0904   25.0422 H   0  0  0  0  0  0  0  0  0  0  0  0
  -15.8388   -5.5788   24.1346 H   0  0  0  0  0  0  0  0  0  0  0  0
  -16.6485   -6.5971   28.1253 H   0  0  0  0  0  0  0  0  0  0  0  0
  -14.1144    2.4414   25.3076 H   0  0  0  0  0  0  0  0  0  0  0  0
  -13.4049    4.3802   26.5702 H   0  0  0  0  0  0  0  0  0  0  0  0
  -10.7191    1.9849   28.7327 H   0  0  0  0  0  0  0  0  0  0  0  0
  -11.4223    0.0500   27.4603 H   0  0  0  0  0  0  0  0  0  0  0  0
  1  2  2  0
  2  3  1  0
  3  4  2  0
  3 35  1  0
  4 22  1  0
  4  5  1  0
  5  6  2  0
  5 36  1  0
  6  7  1  0
  6  1  1  0
  7  8  1  0
  7  9  2  0
  8 10  1  0
  8 11  1  0
 12  1  1  0
 12 13  1  0
 14 15  1  0
 14 37  1  0
 14 38  1  0
 14 39  1  0
 15 16  2  0
 16 17  1  0
 16 40  1  0
 17 18  1  0
 17 19  2  0
 19 20  1  0
 19 41  1  0
 20 12  1  0
 20 21  2  0
 21 15  1  0
 21 42  1  0
 22 24  1  0
 22 23  1  0
 24 25  2  0
 25 26  1  0
 25 43  1  0
 26 27  2  0
 26 44  1  0
 27 30  1  0
 27 28  1  0
 28 29  2  0
 28 45  1  0
 29 24  1  0
 29 46  1  0
 30 31  1  0
 31 32  1  0
 31 33  1  0
 31 34  1  0
M  END
>  <minimizedAffinity>  (1) 
-8.36945

>  <mol_id>  (1) 
11547

>  <source_index>  (1) 
0

>  <layer>  (1) 
L2

>  <uniprot>  (1) 
O95819

>  <paff>  (1) 
6.3872

>  <smiles>  (1) 
Cc1cc(F)cc(Nc2ncc(Nc3ccc(SC(F)(F)F)cc3)cc2C(N)=O)c1

$$$$
L2:O95819:16994
     RDKit          3D

 68 72  0  0  0  0  0  0  0  0999 V2000
  -17.0833   -6.8623   27.0625 C   0  0  0  0  0  0  0  0  0  0  0  0
  -16.9482   -6.4878   25.7214 C   0  0  0  0  0  0  0  0  0  0  0  0
  -16.1317   -5.4005   25.3187 C   0  0  0  0  0  0  0  0  0  0  0  0
  -15.4226   -4.6720   26.3024 C   0  0  0  0  0  0  0  0  0  0  0  0
  -14.6188   -3.6350   25.9934 N   0  0  0  0  0  0  0  0  0  0  0  0
  -13.9718   -2.9666   26.9625 C   0  0  0  0  0  0  0  0  0  0  0  0
  -14.0582   -3.2861   28.2550 N   0  0  0  0  0  0  0  0  0  0  0  0
  -14.8524   -4.3232   28.5653 C   0  0  0  0  0  0  0  0  0  0  0  0
  -15.5671   -5.0613   27.6387 C   0  0  0  0  0  0  0  0  0  0  0  0
  -16.3835   -6.1387   28.0219 C   0  0  0  0  0  0  0  0  0  0  0  0
  -18.6526   -9.8337   28.3874 N   0  0  0  0  0  0  0  0  0  0  0  0
  -17.5886   -8.9712   28.3350 C   0  0  0  0  0  0  0  0  0  0  0  0
  -17.9263   -7.9851   27.4312 C   0  0  0  0  0  0  0  0  0  0  0  0
  -19.2378   -8.3285   27.0309 C   0  0  0  0  0  0  0  0  0  0  0  0
  -19.6876   -9.4350   27.6257 N   0  0  0  0  0  0  0  0  0  0  0  0
  -18.7810  -10.9916   29.2563 C   0  0  0  0  0  0  0  0  0  0  0  0
  -19.4231  -11.3891   31.6432 C   0  0  0  0  0  0  0  0  0  0  0  0
  -19.9453  -10.9384   30.2723 C   0  0  0  0  0  0  0  0  0  0  0  0
  -21.1411  -11.8066   29.8707 C   0  0  0  0  0  0  0  0  0  0  0  0
  -20.3918   -9.5881   30.4289 O   0  0  0  0  0  0  0  0  0  0  0  0
  -21.1781   -9.5812   31.0007 H   0  0  0  0  0  0  0  0  0  0  0  0
  -16.0188   -5.0190   23.8339 C   0  0  0  0  0  0  0  0  0  0  0  0
  -16.5982   -6.1200   22.9268 C   0  0  0  0  0  0  0  0  0  0  0  0
  -16.6969   -3.6918   23.4437 C   0  0  0  0  0  0  0  0  0  0  0  0
  -14.6311   -4.8233   23.5335 O   0  0  0  0  0  0  0  0  0  0  0  0
  -14.5237   -4.8773   22.5704 H   0  0  0  0  0  0  0  0  0  0  0  0
  -13.1971   -1.9017   26.5113 N   0  0  0  0  0  0  0  0  0  0  0  0
  -12.9003   -2.1082   25.5689 H   0  0  0  0  0  0  0  0  0  0  0  0
  -12.7954   -0.6815   27.0647 C   0  0  0  0  0  0  0  0  0  0  0  0
  -12.2334   -0.5568   28.3515 C   0  0  0  0  0  0  0  0  0  0  0  0
  -11.8464    0.6858   28.8672 C   0  0  0  0  0  0  0  0  0  0  0  0
  -12.0335    1.7976   28.0709 C   0  0  0  0  0  0  0  0  0  0  0  0
  -12.5794    1.7173   26.8089 C   0  0  0  0  0  0  0  0  0  0  0  0
  -12.9644    0.4861   26.2932 C   0  0  0  0  0  0  0  0  0  0  0  0
  -12.6462    3.0809   26.2201 C   0  0  0  0  0  0  0  0  0  0  0  0
  -14.0793    3.5365   25.9584 C   0  0  0  0  0  0  0  0  0  0  0  0
  -11.7730    3.2253   24.9765 C   0  0  0  0  0  0  0  0  0  0  0  0
  -12.0876    3.9126   27.2686 O   0  0  0  0  0  0  0  0  0  0  0  0
  -11.7192    3.1880   28.3677 C   0  0  0  0  0  0  0  0  0  0  0  0
  -11.2263    3.6199   29.3897 O   0  0  0  0  0  0  0  0  0  0  0  0
  -17.4599   -7.0207   25.0009 H   0  0  0  0  0  0  0  0  0  0  0  0
  -14.9351   -4.5869   29.5596 H   0  0  0  0  0  0  0  0  0  0  0  0
  -16.4641   -6.3939   29.0186 H   0  0  0  0  0  0  0  0  0  0  0  0
  -16.7076   -9.0450   28.8673 H   0  0  0  0  0  0  0  0  0  0  0  0
  -19.7888   -7.7816   26.3510 H   0  0  0  0  0  0  0  0  0  0  0  0
  -18.9228  -11.8532   28.6379 H   0  0  0  0  0  0  0  0  0  0  0  0
  -17.8845  -11.0207   29.8397 H   0  0  0  0  0  0  0  0  0  0  0  0
  -20.2199  -11.3569   32.3566 H   0  0  0  0  0  0  0  0  0  0  0  0
  -18.6363  -10.7357   31.9576 H   0  0  0  0  0  0  0  0  0  0  0  0
  -19.0490  -12.3890   31.5712 H   0  0  0  0  0  0  0  0  0  0  0  0
  -21.9070  -11.7242   30.6133 H   0  0  0  0  0  0  0  0  0  0  0  0
  -20.8300  -12.8273   29.7909 H   0  0  0  0  0  0  0  0  0  0  0  0
  -21.5218  -11.4750   28.9273 H   0  0  0  0  0  0  0  0  0  0  0  0
  -17.6339   -6.2619   23.1552 H   0  0  0  0  0  0  0  0  0  0  0  0
  -16.0679   -7.0344   23.0925 H   0  0  0  0  0  0  0  0  0  0  0  0
  -16.4955   -5.8288   21.9023 H   0  0  0  0  0  0  0  0  0  0  0  0
  -17.7468   -3.7566   23.6396 H   0  0  0  0  0  0  0  0  0  0  0  0
  -16.5393   -3.5035   22.4023 H   0  0  0  0  0  0  0  0  0  0  0  0
  -16.2755   -2.8936   24.0183 H   0  0  0  0  0  0  0  0  0  0  0  0
  -12.1040   -1.4030   28.9280 H   0  0  0  0  0  0  0  0  0  0  0  0
  -11.4354    0.7677   29.8103 H   0  0  0  0  0  0  0  0  0  0  0  0
  -13.3732    0.4265   25.3475 H   0  0  0  0  0  0  0  0  0  0  0  0
  -14.5098    2.9338   25.1862 H   0  0  0  0  0  0  0  0  0  0  0  0
  -14.0773    4.5615   25.6514 H   0  0  0  0  0  0  0  0  0  0  0  0
  -14.6555    3.4336   26.8541 H   0  0  0  0  0  0  0  0  0  0  0  0
  -12.1695    2.6180   24.1898 H   0  0  0  0  0  0  0  0  0  0  0  0
  -10.7757    2.9101   25.2024 H   0  0  0  0  0  0  0  0  0  0  0  0
  -11.7617    4.2491   24.6655 H   0  0  0  0  0  0  0  0  0  0  0  0
  1  2  2  0
  2  3  1  0
  2 41  1  0
  3 22  1  0
  3  4  2  0
  4  5  1  0
  5  6  2  0
  6 27  1  0
  6  7  1  0
  7  8  2  0
  8  9  1  0
  8 42  1  0
  9 10  2  0
  9  4  1  0
 10  1  1  0
 10 43  1  0
 11 12  1  0
 12 13  2  0
 12 44  1  0
 13  1  1  0
 13 14  1  0
 14 15  2  0
 14 45  1  0
 15 11  1  0
 16 11  1  0
 16 46  1  0
 16 47  1  0
 17 18  1  0
 17 48  1  0
 17 49  1  0
 17 50  1  0
 18 19  1  0
 18 20  1  0
 18 16  1  0
 19 51  1  0
 19 52  1  0
 19 53  1  0
 20 21  1  0
 22 23  1  0
 22 24  1  0
 22 25  1  0
 23 54  1  0
 23 55  1  0
 23 56  1  0
 24 57  1  0
 24 58  1  0
 24 59  1  0
 25 26  1  0
 27 29  1  0
 27 28  1  0
 29 30  2  0
 30 31  1  0
 30 60  1  0
 31 32  2  0
 31 61  1  0
 32 33  1  0
 33 34  2  0
 33 35  1  0
 34 29  1  0
 34 62  1  0
 35 36  1  0
 35 37  1  0
 35 38  1  0
 36 63  1  0
 36 64  1  0
 36 65  1  0
 37 66  1  0
 37 67  1  0
 37 68  1  0
 38 39  1  0
 39 40  2  0
 39 32  1  0
M  END
>  <minimizedAffinity>  (2) 
-10.31897

>  <mol_id>  (2) 
16994

>  <source_index>  (2) 
1

>  <layer>  (2) 
L2

>  <uniprot>  (2) 
O95819

>  <paff>  (2) 
7

>  <smiles>  (2) 
CC(C)(O)Cn1cc(-c2cc(C(C)(C)O)c3nc(Nc4ccc5c(c4)C(C)(C)OC5=O)ncc3c2)cn1

$$$$
L2:O95819:17170
     RDKit          3D

 45 47  0  0  0  0  0  0  0  0999 V2000
  -13.7036   -2.4752   25.8810 C   0  0  0  0  0  0  0  0  0  0  0  0
  -13.2775   -2.2145   27.1383 N   0  0  0  0  0  0  0  0  0  0  0  0
  -12.7358   -0.9998   27.4068 C   0  0  0  0  0  0  0  0  0  0  0  0
  -12.5900    0.0289   26.4840 C   0  0  0  0  0  0  0  0  0  0  0  0
  -13.0353   -0.2424   25.1918 C   0  0  0  0  0  0  0  0  0  0  0  0
  -13.6104   -1.4869   24.8843 C   0  0  0  0  0  0  0  0  0  0  0  0
  -14.0710   -1.7736   23.5029 C   0  0  0  0  0  0  0  0  0  0  0  0
  -13.1326   -1.7965   22.5080 N   0  0  0  0  0  0  0  0  0  0  0  0
  -15.2556   -1.9621   23.2488 O   0  0  0  0  0  0  0  0  0  0  0  0
  -13.4592   -1.9830   21.5678 H   0  0  0  0  0  0  0  0  0  0  0  0
  -12.1619   -1.5492   22.6322 H   0  0  0  0  0  0  0  0  0  0  0  0
  -14.2843   -3.7260   25.5862 N   0  0  0  0  0  0  0  0  0  0  0  0
  -13.9477   -4.0999   24.6966 H   0  0  0  0  0  0  0  0  0  0  0  0
  -17.8335   -7.1543   25.6147 C   0  0  0  0  0  0  0  0  0  0  0  0
  -16.8479   -6.3082   26.3630 C   0  0  0  0  0  0  0  0  0  0  0  0
  -16.6961   -6.4446   27.7432 C   0  0  0  0  0  0  0  0  0  0  0  0
  -15.7558   -5.6689   28.4100 C   0  0  0  0  0  0  0  0  0  0  0  0
  -15.6284   -5.7952   29.7384 F   0  0  0  0  0  0  0  0  0  0  0  0
  -14.9474   -4.7637   27.7280 C   0  0  0  0  0  0  0  0  0  0  0  0
  -15.0575   -4.6205   26.3439 C   0  0  0  0  0  0  0  0  0  0  0  0
  -16.0199   -5.4036   25.6771 C   0  0  0  0  0  0  0  0  0  0  0  0
  -11.9727    1.2554   26.7676 N   0  0  0  0  0  0  0  0  0  0  0  0
  -11.1270    1.4494   26.2437 H   0  0  0  0  0  0  0  0  0  0  0  0
  -12.4671    2.3683   27.4751 C   0  0  0  0  0  0  0  0  0  0  0  0
  -12.1280    2.4811   28.8344 C   0  0  0  0  0  0  0  0  0  0  0  0
  -12.5229    3.5860   29.5892 C   0  0  0  0  0  0  0  0  0  0  0  0
  -13.2625    4.6002   28.9937 C   0  0  0  0  0  0  0  0  0  0  0  0
  -13.6175    4.5008   27.6492 C   0  0  0  0  0  0  0  0  0  0  0  0
  -13.2421    3.3837   26.8807 C   0  0  0  0  0  0  0  0  0  0  0  0
  -13.7055    3.3264   25.4499 C   0  0  0  0  0  0  0  0  0  0  0  0
  -12.4071   -0.8267   28.3696 H   0  0  0  0  0  0  0  0  0  0  0  0
  -12.9421    0.4752   24.4561 H   0  0  0  0  0  0  0  0  0  0  0  0
  -18.3675   -7.7741   26.3043 H   0  0  0  0  0  0  0  0  0  0  0  0
  -17.3132   -7.7698   24.9109 H   0  0  0  0  0  0  0  0  0  0  0  0
  -18.5233   -6.5229   25.0947 H   0  0  0  0  0  0  0  0  0  0  0  0
  -17.2786   -7.1175   28.2656 H   0  0  0  0  0  0  0  0  0  0  0  0
  -14.2621   -4.1947   28.2492 H   0  0  0  0  0  0  0  0  0  0  0  0
  -16.1199   -5.3102   24.6542 H   0  0  0  0  0  0  0  0  0  0  0  0
  -11.5766    1.7327   29.2825 H   0  0  0  0  0  0  0  0  0  0  0  0
  -12.2664    3.6497   30.5868 H   0  0  0  0  0  0  0  0  0  0  0  0
  -13.5482    5.4246   29.5449 H   0  0  0  0  0  0  0  0  0  0  0  0
  -14.1642    5.2584   27.2108 H   0  0  0  0  0  0  0  0  0  0  0  0
  -14.2753    4.2035   25.2241 H   0  0  0  0  0  0  0  0  0  0  0  0
  -14.3149    2.4586   25.3068 H   0  0  0  0  0  0  0  0  0  0  0  0
  -12.8558    3.2764   24.8015 H   0  0  0  0  0  0  0  0  0  0  0  0
  1  2  2  0
  2  3  1  0
  3  4  2  0
  3 31  1  0
  4 22  1  0
  4  5  1  0
  5  6  2  0
  5 32  1  0
  6  7  1  0
  6  1  1  0
  7  8  1  0
  7  9  2  0
  8 10  1  0
  8 11  1  0
 12  1  1  0
 12 13  1  0
 14 15  1  0
 14 33  1  0
 14 34  1  0
 14 35  1  0
 15 16  2  0
 16 17  1  0
 16 36  1  0
 17 18  1  0
 17 19  2  0
 19 20  1  0
 19 37  1  0
 20 12  1  0
 20 21  2  0
 21 15  1  0
 21 38  1  0
 22 24  1  0
 22 23  1  0
 24 25  2  0
 25 26  1  0
 25 39  1  0
 26 27  2  0
 26 40  1  0
 27 28  1  0
 27 41  1  0
 28 29  2  0
 28 42  1  0
 29 30  1  0
 29 24  1  0
 30 43  1  0
 30 44  1  0
 30 45  1  0
M  END
>  <minimizedAffinity>  (3) 
-8.49593

>  <mol_id>  (3) 
17170

>  <source_index>  (3) 
2

>  <layer>  (3) 
L2

>  <uniprot>  (3) 
O95819

>  <paff>  (3) 
6.0132000000000003

>  <smiles>  (3) 
Cc1cc(F)cc(Nc2ncc(Nc3ccccc3C)cc2C(N)=O)c1

$$$$
L2:O95819:35616
     RDKit          3D

 51 55  0  0  0  0  0  0  0  0999 V2000
  -15.7787   -5.1526   26.9747 C   0  0  0  0  0  0  0  0  0  0  0  0
  -15.8621   -4.6911   25.6623 C   0  0  0  0  0  0  0  0  0  0  0  0
  -16.7397   -5.3076   24.7753 C   0  0  0  0  0  0  0  0  0  0  0  0
  -17.5186   -6.3735   25.2140 C   0  0  0  0  0  0  0  0  0  0  0  0
  -17.3959   -6.7928   26.5343 C   0  0  0  0  0  0  0  0  0  0  0  0
  -16.5405   -6.1939   27.4020 N   0  0  0  0  0  0  0  0  0  0  0  0
  -13.1524   -3.0595   28.4138 C   0  0  0  0  0  0  0  0  0  0  0  0
  -13.1397   -3.3654   29.7182 N   0  0  0  0  0  0  0  0  0  0  0  0
  -14.0204   -4.2874   30.1407 C   0  0  0  0  0  0  0  0  0  0  0  0
  -14.9119   -4.9147   29.3106 C   0  0  0  0  0  0  0  0  0  0  0  0
  -14.8694   -4.5508   27.9783 C   0  0  0  0  0  0  0  0  0  0  0  0
  -13.9887   -3.6214   27.5267 N   0  0  0  0  0  0  0  0  0  0  0  0
  -12.2744   -2.1131   27.8820 N   0  0  0  0  0  0  0  0  0  0  0  0
  -11.3650   -2.5514   27.8116 H   0  0  0  0  0  0  0  0  0  0  0  0
  -13.1716   -1.1902   25.0044 C   0  0  0  0  0  0  0  0  0  0  0  0
  -12.8789   -0.3871   26.2130 C   0  0  0  0  0  0  0  0  0  0  0  0
  -12.9847    0.9483   26.1732 N   0  0  0  0  0  0  0  0  0  0  0  0
  -12.6485    1.3864   27.4432 O   0  0  0  0  0  0  0  0  0  0  0  0
  -12.3474    0.3199   28.2244 C   0  0  0  0  0  0  0  0  0  0  0  0
  -12.4758   -0.8348   27.4976 C   0  0  0  0  0  0  0  0  0  0  0  0
  -18.1881   -7.9117   27.0653 C   0  0  0  0  0  0  0  0  0  0  0  0
  -18.0287   -8.6052   28.2979 C   0  0  0  0  0  0  0  0  0  0  0  0
  -19.0257   -9.5536   28.3188 C   0  0  0  0  0  0  0  0  0  0  0  0
  -19.7310   -9.4567   27.1597 O   0  0  0  0  0  0  0  0  0  0  0  0
  -19.2253   -8.4355   26.3881 N   0  0  0  0  0  0  0  0  0  0  0  0
  -19.4550  -10.6154   29.2656 C   0  0  2  0  0  0  0  0  0  0  0  0
  -20.1005  -11.6390   28.5146 O   0  0  0  0  0  0  0  0  0  0  0  0
  -20.3909  -10.1147   30.3703 C   0  0  0  0  0  0  0  0  0  0  0  0
  -20.1105  -11.0538   31.5300 C   0  0  0  0  0  0  0  0  0  0  0  0
  -18.7146  -11.3745   31.3816 N   0  0  0  0  0  0  0  0  0  0  0  0
  -17.9592  -12.0314   32.4213 C   0  0  0  0  0  0  0  0  0  0  0  0
  -18.2766  -11.1931   30.0752 C   0  0  0  0  0  0  0  0  0  0  0  0
  -17.1793  -11.5066   29.6345 O   0  0  0  0  0  0  0  0  0  0  0  0
  -19.4314  -11.9961   27.9027 H   0  0  0  0  0  0  0  0  0  0  0  0
  -15.2782   -3.8992   25.3509 H   0  0  0  0  0  0  0  0  0  0  0  0
  -16.8120   -4.9768   23.8004 H   0  0  0  0  0  0  0  0  0  0  0  0
  -18.1751   -6.8442   24.5718 H   0  0  0  0  0  0  0  0  0  0  0  0
  -14.0259   -4.5361   31.1423 H   0  0  0  0  0  0  0  0  0  0  0  0
  -15.5785   -5.6202   29.6612 H   0  0  0  0  0  0  0  0  0  0  0  0
  -13.4496   -0.5390   24.2022 H   0  0  0  0  0  0  0  0  0  0  0  0
  -13.9757   -1.8652   25.2108 H   0  0  0  0  0  0  0  0  0  0  0  0
  -12.3010   -1.7468   24.7266 H   0  0  0  0  0  0  0  0  0  0  0  0
  -12.0645    0.3701   29.2156 H   0  0  0  0  0  0  0  0  0  0  0  0
  -17.3154   -8.4330   29.0235 H   0  0  0  0  0  0  0  0  0  0  0  0
  -21.4138  -10.1815   30.0635 H   0  0  0  0  0  0  0  0  0  0  0  0
  -20.2273   -9.0870   30.6191 H   0  0  0  0  0  0  0  0  0  0  0  0
  -20.7136  -11.9350   31.4615 H   0  0  0  0  0  0  0  0  0  0  0  0
  -20.3363  -10.6171   32.4804 H   0  0  0  0  0  0  0  0  0  0  0  0
  -18.5278  -12.0343   33.3277 H   0  0  0  0  0  0  0  0  0  0  0  0
  -17.0395  -11.5078   32.5790 H   0  0  0  0  0  0  0  0  0  0  0  0
  -17.7503  -13.0390   32.1280 H   0  0  0  0  0  0  0  0  0  0  0  0
  1  2  2  0
  2  3  1  0
  2 35  1  0
  3  4  2  0
  3 36  1  0
  4  5  1  0
  4 37  1  0
  5 21  1  0
  5  6  2  0
  6  1  1  0
  7  8  2  0
  8  9  1  0
  9 10  2  0
  9 38  1  0
 10 11  1  0
 10 39  1  0
 11  1  1  0
 11 12  2  0
 12  7  1  0
 13  7  1  0
 13 14  1  0
 15 16  1  0
 15 40  1  0
 15 41  1  0
 15 42  1  0
 16 17  2  0
 17 18  1  0
 18 19  1  0
 19 20  2  0
 19 43  1  0
 20 13  1  0
 20 16  1  0
 21 22  1  0
 22 23  2  0
 22 44  1  0
 23 26  1  0
 23 24  1  0
 24 25  1  0
 25 21  2  0
 26 27  1  6
 26 28  1  0
 27 34  1  0
 28 29  1  0
 28 45  1  0
 28 46  1  0
 29 30  1  0
 29 47  1  0
 29 48  1  0
 30 31  1  0
 30 32  1  0
 31 49  1  0
 31 50  1  0
 31 51  1  0
 32 33  2  0
 32 26  1  0
M  END
>  <minimizedAffinity>  (4) 
-10.30250

>  <mol_id>  (4) 
35616

>  <source_index>  (4) 
3

>  <layer>  (4) 
L2

>  <uniprot>  (4) 
O95819

>  <paff>  (4) 
7.3010000000000002

>  <smiles>  (4) 
Cc1nocc1Nc1nccc(-c2cccc(-c3cc([C@]4(O)CCN(C)C4=O)on3)n2)n1

$$$$
L2:O95819:48976
     RDKit          3D

 57 60  0  0  0  0  0  0  0  0999 V2000
  -18.5473   -8.1692   27.4611 C   0  0  0  0  0  0  0  0  0  0  0  0
  -17.7369   -7.0998   27.8335 C   0  0  0  0  0  0  0  0  0  0  0  0
  -16.9726   -6.4367   26.8616 C   0  0  0  0  0  0  0  0  0  0  0  0
  -16.1379   -5.3488   27.1815 C   0  0  0  0  0  0  0  0  0  0  0  0
  -15.3809   -4.6927   26.1945 C   0  0  0  0  0  0  0  0  0  0  0  0
  -15.4748   -5.1552   24.8761 C   0  0  0  0  0  0  0  0  0  0  0  0
  -14.7685   -4.5604   23.9031 F   0  0  0  0  0  0  0  0  0  0  0  0
  -16.2926   -6.2291   24.5361 C   0  0  0  0  0  0  0  0  0  0  0  0
  -17.0462   -6.8749   25.5274 C   0  0  0  0  0  0  0  0  0  0  0  0
  -17.8853   -7.9537   25.2582 C   0  0  0  0  0  0  0  0  0  0  0  0
  -18.6239   -8.5957   26.1908 N   0  0  0  0  0  0  0  0  0  0  0  0
  -14.5116   -3.5634   26.5485 C   0  0  0  0  0  0  0  0  0  0  0  0
  -13.6788   -3.6739   27.6668 C   0  0  0  0  0  0  0  0  0  0  0  0
  -12.8421   -2.7153   28.1116 N   0  0  0  0  0  0  0  0  0  0  0  0
  -12.8033   -1.5797   27.3897 C   0  0  0  0  0  0  0  0  0  0  0  0
  -13.5499   -1.3519   26.2098 C   0  0  0  0  0  0  0  0  0  0  0  0
  -14.4650   -2.3530   25.8176 C   0  0  0  0  0  0  0  0  0  0  0  0
  -15.3387   -2.1469   24.6045 C   0  0  0  0  0  0  0  0  0  0  0  0
  -13.4424   -0.1479   25.5034 N   0  0  0  0  0  0  0  0  0  0  0  0
  -12.3661    0.7319   25.9240 C   0  0  0  0  0  0  0  0  0  0  0  0
  -12.2320    0.6799   27.4436 C   0  0  0  0  0  0  0  0  0  0  0  0
  -11.9245   -0.6439   27.8923 O   0  0  0  0  0  0  0  0  0  0  0  0
  -13.7756   -0.0934   24.5505 H   0  0  0  0  0  0  0  0  0  0  0  0
  -19.0150   -9.9991   29.0374 C   0  0  0  0  0  0  0  0  0  0  0  0
  -18.1053  -10.7764   28.8004 O   0  0  0  0  0  0  0  0  0  0  0  0
  -19.2856   -8.7926   28.4661 N   0  0  0  0  0  0  0  0  0  0  0  0
  -20.1079   -8.3376   28.8261 H   0  0  0  0  0  0  0  0  0  0  0  0
  -19.9779  -10.2286   29.9761 O   0  0  0  0  0  0  0  0  0  0  0  0
  -19.8711  -11.4741   30.6882 C   0  0  0  0  0  0  0  0  0  0  0  0
  -19.0673  -11.2706   31.9670 C   0  0  0  0  0  0  0  0  0  0  0  0
  -17.9421  -12.2953   32.1509 C   0  0  2  0  0  0  0  0  0  0  0  0
  -17.7936  -12.7199   33.6108 C   0  0  0  0  0  0  0  0  0  0  0  0
  -15.8798  -12.5178   30.9600 C   0  0  0  0  0  0  0  0  0  0  0  0
  -16.7390  -11.6590   31.6974 O   0  0  0  0  0  0  0  0  0  0  0  0
  -17.6987   -6.7966   28.8192 H   0  0  0  0  0  0  0  0  0  0  0  0
  -16.0805   -5.0264   28.1602 H   0  0  0  0  0  0  0  0  0  0  0  0
  -16.3444   -6.5496   23.5565 H   0  0  0  0  0  0  0  0  0  0  0  0
  -17.9472   -8.2846   24.2826 H   0  0  0  0  0  0  0  0  0  0  0  0
  -13.7072   -4.5608   28.1938 H   0  0  0  0  0  0  0  0  0  0  0  0
  -15.1574   -1.1750   24.1953 H   0  0  0  0  0  0  0  0  0  0  0  0
  -16.3673   -2.2284   24.8878 H   0  0  0  0  0  0  0  0  0  0  0  0
  -15.1109   -2.8912   23.8703 H   0  0  0  0  0  0  0  0  0  0  0  0
  -12.5846    1.7340   25.6192 H   0  0  0  0  0  0  0  0  0  0  0  0
  -11.4489    0.4145   25.4736 H   0  0  0  0  0  0  0  0  0  0  0  0
  -13.1547    0.9926   27.8861 H   0  0  0  0  0  0  0  0  0  0  0  0
  -11.4336    1.3299   27.7352 H   0  0  0  0  0  0  0  0  0  0  0  0
  -20.8505  -11.8264   30.9365 H   0  0  0  0  0  0  0  0  0  0  0  0
  -19.3753  -12.1930   30.0700 H   0  0  0  0  0  0  0  0  0  0  0  0
  -18.6342  -10.2925   31.9429 H   0  0  0  0  0  0  0  0  0  0  0  0
  -19.7434  -11.3946   32.7870 H   0  0  0  0  0  0  0  0  0  0  0  0
  -18.1574  -13.1849   31.5967 H   0  0  0  0  0  0  0  0  0  0  0  0
  -17.5763  -11.8615   34.2115 H   0  0  0  0  0  0  0  0  0  0  0  0
  -16.9953  -13.4271   33.6971 H   0  0  0  0  0  0  0  0  0  0  0  0
  -18.7053  -13.1685   33.9463 H   0  0  0  0  0  0  0  0  0  0  0  0
  -15.0083  -11.9759   30.6570 H   0  0  0  0  0  0  0  0  0  0  0  0
  -16.3942  -12.8791   30.0941 H   0  0  0  0  0  0  0  0  0  0  0  0
  -15.5900  -13.3450   31.5737 H   0  0  0  0  0  0  0  0  0  0  0  0
  1  2  2  0
  2  3  1  0
  2 35  1  0
  3  4  2  0
  4  5  1  0
  4 36  1  0
  5 12  1  0
  5  6  2  0
  6  7  1  0
  6  8  1  0
  8  9  2  0
  8 37  1  0
  9 10  1  0
  9  3  1  0
 10 11  2  0
 10 38  1  0
 11  1  1  0
 12 13  2  0
 13 14  1  0
 13 39  1  0
 14 15  2  0
 15 16  1  0
 16 17  2  0
 16 19  1  0
 17 18  1  0
 17 12  1  0
 18 40  1  0
 18 41  1  0
 18 42  1  0
 19 20  1  0
 19 23  1  0
 20 21  1  0
 20 43  1  0
 20 44  1  0
 21 22  1  0
 21 45  1  0
 21 46  1  0
 22 15  1  0
 24 25  2  0
 24 26  1  0
 26  1  1  0
 26 27  1  0
 28 24  1  0
 29 28  1  0
 29 47  1  0
 29 48  1  0
 30 29  1  0
 30 49  1  0
 30 50  1  0
 31 32  1  0
 31 30  1  0
 31 51  1  6
 32 52  1  0
 32 53  1  0
 32 54  1  0
 33 34  1  0
 33 55  1  0
 33 56  1  0
 33 57  1  0
 34 31  1  0
M  END
>  <minimizedAffinity>  (5) 
-10.16245

>  <mol_id>  (5) 
48976

>  <source_index>  (5) 
4

>  <layer>  (5) 
L2

>  <uniprot>  (5) 
O95819

>  <paff>  (5) 
8.8239000000000001

>  <smiles>  (5) 
COC(C)CCOC(=O)Nc1cc2cc(-c3cnc4c(c3C)NCCO4)c(F)cc2cn1

$$$$
L2:O95819:51207
     RDKit          3D

 52 56  0  0  0  0  0  0  0  0999 V2000
  -15.3834   -4.7184   26.2036 C   0  0  0  0  0  0  0  0  0  0  0  0
  -16.1627   -5.3657   27.1790 C   0  0  0  0  0  0  0  0  0  0  0  0
  -16.9918   -6.4552   26.8497 C   0  0  0  0  0  0  0  0  0  0  0  0
  -17.7783   -7.1102   27.8099 C   0  0  0  0  0  0  0  0  0  0  0  0
  -18.5840   -8.1810   27.4294 C   0  0  0  0  0  0  0  0  0  0  0  0
  -18.6292   -8.6170   26.1611 N   0  0  0  0  0  0  0  0  0  0  0  0
  -17.8705   -7.9838   25.2394 C   0  0  0  0  0  0  0  0  0  0  0  0
  -17.0365   -6.9038   25.5178 C   0  0  0  0  0  0  0  0  0  0  0  0
  -16.2605   -6.2669   24.5381 C   0  0  0  0  0  0  0  0  0  0  0  0
  -15.4489   -5.1914   24.8873 C   0  0  0  0  0  0  0  0  0  0  0  0
  -14.7204   -4.6052   23.9253 F   0  0  0  0  0  0  0  0  0  0  0  0
  -15.3595   -2.1558   24.6403 C   0  0  0  0  0  0  0  0  0  0  0  0
  -14.4826   -2.3689   25.8497 C   0  0  0  0  0  0  0  0  0  0  0  0
  -14.5205   -3.5872   26.5681 C   0  0  0  0  0  0  0  0  0  0  0  0
  -13.6856   -3.7039   27.6841 C   0  0  0  0  0  0  0  0  0  0  0  0
  -12.8550   -2.7444   28.1382 N   0  0  0  0  0  0  0  0  0  0  0  0
  -12.8241   -1.6013   27.4279 C   0  0  0  0  0  0  0  0  0  0  0  0
  -13.5732   -1.3664   26.2510 C   0  0  0  0  0  0  0  0  0  0  0  0
  -13.4737   -0.1546   25.5566 N   0  0  0  0  0  0  0  0  0  0  0  0
  -12.4016    0.7269   25.9844 C   0  0  0  0  0  0  0  0  0  0  0  0
  -12.2656    0.6611   27.5033 C   0  0  0  0  0  0  0  0  0  0  0  0
  -11.9505   -0.6652   27.9393 O   0  0  0  0  0  0  0  0  0  0  0  0
  -13.8069   -0.0937   24.6040 H   0  0  0  0  0  0  0  0  0  0  0  0
  -19.3422   -8.7995   28.4322 N   0  0  0  0  0  0  0  0  0  0  0  0
  -18.9912   -9.9390   29.1171 C   0  0  0  0  0  0  0  0  0  0  0  0
  -18.0101  -10.6467   28.9357 O   0  0  0  0  0  0  0  0  0  0  0  0
  -19.9277  -10.2378   30.0881 N   0  0  0  0  0  0  0  0  0  0  0  0
  -20.2384   -8.4005   28.6451 H   0  0  0  0  0  0  0  0  0  0  0  0
  -20.6272   -9.5604   30.3407 H   0  0  0  0  0  0  0  0  0  0  0  0
  -19.7704  -11.4043   30.9226 C   0  0  0  0  0  0  0  0  0  0  0  0
  -19.0369  -11.0245   32.1682 C   0  0  0  0  0  0  0  0  0  0  0  0
  -18.7448  -12.0503   33.2348 C   0  0  0  0  0  0  0  0  0  0  0  0
  -19.7586  -10.9688   33.4900 C   0  0  0  0  0  0  0  0  0  0  0  0
  -16.1262   -5.0355   28.1561 H   0  0  0  0  0  0  0  0  0  0  0  0
  -17.7598   -6.7998   28.7939 H   0  0  0  0  0  0  0  0  0  0  0  0
  -17.9118   -8.3227   24.2655 H   0  0  0  0  0  0  0  0  0  0  0  0
  -16.2913   -6.5952   23.5602 H   0  0  0  0  0  0  0  0  0  0  0  0
  -15.9779   -3.0163   24.4921 H   0  0  0  0  0  0  0  0  0  0  0  0
  -14.7458   -2.0046   23.7769 H   0  0  0  0  0  0  0  0  0  0  0  0
  -15.9766   -1.2954   24.7943 H   0  0  0  0  0  0  0  0  0  0  0  0
  -13.7072   -4.5965   28.2015 H   0  0  0  0  0  0  0  0  0  0  0  0
  -12.6258    1.7307   25.6894 H   0  0  0  0  0  0  0  0  0  0  0  0
  -11.4832    0.4187   25.5300 H   0  0  0  0  0  0  0  0  0  0  0  0
  -13.1895    0.9646   27.9496 H   0  0  0  0  0  0  0  0  0  0  0  0
  -11.4703    1.3125   27.8001 H   0  0  0  0  0  0  0  0  0  0  0  0
  -19.2145  -12.1500   30.3936 H   0  0  0  0  0  0  0  0  0  0  0  0
  -20.7332  -11.7949   31.1783 H   0  0  0  0  0  0  0  0  0  0  0  0
  -18.4454  -10.3407   31.5960 H   0  0  0  0  0  0  0  0  0  0  0  0
  -17.8062  -12.0356   33.7484 H   0  0  0  0  0  0  0  0  0  0  0  0
  -18.7520  -13.1194   33.2783 H   0  0  0  0  0  0  0  0  0  0  0  0
  -19.5410  -10.1852   34.1854 H   0  0  0  0  0  0  0  0  0  0  0  0
  -20.7854  -10.9509   33.7904 H   0  0  0  0  0  0  0  0  0  0  0  0
  1  2  2  0
  2  3  1  0
  2 34  1  0
  3  4  2  0
  4  5  1  0
  4 35  1  0
  5 24  1  0
  5  6  2  0
  6  7  1  0
  7  8  2  0
  7 36  1  0
  8  9  1  0
  8  3  1  0
  9 10  2  0
  9 37  1  0
 10 11  1  0
 10  1  1  0
 12 13  1  0
 12 38  1  0
 12 39  1  0
 12 40  1  0
 13 14  2  0
 14  1  1  0
 14 15  1  0
 15 16  2  0
 15 41  1  0
 16 17  1  0
 17 18  2  0
 18 19  1  0
 18 13  1  0
 19 20  1  0
 19 23  1  0
 20 21  1  0
 20 42  1  0
 20 43  1  0
 21 22  1  0
 21 44  1  0
 21 45  1  0
 22 17  1  0
 24 25  1  0
 24 28  1  0
 25 26  2  0
 25 27  1  0
 27 30  1  0
 27 29  1  0
 30 31  1  0
 30 46  1  0
 30 47  1  0
 31 32  1  0
 31 48  1  0
 32 33  1  0
 32 49  1  0
 32 50  1  0
 33 31  1  0
 33 51  1  0
 33 52  1  0
M  END
>  <minimizedAffinity>  (6) 
-10.96801

>  <mol_id>  (6) 
51207

>  <source_index>  (6) 
5

>  <layer>  (6) 
L2

>  <uniprot>  (6) 
O95819

>  <paff>  (6) 
9.3010000000000002

>  <smiles>  (6) 
Cc1c(-c2cc3cc(NC(=O)NCC4CC4)ncc3cc2F)cnc2c1NCCO2

$$$$
L2:O95819:84031
     RDKit          3D

 43 45  0  0  0  0  0  0  0  0999 V2000
  -13.4493   -1.9604   25.6430 C   0  0  0  0  0  0  0  0  0  0  0  0
  -13.9115   -2.1140   24.3785 N   0  0  0  0  0  0  0  0  0  0  0  0
  -14.9048   -3.0135   24.1580 C   0  0  0  0  0  0  0  0  0  0  0  0
  -15.4827   -3.8163   25.1319 C   0  0  0  0  0  0  0  0  0  0  0  0
  -14.9563   -3.6788   26.4148 C   0  0  0  0  0  0  0  0  0  0  0  0
  -13.9148   -2.7707   26.6801 C   0  0  0  0  0  0  0  0  0  0  0  0
  -13.3477   -2.8271   28.0473 C   0  0  0  0  0  0  0  0  0  0  0  0
  -12.0530   -3.2339   28.1854 N   0  0  0  0  0  0  0  0  0  0  0  0
  -14.0408   -2.5839   29.0283 O   0  0  0  0  0  0  0  0  0  0  0  0
  -11.6630   -3.2763   29.1172 H   0  0  0  0  0  0  0  0  0  0  0  0
  -11.4464   -3.4066   27.3942 H   0  0  0  0  0  0  0  0  0  0  0  0
  -12.5088   -0.9362   25.7484 N   0  0  0  0  0  0  0  0  0  0  0  0
  -11.9515   -0.9281   24.8971 H   0  0  0  0  0  0  0  0  0  0  0  0
  -13.9029    3.7947   25.6113 C   0  0  0  0  0  0  0  0  0  0  0  0
  -13.2309    2.6633   26.3304 C   0  0  0  0  0  0  0  0  0  0  0  0
  -12.5953    2.8783   27.5548 C   0  0  0  0  0  0  0  0  0  0  0  0
  -11.9510    1.8239   28.1906 C   0  0  0  0  0  0  0  0  0  0  0  0
  -11.3586    2.0364   29.3733 F   0  0  0  0  0  0  0  0  0  0  0  0
  -11.9122    0.5524   27.6257 C   0  0  0  0  0  0  0  0  0  0  0  0
  -12.5278    0.3130   26.3953 C   0  0  0  0  0  0  0  0  0  0  0  0
  -13.1800    1.3830   25.7565 C   0  0  0  0  0  0  0  0  0  0  0  0
  -16.5428   -4.7045   24.9063 N   0  0  0  0  0  0  0  0  0  0  0  0
  -17.0502   -4.5388   24.0423 H   0  0  0  0  0  0  0  0  0  0  0  0
  -17.0234   -5.7980   25.6465 C   0  0  0  0  0  0  0  0  0  0  0  0
  -16.7455   -5.9807   27.0062 C   0  0  0  0  0  0  0  0  0  0  0  0
  -17.2780   -7.0658   27.7130 C   0  0  0  0  0  0  0  0  0  0  0  0
  -18.1071   -7.9852   27.0675 C   0  0  0  0  0  0  0  0  0  0  0  0
  -18.3971   -7.8144   25.7126 C   0  0  0  0  0  0  0  0  0  0  0  0
  -17.8596   -6.7285   25.0122 C   0  0  0  0  0  0  0  0  0  0  0  0
  -18.6551   -9.0959   27.7894 C   0  0  0  0  0  0  0  0  0  0  0  0
  -19.0974   -9.9964   28.3727 N   0  0  0  0  0  0  0  0  0  0  0  0
  -15.2569   -3.1074   23.1925 H   0  0  0  0  0  0  0  0  0  0  0  0
  -15.3368   -4.2528   27.1834 H   0  0  0  0  0  0  0  0  0  0  0  0
  -13.8384    4.6828   26.2046 H   0  0  0  0  0  0  0  0  0  0  0  0
  -14.9314    3.5508   25.4449 H   0  0  0  0  0  0  0  0  0  0  0  0
  -13.4184    3.9577   24.6713 H   0  0  0  0  0  0  0  0  0  0  0  0
  -12.6039    3.8160   27.9857 H   0  0  0  0  0  0  0  0  0  0  0  0
  -11.4276   -0.2149   28.1171 H   0  0  0  0  0  0  0  0  0  0  0  0
  -13.6325    1.2229   24.8429 H   0  0  0  0  0  0  0  0  0  0  0  0
  -16.1384   -5.3048   27.4956 H   0  0  0  0  0  0  0  0  0  0  0  0
  -17.0570   -7.1863   28.7138 H   0  0  0  0  0  0  0  0  0  0  0  0
  -19.0083   -8.4895   25.2271 H   0  0  0  0  0  0  0  0  0  0  0  0
  -18.0824   -6.6103   24.0115 H   0  0  0  0  0  0  0  0  0  0  0  0
  1  2  2  0
  2  3  1  0
  3  4  2  0
  3 32  1  0
  4 22  1  0
  4  5  1  0
  5  6  2  0
  5 33  1  0
  6  7  1  0
  6  1  1  0
  7  8  1  0
  7  9  2  0
  8 10  1  0
  8 11  1  0
 12  1  1  0
 12 13  1  0
 14 15  1  0
 14 34  1  0
 14 35  1  0
 14 36  1  0
 15 16  2  0
 16 17  1  0
 16 37  1  0
 17 18  1  0
 17 19  2  0
 19 20  1  0
 19 38  1  0
 20 12  1  0
 20 21  2  0
 21 15  1  0
 21 39  1  0
 22 24  1  0
 22 23  1  0
 24 25  2  0
 25 26  1  0
 25 40  1  0
 26 27  2  0
 26 41  1  0
 27 30  1  0
 27 28  1  0
 28 29  2  0
 28 42  1  0
 29 24  1  0
 29 43  1  0
 30 31  3  0
M  END
>  <minimizedAffinity>  (7) 
-8.66364

>  <mol_id>  (7) 
84031

>  <source_index>  (7) 
6

>  <layer>  (7) 
L2

>  <uniprot>  (7) 
O95819

>  <paff>  (7) 
6.3564999999999996

>  <smiles>  (7) 
Cc1cc(F)cc(Nc2ncc(Nc3ccc(C#N)cc3)cc2C(N)=O)c1

$$$$
L2:O95819:99264
     RDKit          3D

 63 68  0  0  0  0  0  0  0  0999 V2000
  -24.4594  -12.9296   22.6566 C   0  0  0  0  0  0  0  0  0  0  0  0
  -23.1568  -13.3411   22.9036 C   0  0  0  0  0  0  0  0  0  0  0  0
  -22.4551  -14.0359   21.9073 C   0  0  0  0  0  0  0  0  0  0  0  0
  -21.1323  -14.4778   22.1004 C   0  0  0  0  0  0  0  0  0  0  0  0
  -20.4342  -15.1678   21.0930 C   0  0  0  0  0  0  0  0  0  0  0  0
  -21.1009  -15.4173   19.8872 C   0  0  0  0  0  0  0  0  0  0  0  0
  -20.4793  -16.0784   18.8993 F   0  0  0  0  0  0  0  0  0  0  0  0
  -22.4097  -14.9925   19.6732 C   0  0  0  0  0  0  0  0  0  0  0  0
  -23.0933  -14.2980   20.6820 C   0  0  0  0  0  0  0  0  0  0  0  0
  -24.4025  -13.8432   20.5360 C   0  0  0  0  0  0  0  0  0  0  0  0
  -25.0896  -13.1712   21.4889 N   0  0  0  0  0  0  0  0  0  0  0  0
  -19.0544  -15.6247   21.3143 C   0  0  0  0  0  0  0  0  0  0  0  0
  -18.8313  -16.7540   22.1094 C   0  0  0  0  0  0  0  0  0  0  0  0
  -17.6210  -17.2618   22.4193 N   0  0  0  0  0  0  0  0  0  0  0  0
  -16.5571  -16.6093   21.9161 C   0  0  0  0  0  0  0  0  0  0  0  0
  -16.6321  -15.4364   21.1285 C   0  0  0  0  0  0  0  0  0  0  0  0
  -17.9184  -14.9711   20.7788 C   0  0  0  0  0  0  0  0  0  0  0  0
  -18.0693  -13.7708   19.8765 C   0  0  0  0  0  0  0  0  0  0  0  0
  -15.4759  -14.8056   20.6554 N   0  0  0  0  0  0  0  0  0  0  0  0
  -14.2214  -15.2994   21.1949 C   0  0  0  0  0  0  0  0  0  0  0  0
  -14.3023  -16.8137   21.3677 C   0  0  0  0  0  0  0  0  0  0  0  0
  -15.3511  -17.1752   22.2720 O   0  0  0  0  0  0  0  0  0  0  0  0
  -15.5216  -13.8616   20.2979 H   0  0  0  0  0  0  0  0  0  0  0  0
  -25.1459  -10.9238   23.9544 C   0  0  0  0  0  0  0  0  0  0  0  0
  -24.3295  -10.0960   23.5797 O   0  0  0  0  0  0  0  0  0  0  0  0
  -25.2486  -12.2328   23.5699 N   0  0  0  0  0  0  0  0  0  0  0  0
  -25.9761  -12.8096   23.9696 H   0  0  0  0  0  0  0  0  0  0  0  0
  -27.2040  -11.5445   25.4107 C   0  0  1  0  0  0  0  0  0  0  0  0
  -26.1653  -10.5361   24.9657 C   0  0  1  0  0  0  0  0  0  0  0  0
  -26.1086  -11.1249   26.3620 C   0  0  1  0  0  0  0  0  0  0  0  0
  -26.3918  -10.2203   27.5752 C   0  0  0  0  0  0  0  0  0  0  0  0
  -26.2205   -8.8325   27.6785 C   0  0  0  0  0  0  0  0  0  0  0  0
  -26.5451   -8.3832   28.8944 N   0  0  0  0  0  0  0  0  0  0  0  0
  -26.9155   -9.4967   29.5588 N   0  0  0  0  0  0  0  0  0  0  0  0
  -27.3410   -9.3942   30.9332 C   0  0  0  0  0  0  0  0  0  0  0  0
  -26.8274  -10.6334   28.8077 C   0  0  0  0  0  0  0  0  0  0  0  0
  -29.4363  -11.4443   24.2919 C   0  0  0  0  0  0  0  0  0  0  0  0
  -28.6326  -11.1054   25.5370 C   0  0  0  0  0  0  0  0  0  0  0  0
  -22.7092  -13.1379   23.8110 H   0  0  0  0  0  0  0  0  0  0  0  0
  -20.6645  -14.2913   23.0012 H   0  0  0  0  0  0  0  0  0  0  0  0
  -22.8760  -15.1884   18.7736 H   0  0  0  0  0  0  0  0  0  0  0  0
  -24.8803  -14.0315   19.6409 H   0  0  0  0  0  0  0  0  0  0  0  0
  -19.6600  -17.2376   22.4895 H   0  0  0  0  0  0  0  0  0  0  0  0
  -17.1016  -13.4242   19.5792 H   0  0  0  0  0  0  0  0  0  0  0  0
  -18.5814  -12.9919   20.4018 H   0  0  0  0  0  0  0  0  0  0  0  0
  -18.6319  -14.0454   19.0087 H   0  0  0  0  0  0  0  0  0  0  0  0
  -14.0367  -14.8415   22.1442 H   0  0  0  0  0  0  0  0  0  0  0  0
  -13.4249  -15.0595   20.5219 H   0  0  0  0  0  0  0  0  0  0  0  0
  -13.3704  -17.1715   21.7529 H   0  0  0  0  0  0  0  0  0  0  0  0
  -14.5097  -17.2533   20.4145 H   0  0  0  0  0  0  0  0  0  0  0  0
  -27.5586  -12.5003   25.0858 H   0  0  0  0  0  0  0  0  0  0  0  0
  -26.1931   -9.5453   24.5628 H   0  0  0  0  0  0  0  0  0  0  0  0
  -25.3860  -11.6577   26.9442 H   0  0  0  0  0  0  0  0  0  0  0  0
  -25.8848   -8.2316   26.9096 H   0  0  0  0  0  0  0  0  0  0  0  0
  -27.3032   -8.3707   31.2429 H   0  0  0  0  0  0  0  0  0  0  0  0
  -26.6922   -9.9783   31.5519 H   0  0  0  0  0  0  0  0  0  0  0  0
  -28.3433   -9.7576   31.0243 H   0  0  0  0  0  0  0  0  0  0  0  0
  -27.0428  -11.5980   29.1045 H   0  0  0  0  0  0  0  0  0  0  0  0
  -30.4469  -11.1166   24.4196 H   0  0  0  0  0  0  0  0  0  0  0  0
  -29.4216  -12.5026   24.1350 H   0  0  0  0  0  0  0  0  0  0  0  0
  -29.0061  -10.9522   23.4448 H   0  0  0  0  0  0  0  0  0  0  0  0
  -29.0735  -11.5970   26.3789 H   0  0  0  0  0  0  0  0  0  0  0  0
  -28.6454  -10.0430   25.6638 H   0  0  0  0  0  0  0  0  0  0  0  0
  1  2  2  0
  2  3  1  0
  2 39  1  0
  3  4  2  0
  4  5  1  0
  4 40  1  0
  5 12  1  0
  5  6  2  0
  6  7  1  0
  6  8  1  0
  8  9  2  0
  8 41  1  0
  9 10  1  0
  9  3  1  0
 10 11  2  0
 10 42  1  0
 11  1  1  0
 12 13  2  0
 13 14  1  0
 13 43  1  0
 14 15  2  0
 15 16  1  0
 16 17  2  0
 16 19  1  0
 17 18  1  0
 17 12  1  0
 18 44  1  0
 18 45  1  0
 18 46  1  0
 19 20  1  0
 19 23  1  0
 20 21  1  0
 20 47  1  0
 20 48  1  0
 21 22  1  0
 21 49  1  0
 21 50  1  0
 22 15  1  0
 24 25  2  0
 24 26  1  0
 26  1  1  0
 26 27  1  0
 28 29  1  0
 28 51  1  6
 29 24  1  0
 29 30  1  0
 29 52  1  1
 30 31  1  0
 30 28  1  0
 30 53  1  1
 31 32  1  0
 32 33  2  0
 32 54  1  0
 33 34  1  0
 34 35  1  0
 34 36  1  0
 35 55  1  0
 35 56  1  0
 35 57  1  0
 36 31  2  0
 36 58  1  0
 37 38  1  0
 37 59  1  0
 37 60  1  0
 37 61  1  0
 38 28  1  0
 38 62  1  0
 38 63  1  0
M  END
>  <minimizedAffinity>  (8) 
-6.75970

>  <mol_id>  (8) 
99264

>  <source_index>  (8) 
7

>  <layer>  (8) 
L2

>  <uniprot>  (8) 
O95819

>  <paff>  (8) 
8.0968999999999998

>  <smiles>  (8) 
CC[C@H]1[C@H](C(=O)Nc2cc3cc(-c4cnc5c(c4C)NCCO5)c(F)cc3cn2)[C@H]1c1cnn(C)c1

$$$$
L2:O95819:104627
     RDKit          3D

 42 44  0  0  0  0  0  0  0  0999 V2000
  -17.2768   -6.8019   25.4737 C   0  0  0  0  0  0  0  0  0  0  0  0
  -16.3001   -5.7761   25.6544 C   0  0  0  0  0  0  0  0  0  0  0  0
  -16.0124   -5.5180   26.9817 C   0  0  0  0  0  0  0  0  0  0  0  0
  -16.9450   -6.5221   28.0067 S   0  0  0  0  0  0  0  0  0  0  0  0
  -17.7145   -7.3040   26.6911 C   0  0  0  0  0  0  0  0  0  0  0  0
  -18.0255   -7.5943   22.0331 N   0  0  0  0  0  0  0  0  0  0  0  0
  -17.3514   -6.9358   23.0157 C   0  0  0  0  0  0  0  0  0  0  0  0
  -16.4792   -6.1306   22.7196 O   0  0  0  0  0  0  0  0  0  0  0  0
  -17.7743   -7.2890   24.2670 N   0  0  0  0  0  0  0  0  0  0  0  0
  -17.7688   -7.3860   21.0780 H   0  0  0  0  0  0  0  0  0  0  0  0
  -18.7479   -8.2730   22.2123 H   0  0  0  0  0  0  0  0  0  0  0  0
  -18.5287   -7.9649   24.3415 H   0  0  0  0  0  0  0  0  0  0  0  0
  -15.0846   -4.5237   27.5407 C   0  0  0  0  0  0  0  0  0  0  0  0
  -14.4689   -3.5864   26.6927 C   0  0  0  0  0  0  0  0  0  0  0  0
  -13.5763   -2.6343   27.1965 C   0  0  0  0  0  0  0  0  0  0  0  0
  -13.2844   -2.6104   28.5570 C   0  0  0  0  0  0  0  0  0  0  0  0
  -13.8847   -3.5385   29.3985 C   0  0  0  0  0  0  0  0  0  0  0  0
  -13.5999   -3.5198   30.7074 F   0  0  0  0  0  0  0  0  0  0  0  0
  -14.7745   -4.4899   28.9072 C   0  0  0  0  0  0  0  0  0  0  0  0
  -18.7026   -8.3594   26.8979 C   0  0  0  0  0  0  0  0  0  0  0  0
  -19.6350   -8.5445   26.1144 O   0  0  0  0  0  0  0  0  0  0  0  0
  -18.5336   -9.1391   28.0190 N   0  0  0  0  0  0  0  0  0  0  0  0
  -17.7290   -8.9659   28.6067 H   0  0  0  0  0  0  0  0  0  0  0  0
  -19.3871  -10.2571   28.3387 C   0  0  0  0  0  0  0  0  0  0  0  0
  -19.1450  -10.7161   29.7521 C   0  0  0  0  0  0  0  0  0  0  0  0
  -18.0266  -11.4986   30.0717 C   0  0  0  0  0  0  0  0  0  0  0  0
  -17.8230  -11.9389   31.3809 C   0  0  0  0  0  0  0  0  0  0  0  0
  -18.7368  -11.6075   32.3797 C   0  0  0  0  0  0  0  0  0  0  0  0
  -19.8568  -10.8377   32.0716 C   0  0  0  0  0  0  0  0  0  0  0  0
  -20.0621  -10.3960   30.7639 C   0  0  0  0  0  0  0  0  0  0  0  0
  -15.8525   -5.2760   24.8704 H   0  0  0  0  0  0  0  0  0  0  0  0
  -14.6788   -3.6010   25.6824 H   0  0  0  0  0  0  0  0  0  0  0  0
  -13.1354   -1.9513   26.5608 H   0  0  0  0  0  0  0  0  0  0  0  0
  -12.6285   -1.9101   28.9370 H   0  0  0  0  0  0  0  0  0  0  0  0
  -15.2066   -5.1716   29.5504 H   0  0  0  0  0  0  0  0  0  0  0  0
  -19.1792  -11.0628   27.6660 H   0  0  0  0  0  0  0  0  0  0  0  0
  -20.4083   -9.9521   28.2433 H   0  0  0  0  0  0  0  0  0  0  0  0
  -17.3496  -11.7507   29.3347 H   0  0  0  0  0  0  0  0  0  0  0  0
  -16.9947  -12.5105   31.6094 H   0  0  0  0  0  0  0  0  0  0  0  0
  -18.5840  -11.9322   33.3473 H   0  0  0  0  0  0  0  0  0  0  0  0
  -20.5346  -10.5942   32.8107 H   0  0  0  0  0  0  0  0  0  0  0  0
  -20.8950   -9.8295   30.5396 H   0  0  0  0  0  0  0  0  0  0  0  0
  1  2  1  0
  2  3  2  0
  2 31  1  0
  3 13  1  0
  3  4  1  0
  4  5  1  0
  5 20  1  0
  5  1  2  0
  6  7  1  0
  6 10  1  0
  6 11  1  0
  7  8  2  0
  7  9  1  0
  9  1  1  0
  9 12  1  0
 13 14  2  0
 14 15  1  0
 14 32  1  0
 15 16  2  0
 15 33  1  0
 16 17  1  0
 16 34  1  0
 17 18  1  0
 17 19  2  0
 19 13  1  0
 19 35  1  0
 20 21  2  0
 20 22  1  0
 22 24  1  0
 22 23  1  0
 24 25  1  0
 24 36  1  0
 24 37  1  0
 25 26  2  0
 26 27  1  0
 26 38  1  0
 27 28  2  0
 27 39  1  0
 28 29  1  0
 28 40  1  0
 29 30  2  0
 29 41  1  0
 30 25  1  0
 30 42  1  0
M  END
>  <minimizedAffinity>  (9) 
-10.30710

>  <mol_id>  (9) 
104627

>  <source_index>  (9) 
8

>  <layer>  (9) 
L2

>  <uniprot>  (9) 
O95819

>  <paff>  (9) 
6.0506000000000002

>  <smiles>  (9) 
NC(=O)Nc1cc(-c2cccc(F)c2)sc1C(=O)NCc1ccccc1

$$$$
L2:O95819:140980
     RDKit          3D

 51 55  0  0  0  0  0  0  0  0999 V2000
  -14.6508   -3.3434   27.3645 C   0  0  0  0  0  0  0  0  0  0  0  0
  -14.1507   -2.5791   26.2950 C   0  0  0  0  0  0  0  0  0  0  0  0
  -13.3131   -1.4691   26.5166 C   0  0  0  0  0  0  0  0  0  0  0  0
  -12.8031   -0.6976   25.4608 C   0  0  0  0  0  0  0  0  0  0  0  0
  -11.9762    0.3893   25.7360 C   0  0  0  0  0  0  0  0  0  0  0  0
  -11.6496    0.7294   26.9919 N   0  0  0  0  0  0  0  0  0  0  0  0
  -12.1430   -0.0151   28.0060 C   0  0  0  0  0  0  0  0  0  0  0  0
  -12.9742   -1.1194   27.8357 C   0  0  0  0  0  0  0  0  0  0  0  0
  -13.4704   -1.8733   28.9095 C   0  0  0  0  0  0  0  0  0  0  0  0
  -14.2965   -2.9668   28.6658 C   0  0  0  0  0  0  0  0  0  0  0  0
  -14.7529   -3.6660   29.7157 F   0  0  0  0  0  0  0  0  0  0  0  0
  -16.2996   -3.5827   24.8671 C   0  0  0  0  0  0  0  0  0  0  0  0
  -16.3136   -4.6386   25.9451 C   0  0  0  0  0  0  0  0  0  0  0  0
  -15.5280   -4.4940   27.1129 C   0  0  0  0  0  0  0  0  0  0  0  0
  -15.6037   -5.5105   28.0706 C   0  0  0  0  0  0  0  0  0  0  0  0
  -16.3745   -6.6124   27.9766 N   0  0  0  0  0  0  0  0  0  0  0  0
  -17.0990   -6.7355   26.8488 C   0  0  0  0  0  0  0  0  0  0  0  0
  -17.0785   -5.8133   25.7762 C   0  0  0  0  0  0  0  0  0  0  0  0
  -17.8492   -6.0202   24.6257 N   0  0  0  0  0  0  0  0  0  0  0  0
  -18.4697   -7.3287   24.5140 C   0  0  0  0  0  0  0  0  0  0  0  0
  -18.9486   -7.7827   25.8903 C   0  0  0  0  0  0  0  0  0  0  0  0
  -17.8580   -7.8857   26.8115 O   0  0  0  0  0  0  0  0  0  0  0  0
  -17.6383   -5.5051   23.7816 H   0  0  0  0  0  0  0  0  0  0  0  0
  -11.4996    1.1258   24.6424 N   0  0  0  0  0  0  0  0  0  0  0  0
  -12.2007    2.0989   23.9680 C   0  0  0  0  0  0  0  0  0  0  0  0
  -13.3241    2.5172   24.2129 O   0  0  0  0  0  0  0  0  0  0  0  0
  -11.4657    2.6041   22.9090 N   0  0  0  0  0  0  0  0  0  0  0  0
  -10.5609    0.9376   24.3410 H   0  0  0  0  0  0  0  0  0  0  0  0
  -10.5607    2.2098   22.7103 H   0  0  0  0  0  0  0  0  0  0  0  0
  -12.0111    3.6829   22.0411 C   0  0  0  0  0  0  0  0  0  0  0  0
  -12.8126    3.1900   20.8152 C   0  0  0  0  0  0  0  0  0  0  0  0
  -11.5581    3.2293   20.0175 N   0  0  0  0  0  0  0  0  0  0  0  0
  -11.0182    4.2144   20.9849 C   0  0  0  0  0  0  0  0  0  0  0  0
  -11.0692    2.3343   20.0317 H   0  0  0  0  0  0  0  0  0  0  0  0
  -14.4028   -2.8371   25.3281 H   0  0  0  0  0  0  0  0  0  0  0  0
  -13.0397   -0.9345   24.4846 H   0  0  0  0  0  0  0  0  0  0  0  0
  -11.8872    0.2521   28.9694 H   0  0  0  0  0  0  0  0  0  0  0  0
  -13.2235   -1.6177   29.8784 H   0  0  0  0  0  0  0  0  0  0  0  0
  -15.6699   -2.7723   25.1698 H   0  0  0  0  0  0  0  0  0  0  0  0
  -17.2943   -3.2216   24.7086 H   0  0  0  0  0  0  0  0  0  0  0  0
  -15.9247   -4.0055   23.9585 H   0  0  0  0  0  0  0  0  0  0  0  0
  -15.0227   -5.4088   28.9174 H   0  0  0  0  0  0  0  0  0  0  0  0
  -17.7566   -8.0306   24.1348 H   0  0  0  0  0  0  0  0  0  0  0  0
  -19.3039   -7.2725   23.8463 H   0  0  0  0  0  0  0  0  0  0  0  0
  -19.4186   -8.7395   25.7979 H   0  0  0  0  0  0  0  0  0  0  0  0
  -19.6398   -7.0565   26.2643 H   0  0  0  0  0  0  0  0  0  0  0  0
  -12.4358    4.2881   22.8146 H   0  0  0  0  0  0  0  0  0  0  0  0
  -13.5695    3.8685   20.4810 H   0  0  0  0  0  0  0  0  0  0  0  0
  -13.4066    2.3015   20.8655 H   0  0  0  0  0  0  0  0  0  0  0  0
  -11.1753    5.2358   20.7074 H   0  0  0  0  0  0  0  0  0  0  0  0
   -9.9696    4.2636   21.1919 H   0  0  0  0  0  0  0  0  0  0  0  0
  1  2  2  0
  2  3  1  0
  2 35  1  0
  3  4  2  0
  4  5  1  0
  4 36  1  0
  5 24  1  0
  5  6  2  0
  6  7  1  0
  7  8  2  0
  7 37  1  0
  8  9  1  0
  8  3  1  0
  9 10  2  0
  9 38  1  0
 10 11  1  0
 10  1  1  0
 12 13  1  0
 12 39  1  0
 12 40  1  0
 12 41  1  0
 13 14  2  0
 14  1  1  0
 14 15  1  0
 15 16  2  0
 15 42  1  0
 16 17  1  0
 17 18  2  0
 18 19  1  0
 18 13  1  0
 19 20  1  0
 19 23  1  0
 20 21  1  0
 20 43  1  0
 20 44  1  0
 21 22  1  0
 21 45  1  0
 21 46  1  0
 22 17  1  0
 24 25  1  0
 24 28  1  0
 25 26  2  0
 25 27  1  0
 27 30  1  0
 27 29  1  0
 30 31  1  0
 30 47  1  0
 31 32  1  0
 31 48  1  0
 31 49  1  0
 32 33  1  0
 32 34  1  0
 33 30  1  0
 33 50  1  0
 33 51  1  0
M  END
>  <minimizedAffinity>  (10) 
-10.21651

>  <mol_id>  (10) 
140980

>  <source_index>  (10) 
9

>  <layer>  (10) 
L2

>  <uniprot>  (10) 
O95819

>  <paff>  (10) 
9.1191999999999993

>  <smiles>  (10) 
Cc1c(-c2cc3cc(NC(=O)NC4CNC4)ncc3cc2F)cnc2c1NCCO2

$$$$
