L1:P06239:15824
     RDKit          3D

 58 62  0  0  0  0  0  0  0  0999 V2000
   25.8734   41.9005   86.7530 C   0  0  0  0  0  0  0  0  0  0  0  0
   26.4276   43.1588   86.4891 C   0  0  0  0  0  0  0  0  0  0  0  0
   27.4599   43.2863   85.5561 C   0  0  0  0  0  0  0  0  0  0  0  0
   27.9581   42.1571   84.8994 C   0  0  0  0  0  0  0  0  0  0  0  0
   27.4198   40.9001   85.1735 C   0  0  0  0  0  0  0  0  0  0  0  0
   26.3716   40.7786   86.0885 C   0  0  0  0  0  0  0  0  0  0  0  0
   25.8887   39.5530   86.3603 F   0  0  0  0  0  0  0  0  0  0  0  0
   24.0904   41.6389   89.8451 C   0  0  0  0  0  0  0  0  0  0  0  0
   25.1571   41.8345   89.0959 N   0  0  0  0  0  0  0  0  0  0  0  0
   24.8396   41.7575   87.7536 C   0  0  0  0  0  0  0  0  0  0  0  0
   23.5029   41.5772   87.4648 C   0  0  0  0  0  0  0  0  0  0  0  0
   22.6301   41.4294   88.9285 S   0  0  0  0  0  0  0  0  0  0  0  0
   22.8108   41.5055   86.1897 C   0  0  0  0  0  0  0  0  0  0  0  0
   22.8968   42.5225   85.2654 C   0  0  0  0  0  0  0  0  0  0  0  0
   22.2265   42.2959   84.0924 C   0  0  0  0  0  0  0  0  0  0  0  0
   21.5273   41.1739   83.8465 N   0  0  0  0  0  0  0  0  0  0  0  0
   21.4889   40.2428   84.8142 C   0  0  0  0  0  0  0  0  0  0  0  0
   22.1274   40.3618   85.9850 N   0  0  0  0  0  0  0  0  0  0  0  0
   20.7646   39.0618   84.6339 N   0  0  0  0  0  0  0  0  0  0  0  0
   20.0801   39.2434   83.9059 H   0  0  0  0  0  0  0  0  0  0  0  0
   20.3855   38.2621   85.7912 C   0  0  0  0  0  0  0  0  0  0  0  0
   21.0360   36.9362   86.0649 C   0  0  0  0  0  0  0  0  0  0  0  0
   19.6079   36.9891   85.6038 C   0  0  0  0  0  0  0  0  0  0  0  0
   24.3379   40.3435   91.8504 C   0  0  0  0  0  0  0  0  0  0  0  0
   24.1258   41.6391   91.2145 N   0  0  0  0  0  0  0  0  0  0  0  0
   23.2801   42.5745   91.9472 C   0  0  0  0  0  0  0  0  0  0  0  0
   28.0030   39.7141   84.6201 N   0  0  0  0  0  0  0  0  0  0  0  0
   28.9402   39.4830   84.9616 H   0  0  0  0  0  0  0  0  0  0  0  0
   27.9407   39.5395   82.9278 S   0  0  0  0  0  0  0  0  0  0  0  0
   29.2875   39.2992   82.4544 O   0  0  0  0  0  0  0  0  0  0  0  0
   27.1827   40.6663   82.4230 O   0  0  0  0  0  0  0  0  0  0  0  0
   26.9697   38.0987   82.6951 C   0  0  0  0  0  0  0  0  0  0  0  0
   27.5586   36.9840   82.1091 C   0  0  0  0  0  0  0  0  0  0  0  0
   28.8361   37.0092   81.7059 F   0  0  0  0  0  0  0  0  0  0  0  0
   26.8180   35.8260   81.8808 C   0  0  0  0  0  0  0  0  0  0  0  0
   25.4720   35.7824   82.2468 C   0  0  0  0  0  0  0  0  0  0  0  0
   24.8829   36.9000   82.8382 C   0  0  0  0  0  0  0  0  0  0  0  0
   23.2183   36.8329   83.2750 Cl  0  0  0  0  0  0  0  0  0  0  0  0
   25.6317   38.0579   83.0672 C   0  0  0  0  0  0  0  0  0  0  0  0
   25.0316   39.1170   83.6255 F   0  0  0  0  0  0  0  0  0  0  0  0
   26.0736   43.9924   86.9838 H   0  0  0  0  0  0  0  0  0  0  0  0
   27.8559   44.2170   85.3511 H   0  0  0  0  0  0  0  0  0  0  0  0
   28.7228   42.2535   84.2131 H   0  0  0  0  0  0  0  0  0  0  0  0
   23.4264   43.3902   85.4430 H   0  0  0  0  0  0  0  0  0  0  0  0
   22.2598   43.0228   83.3606 H   0  0  0  0  0  0  0  0  0  0  0  0
   20.2512   39.1626   86.3532 H   0  0  0  0  0  0  0  0  0  0  0  0
   21.2631   36.6493   87.0704 H   0  0  0  0  0  0  0  0  0  0  0  0
   21.9230   36.4443   85.7240 H   0  0  0  0  0  0  0  0  0  0  0  0
   18.8175   36.7403   86.2808 H   0  0  0  0  0  0  0  0  0  0  0  0
   19.0560   36.5511   84.7986 H   0  0  0  0  0  0  0  0  0  0  0  0
   24.3470   40.4652   92.9134 H   0  0  0  0  0  0  0  0  0  0  0  0
   25.2747   39.9379   91.5298 H   0  0  0  0  0  0  0  0  0  0  0  0
   23.5476   39.6771   91.5745 H   0  0  0  0  0  0  0  0  0  0  0  0
   23.4296   42.4423   92.9984 H   0  0  0  0  0  0  0  0  0  0  0  0
   22.2537   42.3908   91.7070 H   0  0  0  0  0  0  0  0  0  0  0  0
   23.5365   43.5767   91.6737 H   0  0  0  0  0  0  0  0  0  0  0  0
   27.2629   35.0042   81.4430 H   0  0  0  0  0  0  0  0  0  0  0  0
   24.9161   34.9289   82.0810 H   0  0  0  0  0  0  0  0  0  0  0  0
  1  2  2  0
  2  3  1  0
  2 41  1  0
  3  4  2  0
  3 42  1  0
  4  5  1  0
  4 43  1  0
  5 27  1  0
  5  6  2  0
  6  7  1  0
  6  1  1  0
  8  9  2  0
  9 10  1  0
 10  1  1  0
 10 11  2  0
 11 13  1  0
 11 12  1  0
 12  8  1  0
 13 14  2  0
 14 15  1  0
 14 44  1  0
 15 16  2  0
 15 45  1  0
 16 17  1  0
 17 19  1  0
 17 18  2  0
 18 13  1  0
 19 21  1  0
 19 20  1  0
 21 22  1  0
 21 46  1  0
 22 23  1  0
 22 47  1  0
 22 48  1  0
 23 21  1  0
 23 49  1  0
 23 50  1  0
 24 25  1  0
 24 51  1  0
 24 52  1  0
 24 53  1  0
 25 26  1  0
 25  8  1  0
 26 54  1  0
 26 55  1  0
 26 56  1  0
 27 29  1  0
 27 28  1  0
 29 30  2  0
 29 31  2  0
 29 32  1  0
 32 33  2  0
 33 34  1  0
 33 35  1  0
 35 36  2  0
 35 57  1  0
 36 37  1  0
 36 58  1  0
 37 38  1  0
 37 39  2  0
 39 40  1  0
 39 32  1  0
M  END
>  <minimizedAffinity>  (1) 
-7.82404

>  <mol_id>  (1) 
15824

>  <source_index>  (1) 
0

>  <layer>  (1) 
L1

>  <uniprot>  (1) 
P06239

>  <paff>  (1) 
6

>  <smiles>  (1) 
CN(C)c1nc(-c2cccc(NS(=O)(=O)c3c(F)ccc(Cl)c3F)c2F)c(-c2ccnc(NC3CC3)n2)s1

$$$$
L1:P06239:16292
     RDKit          3D

 58 62  0  0  0  0  0  0  0  0999 V2000
   26.0369   42.6286   85.2711 N   0  0  0  0  0  0  0  0  0  0  0  0
   24.9030   41.8891   85.2160 N   0  0  0  0  0  0  0  0  0  0  0  0
   25.1741   40.9155   84.3302 C   0  0  0  0  0  0  0  0  0  0  0  0
   26.4615   41.0939   83.7461 C   0  0  0  0  0  0  0  0  0  0  0  0
   27.2599   40.4937   82.7615 C   0  0  0  0  0  0  0  0  0  0  0  0
   26.8891   39.4062   81.9878 N   0  0  0  0  0  0  0  0  0  0  0  0
   28.4807   41.0101   82.5093 N   0  0  0  0  0  0  0  0  0  0  0  0
   28.8787   42.0852   83.2117 C   0  0  0  0  0  0  0  0  0  0  0  0
   28.1988   42.7494   84.1602 N   0  0  0  0  0  0  0  0  0  0  0  0
   26.9899   42.2063   84.3847 C   0  0  0  0  0  0  0  0  0  0  0  0
   27.4768   39.3252   81.1657 H   0  0  0  0  0  0  0  0  0  0  0  0
   25.8927   39.2796   81.8448 H   0  0  0  0  0  0  0  0  0  0  0  0
   23.1556   42.9238   88.4999 C   0  0  0  0  0  0  0  0  0  0  0  0
   22.2132   43.5717   88.0540 O   0  0  0  0  0  0  0  0  0  0  0  0
   24.4632   43.0614   88.0448 N   0  0  0  0  0  0  0  0  0  0  0  0
   25.5945   42.3417   88.6101 C   0  0  0  0  0  0  0  0  0  0  0  0
   26.8768   43.1634   88.5725 C   0  0  0  0  0  0  0  0  0  0  0  0
   27.1930   43.8146   87.2206 C   0  0  0  0  0  0  0  0  0  0  0  0
   26.0480   43.7578   86.1973 C   0  0  2  0  0  0  0  0  0  0  0  0
   24.6895   43.9337   86.8934 C   0  0  0  0  0  0  0  0  0  0  0  0
   22.3323   40.2440   91.5090 C   0  0  0  0  0  0  0  0  0  0  0  0
   22.6381   41.1854   90.4323 C   0  0  0  0  0  0  0  0  0  0  0  0
   22.8812   41.9681   89.5535 C   0  0  0  0  0  0  0  0  0  0  0  0
   24.1844   39.8737   84.0657 C   0  0  0  0  0  0  0  0  0  0  0  0
   24.4973   38.5209   84.2515 C   0  0  0  0  0  0  0  0  0  0  0  0
   23.5462   37.5313   83.9863 C   0  0  0  0  0  0  0  0  0  0  0  0
   22.2741   37.8912   83.5365 C   0  0  0  0  0  0  0  0  0  0  0  0
   21.9385   39.2358   83.3887 C   0  0  0  0  0  0  0  0  0  0  0  0
   22.8926   40.2234   83.6470 C   0  0  0  0  0  0  0  0  0  0  0  0
   21.2802   36.9687   83.2960 O   0  0  0  0  0  0  0  0  0  0  0  0
   20.1191   37.1183   84.0179 C   0  0  0  0  0  0  0  0  0  0  0  0
   20.1754   36.8708   85.3903 C   0  0  0  0  0  0  0  0  0  0  0  0
   19.0298   37.0385   86.1698 C   0  0  0  0  0  0  0  0  0  0  0  0
   17.8384   37.4696   85.5790 C   0  0  0  0  0  0  0  0  0  0  0  0
   17.7921   37.7405   84.2088 C   0  0  0  0  0  0  0  0  0  0  0  0
   18.9350   37.5701   83.4259 C   0  0  0  0  0  0  0  0  0  0  0  0
   29.8219   42.4438   82.9955 H   0  0  0  0  0  0  0  0  0  0  0  0
   25.7451   41.4423   88.0504 H   0  0  0  0  0  0  0  0  0  0  0  0
   25.3701   42.1300   89.6347 H   0  0  0  0  0  0  0  0  0  0  0  0
   27.6913   42.5184   88.8283 H   0  0  0  0  0  0  0  0  0  0  0  0
   26.7359   43.9672   89.2646 H   0  0  0  0  0  0  0  0  0  0  0  0
   28.0408   43.3152   86.8002 H   0  0  0  0  0  0  0  0  0  0  0  0
   27.3705   44.8511   87.4185 H   0  0  0  0  0  0  0  0  0  0  0  0
   26.2436   44.5874   85.5504 H   0  0  0  0  0  0  0  0  0  0  0  0
   23.9213   43.7390   86.1744 H   0  0  0  0  0  0  0  0  0  0  0  0
   24.6767   44.9345   87.2716 H   0  0  0  0  0  0  0  0  0  0  0  0
   22.0004   39.3175   91.0891 H   0  0  0  0  0  0  0  0  0  0  0  0
   21.5616   40.6505   92.1300 H   0  0  0  0  0  0  0  0  0  0  0  0
   23.2111   40.0753   92.0956 H   0  0  0  0  0  0  0  0  0  0  0  0
   25.4360   38.2531   84.5863 H   0  0  0  0  0  0  0  0  0  0  0  0
   23.7838   36.5363   84.1227 H   0  0  0  0  0  0  0  0  0  0  0  0
   20.9873   39.5015   83.0891 H   0  0  0  0  0  0  0  0  0  0  0  0
   22.6446   41.2181   83.5287 H   0  0  0  0  0  0  0  0  0  0  0  0
   21.0594   36.5654   85.8265 H   0  0  0  0  0  0  0  0  0  0  0  0
   19.0623   36.8441   87.1828 H   0  0  0  0  0  0  0  0  0  0  0  0
   16.9911   37.5881   86.1561 H   0  0  0  0  0  0  0  0  0  0  0  0
   16.9136   38.0663   83.7762 H   0  0  0  0  0  0  0  0  0  0  0  0
   18.9066   37.7764   82.4151 H   0  0  0  0  0  0  0  0  0  0  0  0
  1  2  1  0
  2  3  2  0
  3 24  1  0
  3  4  1  0
  4  5  2  0
  5  6  1  0
  5  7  1  0
  6 11  1  0
  6 12  1  0
  7  8  2  0
  8  9  1  0
  8 37  1  0
  9 10  2  0
 10  1  1  0
 10  4  1  0
 13 14  2  0
 13 15  1  0
 15 16  1  0
 16 17  1  0
 16 38  1  0
 16 39  1  0
 17 18  1  0
 17 40  1  0
 17 41  1  0
 18 19  1  0
 18 42  1  0
 18 43  1  0
 19 20  1  0
 19  1  1  0
 19 44  1  6
 20 15  1  0
 20 45  1  0
 20 46  1  0
 21 22  1  0
 21 47  1  0
 21 48  1  0
 21 49  1  0
 22 23  3  0
 23 13  1  0
 24 25  2  0
 25 26  1  0
 25 50  1  0
 26 27  2  0
 26 51  1  0
 27 30  1  0
 27 28  1  0
 28 29  2  0
 28 52  1  0
 29 24  1  0
 29 53  1  0
 30 31  1  0
 31 32  2  0
 32 33  1  0
 32 54  1  0
 33 34  2  0
 33 55  1  0
 34 35  1  0
 34 56  1  0
 35 36  2  0
 35 57  1  0
 36 31  1  0
 36 58  1  0
M  END
>  <minimizedAffinity>  (2) 
-7.78170

>  <mol_id>  (2) 
16292

>  <source_index>  (2) 
1

>  <layer>  (2) 
L1

>  <uniprot>  (2) 
P06239

>  <paff>  (2) 
8.6839999999999993

>  <smiles>  (2) 
CC#CC(=O)N1CCC[C@H](C1)n1nc(-c2ccc(Oc3ccccc3)cc2)c2c(N)ncnc12 |r|

$$$$
L1:P06239:16940
     RDKit          3D

 79 83  0  0  0  0  0  0  0  0999 V2000
   26.8579   37.6144   82.8645 C   0  0  0  0  0  0  0  0  0  0  0  0
   27.4165   36.5455   82.1552 C   0  0  0  0  0  0  0  0  0  0  0  0
   28.7834   36.5006   81.8476 C   0  0  0  0  0  0  0  0  0  0  0  0
   29.6443   37.5274   82.2327 C   0  0  0  0  0  0  0  0  0  0  0  0
   29.0981   38.6150   82.9466 C   0  0  0  0  0  0  0  0  0  0  0  0
   27.7276   38.6523   83.2427 C   0  0  0  0  0  0  0  0  0  0  0  0
   22.8714   37.6987   84.4327 C   0  0  0  0  0  0  0  0  0  0  0  0
   23.2345   36.7217   83.2994 C   0  0  0  0  0  0  0  0  0  0  0  0
   24.7378   36.4420   83.2853 C   0  0  0  0  0  0  0  0  0  0  0  0
   25.4889   37.7033   83.1855 N   0  0  0  0  0  0  0  0  0  0  0  0
   25.2054   38.6515   84.2805 C   0  0  0  0  0  0  0  0  0  0  0  0
   23.7131   38.9797   84.3016 C   0  0  0  0  0  0  0  0  0  0  0  0
   18.2554   37.7891   85.6054 C   0  0  0  0  0  0  0  0  0  0  0  0
   18.6842   38.8687   84.7148 N   0  0  0  0  0  0  0  0  0  0  0  0
   19.7095   39.7069   85.3602 C   0  0  0  0  0  0  0  0  0  0  0  0
   21.0874   39.0226   85.5810 C   0  0  0  0  0  0  0  0  0  0  0  0
   21.4359   38.0096   84.5681 N   0  0  0  0  0  0  0  0  0  0  0  0
   20.7583   38.2806   83.2949 C   0  0  0  0  0  0  0  0  0  0  0  0
   19.2113   38.3244   83.4423 C   0  0  0  0  0  0  0  0  0  0  0  0
   30.0046   39.5916   83.2972 O   0  0  0  0  0  0  0  0  0  0  0  0
   29.7683   40.9038   82.8042 C   0  0  0  0  0  0  0  0  0  0  0  0
   31.0197   37.5332   81.9528 N   0  0  0  0  0  0  0  0  0  0  0  0
   31.2787   38.1348   81.1789 H   0  0  0  0  0  0  0  0  0  0  0  0
   32.0825   36.7103   82.2977 C   0  0  0  0  0  0  0  0  0  0  0  0
   32.9634   37.0518   83.2486 N   0  0  0  0  0  0  0  0  0  0  0  0
   33.9279   36.1570   83.5384 C   0  0  0  0  0  0  0  0  0  0  0  0
   34.0494   34.9351   82.9223 C   0  0  0  0  0  0  0  0  0  0  0  0
   33.1115   34.6580   81.9387 C   0  0  0  0  0  0  0  0  0  0  0  0
   32.1442   35.5500   81.6241 N   0  0  0  0  0  0  0  0  0  0  0  0
   35.3116   33.8561   83.3737 Cl  0  0  0  0  0  0  0  0  0  0  0  0
   33.1782   33.4217   81.2430 N   0  0  0  0  0  0  0  0  0  0  0  0
   32.2316   33.0209   81.1860 H   0  0  0  0  0  0  0  0  0  0  0  0
   33.9952   33.0827   80.1392 C   0  0  0  0  0  0  0  0  0  0  0  0
   34.3444   34.0498   79.1823 C   0  0  0  0  0  0  0  0  0  0  0  0
   35.2030   33.7493   78.1228 C   0  0  0  0  0  0  0  0  0  0  0  0
   35.7361   32.4714   78.0053 C   0  0  0  0  0  0  0  0  0  0  0  0
   35.4046   31.4961   78.9457 C   0  0  0  0  0  0  0  0  0  0  0  0
   34.5426   31.7880   80.0200 C   0  0  0  0  0  0  0  0  0  0  0  0
   34.1465   30.5141   81.1880 P   0  0  0  0  0  0  0  0  0  0  0  0
   32.8383   30.7027   81.9236 O   0  0  0  0  0  0  0  0  0  0  0  0
   34.1467   28.9224   80.3528 C   0  0  0  0  0  0  0  0  0  0  0  0
   35.4901   30.3573   82.3710 C   0  0  0  0  0  0  0  0  0  0  0  0
   26.8068   35.7705   81.8508 H   0  0  0  0  0  0  0  0  0  0  0  0
   29.1592   35.6929   81.3267 H   0  0  0  0  0  0  0  0  0  0  0  0
   27.3468   39.4647   83.7527 H   0  0  0  0  0  0  0  0  0  0  0  0
   23.1088   37.1885   85.3428 H   0  0  0  0  0  0  0  0  0  0  0  0
   22.9485   37.1502   82.3616 H   0  0  0  0  0  0  0  0  0  0  0  0
   22.7154   35.8001   83.4612 H   0  0  0  0  0  0  0  0  0  0  0  0
   24.9741   35.8226   82.4454 H   0  0  0  0  0  0  0  0  0  0  0  0
   25.0089   35.9454   84.1935 H   0  0  0  0  0  0  0  0  0  0  0  0
   25.7654   39.5502   84.1271 H   0  0  0  0  0  0  0  0  0  0  0  0
   25.4851   38.2098   85.2141 H   0  0  0  0  0  0  0  0  0  0  0  0
   23.4514   39.4794   83.3924 H   0  0  0  0  0  0  0  0  0  0  0  0
   23.5130   39.6081   85.1442 H   0  0  0  0  0  0  0  0  0  0  0  0
   17.8793   38.2062   86.5161 H   0  0  0  0  0  0  0  0  0  0  0  0
   19.0882   37.1531   85.8216 H   0  0  0  0  0  0  0  0  0  0  0  0
   17.4852   37.2188   85.1295 H   0  0  0  0  0  0  0  0  0  0  0  0
   19.3347   40.0102   86.3154 H   0  0  0  0  0  0  0  0  0  0  0  0
   19.8888   40.5217   84.6903 H   0  0  0  0  0  0  0  0  0  0  0  0
   21.0745   38.5465   86.5392 H   0  0  0  0  0  0  0  0  0  0  0  0
   21.8256   39.7936   85.5070 H   0  0  0  0  0  0  0  0  0  0  0  0
   21.0151   37.5099   82.5985 H   0  0  0  0  0  0  0  0  0  0  0  0
   21.0800   39.2422   82.9532 H   0  0  0  0  0  0  0  0  0  0  0  0
   18.8466   37.3236   83.3409 H   0  0  0  0  0  0  0  0  0  0  0  0
   18.8734   38.9994   82.6839 H   0  0  0  0  0  0  0  0  0  0  0  0
   30.5411   41.5588   83.1486 H   0  0  0  0  0  0  0  0  0  0  0  0
   28.8209   41.2527   83.1585 H   0  0  0  0  0  0  0  0  0  0  0  0
   29.7650   40.8876   81.7343 H   0  0  0  0  0  0  0  0  0  0  0  0
   34.6163   36.4041   84.2664 H   0  0  0  0  0  0  0  0  0  0  0  0
   33.9580   35.0032   79.2640 H   0  0  0  0  0  0  0  0  0  0  0  0
   35.4411   34.4748   77.4285 H   0  0  0  0  0  0  0  0  0  0  0  0
   36.3740   32.2451   77.2263 H   0  0  0  0  0  0  0  0  0  0  0  0
   35.7971   30.5462   78.8527 H   0  0  0  0  0  0  0  0  0  0  0  0
   33.3720   28.9067   79.6150 H   0  0  0  0  0  0  0  0  0  0  0  0
   33.9746   28.1447   81.0673 H   0  0  0  0  0  0  0  0  0  0  0  0
   35.0936   28.7683   79.8790 H   0  0  0  0  0  0  0  0  0  0  0  0
   35.5796   31.2644   82.9314 H   0  0  0  0  0  0  0  0  0  0  0  0
   36.4049   30.1689   81.8489 H   0  0  0  0  0  0  0  0  0  0  0  0
   35.2859   29.5452   83.0371 H   0  0  0  0  0  0  0  0  0  0  0  0
  1  2  2  0
  2  3  1  0
  2 43  1  0
  3  4  2  0
  3 44  1  0
  4  5  1  0
  4 22  1  0
  5  6  2  0
  5 20  1  0
  6  1  1  0
  6 45  1  0
  7  8  1  0
  7 46  1  0
  8  9  1  0
  8 47  1  0
  8 48  1  0
  9 10  1  0
  9 49  1  0
  9 50  1  0
 10 11  1  0
 10  1  1  0
 11 12  1  0
 11 51  1  0
 11 52  1  0
 12  7  1  0
 12 53  1  0
 12 54  1  0
 13 14  1  0
 13 55  1  0
 13 56  1  0
 13 57  1  0
 14 15  1  0
 15 16  1  0
 15 58  1  0
 15 59  1  0
 16 17  1  0
 16 60  1  0
 16 61  1  0
 17 18  1  0
 17  7  1  0
 18 19  1  0
 18 62  1  0
 18 63  1  0
 19 14  1  0
 19 64  1  0
 19 65  1  0
 20 21  1  0
 21 66  1  0
 21 67  1  0
 21 68  1  0
 22 24  1  0
 22 23  1  0
 24 25  2  0
 25 26  1  0
 26 27  2  0
 26 69  1  0
 27 28  1  0
 27 30  1  0
 28 29  2  0
 28 31  1  0
 29 24  1  0
 31 33  1  0
 31 32  1  0
 33 34  2  0
 34 35  1  0
 34 70  1  0
 35 36  2  0
 35 71  1  0
 36 37  1  0
 36 72  1  0
 37 38  2  0
 37 73  1  0
 38 39  1  0
 38 33  1  0
 39 40  2  0
 39 41  1  0
 39 42  1  0
 41 74  1  0
 41 75  1  0
 41 76  1  0
 42 77  1  0
 42 78  1  0
 42 79  1  0
M  END
>  <minimizedAffinity>  (3) 
-7.27125

>  <mol_id>  (3) 
16940

>  <source_index>  (3) 
2

>  <layer>  (3) 
L1

>  <uniprot>  (3) 
P06239

>  <paff>  (3) 
6.2907000000000002

>  <smiles>  (3) 
CN1CCN(CC1)C2CCN(CC2)c3ccc(c(c3)OC)Nc4ncc(c(n4)Nc5ccccc5P(=O)(C)C)Cl

$$$$
L1:P06239:18189
     RDKit          3D

 40 42  0  0  0  0  0  0  0  0999 V2000
   20.8221   38.0663   85.7668 C   0  0  0  0  0  0  0  0  0  0  0  0
   22.0867   38.0063   84.9657 C   0  0  0  0  0  0  0  0  0  0  0  0
   22.3706   36.8359   84.3564 N   0  0  0  0  0  0  0  0  0  0  0  0
   23.5134   36.7362   83.6440 C   0  0  0  0  0  0  0  0  0  0  0  0
   24.3684   37.8313   83.5393 C   0  0  0  0  0  0  0  0  0  0  0  0
   25.6074   38.1163   82.8862 C   0  0  0  0  0  0  0  0  0  0  0  0
   25.9667   39.4056   83.2583 C   0  0  0  0  0  0  0  0  0  0  0  0
   27.0920   40.1011   82.9425 N   0  0  0  0  0  0  0  0  0  0  0  0
   24.9651   39.9310   84.0708 N   0  0  0  0  0  0  0  0  0  0  0  0
   23.9889   38.9648   84.2448 C   0  0  0  0  0  0  0  0  0  0  0  0
   22.8551   39.1074   84.9599 N   0  0  0  0  0  0  0  0  0  0  0  0
   27.4066   40.8633   83.5416 H   0  0  0  0  0  0  0  0  0  0  0  0
   27.8827   39.5668   82.5674 H   0  0  0  0  0  0  0  0  0  0  0  0
   24.9414   41.2387   84.6342 C   0  0  0  0  0  0  0  0  0  0  0  0
   24.3395   42.3030   83.9098 C   0  0  0  0  0  0  0  0  0  0  0  0
   23.6247   42.0853   82.5996 C   0  0  0  0  0  0  0  0  0  0  0  0
   24.4000   43.5893   84.4700 C   0  0  0  0  0  0  0  0  0  0  0  0
   23.9109   44.7011   83.8416 O   0  0  0  0  0  0  0  0  0  0  0  0
   24.9619   43.8102   85.7217 C   0  0  0  0  0  0  0  0  0  0  0  0
   25.5110   42.7479   86.4247 C   0  0  0  0  0  0  0  0  0  0  0  0
   26.0511   42.9919   87.6284 F   0  0  0  0  0  0  0  0  0  0  0  0
   25.5414   41.4533   85.8976 C   0  0  0  0  0  0  0  0  0  0  0  0
   26.2086   40.3762   86.7082 C   0  0  0  0  0  0  0  0  0  0  0  0
   23.7330   44.5000   82.9098 H   0  0  0  0  0  0  0  0  0  0  0  0
   26.4086   37.2595   82.0258 C   0  0  0  0  0  0  0  0  0  0  0  0
   25.7293   36.6032   81.0376 N   0  0  0  0  0  0  0  0  0  0  0  0
   27.6265   37.1433   82.1208 O   0  0  0  0  0  0  0  0  0  0  0  0
   24.8476   36.9669   80.7047 H   0  0  0  0  0  0  0  0  0  0  0  0
   26.3202   36.1510   80.3512 H   0  0  0  0  0  0  0  0  0  0  0  0
   20.3058   37.1324   85.6887 H   0  0  0  0  0  0  0  0  0  0  0  0
   20.1989   38.8509   85.3913 H   0  0  0  0  0  0  0  0  0  0  0  0
   21.0584   38.2585   86.7925 H   0  0  0  0  0  0  0  0  0  0  0  0
   23.7537   35.8480   83.1767 H   0  0  0  0  0  0  0  0  0  0  0  0
   23.6809   41.0513   82.3301 H   0  0  0  0  0  0  0  0  0  0  0  0
   24.0872   42.6780   81.8382 H   0  0  0  0  0  0  0  0  0  0  0  0
   22.5989   42.3722   82.7010 H   0  0  0  0  0  0  0  0  0  0  0  0
   24.9706   44.7596   86.1261 H   0  0  0  0  0  0  0  0  0  0  0  0
   26.5804   40.7947   87.6201 H   0  0  0  0  0  0  0  0  0  0  0  0
   27.0208   39.9606   86.1492 H   0  0  0  0  0  0  0  0  0  0  0  0
   25.4992   39.6071   86.9319 H   0  0  0  0  0  0  0  0  0  0  0  0
  1  2  1  0
  1 30  1  0
  1 31  1  0
  1 32  1  0
  2  3  2  0
  3  4  1  0
  4  5  2  0
  4 33  1  0
  5  6  1  0
  6 25  1  0
  6  7  2  0
  7  8  1  0
  7  9  1  0
  8 12  1  0
  8 13  1  0
  9 14  1  0
  9 10  1  0
 10 11  2  0
 10  5  1  0
 11  2  1  0
 14 15  2  0
 15 16  1  0
 15 17  1  0
 16 34  1  0
 16 35  1  0
 16 36  1  0
 17 18  1  0
 17 19  2  0
 18 24  1  0
 19 20  1  0
 19 37  1  0
 20 21  1  0
 20 22  2  0
 22 23  1  0
 22 14  1  0
 23 38  1  0
 23 39  1  0
 23 40  1  0
 25 26  1  0
 25 27  2  0
 26 28  1  0
 26 29  1  0
M  END
>  <minimizedAffinity>  (4) 
-7.14998

>  <mol_id>  (4) 
18189

>  <source_index>  (4) 
3

>  <layer>  (4) 
L1

>  <uniprot>  (4) 
P06239

>  <paff>  (4) 
7.3010000000000002

>  <smiles>  (4) 
Cc1ncc2c(C(N)=O)c(N)n(-c3c(C)c(O)cc(F)c3C)c2n1

$$$$
L1:P06239:31540
     RDKit          3D

 46 48  0  0  0  0  0  0  0  0999 V2000
   24.0663   39.5523   84.4453 N   0  0  0  0  0  0  0  0  0  0  0  0
   22.8616   39.2020   85.0485 C   0  0  0  0  0  0  0  0  0  0  0  0
   22.1751   40.0511   85.8525 N   0  0  0  0  0  0  0  0  0  0  0  0
   22.5124   37.9237   84.6318 C   0  0  0  0  0  0  0  0  0  0  0  0
   23.5490   37.4821   83.7533 C   0  0  0  0  0  0  0  0  0  0  0  0
   23.8469   36.3219   83.0462 C   0  0  0  0  0  0  0  0  0  0  0  0
   24.9570   36.2642   82.2794 N   0  0  0  0  0  0  0  0  0  0  0  0
   25.7745   37.3314   82.2240 C   0  0  0  0  0  0  0  0  0  0  0  0
   25.5939   38.4757   82.8875 N   0  0  0  0  0  0  0  0  0  0  0  0
   24.4727   38.5088   83.6326 C   0  0  0  0  0  0  0  0  0  0  0  0
   22.5795   40.9173   86.2019 H   0  0  0  0  0  0  0  0  0  0  0  0
   21.4134   39.6881   86.4306 H   0  0  0  0  0  0  0  0  0  0  0  0
   26.3879   39.5249   86.2392 C   0  0  0  0  0  0  0  0  0  0  0  0
   25.8989   40.7580   85.5259 C   0  0  0  0  0  0  0  0  0  0  0  0
   26.5892   41.9606   85.7322 C   0  0  0  0  0  0  0  0  0  0  0  0
   26.2179   43.1217   85.0564 C   0  0  0  0  0  0  0  0  0  0  0  0
   25.1379   43.0976   84.1758 C   0  0  0  0  0  0  0  0  0  0  0  0
   24.7915   44.2388   83.5047 O   0  0  0  0  0  0  0  0  0  0  0  0
   24.3884   41.9324   83.9651 C   0  0  0  0  0  0  0  0  0  0  0  0
   23.2181   41.9658   83.0164 C   0  0  0  0  0  0  0  0  0  0  0  0
   24.7880   40.7599   84.6484 C   0  0  0  0  0  0  0  0  0  0  0  0
   25.4371   44.9332   83.7117 H   0  0  0  0  0  0  0  0  0  0  0  0
   21.3085   37.2243   85.0522 C   0  0  0  0  0  0  0  0  0  0  0  0
   20.4579   36.8494   84.0492 N   0  0  0  0  0  0  0  0  0  0  0  0
   21.0151   37.0063   86.2236 O   0  0  0  0  0  0  0  0  0  0  0  0
   20.4720   37.3508   83.1720 H   0  0  0  0  0  0  0  0  0  0  0  0
   19.5528   36.5294   84.3696 H   0  0  0  0  0  0  0  0  0  0  0  0
   26.9073   37.2847   81.4218 N   0  0  0  0  0  0  0  0  0  0  0  0
   26.8228   38.0706   80.7796 H   0  0  0  0  0  0  0  0  0  0  0  0
   28.1613   37.3002   82.1641 C   0  0  0  0  0  0  0  0  0  0  0  0
   28.9800   36.0585   81.7958 C   0  0  0  0  0  0  0  0  0  0  0  0
   29.8016   36.3344   80.6598 O   0  0  0  0  0  0  0  0  0  0  0  0
   30.2205   35.4942   80.4058 H   0  0  0  0  0  0  0  0  0  0  0  0
   23.2194   35.5049   83.1076 H   0  0  0  0  0  0  0  0  0  0  0  0
   27.2358   39.7744   86.8423 H   0  0  0  0  0  0  0  0  0  0  0  0
   26.6676   38.7840   85.5197 H   0  0  0  0  0  0  0  0  0  0  0  0
   25.6077   39.1403   86.8623 H   0  0  0  0  0  0  0  0  0  0  0  0
   27.3819   41.9865   86.3925 H   0  0  0  0  0  0  0  0  0  0  0  0
   26.7418   43.9978   85.2078 H   0  0  0  0  0  0  0  0  0  0  0  0
   23.1071   42.9541   82.6216 H   0  0  0  0  0  0  0  0  0  0  0  0
   22.3268   41.6886   83.5396 H   0  0  0  0  0  0  0  0  0  0  0  0
   23.3893   41.2785   82.2144 H   0  0  0  0  0  0  0  0  0  0  0  0
   27.9557   37.2948   83.2142 H   0  0  0  0  0  0  0  0  0  0  0  0
   28.7146   38.1820   81.9168 H   0  0  0  0  0  0  0  0  0  0  0  0
   28.3160   35.2517   81.5653 H   0  0  0  0  0  0  0  0  0  0  0  0
   29.6031   35.7904   82.6233 H   0  0  0  0  0  0  0  0  0  0  0  0
  1  2  1  0
  2  3  1  0
  2  4  2  0
  3 11  1  0
  3 12  1  0
  4 23  1  0
  4  5  1  0
  5  6  2  0
  6  7  1  0
  6 34  1  0
  7  8  2  0
  8 28  1  0
  8  9  1  0
  9 10  2  0
 10  1  1  0
 10  5  1  0
 13 14  1  0
 13 35  1  0
 13 36  1  0
 13 37  1  0
 14 15  2  0
 15 16  1  0
 15 38  1  0
 16 17  2  0
 16 39  1  0
 17 18  1  0
 17 19  1  0
 18 22  1  0
 19 20  1  0
 19 21  2  0
 20 40  1  0
 20 41  1  0
 20 42  1  0
 21  1  1  0
 21 14  1  0
 23 24  1  0
 23 25  2  0
 24 26  1  0
 24 27  1  0
 28 30  1  0
 28 29  1  0
 30 31  1  0
 30 43  1  0
 30 44  1  0
 31 32  1  0
 31 45  1  0
 31 46  1  0
 32 33  1  0
M  END
>  <minimizedAffinity>  (5) 
-7.54571

>  <mol_id>  (5) 
31540

>  <source_index>  (5) 
4

>  <layer>  (5) 
L1

>  <uniprot>  (5) 
P06239

>  <paff>  (5) 
7.3010000000000002

>  <smiles>  (5) 
Cc1ccc(O)c(C)c1-n1c(N)c(C(N)=O)c2cnc(NCCO)nc21

$$$$
L1:P06239:43152
     RDKit          3D

 58 61  0  0  0  0  0  0  0  0999 V2000
   25.2220   43.0996   86.4904 N   0  0  0  0  0  0  0  0  0  0  0  0
   25.1875   44.0783   86.7434 H   0  0  0  0  0  0  0  0  0  0  0  0
   22.3022   41.5315   89.8543 C   0  0  0  0  0  0  0  0  0  0  0  0
   22.6024   41.7125   88.3974 C   0  0  0  0  0  0  0  0  0  0  0  0
   23.7714   42.2794   88.0665 N   0  0  0  0  0  0  0  0  0  0  0  0
   23.9965   42.4998   86.7602 C   0  0  0  0  0  0  0  0  0  0  0  0
   23.0685   42.1412   85.8042 C   0  0  0  0  0  0  0  0  0  0  0  0
   21.8943   41.5323   86.2184 C   0  0  0  0  0  0  0  0  0  0  0  0
   21.6550   41.3400   87.5259 N   0  0  0  0  0  0  0  0  0  0  0  0
   20.9251   41.1534   85.2749 N   0  0  0  0  0  0  0  0  0  0  0  0
   21.4475   40.7316   83.9569 C   0  0  0  0  0  0  0  0  0  0  0  0
   21.9479   39.2673   83.9933 C   0  0  0  0  0  0  0  0  0  0  0  0
   20.9023   38.3130   84.4393 N   0  0  0  0  0  0  0  0  0  0  0  0
   20.3849   38.7477   85.7633 C   0  0  0  0  0  0  0  0  0  0  0  0
   19.8946   40.2180   85.7719 C   0  0  0  0  0  0  0  0  0  0  0  0
   21.4576   36.9504   84.4919 C   0  0  0  0  0  0  0  0  0  0  0  0
   22.4931   36.6554   83.3953 C   0  0  0  0  0  0  0  0  0  0  0  0
   21.9095   35.8556   82.3673 O   0  0  0  0  0  0  0  0  0  0  0  0
   21.7328   34.9785   82.7553 H   0  0  0  0  0  0  0  0  0  0  0  0
   26.3313   42.6038   85.9112 C   0  0  0  0  0  0  0  0  0  0  0  0
   27.5579   42.6166   86.3831 N   0  0  0  0  0  0  0  0  0  0  0  0
   28.4188   41.9577   85.5258 C   0  0  0  0  0  0  0  0  0  0  0  0
   27.8502   41.4569   84.3732 C   0  0  0  0  0  0  0  0  0  0  0  0
   26.1796   41.8363   84.3668 S   0  0  0  0  0  0  0  0  0  0  0  0
   28.5162   40.7105   83.3172 C   0  0  0  0  0  0  0  0  0  0  0  0
   28.7016   41.2129   82.2148 O   0  0  0  0  0  0  0  0  0  0  0  0
   28.9482   39.4545   83.6912 N   0  0  0  0  0  0  0  0  0  0  0  0
   28.9211   39.2830   84.6936 H   0  0  0  0  0  0  0  0  0  0  0  0
   29.6385   38.4531   82.9589 C   0  0  0  0  0  0  0  0  0  0  0  0
   29.1017   37.3599   82.2688 C   0  0  0  0  0  0  0  0  0  0  0  0
   27.6555   36.9726   82.2473 C   0  0  0  0  0  0  0  0  0  0  0  0
   29.8909   36.4800   81.5814 N   0  0  0  0  0  0  0  0  0  0  0  0
   31.2280   36.6444   81.5881 C   0  0  0  0  0  0  0  0  0  0  0  0
   31.8550   37.6532   82.2757 C   0  0  0  0  0  0  0  0  0  0  0  0
   31.0482   38.5505   82.9649 C   0  0  0  0  0  0  0  0  0  0  0  0
   31.8479   39.8270   83.8333 Cl  0  0  0  0  0  0  0  0  0  0  0  0
   23.1365   41.8663   90.4346 H   0  0  0  0  0  0  0  0  0  0  0  0
   22.1205   40.4963   90.0551 H   0  0  0  0  0  0  0  0  0  0  0  0
   21.4353   42.1026   90.1135 H   0  0  0  0  0  0  0  0  0  0  0  0
   23.2447   42.3222   84.8036 H   0  0  0  0  0  0  0  0  0  0  0  0
   22.2605   41.3712   83.6832 H   0  0  0  0  0  0  0  0  0  0  0  0
   20.6548   40.8002   83.2415 H   0  0  0  0  0  0  0  0  0  0  0  0
   22.7767   39.2059   84.6673 H   0  0  0  0  0  0  0  0  0  0  0  0
   22.2263   38.9972   82.9961 H   0  0  0  0  0  0  0  0  0  0  0  0
   21.1681   38.6457   86.4851 H   0  0  0  0  0  0  0  0  0  0  0  0
   19.5430   38.1294   85.9954 H   0  0  0  0  0  0  0  0  0  0  0  0
   19.6375   40.4896   86.7744 H   0  0  0  0  0  0  0  0  0  0  0  0
   19.0483   40.2857   85.1207 H   0  0  0  0  0  0  0  0  0  0  0  0
   20.6515   36.2542   84.3897 H   0  0  0  0  0  0  0  0  0  0  0  0
   21.9646   36.8584   85.4297 H   0  0  0  0  0  0  0  0  0  0  0  0
   23.3215   36.1308   83.8236 H   0  0  0  0  0  0  0  0  0  0  0  0
   22.8253   37.5800   82.9715 H   0  0  0  0  0  0  0  0  0  0  0  0
   29.4234   41.8474   85.7348 H   0  0  0  0  0  0  0  0  0  0  0  0
   27.0854   37.6918   82.7974 H   0  0  0  0  0  0  0  0  0  0  0  0
   27.5381   36.0074   82.6939 H   0  0  0  0  0  0  0  0  0  0  0  0
   27.3095   36.9418   81.2353 H   0  0  0  0  0  0  0  0  0  0  0  0
   31.8079   35.9808   81.0511 H   0  0  0  0  0  0  0  0  0  0  0  0
   32.8832   37.7417   82.2807 H   0  0  0  0  0  0  0  0  0  0  0  0
  1 20  1  0
  1  2  1  0
  3  4  1  0
  3 37  1  0
  3 38  1  0
  3 39  1  0
  4  5  2  0
  5  6  1  0
  6  1  1  0
  6  7  2  0
  7  8  1  0
  7 40  1  0
  8  9  2  0
  8 10  1  0
  9  4  1  0
 10 11  1  0
 11 12  1  0
 11 41  1  0
 11 42  1  0
 12 13  1  0
 12 43  1  0
 12 44  1  0
 13 16  1  0
 13 14  1  0
 14 15  1  0
 14 45  1  0
 14 46  1  0
 15 10  1  0
 15 47  1  0
 15 48  1  0
 16 17  1  0
 16 49  1  0
 16 50  1  0
 17 18  1  0
 17 51  1  0
 17 52  1  0
 18 19  1  0
 20 21  2  0
 21 22  1  0
 22 23  2  0
 22 53  1  0
 23 24  1  0
 23 25  1  0
 24 20  1  0
 25 26  2  0
 25 27  1  0
 27 29  1  0
 27 28  1  0
 29 30  2  0
 30 31  1  0
 30 32  1  0
 31 54  1  0
 31 55  1  0
 31 56  1  0
 32 33  2  0
 33 34  1  0
 33 57  1  0
 34 35  2  0
 34 58  1  0
 35 36  1  0
 35 29  1  0
M  END
>  <minimizedAffinity>  (6) 
-7.07122

>  <mol_id>  (6) 
43152

>  <source_index>  (6) 
5

>  <layer>  (6) 
L1

>  <uniprot>  (6) 
P06239

>  <paff>  (6) 
8.8239000000000001

>  <smiles>  (6) 
Cc1nc(Nc2ncc(s2)C(=O)Nc2c(C)nccc2Cl)cc(n1)N1CCN(CCO)CC1

$$$$
L1:P06239:72037
     RDKit          3D

 68 72  0  0  0  0  0  0  0  0999 V2000
   29.6169   38.3138   82.6327 N   0  0  0  0  0  0  0  0  0  0  0  0
   28.5525   37.4895   82.7408 N   0  0  0  0  0  0  0  0  0  0  0  0
   27.5119   38.3199   82.9350 C   0  0  0  0  0  0  0  0  0  0  0  0
   27.9338   39.6819   82.9915 C   0  0  0  0  0  0  0  0  0  0  0  0
   27.3754   40.9501   83.1933 C   0  0  0  0  0  0  0  0  0  0  0  0
   26.0390   41.1893   83.4733 N   0  0  0  0  0  0  0  0  0  0  0  0
   28.1829   42.0301   83.1347 N   0  0  0  0  0  0  0  0  0  0  0  0
   29.4936   41.8438   82.8836 C   0  0  0  0  0  0  0  0  0  0  0  0
   30.1410   40.6831   82.6942 N   0  0  0  0  0  0  0  0  0  0  0  0
   29.2993   39.6370   82.7691 C   0  0  0  0  0  0  0  0  0  0  0  0
   25.5714   40.4488   83.9805 H   0  0  0  0  0  0  0  0  0  0  0  0
   25.9223   42.1201   83.8575 H   0  0  0  0  0  0  0  0  0  0  0  0
   34.4035   35.8797   81.4291 C   0  0  0  0  0  0  0  0  0  0  0  0
   35.4705   36.2668   81.9019 O   0  0  0  0  0  0  0  0  0  0  0  0
   33.1764   36.1783   82.0023 N   0  0  0  0  0  0  0  0  0  0  0  0
   31.9125   35.5057   81.7161 C   0  0  0  0  0  0  0  0  0  0  0  0
   30.8228   36.5324   81.4268 C   0  0  0  0  0  0  0  0  0  0  0  0
   30.9362   37.7780   82.3259 C   0  0  0  0  0  0  0  0  0  0  0  0
   31.7815   37.5085   83.5775 C   0  0  0  0  0  0  0  0  0  0  0  0
   33.1820   37.0497   83.1748 C   0  0  0  0  0  0  0  0  0  0  0  0
   34.7787   35.6846   79.0130 C   0  0  0  0  0  0  0  0  0  0  0  0
   34.3840   35.1083   80.1596 C   0  0  0  0  0  0  0  0  0  0  0  0
   34.7251   35.0110   77.6734 C   0  0  0  0  0  0  0  0  0  0  0  0
   35.8730   36.9360   76.7997 C   0  0  0  0  0  0  0  0  0  0  0  0
   35.7951   35.4729   76.7767 N   0  0  0  0  0  0  0  0  0  0  0  0
   37.0974   34.9105   77.1551 C   0  0  0  0  0  0  0  0  0  0  0  0
   26.1577   37.7890   83.0565 C   0  0  0  0  0  0  0  0  0  0  0  0
   25.2663   38.3239   83.9973 C   0  0  0  0  0  0  0  0  0  0  0  0
   23.9760   37.8028   84.1236 C   0  0  0  0  0  0  0  0  0  0  0  0
   23.5762   36.7333   83.3178 C   0  0  0  0  0  0  0  0  0  0  0  0
   24.4452   36.2187   82.3544 C   0  0  0  0  0  0  0  0  0  0  0  0
   25.7325   36.7446   82.2231 C   0  0  0  0  0  0  0  0  0  0  0  0
   22.3131   36.1890   83.3666 O   0  0  0  0  0  0  0  0  0  0  0  0
   21.2979   36.9761   83.8613 C   0  0  0  0  0  0  0  0  0  0  0  0
   20.8934   36.9322   85.1988 C   0  0  0  0  0  0  0  0  0  0  0  0
   19.8340   37.7319   85.6286 C   0  0  0  0  0  0  0  0  0  0  0  0
   19.1703   38.5590   84.7213 C   0  0  0  0  0  0  0  0  0  0  0  0
   19.5587   38.5814   83.3805 C   0  0  0  0  0  0  0  0  0  0  0  0
   20.6186   37.7834   82.9478 C   0  0  0  0  0  0  0  0  0  0  0  0
   30.0704   42.6979   82.8304 H   0  0  0  0  0  0  0  0  0  0  0  0
   31.6267   34.9158   82.5618 H   0  0  0  0  0  0  0  0  0  0  0  0
   32.0375   34.8784   80.8584 H   0  0  0  0  0  0  0  0  0  0  0  0
   29.8688   36.0763   81.5903 H   0  0  0  0  0  0  0  0  0  0  0  0
   30.9361   36.8513   80.4117 H   0  0  0  0  0  0  0  0  0  0  0  0
   31.4621   38.5349   81.7823 H   0  0  0  0  0  0  0  0  0  0  0  0
   31.3135   36.7451   84.1632 H   0  0  0  0  0  0  0  0  0  0  0  0
   31.8585   38.4095   84.1494 H   0  0  0  0  0  0  0  0  0  0  0  0
   33.6163   36.5169   83.9948 H   0  0  0  0  0  0  0  0  0  0  0  0
   33.7478   37.9228   82.9249 H   0  0  0  0  0  0  0  0  0  0  0  0
   35.1411   36.6499   79.0557 H   0  0  0  0  0  0  0  0  0  0  0  0
   34.0661   34.1265   80.1591 H   0  0  0  0  0  0  0  0  0  0  0  0
   34.8253   33.9551   77.8143 H   0  0  0  0  0  0  0  0  0  0  0  0
   33.7875   35.2558   77.2197 H   0  0  0  0  0  0  0  0  0  0  0  0
   36.6538   37.2619   76.1447 H   0  0  0  0  0  0  0  0  0  0  0  0
   36.0819   37.2664   77.7957 H   0  0  0  0  0  0  0  0  0  0  0  0
   34.9402   37.3480   76.4755 H   0  0  0  0  0  0  0  0  0  0  0  0
   37.8491   35.2676   76.4826 H   0  0  0  0  0  0  0  0  0  0  0  0
   37.0527   33.8426   77.1056 H   0  0  0  0  0  0  0  0  0  0  0  0
   37.3395   35.2115   78.1530 H   0  0  0  0  0  0  0  0  0  0  0  0
   25.5648   39.1068   84.5998 H   0  0  0  0  0  0  0  0  0  0  0  0
   23.3199   38.2067   84.8102 H   0  0  0  0  0  0  0  0  0  0  0  0
   24.1366   35.4497   81.7392 H   0  0  0  0  0  0  0  0  0  0  0  0
   26.3733   36.3629   81.5098 H   0  0  0  0  0  0  0  0  0  0  0  0
   21.3767   36.3105   85.8658 H   0  0  0  0  0  0  0  0  0  0  0  0
   19.5410   37.7118   86.6179 H   0  0  0  0  0  0  0  0  0  0  0  0
   18.3912   39.1550   85.0420 H   0  0  0  0  0  0  0  0  0  0  0  0
   19.0620   39.1880   82.7094 H   0  0  0  0  0  0  0  0  0  0  0  0
   20.8994   37.7902   81.9548 H   0  0  0  0  0  0  0  0  0  0  0  0
  1  2  1  0
  2  3  2  0
  3 27  1  0
  3  4  1  0
  4  5  2  0
  5  6  1  0
  5  7  1  0
  6 11  1  0
  6 12  1  0
  7  8  2  0
  8  9  1  0
  8 40  1  0
  9 10  2  0
 10  1  1  0
 10  4  1  0
 13 14  2  0
 13 15  1  0
 15 16  1  0
 16 17  1  0
 16 41  1  0
 16 42  1  0
 17 18  1  0
 17 43  1  0
 17 44  1  0
 18 19  1  0
 18  1  1  0
 18 45  1  0
 19 20  1  0
 19 46  1  0
 19 47  1  0
 20 15  1  0
 20 48  1  0
 20 49  1  0
 21 22  2  0
 21 50  1  0
 22 13  1  0
 22 51  1  0
 23 21  1  0
 23 52  1  0
 23 53  1  0
 24 25  1  0
 24 54  1  0
 24 55  1  0
 24 56  1  0
 25 26  1  0
 25 23  1  0
 26 57  1  0
 26 58  1  0
 26 59  1  0
 27 28  2  0
 28 29  1  0
 28 60  1  0
 29 30  2  0
 29 61  1  0
 30 33  1  0
 30 31  1  0
 31 32  2  0
 31 62  1  0
 32 27  1  0
 32 63  1  0
 33 34  1  0
 34 35  2  0
 35 36  1  0
 35 64  1  0
 36 37  2  0
 36 65  1  0
 37 38  1  0
 37 66  1  0
 38 39  2  0
 38 67  1  0
 39 34  1  0
 39 68  1  0
M  END
>  <minimizedAffinity>  (7) 
-8.22696

>  <mol_id>  (7) 
72037

>  <source_index>  (7) 
6

>  <layer>  (7) 
L1

>  <uniprot>  (7) 
P06239

>  <paff>  (7) 
8.5850000000000009

>  <smiles>  (7) 
CN(C)C\C=C\C(=O)N1CCC(CC1)n1nc(-c2ccc(Oc3ccccc3)cc2)c2c(N)ncnc12

$$$$
L1:P06239:72174
     RDKit          3D

 59 62  0  0  0  0  0  0  0  0999 V2000
   25.0085   43.6868   86.4803 N   0  0  0  0  0  0  0  0  0  0  0  0
   25.3695   44.3182   87.1874 H   0  0  0  0  0  0  0  0  0  0  0  0
   23.7532   43.1846   86.9011 C   0  0  0  0  0  0  0  0  0  0  0  0
   23.1905   42.1552   86.1660 C   0  0  0  0  0  0  0  0  0  0  0  0
   21.9626   41.6558   86.5661 C   0  0  0  0  0  0  0  0  0  0  0  0
   21.3528   42.1470   87.6557 N   0  0  0  0  0  0  0  0  0  0  0  0
   21.9569   43.1464   88.3176 C   0  0  0  0  0  0  0  0  0  0  0  0
   23.1351   43.6880   87.9791 N   0  0  0  0  0  0  0  0  0  0  0  0
   21.2812   43.6806   89.5404 C   0  0  0  0  0  0  0  0  0  0  0  0
   21.3753   40.5910   85.8515 N   0  0  0  0  0  0  0  0  0  0  0  0
   19.8986   40.5694   85.9562 C   0  0  0  0  0  0  0  0  0  0  0  0
   19.3139   39.3294   85.2379 C   0  0  0  0  0  0  0  0  0  0  0  0
   19.7347   39.2287   83.8184 N   0  0  0  0  0  0  0  0  0  0  0  0
   21.2150   39.2621   83.7609 C   0  0  0  0  0  0  0  0  0  0  0  0
   21.8227   40.5091   84.4468 C   0  0  0  0  0  0  0  0  0  0  0  0
   19.2353   37.9850   83.1914 C   0  0  0  0  0  0  0  0  0  0  0  0
   17.7288   37.7432   83.3845 C   0  0  0  0  0  0  0  0  0  0  0  0
   16.9681   38.8872   83.0088 O   0  0  0  0  0  0  0  0  0  0  0  0
   16.0314   38.6428   83.1092 H   0  0  0  0  0  0  0  0  0  0  0  0
   27.4743   41.5435   84.5884 C   0  0  0  0  0  0  0  0  0  0  0  0
   27.9140   41.8294   85.8626 C   0  0  0  0  0  0  0  0  0  0  0  0
   27.0764   42.6164   86.6284 N   0  0  0  0  0  0  0  0  0  0  0  0
   25.9841   42.9088   85.9508 C   0  0  0  0  0  0  0  0  0  0  0  0
   25.9766   42.3275   84.3223 S   0  0  0  0  0  0  0  0  0  0  0  0
   28.3895   39.4489   83.9606 N   0  0  0  0  0  0  0  0  0  0  0  0
   28.0887   40.7452   83.5469 C   0  0  0  0  0  0  0  0  0  0  0  0
   28.2510   41.1438   82.3957 O   0  0  0  0  0  0  0  0  0  0  0  0
   27.7601   39.0871   84.6643 H   0  0  0  0  0  0  0  0  0  0  0  0
   26.7839   37.2972   82.8846 C   0  0  0  0  0  0  0  0  0  0  0  0
   28.2590   37.4316   82.6089 C   0  0  0  0  0  0  0  0  0  0  0  0
   28.8686   36.4852   81.7666 C   0  0  0  0  0  0  0  0  0  0  0  0
   30.2235   36.5705   81.4556 C   0  0  0  0  0  0  0  0  0  0  0  0
   30.9961   37.5897   82.0026 C   0  0  0  0  0  0  0  0  0  0  0  0
   30.4127   38.5423   82.8447 C   0  0  0  0  0  0  0  0  0  0  0  0
   29.0312   38.4971   83.1262 C   0  0  0  0  0  0  0  0  0  0  0  0
   31.4996   39.6298   83.6421 Cl  0  0  0  0  0  0  0  0  0  0  0  0
   23.6744   41.7695   85.3401 H   0  0  0  0  0  0  0  0  0  0  0  0
   20.3573   43.1627   89.6924 H   0  0  0  0  0  0  0  0  0  0  0  0
   21.0878   44.7253   89.4134 H   0  0  0  0  0  0  0  0  0  0  0  0
   21.9151   43.5360   90.3902 H   0  0  0  0  0  0  0  0  0  0  0  0
   19.5021   41.4551   85.5054 H   0  0  0  0  0  0  0  0  0  0  0  0
   19.6291   40.5248   86.9907 H   0  0  0  0  0  0  0  0  0  0  0  0
   18.2460   39.3868   85.2736 H   0  0  0  0  0  0  0  0  0  0  0  0
   19.6848   38.4625   85.7436 H   0  0  0  0  0  0  0  0  0  0  0  0
   21.5158   39.2581   82.7341 H   0  0  0  0  0  0  0  0  0  0  0  0
   21.5736   38.4025   84.2876 H   0  0  0  0  0  0  0  0  0  0  0  0
   21.5075   41.3880   83.9243 H   0  0  0  0  0  0  0  0  0  0  0  0
   22.8897   40.4325   84.4255 H   0  0  0  0  0  0  0  0  0  0  0  0
   19.7652   37.1584   83.6168 H   0  0  0  0  0  0  0  0  0  0  0  0
   19.3986   38.0841   82.1386 H   0  0  0  0  0  0  0  0  0  0  0  0
   17.5405   37.5225   84.4144 H   0  0  0  0  0  0  0  0  0  0  0  0
   17.4360   36.9239   82.7617 H   0  0  0  0  0  0  0  0  0  0  0  0
   28.8145   41.4768   86.2228 H   0  0  0  0  0  0  0  0  0  0  0  0
   26.4080   36.4226   82.3961 H   0  0  0  0  0  0  0  0  0  0  0  0
   26.2717   38.1605   82.5142 H   0  0  0  0  0  0  0  0  0  0  0  0
   26.6244   37.2130   83.9393 H   0  0  0  0  0  0  0  0  0  0  0  0
   28.3039   35.7162   81.3731 H   0  0  0  0  0  0  0  0  0  0  0  0
   30.6531   35.8793   80.8210 H   0  0  0  0  0  0  0  0  0  0  0  0
   32.0038   37.6433   81.7863 H   0  0  0  0  0  0  0  0  0  0  0  0
  1  3  1  0
  1  2  1  0
  3  4  2  0
  4  5  1  0
  4 37  1  0
  5  6  2  0
  5 10  1  0
  6  7  1  0
  7  8  2  0
  7  9  1  0
  8  3  1  0
  9 38  1  0
  9 39  1  0
  9 40  1  0
 10 11  1  0
 11 12  1  0
 11 41  1  0
 11 42  1  0
 12 13  1  0
 12 43  1  0
 12 44  1  0
 13 14  1  0
 13 16  1  0
 14 15  1  0
 14 45  1  0
 14 46  1  0
 15 10  1  0
 15 47  1  0
 15 48  1  0
 16 17  1  0
 16 49  1  0
 16 50  1  0
 17 18  1  0
 17 51  1  0
 17 52  1  0
 18 19  1  0
 20 21  2  0
 21 22  1  0
 21 53  1  0
 22 23  2  0
 23 24  1  0
 23  1  1  0
 24 20  1  0
 25 26  1  0
 25 28  1  0
 26 27  2  0
 26 20  1  0
 29 30  1  0
 29 54  1  0
 29 55  1  0
 29 56  1  0
 30 31  2  0
 31 32  1  0
 31 57  1  0
 32 33  2  0
 32 58  1  0
 33 34  1  0
 33 59  1  0
 34 35  2  0
 34 36  1  0
 35 25  1  0
 35 30  1  0
M  END
>  <minimizedAffinity>  (8) 
-7.38257

>  <mol_id>  (8) 
72174

>  <source_index>  (8) 
7

>  <layer>  (8) 
L1

>  <uniprot>  (8) 
P06239

>  <paff>  (8) 
8.8239000000000001

>  <smiles>  (8) 
Cc1cccc(c1NC(=O)c2cnc(s2)Nc3cc(nc(n3)C)N4CCN(CC4)CCO)Cl

$$$$
L1:P06239:102288
     RDKit          3D

 47 49  0  0  0  0  0  0  0  0999 V2000
   23.8896   39.8319   84.6586 N   0  0  0  0  0  0  0  0  0  0  0  0
   22.6791   39.4305   85.2144 C   0  0  0  0  0  0  0  0  0  0  0  0
   21.9680   40.2184   86.0647 N   0  0  0  0  0  0  0  0  0  0  0  0
   22.3872   38.1484   84.7662 C   0  0  0  0  0  0  0  0  0  0  0  0
   23.4902   37.7342   83.9507 C   0  0  0  0  0  0  0  0  0  0  0  0
   23.8490   36.5601   83.2604 C   0  0  0  0  0  0  0  0  0  0  0  0
   25.0497   36.5343   82.5360 C   0  0  0  0  0  0  0  0  0  0  0  0
   25.4459   35.2885   81.7976 C   0  0  0  0  0  0  0  0  0  0  0  0
   25.8499   37.6835   82.5327 C   0  0  0  0  0  0  0  0  0  0  0  0
   27.1473   37.7195   81.7714 C   0  0  0  0  0  0  0  0  0  0  0  0
   25.5473   38.8218   83.1952 N   0  0  0  0  0  0  0  0  0  0  0  0
   24.3905   38.7930   83.8912 C   0  0  0  0  0  0  0  0  0  0  0  0
   22.4301   40.9691   86.5754 H   0  0  0  0  0  0  0  0  0  0  0  0
   21.2388   39.7666   86.6252 H   0  0  0  0  0  0  0  0  0  0  0  0
   26.2201   42.4833   85.8971 C   0  0  0  0  0  0  0  0  0  0  0  0
   25.7565   43.5782   85.1690 C   0  0  0  0  0  0  0  0  0  0  0  0
   24.6922   43.4290   84.2857 C   0  0  0  0  0  0  0  0  0  0  0  0
   24.2792   44.5103   83.6067 F   0  0  0  0  0  0  0  0  0  0  0  0
   24.0655   42.1990   84.0781 C   0  0  0  0  0  0  0  0  0  0  0  0
   22.9594   42.1244   83.0624 C   0  0  0  0  0  0  0  0  0  0  0  0
   24.5172   41.0973   84.8357 C   0  0  0  0  0  0  0  0  0  0  0  0
   25.5866   41.2283   85.7608 C   0  0  0  0  0  0  0  0  0  0  0  0
   26.0782   40.0683   86.5961 C   0  0  0  0  0  0  0  0  0  0  0  0
   28.5656   42.7821   86.2498 C   0  0  0  0  0  0  0  0  0  0  0  0
   27.2694   42.5360   86.7798 O   0  0  0  0  0  0  0  0  0  0  0  0
   21.1834   37.4152   85.1300 C   0  0  0  0  0  0  0  0  0  0  0  0
   20.4178   36.9720   84.0878 N   0  0  0  0  0  0  0  0  0  0  0  0
   20.8155   37.2310   86.2868 O   0  0  0  0  0  0  0  0  0  0  0  0
   20.5083   37.4117   83.1831 H   0  0  0  0  0  0  0  0  0  0  0  0
   19.5019   36.6320   84.3483 H   0  0  0  0  0  0  0  0  0  0  0  0
   23.2366   35.7299   83.2873 H   0  0  0  0  0  0  0  0  0  0  0  0
   24.6948   34.5388   81.9343 H   0  0  0  0  0  0  0  0  0  0  0  0
   26.3801   34.9308   82.1772 H   0  0  0  0  0  0  0  0  0  0  0  0
   25.5451   35.5081   80.7551 H   0  0  0  0  0  0  0  0  0  0  0  0
   27.3002   36.7800   81.2826 H   0  0  0  0  0  0  0  0  0  0  0  0
   27.9539   37.9040   82.4498 H   0  0  0  0  0  0  0  0  0  0  0  0
   27.1104   38.5000   81.0404 H   0  0  0  0  0  0  0  0  0  0  0  0
   26.2037   44.5010   85.2855 H   0  0  0  0  0  0  0  0  0  0  0  0
   22.8083   43.0905   82.6280 H   0  0  0  0  0  0  0  0  0  0  0  0
   22.0575   41.8031   83.5402 H   0  0  0  0  0  0  0  0  0  0  0  0
   23.2252   41.4265   82.2962 H   0  0  0  0  0  0  0  0  0  0  0  0
   25.4967   39.1978   86.3748 H   0  0  0  0  0  0  0  0  0  0  0  0
   25.9793   40.3089   87.6340 H   0  0  0  0  0  0  0  0  0  0  0  0
   27.1066   39.8771   86.3708 H   0  0  0  0  0  0  0  0  0  0  0  0
   29.2799   42.7961   87.0464 H   0  0  0  0  0  0  0  0  0  0  0  0
   28.5723   43.7272   85.7481 H   0  0  0  0  0  0  0  0  0  0  0  0
   28.8201   42.0082   85.5561 H   0  0  0  0  0  0  0  0  0  0  0  0
  1  2  1  0
  2  3  1  0
  2  4  2  0
  3 13  1  0
  3 14  1  0
  4 26  1  0
  4  5  1  0
  5  6  2  0
  6  7  1  0
  6 31  1  0
  7  8  1  0
  7  9  2  0
  8 32  1  0
  8 33  1  0
  8 34  1  0
  9 10  1  0
  9 11  1  0
 10 35  1  0
 10 36  1  0
 10 37  1  0
 11 12  2  0
 12  1  1  0
 12  5  1  0
 15 16  2  0
 16 17  1  0
 16 38  1  0
 17 18  1  0
 17 19  2  0
 19 20  1  0
 19 21  1  0
 20 39  1  0
 20 40  1  0
 20 41  1  0
 21  1  1  0
 21 22  2  0
 22 23  1  0
 22 15  1  0
 23 42  1  0
 23 43  1  0
 23 44  1  0
 24 25  1  0
 24 45  1  0
 24 46  1  0
 24 47  1  0
 25 15  1  0
 26 27  1  0
 26 28  2  0
 27 29  1  0
 27 30  1  0
M  END
>  <minimizedAffinity>  (9) 
-7.52234

>  <mol_id>  (9) 
102288

>  <source_index>  (9) 
8

>  <layer>  (9) 
L1

>  <uniprot>  (9) 
P06239

>  <paff>  (9) 
7.1249000000000002

>  <smiles>  (9) 
COc1cc(F)c(C)c(-n2c(N)c(C(N)=O)c3cc(C)c(C)nc32)c1C

$$$$
L1:P06239:104832
     RDKit          3D

 41 43  0  0  0  0  0  0  0  0999 V2000
   25.6871   35.4750   81.7783 C   0  0  0  0  0  0  0  0  0  0  0  0
   25.2086   36.6891   82.5210 C   0  0  0  0  0  0  0  0  0  0  0  0
   24.0168   36.6263   83.2588 C   0  0  0  0  0  0  0  0  0  0  0  0
   23.5790   37.7724   83.9500 C   0  0  0  0  0  0  0  0  0  0  0  0
   22.4652   38.1056   84.7893 C   0  0  0  0  0  0  0  0  0  0  0  0
   22.6609   39.4137   85.2176 C   0  0  0  0  0  0  0  0  0  0  0  0
   21.8626   40.1797   86.0033 N   0  0  0  0  0  0  0  0  0  0  0  0
   23.8321   39.8925   84.6465 N   0  0  0  0  0  0  0  0  0  0  0  0
   24.3911   38.8976   83.8660 C   0  0  0  0  0  0  0  0  0  0  0  0
   25.5501   39.0063   83.1817 N   0  0  0  0  0  0  0  0  0  0  0  0
   25.9264   37.8924   82.5141 C   0  0  0  0  0  0  0  0  0  0  0  0
   27.2125   38.0194   81.7431 C   0  0  0  0  0  0  0  0  0  0  0  0
   21.1237   39.7211   86.5442 H   0  0  0  0  0  0  0  0  0  0  0  0
   22.1664   41.0621   86.4064 H   0  0  0  0  0  0  0  0  0  0  0  0
   24.4017   41.1748   84.8437 C   0  0  0  0  0  0  0  0  0  0  0  0
   25.4491   41.3386   85.7807 C   0  0  0  0  0  0  0  0  0  0  0  0
   26.0245   40.2025   86.5835 C   0  0  0  0  0  0  0  0  0  0  0  0
   25.9833   42.6236   85.9605 C   0  0  0  0  0  0  0  0  0  0  0  0
   25.5138   43.6979   85.2089 C   0  0  0  0  0  0  0  0  0  0  0  0
   26.0572   44.9080   85.4058 F   0  0  0  0  0  0  0  0  0  0  0  0
   24.4991   43.5258   84.2731 C   0  0  0  0  0  0  0  0  0  0  0  0
   24.0700   44.6209   83.5669 O   0  0  0  0  0  0  0  0  0  0  0  0
   23.9321   42.2617   84.0828 C   0  0  0  0  0  0  0  0  0  0  0  0
   22.6068   42.1250   82.9695 Cl  0  0  0  0  0  0  0  0  0  0  0  0
   23.3783   44.3164   82.9504 H   0  0  0  0  0  0  0  0  0  0  0  0
   21.3216   37.2900   85.1726 C   0  0  0  0  0  0  0  0  0  0  0  0
   20.6010   36.7513   84.1437 N   0  0  0  0  0  0  0  0  0  0  0  0
   20.9618   37.1173   86.3337 O   0  0  0  0  0  0  0  0  0  0  0  0
   20.6565   37.1718   83.2270 H   0  0  0  0  0  0  0  0  0  0  0  0
   19.7131   36.3490   84.4132 H   0  0  0  0  0  0  0  0  0  0  0  0
   24.9916   34.6740   81.9185 H   0  0  0  0  0  0  0  0  0  0  0  0
   26.6466   35.1837   82.1516 H   0  0  0  0  0  0  0  0  0  0  0  0
   25.7640   35.7021   80.7355 H   0  0  0  0  0  0  0  0  0  0  0  0
   23.4688   35.7525   83.2944 H   0  0  0  0  0  0  0  0  0  0  0  0
   27.6043   39.0078   81.8633 H   0  0  0  0  0  0  0  0  0  0  0  0
   27.0265   37.8332   80.7060 H   0  0  0  0  0  0  0  0  0  0  0  0
   27.9212   37.3075   82.1118 H   0  0  0  0  0  0  0  0  0  0  0  0
   25.5144   39.2955   86.3344 H   0  0  0  0  0  0  0  0  0  0  0  0
   25.9024   40.4054   87.6270 H   0  0  0  0  0  0  0  0  0  0  0  0
   27.0657   40.0991   86.3597 H   0  0  0  0  0  0  0  0  0  0  0  0
   26.7308   42.7739   86.6559 H   0  0  0  0  0  0  0  0  0  0  0  0
  1  2  1  0
  1 31  1  0
  1 32  1  0
  1 33  1  0
  2  3  2  0
  3  4  1  0
  3 34  1  0
  4  5  1  0
  5 26  1  0
  5  6  2  0
  6  7  1  0
  6  8  1  0
  7 13  1  0
  7 14  1  0
  8 15  1  0
  8  9  1  0
  9 10  1  0
  9  4  2  0
 10 11  2  0
 11 12  1  0
 11  2  1  0
 12 35  1  0
 12 36  1  0
 12 37  1  0
 15 16  2  0
 16 17  1  0
 16 18  1  0
 17 38  1  0
 17 39  1  0
 17 40  1  0
 18 19  2  0
 18 41  1  0
 19 20  1  0
 19 21  1  0
 21 22  1  0
 21 23  2  0
 22 25  1  0
 23 24  1  0
 23 15  1  0
 26 27  1  0
 26 28  2  0
 27 29  1  0
 27 30  1  0
M  END
>  <minimizedAffinity>  (10) 
-8.20561

>  <mol_id>  (10) 
104832

>  <source_index>  (10) 
9

>  <layer>  (10) 
L1

>  <uniprot>  (10) 
P06239

>  <paff>  (10) 
7.3010000000000002

>  <smiles>  (10) 
Cc1cc2c(C(N)=O)c(N)n(-c3c(C)cc(F)c(O)c3Cl)c2nc1C

$$$$
