L1:P00338:6096
     RDKit          3D

 69 74  0  0  0  0  0  0  0  0999 V2000
  -13.6070  -14.9333  -56.8105 C   0  0  0  0  0  0  0  0  0  0  0  0
  -14.7340  -15.3919  -57.3635 N   0  0  0  0  0  0  0  0  0  0  0  0
  -15.7307  -14.5937  -56.9062 N   0  0  0  0  0  0  0  0  0  0  0  0
  -15.2294  -13.5599  -56.1298 C   0  0  0  0  0  0  0  0  0  0  0  0
  -13.8593  -13.7796  -56.0078 C   0  0  0  0  0  0  0  0  0  0  0  0
  -10.0550  -15.4854  -57.9441 C   0  0  0  0  0  0  0  0  0  0  0  0
  -11.2717  -14.8643  -57.6452 C   0  0  0  0  0  0  0  0  0  0  0  0
  -12.3388  -15.6042  -57.1059 C   0  0  0  0  0  0  0  0  0  0  0  0
  -12.1729  -16.9797  -56.8892 C   0  0  0  0  0  0  0  0  0  0  0  0
  -10.9577  -17.6014  -57.1858 C   0  0  0  0  0  0  0  0  0  0  0  0
   -9.9084  -16.8519  -57.7077 C   0  0  0  0  0  0  0  0  0  0  0  0
   -8.7517  -17.4735  -57.9853 F   0  0  0  0  0  0  0  0  0  0  0  0
   -8.0669  -14.0735  -58.9333 C   0  0  0  0  0  0  0  0  0  0  0  0
   -8.9762  -14.7239  -58.4940 C   0  0  0  0  0  0  0  0  0  0  0  0
   -5.6516  -13.6036  -58.7372 C   0  0  0  0  0  0  0  0  0  0  0  0
   -6.9658  -13.2724  -59.4359 C   0  0  0  0  0  0  0  0  0  0  0  0
   -7.2466  -11.7609  -59.5571 C   0  0  0  0  0  0  0  0  0  0  0  0
   -6.7731  -11.7481  -60.9303 O   0  0  0  0  0  0  0  0  0  0  0  0
   -6.8538  -13.1980  -60.9736 C   0  0  0  0  0  0  0  0  0  0  0  0
  -17.0611  -14.8992  -57.2499 C   0  0  0  0  0  0  0  0  0  0  0  0
  -17.8896  -15.5544  -56.4656 N   0  0  0  0  0  0  0  0  0  0  0  0
  -19.1319  -15.6945  -57.0891 C   0  0  0  0  0  0  0  0  0  0  0  0
  -19.1955  -15.1181  -58.3469 C   0  0  0  0  0  0  0  0  0  0  0  0
  -17.6871  -14.4199  -58.7648 S   0  0  0  0  0  0  0  0  0  0  0  0
  -20.2344  -16.3962  -56.4368 C   0  0  0  0  0  0  0  0  0  0  0  0
  -21.1281  -17.0111  -57.0001 O   0  0  0  0  0  0  0  0  0  0  0  0
  -20.2303  -16.3245  -55.0835 O   0  0  0  0  0  0  0  0  0  0  0  0
  -21.0366  -16.8253  -54.8419 H   0  0  0  0  0  0  0  0  0  0  0  0
  -16.0759  -12.4445  -55.5912 C   0  0  0  0  0  0  0  0  0  0  0  0
  -15.9601  -11.1421  -56.3386 C   0  0  0  0  0  0  0  0  0  0  0  0
  -15.8498  -11.1359  -57.8450 C   0  0  0  0  0  0  0  0  0  0  0  0
  -17.0932  -10.6112  -57.1854 C   0  0  0  0  0  0  0  0  0  0  0  0
  -12.8574  -12.9349  -55.2848 C   0  0  0  0  0  0  0  0  0  0  0  0
  -12.8136  -13.3547  -53.8285 C   0  0  0  0  0  0  0  0  0  0  0  0
  -13.4367  -12.6299  -52.7967 C   0  0  0  0  0  0  0  0  0  0  0  0
  -13.4008  -13.0832  -51.4732 C   0  0  0  0  0  0  0  0  0  0  0  0
  -12.7494  -14.2801  -51.1714 C   0  0  0  0  0  0  0  0  0  0  0  0
  -12.1429  -15.0145  -52.1787 C   0  0  0  0  0  0  0  0  0  0  0  0
  -11.5150  -16.1671  -51.9140 F   0  0  0  0  0  0  0  0  0  0  0  0
  -12.1792  -14.5647  -53.4972 C   0  0  0  0  0  0  0  0  0  0  0  0
  -12.6758  -14.9230  -49.5441 S   0  0  0  0  0  0  0  0  0  0  0  0
  -13.6472  -13.8882  -48.6321 N   0  0  0  0  0  0  0  0  0  0  0  0
  -13.3682  -16.1897  -49.5067 O   0  0  0  0  0  0  0  0  0  0  0  0
  -11.3442  -14.7284  -49.0199 O   0  0  0  0  0  0  0  0  0  0  0  0
  -14.4156  -14.4297  -48.2326 H   0  0  0  0  0  0  0  0  0  0  0  0
  -13.0668  -13.4446  -47.9169 H   0  0  0  0  0  0  0  0  0  0  0  0
  -11.3874  -13.8542  -57.8220 H   0  0  0  0  0  0  0  0  0  0  0  0
  -12.9538  -17.5364  -56.5080 H   0  0  0  0  0  0  0  0  0  0  0  0
  -10.8388  -18.6128  -57.0184 H   0  0  0  0  0  0  0  0  0  0  0  0
   -5.8087  -13.6373  -57.6793 H   0  0  0  0  0  0  0  0  0  0  0  0
   -4.9263  -12.8510  -58.9662 H   0  0  0  0  0  0  0  0  0  0  0  0
   -5.2975  -14.5549  -59.0757 H   0  0  0  0  0  0  0  0  0  0  0  0
   -6.6621  -11.1587  -58.8933 H   0  0  0  0  0  0  0  0  0  0  0  0
   -8.2214  -11.3832  -59.3293 H   0  0  0  0  0  0  0  0  0  0  0  0
   -5.9762  -13.6679  -61.3660 H   0  0  0  0  0  0  0  0  0  0  0  0
   -7.5960  -13.6699  -61.5829 H   0  0  0  0  0  0  0  0  0  0  0  0
  -20.0340  -15.1101  -58.9484 H   0  0  0  0  0  0  0  0  0  0  0  0
  -15.7896  -12.2710  -54.5749 H   0  0  0  0  0  0  0  0  0  0  0  0
  -17.0924  -12.7615  -55.6969 H   0  0  0  0  0  0  0  0  0  0  0  0
  -15.3832  -10.7523  -55.5261 H   0  0  0  0  0  0  0  0  0  0  0  0
  -15.8807  -12.0580  -58.3869 H   0  0  0  0  0  0  0  0  0  0  0  0
  -15.1457  -10.7447  -58.5493 H   0  0  0  0  0  0  0  0  0  0  0  0
  -18.0089  -11.1599  -57.2578 H   0  0  0  0  0  0  0  0  0  0  0  0
  -17.6398   -9.6923  -57.2260 H   0  0  0  0  0  0  0  0  0  0  0  0
  -13.1411  -11.9054  -55.3526 H   0  0  0  0  0  0  0  0  0  0  0  0
  -11.8914  -13.0638  -55.7264 H   0  0  0  0  0  0  0  0  0  0  0  0
  -13.9280  -11.7500  -53.0191 H   0  0  0  0  0  0  0  0  0  0  0  0
  -13.8534  -12.5356  -50.7246 H   0  0  0  0  0  0  0  0  0  0  0  0
  -11.7348  -15.1269  -54.2398 H   0  0  0  0  0  0  0  0  0  0  0  0
  1  2  2  0
  2  3  1  0
  3 20  1  0
  3  4  1  0
  4 29  1  0
  4  5  2  0
  5 33  1  0
  5  1  1  0
  6  7  2  0
  7  8  1  0
  7 47  1  0
  8  1  1  0
  8  9  2  0
  9 10  1  0
  9 48  1  0
 10 11  2  0
 10 49  1  0
 11 12  1  0
 11  6  1  0
 13 14  3  0
 14  6  1  0
 15 16  1  0
 15 50  1  0
 15 51  1  0
 15 52  1  0
 16 13  1  0
 16 17  1  0
 17 18  1  0
 17 53  1  0
 17 54  1  0
 18 19  1  0
 19 16  1  0
 19 55  1  0
 19 56  1  0
 20 21  2  0
 21 22  1  0
 22 25  1  0
 22 23  2  0
 23 24  1  0
 23 57  1  0
 24 20  1  0
 25 26  2  0
 25 27  1  0
 27 28  1  0
 29 30  1  0
 29 58  1  0
 29 59  1  0
 30 31  1  0
 30 60  1  0
 31 32  1  0
 31 61  1  0
 31 62  1  0
 32 30  1  0
 32 63  1  0
 32 64  1  0
 33 34  1  0
 33 65  1  0
 33 66  1  0
 34 35  2  0
 35 36  1  0
 35 67  1  0
 36 37  2  0
 36 68  1  0
 37 41  1  0
 37 38  1  0
 38 39  1  0
 38 40  2  0
 40 34  1  0
 40 69  1  0
 41 42  1  0
 41 43  2  0
 41 44  2  0
 42 45  1  0
 42 46  1  0
M  END
>  <minimizedAffinity>  (1) 
-6.53286

>  <mol_id>  (1) 
6096

>  <source_index>  (1) 
0

>  <layer>  (1) 
L1

>  <uniprot>  (1) 
P00338

>  <paff>  (1) 
9

>  <smiles>  (1) 
CC1(C#Cc2cc(-c3nn(-c4nc(C(=O)O)cs4)c(CC4CC4)c3Cc3ccc(S(N)(=O)=O)c(F)c3)ccc2F)COC1

$$$$
L1:P00338:37515
     RDKit          3D

 66 71  0  0  0  0  0  0  0  0999 V2000
  -11.3998  -14.8450  -57.7692 C   0  0  0  0  0  0  0  0  0  0  0  0
  -10.5938  -15.6137  -56.8822 C   0  0  0  0  0  0  0  0  0  0  0  0
   -9.3118  -15.6066  -57.2535 N   0  0  0  0  0  0  0  0  0  0  0  0
   -9.2450  -14.8134  -58.3530 N   0  0  0  0  0  0  0  0  0  0  0  0
  -10.4959  -14.2978  -58.6770 C   0  0  0  0  0  0  0  0  0  0  0  0
  -11.0036  -16.3638  -55.7022 C   0  0  0  0  0  0  0  0  0  0  0  0
  -11.4110  -17.6995  -55.8109 C   0  0  0  0  0  0  0  0  0  0  0  0
  -11.7947  -18.4096  -54.6720 C   0  0  0  0  0  0  0  0  0  0  0  0
  -11.7786  -17.7860  -53.4232 C   0  0  0  0  0  0  0  0  0  0  0  0
  -11.3838  -16.4513  -53.3112 C   0  0  0  0  0  0  0  0  0  0  0  0
  -10.9998  -15.7396  -54.4487 C   0  0  0  0  0  0  0  0  0  0  0  0
  -11.3867  -15.8047  -52.0361 C   0  0  0  0  0  0  0  0  0  0  0  0
  -11.4124  -15.2564  -50.9677 C   0  0  0  0  0  0  0  0  0  0  0  0
  -11.4654  -14.5923  -49.6843 C   0  0  0  0  0  0  0  0  0  0  0  0
  -12.3396  -15.2448  -48.6059 C   0  0  0  0  0  0  0  0  0  0  0  0
  -13.0285  -13.9912  -48.3524 O   0  0  0  0  0  0  0  0  0  0  0  0
  -12.4621  -13.4310  -49.5649 C   0  0  0  0  0  0  0  0  0  0  0  0
   -7.9963  -14.6437  -58.9830 C   0  0  0  0  0  0  0  0  0  0  0  0
   -7.6871  -15.1450  -60.1589 N   0  0  0  0  0  0  0  0  0  0  0  0
   -6.3757  -14.8059  -60.4984 C   0  0  0  0  0  0  0  0  0  0  0  0
   -5.7231  -14.0546  -59.5358 C   0  0  0  0  0  0  0  0  0  0  0  0
   -6.7628  -13.7468  -58.2098 S   0  0  0  0  0  0  0  0  0  0  0  0
   -5.8014  -15.1894  -61.7869 C   0  0  0  0  0  0  0  0  0  0  0  0
   -5.9577  -16.2666  -62.3485 O   0  0  0  0  0  0  0  0  0  0  0  0
   -5.0488  -14.2291  -62.3776 O   0  0  0  0  0  0  0  0  0  0  0  0
   -4.7427  -14.6740  -63.1956 H   0  0  0  0  0  0  0  0  0  0  0  0
  -12.8795  -14.6353  -57.7175 C   0  0  0  0  0  0  0  0  0  0  0  0
  -13.6213  -11.7246  -54.6121 C   0  0  0  0  0  0  0  0  0  0  0  0
  -13.7638  -13.0847  -54.3300 C   0  0  0  0  0  0  0  0  0  0  0  0
  -13.5251  -14.0271  -55.3355 C   0  0  0  0  0  0  0  0  0  0  0  0
  -13.1375  -13.6227  -56.6244 C   0  0  0  0  0  0  0  0  0  0  0  0
  -13.0108  -12.2494  -56.8861 C   0  0  0  0  0  0  0  0  0  0  0  0
  -13.2489  -11.3117  -55.8823 C   0  0  0  0  0  0  0  0  0  0  0  0
  -13.1284  -10.0114  -56.1802 F   0  0  0  0  0  0  0  0  0  0  0  0
  -14.2012  -11.3605  -51.9842 N   0  0  0  0  0  0  0  0  0  0  0  0
  -13.9062  -10.4923  -53.4001 S   0  0  0  0  0  0  0  0  0  0  0  0
  -12.6785   -9.7831  -53.1273 O   0  0  0  0  0  0  0  0  0  0  0  0
  -15.1547   -9.8318  -53.6983 O   0  0  0  0  0  0  0  0  0  0  0  0
  -15.1437  -11.1430  -51.6541 H   0  0  0  0  0  0  0  0  0  0  0  0
  -13.4707  -11.1347  -51.3039 H   0  0  0  0  0  0  0  0  0  0  0  0
  -10.7472  -13.3232  -59.7874 C   0  0  0  0  0  0  0  0  0  0  0  0
  -10.4067  -11.9058  -59.4166 C   0  0  0  0  0  0  0  0  0  0  0  0
  -10.5263  -10.8002  -60.4326 C   0  0  0  0  0  0  0  0  0  0  0  0
   -9.1692  -11.2367  -59.9575 C   0  0  0  0  0  0  0  0  0  0  0  0
  -11.4275  -18.1594  -56.7346 H   0  0  0  0  0  0  0  0  0  0  0  0
  -12.0901  -19.3951  -54.7532 H   0  0  0  0  0  0  0  0  0  0  0  0
  -12.0590  -18.3125  -52.5811 H   0  0  0  0  0  0  0  0  0  0  0  0
  -10.7126  -14.7518  -54.3659 H   0  0  0  0  0  0  0  0  0  0  0  0
  -10.4059  -14.4775  -49.5887 H   0  0  0  0  0  0  0  0  0  0  0  0
  -11.7869  -15.6105  -47.7659 H   0  0  0  0  0  0  0  0  0  0  0  0
  -12.9063  -16.1208  -48.8433 H   0  0  0  0  0  0  0  0  0  0  0  0
  -11.9979  -12.4774  -49.4232 H   0  0  0  0  0  0  0  0  0  0  0  0
  -13.1034  -13.1982  -50.3892 H   0  0  0  0  0  0  0  0  0  0  0  0
   -4.7474  -13.7262  -59.6072 H   0  0  0  0  0  0  0  0  0  0  0  0
  -13.2320  -14.2622  -58.6563 H   0  0  0  0  0  0  0  0  0  0  0  0
  -13.3915  -15.5538  -57.5196 H   0  0  0  0  0  0  0  0  0  0  0  0
  -14.0435  -13.3926  -53.3855 H   0  0  0  0  0  0  0  0  0  0  0  0
  -13.6350  -15.0321  -55.1283 H   0  0  0  0  0  0  0  0  0  0  0  0
  -12.7391  -11.9312  -57.8295 H   0  0  0  0  0  0  0  0  0  0  0  0
  -11.7834  -13.3668  -60.0508 H   0  0  0  0  0  0  0  0  0  0  0  0
  -10.1142  -13.6002  -60.6044 H   0  0  0  0  0  0  0  0  0  0  0  0
  -10.8006  -12.0859  -58.4382 H   0  0  0  0  0  0  0  0  0  0  0  0
  -10.9134   -9.8461  -60.1415 H   0  0  0  0  0  0  0  0  0  0  0  0
  -10.9963  -10.6997  -61.3886 H   0  0  0  0  0  0  0  0  0  0  0  0
   -8.5905  -10.5935  -59.3281 H   0  0  0  0  0  0  0  0  0  0  0  0
   -8.2736  -11.5755  -60.4350 H   0  0  0  0  0  0  0  0  0  0  0  0
  1  2  1  0
  2  6  1  0
  2  3  2  0
  3  4  1  0
  4 18  1  0
  4  5  1  0
  5 41  1  0
  5  1  2  0
  6  7  2  0
  7  8  1  0
  7 45  1  0
  8  9  2  0
  8 46  1  0
  9 10  1  0
  9 47  1  0
 10 12  1  0
 10 11  2  0
 11  6  1  0
 11 48  1  0
 12 13  3  0
 13 14  1  0
 14 15  1  0
 14 49  1  0
 15 16  1  0
 15 50  1  0
 15 51  1  0
 16 17  1  0
 17 14  1  0
 17 52  1  0
 17 53  1  0
 18 19  2  0
 19 20  1  0
 20 23  1  0
 20 21  2  0
 21 22  1  0
 21 54  1  0
 22 18  1  0
 23 24  2  0
 23 25  1  0
 25 26  1  0
 27  1  1  0
 27 55  1  0
 27 56  1  0
 28 29  2  0
 29 30  1  0
 29 57  1  0
 30 31  2  0
 30 58  1  0
 31 27  1  0
 31 32  1  0
 32 33  2  0
 32 59  1  0
 33 34  1  0
 33 28  1  0
 35 36  1  0
 35 39  1  0
 35 40  1  0
 36 37  2  0
 36 38  2  0
 36 28  1  0
 41 42  1  0
 41 60  1  0
 41 61  1  0
 42 43  1  0
 42 62  1  0
 43 44  1  0
 43 63  1  0
 43 64  1  0
 44 42  1  0
 44 65  1  0
 44 66  1  0
M  END
>  <minimizedAffinity>  (2) 
-6.47546

>  <mol_id>  (2) 
37515

>  <source_index>  (2) 
1

>  <layer>  (2) 
L1

>  <uniprot>  (2) 
P00338

>  <paff>  (2) 
9

>  <smiles>  (2) 
NS(=O)(=O)c1ccc(Cc2c(-c3cccc(C#CC4COC4)c3)nn(-c3nc(C(=O)O)cs3)c2CC2CC2)cc1F

$$$$
L1:P00338:43836
     RDKit          3D

 65 70  0  0  0  0  0  0  0  0999 V2000
  -13.7909  -13.7741  -56.0114 C   0  0  0  0  0  0  0  0  0  0  0  0
  -15.1633  -13.5360  -56.1314 C   0  0  0  0  0  0  0  0  0  0  0  0
  -15.6928  -14.6299  -56.8189 N   0  0  0  0  0  0  0  0  0  0  0  0
  -14.6950  -15.4003  -57.3216 N   0  0  0  0  0  0  0  0  0  0  0  0
  -13.5699  -14.9700  -56.7539 C   0  0  0  0  0  0  0  0  0  0  0  0
  -12.3283  -15.7048  -56.9764 C   0  0  0  0  0  0  0  0  0  0  0  0
  -12.3135  -17.1064  -56.9712 C   0  0  0  0  0  0  0  0  0  0  0  0
  -11.1182  -17.7958  -57.1838 C   0  0  0  0  0  0  0  0  0  0  0  0
   -9.9414  -17.0861  -57.4091 C   0  0  0  0  0  0  0  0  0  0  0  0
   -8.8064  -17.7742  -57.6049 F   0  0  0  0  0  0  0  0  0  0  0  0
   -9.9405  -15.6912  -57.4338 C   0  0  0  0  0  0  0  0  0  0  0  0
  -11.1383  -15.0014  -57.2238 C   0  0  0  0  0  0  0  0  0  0  0  0
   -8.7304  -14.9659  -57.6675 C   0  0  0  0  0  0  0  0  0  0  0  0
   -7.7106  -14.3621  -57.8631 C   0  0  0  0  0  0  0  0  0  0  0  0
   -6.4907  -13.6476  -58.0968 C   0  0  0  0  0  0  0  0  0  0  0  0
   -6.4500  -12.6274  -59.2046 C   0  0  0  0  0  0  0  0  0  0  0  0
   -5.7208  -13.9302  -59.3599 C   0  0  0  0  0  0  0  0  0  0  0  0
  -16.9987  -15.1164  -57.0504 C   0  0  0  0  0  0  0  0  0  0  0  0
  -17.9161  -15.2124  -56.1068 N   0  0  0  0  0  0  0  0  0  0  0  0
  -19.1221  -15.6642  -56.6418 C   0  0  0  0  0  0  0  0  0  0  0  0
  -19.0823  -15.8768  -58.0083 C   0  0  0  0  0  0  0  0  0  0  0  0
  -17.5309  -15.4997  -58.6226 S   0  0  0  0  0  0  0  0  0  0  0  0
  -20.3181  -15.8787  -55.8330 C   0  0  0  0  0  0  0  0  0  0  0  0
  -21.4636  -15.3991  -56.3686 O   0  0  0  0  0  0  0  0  0  0  0  0
  -20.3411  -16.4475  -54.7488 O   0  0  0  0  0  0  0  0  0  0  0  0
  -22.1495  -15.6305  -55.7131 H   0  0  0  0  0  0  0  0  0  0  0  0
  -12.7701  -12.9710  -55.2639 C   0  0  0  0  0  0  0  0  0  0  0  0
  -12.7421  -14.3654  -51.1754 C   0  0  0  0  0  0  0  0  0  0  0  0
  -13.4347  -13.2009  -51.5094 C   0  0  0  0  0  0  0  0  0  0  0  0
  -13.4385  -12.7584  -52.8350 C   0  0  0  0  0  0  0  0  0  0  0  0
  -12.7384  -13.4586  -53.8332 C   0  0  0  0  0  0  0  0  0  0  0  0
  -12.0671  -14.6396  -53.4749 C   0  0  0  0  0  0  0  0  0  0  0  0
  -12.0695  -15.0823  -52.1530 C   0  0  0  0  0  0  0  0  0  0  0  0
  -11.4497  -16.2332  -51.8613 F   0  0  0  0  0  0  0  0  0  0  0  0
  -13.7275  -13.8650  -48.7045 N   0  0  0  0  0  0  0  0  0  0  0  0
  -12.7054  -14.9345  -49.5125 S   0  0  0  0  0  0  0  0  0  0  0  0
  -11.3755  -14.7117  -48.9912 O   0  0  0  0  0  0  0  0  0  0  0  0
  -13.3405  -16.2300  -49.4605 O   0  0  0  0  0  0  0  0  0  0  0  0
  -14.0177  -13.0696  -49.2709 H   0  0  0  0  0  0  0  0  0  0  0  0
  -14.5376  -14.3914  -48.3690 H   0  0  0  0  0  0  0  0  0  0  0  0
  -15.9487  -12.3443  -55.6697 C   0  0  0  0  0  0  0  0  0  0  0  0
  -15.9257  -11.1556  -56.5976 C   0  0  0  0  0  0  0  0  0  0  0  0
  -16.0733   -9.7565  -56.0508 C   0  0  0  0  0  0  0  0  0  0  0  0
  -14.7593  -10.1984  -56.6280 C   0  0  0  0  0  0  0  0  0  0  0  0
  -13.1881  -17.6299  -56.8099 H   0  0  0  0  0  0  0  0  0  0  0  0
  -11.1068  -18.8277  -57.1740 H   0  0  0  0  0  0  0  0  0  0  0  0
  -11.1480  -13.9698  -57.2507 H   0  0  0  0  0  0  0  0  0  0  0  0
   -6.2589  -13.6409  -57.0522 H   0  0  0  0  0  0  0  0  0  0  0  0
   -5.8999  -11.7188  -59.0749 H   0  0  0  0  0  0  0  0  0  0  0  0
   -7.1865  -12.1006  -59.7747 H   0  0  0  0  0  0  0  0  0  0  0  0
   -4.6511  -13.9497  -59.3410 H   0  0  0  0  0  0  0  0  0  0  0  0
   -5.7228  -14.7156  -60.0866 H   0  0  0  0  0  0  0  0  0  0  0  0
  -19.8752  -16.2146  -58.5759 H   0  0  0  0  0  0  0  0  0  0  0  0
  -11.8074  -13.1019  -55.7123 H   0  0  0  0  0  0  0  0  0  0  0  0
  -13.0238  -11.9320  -55.2941 H   0  0  0  0  0  0  0  0  0  0  0  0
  -13.9404  -12.6704  -50.7829 H   0  0  0  0  0  0  0  0  0  0  0  0
  -13.9628  -11.9053  -53.0848 H   0  0  0  0  0  0  0  0  0  0  0  0
  -11.5682  -15.1837  -54.1960 H   0  0  0  0  0  0  0  0  0  0  0  0
  -15.5528  -12.0337  -54.7254 H   0  0  0  0  0  0  0  0  0  0  0  0
  -16.9691  -12.6632  -55.6242 H   0  0  0  0  0  0  0  0  0  0  0  0
  -16.4314  -11.7480  -57.3313 H   0  0  0  0  0  0  0  0  0  0  0  0
  -16.1691   -9.6020  -54.9964 H   0  0  0  0  0  0  0  0  0  0  0  0
  -16.7421   -8.9411  -56.2316 H   0  0  0  0  0  0  0  0  0  0  0  0
  -13.9196  -10.3584  -55.9845 H   0  0  0  0  0  0  0  0  0  0  0  0
  -14.1057   -9.8277  -57.3898 H   0  0  0  0  0  0  0  0  0  0  0  0
  1  2  2  0
  2 41  1  0
  2  3  1  0
  3  4  1  0
  3 18  1  0
  4  5  2  0
  5  6  1  0
  5  1  1  0
  6  7  2  0
  7  8  1  0
  7 45  1  0
  8  9  2  0
  8 46  1  0
  9 10  1  0
  9 11  1  0
 11 12  2  0
 11 13  1  0
 12  6  1  0
 12 47  1  0
 13 14  3  0
 14 15  1  0
 15 16  1  0
 15 48  1  0
 16 17  1  0
 16 49  1  0
 16 50  1  0
 17 15  1  0
 17 51  1  0
 17 52  1  0
 18 19  2  0
 19 20  1  0
 20 21  2  0
 20 23  1  0
 21 22  1  0
 21 53  1  0
 22 18  1  0
 23 24  1  0
 23 25  2  0
 24 26  1  0
 27  1  1  0
 27 54  1  0
 27 55  1  0
 28 29  2  0
 29 30  1  0
 29 56  1  0
 30 31  2  0
 30 57  1  0
 31 27  1  0
 31 32  1  0
 32 33  2  0
 32 58  1  0
 33 34  1  0
 33 28  1  0
 35 36  1  0
 35 39  1  0
 35 40  1  0
 36 37  2  0
 36 38  2  0
 36 28  1  0
 41 42  1  0
 41 59  1  0
 41 60  1  0
 42 43  1  0
 42 61  1  0
 43 44  1  0
 43 62  1  0
 43 63  1  0
 44 42  1  0
 44 64  1  0
 44 65  1  0
M  END
>  <minimizedAffinity>  (3) 
-6.68962

>  <mol_id>  (3) 
43836

>  <source_index>  (3) 
2

>  <layer>  (3) 
L1

>  <uniprot>  (3) 
P00338

>  <paff>  (3) 
9

>  <smiles>  (3) 
NS(=O)(=O)c1ccc(Cc2c(CC3CC3)n(nc2-c2ccc(F)c(c2)C#CC2CC2)-c2nc(cs2)C(O)=O)cc1F

$$$$
L1:P00338:47131
     RDKit          3D

 67 72  0  0  0  0  0  0  0  0999 V2000
  -11.4819  -14.8676  -57.6812 C   0  0  0  0  0  0  0  0  0  0  0  0
  -10.6386  -15.6565  -56.8470 C   0  0  0  0  0  0  0  0  0  0  0  0
   -9.3594  -15.5611  -57.2118 N   0  0  0  0  0  0  0  0  0  0  0  0
   -9.3438  -14.7787  -58.3216 N   0  0  0  0  0  0  0  0  0  0  0  0
  -10.6206  -14.3185  -58.6286 C   0  0  0  0  0  0  0  0  0  0  0  0
  -11.0037  -16.4944  -55.7102 C   0  0  0  0  0  0  0  0  0  0  0  0
  -11.1613  -17.8782  -55.8725 C   0  0  0  0  0  0  0  0  0  0  0  0
  -11.4957  -18.6782  -54.7794 C   0  0  0  0  0  0  0  0  0  0  0  0
  -11.6659  -18.0951  -53.5258 C   0  0  0  0  0  0  0  0  0  0  0  0
  -11.9861  -18.8842  -52.4884 F   0  0  0  0  0  0  0  0  0  0  0  0
  -11.5060  -16.7204  -53.3454 C   0  0  0  0  0  0  0  0  0  0  0  0
  -11.1684  -15.9195  -54.4404 C   0  0  0  0  0  0  0  0  0  0  0  0
  -11.6814  -16.1383  -52.0504 C   0  0  0  0  0  0  0  0  0  0  0  0
  -11.8575  -15.6217  -50.9801 C   0  0  0  0  0  0  0  0  0  0  0  0
  -12.1085  -14.9548  -49.7175 C   0  0  0  0  0  0  0  0  0  0  0  0
  -11.2138  -15.5069  -48.7216 O   0  0  0  0  0  0  0  0  0  0  0  0
  -13.5874  -14.8383  -49.3007 C   0  0  0  0  0  0  0  0  0  0  0  0
  -13.5844  -13.3993  -49.4650 O   0  0  0  0  0  0  0  0  0  0  0  0
  -12.1769  -13.4146  -49.7935 C   0  0  0  0  0  0  0  0  0  0  0  0
  -10.3219  -15.3706  -49.0858 H   0  0  0  0  0  0  0  0  0  0  0  0
   -8.1133  -14.5606  -58.9748 C   0  0  0  0  0  0  0  0  0  0  0  0
   -7.6719  -15.2866  -59.9793 N   0  0  0  0  0  0  0  0  0  0  0  0
   -6.4211  -14.8272  -60.3961 C   0  0  0  0  0  0  0  0  0  0  0  0
   -5.9457  -13.7536  -59.6612 C   0  0  0  0  0  0  0  0  0  0  0  0
   -7.0770  -13.3056  -58.4543 S   0  0  0  0  0  0  0  0  0  0  0  0
   -5.7204  -15.4511  -61.5157 C   0  0  0  0  0  0  0  0  0  0  0  0
   -5.9254  -15.2343  -62.7011 O   0  0  0  0  0  0  0  0  0  0  0  0
   -4.7562  -16.3355  -61.1604 O   0  0  0  0  0  0  0  0  0  0  0  0
   -4.4040  -16.6276  -62.0261 H   0  0  0  0  0  0  0  0  0  0  0  0
  -12.9647  -14.7040  -57.5705 C   0  0  0  0  0  0  0  0  0  0  0  0
  -13.6817  -11.7392  -54.5109 C   0  0  0  0  0  0  0  0  0  0  0  0
  -13.8387  -13.0971  -54.2204 C   0  0  0  0  0  0  0  0  0  0  0  0
  -13.6163  -14.0468  -55.2214 C   0  0  0  0  0  0  0  0  0  0  0  0
  -13.2385  -13.6536  -56.5177 C   0  0  0  0  0  0  0  0  0  0  0  0
  -13.0685  -12.2827  -56.7788 C   0  0  0  0  0  0  0  0  0  0  0  0
  -13.2974  -11.3368  -55.7812 C   0  0  0  0  0  0  0  0  0  0  0  0
  -13.1451  -10.0401  -56.0851 F   0  0  0  0  0  0  0  0  0  0  0  0
  -14.1606  -11.4537  -51.8814 N   0  0  0  0  0  0  0  0  0  0  0  0
  -13.9186  -10.5294  -53.2635 S   0  0  0  0  0  0  0  0  0  0  0  0
  -12.6664   -9.8411  -53.0375 O   0  0  0  0  0  0  0  0  0  0  0  0
  -15.1459   -9.8113  -53.5082 O   0  0  0  0  0  0  0  0  0  0  0  0
  -15.1165  -11.3334  -51.5474 H   0  0  0  0  0  0  0  0  0  0  0  0
  -13.4470  -11.2380  -51.1866 H   0  0  0  0  0  0  0  0  0  0  0  0
  -10.9246  -13.4146  -59.7847 C   0  0  0  0  0  0  0  0  0  0  0  0
  -10.7064  -11.9523  -59.5042 C   0  0  0  0  0  0  0  0  0  0  0  0
  -10.3630  -11.0120  -60.6350 C   0  0  0  0  0  0  0  0  0  0  0  0
  -11.6983  -10.9043  -59.9513 C   0  0  0  0  0  0  0  0  0  0  0  0
  -11.0297  -18.3059  -56.8024 H   0  0  0  0  0  0  0  0  0  0  0  0
  -11.6163  -19.6961  -54.8989 H   0  0  0  0  0  0  0  0  0  0  0  0
  -11.0400  -14.9033  -54.3148 H   0  0  0  0  0  0  0  0  0  0  0  0
  -13.7743  -15.1534  -48.2954 H   0  0  0  0  0  0  0  0  0  0  0  0
  -14.3213  -15.4196  -49.8187 H   0  0  0  0  0  0  0  0  0  0  0  0
  -11.5632  -12.9232  -49.0677 H   0  0  0  0  0  0  0  0  0  0  0  0
  -11.8451  -12.9224  -50.6837 H   0  0  0  0  0  0  0  0  0  0  0  0
   -5.0378  -13.2888  -59.8184 H   0  0  0  0  0  0  0  0  0  0  0  0
  -13.3671  -14.3899  -58.5109 H   0  0  0  0  0  0  0  0  0  0  0  0
  -13.4231  -15.6321  -57.2995 H   0  0  0  0  0  0  0  0  0  0  0  0
  -14.1171  -13.3967  -53.2729 H   0  0  0  0  0  0  0  0  0  0  0  0
  -13.7308  -15.0497  -55.0065 H   0  0  0  0  0  0  0  0  0  0  0  0
  -12.7715  -11.9740  -57.7177 H   0  0  0  0  0  0  0  0  0  0  0  0
  -11.9498  -13.5537  -60.0578 H   0  0  0  0  0  0  0  0  0  0  0  0
  -10.2449  -13.6803  -60.5672 H   0  0  0  0  0  0  0  0  0  0  0  0
  -10.2680  -12.2154  -58.5643 H   0  0  0  0  0  0  0  0  0  0  0  0
  -10.3040  -11.3808  -61.6377 H   0  0  0  0  0  0  0  0  0  0  0  0
   -9.5603  -10.3338  -60.8366 H   0  0  0  0  0  0  0  0  0  0  0  0
  -12.5886  -11.1966  -60.4679 H   0  0  0  0  0  0  0  0  0  0  0  0
  -12.2376  -10.1180  -59.4657 H   0  0  0  0  0  0  0  0  0  0  0  0
  1  2  1  0
  2  6  1  0
  2  3  2  0
  3  4  1  0
  4 21  1  0
  4  5  1  0
  5 44  1  0
  5  1  2  0
  6  7  2  0
  7  8  1  0
  7 48  1  0
  8  9  2  0
  8 49  1  0
  9 10  1  0
  9 11  1  0
 11 13  1  0
 11 12  2  0
 12  6  1  0
 12 50  1  0
 13 14  3  0
 14 15  1  0
 15 16  1  0
 15 17  1  0
 16 20  1  0
 17 18  1  0
 17 51  1  0
 17 52  1  0
 18 19  1  0
 19 15  1  0
 19 53  1  0
 19 54  1  0
 21 22  2  0
 22 23  1  0
 23 26  1  0
 23 24  2  0
 24 25  1  0
 24 55  1  0
 25 21  1  0
 26 27  2  0
 26 28  1  0
 28 29  1  0
 30  1  1  0
 30 56  1  0
 30 57  1  0
 31 32  2  0
 32 33  1  0
 32 58  1  0
 33 34  2  0
 33 59  1  0
 34 30  1  0
 34 35  1  0
 35 36  2  0
 35 60  1  0
 36 37  1  0
 36 31  1  0
 38 39  1  0
 38 42  1  0
 38 43  1  0
 39 40  2  0
 39 41  2  0
 39 31  1  0
 44 45  1  0
 44 61  1  0
 44 62  1  0
 45 46  1  0
 45 63  1  0
 46 47  1  0
 46 64  1  0
 46 65  1  0
 47 45  1  0
 47 66  1  0
 47 67  1  0
M  END
>  <minimizedAffinity>  (4) 
-6.96509

>  <mol_id>  (4) 
47131

>  <source_index>  (4) 
3

>  <layer>  (4) 
L1

>  <uniprot>  (4) 
P00338

>  <paff>  (4) 
9

>  <smiles>  (4) 
NS(=O)(=O)c1ccc(Cc2c(-c3ccc(F)c(C#CC4(O)COC4)c3)nn(-c3nc(C(=O)O)cs3)c2CC2CC2)cc1F

$$$$
L1:P00338:69006
     RDKit          3D

 66 71  0  0  0  0  0  0  0  0999 V2000
  -11.1481  -15.0051  -57.4540 C   0  0  0  0  0  0  0  0  0  0  0  0
  -10.3705  -15.8058  -56.5672 C   0  0  0  0  0  0  0  0  0  0  0  0
   -9.0818  -15.8067  -56.9117 N   0  0  0  0  0  0  0  0  0  0  0  0
   -8.9851  -15.0182  -58.0125 N   0  0  0  0  0  0  0  0  0  0  0  0
  -10.2351  -14.5553  -58.4073 C   0  0  0  0  0  0  0  0  0  0  0  0
  -10.8118  -16.6065  -55.4285 C   0  0  0  0  0  0  0  0  0  0  0  0
  -10.9891  -17.9903  -55.5791 C   0  0  0  0  0  0  0  0  0  0  0  0
  -11.4190  -18.7696  -54.5026 C   0  0  0  0  0  0  0  0  0  0  0  0
  -11.6632  -18.1668  -53.2722 C   0  0  0  0  0  0  0  0  0  0  0  0
  -12.0746  -18.9317  -52.2500 F   0  0  0  0  0  0  0  0  0  0  0  0
  -11.4774  -16.7952  -53.1003 C   0  0  0  0  0  0  0  0  0  0  0  0
  -11.0483  -16.0163  -54.1804 C   0  0  0  0  0  0  0  0  0  0  0  0
  -11.7136  -16.1715  -51.8352 C   0  0  0  0  0  0  0  0  0  0  0  0
  -11.9234  -15.6211  -50.7892 C   0  0  0  0  0  0  0  0  0  0  0  0
  -12.1677  -14.9511  -49.5539 C   0  0  0  0  0  0  0  0  0  0  0  0
  -11.4312  -15.4764  -48.4469 O   0  0  0  0  0  0  0  0  0  0  0  0
  -13.5331  -14.4200  -49.2386 C   0  0  0  0  0  0  0  0  0  0  0  0
  -12.4045  -13.4716  -49.5356 C   0  0  0  0  0  0  0  0  0  0  0  0
  -11.5174  -16.4452  -48.4140 H   0  0  0  0  0  0  0  0  0  0  0  0
   -7.7118  -14.8070  -58.5783 C   0  0  0  0  0  0  0  0  0  0  0  0
   -7.0620  -15.7018  -59.2912 N   0  0  0  0  0  0  0  0  0  0  0  0
   -5.8284  -15.1918  -59.7037 C   0  0  0  0  0  0  0  0  0  0  0  0
   -5.5909  -13.8943  -59.2812 C   0  0  0  0  0  0  0  0  0  0  0  0
   -6.9169  -13.3090  -58.3638 S   0  0  0  0  0  0  0  0  0  0  0  0
   -4.9065  -15.9915  -60.5065 C   0  0  0  0  0  0  0  0  0  0  0  0
   -5.1779  -17.0314  -61.0911 O   0  0  0  0  0  0  0  0  0  0  0  0
   -3.6476  -15.4957  -60.5833 O   0  0  0  0  0  0  0  0  0  0  0  0
   -3.1945  -16.1518  -61.1538 H   0  0  0  0  0  0  0  0  0  0  0  0
  -12.6324  -14.8112  -57.4222 C   0  0  0  0  0  0  0  0  0  0  0  0
  -13.5004  -11.7282  -54.5135 C   0  0  0  0  0  0  0  0  0  0  0  0
  -13.4768  -13.0709  -54.1332 C   0  0  0  0  0  0  0  0  0  0  0  0
  -13.2022  -14.0549  -55.0878 C   0  0  0  0  0  0  0  0  0  0  0  0
  -12.9625  -13.7138  -56.4317 C   0  0  0  0  0  0  0  0  0  0  0  0
  -12.9774  -12.3543  -56.7844 C   0  0  0  0  0  0  0  0  0  0  0  0
  -13.2478  -11.3754  -55.8294 C   0  0  0  0  0  0  0  0  0  0  0  0
  -13.2150  -10.0901  -56.2050 F   0  0  0  0  0  0  0  0  0  0  0  0
  -14.1896  -11.3252  -51.9206 N   0  0  0  0  0  0  0  0  0  0  0  0
  -13.8459  -10.4751  -53.3294 S   0  0  0  0  0  0  0  0  0  0  0  0
  -15.1001   -9.8528  -53.6956 O   0  0  0  0  0  0  0  0  0  0  0  0
  -12.6395   -9.7114  -53.1205 O   0  0  0  0  0  0  0  0  0  0  0  0
  -15.1864  -11.2723  -51.7094 H   0  0  0  0  0  0  0  0  0  0  0  0
  -13.7942  -12.2630  -51.8829 H   0  0  0  0  0  0  0  0  0  0  0  0
  -10.4761  -13.7597  -59.6563 C   0  0  0  0  0  0  0  0  0  0  0  0
  -10.4716  -12.2729  -59.4254 C   0  0  0  0  0  0  0  0  0  0  0  0
   -9.8207  -11.3547  -60.4278 C   0  0  0  0  0  0  0  0  0  0  0  0
  -11.3149  -11.3468  -60.2629 C   0  0  0  0  0  0  0  0  0  0  0  0
  -10.8007  -18.4351  -56.4911 H   0  0  0  0  0  0  0  0  0  0  0  0
  -11.5547  -19.7860  -54.6189 H   0  0  0  0  0  0  0  0  0  0  0  0
  -10.9053  -15.0017  -54.0569 H   0  0  0  0  0  0  0  0  0  0  0  0
  -13.9207  -14.4962  -48.2442 H   0  0  0  0  0  0  0  0  0  0  0  0
  -14.5156  -14.5750  -49.6329 H   0  0  0  0  0  0  0  0  0  0  0  0
  -11.9886  -12.8726  -48.7526 H   0  0  0  0  0  0  0  0  0  0  0  0
  -12.2504  -12.6714  -50.2291 H   0  0  0  0  0  0  0  0  0  0  0  0
   -4.7359  -13.3551  -59.4892 H   0  0  0  0  0  0  0  0  0  0  0  0
  -12.9793  -14.5329  -58.3954 H   0  0  0  0  0  0  0  0  0  0  0  0
  -13.1108  -15.7217  -57.1274 H   0  0  0  0  0  0  0  0  0  0  0  0
  -13.6610  -13.3359  -53.1530 H   0  0  0  0  0  0  0  0  0  0  0  0
  -13.1749  -15.0463  -54.8024 H   0  0  0  0  0  0  0  0  0  0  0  0
  -12.7863  -12.0774  -57.7600 H   0  0  0  0  0  0  0  0  0  0  0  0
  -11.4280  -14.0381  -60.0578 H   0  0  0  0  0  0  0  0  0  0  0  0
   -9.6745  -13.9780  -60.3306 H   0  0  0  0  0  0  0  0  0  0  0  0
  -10.3717  -12.4530  -58.3754 H   0  0  0  0  0  0  0  0  0  0  0  0
   -9.3829  -11.7579  -61.3170 H   0  0  0  0  0  0  0  0  0  0  0  0
   -9.0512  -10.6124  -60.3852 H   0  0  0  0  0  0  0  0  0  0  0  0
  -11.9402  -11.7443  -61.0349 H   0  0  0  0  0  0  0  0  0  0  0  0
  -12.0486  -10.5964  -60.0545 H   0  0  0  0  0  0  0  0  0  0  0  0
  1  2  1  0
  2  6  1  0
  2  3  2  0
  3  4  1  0
  4 20  1  0
  4  5  1  0
  5 43  1  0
  5  1  2  0
  6  7  2  0
  7  8  1  0
  7 47  1  0
  8  9  2  0
  8 48  1  0
  9 10  1  0
  9 11  1  0
 11 13  1  0
 11 12  2  0
 12  6  1  0
 12 49  1  0
 13 14  3  0
 14 15  1  0
 15 16  1  0
 15 17  1  0
 16 19  1  0
 17 18  1  0
 17 50  1  0
 17 51  1  0
 18 15  1  0
 18 52  1  0
 18 53  1  0
 20 21  2  0
 21 22  1  0
 22 25  1  0
 22 23  2  0
 23 24  1  0
 23 54  1  0
 24 20  1  0
 25 26  2  0
 25 27  1  0
 27 28  1  0
 29  1  1  0
 29 55  1  0
 29 56  1  0
 30 31  2  0
 31 32  1  0
 31 57  1  0
 32 33  2  0
 32 58  1  0
 33 29  1  0
 33 34  1  0
 34 35  2  0
 34 59  1  0
 35 36  1  0
 35 30  1  0
 37 38  1  0
 37 41  1  0
 37 42  1  0
 38 39  2  0
 38 40  2  0
 38 30  1  0
 43 44  1  0
 43 60  1  0
 43 61  1  0
 44 45  1  0
 44 62  1  0
 45 46  1  0
 45 63  1  0
 45 64  1  0
 46 44  1  0
 46 65  1  0
 46 66  1  0
M  END
>  <minimizedAffinity>  (5) 
-7.01821

>  <mol_id>  (5) 
69006

>  <source_index>  (5) 
4

>  <layer>  (5) 
L1

>  <uniprot>  (5) 
P00338

>  <paff>  (5) 
9

>  <smiles>  (5) 
NS(=O)(=O)c1ccc(Cc2c(-c3ccc(F)c(C#CC4(O)CC4)c3)nn(-c3nc(C(=O)O)cs3)c2CC2CC2)cc1F

$$$$
L1:P00338:69523
     RDKit          3D

 68 72  0  0  0  0  0  0  0  0999 V2000
  -10.3863  -15.9899  -56.6577 C   0  0  0  0  0  0  0  0  0  0  0  0
   -9.1102  -15.9217  -57.0413 N   0  0  0  0  0  0  0  0  0  0  0  0
   -9.0901  -15.1234  -58.1391 N   0  0  0  0  0  0  0  0  0  0  0  0
  -10.3665  -14.6701  -58.4518 C   0  0  0  0  0  0  0  0  0  0  0  0
  -11.2374  -15.2693  -57.5445 C   0  0  0  0  0  0  0  0  0  0  0  0
  -11.4526  -16.7783  -53.1373 C   0  0  0  0  0  0  0  0  0  0  0  0
  -11.1082  -16.0631  -54.2878 C   0  0  0  0  0  0  0  0  0  0  0  0
  -10.7413  -16.7430  -55.4595 C   0  0  0  0  0  0  0  0  0  0  0  0
  -10.7410  -18.1454  -55.4760 C   0  0  0  0  0  0  0  0  0  0  0  0
  -11.0824  -18.8595  -54.3265 C   0  0  0  0  0  0  0  0  0  0  0  0
  -11.4334  -18.1734  -53.1669 C   0  0  0  0  0  0  0  0  0  0  0  0
  -11.7624  -18.8840  -52.0776 F   0  0  0  0  0  0  0  0  0  0  0  0
  -12.1484  -15.5114  -50.9382 C   0  0  0  0  0  0  0  0  0  0  0  0
  -11.8303  -16.0813  -51.9472 C   0  0  0  0  0  0  0  0  0  0  0  0
  -12.0583  -13.3817  -49.6994 C   0  0  0  0  0  0  0  0  0  0  0  0
  -12.5395  -14.8318  -49.6921 C   0  0  0  0  0  0  0  0  0  0  0  0
  -14.0533  -14.8955  -49.5015 C   0  0  0  0  0  0  0  0  0  0  0  0
  -11.9364  -15.4955  -48.5828 O   0  0  0  0  0  0  0  0  0  0  0  0
  -11.0087  -15.6671  -48.8210 H   0  0  0  0  0  0  0  0  0  0  0  0
   -7.8565  -14.8824  -58.7750 C   0  0  0  0  0  0  0  0  0  0  0  0
   -7.4409  -15.5214  -59.8475 N   0  0  0  0  0  0  0  0  0  0  0  0
   -6.1855  -15.0488  -60.2359 C   0  0  0  0  0  0  0  0  0  0  0  0
   -5.6809  -14.0559  -59.4124 C   0  0  0  0  0  0  0  0  0  0  0  0
   -6.7899  -13.6963  -58.1555 S   0  0  0  0  0  0  0  0  0  0  0  0
   -5.5075  -15.5781  -61.4158 C   0  0  0  0  0  0  0  0  0  0  0  0
   -6.0508  -16.0581  -62.4009 O   0  0  0  0  0  0  0  0  0  0  0  0
   -4.1545  -15.5036  -61.3718 O   0  0  0  0  0  0  0  0  0  0  0  0
   -3.8898  -15.8999  -62.2284 H   0  0  0  0  0  0  0  0  0  0  0  0
  -10.6699  -13.7037  -59.5569 C   0  0  0  0  0  0  0  0  0  0  0  0
  -10.2959  -12.2843  -59.2274 C   0  0  0  0  0  0  0  0  0  0  0  0
   -9.3455  -11.5027  -60.0981 C   0  0  0  0  0  0  0  0  0  0  0  0
  -10.8074  -11.1508  -60.0802 C   0  0  0  0  0  0  0  0  0  0  0  0
  -12.7286  -15.1459  -57.4956 C   0  0  0  0  0  0  0  0  0  0  0  0
  -13.0318  -14.0545  -56.4931 C   0  0  0  0  0  0  0  0  0  0  0  0
  -13.3852  -14.3657  -55.1684 C   0  0  0  0  0  0  0  0  0  0  0  0
  -13.6458  -13.3549  -54.2380 C   0  0  0  0  0  0  0  0  0  0  0  0
  -13.5536  -12.0186  -54.6310 C   0  0  0  0  0  0  0  0  0  0  0  0
  -13.2178  -11.6975  -55.9381 C   0  0  0  0  0  0  0  0  0  0  0  0
  -13.1231  -10.4218  -56.3352 F   0  0  0  0  0  0  0  0  0  0  0  0
  -12.9631  -12.7035  -56.8682 C   0  0  0  0  0  0  0  0  0  0  0  0
  -13.8493  -10.6956  -53.5222 S   0  0  0  0  0  0  0  0  0  0  0  0
  -14.1411  -11.4424  -52.0370 N   0  0  0  0  0  0  0  0  0  0  0  0
  -12.6189   -9.9649  -53.3281 O   0  0  0  0  0  0  0  0  0  0  0  0
  -15.1057  -10.0676  -53.8569 O   0  0  0  0  0  0  0  0  0  0  0  0
  -15.0869  -11.2025  -51.7344 H   0  0  0  0  0  0  0  0  0  0  0  0
  -13.4206  -11.1475  -51.3744 H   0  0  0  0  0  0  0  0  0  0  0  0
  -11.1238  -15.0313  -54.2756 H   0  0  0  0  0  0  0  0  0  0  0  0
  -10.4879  -18.6502  -56.3398 H   0  0  0  0  0  0  0  0  0  0  0  0
  -11.0747  -19.8914  -54.3360 H   0  0  0  0  0  0  0  0  0  0  0  0
  -12.3510  -12.9042  -48.7877 H   0  0  0  0  0  0  0  0  0  0  0  0
  -12.4948  -12.8652  -50.5286 H   0  0  0  0  0  0  0  0  0  0  0  0
  -10.9921  -13.3601  -49.7870 H   0  0  0  0  0  0  0  0  0  0  0  0
  -14.3196  -14.3976  -48.5926 H   0  0  0  0  0  0  0  0  0  0  0  0
  -14.3638  -15.9183  -49.4521 H   0  0  0  0  0  0  0  0  0  0  0  0
  -14.5371  -14.4153  -50.3262 H   0  0  0  0  0  0  0  0  0  0  0  0
   -4.7652  -13.5967  -59.5379 H   0  0  0  0  0  0  0  0  0  0  0  0
  -11.7198  -13.7395  -59.7603 H   0  0  0  0  0  0  0  0  0  0  0  0
  -10.0843  -13.9968  -60.4031 H   0  0  0  0  0  0  0  0  0  0  0  0
  -10.3285  -12.5337  -58.1874 H   0  0  0  0  0  0  0  0  0  0  0  0
   -8.9160  -11.9595  -60.9652 H   0  0  0  0  0  0  0  0  0  0  0  0
   -8.4361  -10.9642  -59.9309 H   0  0  0  0  0  0  0  0  0  0  0  0
  -11.4177  -11.3574  -60.9344 H   0  0  0  0  0  0  0  0  0  0  0  0
  -11.3682  -10.2586  -59.8950 H   0  0  0  0  0  0  0  0  0  0  0  0
  -13.1667  -16.0700  -57.1810 H   0  0  0  0  0  0  0  0  0  0  0  0
  -13.1312  -14.9118  -58.4589 H   0  0  0  0  0  0  0  0  0  0  0  0
  -13.4532  -15.3539  -54.8787 H   0  0  0  0  0  0  0  0  0  0  0  0
  -13.9043  -13.5950  -53.2682 H   0  0  0  0  0  0  0  0  0  0  0  0
  -12.7222  -12.4534  -57.8400 H   0  0  0  0  0  0  0  0  0  0  0  0
  1  2  2  0
  2  3  1  0
  3 20  1  0
  3  4  1  0
  4 29  1  0
  4  5  2  0
  5 33  1  0
  5  1  1  0
  6  7  2  0
  7  8  1  0
  7 47  1  0
  8  1  1  0
  8  9  2  0
  9 10  1  0
  9 48  1  0
 10 11  2  0
 10 49  1  0
 11 12  1  0
 11  6  1  0
 13 14  3  0
 14  6  1  0
 15 16  1  0
 15 50  1  0
 15 51  1  0
 15 52  1  0
 16 17  1  0
 16 18  1  0
 16 13  1  0
 17 53  1  0
 17 54  1  0
 17 55  1  0
 18 19  1  0
 20 21  2  0
 21 22  1  0
 22 25  1  0
 22 23  2  0
 23 24  1  0
 23 56  1  0
 24 20  1  0
 25 26  2  0
 25 27  1  0
 27 28  1  0
 29 30  1  0
 29 57  1  0
 29 58  1  0
 30 31  1  0
 30 59  1  0
 31 32  1  0
 31 60  1  0
 31 61  1  0
 32 30  1  0
 32 62  1  0
 32 63  1  0
 33 34  1  0
 33 64  1  0
 33 65  1  0
 34 35  2  0
 35 36  1  0
 35 66  1  0
 36 37  2  0
 36 67  1  0
 37 41  1  0
 37 38  1  0
 38 39  1  0
 38 40  2  0
 40 34  1  0
 40 68  1  0
 41 42  1  0
 41 43  2  0
 41 44  2  0
 42 45  1  0
 42 46  1  0
M  END
>  <minimizedAffinity>  (6) 
-6.56260

>  <mol_id>  (6) 
69523

>  <source_index>  (6) 
5

>  <layer>  (6) 
L1

>  <uniprot>  (6) 
P00338

>  <paff>  (6) 
9

>  <smiles>  (6) 
CC(C)(O)C#Cc1cc(-c2nn(-c3nc(C(=O)O)cs3)c(CC3CC3)c2Cc2ccc(S(N)(=O)=O)c(F)c2)ccc1F

$$$$
L1:P00338:69524
     RDKit          3D

 69 74  0  0  0  0  0  0  0  0999 V2000
  -10.9045  -14.9537  -57.6588 C   0  0  0  0  0  0  0  0  0  0  0  0
  -10.1804  -15.8209  -56.7874 C   0  0  0  0  0  0  0  0  0  0  0  0
   -8.8882  -15.8684  -57.1186 N   0  0  0  0  0  0  0  0  0  0  0  0
   -8.7411  -15.0628  -58.1998 N   0  0  0  0  0  0  0  0  0  0  0  0
   -9.9547  -14.4955  -58.5706 C   0  0  0  0  0  0  0  0  0  0  0  0
  -10.6653  -16.6415  -55.6764 C   0  0  0  0  0  0  0  0  0  0  0  0
  -10.8905  -18.0171  -55.8236 C   0  0  0  0  0  0  0  0  0  0  0  0
  -11.3559  -18.7757  -54.7463 C   0  0  0  0  0  0  0  0  0  0  0  0
  -11.6035  -18.1602  -53.5228 C   0  0  0  0  0  0  0  0  0  0  0  0
  -12.0493  -18.9111  -52.5042 F   0  0  0  0  0  0  0  0  0  0  0  0
  -11.3978  -16.7913  -53.3583 C   0  0  0  0  0  0  0  0  0  0  0  0
  -10.9320  -16.0339  -54.4373 C   0  0  0  0  0  0  0  0  0  0  0  0
  -11.6608  -16.1571  -52.1039 C   0  0  0  0  0  0  0  0  0  0  0  0
  -11.8853  -15.6220  -51.0521 C   0  0  0  0  0  0  0  0  0  0  0  0
  -12.1660  -14.9822  -49.7808 C   0  0  0  0  0  0  0  0  0  0  0  0
  -11.2327  -15.4743  -48.7985 O   0  0  0  0  0  0  0  0  0  0  0  0
  -13.6554  -15.0187  -49.3372 C   0  0  0  0  0  0  0  0  0  0  0  0
  -13.8306  -13.6139  -49.9409 C   0  0  0  0  0  0  0  0  0  0  0  0
  -12.3056  -13.4346  -49.8355 C   0  0  0  0  0  0  0  0  0  0  0  0
  -10.3565  -15.2700  -49.1689 H   0  0  0  0  0  0  0  0  0  0  0  0
   -7.4612  -14.9424  -58.7788 C   0  0  0  0  0  0  0  0  0  0  0  0
   -6.9279  -15.8336  -59.5875 N   0  0  0  0  0  0  0  0  0  0  0  0
   -5.6573  -15.4165  -59.9906 C   0  0  0  0  0  0  0  0  0  0  0  0
   -5.2679  -14.1997  -59.4572 C   0  0  0  0  0  0  0  0  0  0  0  0
   -6.4968  -13.5700  -58.4435 S   0  0  0  0  0  0  0  0  0  0  0  0
   -4.8207  -16.2002  -60.8936 C   0  0  0  0  0  0  0  0  0  0  0  0
   -4.9332  -16.2350  -62.1117 O   0  0  0  0  0  0  0  0  0  0  0  0
   -3.8559  -16.9276  -60.2843 O   0  0  0  0  0  0  0  0  0  0  0  0
   -3.4069  -17.3810  -61.0249 H   0  0  0  0  0  0  0  0  0  0  0  0
  -12.3759  -14.6858  -57.6496 C   0  0  0  0  0  0  0  0  0  0  0  0
  -13.3113  -11.2905  -55.1315 C   0  0  0  0  0  0  0  0  0  0  0  0
  -13.2494  -11.1514  -56.5181 C   0  0  0  0  0  0  0  0  0  0  0  0
  -12.9397  -12.2637  -57.3081 C   0  0  0  0  0  0  0  0  0  0  0  0
  -12.6753  -13.5196  -56.7290 C   0  0  0  0  0  0  0  0  0  0  0  0
  -12.7709  -13.6344  -55.3315 C   0  0  0  0  0  0  0  0  0  0  0  0
  -13.0769  -12.5246  -54.5449 C   0  0  0  0  0  0  0  0  0  0  0  0
  -13.1373  -12.6808  -53.2158 F   0  0  0  0  0  0  0  0  0  0  0  0
  -13.8071   -8.6147  -55.0953 N   0  0  0  0  0  0  0  0  0  0  0  0
  -13.6840   -9.9489  -54.0695 S   0  0  0  0  0  0  0  0  0  0  0  0
  -12.5315   -9.6690  -53.2464 O   0  0  0  0  0  0  0  0  0  0  0  0
  -15.0169  -10.1218  -53.5426 O   0  0  0  0  0  0  0  0  0  0  0  0
  -13.0904   -7.9352  -54.8330 H   0  0  0  0  0  0  0  0  0  0  0  0
  -14.7562   -8.2414  -55.0313 H   0  0  0  0  0  0  0  0  0  0  0  0
  -10.1243  -13.5980  -59.7608 C   0  0  0  0  0  0  0  0  0  0  0  0
   -9.9668  -12.1263  -59.4890 C   0  0  0  0  0  0  0  0  0  0  0  0
   -9.0777  -11.2354  -60.3223 C   0  0  0  0  0  0  0  0  0  0  0  0
  -10.5704  -11.1147  -60.4320 C   0  0  0  0  0  0  0  0  0  0  0  0
  -10.7116  -18.4721  -56.7325 H   0  0  0  0  0  0  0  0  0  0  0  0
  -11.5155  -19.7892  -54.8575 H   0  0  0  0  0  0  0  0  0  0  0  0
  -10.7826  -15.0192  -54.3229 H   0  0  0  0  0  0  0  0  0  0  0  0
  -13.8002  -15.0660  -48.2781 H   0  0  0  0  0  0  0  0  0  0  0  0
  -14.2975  -15.8266  -49.6199 H   0  0  0  0  0  0  0  0  0  0  0  0
  -14.3999  -12.9388  -49.3367 H   0  0  0  0  0  0  0  0  0  0  0  0
  -14.3472  -13.4647  -50.8660 H   0  0  0  0  0  0  0  0  0  0  0  0
  -11.9799  -12.9297  -48.9501 H   0  0  0  0  0  0  0  0  0  0  0  0
  -11.7653  -12.8551  -50.5546 H   0  0  0  0  0  0  0  0  0  0  0  0
   -4.3645  -13.7372  -59.6440 H   0  0  0  0  0  0  0  0  0  0  0  0
  -12.7008  -14.4491  -58.6412 H   0  0  0  0  0  0  0  0  0  0  0  0
  -12.8929  -15.5553  -57.3009 H   0  0  0  0  0  0  0  0  0  0  0  0
  -13.4306  -10.2354  -56.9576 H   0  0  0  0  0  0  0  0  0  0  0  0
  -12.9044  -12.1618  -58.3344 H   0  0  0  0  0  0  0  0  0  0  0  0
  -12.6129  -14.5501  -54.8827 H   0  0  0  0  0  0  0  0  0  0  0  0
  -11.1055  -13.7571  -60.1567 H   0  0  0  0  0  0  0  0  0  0  0  0
   -9.3387  -13.8576  -60.4393 H   0  0  0  0  0  0  0  0  0  0  0  0
  -10.0317  -12.3440  -58.4434 H   0  0  0  0  0  0  0  0  0  0  0  0
   -8.5139  -11.6495  -61.1319 H   0  0  0  0  0  0  0  0  0  0  0  0
   -8.2780  -10.5563  -60.1120 H   0  0  0  0  0  0  0  0  0  0  0  0
  -11.0694  -11.4428  -61.3199 H   0  0  0  0  0  0  0  0  0  0  0  0
  -11.2730  -10.3139  -60.3322 H   0  0  0  0  0  0  0  0  0  0  0  0
  1  2  1  0
  2  6  1  0
  2  3  2  0
  3  4  1  0
  4 21  1  0
  4  5  1  0
  5 44  1  0
  5  1  2  0
  6  7  2  0
  7  8  1  0
  7 48  1  0
  8  9  2  0
  8 49  1  0
  9 10  1  0
  9 11  1  0
 11 13  1  0
 11 12  2  0
 12  6  1  0
 12 50  1  0
 13 14  3  0
 14 15  1  0
 15 16  1  0
 15 17  1  0
 16 20  1  0
 17 18  1  0
 17 51  1  0
 17 52  1  0
 18 19  1  0
 18 53  1  0
 18 54  1  0
 19 15  1  0
 19 55  1  0
 19 56  1  0
 21 22  2  0
 22 23  1  0
 23 26  1  0
 23 24  2  0
 24 25  1  0
 24 57  1  0
 25 21  1  0
 26 27  2  0
 26 28  1  0
 28 29  1  0
 30  1  1  0
 30 58  1  0
 30 59  1  0
 31 32  2  0
 32 33  1  0
 32 60  1  0
 33 34  2  0
 33 61  1  0
 34 30  1  0
 34 35  1  0
 35 36  2  0
 35 62  1  0
 36 37  1  0
 36 31  1  0
 38 39  1  0
 38 42  1  0
 38 43  1  0
 39 40  2  0
 39 41  2  0
 39 31  1  0
 44 45  1  0
 44 63  1  0
 44 64  1  0
 45 46  1  0
 45 65  1  0
 46 47  1  0
 46 66  1  0
 46 67  1  0
 47 45  1  0
 47 68  1  0
 47 69  1  0
M  END
>  <minimizedAffinity>  (7) 
-6.91302

>  <mol_id>  (7) 
69524

>  <source_index>  (7) 
6

>  <layer>  (7) 
L1

>  <uniprot>  (7) 
P00338

>  <paff>  (7) 
9

>  <smiles>  (7) 
NS(=O)(=O)c1ccc(Cc2c(-c3ccc(F)c(C#CC4(O)CCC4)c3)nn(-c3nc(C(=O)O)cs3)c2CC2CC2)cc1F

$$$$
L1:P00338:69525
     RDKit          3D

 68 72  0  0  0  0  0  0  0  0999 V2000
  -10.4567  -16.1141  -56.5434 C   0  0  0  0  0  0  0  0  0  0  0  0
   -9.1754  -16.1732  -56.9096 N   0  0  0  0  0  0  0  0  0  0  0  0
   -9.0813  -15.5942  -58.1319 N   0  0  0  0  0  0  0  0  0  0  0  0
  -10.2897  -14.9921  -58.4799 C   0  0  0  0  0  0  0  0  0  0  0  0
  -11.2091  -15.3551  -57.4911 C   0  0  0  0  0  0  0  0  0  0  0  0
  -11.6151  -16.7953  -52.9911 C   0  0  0  0  0  0  0  0  0  0  0  0
  -11.6979  -18.1876  -52.9982 C   0  0  0  0  0  0  0  0  0  0  0  0
  -11.3609  -18.8942  -54.1513 C   0  0  0  0  0  0  0  0  0  0  0  0
  -10.9565  -18.2047  -55.2981 C   0  0  0  0  0  0  0  0  0  0  0  0
  -10.8791  -16.8004  -55.3128 C   0  0  0  0  0  0  0  0  0  0  0  0
  -11.1979  -16.1090  -54.1378 C   0  0  0  0  0  0  0  0  0  0  0  0
  -12.2754  -15.4463  -50.8292 C   0  0  0  0  0  0  0  0  0  0  0  0
  -11.9576  -16.0577  -51.8136 C   0  0  0  0  0  0  0  0  0  0  0  0
  -12.1496  -13.2846  -49.6424 C   0  0  0  0  0  0  0  0  0  0  0  0
  -12.6852  -14.7153  -49.6181 C   0  0  0  0  0  0  0  0  0  0  0  0
  -14.2052  -14.7209  -49.4797 C   0  0  0  0  0  0  0  0  0  0  0  0
  -12.1424  -15.3764  -48.4753 O   0  0  0  0  0  0  0  0  0  0  0  0
  -11.1902  -15.4917  -48.6465 H   0  0  0  0  0  0  0  0  0  0  0  0
   -7.8299  -15.7596  -58.7702 C   0  0  0  0  0  0  0  0  0  0  0  0
   -7.1159  -14.7507  -59.2346 N   0  0  0  0  0  0  0  0  0  0  0  0
   -5.9067  -15.2054  -59.7598 C   0  0  0  0  0  0  0  0  0  0  0  0
   -5.7352  -16.5743  -59.6613 C   0  0  0  0  0  0  0  0  0  0  0  0
   -7.0946  -17.2884  -58.9094 S   0  0  0  0  0  0  0  0  0  0  0  0
   -4.9133  -14.3138  -60.3503 C   0  0  0  0  0  0  0  0  0  0  0  0
   -5.1074  -13.5829  -61.3134 O   0  0  0  0  0  0  0  0  0  0  0  0
   -3.7036  -14.3278  -59.7463 O   0  0  0  0  0  0  0  0  0  0  0  0
   -3.1721  -13.6884  -60.2581 H   0  0  0  0  0  0  0  0  0  0  0  0
  -10.5218  -14.1375  -59.6909 C   0  0  0  0  0  0  0  0  0  0  0  0
  -10.2291  -12.6623  -59.5721 C   0  0  0  0  0  0  0  0  0  0  0  0
   -9.2076  -12.0216  -60.4805 C   0  0  0  0  0  0  0  0  0  0  0  0
  -10.6517  -11.6426  -60.6086 C   0  0  0  0  0  0  0  0  0  0  0  0
  -12.6774  -15.0683  -57.4786 C   0  0  0  0  0  0  0  0  0  0  0  0
  -12.9578  -13.7734  -56.7368 C   0  0  0  0  0  0  0  0  0  0  0  0
  -13.0533  -12.5078  -57.3445 C   0  0  0  0  0  0  0  0  0  0  0  0
  -13.2448  -11.3499  -56.5821 C   0  0  0  0  0  0  0  0  0  0  0  0
  -13.3293  -11.4434  -55.1931 C   0  0  0  0  0  0  0  0  0  0  0  0
  -13.2213  -12.6775  -54.5732 C   0  0  0  0  0  0  0  0  0  0  0  0
  -13.2927  -12.7955  -53.2401 F   0  0  0  0  0  0  0  0  0  0  0  0
  -13.0354  -13.8323  -55.3329 C   0  0  0  0  0  0  0  0  0  0  0  0
  -13.5259  -10.0043  -54.2138 S   0  0  0  0  0  0  0  0  0  0  0  0
  -14.9604  -10.2875  -53.3851 N   0  0  0  0  0  0  0  0  0  0  0  0
  -13.8117   -8.8833  -55.0813 O   0  0  0  0  0  0  0  0  0  0  0  0
  -12.4739   -9.9446  -53.2261 O   0  0  0  0  0  0  0  0  0  0  0  0
  -15.6375   -9.5629  -53.6222 H   0  0  0  0  0  0  0  0  0  0  0  0
  -14.7649  -10.3575  -52.3850 H   0  0  0  0  0  0  0  0  0  0  0  0
  -12.0074  -18.6925  -52.1531 H   0  0  0  0  0  0  0  0  0  0  0  0
  -11.4098  -19.9250  -54.1585 H   0  0  0  0  0  0  0  0  0  0  0  0
  -10.7105  -18.7351  -56.1485 H   0  0  0  0  0  0  0  0  0  0  0  0
  -11.1244  -15.0798  -54.1167 H   0  0  0  0  0  0  0  0  0  0  0  0
  -12.4587  -12.7729  -48.7549 H   0  0  0  0  0  0  0  0  0  0  0  0
  -12.5343  -12.7743  -50.5006 H   0  0  0  0  0  0  0  0  0  0  0  0
  -11.0808  -13.3046  -49.6887 H   0  0  0  0  0  0  0  0  0  0  0  0
  -14.4848  -14.1863  -48.5960 H   0  0  0  0  0  0  0  0  0  0  0  0
  -14.5534  -15.7303  -49.4111 H   0  0  0  0  0  0  0  0  0  0  0  0
  -14.6430  -14.2500  -50.3350 H   0  0  0  0  0  0  0  0  0  0  0  0
   -4.9058  -17.0905  -59.9939 H   0  0  0  0  0  0  0  0  0  0  0  0
  -11.5522  -14.2385  -59.9611 H   0  0  0  0  0  0  0  0  0  0  0  0
   -9.8200  -14.4960  -60.4146 H   0  0  0  0  0  0  0  0  0  0  0  0
  -10.3863  -12.7550  -58.5178 H   0  0  0  0  0  0  0  0  0  0  0  0
   -8.7376  -12.6008  -61.2477 H   0  0  0  0  0  0  0  0  0  0  0  0
   -8.2968  -11.4811  -60.3283 H   0  0  0  0  0  0  0  0  0  0  0  0
  -11.2117  -11.9525  -61.4661 H   0  0  0  0  0  0  0  0  0  0  0  0
  -11.1964  -10.7219  -60.5848 H   0  0  0  0  0  0  0  0  0  0  0  0
  -13.1894  -15.8717  -56.9913 H   0  0  0  0  0  0  0  0  0  0  0  0
  -13.0206  -14.9716  -58.4874 H   0  0  0  0  0  0  0  0  0  0  0  0
  -12.9808  -12.4321  -58.3712 H   0  0  0  0  0  0  0  0  0  0  0  0
  -13.3231  -10.4311  -57.0455 H   0  0  0  0  0  0  0  0  0  0  0  0
  -12.9534  -14.7448  -54.8578 H   0  0  0  0  0  0  0  0  0  0  0  0
  1  2  2  0
  2  3  1  0
  3 19  1  0
  3  4  1  0
  4 28  1  0
  4  5  2  0
  5 32  1  0
  5  1  1  0
  6  7  2  0
  7  8  1  0
  7 46  1  0
  8  9  2  0
  8 47  1  0
  9 10  1  0
  9 48  1  0
 10  1  1  0
 10 11  2  0
 11  6  1  0
 11 49  1  0
 12 13  3  0
 13  6  1  0
 14 15  1  0
 14 50  1  0
 14 51  1  0
 14 52  1  0
 15 16  1  0
 15 17  1  0
 15 12  1  0
 16 53  1  0
 16 54  1  0
 16 55  1  0
 17 18  1  0
 19 20  2  0
 20 21  1  0
 21 24  1  0
 21 22  2  0
 22 23  1  0
 22 56  1  0
 23 19  1  0
 24 25  2  0
 24 26  1  0
 26 27  1  0
 28 29  1  0
 28 57  1  0
 28 58  1  0
 29 30  1  0
 29 59  1  0
 30 31  1  0
 30 60  1  0
 30 61  1  0
 31 29  1  0
 31 62  1  0
 31 63  1  0
 32 33  1  0
 32 64  1  0
 32 65  1  0
 33 34  2  0
 34 35  1  0
 34 66  1  0
 35 36  2  0
 35 67  1  0
 36 40  1  0
 36 37  1  0
 37 38  1  0
 37 39  2  0
 39 33  1  0
 39 68  1  0
 40 41  1  0
 40 42  2  0
 40 43  2  0
 41 44  1  0
 41 45  1  0
M  END
>  <minimizedAffinity>  (8) 
-6.42709

>  <mol_id>  (8) 
69525

>  <source_index>  (8) 
7

>  <layer>  (8) 
L1

>  <uniprot>  (8) 
P00338

>  <paff>  (8) 
9

>  <smiles>  (8) 
CC(C)(O)C#Cc1cccc(-c2nn(-c3nc(C(=O)O)cs3)c(CC3CC3)c2Cc2ccc(S(N)(=O)=O)c(F)c2)c1

$$$$
L1:P00338:69526
     RDKit          3D

 67 72  0  0  0  0  0  0  0  0999 V2000
  -11.4788  -14.8396  -57.7722 C   0  0  0  0  0  0  0  0  0  0  0  0
  -10.6690  -15.6471  -56.9266 C   0  0  0  0  0  0  0  0  0  0  0  0
   -9.3931  -15.6173  -57.3032 N   0  0  0  0  0  0  0  0  0  0  0  0
   -9.3235  -14.7930  -58.3801 N   0  0  0  0  0  0  0  0  0  0  0  0
  -10.5765  -14.2321  -58.6469 C   0  0  0  0  0  0  0  0  0  0  0  0
  -11.0674  -16.4548  -55.7795 C   0  0  0  0  0  0  0  0  0  0  0  0
  -11.2657  -17.8348  -55.9128 C   0  0  0  0  0  0  0  0  0  0  0  0
  -11.6224  -18.6043  -54.8040 C   0  0  0  0  0  0  0  0  0  0  0  0
  -11.7842  -17.9977  -53.5577 C   0  0  0  0  0  0  0  0  0  0  0  0
  -11.6019  -16.6195  -53.4205 C   0  0  0  0  0  0  0  0  0  0  0  0
  -11.2543  -15.8475  -54.5307 C   0  0  0  0  0  0  0  0  0  0  0  0
  -11.7528  -16.0033  -52.1393 C   0  0  0  0  0  0  0  0  0  0  0  0
  -11.8939  -15.4989  -51.0578 C   0  0  0  0  0  0  0  0  0  0  0  0
  -12.0823  -14.9064  -49.7479 C   0  0  0  0  0  0  0  0  0  0  0  0
  -11.1410  -15.5116  -48.8267 O   0  0  0  0  0  0  0  0  0  0  0  0
  -12.1579  -13.3665  -49.7203 C   0  0  0  0  0  0  0  0  0  0  0  0
  -13.5616  -13.3801  -49.3632 O   0  0  0  0  0  0  0  0  0  0  0  0
  -13.5465  -14.8232  -49.2687 C   0  0  0  0  0  0  0  0  0  0  0  0
  -11.2839  -16.4693  -48.9186 H   0  0  0  0  0  0  0  0  0  0  0  0
   -8.0406  -14.6896  -58.9686 C   0  0  0  0  0  0  0  0  0  0  0  0
   -7.7506  -15.1805  -60.1604 N   0  0  0  0  0  0  0  0  0  0  0  0
   -6.4265  -14.9081  -60.5006 C   0  0  0  0  0  0  0  0  0  0  0  0
   -5.7399  -14.2011  -59.5282 C   0  0  0  0  0  0  0  0  0  0  0  0
   -6.7593  -13.8846  -58.1918 S   0  0  0  0  0  0  0  0  0  0  0  0
   -5.8579  -15.3355  -61.7764 C   0  0  0  0  0  0  0  0  0  0  0  0
   -4.8103  -14.9467  -62.2730 O   0  0  0  0  0  0  0  0  0  0  0  0
   -6.5963  -16.2627  -62.4387 O   0  0  0  0  0  0  0  0  0  0  0  0
   -6.0547  -16.4177  -63.2416 H   0  0  0  0  0  0  0  0  0  0  0  0
  -12.9637  -14.6560  -57.6973 C   0  0  0  0  0  0  0  0  0  0  0  0
  -13.6368  -11.7604  -54.5600 C   0  0  0  0  0  0  0  0  0  0  0  0
  -13.8189  -13.1206  -54.2978 C   0  0  0  0  0  0  0  0  0  0  0  0
  -13.6073  -14.0543  -55.3168 C   0  0  0  0  0  0  0  0  0  0  0  0
  -13.2124  -13.6419  -56.6010 C   0  0  0  0  0  0  0  0  0  0  0  0
  -13.0609  -12.2660  -56.8453 C   0  0  0  0  0  0  0  0  0  0  0  0
  -13.2672  -11.3365  -55.8277 C   0  0  0  0  0  0  0  0  0  0  0  0
  -13.0879  -10.0369  -56.1032 F   0  0  0  0  0  0  0  0  0  0  0  0
  -14.1433  -11.5058  -51.9354 N   0  0  0  0  0  0  0  0  0  0  0  0
  -13.9000  -10.5665  -53.3039 S   0  0  0  0  0  0  0  0  0  0  0  0
  -15.1702   -9.9154  -53.5395 O   0  0  0  0  0  0  0  0  0  0  0  0
  -12.6874   -9.8138  -53.0920 O   0  0  0  0  0  0  0  0  0  0  0  0
  -15.0687  -11.3268  -51.5458 H   0  0  0  0  0  0  0  0  0  0  0  0
  -13.3765  -11.3677  -51.2752 H   0  0  0  0  0  0  0  0  0  0  0  0
  -10.8526  -13.1749  -59.6694 C   0  0  0  0  0  0  0  0  0  0  0  0
  -10.2437  -11.8142  -59.4445 C   0  0  0  0  0  0  0  0  0  0  0  0
  -10.5060  -10.6090  -60.3233 C   0  0  0  0  0  0  0  0  0  0  0  0
   -9.1783  -11.3046  -60.3881 C   0  0  0  0  0  0  0  0  0  0  0  0
  -11.1477  -18.2845  -56.8341 H   0  0  0  0  0  0  0  0  0  0  0  0
  -11.7663  -19.6211  -54.9059 H   0  0  0  0  0  0  0  0  0  0  0  0
  -12.0389  -18.5681  -52.7362 H   0  0  0  0  0  0  0  0  0  0  0  0
  -11.1348  -14.8273  -54.4313 H   0  0  0  0  0  0  0  0  0  0  0  0
  -11.9626  -12.9119  -50.6690 H   0  0  0  0  0  0  0  0  0  0  0  0
  -11.4702  -12.8228  -49.1068 H   0  0  0  0  0  0  0  0  0  0  0  0
  -14.2398  -15.3018  -49.9284 H   0  0  0  0  0  0  0  0  0  0  0  0
  -13.8176  -15.2864  -48.3430 H   0  0  0  0  0  0  0  0  0  0  0  0
   -4.7533  -13.9069  -59.5996 H   0  0  0  0  0  0  0  0  0  0  0  0
  -13.3394  -14.2920  -58.6307 H   0  0  0  0  0  0  0  0  0  0  0  0
  -13.4598  -15.5813  -57.4906 H   0  0  0  0  0  0  0  0  0  0  0  0
  -14.1078  -13.4341  -53.3580 H   0  0  0  0  0  0  0  0  0  0  0  0
  -13.7428  -15.0589  -55.1235 H   0  0  0  0  0  0  0  0  0  0  0  0
  -12.7942  -11.9409  -57.7877 H   0  0  0  0  0  0  0  0  0  0  0  0
  -11.9137  -13.0470  -59.7199 H   0  0  0  0  0  0  0  0  0  0  0  0
  -10.3923  -13.5352  -60.5656 H   0  0  0  0  0  0  0  0  0  0  0  0
  -10.3428  -11.9929  -58.3942 H   0  0  0  0  0  0  0  0  0  0  0  0
  -10.5783   -9.6348  -59.8868 H   0  0  0  0  0  0  0  0  0  0  0  0
  -11.2562  -10.3447  -61.0390 H   0  0  0  0  0  0  0  0  0  0  0  0
   -8.3047  -10.8252  -59.9983 H   0  0  0  0  0  0  0  0  0  0  0  0
   -8.5921  -11.7401  -61.1701 H   0  0  0  0  0  0  0  0  0  0  0  0
  1  2  1  0
  2  6  1  0
  2  3  2  0
  3  4  1  0
  4 20  1  0
  4  5  1  0
  5 43  1  0
  5  1  2  0
  6  7  2  0
  7  8  1  0
  7 47  1  0
  8  9  2  0
  8 48  1  0
  9 10  1  0
  9 49  1  0
 10 12  1  0
 10 11  2  0
 11  6  1  0
 11 50  1  0
 12 13  3  0
 13 14  1  0
 14 15  1  0
 14 16  1  0
 15 19  1  0
 16 17  1  0
 16 51  1  0
 16 52  1  0
 17 18  1  0
 18 14  1  0
 18 53  1  0
 18 54  1  0
 20 21  2  0
 21 22  1  0
 22 25  1  0
 22 23  2  0
 23 24  1  0
 23 55  1  0
 24 20  1  0
 25 26  2  0
 25 27  1  0
 27 28  1  0
 29  1  1  0
 29 56  1  0
 29 57  1  0
 30 31  2  0
 31 32  1  0
 31 58  1  0
 32 33  2  0
 32 59  1  0
 33 29  1  0
 33 34  1  0
 34 35  2  0
 34 60  1  0
 35 36  1  0
 35 30  1  0
 37 38  1  0
 37 41  1  0
 37 42  1  0
 38 39  2  0
 38 40  2  0
 38 30  1  0
 43 44  1  0
 43 61  1  0
 43 62  1  0
 44 45  1  0
 44 63  1  0
 45 46  1  0
 45 64  1  0
 45 65  1  0
 46 44  1  0
 46 66  1  0
 46 67  1  0
M  END
>  <minimizedAffinity>  (9) 
-6.74799

>  <mol_id>  (9) 
69526

>  <source_index>  (9) 
8

>  <layer>  (9) 
L1

>  <uniprot>  (9) 
P00338

>  <paff>  (9) 
9

>  <smiles>  (9) 
NS(=O)(=O)c1ccc(Cc2c(-c3cccc(C#CC4(O)COC4)c3)nn(-c3nc(C(=O)O)cs3)c2CC2CC2)cc1F

$$$$
L1:P00338:69527
     RDKit          3D

 45 46  0  0  0  0  0  0  0  0999 V2000
  -12.7210  -14.0177  -53.7195 C   0  0  0  0  0  0  0  0  0  0  0  0
  -13.2729  -12.7308  -53.7057 C   0  0  0  0  0  0  0  0  0  0  0  0
  -13.4793  -12.4053  -52.3960 N   0  0  0  0  0  0  0  0  0  0  0  0
  -14.0377  -11.2110  -51.9350 O   0  0  0  0  0  0  0  0  0  0  0  0
  -13.1404  -13.4290  -51.5545 C   0  0  0  0  0  0  0  0  0  0  0  0
  -13.2311  -13.4925  -50.1541 C   0  0  0  0  0  0  0  0  0  0  0  0
  -12.8153  -14.6570  -49.5167 C   0  0  0  0  0  0  0  0  0  0  0  0
  -12.3262  -15.7242  -50.2574 C   0  0  0  0  0  0  0  0  0  0  0  0
  -12.2402  -15.6540  -51.6591 C   0  0  0  0  0  0  0  0  0  0  0  0
  -11.5696  -17.2010  -52.5276 Br  0  0  0  0  0  0  0  0  0  0  0  0
  -12.6556  -14.4796  -52.3451 C   0  0  0  0  0  0  0  0  0  0  0  0
  -13.7269  -10.5873  -52.6190 H   0  0  0  0  0  0  0  0  0  0  0  0
  -13.5698  -11.8028  -54.7680 C   0  0  0  0  0  0  0  0  0  0  0  0
  -12.7276  -11.3685  -55.5461 O   0  0  0  0  0  0  0  0  0  0  0  0
  -14.8782  -11.4352  -54.7567 O   0  0  0  0  0  0  0  0  0  0  0  0
  -15.7668  -12.4269  -55.2685 C   0  0  0  0  0  0  0  0  0  0  0  0
  -12.2634  -14.7259  -54.9585 C   0  0  0  0  0  0  0  0  0  0  0  0
  -10.9224  -14.3404  -55.2753 O   0  0  0  0  0  0  0  0  0  0  0  0
  -10.1456  -15.4509  -55.7146 C   0  0  0  0  0  0  0  0  0  0  0  0
   -8.7223  -15.3167  -55.1794 C   0  0  0  0  0  0  0  0  0  0  0  0
   -7.6940  -15.9824  -56.0992 C   0  0  0  0  0  0  0  0  0  0  0  0
   -7.6180  -15.3422  -57.4887 C   0  0  0  0  0  0  0  0  0  0  0  0
   -6.0949  -13.5870  -58.5446 C   0  0  0  0  0  0  0  0  0  0  0  0
   -7.1824  -13.8752  -57.5217 C   0  0  0  0  0  0  0  0  0  0  0  0
  -13.5973  -12.6947  -49.6114 H   0  0  0  0  0  0  0  0  0  0  0  0
  -12.8707  -14.7278  -48.4886 H   0  0  0  0  0  0  0  0  0  0  0  0
  -12.0210  -16.5822  -49.7719 H   0  0  0  0  0  0  0  0  0  0  0  0
  -16.7717  -12.0619  -55.2252 H   0  0  0  0  0  0  0  0  0  0  0  0
  -15.6850  -13.3169  -54.6802 H   0  0  0  0  0  0  0  0  0  0  0  0
  -15.5103  -12.6458  -56.2840 H   0  0  0  0  0  0  0  0  0  0  0  0
  -12.2993  -15.7829  -54.7962 H   0  0  0  0  0  0  0  0  0  0  0  0
  -12.9064  -14.4617  -55.7719 H   0  0  0  0  0  0  0  0  0  0  0  0
  -10.5805  -16.3577  -55.3493 H   0  0  0  0  0  0  0  0  0  0  0  0
  -10.1250  -15.4722  -56.7842 H   0  0  0  0  0  0  0  0  0  0  0  0
   -8.4838  -14.2774  -55.0909 H   0  0  0  0  0  0  0  0  0  0  0  0
   -8.6805  -15.8077  -54.2296 H   0  0  0  0  0  0  0  0  0  0  0  0
   -6.7306  -15.9106  -55.6393 H   0  0  0  0  0  0  0  0  0  0  0  0
   -8.0019  -16.9981  -56.2352 H   0  0  0  0  0  0  0  0  0  0  0  0
   -6.9200  -15.9054  -58.0722 H   0  0  0  0  0  0  0  0  0  0  0  0
   -8.6170  -15.3581  -57.8717 H   0  0  0  0  0  0  0  0  0  0  0  0
   -5.8412  -12.5480  -58.5123 H   0  0  0  0  0  0  0  0  0  0  0  0
   -6.4497  -13.8373  -59.5225 H   0  0  0  0  0  0  0  0  0  0  0  0
   -5.2285  -14.1729  -58.3187 H   0  0  0  0  0  0  0  0  0  0  0  0
   -8.0358  -13.2739  -57.7565 H   0  0  0  0  0  0  0  0  0  0  0  0
   -6.7764  -13.6462  -56.5585 H   0  0  0  0  0  0  0  0  0  0  0  0
  1  2  2  0
  2 13  1  0
  2  3  1  0
  3  4  1  0
  3  5  1  0
  4 12  1  0
  5  6  2  0
  6  7  1  0
  6 25  1  0
  7  8  2  0
  7 26  1  0
  8  9  1  0
  8 27  1  0
  9 10  1  0
  9 11  2  0
 11  1  1  0
 11  5  1  0
 13 14  2  0
 13 15  1  0
 15 16  1  0
 16 28  1  0
 16 29  1  0
 16 30  1  0
 17  1  1  0
 17 31  1  0
 17 32  1  0
 18 17  1  0
 19 18  1  0
 19 33  1  0
 19 34  1  0
 20 19  1  0
 20 35  1  0
 20 36  1  0
 21 20  1  0
 21 37  1  0
 21 38  1  0
 22 21  1  0
 22 39  1  0
 22 40  1  0
 23 24  1  0
 23 41  1  0
 23 42  1  0
 23 43  1  0
 24 22  1  0
 24 44  1  0
 24 45  1  0
M  END
>  <minimizedAffinity>  (10) 
-5.49915

>  <mol_id>  (10) 
69527

>  <source_index>  (10) 
9

>  <layer>  (10) 
L1

>  <uniprot>  (10) 
P00338

>  <paff>  (10) 
7.6021000000000001

>  <smiles>  (10) 
CCCCCCOCc1c(C(=O)OC)n(O)c2cccc(Br)c12

$$$$
