L1:P00338:6096
     RDKit          3D

 69 74  0  0  0  0  0  0  0  0999 V2000
  -11.2031  -17.5867  -54.7547 C   0  0  0  0  0  0  0  0  0  0  0  0
  -11.1767  -17.3231  -53.4473 N   0  0  0  0  0  0  0  0  0  0  0  0
  -11.7447  -16.0998  -53.3030 N   0  0  0  0  0  0  0  0  0  0  0  0
  -12.1507  -15.5847  -54.5286 C   0  0  0  0  0  0  0  0  0  0  0  0
  -11.8374  -16.5427  -55.4884 C   0  0  0  0  0  0  0  0  0  0  0  0
  -10.9263  -21.0119  -56.2853 C   0  0  0  0  0  0  0  0  0  0  0  0
  -11.4706  -19.8083  -55.8267 C   0  0  0  0  0  0  0  0  0  0  0  0
  -10.6399  -18.8338  -55.2564 C   0  0  0  0  0  0  0  0  0  0  0  0
   -9.2594  -19.0627  -55.1672 C   0  0  0  0  0  0  0  0  0  0  0  0
   -8.7162  -20.2644  -55.6243 C   0  0  0  0  0  0  0  0  0  0  0  0
   -9.5518  -21.2307  -56.1773 C   0  0  0  0  0  0  0  0  0  0  0  0
   -9.0104  -22.3810  -56.6060 F   0  0  0  0  0  0  0  0  0  0  0  0
  -12.4998  -22.8445  -57.3300 C   0  0  0  0  0  0  0  0  0  0  0  0
  -11.7831  -22.0059  -56.8542 C   0  0  0  0  0  0  0  0  0  0  0  0
  -13.0041  -24.1687  -59.3523 C   0  0  0  0  0  0  0  0  0  0  0  0
  -13.3683  -23.8565  -57.9047 C   0  0  0  0  0  0  0  0  0  0  0  0
  -14.8766  -23.6361  -57.6701 C   0  0  0  0  0  0  0  0  0  0  0  0
  -15.0269  -24.9680  -57.1153 O   0  0  0  0  0  0  0  0  0  0  0  0
  -13.5857  -25.1092  -57.0315 C   0  0  0  0  0  0  0  0  0  0  0  0
  -11.8446  -15.5436  -52.0128 C   0  0  0  0  0  0  0  0  0  0  0  0
  -12.9865  -15.2528  -51.4252 N   0  0  0  0  0  0  0  0  0  0  0  0
  -12.7474  -14.7145  -50.1583 C   0  0  0  0  0  0  0  0  0  0  0  0
  -11.4052  -14.6192  -49.8295 C   0  0  0  0  0  0  0  0  0  0  0  0
  -10.4318  -15.2052  -51.1124 S   0  0  0  0  0  0  0  0  0  0  0  0
  -13.8237  -14.2918  -49.2678 C   0  0  0  0  0  0  0  0  0  0  0  0
  -13.6804  -13.6325  -48.2467 O   0  0  0  0  0  0  0  0  0  0  0  0
  -15.0613  -14.6873  -49.6491 O   0  0  0  0  0  0  0  0  0  0  0  0
  -15.6448  -14.3249  -48.9534 H   0  0  0  0  0  0  0  0  0  0  0  0
  -12.7972  -14.2418  -54.6887 C   0  0  0  0  0  0  0  0  0  0  0  0
  -14.2973  -14.2916  -54.7746 C   0  0  0  0  0  0  0  0  0  0  0  0
  -15.0970  -13.0766  -55.1717 C   0  0  0  0  0  0  0  0  0  0  0  0
  -14.9827  -14.2411  -56.1164 C   0  0  0  0  0  0  0  0  0  0  0  0
  -12.0967  -16.4809  -56.9605 C   0  0  0  0  0  0  0  0  0  0  0  0
  -10.9875  -15.6463  -57.5610 C   0  0  0  0  0  0  0  0  0  0  0  0
  -11.2522  -14.3898  -58.1329 C   0  0  0  0  0  0  0  0  0  0  0  0
  -10.2245  -13.6336  -58.7026 C   0  0  0  0  0  0  0  0  0  0  0  0
   -8.9187  -14.1306  -58.7014 C   0  0  0  0  0  0  0  0  0  0  0  0
   -8.6423  -15.3587  -58.1218 C   0  0  0  0  0  0  0  0  0  0  0  0
   -7.3901  -15.8323  -58.0686 F   0  0  0  0  0  0  0  0  0  0  0  0
   -9.6635  -16.1139  -57.5492 C   0  0  0  0  0  0  0  0  0  0  0  0
   -7.6256  -13.1902  -59.4341 S   0  0  0  0  0  0  0  0  0  0  0  0
   -6.4558  -13.0566  -58.2380 N   0  0  0  0  0  0  0  0  0  0  0  0
   -8.1144  -11.8411  -59.6179 O   0  0  0  0  0  0  0  0  0  0  0  0
   -7.0805  -13.9673  -60.5205 O   0  0  0  0  0  0  0  0  0  0  0  0
   -6.4365  -12.1110  -57.8575 H   0  0  0  0  0  0  0  0  0  0  0  0
   -6.4769  -13.7984  -57.5391 H   0  0  0  0  0  0  0  0  0  0  0  0
  -12.4851  -19.6372  -55.9082 H   0  0  0  0  0  0  0  0  0  0  0  0
   -8.6432  -18.3406  -54.7624 H   0  0  0  0  0  0  0  0  0  0  0  0
   -7.7010  -20.4356  -55.5527 H   0  0  0  0  0  0  0  0  0  0  0  0
  -12.8701  -23.2543  -59.8915 H   0  0  0  0  0  0  0  0  0  0  0  0
  -13.7907  -24.7368  -59.8034 H   0  0  0  0  0  0  0  0  0  0  0  0
  -12.0960  -24.7341  -59.3776 H   0  0  0  0  0  0  0  0  0  0  0  0
  -15.4339  -23.4790  -58.5699 H   0  0  0  0  0  0  0  0  0  0  0  0
  -15.2041  -22.7890  -57.1044 H   0  0  0  0  0  0  0  0  0  0  0  0
  -13.2150  -26.0110  -57.4723 H   0  0  0  0  0  0  0  0  0  0  0  0
  -13.1167  -25.1710  -56.0718 H   0  0  0  0  0  0  0  0  0  0  0  0
  -11.0425  -14.2477  -48.9376 H   0  0  0  0  0  0  0  0  0  0  0  0
  -12.4236  -13.7933  -55.5854 H   0  0  0  0  0  0  0  0  0  0  0  0
  -12.5559  -13.6758  -53.8133 H   0  0  0  0  0  0  0  0  0  0  0  0
  -14.3071  -14.9579  -53.9374 H   0  0  0  0  0  0  0  0  0  0  0  0
  -14.5975  -12.1568  -55.3938 H   0  0  0  0  0  0  0  0  0  0  0  0
  -15.9093  -12.5313  -54.7385 H   0  0  0  0  0  0  0  0  0  0  0  0
  -14.4020  -14.1494  -57.0104 H   0  0  0  0  0  0  0  0  0  0  0  0
  -15.6801  -14.8667  -56.6332 H   0  0  0  0  0  0  0  0  0  0  0  0
  -13.0457  -16.0241  -57.1492 H   0  0  0  0  0  0  0  0  0  0  0  0
  -12.1174  -17.4608  -57.3897 H   0  0  0  0  0  0  0  0  0  0  0  0
  -12.2163  -14.0217  -58.1320 H   0  0  0  0  0  0  0  0  0  0  0  0
  -10.4289  -12.7131  -59.1219 H   0  0  0  0  0  0  0  0  0  0  0  0
   -9.4453  -17.0235  -57.1133 H   0  0  0  0  0  0  0  0  0  0  0  0
  1  2  2  0
  2  3  1  0
  3 20  1  0
  3  4  1  0
  4 29  1  0
  4  5  2  0
  5 33  1  0
  5  1  1  0
  6  7  2  0
  7  8  1  0
  7 47  1  0
  8  1  1  0
  8  9  2  0
  9 10  1  0
  9 48  1  0
 10 11  2  0
 10 49  1  0
 11 12  1  0
 11  6  1  0
 13 14  3  0
 14  6  1  0
 15 16  1  0
 15 50  1  0
 15 51  1  0
 15 52  1  0
 16 13  1  0
 16 17  1  0
 17 18  1  0
 17 53  1  0
 17 54  1  0
 18 19  1  0
 19 16  1  0
 19 55  1  0
 19 56  1  0
 20 21  2  0
 21 22  1  0
 22 25  1  0
 22 23  2  0
 23 24  1  0
 23 57  1  0
 24 20  1  0
 25 26  2  0
 25 27  1  0
 27 28  1  0
 29 30  1  0
 29 58  1  0
 29 59  1  0
 30 31  1  0
 30 60  1  0
 31 32  1  0
 31 61  1  0
 31 62  1  0
 32 30  1  0
 32 63  1  0
 32 64  1  0
 33 34  1  0
 33 65  1  0
 33 66  1  0
 34 35  2  0
 35 36  1  0
 35 67  1  0
 36 37  2  0
 36 68  1  0
 37 41  1  0
 37 38  1  0
 38 39  1  0
 38 40  2  0
 40 34  1  0
 40 69  1  0
 41 42  1  0
 41 43  2  0
 41 44  2  0
 42 45  1  0
 42 46  1  0
M  END
>  <minimizedAffinity>  (1) 
-7.31329

>  <mol_id>  (1) 
6096

>  <source_index>  (1) 
0

>  <layer>  (1) 
L1

>  <uniprot>  (1) 
P00338

>  <paff>  (1) 
9

>  <smiles>  (1) 
CC1(C#Cc2cc(-c3nn(-c4nc(C(=O)O)cs4)c(CC4CC4)c3Cc3ccc(S(N)(=O)=O)c(F)c3)ccc2F)COC1

$$$$
L1:P00338:37515
     RDKit          3D

 66 71  0  0  0  0  0  0  0  0999 V2000
  -13.5681  -14.7422  -57.9606 C   0  0  0  0  0  0  0  0  0  0  0  0
  -14.3729  -13.9311  -57.1106 C   0  0  0  0  0  0  0  0  0  0  0  0
  -15.6513  -13.9396  -57.4923 N   0  0  0  0  0  0  0  0  0  0  0  0
  -15.7178  -14.7733  -58.5618 N   0  0  0  0  0  0  0  0  0  0  0  0
  -14.4681  -15.3025  -58.8636 C   0  0  0  0  0  0  0  0  0  0  0  0
  -13.9616  -13.1367  -55.9598 C   0  0  0  0  0  0  0  0  0  0  0  0
  -13.4731  -11.8372  -56.1473 C   0  0  0  0  0  0  0  0  0  0  0  0
  -13.0565  -11.0770  -55.0536 C   0  0  0  0  0  0  0  0  0  0  0  0
  -13.1326  -11.6099  -53.7661 C   0  0  0  0  0  0  0  0  0  0  0  0
  -13.6320  -12.8999  -53.5706 C   0  0  0  0  0  0  0  0  0  0  0  0
  -14.0498  -13.6620  -54.6646 C   0  0  0  0  0  0  0  0  0  0  0  0
  -13.7156  -13.4413  -52.2495 C   0  0  0  0  0  0  0  0  0  0  0  0
  -13.7856  -13.8920  -51.1383 C   0  0  0  0  0  0  0  0  0  0  0  0
  -13.8737  -14.4287  -49.7986 C   0  0  0  0  0  0  0  0  0  0  0  0
  -12.9466  -15.6065  -49.4710 C   0  0  0  0  0  0  0  0  0  0  0  0
  -12.4787  -14.9489  -48.2649 O   0  0  0  0  0  0  0  0  0  0  0  0
  -13.0671  -13.7008  -48.7152 C   0  0  0  0  0  0  0  0  0  0  0  0
  -16.9661  -14.9695  -59.1851 C   0  0  0  0  0  0  0  0  0  0  0  0
  -17.9675  -15.6287  -58.6430 N   0  0  0  0  0  0  0  0  0  0  0  0
  -19.0608  -15.6485  -59.5120 C   0  0  0  0  0  0  0  0  0  0  0  0
  -18.8364  -14.9894  -60.7095 C   0  0  0  0  0  0  0  0  0  0  0  0
  -17.2512  -14.3395  -60.7491 S   0  0  0  0  0  0  0  0  0  0  0  0
  -20.3081  -16.3151  -59.1471 C   0  0  0  0  0  0  0  0  0  0  0  0
  -21.4082  -15.7866  -59.0649 O   0  0  0  0  0  0  0  0  0  0  0  0
  -20.1866  -17.6399  -58.8871 O   0  0  0  0  0  0  0  0  0  0  0  0
  -21.1055  -17.8989  -58.6658 H   0  0  0  0  0  0  0  0  0  0  0  0
  -12.0906  -14.9676  -57.8905 C   0  0  0  0  0  0  0  0  0  0  0  0
  -11.3726  -17.5657  -54.5155 C   0  0  0  0  0  0  0  0  0  0  0  0
  -11.2490  -16.1835  -54.3654 C   0  0  0  0  0  0  0  0  0  0  0  0
  -11.4892  -15.3481  -55.4607 C   0  0  0  0  0  0  0  0  0  0  0  0
  -11.8440  -15.8818  -56.7116 C   0  0  0  0  0  0  0  0  0  0  0  0
  -11.9733  -17.2746  -56.8345 C   0  0  0  0  0  0  0  0  0  0  0  0
  -11.7353  -18.1050  -55.7413 C   0  0  0  0  0  0  0  0  0  0  0  0
  -11.8653  -19.4285  -55.9029 F   0  0  0  0  0  0  0  0  0  0  0  0
  -10.7711  -17.6936  -51.8633 N   0  0  0  0  0  0  0  0  0  0  0  0
  -11.0881  -18.6802  -53.1951 S   0  0  0  0  0  0  0  0  0  0  0  0
  -12.3273  -19.3441  -52.8654 O   0  0  0  0  0  0  0  0  0  0  0  0
   -9.8473  -19.3808  -53.4279 O   0  0  0  0  0  0  0  0  0  0  0  0
  -11.4857  -17.8648  -51.1534 H   0  0  0  0  0  0  0  0  0  0  0  0
   -9.8230  -17.8861  -51.5347 H   0  0  0  0  0  0  0  0  0  0  0  0
  -14.2117  -16.2888  -59.9629 C   0  0  0  0  0  0  0  0  0  0  0  0
  -14.4185  -17.7197  -59.5473 C   0  0  0  0  0  0  0  0  0  0  0  0
  -15.6708  -18.4724  -59.9168 C   0  0  0  0  0  0  0  0  0  0  0  0
  -14.3657  -18.8173  -60.5791 C   0  0  0  0  0  0  0  0  0  0  0  0
  -13.4211  -11.4403  -57.0985 H   0  0  0  0  0  0  0  0  0  0  0  0
  -12.6926  -10.1220  -55.1968 H   0  0  0  0  0  0  0  0  0  0  0  0
  -12.8196  -11.0504  -52.9574 H   0  0  0  0  0  0  0  0  0  0  0  0
  -14.4237  -14.6127  -54.5181 H   0  0  0  0  0  0  0  0  0  0  0  0
  -14.9414  -14.4986  -49.7924 H   0  0  0  0  0  0  0  0  0  0  0  0
  -12.1799  -15.7677  -50.1997 H   0  0  0  0  0  0  0  0  0  0  0  0
  -13.3487  -16.5963  -49.4123 H   0  0  0  0  0  0  0  0  0  0  0  0
  -12.3547  -13.0031  -49.1033 H   0  0  0  0  0  0  0  0  0  0  0  0
  -13.5716  -13.0698  -48.0137 H   0  0  0  0  0  0  0  0  0  0  0  0
  -19.5272  -14.9020  -61.4712 H   0  0  0  0  0  0  0  0  0  0  0  0
  -11.7450  -15.4280  -58.7924 H   0  0  0  0  0  0  0  0  0  0  0  0
  -11.5659  -14.0422  -57.7753 H   0  0  0  0  0  0  0  0  0  0  0  0
  -10.9824  -15.7813  -53.4532 H   0  0  0  0  0  0  0  0  0  0  0  0
  -11.4048  -14.3256  -55.3491 H   0  0  0  0  0  0  0  0  0  0  0  0
  -12.2465  -17.6860  -57.7407 H   0  0  0  0  0  0  0  0  0  0  0  0
  -13.1996  -16.1745  -60.2909 H   0  0  0  0  0  0  0  0  0  0  0  0
  -14.9168  -16.0825  -60.7408 H   0  0  0  0  0  0  0  0  0  0  0  0
  -13.9158  -17.5087  -58.6266 H   0  0  0  0  0  0  0  0  0  0  0  0
  -16.4421  -17.9854  -60.4761 H   0  0  0  0  0  0  0  0  0  0  0  0
  -16.4112  -19.0213  -59.3733 H   0  0  0  0  0  0  0  0  0  0  0  0
  -14.2086  -18.5756  -61.6095 H   0  0  0  0  0  0  0  0  0  0  0  0
  -13.7934  -19.7130  -60.7017 H   0  0  0  0  0  0  0  0  0  0  0  0
  1  2  1  0
  2  6  1  0
  2  3  2  0
  3  4  1  0
  4 18  1  0
  4  5  1  0
  5 41  1  0
  5  1  2  0
  6  7  2  0
  7  8  1  0
  7 45  1  0
  8  9  2  0
  8 46  1  0
  9 10  1  0
  9 47  1  0
 10 12  1  0
 10 11  2  0
 11  6  1  0
 11 48  1  0
 12 13  3  0
 13 14  1  0
 14 15  1  0
 14 49  1  0
 15 16  1  0
 15 50  1  0
 15 51  1  0
 16 17  1  0
 17 14  1  0
 17 52  1  0
 17 53  1  0
 18 19  2  0
 19 20  1  0
 20 23  1  0
 20 21  2  0
 21 22  1  0
 21 54  1  0
 22 18  1  0
 23 24  2  0
 23 25  1  0
 25 26  1  0
 27  1  1  0
 27 55  1  0
 27 56  1  0
 28 29  2  0
 29 30  1  0
 29 57  1  0
 30 31  2  0
 30 58  1  0
 31 27  1  0
 31 32  1  0
 32 33  2  0
 32 59  1  0
 33 34  1  0
 33 28  1  0
 35 36  1  0
 35 39  1  0
 35 40  1  0
 36 37  2  0
 36 38  2  0
 36 28  1  0
 41 42  1  0
 41 60  1  0
 41 61  1  0
 42 43  1  0
 42 62  1  0
 43 44  1  0
 43 63  1  0
 43 64  1  0
 44 42  1  0
 44 65  1  0
 44 66  1  0
M  END
>  <minimizedAffinity>  (2) 
-7.06622

>  <mol_id>  (2) 
37515

>  <source_index>  (2) 
1

>  <layer>  (2) 
L1

>  <uniprot>  (2) 
P00338

>  <paff>  (2) 
9

>  <smiles>  (2) 
NS(=O)(=O)c1ccc(Cc2c(-c3cccc(C#CC4COC4)c3)nn(-c3nc(C(=O)O)cs3)c2CC2CC2)cc1F

$$$$
L1:P00338:43836
     RDKit          3D

 65 70  0  0  0  0  0  0  0  0999 V2000
  -14.5144  -10.9447  -54.5988 C   0  0  0  0  0  0  0  0  0  0  0  0
  -13.7524  -10.2586  -53.6152 C   0  0  0  0  0  0  0  0  0  0  0  0
  -13.1664  -11.1009  -52.7709 N   0  0  0  0  0  0  0  0  0  0  0  0
  -13.5260  -12.3533  -53.1601 N   0  0  0  0  0  0  0  0  0  0  0  0
  -14.3519  -12.2958  -54.2892 C   0  0  0  0  0  0  0  0  0  0  0  0
  -13.5374   -8.8263  -53.4834 C   0  0  0  0  0  0  0  0  0  0  0  0
  -14.1692   -8.1024  -52.4657 C   0  0  0  0  0  0  0  0  0  0  0  0
  -14.0040   -6.7177  -52.3951 C   0  0  0  0  0  0  0  0  0  0  0  0
  -13.2204   -6.0640  -53.3451 C   0  0  0  0  0  0  0  0  0  0  0  0
  -13.1056   -4.7292  -53.2726 F   0  0  0  0  0  0  0  0  0  0  0  0
  -12.5804   -6.7766  -54.3596 C   0  0  0  0  0  0  0  0  0  0  0  0
  -12.7248   -8.1647  -54.4154 C   0  0  0  0  0  0  0  0  0  0  0  0
  -11.8151   -6.1078  -55.3654 C   0  0  0  0  0  0  0  0  0  0  0  0
  -11.2069   -5.5436  -56.2338 C   0  0  0  0  0  0  0  0  0  0  0  0
  -10.5054   -4.8778  -57.2909 C   0  0  0  0  0  0  0  0  0  0  0  0
  -10.1699   -5.6536  -58.5369 C   0  0  0  0  0  0  0  0  0  0  0  0
   -9.0802   -5.2738  -57.5767 C   0  0  0  0  0  0  0  0  0  0  0  0
  -13.0062  -13.3959  -52.3555 C   0  0  0  0  0  0  0  0  0  0  0  0
  -12.9649  -13.3349  -51.0368 N   0  0  0  0  0  0  0  0  0  0  0  0
  -12.4083  -14.4977  -50.5062 C   0  0  0  0  0  0  0  0  0  0  0  0
  -12.0394  -15.4259  -51.4634 C   0  0  0  0  0  0  0  0  0  0  0  0
  -12.3926  -14.8342  -53.0284 S   0  0  0  0  0  0  0  0  0  0  0  0
  -12.2335  -14.7113  -49.0730 C   0  0  0  0  0  0  0  0  0  0  0  0
  -12.9425  -14.2299  -48.1983 O   0  0  0  0  0  0  0  0  0  0  0  0
  -11.1947  -15.5087  -48.7377 O   0  0  0  0  0  0  0  0  0  0  0  0
  -11.2250  -15.5464  -47.7625 H   0  0  0  0  0  0  0  0  0  0  0  0
  -15.3320  -10.3474  -55.7063 C   0  0  0  0  0  0  0  0  0  0  0  0
  -12.7986   -9.7567  -59.1515 C   0  0  0  0  0  0  0  0  0  0  0  0
  -13.0785  -11.0492  -58.7043 C   0  0  0  0  0  0  0  0  0  0  0  0
  -13.8774  -11.2279  -57.5719 C   0  0  0  0  0  0  0  0  0  0  0  0
  -14.4163  -10.1239  -56.8881 C   0  0  0  0  0  0  0  0  0  0  0  0
  -14.0835   -8.8329  -57.3288 C   0  0  0  0  0  0  0  0  0  0  0  0
  -13.2865   -8.6578  -58.4591 C   0  0  0  0  0  0  0  0  0  0  0  0
  -13.0071   -7.4092  -58.8555 F   0  0  0  0  0  0  0  0  0  0  0  0
  -11.3995  -11.0006  -61.1167 N   0  0  0  0  0  0  0  0  0  0  0  0
  -11.8685   -9.4641  -60.6071 S   0  0  0  0  0  0  0  0  0  0  0  0
  -10.6395   -8.7995  -60.2427 O   0  0  0  0  0  0  0  0  0  0  0  0
  -12.7434   -8.9914  -61.6543 O   0  0  0  0  0  0  0  0  0  0  0  0
  -10.3808  -11.0454  -61.1582 H   0  0  0  0  0  0  0  0  0  0  0  0
  -11.8590  -11.2134  -62.0042 H   0  0  0  0  0  0  0  0  0  0  0  0
  -14.9264  -13.4760  -55.0098 C   0  0  0  0  0  0  0  0  0  0  0  0
  -16.4217  -13.6535  -54.9971 C   0  0  0  0  0  0  0  0  0  0  0  0
  -17.0740  -14.7472  -55.8091 C   0  0  0  0  0  0  0  0  0  0  0  0
  -17.3303  -13.3090  -56.1565 C   0  0  0  0  0  0  0  0  0  0  0  0
  -14.7550   -8.5902  -51.7701 H   0  0  0  0  0  0  0  0  0  0  0  0
  -14.4606   -6.1798  -51.6420 H   0  0  0  0  0  0  0  0  0  0  0  0
  -12.2324   -8.7047  -55.1441 H   0  0  0  0  0  0  0  0  0  0  0  0
  -11.0088   -3.9566  -57.0838 H   0  0  0  0  0  0  0  0  0  0  0  0
  -10.2283   -5.1791  -59.4941 H   0  0  0  0  0  0  0  0  0  0  0  0
  -10.5094   -6.5710  -58.9704 H   0  0  0  0  0  0  0  0  0  0  0  0
   -8.3626   -4.5286  -57.8498 H   0  0  0  0  0  0  0  0  0  0  0  0
   -8.3224   -5.8084  -57.0430 H   0  0  0  0  0  0  0  0  0  0  0  0
  -11.6124  -16.3436  -51.2619 H   0  0  0  0  0  0  0  0  0  0  0  0
  -16.1207  -11.0173  -55.9785 H   0  0  0  0  0  0  0  0  0  0  0  0
  -15.7685   -9.4225  -55.3916 H   0  0  0  0  0  0  0  0  0  0  0  0
  -12.6982  -11.8667  -59.2064 H   0  0  0  0  0  0  0  0  0  0  0  0
  -14.0744  -12.1826  -57.2331 H   0  0  0  0  0  0  0  0  0  0  0  0
  -14.4308   -8.0092  -56.8131 H   0  0  0  0  0  0  0  0  0  0  0  0
  -14.4981  -14.3543  -54.5738 H   0  0  0  0  0  0  0  0  0  0  0  0
  -14.6867  -13.3035  -56.0382 H   0  0  0  0  0  0  0  0  0  0  0  0
  -16.3907  -13.3571  -53.9694 H   0  0  0  0  0  0  0  0  0  0  0  0
  -17.8537  -15.3398  -55.3781 H   0  0  0  0  0  0  0  0  0  0  0  0
  -16.7197  -15.6020  -56.3464 H   0  0  0  0  0  0  0  0  0  0  0  0
  -18.2920  -12.8777  -55.9722 H   0  0  0  0  0  0  0  0  0  0  0  0
  -17.2338  -12.7166  -57.0423 H   0  0  0  0  0  0  0  0  0  0  0  0
  1  2  1  0
  2  6  1  0
  2  3  2  0
  3  4  1  0
  4 18  1  0
  4  5  1  0
  5 41  1  0
  5  1  2  0
  6  7  2  0
  7  8  1  0
  7 45  1  0
  8  9  2  0
  8 46  1  0
  9 10  1  0
  9 11  1  0
 11 13  1  0
 11 12  2  0
 12  6  1  0
 12 47  1  0
 13 14  3  0
 14 15  1  0
 15 16  1  0
 15 48  1  0
 16 17  1  0
 16 49  1  0
 16 50  1  0
 17 15  1  0
 17 51  1  0
 17 52  1  0
 18 19  2  0
 19 20  1  0
 20 23  1  0
 20 21  2  0
 21 22  1  0
 21 53  1  0
 22 18  1  0
 23 24  2  0
 23 25  1  0
 25 26  1  0
 27  1  1  0
 27 54  1  0
 27 55  1  0
 28 29  2  0
 29 30  1  0
 29 56  1  0
 30 31  2  0
 30 57  1  0
 31 27  1  0
 31 32  1  0
 32 33  2  0
 32 58  1  0
 33 34  1  0
 33 28  1  0
 35 36  1  0
 35 39  1  0
 35 40  1  0
 36 37  2  0
 36 38  2  0
 36 28  1  0
 41 42  1  0
 41 59  1  0
 41 60  1  0
 42 43  1  0
 42 61  1  0
 43 44  1  0
 43 62  1  0
 43 63  1  0
 44 42  1  0
 44 64  1  0
 44 65  1  0
M  END
>  <minimizedAffinity>  (3) 
-7.21428

>  <mol_id>  (3) 
43836

>  <source_index>  (3) 
2

>  <layer>  (3) 
L1

>  <uniprot>  (3) 
P00338

>  <paff>  (3) 
9

>  <smiles>  (3) 
NS(=O)(=O)c1ccc(Cc2c(CC3CC3)n(nc2-c2ccc(F)c(c2)C#CC2CC2)-c2nc(cs2)C(O)=O)cc1F

$$$$
L1:P00338:47131
     RDKit          3D

 67 72  0  0  0  0  0  0  0  0999 V2000
  -13.3261  -15.3512  -58.0856 C   0  0  0  0  0  0  0  0  0  0  0  0
  -14.1927  -14.4945  -57.3467 C   0  0  0  0  0  0  0  0  0  0  0  0
  -15.4499  -14.5718  -57.7863 N   0  0  0  0  0  0  0  0  0  0  0  0
  -15.4529  -15.5307  -58.7472 N   0  0  0  0  0  0  0  0  0  0  0  0
  -14.1687  -16.0063  -58.9815 C   0  0  0  0  0  0  0  0  0  0  0  0
  -13.8679  -13.5814  -56.2558 C   0  0  0  0  0  0  0  0  0  0  0  0
  -13.4764  -12.2614  -56.5182 C   0  0  0  0  0  0  0  0  0  0  0  0
  -13.1738  -11.3978  -55.4637 C   0  0  0  0  0  0  0  0  0  0  0  0
  -13.2559  -11.8553  -54.1510 C   0  0  0  0  0  0  0  0  0  0  0  0
  -12.9647  -11.0044  -53.1556 F   0  0  0  0  0  0  0  0  0  0  0  0
  -13.6305  -13.1702  -53.8729 C   0  0  0  0  0  0  0  0  0  0  0  0
  -13.9311  -14.0351  -54.9288 C   0  0  0  0  0  0  0  0  0  0  0  0
  -13.7115  -13.6373  -52.5236 C   0  0  0  0  0  0  0  0  0  0  0  0
  -13.7843  -14.0295  -51.3903 C   0  0  0  0  0  0  0  0  0  0  0  0
  -13.8799  -14.5023  -50.0228 C   0  0  0  0  0  0  0  0  0  0  0  0
  -15.2747  -14.7457  -49.7169 O   0  0  0  0  0  0  0  0  0  0  0  0
  -12.8891  -15.6202  -49.6378 C   0  0  0  0  0  0  0  0  0  0  0  0
  -12.1592  -14.7520  -48.7407 O   0  0  0  0  0  0  0  0  0  0  0  0
  -13.0964  -13.6749  -48.9831 C   0  0  0  0  0  0  0  0  0  0  0  0
  -15.5590  -15.4110  -50.3667 H   0  0  0  0  0  0  0  0  0  0  0  0
  -16.6820  -15.9056  -59.3240 C   0  0  0  0  0  0  0  0  0  0  0  0
  -17.4247  -16.9058  -58.8989 N   0  0  0  0  0  0  0  0  0  0  0  0
  -18.5861  -16.9997  -59.6717 C   0  0  0  0  0  0  0  0  0  0  0  0
  -18.6743  -16.0508  -60.6762 C   0  0  0  0  0  0  0  0  0  0  0  0
  -17.3047  -15.0232  -60.6505 S   0  0  0  0  0  0  0  0  0  0  0  0
  -19.6143  -18.0085  -59.4351 C   0  0  0  0  0  0  0  0  0  0  0  0
  -20.8195  -17.8310  -59.5514 O   0  0  0  0  0  0  0  0  0  0  0  0
  -19.1450  -19.2190  -59.0538 O   0  0  0  0  0  0  0  0  0  0  0  0
  -19.9547  -19.7558  -58.9432 H   0  0  0  0  0  0  0  0  0  0  0  0
  -11.8466  -15.5137  -57.9231 C   0  0  0  0  0  0  0  0  0  0  0  0
  -11.2148  -17.8628  -54.3553 C   0  0  0  0  0  0  0  0  0  0  0  0
  -11.0478  -16.4775  -54.3129 C   0  0  0  0  0  0  0  0  0  0  0  0
  -11.2477  -15.7240  -55.4728 C   0  0  0  0  0  0  0  0  0  0  0  0
  -11.6245  -16.3419  -56.6777 C   0  0  0  0  0  0  0  0  0  0  0  0
  -11.7647  -17.7395  -56.7000 C   0  0  0  0  0  0  0  0  0  0  0  0
  -11.5667  -18.4880  -55.5418 C   0  0  0  0  0  0  0  0  0  0  0  0
  -11.6905  -19.8204  -55.6105 F   0  0  0  0  0  0  0  0  0  0  0  0
  -10.7665  -17.6876  -51.6881 N   0  0  0  0  0  0  0  0  0  0  0  0
  -10.9964  -18.8307  -52.9041 S   0  0  0  0  0  0  0  0  0  0  0  0
   -9.7543  -19.5559  -53.0292 O   0  0  0  0  0  0  0  0  0  0  0  0
  -12.2473  -19.4948  -52.6163 O   0  0  0  0  0  0  0  0  0  0  0  0
  -10.9508  -16.7305  -51.9842 H   0  0  0  0  0  0  0  0  0  0  0  0
   -9.8130  -17.7857  -51.3310 H   0  0  0  0  0  0  0  0  0  0  0  0
  -13.8375  -17.0105  -60.0432 C   0  0  0  0  0  0  0  0  0  0  0  0
  -13.9524  -18.4417  -59.5877 C   0  0  0  0  0  0  0  0  0  0  0  0
  -14.3154  -19.5119  -60.5880 C   0  0  0  0  0  0  0  0  0  0  0  0
  -12.9352  -19.4753  -59.9995 C   0  0  0  0  0  0  0  0  0  0  0  0
  -13.4117  -11.9273  -57.4925 H   0  0  0  0  0  0  0  0  0  0  0  0
  -12.8904  -10.4243  -55.6563 H   0  0  0  0  0  0  0  0  0  0  0  0
  -14.2007  -15.0116  -54.7321 H   0  0  0  0  0  0  0  0  0  0  0  0
  -12.3035  -15.9739  -50.4605 H   0  0  0  0  0  0  0  0  0  0  0  0
  -13.2714  -16.5480  -49.2664 H   0  0  0  0  0  0  0  0  0  0  0  0
  -12.6417  -12.7963  -49.3908 H   0  0  0  0  0  0  0  0  0  0  0  0
  -13.6224  -13.2469  -48.1555 H   0  0  0  0  0  0  0  0  0  0  0  0
  -19.4555  -15.9737  -61.3461 H   0  0  0  0  0  0  0  0  0  0  0  0
  -11.4366  -16.0147  -58.7750 H   0  0  0  0  0  0  0  0  0  0  0  0
  -11.3659  -14.5615  -57.8380 H   0  0  0  0  0  0  0  0  0  0  0  0
  -10.7787  -16.0132  -53.4314 H   0  0  0  0  0  0  0  0  0  0  0  0
  -11.1170  -14.7007  -55.4443 H   0  0  0  0  0  0  0  0  0  0  0  0
  -12.0162  -18.2152  -57.5806 H   0  0  0  0  0  0  0  0  0  0  0  0
  -12.8319  -16.8396  -60.3664 H   0  0  0  0  0  0  0  0  0  0  0  0
  -14.5505  -16.8770  -60.8298 H   0  0  0  0  0  0  0  0  0  0  0  0
  -14.3394  -18.1046  -58.6488 H   0  0  0  0  0  0  0  0  0  0  0  0
  -14.4655  -19.2545  -61.6157 H   0  0  0  0  0  0  0  0  0  0  0  0
  -15.0874  -20.2493  -60.6595 H   0  0  0  0  0  0  0  0  0  0  0  0
  -12.1020  -19.1922  -60.6082 H   0  0  0  0  0  0  0  0  0  0  0  0
  -12.3174  -20.1765  -59.4785 H   0  0  0  0  0  0  0  0  0  0  0  0
  1  2  1  0
  2  6  1  0
  2  3  2  0
  3  4  1  0
  4 21  1  0
  4  5  1  0
  5 44  1  0
  5  1  2  0
  6  7  2  0
  7  8  1  0
  7 48  1  0
  8  9  2  0
  8 49  1  0
  9 10  1  0
  9 11  1  0
 11 13  1  0
 11 12  2  0
 12  6  1  0
 12 50  1  0
 13 14  3  0
 14 15  1  0
 15 16  1  0
 15 17  1  0
 16 20  1  0
 17 18  1  0
 17 51  1  0
 17 52  1  0
 18 19  1  0
 19 15  1  0
 19 53  1  0
 19 54  1  0
 21 22  2  0
 22 23  1  0
 23 26  1  0
 23 24  2  0
 24 25  1  0
 24 55  1  0
 25 21  1  0
 26 27  2  0
 26 28  1  0
 28 29  1  0
 30  1  1  0
 30 56  1  0
 30 57  1  0
 31 32  2  0
 32 33  1  0
 32 58  1  0
 33 34  2  0
 33 59  1  0
 34 30  1  0
 34 35  1  0
 35 36  2  0
 35 60  1  0
 36 37  1  0
 36 31  1  0
 38 39  1  0
 38 42  1  0
 38 43  1  0
 39 40  2  0
 39 41  2  0
 39 31  1  0
 44 45  1  0
 44 61  1  0
 44 62  1  0
 45 46  1  0
 45 63  1  0
 46 47  1  0
 46 64  1  0
 46 65  1  0
 47 45  1  0
 47 66  1  0
 47 67  1  0
M  END
>  <minimizedAffinity>  (4) 
-7.67474

>  <mol_id>  (4) 
47131

>  <source_index>  (4) 
3

>  <layer>  (4) 
L1

>  <uniprot>  (4) 
P00338

>  <paff>  (4) 
9

>  <smiles>  (4) 
NS(=O)(=O)c1ccc(Cc2c(-c3ccc(F)c(C#CC4(O)COC4)c3)nn(-c3nc(C(=O)O)cs3)c2CC2CC2)cc1F

$$$$
L1:P00338:69006
     RDKit          3D

 66 71  0  0  0  0  0  0  0  0999 V2000
  -11.9477  -15.4554  -57.6476 C   0  0  0  0  0  0  0  0  0  0  0  0
  -11.0410  -16.2196  -56.8634 C   0  0  0  0  0  0  0  0  0  0  0  0
   -9.8211  -16.2132  -57.3935 N   0  0  0  0  0  0  0  0  0  0  0  0
   -9.8945  -15.4957  -58.5452 N   0  0  0  0  0  0  0  0  0  0  0  0
  -11.1980  -15.0325  -58.7485 C   0  0  0  0  0  0  0  0  0  0  0  0
  -11.2786  -16.9397  -55.6153 C   0  0  0  0  0  0  0  0  0  0  0  0
  -11.3842  -18.3390  -55.6281 C   0  0  0  0  0  0  0  0  0  0  0  0
  -11.6062  -19.0410  -54.4423 C   0  0  0  0  0  0  0  0  0  0  0  0
  -11.7326  -18.3439  -53.2446 C   0  0  0  0  0  0  0  0  0  0  0  0
  -11.9410  -19.0374  -52.1149 F   0  0  0  0  0  0  0  0  0  0  0  0
  -11.6484  -16.9512  -53.2153 C   0  0  0  0  0  0  0  0  0  0  0  0
  -11.4266  -16.2486  -54.4044 C   0  0  0  0  0  0  0  0  0  0  0  0
  -11.7873  -16.2367  -51.9843 C   0  0  0  0  0  0  0  0  0  0  0  0
  -11.9008  -15.6377  -50.9495 C   0  0  0  0  0  0  0  0  0  0  0  0
  -12.0417  -14.9336  -49.7158 C   0  0  0  0  0  0  0  0  0  0  0  0
  -11.2623  -15.4696  -48.6439 O   0  0  0  0  0  0  0  0  0  0  0  0
  -12.2140  -13.4453  -49.7159 C   0  0  0  0  0  0  0  0  0  0  0  0
  -13.3619  -14.3374  -49.3329 C   0  0  0  0  0  0  0  0  0  0  0  0
  -11.4376  -16.4207  -48.5419 H   0  0  0  0  0  0  0  0  0  0  0  0
   -8.6716  -15.3890  -59.2487 C   0  0  0  0  0  0  0  0  0  0  0  0
   -7.6288  -14.7259  -58.7819 N   0  0  0  0  0  0  0  0  0  0  0  0
   -6.5652  -14.7832  -59.6815 C   0  0  0  0  0  0  0  0  0  0  0  0
   -6.8427  -15.5082  -60.8263 C   0  0  0  0  0  0  0  0  0  0  0  0
   -8.4402  -16.1151  -60.7684 S   0  0  0  0  0  0  0  0  0  0  0  0
   -5.2803  -14.1370  -59.4333 C   0  0  0  0  0  0  0  0  0  0  0  0
   -4.2434  -14.3763  -60.0391 O   0  0  0  0  0  0  0  0  0  0  0  0
   -5.2883  -13.2105  -58.4487 O   0  0  0  0  0  0  0  0  0  0  0  0
   -4.3677  -12.8860  -58.4182 H   0  0  0  0  0  0  0  0  0  0  0  0
  -13.3924  -15.1883  -57.3530 C   0  0  0  0  0  0  0  0  0  0  0  0
  -13.5596  -11.8932  -54.5662 C   0  0  0  0  0  0  0  0  0  0  0  0
  -13.2139  -11.6612  -55.8990 C   0  0  0  0  0  0  0  0  0  0  0  0
  -13.1629  -12.7330  -56.7944 C   0  0  0  0  0  0  0  0  0  0  0  0
  -13.4431  -14.0420  -56.3677 C   0  0  0  0  0  0  0  0  0  0  0  0
  -13.8071  -14.2465  -55.0259 C   0  0  0  0  0  0  0  0  0  0  0  0
  -13.8553  -13.1770  -54.1338 C   0  0  0  0  0  0  0  0  0  0  0  0
  -14.2058  -13.4199  -52.8634 F   0  0  0  0  0  0  0  0  0  0  0  0
  -15.2439  -10.2368  -53.2801 N   0  0  0  0  0  0  0  0  0  0  0  0
  -13.6049  -10.5725  -53.4149 S   0  0  0  0  0  0  0  0  0  0  0  0
  -13.1616  -11.0439  -52.1253 O   0  0  0  0  0  0  0  0  0  0  0  0
  -13.0350   -9.3961  -54.0341 O   0  0  0  0  0  0  0  0  0  0  0  0
  -15.4285   -9.2762  -53.5694 H   0  0  0  0  0  0  0  0  0  0  0  0
  -15.5647  -10.4575  -52.3362 H   0  0  0  0  0  0  0  0  0  0  0  0
  -11.6726  -14.2238  -59.9187 C   0  0  0  0  0  0  0  0  0  0  0  0
  -11.5745  -12.7305  -59.7392 C   0  0  0  0  0  0  0  0  0  0  0  0
  -10.2280  -12.0569  -59.6110 C   0  0  0  0  0  0  0  0  0  0  0  0
  -11.0312  -11.8759  -60.8618 C   0  0  0  0  0  0  0  0  0  0  0  0
  -11.2972  -18.8519  -56.5194 H   0  0  0  0  0  0  0  0  0  0  0  0
  -11.6762  -20.0706  -54.4537 H   0  0  0  0  0  0  0  0  0  0  0  0
  -11.3717  -15.2182  -54.3903 H   0  0  0  0  0  0  0  0  0  0  0  0
  -12.2384  -12.9093  -50.6417 H   0  0  0  0  0  0  0  0  0  0  0  0
  -11.7064  -12.6242  -49.2543 H   0  0  0  0  0  0  0  0  0  0  0  0
  -14.2037  -14.4367  -49.9859 H   0  0  0  0  0  0  0  0  0  0  0  0
  -14.0106  -14.4150  -48.4855 H   0  0  0  0  0  0  0  0  0  0  0  0
   -6.1810  -15.6608  -61.6034 H   0  0  0  0  0  0  0  0  0  0  0  0
  -13.9068  -14.9216  -58.2525 H   0  0  0  0  0  0  0  0  0  0  0  0
  -13.8648  -16.0587  -56.9479 H   0  0  0  0  0  0  0  0  0  0  0  0
  -12.9975  -10.7048  -56.2207 H   0  0  0  0  0  0  0  0  0  0  0  0
  -12.9163  -12.5608  -57.7816 H   0  0  0  0  0  0  0  0  0  0  0  0
  -14.0407  -15.1968  -54.6983 H   0  0  0  0  0  0  0  0  0  0  0  0
  -12.6981  -14.4703  -60.0992 H   0  0  0  0  0  0  0  0  0  0  0  0
  -11.0276  -14.4710  -60.7359 H   0  0  0  0  0  0  0  0  0  0  0  0
  -12.4694  -12.7458  -59.1528 H   0  0  0  0  0  0  0  0  0  0  0  0
   -9.3333  -12.6434  -59.6310 H   0  0  0  0  0  0  0  0  0  0  0  0
   -9.7798  -11.3952  -58.8995 H   0  0  0  0  0  0  0  0  0  0  0  0
  -10.7097  -12.3335  -61.7740 H   0  0  0  0  0  0  0  0  0  0  0  0
  -11.3930  -11.0320  -61.4113 H   0  0  0  0  0  0  0  0  0  0  0  0
  1  2  1  0
  2  6  1  0
  2  3  2  0
  3  4  1  0
  4 20  1  0
  4  5  1  0
  5 43  1  0
  5  1  2  0
  6  7  2  0
  7  8  1  0
  7 47  1  0
  8  9  2  0
  8 48  1  0
  9 10  1  0
  9 11  1  0
 11 13  1  0
 11 12  2  0
 12  6  1  0
 12 49  1  0
 13 14  3  0
 14 15  1  0
 15 16  1  0
 15 17  1  0
 16 19  1  0
 17 18  1  0
 17 50  1  0
 17 51  1  0
 18 15  1  0
 18 52  1  0
 18 53  1  0
 20 21  2  0
 21 22  1  0
 22 25  1  0
 22 23  2  0
 23 24  1  0
 23 54  1  0
 24 20  1  0
 25 26  2  0
 25 27  1  0
 27 28  1  0
 29  1  1  0
 29 55  1  0
 29 56  1  0
 30 31  2  0
 31 32  1  0
 31 57  1  0
 32 33  2  0
 32 58  1  0
 33 29  1  0
 33 34  1  0
 34 35  2  0
 34 59  1  0
 35 36  1  0
 35 30  1  0
 37 38  1  0
 37 41  1  0
 37 42  1  0
 38 39  2  0
 38 40  2  0
 38 30  1  0
 43 44  1  0
 43 60  1  0
 43 61  1  0
 44 45  1  0
 44 62  1  0
 45 46  1  0
 45 63  1  0
 45 64  1  0
 46 44  1  0
 46 65  1  0
 46 66  1  0
M  END
>  <minimizedAffinity>  (5) 
-7.44617

>  <mol_id>  (5) 
69006

>  <source_index>  (5) 
4

>  <layer>  (5) 
L1

>  <uniprot>  (5) 
P00338

>  <paff>  (5) 
9

>  <smiles>  (5) 
NS(=O)(=O)c1ccc(Cc2c(-c3ccc(F)c(C#CC4(O)CC4)c3)nn(-c3nc(C(=O)O)cs3)c2CC2CC2)cc1F

$$$$
L1:P00338:69523
     RDKit          3D

 68 72  0  0  0  0  0  0  0  0999 V2000
  -11.4507  -14.7973  -56.9519 C   0  0  0  0  0  0  0  0  0  0  0  0
  -10.3540  -14.3955  -57.5939 N   0  0  0  0  0  0  0  0  0  0  0  0
   -9.4075  -15.3356  -57.3371 N   0  0  0  0  0  0  0  0  0  0  0  0
   -9.9066  -16.3364  -56.5094 C   0  0  0  0  0  0  0  0  0  0  0  0
  -11.2437  -16.0293  -56.2729 C   0  0  0  0  0  0  0  0  0  0  0  0
  -14.0516  -12.2280  -56.1075 C   0  0  0  0  0  0  0  0  0  0  0  0
  -12.9075  -13.0265  -56.0308 C   0  0  0  0  0  0  0  0  0  0  0  0
  -12.6651  -13.9996  -57.0103 C   0  0  0  0  0  0  0  0  0  0  0  0
  -13.5814  -14.1890  -58.0530 C   0  0  0  0  0  0  0  0  0  0  0  0
  -14.7310  -13.4010  -58.1204 C   0  0  0  0  0  0  0  0  0  0  0  0
  -14.9568  -12.4255  -57.1517 C   0  0  0  0  0  0  0  0  0  0  0  0
  -16.0652  -11.6753  -57.2450 F   0  0  0  0  0  0  0  0  0  0  0  0
  -14.4419  -10.3405  -54.3165 C   0  0  0  0  0  0  0  0  0  0  0  0
  -14.2722  -11.2068  -55.1315 C   0  0  0  0  0  0  0  0  0  0  0  0
  -15.4677   -8.1316  -53.9297 C   0  0  0  0  0  0  0  0  0  0  0  0
  -14.6513   -9.2710  -53.3266 C   0  0  0  0  0  0  0  0  0  0  0  0
  -13.3117   -8.7565  -52.8026 C   0  0  0  0  0  0  0  0  0  0  0  0
  -15.3871   -9.7955  -52.2213 O   0  0  0  0  0  0  0  0  0  0  0  0
  -14.9803  -10.6481  -51.9907 H   0  0  0  0  0  0  0  0  0  0  0  0
   -8.1313  -15.1816  -57.9137 C   0  0  0  0  0  0  0  0  0  0  0  0
   -7.5427  -16.0925  -58.6590 N   0  0  0  0  0  0  0  0  0  0  0  0
   -6.2903  -15.6355  -59.0760 C   0  0  0  0  0  0  0  0  0  0  0  0
   -5.9747  -14.3651  -58.6253 C   0  0  0  0  0  0  0  0  0  0  0  0
   -7.2501  -13.7362  -57.6697 S   0  0  0  0  0  0  0  0  0  0  0  0
   -5.4006  -16.4352  -59.9115 C   0  0  0  0  0  0  0  0  0  0  0  0
   -4.8130  -17.4475  -59.5543 O   0  0  0  0  0  0  0  0  0  0  0  0
   -5.2499  -15.9773  -61.1762 O   0  0  0  0  0  0  0  0  0  0  0  0
   -4.6358  -16.6201  -61.5828 H   0  0  0  0  0  0  0  0  0  0  0  0
   -9.0992  -17.4908  -55.9982 C   0  0  0  0  0  0  0  0  0  0  0  0
   -9.6539  -18.8334  -56.3889 C   0  0  0  0  0  0  0  0  0  0  0  0
   -9.9150  -19.9045  -55.3616 C   0  0  0  0  0  0  0  0  0  0  0  0
   -8.7741  -20.0560  -56.3292 C   0  0  0  0  0  0  0  0  0  0  0  0
  -12.2319  -16.8012  -55.4563 C   0  0  0  0  0  0  0  0  0  0  0  0
  -12.2203  -16.1950  -54.0707 C   0  0  0  0  0  0  0  0  0  0  0  0
  -11.4489  -16.7538  -53.0369 C   0  0  0  0  0  0  0  0  0  0  0  0
  -11.4630  -16.1989  -51.7543 C   0  0  0  0  0  0  0  0  0  0  0  0
  -12.2481  -15.0722  -51.4995 C   0  0  0  0  0  0  0  0  0  0  0  0
  -13.0026  -14.5015  -52.5132 C   0  0  0  0  0  0  0  0  0  0  0  0
  -13.7567  -13.4161  -52.2932 F   0  0  0  0  0  0  0  0  0  0  0  0
  -12.9851  -15.0495  -53.7944 C   0  0  0  0  0  0  0  0  0  0  0  0
  -12.3111  -14.3763  -49.8924 S   0  0  0  0  0  0  0  0  0  0  0  0
  -11.1670  -15.2606  -49.0402 N   0  0  0  0  0  0  0  0  0  0  0  0
  -13.5758  -14.7261  -49.2838 O   0  0  0  0  0  0  0  0  0  0  0  0
  -11.8425  -13.0128  -49.9436 O   0  0  0  0  0  0  0  0  0  0  0  0
  -11.6096  -15.7399  -48.2563 H   0  0  0  0  0  0  0  0  0  0  0  0
  -10.3902  -14.6532  -48.7744 H   0  0  0  0  0  0  0  0  0  0  0  0
  -12.2410  -12.8999  -55.2531 H   0  0  0  0  0  0  0  0  0  0  0  0
  -13.4064  -14.9102  -58.7701 H   0  0  0  0  0  0  0  0  0  0  0  0
  -15.4108  -13.5402  -58.8843 H   0  0  0  0  0  0  0  0  0  0  0  0
  -15.6084   -7.3661  -53.1955 H   0  0  0  0  0  0  0  0  0  0  0  0
  -16.4204   -8.5032  -54.2446 H   0  0  0  0  0  0  0  0  0  0  0  0
  -14.9468   -7.7265  -54.7720 H   0  0  0  0  0  0  0  0  0  0  0  0
  -13.4833   -7.9811  -52.0855 H   0  0  0  0  0  0  0  0  0  0  0  0
  -12.7356   -8.3685  -53.6165 H   0  0  0  0  0  0  0  0  0  0  0  0
  -12.7780   -9.5595  -52.3387 H   0  0  0  0  0  0  0  0  0  0  0  0
   -5.0954  -13.8673  -58.8353 H   0  0  0  0  0  0  0  0  0  0  0  0
   -9.0683  -17.4354  -54.9301 H   0  0  0  0  0  0  0  0  0  0  0  0
   -8.1269  -17.4129  -56.4380 H   0  0  0  0  0  0  0  0  0  0  0  0
  -10.2485  -18.3531  -57.1376 H   0  0  0  0  0  0  0  0  0  0  0  0
  -10.7778  -20.5311  -55.4499 H   0  0  0  0  0  0  0  0  0  0  0  0
  -10.0101  -19.9230  -54.2960 H   0  0  0  0  0  0  0  0  0  0  0  0
   -8.8254  -20.7903  -57.1058 H   0  0  0  0  0  0  0  0  0  0  0  0
   -7.7218  -20.2267  -56.2369 H   0  0  0  0  0  0  0  0  0  0  0  0
  -11.9471  -17.8316  -55.4102 H   0  0  0  0  0  0  0  0  0  0  0  0
  -13.2093  -16.7527  -55.8889 H   0  0  0  0  0  0  0  0  0  0  0  0
  -10.8654  -17.5834  -53.2273 H   0  0  0  0  0  0  0  0  0  0  0  0
  -10.8970  -16.6189  -51.0004 H   0  0  0  0  0  0  0  0  0  0  0  0
  -13.5386  -14.6101  -54.5465 H   0  0  0  0  0  0  0  0  0  0  0  0
  1  2  2  0
  2  3  1  0
  3 20  1  0
  3  4  1  0
  4 29  1  0
  4  5  2  0
  5 33  1  0
  5  1  1  0
  6  7  2  0
  7  8  1  0
  7 47  1  0
  8  1  1  0
  8  9  2  0
  9 10  1  0
  9 48  1  0
 10 11  2  0
 10 49  1  0
 11 12  1  0
 11  6  1  0
 13 14  3  0
 14  6  1  0
 15 16  1  0
 15 50  1  0
 15 51  1  0
 15 52  1  0
 16 17  1  0
 16 18  1  0
 16 13  1  0
 17 53  1  0
 17 54  1  0
 17 55  1  0
 18 19  1  0
 20 21  2  0
 21 22  1  0
 22 25  1  0
 22 23  2  0
 23 24  1  0
 23 56  1  0
 24 20  1  0
 25 26  2  0
 25 27  1  0
 27 28  1  0
 29 30  1  0
 29 57  1  0
 29 58  1  0
 30 31  1  0
 30 59  1  0
 31 32  1  0
 31 60  1  0
 31 61  1  0
 32 30  1  0
 32 62  1  0
 32 63  1  0
 33 34  1  0
 33 64  1  0
 33 65  1  0
 34 35  2  0
 35 36  1  0
 35 66  1  0
 36 37  2  0
 36 67  1  0
 37 41  1  0
 37 38  1  0
 38 39  1  0
 38 40  2  0
 40 34  1  0
 40 68  1  0
 41 42  1  0
 41 43  2  0
 41 44  2  0
 42 45  1  0
 42 46  1  0
M  END
>  <minimizedAffinity>  (6) 
-7.44585

>  <mol_id>  (6) 
69523

>  <source_index>  (6) 
5

>  <layer>  (6) 
L1

>  <uniprot>  (6) 
P00338

>  <paff>  (6) 
9

>  <smiles>  (6) 
CC(C)(O)C#Cc1cc(-c2nn(-c3nc(C(=O)O)cs3)c(CC3CC3)c2Cc2ccc(S(N)(=O)=O)c(F)c2)ccc1F

$$$$
L1:P00338:69524
     RDKit          3D

 69 74  0  0  0  0  0  0  0  0999 V2000
  -11.0351  -15.1627  -57.7783 C   0  0  0  0  0  0  0  0  0  0  0  0
  -10.2790  -15.9869  -56.8889 C   0  0  0  0  0  0  0  0  0  0  0  0
   -8.9790  -15.9617  -57.1966 N   0  0  0  0  0  0  0  0  0  0  0  0
   -8.8598  -15.1488  -58.2738 N   0  0  0  0  0  0  0  0  0  0  0  0
  -10.0887  -14.6180  -58.6426 C   0  0  0  0  0  0  0  0  0  0  0  0
  -10.7273  -16.7729  -55.7366 C   0  0  0  0  0  0  0  0  0  0  0  0
  -10.9342  -18.1554  -55.8781 C   0  0  0  0  0  0  0  0  0  0  0  0
  -11.3630  -18.9257  -54.7947 C   0  0  0  0  0  0  0  0  0  0  0  0
  -11.5928  -18.3162  -53.5658 C   0  0  0  0  0  0  0  0  0  0  0  0
  -12.0013  -19.0741  -52.5369 F   0  0  0  0  0  0  0  0  0  0  0  0
  -11.4055  -16.9440  -53.4068 C   0  0  0  0  0  0  0  0  0  0  0  0
  -10.9782  -16.1736  -54.4947 C   0  0  0  0  0  0  0  0  0  0  0  0
  -11.6431  -16.3095  -52.1478 C   0  0  0  0  0  0  0  0  0  0  0  0
  -11.8494  -15.7517  -51.1041 C   0  0  0  0  0  0  0  0  0  0  0  0
  -12.1015  -15.0661  -49.8558 C   0  0  0  0  0  0  0  0  0  0  0  0
  -11.1330  -15.5358  -48.8939 O   0  0  0  0  0  0  0  0  0  0  0  0
  -13.5829  -15.0857  -49.3869 C   0  0  0  0  0  0  0  0  0  0  0  0
  -13.4255  -13.6051  -48.9935 C   0  0  0  0  0  0  0  0  0  0  0  0
  -12.2416  -13.5229  -49.9751 C   0  0  0  0  0  0  0  0  0  0  0  0
  -11.3197  -15.0456  -48.0768 H   0  0  0  0  0  0  0  0  0  0  0  0
   -7.5850  -14.9481  -58.8385 C   0  0  0  0  0  0  0  0  0  0  0  0
   -7.0939  -15.6768  -59.8186 N   0  0  0  0  0  0  0  0  0  0  0  0
   -5.8094  -15.2356  -60.1444 C   0  0  0  0  0  0  0  0  0  0  0  0
   -5.3719  -14.1634  -59.3849 C   0  0  0  0  0  0  0  0  0  0  0  0
   -6.5724  -13.7028  -58.2518 S   0  0  0  0  0  0  0  0  0  0  0  0
   -5.0070  -15.8559  -61.1937 C   0  0  0  0  0  0  0  0  0  0  0  0
   -4.3116  -16.8536  -61.0565 O   0  0  0  0  0  0  0  0  0  0  0  0
   -5.0716  -15.2384  -62.3962 O   0  0  0  0  0  0  0  0  0  0  0  0
   -4.4886  -15.7789  -62.9648 H   0  0  0  0  0  0  0  0  0  0  0  0
  -12.5021  -14.8750  -57.7271 C   0  0  0  0  0  0  0  0  0  0  0  0
  -13.2725  -11.3818  -55.2908 C   0  0  0  0  0  0  0  0  0  0  0  0
  -13.2949  -11.2506  -56.6793 C   0  0  0  0  0  0  0  0  0  0  0  0
  -13.0381  -12.3663  -57.4829 C   0  0  0  0  0  0  0  0  0  0  0  0
  -12.7422  -13.6184  -56.9135 C   0  0  0  0  0  0  0  0  0  0  0  0
  -12.7507  -13.7254  -55.5112 C   0  0  0  0  0  0  0  0  0  0  0  0
  -13.0073  -12.6127  -54.7122 C   0  0  0  0  0  0  0  0  0  0  0  0
  -12.9521  -12.7541  -53.3809 F   0  0  0  0  0  0  0  0  0  0  0  0
  -15.0040  -10.4213  -53.4494 N   0  0  0  0  0  0  0  0  0  0  0  0
  -13.5868   -9.9962  -54.2572 S   0  0  0  0  0  0  0  0  0  0  0  0
  -12.5460   -9.9332  -53.2566 O   0  0  0  0  0  0  0  0  0  0  0  0
  -13.9150   -8.8673  -55.0952 O   0  0  0  0  0  0  0  0  0  0  0  0
  -15.7474   -9.7872  -53.7508 H   0  0  0  0  0  0  0  0  0  0  0  0
  -15.2716  -11.3958  -53.5776 H   0  0  0  0  0  0  0  0  0  0  0  0
  -10.2534  -13.6332  -59.7621 C   0  0  0  0  0  0  0  0  0  0  0  0
  -10.0213  -12.1951  -59.3795 C   0  0  0  0  0  0  0  0  0  0  0  0
  -10.4283  -11.1056  -60.3416 C   0  0  0  0  0  0  0  0  0  0  0  0
   -8.9742  -11.3560  -60.0706 C   0  0  0  0  0  0  0  0  0  0  0  0
  -10.7677  -18.6061  -56.7914 H   0  0  0  0  0  0  0  0  0  0  0  0
  -11.5085  -19.9414  -54.9054 H   0  0  0  0  0  0  0  0  0  0  0  0
  -10.8469  -15.1563  -54.3814 H   0  0  0  0  0  0  0  0  0  0  0  0
  -13.7803  -15.7443  -48.5670 H   0  0  0  0  0  0  0  0  0  0  0  0
  -14.3690  -15.4093  -50.0367 H   0  0  0  0  0  0  0  0  0  0  0  0
  -13.1644  -13.4434  -47.9685 H   0  0  0  0  0  0  0  0  0  0  0  0
  -14.2471  -12.9221  -49.0523 H   0  0  0  0  0  0  0  0  0  0  0  0
  -11.4003  -12.9713  -49.6107 H   0  0  0  0  0  0  0  0  0  0  0  0
  -12.3388  -13.0439  -50.9269 H   0  0  0  0  0  0  0  0  0  0  0  0
   -4.4524  -13.7061  -59.4869 H   0  0  0  0  0  0  0  0  0  0  0  0
  -12.8726  -14.7328  -58.7208 H   0  0  0  0  0  0  0  0  0  0  0  0
  -13.0114  -15.6981  -57.2710 H   0  0  0  0  0  0  0  0  0  0  0  0
  -13.4997  -10.3359  -57.1111 H   0  0  0  0  0  0  0  0  0  0  0  0
  -13.0661  -12.2695  -58.5100 H   0  0  0  0  0  0  0  0  0  0  0  0
  -12.5647  -14.6389  -55.0685 H   0  0  0  0  0  0  0  0  0  0  0  0
  -11.2515  -13.7205  -60.1377 H   0  0  0  0  0  0  0  0  0  0  0  0
   -9.5056  -13.8755  -60.4880 H   0  0  0  0  0  0  0  0  0  0  0  0
  -10.2257  -12.4395  -58.3580 H   0  0  0  0  0  0  0  0  0  0  0  0
  -10.8948  -10.2153  -59.9746 H   0  0  0  0  0  0  0  0  0  0  0  0
  -11.0364  -11.0627  -61.2209 H   0  0  0  0  0  0  0  0  0  0  0  0
   -8.4046  -10.6441  -59.5105 H   0  0  0  0  0  0  0  0  0  0  0  0
   -8.1178  -11.5652  -60.6770 H   0  0  0  0  0  0  0  0  0  0  0  0
  1  2  1  0
  2  6  1  0
  2  3  2  0
  3  4  1  0
  4 21  1  0
  4  5  1  0
  5 44  1  0
  5  1  2  0
  6  7  2  0
  7  8  1  0
  7 48  1  0
  8  9  2  0
  8 49  1  0
  9 10  1  0
  9 11  1  0
 11 13  1  0
 11 12  2  0
 12  6  1  0
 12 50  1  0
 13 14  3  0
 14 15  1  0
 15 16  1  0
 15 17  1  0
 16 20  1  0
 17 18  1  0
 17 51  1  0
 17 52  1  0
 18 19  1  0
 18 53  1  0
 18 54  1  0
 19 15  1  0
 19 55  1  0
 19 56  1  0
 21 22  2  0
 22 23  1  0
 23 26  1  0
 23 24  2  0
 24 25  1  0
 24 57  1  0
 25 21  1  0
 26 27  2  0
 26 28  1  0
 28 29  1  0
 30  1  1  0
 30 58  1  0
 30 59  1  0
 31 32  2  0
 32 33  1  0
 32 60  1  0
 33 34  2  0
 33 61  1  0
 34 30  1  0
 34 35  1  0
 35 36  2  0
 35 62  1  0
 36 37  1  0
 36 31  1  0
 38 39  1  0
 38 42  1  0
 38 43  1  0
 39 40  2  0
 39 41  2  0
 39 31  1  0
 44 45  1  0
 44 63  1  0
 44 64  1  0
 45 46  1  0
 45 65  1  0
 46 47  1  0
 46 66  1  0
 46 67  1  0
 47 45  1  0
 47 68  1  0
 47 69  1  0
M  END
>  <minimizedAffinity>  (7) 
-7.53697

>  <mol_id>  (7) 
69524

>  <source_index>  (7) 
6

>  <layer>  (7) 
L1

>  <uniprot>  (7) 
P00338

>  <paff>  (7) 
9

>  <smiles>  (7) 
NS(=O)(=O)c1ccc(Cc2c(-c3ccc(F)c(C#CC4(O)CCC4)c3)nn(-c3nc(C(=O)O)cs3)c2CC2CC2)cc1F

$$$$
L1:P00338:69525
     RDKit          3D

 68 72  0  0  0  0  0  0  0  0999 V2000
  -10.4510  -16.0443  -56.3943 C   0  0  0  0  0  0  0  0  0  0  0  0
   -9.1644  -16.0058  -56.7441 N   0  0  0  0  0  0  0  0  0  0  0  0
   -9.1105  -15.2450  -57.8666 N   0  0  0  0  0  0  0  0  0  0  0  0
  -10.3762  -14.8099  -58.2437 C   0  0  0  0  0  0  0  0  0  0  0  0
  -11.2707  -15.3325  -57.3153 C   0  0  0  0  0  0  0  0  0  0  0  0
  -11.6108  -16.7807  -52.9071 C   0  0  0  0  0  0  0  0  0  0  0  0
  -11.5789  -18.1774  -52.8989 C   0  0  0  0  0  0  0  0  0  0  0  0
  -11.2015  -18.8769  -54.0470 C   0  0  0  0  0  0  0  0  0  0  0  0
  -10.8446  -18.1798  -55.2023 C   0  0  0  0  0  0  0  0  0  0  0  0
  -10.8698  -16.7803  -55.2116 C   0  0  0  0  0  0  0  0  0  0  0  0
  -11.2666  -16.0818  -54.0651 C   0  0  0  0  0  0  0  0  0  0  0  0
  -12.2774  -15.4496  -50.7381 C   0  0  0  0  0  0  0  0  0  0  0  0
  -11.9773  -16.0645  -51.7255 C   0  0  0  0  0  0  0  0  0  0  0  0
  -12.0728  -13.2745  -49.5989 C   0  0  0  0  0  0  0  0  0  0  0  0
  -12.6463  -14.6879  -49.5348 C   0  0  0  0  0  0  0  0  0  0  0  0
  -14.1646  -14.6467  -49.3707 C   0  0  0  0  0  0  0  0  0  0  0  0
  -12.0901  -15.3286  -48.3882 O   0  0  0  0  0  0  0  0  0  0  0  0
  -12.3199  -16.2716  -48.4517 H   0  0  0  0  0  0  0  0  0  0  0  0
   -7.8596  -15.0097  -58.4694 C   0  0  0  0  0  0  0  0  0  0  0  0
   -7.3159  -15.8038  -59.3675 N   0  0  0  0  0  0  0  0  0  0  0  0
   -6.0792  -15.2960  -59.7728 C   0  0  0  0  0  0  0  0  0  0  0  0
   -5.7281  -14.1106  -59.1475 C   0  0  0  0  0  0  0  0  0  0  0  0
   -6.9500  -13.6263  -58.0474 S   0  0  0  0  0  0  0  0  0  0  0  0
   -5.2639  -15.9863  -60.7689 C   0  0  0  0  0  0  0  0  0  0  0  0
   -5.6159  -16.2912  -61.9000 O   0  0  0  0  0  0  0  0  0  0  0  0
   -4.0104  -16.2970  -60.3570 O   0  0  0  0  0  0  0  0  0  0  0  0
   -3.6317  -16.7427  -61.1433 H   0  0  0  0  0  0  0  0  0  0  0  0
  -10.6338  -13.9457  -59.4408 C   0  0  0  0  0  0  0  0  0  0  0  0
  -10.4564  -12.4751  -59.1847 C   0  0  0  0  0  0  0  0  0  0  0  0
   -9.7334  -11.6142  -60.1891 C   0  0  0  0  0  0  0  0  0  0  0  0
  -11.2135  -11.4451  -59.9843 C   0  0  0  0  0  0  0  0  0  0  0  0
  -12.7576  -15.1707  -57.2777 C   0  0  0  0  0  0  0  0  0  0  0  0
  -13.0519  -14.0503  -56.3052 C   0  0  0  0  0  0  0  0  0  0  0  0
  -13.4412  -14.3167  -54.9810 C   0  0  0  0  0  0  0  0  0  0  0  0
  -13.6917  -13.2724  -54.0864 C   0  0  0  0  0  0  0  0  0  0  0  0
  -13.5588  -11.9498  -54.5164 C   0  0  0  0  0  0  0  0  0  0  0  0
  -13.1946  -11.6724  -55.8251 C   0  0  0  0  0  0  0  0  0  0  0  0
  -13.0615  -10.4113  -56.2583 F   0  0  0  0  0  0  0  0  0  0  0  0
  -12.9464  -12.7118  -56.7190 C   0  0  0  0  0  0  0  0  0  0  0  0
  -13.8759  -10.6198  -53.4207 S   0  0  0  0  0  0  0  0  0  0  0  0
  -14.1901  -11.3876  -51.9603 N   0  0  0  0  0  0  0  0  0  0  0  0
  -15.1303  -10.0005  -53.7879 O   0  0  0  0  0  0  0  0  0  0  0  0
  -12.6708   -9.8470  -53.2393 O   0  0  0  0  0  0  0  0  0  0  0  0
  -15.1315  -11.1550  -51.6453 H   0  0  0  0  0  0  0  0  0  0  0  0
  -13.4538  -11.1602  -51.2907 H   0  0  0  0  0  0  0  0  0  0  0  0
  -11.8348  -18.6933  -52.0425 H   0  0  0  0  0  0  0  0  0  0  0  0
  -11.1865  -19.9088  -54.0413 H   0  0  0  0  0  0  0  0  0  0  0  0
  -10.5621  -18.6963  -56.0499 H   0  0  0  0  0  0  0  0  0  0  0  0
  -11.3046  -15.0506  -54.0762 H   0  0  0  0  0  0  0  0  0  0  0  0
  -12.3509  -12.7364  -48.7169 H   0  0  0  0  0  0  0  0  0  0  0  0
  -12.4595  -12.7714  -50.4604 H   0  0  0  0  0  0  0  0  0  0  0  0
  -11.0060  -13.3251  -49.6643 H   0  0  0  0  0  0  0  0  0  0  0  0
  -14.4134  -14.0895  -48.4918 H   0  0  0  0  0  0  0  0  0  0  0  0
  -14.5406  -15.6442  -49.2789 H   0  0  0  0  0  0  0  0  0  0  0  0
  -14.6032  -14.1776  -50.2265 H   0  0  0  0  0  0  0  0  0  0  0  0
   -4.8529  -13.5916  -59.3200 H   0  0  0  0  0  0  0  0  0  0  0  0
  -11.6400  -14.1115  -59.7649 H   0  0  0  0  0  0  0  0  0  0  0  0
   -9.9112  -14.2197  -60.1809 H   0  0  0  0  0  0  0  0  0  0  0  0
  -10.3491  -12.6857  -58.1411 H   0  0  0  0  0  0  0  0  0  0  0  0
   -9.3649  -12.0456  -61.0963 H   0  0  0  0  0  0  0  0  0  0  0  0
   -8.8860  -10.9618  -60.1547 H   0  0  0  0  0  0  0  0  0  0  0  0
  -11.8978  -11.7563  -60.7458 H   0  0  0  0  0  0  0  0  0  0  0  0
  -11.8545  -10.6228  -59.7440 H   0  0  0  0  0  0  0  0  0  0  0  0
  -13.2183  -16.0774  -56.9452 H   0  0  0  0  0  0  0  0  0  0  0  0
  -13.1436  -14.9459  -58.2500 H   0  0  0  0  0  0  0  0  0  0  0  0
  -13.5432  -15.2941  -54.6659 H   0  0  0  0  0  0  0  0  0  0  0  0
  -13.9729  -13.4770  -53.1148 H   0  0  0  0  0  0  0  0  0  0  0  0
  -12.6828  -12.4967  -57.6933 H   0  0  0  0  0  0  0  0  0  0  0  0
  1  2  2  0
  2  3  1  0
  3 19  1  0
  3  4  1  0
  4 28  1  0
  4  5  2  0
  5 32  1  0
  5  1  1  0
  6  7  2  0
  7  8  1  0
  7 46  1  0
  8  9  2  0
  8 47  1  0
  9 10  1  0
  9 48  1  0
 10  1  1  0
 10 11  2  0
 11  6  1  0
 11 49  1  0
 12 13  3  0
 13  6  1  0
 14 15  1  0
 14 50  1  0
 14 51  1  0
 14 52  1  0
 15 16  1  0
 15 17  1  0
 15 12  1  0
 16 53  1  0
 16 54  1  0
 16 55  1  0
 17 18  1  0
 19 20  2  0
 20 21  1  0
 21 24  1  0
 21 22  2  0
 22 23  1  0
 22 56  1  0
 23 19  1  0
 24 25  2  0
 24 26  1  0
 26 27  1  0
 28 29  1  0
 28 57  1  0
 28 58  1  0
 29 30  1  0
 29 59  1  0
 30 31  1  0
 30 60  1  0
 30 61  1  0
 31 29  1  0
 31 62  1  0
 31 63  1  0
 32 33  1  0
 32 64  1  0
 32 65  1  0
 33 34  2  0
 34 35  1  0
 34 66  1  0
 35 36  2  0
 35 67  1  0
 36 40  1  0
 36 37  1  0
 37 38  1  0
 37 39  2  0
 39 33  1  0
 39 68  1  0
 40 41  1  0
 40 42  2  0
 40 43  2  0
 41 44  1  0
 41 45  1  0
M  END
>  <minimizedAffinity>  (8) 
-7.09597

>  <mol_id>  (8) 
69525

>  <source_index>  (8) 
7

>  <layer>  (8) 
L1

>  <uniprot>  (8) 
P00338

>  <paff>  (8) 
9

>  <smiles>  (8) 
CC(C)(O)C#Cc1cccc(-c2nn(-c3nc(C(=O)O)cs3)c(CC3CC3)c2Cc2ccc(S(N)(=O)=O)c(F)c2)c1

$$$$
L1:P00338:69526
     RDKit          3D

 67 72  0  0  0  0  0  0  0  0999 V2000
  -13.4350  -14.5202  -57.9503 C   0  0  0  0  0  0  0  0  0  0  0  0
  -14.2408  -13.6790  -57.1314 C   0  0  0  0  0  0  0  0  0  0  0  0
  -15.5103  -13.7002  -57.5333 N   0  0  0  0  0  0  0  0  0  0  0  0
  -15.5738  -14.5182  -58.6142 N   0  0  0  0  0  0  0  0  0  0  0  0
  -14.3230  -15.0862  -58.8692 C   0  0  0  0  0  0  0  0  0  0  0  0
  -13.8736  -12.8890  -55.9542 C   0  0  0  0  0  0  0  0  0  0  0  0
  -13.4711  -11.5518  -56.0616 C   0  0  0  0  0  0  0  0  0  0  0  0
  -13.1267  -10.8205  -54.9217 C   0  0  0  0  0  0  0  0  0  0  0  0
  -13.1884  -11.4179  -53.6628 C   0  0  0  0  0  0  0  0  0  0  0  0
  -13.6016  -12.7453  -53.5408 C   0  0  0  0  0  0  0  0  0  0  0  0
  -13.9462  -13.4756  -54.6809 C   0  0  0  0  0  0  0  0  0  0  0  0
  -13.6758  -13.3563  -52.2499 C   0  0  0  0  0  0  0  0  0  0  0  0
  -13.7359  -13.8659  -51.1636 C   0  0  0  0  0  0  0  0  0  0  0  0
  -13.8104  -14.4788  -49.8516 C   0  0  0  0  0  0  0  0  0  0  0  0
  -15.1982  -14.7678  -49.5534 O   0  0  0  0  0  0  0  0  0  0  0  0
  -13.0162  -13.7610  -48.7412 C   0  0  0  0  0  0  0  0  0  0  0  0
  -12.0585  -14.8437  -48.6414 O   0  0  0  0  0  0  0  0  0  0  0  0
  -12.8075  -15.6240  -49.6013 C   0  0  0  0  0  0  0  0  0  0  0  0
  -15.5066  -15.3058  -50.3022 H   0  0  0  0  0  0  0  0  0  0  0  0
  -16.8567  -14.6143  -59.2056 C   0  0  0  0  0  0  0  0  0  0  0  0
  -17.8060  -15.4062  -58.7407 N   0  0  0  0  0  0  0  0  0  0  0  0
  -18.9663  -15.2946  -59.5054 C   0  0  0  0  0  0  0  0  0  0  0  0
  -18.8549  -14.3933  -60.5499 C   0  0  0  0  0  0  0  0  0  0  0  0
  -17.2955  -13.6908  -60.5658 S   0  0  0  0  0  0  0  0  0  0  0  0
  -20.1648  -16.0717  -59.2006 C   0  0  0  0  0  0  0  0  0  0  0  0
  -21.3172  -15.6625  -59.1979 O   0  0  0  0  0  0  0  0  0  0  0  0
  -19.9286  -17.3724  -58.8938 O   0  0  0  0  0  0  0  0  0  0  0  0
  -20.8338  -17.7100  -58.7273 H   0  0  0  0  0  0  0  0  0  0  0  0
  -11.9766  -14.8120  -57.7783 C   0  0  0  0  0  0  0  0  0  0  0  0
  -11.3677  -17.5695  -54.4988 C   0  0  0  0  0  0  0  0  0  0  0  0
  -11.2735  -16.1922  -54.2928 C   0  0  0  0  0  0  0  0  0  0  0  0
  -11.4830  -15.3197  -55.3649 C   0  0  0  0  0  0  0  0  0  0  0  0
  -11.8000  -15.8066  -56.6471 C   0  0  0  0  0  0  0  0  0  0  0  0
  -11.8680  -17.1988  -56.8292 C   0  0  0  0  0  0  0  0  0  0  0  0
  -11.6581  -18.0682  -55.7592 C   0  0  0  0  0  0  0  0  0  0  0  0
  -11.7522  -19.3863  -55.9804 F   0  0  0  0  0  0  0  0  0  0  0  0
  -10.7789  -17.6787  -51.8764 N   0  0  0  0  0  0  0  0  0  0  0  0
  -11.0911  -18.6899  -53.1796 S   0  0  0  0  0  0  0  0  0  0  0  0
  -12.3147  -19.3952  -52.8852 O   0  0  0  0  0  0  0  0  0  0  0  0
   -9.8453  -19.3858  -53.4145 O   0  0  0  0  0  0  0  0  0  0  0  0
   -9.8458  -17.8639  -51.5082 H   0  0  0  0  0  0  0  0  0  0  0  0
  -11.5248  -17.7687  -51.1847 H   0  0  0  0  0  0  0  0  0  0  0  0
  -14.0282  -16.1264  -59.9068 C   0  0  0  0  0  0  0  0  0  0  0  0
  -14.3412  -17.5334  -59.4730 C   0  0  0  0  0  0  0  0  0  0  0  0
  -15.6600  -18.1583  -59.8513 C   0  0  0  0  0  0  0  0  0  0  0  0
  -14.3876  -18.6581  -60.4768 C   0  0  0  0  0  0  0  0  0  0  0  0
  -13.4285  -11.1030  -56.9899 H   0  0  0  0  0  0  0  0  0  0  0  0
  -12.8264   -9.8373  -55.0114 H   0  0  0  0  0  0  0  0  0  0  0  0
  -12.9287  -10.8786  -52.8221 H   0  0  0  0  0  0  0  0  0  0  0  0
  -14.2569  -14.4551  -54.5861 H   0  0  0  0  0  0  0  0  0  0  0  0
  -13.5798  -13.6048  -47.8452 H   0  0  0  0  0  0  0  0  0  0  0  0
  -12.6613  -12.7666  -48.9149 H   0  0  0  0  0  0  0  0  0  0  0  0
  -13.2559  -16.5005  -49.1824 H   0  0  0  0  0  0  0  0  0  0  0  0
  -12.2932  -16.0557  -50.4344 H   0  0  0  0  0  0  0  0  0  0  0  0
  -19.6060  -14.1760  -61.2234 H   0  0  0  0  0  0  0  0  0  0  0  0
  -11.5847  -15.2259  -58.6838 H   0  0  0  0  0  0  0  0  0  0  0  0
  -11.4525  -13.9078  -57.5487 H   0  0  0  0  0  0  0  0  0  0  0  0
  -11.0509  -15.8207  -53.3561 H   0  0  0  0  0  0  0  0  0  0  0  0
  -11.4039  -14.3019  -55.2138 H   0  0  0  0  0  0  0  0  0  0  0  0
  -12.0755  -17.5817  -57.7648 H   0  0  0  0  0  0  0  0  0  0  0  0
  -12.9875  -16.0733  -60.1496 H   0  0  0  0  0  0  0  0  0  0  0  0
  -14.6594  -15.9142  -60.7444 H   0  0  0  0  0  0  0  0  0  0  0  0
  -13.8119  -17.3623  -58.5590 H   0  0  0  0  0  0  0  0  0  0  0  0
  -16.3640  -17.6069  -60.4389 H   0  0  0  0  0  0  0  0  0  0  0  0
  -16.4649  -18.6106  -59.3105 H   0  0  0  0  0  0  0  0  0  0  0  0
  -14.1863  -18.4621  -61.5093 H   0  0  0  0  0  0  0  0  0  0  0  0
  -13.9127  -19.6128  -60.5651 H   0  0  0  0  0  0  0  0  0  0  0  0
  1  2  1  0
  2  6  1  0
  2  3  2  0
  3  4  1  0
  4 20  1  0
  4  5  1  0
  5 43  1  0
  5  1  2  0
  6  7  2  0
  7  8  1  0
  7 47  1  0
  8  9  2  0
  8 48  1  0
  9 10  1  0
  9 49  1  0
 10 12  1  0
 10 11  2  0
 11  6  1  0
 11 50  1  0
 12 13  3  0
 13 14  1  0
 14 15  1  0
 14 16  1  0
 15 19  1  0
 16 17  1  0
 16 51  1  0
 16 52  1  0
 17 18  1  0
 18 14  1  0
 18 53  1  0
 18 54  1  0
 20 21  2  0
 21 22  1  0
 22 25  1  0
 22 23  2  0
 23 24  1  0
 23 55  1  0
 24 20  1  0
 25 26  2  0
 25 27  1  0
 27 28  1  0
 29  1  1  0
 29 56  1  0
 29 57  1  0
 30 31  2  0
 31 32  1  0
 31 58  1  0
 32 33  2  0
 32 59  1  0
 33 29  1  0
 33 34  1  0
 34 35  2  0
 34 60  1  0
 35 36  1  0
 35 30  1  0
 37 38  1  0
 37 41  1  0
 37 42  1  0
 38 39  2  0
 38 40  2  0
 38 30  1  0
 43 44  1  0
 43 61  1  0
 43 62  1  0
 44 45  1  0
 44 63  1  0
 45 46  1  0
 45 64  1  0
 45 65  1  0
 46 44  1  0
 46 66  1  0
 46 67  1  0
M  END
>  <minimizedAffinity>  (9) 
-7.55110

>  <mol_id>  (9) 
69526

>  <source_index>  (9) 
8

>  <layer>  (9) 
L1

>  <uniprot>  (9) 
P00338

>  <paff>  (9) 
9

>  <smiles>  (9) 
NS(=O)(=O)c1ccc(Cc2c(-c3cccc(C#CC4(O)COC4)c3)nn(-c3nc(C(=O)O)cs3)c2CC2CC2)cc1F

$$$$
L1:P00338:69527
     RDKit          3D

 45 46  0  0  0  0  0  0  0  0999 V2000
  -12.7428  -14.0151  -53.6075 C   0  0  0  0  0  0  0  0  0  0  0  0
  -13.2610  -12.7131  -53.6067 C   0  0  0  0  0  0  0  0  0  0  0  0
  -13.5616  -12.4208  -52.3037 N   0  0  0  0  0  0  0  0  0  0  0  0
  -14.1881  -11.2591  -51.8521 O   0  0  0  0  0  0  0  0  0  0  0  0
  -13.2240  -13.4384  -51.4543 C   0  0  0  0  0  0  0  0  0  0  0  0
  -13.3577  -13.5178  -50.0581 C   0  0  0  0  0  0  0  0  0  0  0  0
  -12.9330  -14.6799  -49.4194 C   0  0  0  0  0  0  0  0  0  0  0  0
  -12.3938  -15.7287  -50.1537 C   0  0  0  0  0  0  0  0  0  0  0  0
  -12.2694  -15.6424  -51.5502 C   0  0  0  0  0  0  0  0  0  0  0  0
  -11.5163  -17.1450  -52.4284 Br  0  0  0  0  0  0  0  0  0  0  0  0
  -12.6950  -14.4723  -52.2333 C   0  0  0  0  0  0  0  0  0  0  0  0
  -13.6971  -10.5939  -52.3658 H   0  0  0  0  0  0  0  0  0  0  0  0
  -13.4610  -11.8260  -54.7301 C   0  0  0  0  0  0  0  0  0  0  0  0
  -12.5859  -11.4051  -55.4747 O   0  0  0  0  0  0  0  0  0  0  0  0
  -14.7758  -11.4674  -54.8219 O   0  0  0  0  0  0  0  0  0  0  0  0
  -15.6380  -12.5282  -55.2411 C   0  0  0  0  0  0  0  0  0  0  0  0
  -12.2977  -14.7844  -54.8195 C   0  0  0  0  0  0  0  0  0  0  0  0
  -10.9908  -14.3995  -55.2474 O   0  0  0  0  0  0  0  0  0  0  0  0
  -10.1827  -15.4720  -55.7211 C   0  0  0  0  0  0  0  0  0  0  0  0
   -8.7476  -15.4030  -55.1956 C   0  0  0  0  0  0  0  0  0  0  0  0
   -7.7549  -16.0999  -56.1309 C   0  0  0  0  0  0  0  0  0  0  0  0
   -7.6093  -15.4067  -57.4896 C   0  0  0  0  0  0  0  0  0  0  0  0
   -6.1772  -13.5790  -58.5505 C   0  0  0  0  0  0  0  0  0  0  0  0
   -7.1571  -13.9452  -57.4470 C   0  0  0  0  0  0  0  0  0  0  0  0
  -13.7604  -12.7349  -49.5196 H   0  0  0  0  0  0  0  0  0  0  0  0
  -13.0193  -14.7626  -48.3943 H   0  0  0  0  0  0  0  0  0  0  0  0
  -12.0804  -16.5828  -49.6666 H   0  0  0  0  0  0  0  0  0  0  0  0
  -16.6456  -12.1712  -55.2887 H   0  0  0  0  0  0  0  0  0  0  0  0
  -15.5780  -13.3346  -54.5404 H   0  0  0  0  0  0  0  0  0  0  0  0
  -15.3356  -12.8726  -56.2080 H   0  0  0  0  0  0  0  0  0  0  0  0
  -12.2903  -15.8279  -54.5828 H   0  0  0  0  0  0  0  0  0  0  0  0
  -12.9815  -14.5727  -55.6148 H   0  0  0  0  0  0  0  0  0  0  0  0
  -10.6196  -16.3961  -55.4047 H   0  0  0  0  0  0  0  0  0  0  0  0
  -10.1413  -15.4003  -56.7879 H   0  0  0  0  0  0  0  0  0  0  0  0
   -8.4656  -14.3755  -55.0976 H   0  0  0  0  0  0  0  0  0  0  0  0
   -8.7188  -15.9065  -54.2519 H   0  0  0  0  0  0  0  0  0  0  0  0
   -6.7966  -16.1186  -55.6553 H   0  0  0  0  0  0  0  0  0  0  0  0
   -8.1333  -17.0833  -56.3170 H   0  0  0  0  0  0  0  0  0  0  0  0
   -6.8918  -15.9557  -58.0630 H   0  0  0  0  0  0  0  0  0  0  0  0
   -8.5905  -15.3948  -57.9162 H   0  0  0  0  0  0  0  0  0  0  0  0
   -5.9060  -12.5480  -58.4590 H   0  0  0  0  0  0  0  0  0  0  0  0
   -6.6351  -13.7441  -59.5034 H   0  0  0  0  0  0  0  0  0  0  0  0
   -5.3009  -14.1872  -58.4657 H   0  0  0  0  0  0  0  0  0  0  0  0
   -8.0210  -13.3209  -57.5408 H   0  0  0  0  0  0  0  0  0  0  0  0
   -6.6498  -13.8006  -56.5161 H   0  0  0  0  0  0  0  0  0  0  0  0
  1  2  2  0
  2 13  1  0
  2  3  1  0
  3  4  1  0
  3  5  1  0
  4 12  1  0
  5  6  2  0
  6  7  1  0
  6 25  1  0
  7  8  2  0
  7 26  1  0
  8  9  1  0
  8 27  1  0
  9 10  1  0
  9 11  2  0
 11  1  1  0
 11  5  1  0
 13 14  2  0
 13 15  1  0
 15 16  1  0
 16 28  1  0
 16 29  1  0
 16 30  1  0
 17  1  1  0
 17 31  1  0
 17 32  1  0
 18 17  1  0
 19 18  1  0
 19 33  1  0
 19 34  1  0
 20 19  1  0
 20 35  1  0
 20 36  1  0
 21 20  1  0
 21 37  1  0
 21 38  1  0
 22 21  1  0
 22 39  1  0
 22 40  1  0
 23 24  1  0
 23 41  1  0
 23 42  1  0
 23 43  1  0
 24 22  1  0
 24 44  1  0
 24 45  1  0
M  END
>  <minimizedAffinity>  (10) 
-5.93535

>  <mol_id>  (10) 
69527

>  <source_index>  (10) 
9

>  <layer>  (10) 
L1

>  <uniprot>  (10) 
P00338

>  <paff>  (10) 
7.6021000000000001

>  <smiles>  (10) 
CCCCCCOCc1c(C(=O)OC)n(O)c2cccc(Br)c12

$$$$
