L2:P36897:102780
 OpenBabel09212617453D

 60 64  0  0  0  0  0  0  0  0999 V2000
    7.4800   18.0051   11.7049 C   0  0  0  0  0  0  0  0  0  0  0  0
    7.0291   16.7905   11.1838 C   0  0  0  0  0  0  0  0  0  0  0  0
    5.6556   16.5579   10.9904 C   0  0  0  0  0  0  0  0  0  0  0  0
    4.7332   17.5615   11.3182 C   0  0  0  0  0  0  0  0  0  0  0  0
    5.1735   18.7820   11.8270 C   0  0  0  0  0  0  0  0  0  0  0  0
    6.5350   18.9905   12.0149 C   0  0  0  0  0  0  0  0  0  0  0  0
    6.9479   20.1666   12.5152 F   0  0  0  0  0  0  0  0  0  0  0  0
    5.1938   15.2709   10.4837 C   0  0  0  0  0  0  0  0  0  0  0  0
    4.2299   14.9062    9.5340 C   0  0  0  0  0  0  0  0  0  0  0  0
    4.1174   13.5280    9.4055 N   0  0  0  0  0  0  0  0  0  0  0  0
    4.9645   13.0664   10.2738 C   0  0  0  0  0  0  0  0  0  0  0  0
    5.6243   14.0606   10.9213 N   0  0  0  0  0  0  0  0  0  0  0  0
    6.5181   13.5576   11.9431 C   0  0  0  0  0  0  0  0  0  0  0  0
    6.2715   12.0335   11.8431 C   0  0  0  0  0  0  0  0  0  0  0  0
    5.3418   11.8724   10.7323 N   0  0  0  0  0  0  0  0  0  0  0  0
    4.9293   10.9906   10.4566 H   0  0  0  0  0  0  0  0  0  0  0  0
    3.4282   15.8211    8.7470 C   0  0  0  0  0  0  0  0  0  0  0  0
    2.0311   15.8279    8.8658 C   0  0  0  0  0  0  0  0  0  0  0  0
    1.2700   16.7003    8.0869 C   0  0  0  0  0  0  0  0  0  0  0  0
   -0.4455   16.6893    8.2263 Cl  0  0  0  0  0  0  0  0  0  0  0  0
    1.8843   17.5777    7.1938 C   0  0  0  0  0  0  0  0  0  0  0  0
    3.2743   17.5815    7.0788 C   0  0  0  0  0  0  0  0  0  0  0  0
    4.0369   16.7080    7.8533 C   0  0  0  0  0  0  0  0  0  0  0  0
    5.3689   16.7233    7.6949 F   0  0  0  0  0  0  0  0  0  0  0  0
    9.4808   16.6252   13.4213 O   0  0  0  0  0  0  0  0  0  0  0  0
    9.7201   17.6377   12.7729 C   0  0  0  0  0  0  0  0  0  0  0  0
    8.8342   18.3165   11.9578 N   0  0  0  0  0  0  0  0  0  0  0  0
    9.1726   19.1473   11.4818 H   0  0  0  0  0  0  0  0  0  0  0  0
   11.0799   18.3026   12.8405 C   0  0  0  0  0  0  0  0  0  0  0  0
   12.0495   17.3868   13.5897 C   0  0  0  0  0  0  0  0  0  0  0  0
   13.4215   17.9190   13.6580 N   0  0  0  0  0  0  0  0  0  0  0  0
   14.1732   17.3381   14.7842 C   0  0  0  0  0  0  0  0  0  0  0  0
   14.2539   18.2540   16.0030 C   0  0  0  0  0  0  0  0  0  0  0  0
   14.9378   19.5766   15.6614 C   0  0  0  0  0  0  0  0  0  0  0  0
   14.7598   19.9575   14.1929 C   0  0  0  0  0  0  0  0  0  0  0  0
   13.4595   19.3901   13.6264 C   0  0  0  0  0  0  0  0  0  0  0  0
    7.7109   16.0558   10.9380 H   0  0  0  0  0  0  0  0  0  0  0  0
    3.7237   17.3958   11.1821 H   0  0  0  0  0  0  0  0  0  0  0  0
    4.4955   19.5237   12.0620 H   0  0  0  0  0  0  0  0  0  0  0  0
    6.2573   13.9334   12.9104 H   0  0  0  0  0  0  0  0  0  0  0  0
    7.5402   13.8445   11.8093 H   0  0  0  0  0  0  0  0  0  0  0  0
    5.8417   11.6621   12.7498 H   0  0  0  0  0  0  0  0  0  0  0  0
    7.1797   11.4893   11.6884 H   0  0  0  0  0  0  0  0  0  0  0  0
    1.5661   15.1882    9.5288 H   0  0  0  0  0  0  0  0  0  0  0  0
    1.3141   18.2200    6.6217 H   0  0  0  0  0  0  0  0  0  0  0  0
    3.7372   18.2292    6.4221 H   0  0  0  0  0  0  0  0  0  0  0  0
   10.9969   19.2358   13.3574 H   0  0  0  0  0  0  0  0  0  0  0  0
   11.4440   18.4791   11.8499 H   0  0  0  0  0  0  0  0  0  0  0  0
   12.0770   16.4408   13.0905 H   0  0  0  0  0  0  0  0  0  0  0  0
   11.6925   17.3031   14.5949 H   0  0  0  0  0  0  0  0  0  0  0  0
   15.1686   17.1270   14.4533 H   0  0  0  0  0  0  0  0  0  0  0  0
   13.6497   16.4561   15.0889 H   0  0  0  0  0  0  0  0  0  0  0  0
   14.8119   17.7619   16.7720 H   0  0  0  0  0  0  0  0  0  0  0  0
   13.2580   18.4649   16.3325 H   0  0  0  0  0  0  0  0  0  0  0  0
   15.9835   19.4873   15.8696 H   0  0  0  0  0  0  0  0  0  0  0  0
   14.4856   20.3427   16.2560 H   0  0  0  0  0  0  0  0  0  0  0  0
   15.5834   19.5705   13.6301 H   0  0  0  0  0  0  0  0  0  0  0  0
   14.7217   21.0245   14.1228 H   0  0  0  0  0  0  0  0  0  0  0  0
   13.3581   19.7136   12.6115 H   0  0  0  0  0  0  0  0  0  0  0  0
   12.6571   19.7478   14.2372 H   0  0  0  0  0  0  0  0  0  0  0  0
  1  2  2  0  0  0  0
  2  3  1  0  0  0  0
  2 37  1  0  0  0  0
  3  8  1  0  0  0  0
  3  4  2  0  0  0  0
  4  5  1  0  0  0  0
  4 38  1  0  0  0  0
  5  6  2  0  0  0  0
  5 39  1  0  0  0  0
  6  7  1  0  0  0  0
  6  1  1  0  0  0  0
  8  9  2  0  0  0  0
  9 17  1  0  0  0  0
  9 10  1  0  0  0  0
 10 11  2  0  0  0  0
 11 12  1  0  0  0  0
 12 13  1  0  0  0  0
 12  8  1  0  0  0  0
 13 14  1  0  0  0  0
 13 40  1  0  0  0  0
 13 41  1  0  0  0  0
 14 15  1  0  0  0  0
 14 42  1  0  0  0  0
 14 43  1  0  0  0  0
 15 11  1  0  0  0  0
 15 16  1  0  0  0  0
 17 18  2  0  0  0  0
 18 19  1  0  0  0  0
 18 44  1  0  0  0  0
 19 20  1  0  0  0  0
 19 21  2  0  0  0  0
 21 22  1  0  0  0  0
 21 45  1  0  0  0  0
 22 23  2  0  0  0  0
 22 46  1  0  0  0  0
 23 24  1  0  0  0  0
 23 17  1  0  0  0  0
 25 26  2  0  0  0  0
 26 29  1  0  0  0  0
 26 27  1  0  0  0  0
 27  1  1  0  0  0  0
 27 28  1  0  0  0  0
 29 30  1  0  0  0  0
 29 47  1  0  0  0  0
 29 48  1  0  0  0  0
 30 31  1  0  0  0  0
 30 49  1  0  0  0  0
 30 50  1  0  0  0  0
 31 32  1  0  0  0  0
 32 33  1  0  0  0  0
 32 51  1  0  0  0  0
 32 52  1  0  0  0  0
 33 34  1  0  0  0  0
 33 53  1  0  0  0  0
 33 54  1  0  0  0  0
 34 35  1  0  0  0  0
 34 55  1  0  0  0  0
 34 56  1  0  0  0  0
 35 36  1  0  0  0  0
 35 57  1  0  0  0  0
 35 58  1  0  0  0  0
 36 31  1  0  0  0  0
 36 59  1  0  0  0  0
 36 60  1  0  0  0  0
M  END
>  <minimizedAffinity>
-10.71468

$$$$
