L2:P36897:102780
     RDKit          3D

 60 64  0  0  0  0  0  0  0  0999 V2000
    0.3197    0.3930    1.8662 O   0  0  0  0  0  0  0  0  0  0  0  0
    1.1892   -0.3018    1.3525 C   0  0  0  0  0  0  0  0  0  0  0  0
    2.6516   -0.0964    1.6916 C   0  0  0  0  0  0  0  0  0  0  0  0
    3.2527    0.9241    0.7234 C   0  0  0  0  0  0  0  0  0  0  0  0
    4.6689    1.2247    0.9960 N   0  0  0  0  0  0  0  0  0  0  0  0
    5.1354    2.3877    0.2210 C   0  0  0  0  0  0  0  0  0  0  0  0
    5.9358    2.0122   -1.0237 C   0  0  0  0  0  0  0  0  0  0  0  0
    7.1809    1.2042   -0.6623 C   0  0  0  0  0  0  0  0  0  0  0  0
    7.0004    0.4106    0.6303 C   0  0  0  0  0  0  0  0  0  0  0  0
    5.5349    0.0428    0.8553 C   0  0  0  0  0  0  0  0  0  0  0  0
    0.9941   -1.2952    0.4117 N   0  0  0  0  0  0  0  0  0  0  0  0
   -0.2265   -1.7140   -0.1624 C   0  0  0  0  0  0  0  0  0  0  0  0
   -1.4769   -1.1787    0.1536 C   0  0  0  0  0  0  0  0  0  0  0  0
   -2.6390   -1.6401   -0.4904 C   0  0  0  0  0  0  0  0  0  0  0  0
   -3.9341   -1.0453   -0.1814 C   0  0  0  0  0  0  0  0  0  0  0  0
   -4.3927    0.2781   -0.1343 C   0  0  0  0  0  0  0  0  0  0  0  0
   -3.6105    1.4569   -0.4472 C   0  0  0  0  0  0  0  0  0  0  0  0
   -2.9495    1.5675   -1.6788 C   0  0  0  0  0  0  0  0  0  0  0  0
   -2.1831    2.6994   -1.9589 C   0  0  0  0  0  0  0  0  0  0  0  0
   -1.3606    2.8187   -3.4661 Cl  0  0  0  0  0  0  0  0  0  0  0  0
   -2.0731    3.7327   -1.0288 C   0  0  0  0  0  0  0  0  0  0  0  0
   -2.7364    3.6318    0.1939 C   0  0  0  0  0  0  0  0  0  0  0  0
   -3.4998    2.5000    0.4777 C   0  0  0  0  0  0  0  0  0  0  0  0
   -4.1010    2.4283    1.6748 F   0  0  0  0  0  0  0  0  0  0  0  0
   -5.7258    0.3565    0.2468 N   0  0  0  0  0  0  0  0  0  0  0  0
   -6.0605   -0.8798    0.4568 C   0  0  0  0  0  0  0  0  0  0  0  0
   -5.0365   -1.7352    0.2063 N   0  0  0  0  0  0  0  0  0  0  0  0
   -5.3773   -3.1097    0.5076 C   0  0  0  0  0  0  0  0  0  0  0  0
   -6.8230   -2.9581    1.0372 C   0  0  0  0  0  0  0  0  0  0  0  0
   -7.1343   -1.5421    0.8886 N   0  0  0  0  0  0  0  0  0  0  0  0
   -2.5376   -2.6537   -1.4536 C   0  0  0  0  0  0  0  0  0  0  0  0
   -1.2960   -3.2037   -1.7672 C   0  0  0  0  0  0  0  0  0  0  0  0
   -0.1588   -2.7307   -1.1226 C   0  0  0  0  0  0  0  0  0  0  0  0
    1.0339   -3.2606   -1.4396 F   0  0  0  0  0  0  0  0  0  0  0  0
    3.1710   -1.0598    1.6437 H   0  0  0  0  0  0  0  0  0  0  0  0
    2.7195    0.2588    2.7265 H   0  0  0  0  0  0  0  0  0  0  0  0
    2.6645    1.8470    0.8175 H   0  0  0  0  0  0  0  0  0  0  0  0
    3.1280    0.5847   -0.3135 H   0  0  0  0  0  0  0  0  0  0  0  0
    5.7735    2.9917    0.8792 H   0  0  0  0  0  0  0  0  0  0  0  0
    4.3053    3.0475   -0.0598 H   0  0  0  0  0  0  0  0  0  0  0  0
    5.3022    1.4274   -1.7028 H   0  0  0  0  0  0  0  0  0  0  0  0
    6.2296    2.9140   -1.5728 H   0  0  0  0  0  0  0  0  0  0  0  0
    7.4180    0.5264   -1.4910 H   0  0  0  0  0  0  0  0  0  0  0  0
    8.0446    1.8709   -0.5528 H   0  0  0  0  0  0  0  0  0  0  0  0
    7.3629    1.0037    1.4799 H   0  0  0  0  0  0  0  0  0  0  0  0
    7.6189   -0.4937    0.5976 H   0  0  0  0  0  0  0  0  0  0  0  0
    5.2053   -0.5862    0.0174 H   0  0  0  0  0  0  0  0  0  0  0  0
    5.4640   -0.5634    1.7654 H   0  0  0  0  0  0  0  0  0  0  0  0
    1.8130   -1.7893    0.0705 H   0  0  0  0  0  0  0  0  0  0  0  0
   -1.5751   -0.3959    0.9008 H   0  0  0  0  0  0  0  0  0  0  0  0
   -3.0333    0.7745   -2.4172 H   0  0  0  0  0  0  0  0  0  0  0  0
   -1.4744    4.6128   -1.2471 H   0  0  0  0  0  0  0  0  0  0  0  0
   -2.6601    4.4214    0.9350 H   0  0  0  0  0  0  0  0  0  0  0  0
   -4.6878   -3.4955    1.2625 H   0  0  0  0  0  0  0  0  0  0  0  0
   -5.3335   -3.6938   -0.4149 H   0  0  0  0  0  0  0  0  0  0  0  0
   -7.5203   -3.5747    0.4608 H   0  0  0  0  0  0  0  0  0  0  0  0
   -6.8845   -3.2556    2.0895 H   0  0  0  0  0  0  0  0  0  0  0  0
   -7.9892   -1.1086    1.2127 H   0  0  0  0  0  0  0  0  0  0  0  0
   -3.4208   -3.0042   -1.9828 H   0  0  0  0  0  0  0  0  0  0  0  0
   -1.2061   -3.9842   -2.5157 H   0  0  0  0  0  0  0  0  0  0  0  0
  1  2  2  0
  2  3  1  0
  3  4  1  0
  4  5  1  0
  5  6  1  0
  6  7  1  0
  7  8  1  0
  8  9  1  0
  9 10  1  0
  2 11  1  0
 11 12  1  0
 12 13  2  0
 13 14  1  0
 14 15  1  0
 15 16  2  0
 16 17  1  0
 17 18  2  0
 18 19  1  0
 19 20  1  0
 19 21  2  0
 21 22  1  0
 22 23  2  0
 23 24  1  0
 16 25  1  0
 25 26  2  0
 26 27  1  0
 27 28  1  0
 28 29  1  0
 29 30  1  0
 14 31  2  0
 31 32  1  0
 32 33  2  0
 33 34  1  0
 10  5  1  0
 33 12  1  0
 27 15  1  0
 23 17  1  0
 30 26  1  0
  3 35  1  0
  3 36  1  0
  4 37  1  0
  4 38  1  0
  6 39  1  0
  6 40  1  0
  7 41  1  0
  7 42  1  0
  8 43  1  0
  8 44  1  0
  9 45  1  0
  9 46  1  0
 10 47  1  0
 10 48  1  0
 11 49  1  0
 13 50  1  0
 18 51  1  0
 21 52  1  0
 22 53  1  0
 28 54  1  0
 28 55  1  0
 29 56  1  0
 29 57  1  0
 30 58  1  0
 31 59  1  0
 32 60  1  0
M  END
>  <mol_id>  (1) 
102780

>  <source_index>  (1) 
6

>  <layer>  (1) 
L2

>  <uniprot>  (1) 
P36897

>  <paff>  (1) 
9

>  <smiles>  (1) 
O=C(CCN1CCCCC1)Nc1cc(-c2c(-c3cc(Cl)ccc3F)nc3n2CCN3)ccc1F

$$$$
