L2:P36897:105371
     RDKit          3D

 56 60  0  0  0  0  0  0  0  0999 V2000
    7.8199   -2.5202    1.0880 C   0  0  0  0  0  0  0  0  0  0  0  0
    6.7599   -1.6709    0.4520 C   0  0  0  0  0  0  0  0  0  0  0  0
    6.6951   -0.2993    0.7208 C   0  0  0  0  0  0  0  0  0  0  0  0
    5.6897    0.4865    0.1532 C   0  0  0  0  0  0  0  0  0  0  0  0
    4.7290   -0.0859   -0.6909 C   0  0  0  0  0  0  0  0  0  0  0  0
    3.6348    0.7643   -1.2793 C   0  0  0  0  0  0  0  0  0  0  0  0
    2.5459    0.9035   -0.3437 N   0  0  0  0  0  0  0  0  0  0  0  0
    2.2903    2.0641    0.3483 C   0  0  0  0  0  0  0  0  0  0  0  0
    2.9615    3.0865    0.2195 O   0  0  0  0  0  0  0  0  0  0  0  0
    1.1648    1.9788    1.3555 C   0  0  0  0  0  0  0  0  0  0  0  0
   -0.0498    1.4444    0.7691 N   0  0  0  0  0  0  0  0  0  0  0  0
   -1.1355    2.1512    0.3564 C   0  0  0  0  0  0  0  0  0  0  0  0
   -2.0285    1.2198   -0.1267 C   0  0  0  0  0  0  0  0  0  0  0  0
   -3.3301    1.5868   -0.6552 C   0  0  0  0  0  0  0  0  0  0  0  0
   -3.3932    2.0527   -1.9683 C   0  0  0  0  0  0  0  0  0  0  0  0
   -4.6271    2.4014   -2.4732 C   0  0  0  0  0  0  0  0  0  0  0  0
   -5.7757    2.3246   -1.7710 N   0  0  0  0  0  0  0  0  0  0  0  0
   -5.7180    1.8708   -0.5069 C   0  0  0  0  0  0  0  0  0  0  0  0
   -6.9027    1.7871    0.2131 C   0  0  0  0  0  0  0  0  0  0  0  0
   -6.9384    1.3308    1.5327 C   0  0  0  0  0  0  0  0  0  0  0  0
   -5.7618    0.9459    2.1579 C   0  0  0  0  0  0  0  0  0  0  0  0
   -4.5582    1.0207    1.4590 C   0  0  0  0  0  0  0  0  0  0  0  0
   -4.5130    1.4817    0.1183 C   0  0  0  0  0  0  0  0  0  0  0  0
   -1.3883   -0.0508    0.0313 C   0  0  0  0  0  0  0  0  0  0  0  0
   -1.8993   -1.3825   -0.3359 C   0  0  0  0  0  0  0  0  0  0  0  0
   -1.2689   -2.5414    0.1137 C   0  0  0  0  0  0  0  0  0  0  0  0
   -1.7896   -3.7802   -0.2546 C   0  0  0  0  0  0  0  0  0  0  0  0
   -2.9211   -3.8301   -1.0587 C   0  0  0  0  0  0  0  0  0  0  0  0
   -3.4859   -2.6340   -1.4658 C   0  0  0  0  0  0  0  0  0  0  0  0
   -2.9998   -1.4205   -1.1279 N   0  0  0  0  0  0  0  0  0  0  0  0
   -0.1721    0.1117    0.5974 N   0  0  0  0  0  0  0  0  0  0  0  0
    4.7798   -1.4636   -0.9385 C   0  0  0  0  0  0  0  0  0  0  0  0
    5.7862   -2.2490   -0.3704 C   0  0  0  0  0  0  0  0  0  0  0  0
    8.0747   -3.3713    0.4478 H   0  0  0  0  0  0  0  0  0  0  0  0
    8.7390   -1.9457    1.2445 H   0  0  0  0  0  0  0  0  0  0  0  0
    7.4686   -2.8963    2.0537 H   0  0  0  0  0  0  0  0  0  0  0  0
    7.4269    0.1681    1.3758 H   0  0  0  0  0  0  0  0  0  0  0  0
    5.6531    1.5518    0.3763 H   0  0  0  0  0  0  0  0  0  0  0  0
    3.2311    0.2972   -2.1845 H   0  0  0  0  0  0  0  0  0  0  0  0
    4.0288    1.7444   -1.5706 H   0  0  0  0  0  0  0  0  0  0  0  0
    1.9344    0.1035   -0.1903 H   0  0  0  0  0  0  0  0  0  0  0  0
    0.9427    2.9769    1.7465 H   0  0  0  0  0  0  0  0  0  0  0  0
    1.4580    1.3288    2.1863 H   0  0  0  0  0  0  0  0  0  0  0  0
   -1.1888    3.2288    0.4368 H   0  0  0  0  0  0  0  0  0  0  0  0
   -2.5060    2.1308   -2.5865 H   0  0  0  0  0  0  0  0  0  0  0  0
   -4.7320    2.7642   -3.4915 H   0  0  0  0  0  0  0  0  0  0  0  0
   -7.8293    2.0872   -0.2712 H   0  0  0  0  0  0  0  0  0  0  0  0
   -7.8853    1.2781    2.0629 H   0  0  0  0  0  0  0  0  0  0  0  0
   -5.7765    0.5869    3.1834 H   0  0  0  0  0  0  0  0  0  0  0  0
   -3.6475    0.7113    1.9667 H   0  0  0  0  0  0  0  0  0  0  0  0
   -0.3887   -2.4861    0.7463 H   0  0  0  0  0  0  0  0  0  0  0  0
   -1.3161   -4.6960    0.0873 H   0  0  0  0  0  0  0  0  0  0  0  0
   -3.3538   -4.7773   -1.3605 H   0  0  0  0  0  0  0  0  0  0  0  0
   -4.3725   -2.6168   -2.0935 H   0  0  0  0  0  0  0  0  0  0  0  0
    4.0344   -1.9362   -1.5739 H   0  0  0  0  0  0  0  0  0  0  0  0
    5.8049   -3.3173   -0.5740 H   0  0  0  0  0  0  0  0  0  0  0  0
  1  2  1  0
  2  3  2  0
  3  4  1  0
  4  5  2  0
  5  6  1  0
  6  7  1  0
  7  8  1  0
  8  9  2  0
  8 10  1  0
 10 11  1  0
 11 12  1  0
 12 13  2  0
 13 14  1  0
 14 15  2  0
 15 16  1  0
 16 17  2  0
 17 18  1  0
 18 19  2  0
 19 20  1  0
 20 21  2  0
 21 22  1  0
 22 23  2  0
 13 24  1  0
 24 25  1  0
 25 26  2  0
 26 27  1  0
 27 28  2  0
 28 29  1  0
 29 30  2  0
 24 31  2  0
  5 32  1  0
 32 33  2  0
 33  2  1  0
 31 11  1  0
 23 14  1  0
 30 25  1  0
 23 18  1  0
  1 34  1  0
  1 35  1  0
  1 36  1  0
  3 37  1  0
  4 38  1  0
  6 39  1  0
  6 40  1  0
  7 41  1  0
 10 42  1  0
 10 43  1  0
 12 44  1  0
 15 45  1  0
 16 46  1  0
 19 47  1  0
 20 48  1  0
 21 49  1  0
 22 50  1  0
 26 51  1  0
 27 52  1  0
 28 53  1  0
 29 54  1  0
 32 55  1  0
 33 56  1  0
M  END
>  <mol_id>  (1) 
105371

>  <source_index>  (1) 
7

>  <layer>  (1) 
L2

>  <uniprot>  (1) 
P36897

>  <paff>  (1) 
6.3468

>  <smiles>  (1) 
Cc1ccc(CNC(=O)Cn2cc(-c3ccnc4ccccc34)c(-c3ccccn3)n2)cc1

$$$$
