L2:P36897:105371
 OpenBabel09212617453D

 56 60  0  0  0  0  0  0  0  0999 V2000
    7.8966   14.0531   11.0870 N   0  0  0  0  0  0  0  0  0  0  0  0
    6.7030   13.7301   10.5216 C   0  0  0  0  0  0  0  0  0  0  0  0
    5.9344   14.8716   10.5889 C   0  0  0  0  0  0  0  0  0  0  0  0
    6.7557   15.8560   11.2259 C   0  0  0  0  0  0  0  0  0  0  0  0
    7.9672   15.3311   11.5137 N   0  0  0  0  0  0  0  0  0  0  0  0
    4.5792   14.9322   10.0715 C   0  0  0  0  0  0  0  0  0  0  0  0
    3.6486   14.0218   10.5719 C   0  0  0  0  0  0  0  0  0  0  0  0
    2.3612   14.0768   10.0833 C   0  0  0  0  0  0  0  0  0  0  0  0
    1.9499   14.9545    9.1459 N   0  0  0  0  0  0  0  0  0  0  0  0
    2.8438   15.8364    8.6659 C   0  0  0  0  0  0  0  0  0  0  0  0
    2.4171   16.7432    7.7044 C   0  0  0  0  0  0  0  0  0  0  0  0
    3.2762   17.6929    7.1469 C   0  0  0  0  0  0  0  0  0  0  0  0
    4.6005   17.7442    7.5556 C   0  0  0  0  0  0  0  0  0  0  0  0
    5.0559   16.8451    8.5184 C   0  0  0  0  0  0  0  0  0  0  0  0
    4.1899   15.8783    9.0907 C   0  0  0  0  0  0  0  0  0  0  0  0
    6.4185   17.2512   11.5564 C   0  0  0  0  0  0  0  0  0  0  0  0
    5.1019   17.6287   11.8148 C   0  0  0  0  0  0  0  0  0  0  0  0
    4.8294   18.9587   12.1279 C   0  0  0  0  0  0  0  0  0  0  0  0
    5.8734   19.8737   12.1749 C   0  0  0  0  0  0  0  0  0  0  0  0
    7.1521   19.4196   11.9024 C   0  0  0  0  0  0  0  0  0  0  0  0
    7.4438   18.1384   11.5919 N   0  0  0  0  0  0  0  0  0  0  0  0
    9.0444   13.1816   11.2540 C   0  0  0  0  0  0  0  0  0  0  0  0
   10.5844   14.6536   12.4425 N   0  0  0  0  0  0  0  0  0  0  0  0
    9.8261   13.5082   12.5073 C   0  0  0  0  0  0  0  0  0  0  0  0
    9.8243   12.7561   13.4803 O   0  0  0  0  0  0  0  0  0  0  0  0
   10.5196   15.2307   11.6057 H   0  0  0  0  0  0  0  0  0  0  0  0
   11.4641   15.0805   13.5029 C   0  0  0  0  0  0  0  0  0  0  0  0
   12.2069   20.8519   13.2884 C   0  0  0  0  0  0  0  0  0  0  0  0
   12.0038   19.3683   13.3733 C   0  0  0  0  0  0  0  0  0  0  0  0
   13.0579   18.5294   13.7512 C   0  0  0  0  0  0  0  0  0  0  0  0
   12.8782   17.1453   13.8006 C   0  0  0  0  0  0  0  0  0  0  0  0
   11.6419   16.5750   13.4698 C   0  0  0  0  0  0  0  0  0  0  0  0
   10.5952   17.4141   13.0668 C   0  0  0  0  0  0  0  0  0  0  0  0
   10.7759   18.7988   13.0179 C   0  0  0  0  0  0  0  0  0  0  0  0
    6.4292   12.8180   10.1240 H   0  0  0  0  0  0  0  0  0  0  0  0
    3.9162   13.3275   11.2870 H   0  0  0  0  0  0  0  0  0  0  0  0
    1.6711   13.4066   10.4569 H   0  0  0  0  0  0  0  0  0  0  0  0
    1.4340   16.7144    7.3919 H   0  0  0  0  0  0  0  0  0  0  0  0
    2.9273   18.3531    6.4345 H   0  0  0  0  0  0  0  0  0  0  0  0
    5.2434   18.4423    7.1502 H   0  0  0  0  0  0  0  0  0  0  0  0
    6.0419   16.8835    8.8207 H   0  0  0  0  0  0  0  0  0  0  0  0
    4.3403   16.9335   11.7748 H   0  0  0  0  0  0  0  0  0  0  0  0
    3.8621   19.2608   12.3228 H   0  0  0  0  0  0  0  0  0  0  0  0
    5.7004   20.8644   12.4065 H   0  0  0  0  0  0  0  0  0  0  0  0
    7.9275   20.0997   11.9386 H   0  0  0  0  0  0  0  0  0  0  0  0
    8.7036   12.1691   11.3134 H   0  0  0  0  0  0  0  0  0  0  0  0
    9.6920   13.3233   10.4141 H   0  0  0  0  0  0  0  0  0  0  0  0
   11.0438   14.7965   14.4450 H   0  0  0  0  0  0  0  0  0  0  0  0
   12.4183   14.6151   13.3698 H   0  0  0  0  0  0  0  0  0  0  0  0
   13.2018   21.0940   13.5990 H   0  0  0  0  0  0  0  0  0  0  0  0
   11.5039   21.3452   13.9267 H   0  0  0  0  0  0  0  0  0  0  0  0
   12.0599   21.1748   12.2789 H   0  0  0  0  0  0  0  0  0  0  0  0
   13.9744   18.9362   13.9951 H   0  0  0  0  0  0  0  0  0  0  0  0
   13.6628   16.5374   14.0832 H   0  0  0  0  0  0  0  0  0  0  0  0
    9.6841   17.0067   12.8041 H   0  0  0  0  0  0  0  0  0  0  0  0
    9.9977   19.4063   12.7173 H   0  0  0  0  0  0  0  0  0  0  0  0
  1  2  1  0  0  0  0
  2  3  2  0  0  0  0
  2 35  1  0  0  0  0
  3  6  1  0  0  0  0
  3  4  1  0  0  0  0
  4 16  1  0  0  0  0
  4  5  2  0  0  0  0
  5  1  1  0  0  0  0
  6  7  2  0  0  0  0
  7  8  1  0  0  0  0
  7 36  1  0  0  0  0
  8  9  2  0  0  0  0
  8 37  1  0  0  0  0
  9 10  1  0  0  0  0
 10 11  2  0  0  0  0
 11 12  1  0  0  0  0
 11 38  1  0  0  0  0
 12 13  2  0  0  0  0
 12 39  1  0  0  0  0
 13 14  1  0  0  0  0
 13 40  1  0  0  0  0
 14 15  2  0  0  0  0
 14 41  1  0  0  0  0
 15  6  1  0  0  0  0
 15 10  1  0  0  0  0
 16 17  2  0  0  0  0
 17 18  1  0  0  0  0
 17 42  1  0  0  0  0
 18 19  2  0  0  0  0
 18 43  1  0  0  0  0
 19 20  1  0  0  0  0
 19 44  1  0  0  0  0
 20 21  2  0  0  0  0
 20 45  1  0  0  0  0
 21 16  1  0  0  0  0
 22  1  1  0  0  0  0
 22 46  1  0  0  0  0
 22 47  1  0  0  0  0
 23 24  1  0  0  0  0
 23 26  1  0  0  0  0
 24 25  2  0  0  0  0
 24 22  1  0  0  0  0
 27 23  1  0  0  0  0
 27 48  1  0  0  0  0
 27 49  1  0  0  0  0
 28 29  1  0  0  0  0
 28 50  1  0  0  0  0
 28 51  1  0  0  0  0
 28 52  1  0  0  0  0
 29 30  2  0  0  0  0
 30 31  1  0  0  0  0
 30 53  1  0  0  0  0
 31 32  2  0  0  0  0
 31 54  1  0  0  0  0
 32 27  1  0  0  0  0
 32 33  1  0  0  0  0
 33 34  2  0  0  0  0
 33 55  1  0  0  0  0
 34 29  1  0  0  0  0
 34 56  1  0  0  0  0
M  END
>  <minimizedAffinity>
-10.94525

$$$$
