L2:P36897:108760
     RDKit          3D

 57 62  0  0  0  0  0  0  0  0999 V2000
    5.3597   -3.2706    0.4818 C   0  0  0  0  0  0  0  0  0  0  0  0
    6.0006   -2.6150   -0.7041 C   0  0  0  0  0  0  0  0  0  0  0  0
    7.1760   -3.1310   -1.2380 C   0  0  0  0  0  0  0  0  0  0  0  0
    7.7389   -2.5025   -2.3420 C   0  0  0  0  0  0  0  0  0  0  0  0
    7.1128   -1.3819   -2.8795 C   0  0  0  0  0  0  0  0  0  0  0  0
    5.9397   -0.9161   -2.2925 C   0  0  0  0  0  0  0  0  0  0  0  0
    5.2572    0.2498   -2.8563 C   0  0  0  0  0  0  0  0  0  0  0  0
    5.6425    0.8055   -4.0695 N   0  0  0  0  0  0  0  0  0  0  0  0
    4.8050    1.7872   -4.2933 C   0  0  0  0  0  0  0  0  0  0  0  0
    3.8982    1.9047   -3.2845 N   0  0  0  0  0  0  0  0  0  0  0  0
    4.1725    0.9471   -2.3301 C   0  0  0  0  0  0  0  0  0  0  0  0
    3.3979    0.8578   -1.0955 C   0  0  0  0  0  0  0  0  0  0  0  0
    4.0304    0.8553    0.1474 C   0  0  0  0  0  0  0  0  0  0  0  0
    3.2524    0.7915    1.2914 C   0  0  0  0  0  0  0  0  0  0  0  0
    1.9026    0.7496    1.2851 N   0  0  0  0  0  0  0  0  0  0  0  0
    1.3047    0.7579    0.0649 C   0  0  0  0  0  0  0  0  0  0  0  0
   -0.1560    0.7229    0.0893 C   0  0  0  0  0  0  0  0  0  0  0  0
   -0.9897    0.7943   -0.9509 N   0  0  0  0  0  0  0  0  0  0  0  0
   -2.2223    0.7212   -0.3949 C   0  0  0  0  0  0  0  0  0  0  0  0
   -2.1639    0.6115    0.9545 C   0  0  0  0  0  0  0  0  0  0  0  0
   -0.8582    0.6118    1.2859 N   0  0  0  0  0  0  0  0  0  0  0  0
   -3.4637    0.5245    1.6086 C   0  0  0  0  0  0  0  0  0  0  0  0
   -4.3541    0.6236    0.4179 N   0  0  0  0  0  0  0  0  0  0  0  0
   -5.7118    0.7752    0.3692 C   0  0  0  0  0  0  0  0  0  0  0  0
   -6.2595    1.0652   -0.7000 O   0  0  0  0  0  0  0  0  0  0  0  0
   -6.4705    0.6201    1.4987 N   0  0  0  0  0  0  0  0  0  0  0  0
   -6.1500    0.0040    2.7767 C   0  0  0  0  0  0  0  0  0  0  0  0
   -7.4969   -0.2426    3.4467 C   0  0  0  0  0  0  0  0  0  0  0  0
   -8.3632    0.8722    2.8843 C   0  0  0  0  0  0  0  0  0  0  0  0
   -7.8863    0.9580    1.4442 C   0  0  0  0  0  0  0  0  0  0  0  0
   -3.6069    0.7424   -0.8807 C   0  0  0  0  0  0  0  0  0  0  0  0
    2.0040    0.8098   -1.1340 C   0  0  0  0  0  0  0  0  0  0  0  0
    5.3848   -1.5222   -1.2131 N   0  0  0  0  0  0  0  0  0  0  0  0
    6.0449   -3.2615    1.3350 H   0  0  0  0  0  0  0  0  0  0  0  0
    5.0936   -4.3052    0.2441 H   0  0  0  0  0  0  0  0  0  0  0  0
    4.4461   -2.7420    0.7729 H   0  0  0  0  0  0  0  0  0  0  0  0
    7.6454   -4.0095   -0.8078 H   0  0  0  0  0  0  0  0  0  0  0  0
    8.6538   -2.8827   -2.7868 H   0  0  0  0  0  0  0  0  0  0  0  0
    7.5325   -0.8826   -3.7476 H   0  0  0  0  0  0  0  0  0  0  0  0
    4.8049    2.4391   -5.1567 H   0  0  0  0  0  0  0  0  0  0  0  0
    3.1627    2.5950   -3.2290 H   0  0  0  0  0  0  0  0  0  0  0  0
    5.1122    0.8868    0.2275 H   0  0  0  0  0  0  0  0  0  0  0  0
    3.7151    0.7747    2.2741 H   0  0  0  0  0  0  0  0  0  0  0  0
   -0.4136    0.5483    2.1928 H   0  0  0  0  0  0  0  0  0  0  0  0
   -3.6632    1.3578    2.2855 H   0  0  0  0  0  0  0  0  0  0  0  0
   -3.6002   -0.4424    2.0944 H   0  0  0  0  0  0  0  0  0  0  0  0
   -5.5563    0.7108    3.3635 H   0  0  0  0  0  0  0  0  0  0  0  0
   -5.6007   -0.9293    2.6350 H   0  0  0  0  0  0  0  0  0  0  0  0
   -7.8973   -1.2159    3.1380 H   0  0  0  0  0  0  0  0  0  0  0  0
   -7.4332   -0.2292    4.5382 H   0  0  0  0  0  0  0  0  0  0  0  0
   -8.1507    1.8108    3.4101 H   0  0  0  0  0  0  0  0  0  0  0  0
   -9.4339    0.6661    2.9637 H   0  0  0  0  0  0  0  0  0  0  0  0
   -8.3890    0.2147    0.8142 H   0  0  0  0  0  0  0  0  0  0  0  0
   -8.0363    1.9504    1.0073 H   0  0  0  0  0  0  0  0  0  0  0  0
   -3.8686    1.6830   -1.3734 H   0  0  0  0  0  0  0  0  0  0  0  0
   -3.8567   -0.1144   -1.5121 H   0  0  0  0  0  0  0  0  0  0  0  0
    1.4614    0.7960   -2.0743 H   0  0  0  0  0  0  0  0  0  0  0  0
  1  2  1  0
  2  3  2  0
  3  4  1  0
  4  5  2  0
  5  6  1  0
  6  7  1  0
  7  8  1  0
  8  9  2  0
  9 10  1  0
 10 11  1  0
 11 12  1  0
 12 13  2  0
 13 14  1  0
 14 15  2  0
 15 16  1  0
 16 17  1  0
 17 18  2  0
 18 19  1  0
 19 20  2  0
 20 21  1  0
 20 22  1  0
 22 23  1  0
 23 24  1  0
 24 25  2  0
 24 26  1  0
 26 27  1  0
 27 28  1  0
 28 29  1  0
 29 30  1  0
 23 31  1  0
 16 32  2  0
  6 33  2  0
 33  2  1  0
 11  7  2  0
 32 12  1  0
 21 17  1  0
 30 26  1  0
 31 19  1  0
  1 34  1  0
  1 35  1  0
  1 36  1  0
  3 37  1  0
  4 38  1  0
  5 39  1  0
  9 40  1  0
 10 41  1  0
 13 42  1  0
 14 43  1  0
 21 44  1  0
 22 45  1  0
 22 46  1  0
 27 47  1  0
 27 48  1  0
 28 49  1  0
 28 50  1  0
 29 51  1  0
 29 52  1  0
 30 53  1  0
 30 54  1  0
 31 55  1  0
 31 56  1  0
 32 57  1  0
M  END
>  <mol_id>  (1) 
108760

>  <source_index>  (1) 
8

>  <layer>  (1) 
L2

>  <uniprot>  (1) 
P36897

>  <paff>  (1) 
7.6576000000000004

>  <smiles>  (1) 
Cc1cccc(-c2nc[nH]c2-c2ccnc(-c3nc4c([nH]3)CN(C(=O)N3CCCC3)C4)c2)n1

$$$$
