L2:P36897:108760


 35 40  0  0  0  0  0  0  0  0999 V2000
    6.2788   16.7940   11.1538 C   0  0  0  0  0  0  0  0  0  0  0  0
    5.3305   17.7860   11.4018 C   0  0  0  0  0  0  0  0  0  0  0  0
    5.7453   18.9768   11.9745 C   0  0  0  0  0  0  0  0  0  0  0  0
    7.0212   19.2389   12.3312 N   0  0  0  0  0  0  0  0  0  0  0  0
    7.9294   18.2583   12.0862 C   0  0  0  0  0  0  0  0  0  0  0  0
    7.6065   17.0381   11.5068 C   0  0  0  0  0  0  0  0  0  0  0  0
    9.2991   18.5655   12.4924 C   0  0  0  0  0  0  0  0  0  0  0  0
   10.2863   17.7031   12.7450 N   0  0  0  0  0  0  0  0  0  0  0  0
   11.3370   18.4890   13.0799 C   0  0  0  0  0  0  0  0  0  0  0  0
   11.0174   19.8054   13.0426 C   0  0  0  0  0  0  0  0  0  0  0  0
    9.7243   19.8786   12.6723 N   0  0  0  0  0  0  0  0  0  0  0  0
   12.1133   20.7014   13.3906 C   0  0  0  0  0  0  0  0  0  0  0  0
   13.1787   19.6999   13.6771 N   0  0  0  0  0  0  0  0  0  0  0  0
   14.4160   19.8930   14.2254 C   0  0  0  0  0  0  0  0  0  0  0  0
   15.0810   18.9206   14.5986 O   0  0  0  0  0  0  0  0  0  0  0  0
   14.9210   21.1570   14.3761 N   0  0  0  0  0  0  0  0  0  0  0  0
   14.5138   22.4168   13.7738 C   0  0  0  0  0  0  0  0  0  0  0  0
   15.6949   23.3571   13.9849 C   0  0  0  0  0  0  0  0  0  0  0  0
   16.3158   22.8364   15.2705 C   0  0  0  0  0  0  0  0  0  0  0  0
   16.1616   21.3324   15.1188 C   0  0  0  0  0  0  0  0  0  0  0  0
   12.7317   18.2779   13.4847 C   0  0  0  0  0  0  0  0  0  0  0  0
    9.1277   20.6845   12.5354 H   0  0  0  0  0  0  0  0  0  0  0  0
    4.9605   15.1166    9.6125 C   0  0  0  0  0  0  0  0  0  0  0  0
    4.9610   13.7335    9.4858 N   0  0  0  0  0  0  0  0  0  0  0  0
    5.8772   13.3004   10.3154 C   0  0  0  0  0  0  0  0  0  0  0  0
    6.4687   14.3298   10.9819 N   0  0  0  0  0  0  0  0  0  0  0  0
    5.8881   15.5125   10.5730 C   0  0  0  0  0  0  0  0  0  0  0  0
    7.1936   14.2423   11.6800 H   0  0  0  0  0  0  0  0  0  0  0  0
    0.4631   16.3002    8.2272 C   0  0  0  0  0  0  0  0  0  0  0  0
    1.9379   16.5497    8.1286 C   0  0  0  0  0  0  0  0  0  0  0  0
    2.4223   17.5652    7.3120 C   0  0  0  0  0  0  0  0  0  0  0  0
    3.7947   17.7733    7.2501 C   0  0  0  0  0  0  0  0  0  0  0  0
    4.6401   16.9650    8.0041 C   0  0  0  0  0  0  0  0  0  0  0  0
    4.0877   15.9638    8.7979 C   0  0  0  0  0  0  0  0  0  0  0  0
    2.7493   15.7522    8.8623 N   0  0  0  0  0  0  0  0  0  0  0  0
 29 30  1  0  0  0
 30 31  2  0  0  0
 31 32  1  0  0  0
 32 33  2  0  0  0
 33 34  1  0  0  0
 34 23  1  0  0  0
 23 24  1  0  0  0
 24 25  2  0  0  0
 25 26  1  0  0  0
 26 27  1  0  0  0
 27  1  1  0  0  0
  1  2  2  0  0  0
  2  3  1  0  0  0
  3  4  2  0  0  0
  4  5  1  0  0  0
  5  7  1  0  0  0
  7  8  2  0  0  0
  8  9  1  0  0  0
  9 10  2  0  0  0
 10 11  1  0  0  0
 10 12  1  0  0  0
 12 13  1  0  0  0
 13 14  1  0  0  0
 14 15  2  0  0  0
 14 16  1  0  0  0
 16 17  1  0  0  0
 17 18  1  0  0  0
 18 19  1  0  0  0
 19 20  1  0  0  0
 13 21  1  0  0  0
  5  6  2  0  0  0
 34 35  2  0  0  0
 35 30  1  0  0  0
 27 23  2  0  0  0
  6  1  1  0  0  0
 11  7  1  0  0  0
 20 16  1  0  0  0
 21  9  1  0  0  0
 26 28  1  0  0  0
 11 22  1  0  0  0
M  END
> <minimizedAffinity>
-11.45037

$$$$
