L2:P36897:32660
 OpenBabel09212617443D

 53 57  0  0  0  0  0  0  0  0999 V2000
    6.4711   13.9801   11.0503 N   0  0  0  0  0  0  0  0  0  0  0  0
    5.6560   14.2338    9.9895 C   0  0  0  0  0  0  0  0  0  0  0  0
    5.4664   15.5996    9.9790 C   0  0  0  0  0  0  0  0  0  0  0  0
    6.2372   16.0992   11.0760 C   0  0  0  0  0  0  0  0  0  0  0  0
    6.8780   15.0895   11.6951 N   0  0  0  0  0  0  0  0  0  0  0  0
    4.6006   16.2736    9.0259 C   0  0  0  0  0  0  0  0  0  0  0  0
    5.1448   17.3242    8.2845 C   0  0  0  0  0  0  0  0  0  0  0  0
    4.3215   17.9957    7.4074 C   0  0  0  0  0  0  0  0  0  0  0  0
    3.0204   17.6975    7.2264 N   0  0  0  0  0  0  0  0  0  0  0  0
    2.4938   16.6789    7.9273 C   0  0  0  0  0  0  0  0  0  0  0  0
    1.1546   16.3723    7.7254 C   0  0  0  0  0  0  0  0  0  0  0  0
    0.5232   15.3271    8.4024 C   0  0  0  0  0  0  0  0  0  0  0  0
    1.2447   14.5600    9.3041 C   0  0  0  0  0  0  0  0  0  0  0  0
    2.5908   14.8462    9.5255 C   0  0  0  0  0  0  0  0  0  0  0  0
    3.2392   15.9135    8.8512 C   0  0  0  0  0  0  0  0  0  0  0  0
    6.3608   17.4854   11.5399 C   0  0  0  0  0  0  0  0  0  0  0  0
    5.2395   18.2102   11.9341 C   0  0  0  0  0  0  0  0  0  0  0  0
    5.4144   19.5134   12.3926 C   0  0  0  0  0  0  0  0  0  0  0  0
    6.6944   20.0521   12.4410 C   0  0  0  0  0  0  0  0  0  0  0  0
    7.7546   19.2623   12.0284 C   0  0  0  0  0  0  0  0  0  0  0  0
    7.6208   17.9945   11.5851 N   0  0  0  0  0  0  0  0  0  0  0  0
    6.9015   12.6832   11.5371 C   0  0  0  0  0  0  0  0  0  0  0  0
    9.1774   13.1658   10.9412 O   0  0  0  0  0  0  0  0  0  0  0  0
    8.4010   12.6417   11.7376 C   0  0  0  0  0  0  0  0  0  0  0  0
    8.8144   12.0263   12.8955 N   0  0  0  0  0  0  0  0  0  0  0  0
    8.1170   11.5166   13.4418 H   0  0  0  0  0  0  0  0  0  0  0  0
   10.2081   11.8547   13.2206 C   0  0  0  0  0  0  0  0  0  0  0  0
   10.6803   10.4585   12.9130 C   0  0  0  0  0  0  0  0  0  0  0  0
    9.7585    9.4210   12.7162 C   0  0  0  0  0  0  0  0  0  0  0  0
   10.1979    8.1265   12.4326 C   0  0  0  0  0  0  0  0  0  0  0  0
   11.5619    7.8559   12.3403 C   0  0  0  0  0  0  0  0  0  0  0  0
   12.4882    8.8791   12.5307 C   0  0  0  0  0  0  0  0  0  0  0  0
   12.0514   10.1734   12.8167 C   0  0  0  0  0  0  0  0  0  0  0  0
    5.2614   13.5457    9.3294 H   0  0  0  0  0  0  0  0  0  0  0  0
    6.1362   17.5903    8.3906 H   0  0  0  0  0  0  0  0  0  0  0  0
    4.7243   18.7709    6.8580 H   0  0  0  0  0  0  0  0  0  0  0  0
    0.6089   16.9346    7.0539 H   0  0  0  0  0  0  0  0  0  0  0  0
   -0.4748   15.1267    8.2326 H   0  0  0  0  0  0  0  0  0  0  0  0
    0.7887   13.7831    9.8075 H   0  0  0  0  0  0  0  0  0  0  0  0
    3.1268   14.2703   10.1933 H   0  0  0  0  0  0  0  0  0  0  0  0
    4.2979   17.7903   11.8875 H   0  0  0  0  0  0  0  0  0  0  0  0
    4.6015   20.0735   12.6934 H   0  0  0  0  0  0  0  0  0  0  0  0
    6.8509   21.0157   12.7757 H   0  0  0  0  0  0  0  0  0  0  0  0
    8.7033   19.6672   12.0619 H   0  0  0  0  0  0  0  0  0  0  0  0
    6.4192   12.4838   12.4712 H   0  0  0  0  0  0  0  0  0  0  0  0
    6.6372   11.9444   10.8096 H   0  0  0  0  0  0  0  0  0  0  0  0
   10.3476   12.0466   14.2640 H   0  0  0  0  0  0  0  0  0  0  0  0
   10.7773   12.5393   12.6271 H   0  0  0  0  0  0  0  0  0  0  0  0
    8.7471    9.6156   12.7815 H   0  0  0  0  0  0  0  0  0  0  0  0
    9.5116    7.3689   12.2911 H   0  0  0  0  0  0  0  0  0  0  0  0
   11.8855    6.8985   12.1311 H   0  0  0  0  0  0  0  0  0  0  0  0
   13.4983    8.6797   12.4602 H   0  0  0  0  0  0  0  0  0  0  0  0
   12.7420   10.9270   12.9585 H   0  0  0  0  0  0  0  0  0  0  0  0
  1  2  1  0  0  0  0
  2  3  2  0  0  0  0
  2 34  1  0  0  0  0
  3  6  1  0  0  0  0
  3  4  1  0  0  0  0
  4 16  1  0  0  0  0
  4  5  2  0  0  0  0
  5  1  1  0  0  0  0
  6  7  2  0  0  0  0
  7  8  1  0  0  0  0
  7 35  1  0  0  0  0
  8  9  2  0  0  0  0
  8 36  1  0  0  0  0
  9 10  1  0  0  0  0
 10 11  2  0  0  0  0
 11 12  1  0  0  0  0
 11 37  1  0  0  0  0
 12 13  2  0  0  0  0
 12 38  1  0  0  0  0
 13 14  1  0  0  0  0
 13 39  1  0  0  0  0
 14 15  2  0  0  0  0
 14 40  1  0  0  0  0
 15  6  1  0  0  0  0
 15 10  1  0  0  0  0
 16 17  2  0  0  0  0
 17 18  1  0  0  0  0
 17 41  1  0  0  0  0
 18 19  2  0  0  0  0
 18 42  1  0  0  0  0
 19 20  1  0  0  0  0
 19 43  1  0  0  0  0
 20 21  2  0  0  0  0
 20 44  1  0  0  0  0
 21 16  1  0  0  0  0
 22  1  1  0  0  0  0
 22 45  1  0  0  0  0
 22 46  1  0  0  0  0
 23 24  2  0  0  0  0
 24 22  1  0  0  0  0
 24 25  1  0  0  0  0
 25 27  1  0  0  0  0
 25 26  1  0  0  0  0
 27 28  1  0  0  0  0
 27 47  1  0  0  0  0
 27 48  1  0  0  0  0
 28 29  2  0  0  0  0
 29 30  1  0  0  0  0
 29 49  1  0  0  0  0
 30 31  2  0  0  0  0
 30 50  1  0  0  0  0
 31 32  1  0  0  0  0
 31 51  1  0  0  0  0
 32 33  2  0  0  0  0
 32 52  1  0  0  0  0
 33 28  1  0  0  0  0
 33 53  1  0  0  0  0
M  END
>  <minimizedAffinity>
-11.07051

$$$$
