L2:P36897:32660
     RDKit          3D

 53 57  0  0  0  0  0  0  0  0999 V2000
    2.3459   -4.2282   -0.0547 O   0  0  0  0  0  0  0  0  0  0  0  0
    2.0703   -3.1914   -0.6554 C   0  0  0  0  0  0  0  0  0  0  0  0
    1.0362   -3.1583   -1.7600 C   0  0  0  0  0  0  0  0  0  0  0  0
    0.0164   -2.1609   -1.4967 N   0  0  0  0  0  0  0  0  0  0  0  0
   -1.2611   -2.3782   -1.0787 C   0  0  0  0  0  0  0  0  0  0  0  0
   -1.8103   -1.1287   -0.8822 C   0  0  0  0  0  0  0  0  0  0  0  0
   -3.1564   -0.9242   -0.3739 C   0  0  0  0  0  0  0  0  0  0  0  0
   -4.2233   -1.3102   -1.1877 C   0  0  0  0  0  0  0  0  0  0  0  0
   -5.5036   -1.0838   -0.7321 C   0  0  0  0  0  0  0  0  0  0  0  0
   -5.7844   -0.5088    0.4532 N   0  0  0  0  0  0  0  0  0  0  0  0
   -4.7621   -0.1469    1.2470 C   0  0  0  0  0  0  0  0  0  0  0  0
   -5.0621    0.4349    2.4717 C   0  0  0  0  0  0  0  0  0  0  0  0
   -4.0672    0.8359    3.3654 C   0  0  0  0  0  0  0  0  0  0  0  0
   -2.7337    0.6495    3.0350 C   0  0  0  0  0  0  0  0  0  0  0  0
   -2.4047    0.0676    1.8119 C   0  0  0  0  0  0  0  0  0  0  0  0
   -3.4079   -0.3331    0.8914 C   0  0  0  0  0  0  0  0  0  0  0  0
   -0.7800   -0.2006   -1.2345 C   0  0  0  0  0  0  0  0  0  0  0  0
   -0.8208    1.2646   -1.1744 C   0  0  0  0  0  0  0  0  0  0  0  0
   -1.8896    1.9730   -1.7165 C   0  0  0  0  0  0  0  0  0  0  0  0
   -1.8934    3.3614   -1.6087 C   0  0  0  0  0  0  0  0  0  0  0  0
   -0.8360    3.9976   -0.9697 C   0  0  0  0  0  0  0  0  0  0  0  0
    0.1879    3.2167   -0.4600 C   0  0  0  0  0  0  0  0  0  0  0  0
    0.2195    1.8698   -0.5417 N   0  0  0  0  0  0  0  0  0  0  0  0
    0.3202   -0.8582   -1.6475 N   0  0  0  0  0  0  0  0  0  0  0  0
    2.7062   -1.9952   -0.4203 N   0  0  0  0  0  0  0  0  0  0  0  0
    3.6826   -1.8356    0.6279 C   0  0  0  0  0  0  0  0  0  0  0  0
    4.3962   -0.5140    0.5229 C   0  0  0  0  0  0  0  0  0  0  0  0
    5.7749   -0.4657    0.2743 C   0  0  0  0  0  0  0  0  0  0  0  0
    6.4356    0.7606    0.1788 C   0  0  0  0  0  0  0  0  0  0  0  0
    5.7256    1.9505    0.3281 C   0  0  0  0  0  0  0  0  0  0  0  0
    4.3543    1.9160    0.5723 C   0  0  0  0  0  0  0  0  0  0  0  0
    3.6921    0.6914    0.6706 C   0  0  0  0  0  0  0  0  0  0  0  0
    1.5129   -2.9153   -2.7151 H   0  0  0  0  0  0  0  0  0  0  0  0
    0.5493   -4.1351   -1.8420 H   0  0  0  0  0  0  0  0  0  0  0  0
   -1.6519   -3.3745   -0.9204 H   0  0  0  0  0  0  0  0  0  0  0  0
   -4.0642   -1.7673   -2.1585 H   0  0  0  0  0  0  0  0  0  0  0  0
   -6.3688   -1.3624   -1.3271 H   0  0  0  0  0  0  0  0  0  0  0  0
   -6.1065    0.5784    2.7404 H   0  0  0  0  0  0  0  0  0  0  0  0
   -4.3399    1.2867    4.3158 H   0  0  0  0  0  0  0  0  0  0  0  0
   -1.9486    0.9519    3.7233 H   0  0  0  0  0  0  0  0  0  0  0  0
   -1.3499   -0.0747    1.5845 H   0  0  0  0  0  0  0  0  0  0  0  0
   -2.7048    1.4647   -2.2192 H   0  0  0  0  0  0  0  0  0  0  0  0
   -2.7147    3.9404   -2.0215 H   0  0  0  0  0  0  0  0  0  0  0  0
   -0.8091    5.0772   -0.8723 H   0  0  0  0  0  0  0  0  0  0  0  0
    1.0367    3.6688    0.0447 H   0  0  0  0  0  0  0  0  0  0  0  0
    2.3383   -1.1594   -0.8793 H   0  0  0  0  0  0  0  0  0  0  0  0
    3.1650   -1.9036    1.5920 H   0  0  0  0  0  0  0  0  0  0  0  0
    4.3869   -2.6742    0.5811 H   0  0  0  0  0  0  0  0  0  0  0  0
    6.3437   -1.3847    0.1505 H   0  0  0  0  0  0  0  0  0  0  0  0
    7.5046    0.7870   -0.0153 H   0  0  0  0  0  0  0  0  0  0  0  0
    6.2401    2.9043    0.2499 H   0  0  0  0  0  0  0  0  0  0  0  0
    3.7961    2.8415    0.6813 H   0  0  0  0  0  0  0  0  0  0  0  0
    2.6177    0.6828    0.8512 H   0  0  0  0  0  0  0  0  0  0  0  0
  1  2  2  0
  2  3  1  0
  3  4  1  0
  4  5  1  0
  5  6  2  0
  6  7  1  0
  7  8  2  0
  8  9  1  0
  9 10  2  0
 10 11  1  0
 11 12  2  0
 12 13  1  0
 13 14  2  0
 14 15  1  0
 15 16  2  0
  6 17  1  0
 17 18  1  0
 18 19  2  0
 19 20  1  0
 20 21  2  0
 21 22  1  0
 22 23  2  0
 17 24  2  0
  2 25  1  0
 25 26  1  0
 26 27  1  0
 27 28  2  0
 28 29  1  0
 29 30  2  0
 30 31  1  0
 31 32  2  0
 24  4  1  0
 32 27  1  0
 16  7  1  0
 23 18  1  0
 16 11  1  0
  3 33  1  0
  3 34  1  0
  5 35  1  0
  8 36  1  0
  9 37  1  0
 12 38  1  0
 13 39  1  0
 14 40  1  0
 15 41  1  0
 19 42  1  0
 20 43  1  0
 21 44  1  0
 22 45  1  0
 25 46  1  0
 26 47  1  0
 26 48  1  0
 28 49  1  0
 29 50  1  0
 30 51  1  0
 31 52  1  0
 32 53  1  0
M  END
>  <mol_id>  (1) 
32660

>  <source_index>  (1) 
1

>  <layer>  (1) 
L2

>  <uniprot>  (1) 
P36897

>  <paff>  (1) 
7

>  <smiles>  (1) 
O=C(Cn1cc(-c2ccnc3ccccc23)c(-c2ccccn2)n1)NCc1ccccc1

$$$$
