L2:P36897:3771


 31 35  0  0  0  0  0  0  0  0999 V2000
    7.2331   16.7230   11.4238 C   0  0  0  0  0  0  0  0  0  0  0  0
    5.9038   16.4791   11.2553 C   0  0  0  0  0  0  0  0  0  0  0  0
    4.9534   17.5581   11.5643 C   0  0  0  0  0  0  0  0  0  0  0  0
    5.3437   18.7720   11.9855 C   0  0  0  0  0  0  0  0  0  0  0  0
    6.7240   19.0422   12.1377 C   0  0  0  0  0  0  0  0  0  0  0  0
    7.3626   20.1276   12.5122 N   0  0  0  0  0  0  0  0  0  0  0  0
    8.6661   19.7459   12.4489 C   0  0  0  0  0  0  0  0  0  0  0  0
    8.8912   18.4946   12.0530 N   0  0  0  0  0  0  0  0  0  0  0  0
    7.6276   18.0131   11.8529 N   0  0  0  0  0  0  0  0  0  0  0  0
    5.3639   15.2410   10.7798 C   0  0  0  0  0  0  0  0  0  0  0  0
    4.4592   14.9868    9.6764 C   0  0  0  0  0  0  0  0  0  0  0  0
    4.2263   13.6529    9.5529 N   0  0  0  0  0  0  0  0  0  0  0  0
    4.9286   13.1344   10.5494 N   0  0  0  0  0  0  0  0  0  0  0  0
    5.6289   14.0063   11.3045 C   0  0  0  0  0  0  0  0  0  0  0  0
    6.3735   13.3009   12.3603 C   0  0  0  0  0  0  0  0  0  0  0  0
    5.7024   11.8996   12.3412 C   0  0  0  0  0  0  0  0  0  0  0  0
    5.0587   11.7479   10.9493 C   0  0  0  0  0  0  0  0  0  0  0  0
    3.8210   15.9688    8.7812 C   0  0  0  0  0  0  0  0  0  0  0  0
    4.5837   16.8613    8.0344 C   0  0  0  0  0  0  0  0  0  0  0  0
    3.9347   17.7588    7.1917 C   0  0  0  0  0  0  0  0  0  0  0  0
    2.5468   17.7396    7.1147 C   0  0  0  0  0  0  0  0  0  0  0  0
    1.8474   16.8191    7.8867 C   0  0  0  0  0  0  0  0  0  0  0  0
    0.3504   16.7655    7.8271 C   0  0  0  0  0  0  0  0  0  0  0  0
    2.4642   15.9416    8.7119 N   0  0  0  0  0  0  0  0  0  0  0  0
    9.0250   15.1441   12.1011 C   0  0  0  0  0  0  0  0  0  0  0  0
    8.2836   15.7413   11.1541 C   0  0  0  0  0  0  0  0  0  0  0  0
   10.0953   14.1650   11.8263 C   0  0  0  0  0  0  0  0  0  0  0  0
   10.0012   13.3301   10.9390 O   0  0  0  0  0  0  0  0  0  0  0  0
   11.1563   14.3374   12.6522 O   0  0  0  0  0  0  0  0  0  0  0  0
   12.1400   16.0640   14.0326 C   0  0  0  0  0  0  0  0  0  0  0  0
   10.9291   15.1830   13.7881 C   0  0  0  0  0  0  0  0  0  0  0  0
 30 31  1  0  0  0
 31 29  1  0  0  0
 29 27  1  0  0  0
 27 28  2  0  0  0
 27 25  1  0  0  0
 25 26  2  0  0  0
 26  1  1  0  0  0
  1  2  2  0  0  0
  2 10  1  0  0  0
 10 11  1  0  0  0
 11 18  1  0  0  0
 18 19  2  0  0  0
 19 20  1  0  0  0
 20 21  2  0  0  0
 21 22  1  0  0  0
 22 23  1  0  0  0
 22 24  2  0  0  0
 11 12  2  0  0  0
 12 13  1  0  0  0
 13 14  1  0  0  0
 14 15  1  0  0  0
 15 16  1  0  0  0
 16 17  1  0  0  0
  2  3  1  0  0  0
  3  4  2  0  0  0
  4  5  1  0  0  0
  5  6  2  0  0  0
  6  7  1  0  0  0
  7  8  2  0  0  0
  8  9  1  0  0  0
  9  1  1  0  0  0
 14 10  2  0  0  0
  9  5  1  0  0  0
 24 18  1  0  0  0
 17 13  1  0  0  0
M  END
> <minimizedAffinity>
-10.77962

$$$$
