L2:P36897:3771
     RDKit          3D

 53 57  0  0  0  0  0  0  0  0999 V2000
    5.4565   -0.3766   -1.2916 C   0  0  0  0  0  0  0  0  0  0  0  0
    5.1906    0.5044   -0.0853 C   0  0  0  0  0  0  0  0  0  0  0  0
    3.7881    0.7854    0.0200 O   0  0  0  0  0  0  0  0  0  0  0  0
    3.0559   -0.1260    0.7061 C   0  0  0  0  0  0  0  0  0  0  0  0
    3.4789   -1.1510    1.2194 O   0  0  0  0  0  0  0  0  0  0  0  0
    1.6280    0.2464    0.7551 C   0  0  0  0  0  0  0  0  0  0  0  0
    1.1306    1.4028    0.2878 C   0  0  0  0  0  0  0  0  0  0  0  0
   -0.2815    1.7799    0.3494 C   0  0  0  0  0  0  0  0  0  0  0  0
   -1.2857    1.0610   -0.2249 C   0  0  0  0  0  0  0  0  0  0  0  0
   -1.0901   -0.1438   -0.9737 C   0  0  0  0  0  0  0  0  0  0  0  0
   -1.3459   -1.5203   -0.5991 C   0  0  0  0  0  0  0  0  0  0  0  0
   -1.8379   -2.0331    0.6924 C   0  0  0  0  0  0  0  0  0  0  0  0
   -2.1678   -3.3752    0.8532 C   0  0  0  0  0  0  0  0  0  0  0  0
   -2.6130   -3.8137    2.0967 C   0  0  0  0  0  0  0  0  0  0  0  0
   -2.7138   -2.9048    3.1438 C   0  0  0  0  0  0  0  0  0  0  0  0
   -2.3647   -1.5790    2.9138 C   0  0  0  0  0  0  0  0  0  0  0  0
   -2.4561   -0.5709    4.0196 C   0  0  0  0  0  0  0  0  0  0  0  0
   -1.9320   -1.1375    1.7100 N   0  0  0  0  0  0  0  0  0  0  0  0
   -1.0461   -2.3549   -1.6298 N   0  0  0  0  0  0  0  0  0  0  0  0
   -0.6030   -1.5270   -2.5643 N   0  0  0  0  0  0  0  0  0  0  0  0
   -0.6101   -0.2142   -2.2523 C   0  0  0  0  0  0  0  0  0  0  0  0
   -0.1112    0.5921   -3.3782 C   0  0  0  0  0  0  0  0  0  0  0  0
    0.5476   -0.4903   -4.2776 C   0  0  0  0  0  0  0  0  0  0  0  0
   -0.1088   -1.8302   -3.8921 C   0  0  0  0  0  0  0  0  0  0  0  0
   -2.6636    1.5557   -0.0858 C   0  0  0  0  0  0  0  0  0  0  0  0
   -2.9662    2.6907    0.5651 C   0  0  0  0  0  0  0  0  0  0  0  0
   -1.9265    3.4573    1.1417 C   0  0  0  0  0  0  0  0  0  0  0  0
   -1.9459    4.5907    1.8060 N   0  0  0  0  0  0  0  0  0  0  0  0
   -0.6310    4.7996    2.0819 C   0  0  0  0  0  0  0  0  0  0  0  0
    0.2159    3.8767    1.6298 N   0  0  0  0  0  0  0  0  0  0  0  0
   -0.6168    2.9820    1.0177 N   0  0  0  0  0  0  0  0  0  0  0  0
    5.0642    0.0891   -2.2017 H   0  0  0  0  0  0  0  0  0  0  0  0
    4.9564   -1.3449   -1.1888 H   0  0  0  0  0  0  0  0  0  0  0  0
    6.5291   -0.5490   -1.4172 H   0  0  0  0  0  0  0  0  0  0  0  0
    5.7007    1.4649   -0.2116 H   0  0  0  0  0  0  0  0  0  0  0  0
    5.5786    0.0528    0.8350 H   0  0  0  0  0  0  0  0  0  0  0  0
    0.9937   -0.5010    1.2210 H   0  0  0  0  0  0  0  0  0  0  0  0
    1.7895    2.1653   -0.1246 H   0  0  0  0  0  0  0  0  0  0  0  0
   -2.0766   -4.0728    0.0265 H   0  0  0  0  0  0  0  0  0  0  0  0
   -2.8739   -4.8574    2.2462 H   0  0  0  0  0  0  0  0  0  0  0  0
   -3.0557   -3.2296    4.1213 H   0  0  0  0  0  0  0  0  0  0  0  0
   -3.4865   -0.4983    4.3809 H   0  0  0  0  0  0  0  0  0  0  0  0
   -1.8025   -0.8588    4.8488 H   0  0  0  0  0  0  0  0  0  0  0  0
   -2.1469    0.4196    3.6698 H   0  0  0  0  0  0  0  0  0  0  0  0
   -0.9409    1.0755   -3.9039 H   0  0  0  0  0  0  0  0  0  0  0  0
    0.6151    1.3506   -3.0744 H   0  0  0  0  0  0  0  0  0  0  0  0
    0.4489   -0.2653   -5.3438 H   0  0  0  0  0  0  0  0  0  0  0  0
    1.6211   -0.5378   -4.0510 H   0  0  0  0  0  0  0  0  0  0  0  0
   -0.9692   -2.0725   -4.5217 H   0  0  0  0  0  0  0  0  0  0  0  0
    0.6027   -2.6572   -3.8414 H   0  0  0  0  0  0  0  0  0  0  0  0
   -3.4588    0.9553   -0.5217 H   0  0  0  0  0  0  0  0  0  0  0  0
   -3.9893    3.0344    0.6649 H   0  0  0  0  0  0  0  0  0  0  0  0
   -0.2742    5.6609    2.6326 H   0  0  0  0  0  0  0  0  0  0  0  0
  1  2  1  0
  2  3  1  0
  3  4  1  0
  4  5  2  0
  4  6  1  0
  6  7  2  0
  7  8  1  0
  8  9  2  0
  9 10  1  0
 10 11  1  0
 11 12  1  0
 12 13  2  0
 13 14  1  0
 14 15  2  0
 15 16  1  0
 16 17  1  0
 16 18  2  0
 11 19  2  0
 19 20  1  0
 20 21  1  0
 21 22  1  0
 22 23  1  0
 23 24  1  0
  9 25  1  0
 25 26  2  0
 26 27  1  0
 27 28  2  0
 28 29  1  0
 29 30  2  0
 30 31  1  0
 31  8  1  0
 21 10  2  0
 31 27  1  0
 18 12  1  0
 24 20  1  0
  1 32  1  0
  1 33  1  0
  1 34  1  0
  2 35  1  0
  2 36  1  0
  6 37  1  0
  7 38  1  0
 13 39  1  0
 14 40  1  0
 15 41  1  0
 17 42  1  0
 17 43  1  0
 17 44  1  0
 22 45  1  0
 22 46  1  0
 23 47  1  0
 23 48  1  0
 24 49  1  0
 24 50  1  0
 25 51  1  0
 26 52  1  0
 29 53  1  0
M  END
>  <mol_id>  (1) 
3771

>  <source_index>  (1) 
0

>  <layer>  (1) 
L2

>  <uniprot>  (1) 
P36897

>  <paff>  (1) 
6.4894999999999996

>  <smiles>  (1) 
CCOC(=O)/C=C/c1c(-c2c(-c3cccc(C)n3)nn3c2CCC3)ccc2ncnn12

$$$$
