L2:P36897:43953
     RDKit          3D

 49 53  0  0  0  0  0  0  0  0999 V2000
   -1.4173   -3.4813   -1.7263 C   0  0  0  0  0  0  0  0  0  0  0  0
   -2.1980   -2.5842   -0.8134 C   0  0  0  0  0  0  0  0  0  0  0  0
   -3.4312   -2.9911   -0.3174 C   0  0  0  0  0  0  0  0  0  0  0  0
   -4.1280   -2.1340    0.5270 C   0  0  0  0  0  0  0  0  0  0  0  0
   -3.5772   -0.8975    0.8503 C   0  0  0  0  0  0  0  0  0  0  0  0
   -2.3401   -0.5529    0.3152 C   0  0  0  0  0  0  0  0  0  0  0  0
   -1.7069    0.7395    0.6337 C   0  0  0  0  0  0  0  0  0  0  0  0
   -2.1986    1.5553    1.6035 N   0  0  0  0  0  0  0  0  0  0  0  0
   -1.3529    2.5757    1.5931 N   0  0  0  0  0  0  0  0  0  0  0  0
   -0.3487    2.5098    0.6938 C   0  0  0  0  0  0  0  0  0  0  0  0
   -0.5259    1.3264    0.0328 C   0  0  0  0  0  0  0  0  0  0  0  0
    0.3054    0.8346   -1.0248 C   0  0  0  0  0  0  0  0  0  0  0  0
    0.0067    1.3123   -2.3811 C   0  0  0  0  0  0  0  0  0  0  0  0
    0.6973    0.9114   -3.4593 C   0  0  0  0  0  0  0  0  0  0  0  0
    1.7571   -0.0100   -3.2986 C   0  0  0  0  0  0  0  0  0  0  0  0
    2.5621   -0.5607   -4.1783 N   0  0  0  0  0  0  0  0  0  0  0  0
    3.3421   -1.3634   -3.4103 C   0  0  0  0  0  0  0  0  0  0  0  0
    3.0841   -1.3523   -2.1047 N   0  0  0  0  0  0  0  0  0  0  0  0
    2.0513   -0.4603   -2.0038 N   0  0  0  0  0  0  0  0  0  0  0  0
    1.3437   -0.0334   -0.8468 C   0  0  0  0  0  0  0  0  0  0  0  0
    1.6740   -0.5628    0.4860 C   0  0  0  0  0  0  0  0  0  0  0  0
    2.8843   -0.9611    0.9093 C   0  0  0  0  0  0  0  0  0  0  0  0
    3.1385   -1.4626    2.2791 C   0  0  0  0  0  0  0  0  0  0  0  0
    4.2150   -1.2653    2.8361 O   0  0  0  0  0  0  0  0  0  0  0  0
    2.1348   -2.1948    2.8479 N   0  0  0  0  0  0  0  0  0  0  0  0
    2.3803   -2.7148    4.1377 O   0  0  0  0  0  0  0  0  0  0  0  0
    0.5169    3.6968    0.7893 C   0  0  0  0  0  0  0  0  0  0  0  0
   -0.3499    4.6559    1.6519 C   0  0  0  0  0  0  0  0  0  0  0  0
   -1.3480    3.7666    2.4186 C   0  0  0  0  0  0  0  0  0  0  0  0
   -1.6483   -1.3863   -0.5055 N   0  0  0  0  0  0  0  0  0  0  0  0
   -1.9943   -3.6945   -2.6314 H   0  0  0  0  0  0  0  0  0  0  0  0
   -0.4762   -3.0084   -2.0257 H   0  0  0  0  0  0  0  0  0  0  0  0
   -1.1799   -4.4219   -1.2198 H   0  0  0  0  0  0  0  0  0  0  0  0
   -3.8462   -3.9588   -0.5809 H   0  0  0  0  0  0  0  0  0  0  0  0
   -5.0930   -2.4247    0.9323 H   0  0  0  0  0  0  0  0  0  0  0  0
   -4.1071   -0.2169    1.5096 H   0  0  0  0  0  0  0  0  0  0  0  0
   -0.8182    2.0113   -2.4989 H   0  0  0  0  0  0  0  0  0  0  0  0
    0.4585    1.2680   -4.4547 H   0  0  0  0  0  0  0  0  0  0  0  0
    4.1311   -1.9834   -3.8172 H   0  0  0  0  0  0  0  0  0  0  0  0
    0.8425   -0.5933    1.1875 H   0  0  0  0  0  0  0  0  0  0  0  0
    3.7775   -0.8791    0.2996 H   0  0  0  0  0  0  0  0  0  0  0  0
    1.2690   -2.4623    2.3943 H   0  0  0  0  0  0  0  0  0  0  0  0
    3.3048   -2.4260    4.3032 H   0  0  0  0  0  0  0  0  0  0  0  0
    0.7477    4.1375   -0.1842 H   0  0  0  0  0  0  0  0  0  0  0  0
    1.4503    3.4525    1.3067 H   0  0  0  0  0  0  0  0  0  0  0  0
   -0.9062    5.3299    0.9871 H   0  0  0  0  0  0  0  0  0  0  0  0
    0.2537    5.2802    2.3176 H   0  0  0  0  0  0  0  0  0  0  0  0
   -2.3538    4.1899    2.4620 H   0  0  0  0  0  0  0  0  0  0  0  0
   -0.9830    3.4844    3.4098 H   0  0  0  0  0  0  0  0  0  0  0  0
  1  2  1  0
  2  3  2  0
  3  4  1  0
  4  5  2  0
  5  6  1  0
  6  7  1  0
  7  8  2  0
  8  9  1  0
  9 10  1  0
 10 11  2  0
 11 12  1  0
 12 13  1  0
 13 14  2  0
 14 15  1  0
 15 16  2  0
 16 17  1  0
 17 18  2  0
 18 19  1  0
 19 20  1  0
 20 21  1  0
 21 22  2  0
 22 23  1  0
 23 24  2  0
 23 25  1  0
 25 26  1  0
 10 27  1  0
 27 28  1  0
 28 29  1  0
  6 30  2  0
 30  2  1  0
 11  7  1  0
 20 12  2  0
 29  9  1  0
 19 15  1  0
  1 31  1  0
  1 32  1  0
  1 33  1  0
  3 34  1  0
  4 35  1  0
  5 36  1  0
 13 37  1  0
 14 38  1  0
 17 39  1  0
 21 40  1  0
 22 41  1  0
 25 42  1  0
 26 43  1  0
 27 44  1  0
 27 45  1  0
 28 46  1  0
 28 47  1  0
 29 48  1  0
 29 49  1  0
M  END
>  <mol_id>  (1) 
43953

>  <source_index>  (1) 
2

>  <layer>  (1) 
L2

>  <uniprot>  (1) 
P36897

>  <paff>  (1) 
7.3872

>  <smiles>  (1) 
Cc1cccc(-c2nn3c(c2-c2ccc4ncnn4c2/C=C/C(=O)NO)CCC3)n1

$$$$
