L2:P36897:50724
 OpenBabel09212617453D

 71 76  0  0  0  0  0  0  0  0999 V2000
    5.1996   14.2913   10.8413 C   0  0  0  0  0  0  0  0  0  0  0  0
    4.6399   13.0300   11.0400 C   0  0  0  0  0  0  0  0  0  0  0  0
    5.3572   12.0968   11.7685 C   0  0  0  0  0  0  0  0  0  0  0  0
    6.5689   12.3351   12.3157 N   0  0  0  0  0  0  0  0  0  0  0  0
    7.0931   13.5734   12.1130 C   0  0  0  0  0  0  0  0  0  0  0  0
    6.4508   14.5700   11.3918 C   0  0  0  0  0  0  0  0  0  0  0  0
    8.4033   13.7978   12.7214 C   0  0  0  0  0  0  0  0  0  0  0  0
    8.9903   14.9674   12.9890 N   0  0  0  0  0  0  0  0  0  0  0  0
   10.1739   14.6242   13.5492 C   0  0  0  0  0  0  0  0  0  0  0  0
   10.3318   13.2800   13.6202 C   0  0  0  0  0  0  0  0  0  0  0  0
    9.2139   12.7328   13.1056 N   0  0  0  0  0  0  0  0  0  0  0  0
   11.5914   12.8495   14.2131 C   0  0  0  0  0  0  0  0  0  0  0  0
   12.2131   14.1809   14.4649 N   0  0  0  0  0  0  0  0  0  0  0  0
   13.2770   14.2497   15.3273 C   0  0  0  0  0  0  0  0  0  0  0  0
   13.6200   13.2718   15.9951 O   0  0  0  0  0  0  0  0  0  0  0  0
   13.9205   15.4554   15.4616 N   0  0  0  0  0  0  0  0  0  0  0  0
   14.5993   15.7430   16.7245 C   0  0  0  0  0  0  0  0  0  0  0  0
   15.2084   17.1624   16.7796 C   0  0  0  0  0  0  0  0  0  0  0  0
   14.3578   18.1537   16.1010 N   0  0  0  0  0  0  0  0  0  0  0  0
   14.8746   19.5087   16.2457 C   0  0  0  0  0  0  0  0  0  0  0  0
   14.1351   17.8025   14.6808 C   0  0  0  0  0  0  0  0  0  0  0  0
   14.3242   16.3069   14.3500 C   0  0  0  0  0  0  0  0  0  0  0  0
   11.3432   15.3425   14.0735 C   0  0  0  0  0  0  0  0  0  0  0  0
    8.9553   11.7606   12.9942 H   0  0  0  0  0  0  0  0  0  0  0  0
    4.5653   16.7398   10.0723 C   0  0  0  0  0  0  0  0  0  0  0  0
    3.7016   17.2392    9.1617 N   0  0  0  0  0  0  0  0  0  0  0  0
    3.0736   16.1665    8.6527 N   0  0  0  0  0  0  0  0  0  0  0  0
    3.5068   14.9865    9.1727 C   0  0  0  0  0  0  0  0  0  0  0  0
    4.4799   15.3074   10.0962 C   0  0  0  0  0  0  0  0  0  0  0  0
    9.0334   17.9980   11.4817 C   0  0  0  0  0  0  0  0  0  0  0  0
    7.5564   18.2403   11.5653 C   0  0  0  0  0  0  0  0  0  0  0  0
    7.0578   19.2463   12.3845 C   0  0  0  0  0  0  0  0  0  0  0  0
    5.6829   19.4391   12.4419 C   0  0  0  0  0  0  0  0  0  0  0  0
    4.8486   18.6230   11.6836 C   0  0  0  0  0  0  0  0  0  0  0  0
    5.4145   17.6346   10.8817 C   0  0  0  0  0  0  0  0  0  0  0  0
    6.7569   17.4436   10.8182 N   0  0  0  0  0  0  0  0  0  0  0  0
    2.0402   16.3338    7.6352 C   0  0  0  0  0  0  0  0  0  0  0  0
    0.6424   16.1401    8.2214 C   0  0  0  0  0  0  0  0  0  0  0  0
    2.1665   17.6816    6.9262 C   0  0  0  0  0  0  0  0  0  0  0  0
    3.7120   12.7974   10.6528 H   0  0  0  0  0  0  0  0  0  0  0  0
    4.9408   11.1620   11.9017 H   0  0  0  0  0  0  0  0  0  0  0  0
    6.8886   15.4960   11.2656 H   0  0  0  0  0  0  0  0  0  0  0  0
   12.1714   12.2603   13.5339 H   0  0  0  0  0  0  0  0  0  0  0  0
   11.4980   12.2206   15.0737 H   0  0  0  0  0  0  0  0  0  0  0  0
   15.3860   15.0301   16.8576 H   0  0  0  0  0  0  0  0  0  0  0  0
   13.8654   15.6819   17.5008 H   0  0  0  0  0  0  0  0  0  0  0  0
   16.1667   17.1459   16.3038 H   0  0  0  0  0  0  0  0  0  0  0  0
   15.2918   17.4468   17.8077 H   0  0  0  0  0  0  0  0  0  0  0  0
   15.0223   19.7252   17.2831 H   0  0  0  0  0  0  0  0  0  0  0  0
   14.1738   20.2037   15.8325 H   0  0  0  0  0  0  0  0  0  0  0  0
   15.8071   19.5920   15.7277 H   0  0  0  0  0  0  0  0  0  0  0  0
   14.8240   18.3653   14.0861 H   0  0  0  0  0  0  0  0  0  0  0  0
   13.1117   18.0322   14.4692 H   0  0  0  0  0  0  0  0  0  0  0  0
   15.3563   16.1274   14.1324 H   0  0  0  0  0  0  0  0  0  0  0  0
   13.7087   16.0706   13.5073 H   0  0  0  0  0  0  0  0  0  0  0  0
   11.8055   15.9490   13.3229 H   0  0  0  0  0  0  0  0  0  0  0  0
   11.1303   16.0312   14.8643 H   0  0  0  0  0  0  0  0  0  0  0  0
    3.1743   14.0412    8.9259 H   0  0  0  0  0  0  0  0  0  0  0  0
    9.5450   18.6911   12.1163 H   0  0  0  0  0  0  0  0  0  0  0  0
    9.3601   18.1312   10.4715 H   0  0  0  0  0  0  0  0  0  0  0  0
    9.2494   16.9988   11.7976 H   0  0  0  0  0  0  0  0  0  0  0  0
    7.6959   19.8382   12.9390 H   0  0  0  0  0  0  0  0  0  0  0  0
    5.2846   20.1795   13.0404 H   0  0  0  0  0  0  0  0  0  0  0  0
    3.8247   18.7484   11.7150 H   0  0  0  0  0  0  0  0  0  0  0  0
    2.1883   15.5703    6.9003 H   0  0  0  0  0  0  0  0  0  0  0  0
    0.4596   16.8895    8.9629 H   0  0  0  0  0  0  0  0  0  0  0  0
    0.5748   15.1709    8.6696 H   0  0  0  0  0  0  0  0  0  0  0  0
   -0.0860   16.2243    7.4421 H   0  0  0  0  0  0  0  0  0  0  0  0
    2.0235   18.4715    7.6336 H   0  0  0  0  0  0  0  0  0  0  0  0
    1.4244   17.7517    6.1585 H   0  0  0  0  0  0  0  0  0  0  0  0
    3.1400   17.7653    6.4900 H   0  0  0  0  0  0  0  0  0  0  0  0
  1  2  2  0  0  0  0
  2  3  1  0  0  0  0
  2 40  1  0  0  0  0
  3  4  2  0  0  0  0
  3 41  1  0  0  0  0
  4  5  1  0  0  0  0
  5  7  1  0  0  0  0
  5  6  2  0  0  0  0
  6  1  1  0  0  0  0
  6 42  1  0  0  0  0
  7  8  2  0  0  0  0
  8  9  1  0  0  0  0
  9 10  2  0  0  0  0
 10 11  1  0  0  0  0
 10 12  1  0  0  0  0
 11  7  1  0  0  0  0
 11 24  1  0  0  0  0
 12 13  1  0  0  0  0
 12 43  1  0  0  0  0
 12 44  1  0  0  0  0
 13 14  1  0  0  0  0
 13 23  1  0  0  0  0
 14 15  2  0  0  0  0
 14 16  1  0  0  0  0
 16 17  1  0  0  0  0
 17 18  1  0  0  0  0
 17 45  1  0  0  0  0
 17 46  1  0  0  0  0
 18 19  1  0  0  0  0
 18 47  1  0  0  0  0
 18 48  1  0  0  0  0
 19 20  1  0  0  0  0
 19 21  1  0  0  0  0
 20 49  1  0  0  0  0
 20 50  1  0  0  0  0
 20 51  1  0  0  0  0
 21 22  1  0  0  0  0
 21 52  1  0  0  0  0
 21 53  1  0  0  0  0
 22 16  1  0  0  0  0
 22 54  1  0  0  0  0
 22 55  1  0  0  0  0
 23  9  1  0  0  0  0
 23 56  1  0  0  0  0
 23 57  1  0  0  0  0
 25 26  2  0  0  0  0
 26 27  1  0  0  0  0
 27 37  1  0  0  0  0
 27 28  1  0  0  0  0
 28 29  2  0  0  0  0
 28 58  1  0  0  0  0
 29  1  1  0  0  0  0
 29 25  1  0  0  0  0
 30 31  1  0  0  0  0
 30 59  1  0  0  0  0
 30 60  1  0  0  0  0
 30 61  1  0  0  0  0
 31 32  2  0  0  0  0
 32 33  1  0  0  0  0
 32 62  1  0  0  0  0
 33 34  2  0  0  0  0
 33 63  1  0  0  0  0
 34 35  1  0  0  0  0
 34 64  1  0  0  0  0
 35 25  1  0  0  0  0
 35 36  2  0  0  0  0
 36 31  1  0  0  0  0
 37 38  1  0  0  0  0
 37 39  1  0  0  0  0
 37 65  1  0  0  0  0
 38 66  1  0  0  0  0
 38 67  1  0  0  0  0
 38 68  1  0  0  0  0
 39 69  1  0  0  0  0
 39 70  1  0  0  0  0
 39 71  1  0  0  0  0
M  END
>  <minimizedAffinity>
-12.25355

$$$$
