L2:P36897:50724
     RDKit          3D

 71 76  0  0  0  0  0  0  0  0999 V2000
   -5.1612   -4.2282    0.0647 C   0  0  0  0  0  0  0  0  0  0  0  0
   -5.9140   -2.9484   -0.1412 C   0  0  0  0  0  0  0  0  0  0  0  0
   -7.2099   -2.9719   -0.6432 C   0  0  0  0  0  0  0  0  0  0  0  0
   -7.8757   -1.7662   -0.8266 C   0  0  0  0  0  0  0  0  0  0  0  0
   -7.2295   -0.5758   -0.5063 C   0  0  0  0  0  0  0  0  0  0  0  0
   -5.9307   -0.6239   -0.0052 C   0  0  0  0  0  0  0  0  0  0  0  0
   -5.2053    0.6152    0.3347 C   0  0  0  0  0  0  0  0  0  0  0  0
   -5.7199    1.8263    0.0297 N   0  0  0  0  0  0  0  0  0  0  0  0
   -4.7932    2.7102    0.4347 N   0  0  0  0  0  0  0  0  0  0  0  0
   -5.0088    4.1412    0.2429 C   0  0  0  0  0  0  0  0  0  0  0  0
   -5.1104    4.4972   -1.2397 C   0  0  0  0  0  0  0  0  0  0  0  0
   -6.2299    4.6318    1.0198 C   0  0  0  0  0  0  0  0  0  0  0  0
   -3.7070    2.1310    1.0136 C   0  0  0  0  0  0  0  0  0  0  0  0
   -3.9309    0.7704    0.9762 C   0  0  0  0  0  0  0  0  0  0  0  0
   -2.9889   -0.1809    1.5359 C   0  0  0  0  0  0  0  0  0  0  0  0
   -3.3958   -1.0884    2.5128 C   0  0  0  0  0  0  0  0  0  0  0  0
   -2.4594   -1.9684    3.0274 C   0  0  0  0  0  0  0  0  0  0  0  0
   -1.1624   -1.9963    2.6511 N   0  0  0  0  0  0  0  0  0  0  0  0
   -0.7872   -1.0991    1.7006 C   0  0  0  0  0  0  0  0  0  0  0  0
    0.6231   -1.1548    1.3196 C   0  0  0  0  0  0  0  0  0  0  0  0
    1.2615   -0.3839    0.4352 N   0  0  0  0  0  0  0  0  0  0  0  0
    2.5371   -0.8365    0.4603 C   0  0  0  0  0  0  0  0  0  0  0  0
    2.6932   -1.8687    1.3246 C   0  0  0  0  0  0  0  0  0  0  0  0
    1.4895   -2.0845    1.8888 N   0  0  0  0  0  0  0  0  0  0  0  0
    4.0481   -2.4007    1.3927 C   0  0  0  0  0  0  0  0  0  0  0  0
    4.7057   -1.5315    0.3756 N   0  0  0  0  0  0  0  0  0  0  0  0
    6.0756   -1.4694    0.3605 C   0  0  0  0  0  0  0  0  0  0  0  0
    6.7468   -1.9932    1.2521 O   0  0  0  0  0  0  0  0  0  0  0  0
    6.6773   -0.7643   -0.6527 N   0  0  0  0  0  0  0  0  0  0  0  0
    7.9900   -0.1711   -0.4009 C   0  0  0  0  0  0  0  0  0  0  0  0
    8.5180    0.6665   -1.5877 C   0  0  0  0  0  0  0  0  0  0  0  0
    7.4390    1.4041   -2.2647 N   0  0  0  0  0  0  0  0  0  0  0  0
    7.9483    2.2785   -3.3136 C   0  0  0  0  0  0  0  0  0  0  0  0
    6.3899    0.4932   -2.7742 C   0  0  0  0  0  0  0  0  0  0  0  0
    6.3232   -0.8744   -2.0620 C   0  0  0  0  0  0  0  0  0  0  0  0
    3.7890   -0.5090   -0.2353 C   0  0  0  0  0  0  0  0  0  0  0  0
   -1.6563   -0.1840    1.1233 C   0  0  0  0  0  0  0  0  0  0  0  0
   -5.2762   -1.7985    0.1800 N   0  0  0  0  0  0  0  0  0  0  0  0
   -5.6898   -4.8670    0.7790 H   0  0  0  0  0  0  0  0  0  0  0  0
   -5.0543   -4.7612   -0.8851 H   0  0  0  0  0  0  0  0  0  0  0  0
   -4.1591   -4.0319    0.4598 H   0  0  0  0  0  0  0  0  0  0  0  0
   -7.6947   -3.9103   -0.8916 H   0  0  0  0  0  0  0  0  0  0  0  0
   -8.8877   -1.7493   -1.2203 H   0  0  0  0  0  0  0  0  0  0  0  0
   -7.7338    0.3748   -0.6501 H   0  0  0  0  0  0  0  0  0  0  0  0
   -4.1226    4.6431    0.6520 H   0  0  0  0  0  0  0  0  0  0  0  0
   -5.9909    4.0407   -1.7054 H   0  0  0  0  0  0  0  0  0  0  0  0
   -4.2274    4.1482   -1.7864 H   0  0  0  0  0  0  0  0  0  0  0  0
   -5.1832    5.5817   -1.3730 H   0  0  0  0  0  0  0  0  0  0  0  0
   -6.3285    5.7194    0.9386 H   0  0  0  0  0  0  0  0  0  0  0  0
   -7.1553    4.1808    0.6447 H   0  0  0  0  0  0  0  0  0  0  0  0
   -6.1442    4.3787    2.0823 H   0  0  0  0  0  0  0  0  0  0  0  0
   -2.8851    2.7155    1.4038 H   0  0  0  0  0  0  0  0  0  0  0  0
   -4.4233   -1.1218    2.8592 H   0  0  0  0  0  0  0  0  0  0  0  0
   -2.7408   -2.6969    3.7824 H   0  0  0  0  0  0  0  0  0  0  0  0
    1.2081   -2.7620    2.5861 H   0  0  0  0  0  0  0  0  0  0  0  0
    4.5139   -2.2591    2.3718 H   0  0  0  0  0  0  0  0  0  0  0  0
    4.1304   -3.4411    1.0684 H   0  0  0  0  0  0  0  0  0  0  0  0
    7.8969    0.4546    0.4952 H   0  0  0  0  0  0  0  0  0  0  0  0
    8.7001   -0.9737   -0.1691 H   0  0  0  0  0  0  0  0  0  0  0  0
    9.0202    0.0020   -2.3038 H   0  0  0  0  0  0  0  0  0  0  0  0
    9.2801    1.3573   -1.2074 H   0  0  0  0  0  0  0  0  0  0  0  0
    8.4592    1.7187   -4.1051 H   0  0  0  0  0  0  0  0  0  0  0  0
    7.1317    2.8516   -3.7665 H   0  0  0  0  0  0  0  0  0  0  0  0
    8.6530    3.0075   -2.8987 H   0  0  0  0  0  0  0  0  0  0  0  0
    5.4281    1.0043   -2.6480 H   0  0  0  0  0  0  0  0  0  0  0  0
    6.5098    0.3007   -3.8482 H   0  0  0  0  0  0  0  0  0  0  0  0
    5.3654   -1.3725   -2.2175 H   0  0  0  0  0  0  0  0  0  0  0  0
    7.0679   -1.5480   -2.5081 H   0  0  0  0  0  0  0  0  0  0  0  0
    4.1627    0.4946   -0.0189 H   0  0  0  0  0  0  0  0  0  0  0  0
    3.6875   -0.6760   -1.3073 H   0  0  0  0  0  0  0  0  0  0  0  0
   -1.2971    0.5026    0.3630 H   0  0  0  0  0  0  0  0  0  0  0  0
  1  2  1  0
  2  3  2  0
  3  4  1  0
  4  5  2  0
  5  6  1  0
  6  7  1  0
  7  8  2  0
  8  9  1  0
  9 10  1  0
 10 11  1  0
 10 12  1  0
  9 13  1  0
 13 14  2  0
 14 15  1  0
 15 16  2  0
 16 17  1  0
 17 18  2  0
 18 19  1  0
 19 20  1  0
 20 21  2  0
 21 22  1  0
 22 23  2  0
 23 24  1  0
 23 25  1  0
 25 26  1  0
 26 27  1  0
 27 28  2  0
 27 29  1  0
 29 30  1  0
 30 31  1  0
 31 32  1  0
 32 33  1  0
 32 34  1  0
 34 35  1  0
 26 36  1  0
 19 37  2  0
  6 38  2  0
 38  2  1  0
 14  7  1  0
 37 15  1  0
 24 20  1  0
 35 29  1  0
 36 22  1  0
  1 39  1  0
  1 40  1  0
  1 41  1  0
  3 42  1  0
  4 43  1  0
  5 44  1  0
 10 45  1  0
 11 46  1  0
 11 47  1  0
 11 48  1  0
 12 49  1  0
 12 50  1  0
 12 51  1  0
 13 52  1  0
 16 53  1  0
 17 54  1  0
 24 55  1  0
 25 56  1  0
 25 57  1  0
 30 58  1  0
 30 59  1  0
 31 60  1  0
 31 61  1  0
 33 62  1  0
 33 63  1  0
 33 64  1  0
 34 65  1  0
 34 66  1  0
 35 67  1  0
 35 68  1  0
 36 69  1  0
 36 70  1  0
 37 71  1  0
M  END
>  <mol_id>  (1) 
50724

>  <source_index>  (1) 
3

>  <layer>  (1) 
L2

>  <uniprot>  (1) 
P36897

>  <paff>  (1) 
8.1249000000000002

>  <smiles>  (1) 
Cc1cccc(-c2nn(C(C)C)cc2-c2ccnc(-c3nc4c([nH]3)CN(C(=O)N3CCN(C)CC3)C4)c2)n1

$$$$
