L2:P36897:77306


 22 25  0  0  0  0  0  0  0  0999 V2000
    6.6511   14.7930   11.2209 N   0  0  0  0  0  0  0  0  0  0  0  0
    7.3549   13.7749   11.8116 N   0  0  0  0  0  0  0  0  0  0  0  0
    6.6919   12.6604   11.4966 C   0  0  0  0  0  0  0  0  0  0  0  0
    7.1644   11.3469   11.9958 C   0  0  0  0  0  0  0  0  0  0  0  0
    5.5802   12.9265   10.6792 C   0  0  0  0  0  0  0  0  0  0  0  0
    5.5784   14.2933   10.4845 C   0  0  0  0  0  0  0  0  0  0  0  0
    4.6597   15.0514    9.6867 C   0  0  0  0  0  0  0  0  0  0  0  0
    4.9378   16.1622    8.9206 C   0  0  0  0  0  0  0  0  0  0  0  0
    3.7834   16.6877    8.2487 C   0  0  0  0  0  0  0  0  0  0  0  0
    3.6384   17.8036    7.4099 C   0  0  0  0  0  0  0  0  0  0  0  0
    2.4393   18.1281    6.8727 N   0  0  0  0  0  0  0  0  0  0  0  0
    1.3714   17.3583    7.1558 C   0  0  0  0  0  0  0  0  0  0  0  0
    1.4044   16.2403    7.9682 C   0  0  0  0  0  0  0  0  0  0  0  0
    2.6508   15.9177    8.5174 C   0  0  0  0  0  0  0  0  0  0  0  0
    3.0200   14.5987    9.5605 S   0  0  0  0  0  0  0  0  0  0  0  0
    5.4413   19.3630   12.2928 C   0  0  0  0  0  0  0  0  0  0  0  0
    6.5040   18.3658   11.9409 C   0  0  0  0  0  0  0  0  0  0  0  0
    7.8302   18.7642   11.8302 C   0  0  0  0  0  0  0  0  0  0  0  0
    8.7883   17.8113   11.5049 C   0  0  0  0  0  0  0  0  0  0  0  0
    8.3989   16.4903   11.2998 C   0  0  0  0  0  0  0  0  0  0  0  0
    7.0502   16.1584   11.4238 C   0  0  0  0  0  0  0  0  0  0  0  0
    6.1095   17.0868   11.7402 N   0  0  0  0  0  0  0  0  0  0  0  0
 16 17  1  0  0  0
 17 18  2  0  0  0
 18 19  1  0  0  0
 19 20  2  0  0  0
 20 21  1  0  0  0
 21  1  1  0  0  0
  1  2  1  0  0  0
  2  3  2  0  0  0
  3  4  1  0  0  0
  3  5  1  0  0  0
  5  6  2  0  0  0
  6  7  1  0  0  0
  7  8  2  0  0  0
  8  9  1  0  0  0
  9 10  2  0  0  0
 10 11  1  0  0  0
 11 12  2  0  0  0
 12 13  1  0  0  0
 13 14  2  0  0  0
 14 15  1  0  0  0
 21 22  2  0  0  0
 22 17  1  0  0  0
  6  1  1  0  0  0
 15  7  1  0  0  0
 14  9  1  0  0  0
M  END
> <minimizedAffinity>
-9.93372

$$$$
