L2:P36897:77306
     RDKit          3D

 36 39  0  0  0  0  0  0  0  0999 V2000
    0.8622   -3.0513   -1.4805 C   0  0  0  0  0  0  0  0  0  0  0  0
    1.7588   -1.9813   -0.9339 C   0  0  0  0  0  0  0  0  0  0  0  0
    3.1365   -2.1593   -0.9225 C   0  0  0  0  0  0  0  0  0  0  0  0
    3.9363   -1.1445   -0.4104 C   0  0  0  0  0  0  0  0  0  0  0  0
    3.3420    0.0175    0.0748 C   0  0  0  0  0  0  0  0  0  0  0  0
    1.9527    0.1304    0.0364 C   0  0  0  0  0  0  0  0  0  0  0  0
    1.3414    1.3339    0.5290 N   0  0  0  0  0  0  0  0  0  0  0  0
    2.1213    2.3632    0.9906 N   0  0  0  0  0  0  0  0  0  0  0  0
    1.2673    3.3430    1.2930 C   0  0  0  0  0  0  0  0  0  0  0  0
    1.7725    4.6385    1.8071 C   0  0  0  0  0  0  0  0  0  0  0  0
   -0.0666    2.9620    1.0684 C   0  0  0  0  0  0  0  0  0  0  0  0
   -0.0109    1.6626    0.6054 C   0  0  0  0  0  0  0  0  0  0  0  0
   -1.1185    0.8169    0.2687 C   0  0  0  0  0  0  0  0  0  0  0  0
   -1.5020   -0.3475    0.8974 C   0  0  0  0  0  0  0  0  0  0  0  0
   -2.6569   -0.9567    0.3012 C   0  0  0  0  0  0  0  0  0  0  0  0
   -3.3362   -2.1429    0.6195 C   0  0  0  0  0  0  0  0  0  0  0  0
   -4.4218   -2.5416   -0.0836 N   0  0  0  0  0  0  0  0  0  0  0  0
   -4.8492   -1.7775   -1.1066 C   0  0  0  0  0  0  0  0  0  0  0  0
   -4.2544   -0.5942   -1.5029 C   0  0  0  0  0  0  0  0  0  0  0  0
   -3.1324   -0.1952   -0.7674 C   0  0  0  0  0  0  0  0  0  0  0  0
   -2.1764    1.2162   -1.0084 S   0  0  0  0  0  0  0  0  0  0  0  0
    1.1664   -0.8597   -0.4619 N   0  0  0  0  0  0  0  0  0  0  0  0
    0.9750   -3.9717   -0.8995 H   0  0  0  0  0  0  0  0  0  0  0  0
    1.1088   -3.2533   -2.5274 H   0  0  0  0  0  0  0  0  0  0  0  0
   -0.1873   -2.7433   -1.4316 H   0  0  0  0  0  0  0  0  0  0  0  0
    3.5840   -3.0701   -1.3071 H   0  0  0  0  0  0  0  0  0  0  0  0
    5.0171   -1.2538   -0.3905 H   0  0  0  0  0  0  0  0  0  0  0  0
    3.9665    0.8127    0.4717 H   0  0  0  0  0  0  0  0  0  0  0  0
    2.4559    5.0981    1.0857 H   0  0  0  0  0  0  0  0  0  0  0  0
    0.9510    5.3390    1.9884 H   0  0  0  0  0  0  0  0  0  0  0  0
    2.3090    4.4941    2.7503 H   0  0  0  0  0  0  0  0  0  0  0  0
   -0.9601    3.5473    1.2379 H   0  0  0  0  0  0  0  0  0  0  0  0
   -0.9639   -0.7701    1.7374 H   0  0  0  0  0  0  0  0  0  0  0  0
   -3.0291   -2.7914    1.4328 H   0  0  0  0  0  0  0  0  0  0  0  0
   -5.7248   -2.1564   -1.6274 H   0  0  0  0  0  0  0  0  0  0  0  0
   -4.6342   -0.0137   -2.3340 H   0  0  0  0  0  0  0  0  0  0  0  0
  1  2  1  0
  2  3  2  0
  3  4  1  0
  4  5  2  0
  5  6  1  0
  6  7  1  0
  7  8  1  0
  8  9  2  0
  9 10  1  0
  9 11  1  0
 11 12  2  0
 12 13  1  0
 13 14  2  0
 14 15  1  0
 15 16  2  0
 16 17  1  0
 17 18  2  0
 18 19  1  0
 19 20  2  0
 20 21  1  0
  6 22  2  0
 22  2  1  0
 12  7  1  0
 21 13  1  0
 20 15  1  0
  1 23  1  0
  1 24  1  0
  1 25  1  0
  3 26  1  0
  4 27  1  0
  5 28  1  0
 10 29  1  0
 10 30  1  0
 10 31  1  0
 11 32  1  0
 14 33  1  0
 16 34  1  0
 18 35  1  0
 19 36  1  0
M  END
>  <mol_id>  (1) 
77306

>  <source_index>  (1) 
4

>  <layer>  (1) 
L2

>  <uniprot>  (1) 
P36897

>  <paff>  (1) 
7.0263999999999998

>  <smiles>  (1) 
Cc1cc(-c2cc3cnccc3s2)n(n1)-c1cccc(C)n1

$$$$
