L2:P36897:93720


 30 33  0  0  0  0  0  0  0  0999 V2000
    5.8655   17.8432   11.0294 C   0  0  0  0  0  0  0  0  0  0  0  0
    5.9481   19.2277   11.6057 C   0  0  0  0  0  0  0  0  0  0  0  0
    7.0706   19.5343   12.2678 C   0  0  0  0  0  0  0  0  0  0  0  0
    8.0865   18.5988   12.4003 N   0  0  0  0  0  0  0  0  0  0  0  0
    9.2722   18.7617   13.0352 N   0  0  0  0  0  0  0  0  0  0  0  0
    9.8794   17.5854   12.8860 C   0  0  0  0  0  0  0  0  0  0  0  0
    9.1227   16.6413   12.1575 C   0  0  0  0  0  0  0  0  0  0  0  0
    7.9566   17.3236   11.8492 C   0  0  0  0  0  0  0  0  0  0  0  0
    6.8318   16.9635   11.1585 N   0  0  0  0  0  0  0  0  0  0  0  0
    9.4623   15.2906   11.8126 C   0  0  0  0  0  0  0  0  0  0  0  0
    9.1820   14.6977   10.6882 N   0  0  0  0  0  0  0  0  0  0  0  0
    9.7214   13.3653   10.8029 O   0  0  0  0  0  0  0  0  0  0  0  0
   10.3519   13.2548   12.0979 C   0  0  0  0  0  0  0  0  0  0  0  0
   11.8381   12.9940   11.9058 C   0  0  0  0  0  0  0  0  0  0  0  0
    9.6678   12.1533   12.8924 C   0  0  0  0  0  0  0  0  0  0  0  0
   10.1336   14.5324   12.7088 N   0  0  0  0  0  0  0  0  0  0  0  0
   10.5077   14.8091   13.5981 H   0  0  0  0  0  0  0  0  0  0  0  0
    4.7787   17.4031   10.3312 N   0  0  0  0  0  0  0  0  0  0  0  0
    3.8911   17.7260   10.7120 H   0  0  0  0  0  0  0  0  0  0  0  0
    4.6987   16.7658    9.0394 C   0  0  0  0  0  0  0  0  0  0  0  0
    5.2861   17.6747    7.9601 C   0  0  0  0  0  0  0  0  0  0  0  0
    2.6059   15.2730    9.3181 C   0  0  0  0  0  0  0  0  0  0  0  0
    1.2729   14.9863    8.9928 C   0  0  0  0  0  0  0  0  0  0  0  0
    0.5833   15.7791    8.0741 C   0  0  0  0  0  0  0  0  0  0  0  0
    1.2240   16.8573    7.4844 C   0  0  0  0  0  0  0  0  0  0  0  0
    0.5619   17.6196    6.6048 F   0  0  0  0  0  0  0  0  0  0  0  0
    2.5429   17.1627    7.7974 C   0  0  0  0  0  0  0  0  0  0  0  0
    3.2582   16.3768    8.7213 C   0  0  0  0  0  0  0  0  0  0  0  0
    3.5967   13.1766    9.8992 C   0  0  0  0  0  0  0  0  0  0  0  0
    3.3487   14.5432   10.2090 O   0  0  0  0  0  0  0  0  0  0  0  0
 29 30  1  0  0  0
 30 22  1  0  0  0
 22 23  2  0  0  0
 23 24  1  0  0  0
 24 25  2  0  0  0
 25 26  1  0  0  0
 25 27  1  0  0  0
 27 28  2  0  0  0
 28 20  1  0  0  0
 20 21  1  0  0  0
 20 18  1  0  0  0
 18  1  1  0  0  0
  1  2  1  0  0  0
  2  3  2  0  0  0
  3  4  1  0  0  0
  4  5  1  0  0  0
  5  6  2  0  0  0
  6  7  1  0  0  0
  7 10  1  0  0  0
 10 11  2  0  0  0
 11 12  1  0  0  0
 12 13  1  0  0  0
 13 14  1  0  0  0
 13 15  1  0  0  0
 13 16  1  0  0  0
  7  8  2  0  0  0
  8  9  1  0  0  0
 28 22  1  0  0  0
  9  1  2  0  0  0
  8  4  1  0  0  0
 16 10  1  0  0  0
 18 19  1  0  0  0
 16 17  1  0  0  0
M  END
> <minimizedAffinity>
-9.28992

$$$$
