L2:P36897:93720
     RDKit          3D

 49 52  0  0  0  0  0  0  0  0999 V2000
   -3.2801    2.1709    1.0056 C   0  0  0  0  0  0  0  0  0  0  0  0
   -3.2955    0.9055    0.3548 O   0  0  0  0  0  0  0  0  0  0  0  0
   -3.9918   -0.1106    0.9556 C   0  0  0  0  0  0  0  0  0  0  0  0
   -4.8959    0.0786    2.0100 C   0  0  0  0  0  0  0  0  0  0  0  0
   -5.5674   -1.0097    2.5692 C   0  0  0  0  0  0  0  0  0  0  0  0
   -5.3376   -2.2834    2.0735 C   0  0  0  0  0  0  0  0  0  0  0  0
   -5.9835   -3.3275    2.6082 F   0  0  0  0  0  0  0  0  0  0  0  0
   -4.4503   -2.4923    1.0248 C   0  0  0  0  0  0  0  0  0  0  0  0
   -3.7617   -1.4093    0.4453 C   0  0  0  0  0  0  0  0  0  0  0  0
   -2.8105   -1.6935   -0.7132 C   0  0  1  0  0  0  0  0  0  0  0  0
   -3.3773   -1.1915   -2.0409 C   0  0  0  0  0  0  0  0  0  0  0  0
   -1.5173   -1.1045   -0.4641 N   0  0  0  0  0  0  0  0  0  0  0  0
   -0.2852   -1.4559   -0.9339 C   0  0  0  0  0  0  0  0  0  0  0  0
   -0.0495   -2.7145   -1.7188 C   0  0  0  0  0  0  0  0  0  0  0  0
    1.2070   -2.9429   -2.1204 C   0  0  0  0  0  0  0  0  0  0  0  0
    2.2175   -2.0430   -1.8140 N   0  0  0  0  0  0  0  0  0  0  0  0
    3.5274   -2.1379   -2.1469 N   0  0  0  0  0  0  0  0  0  0  0  0
    4.0692   -1.0353   -1.6317 C   0  0  0  0  0  0  0  0  0  0  0  0
    3.1455   -0.2083   -0.9553 C   0  0  0  0  0  0  0  0  0  0  0  0
    3.3774    1.0413   -0.2895 C   0  0  0  0  0  0  0  0  0  0  0  0
    2.4616    1.8216    0.2071 N   0  0  0  0  0  0  0  0  0  0  0  0
    3.1681    2.9450    0.7714 O   0  0  0  0  0  0  0  0  0  0  0  0
    4.5809    2.7270    0.5632 C   0  0  0  0  0  0  0  0  0  0  0  0
    5.2707    2.6178    1.9144 C   0  0  0  0  0  0  0  0  0  0  0  0
    5.1399    3.8598   -0.2834 C   0  0  0  0  0  0  0  0  0  0  0  0
    4.6473    1.4831   -0.1448 N   0  0  0  0  0  0  0  0  0  0  0  0
    1.9432   -0.8851   -1.0855 C   0  0  0  0  0  0  0  0  0  0  0  0
    0.6768   -0.6093   -0.6474 N   0  0  0  0  0  0  0  0  0  0  0  0
   -2.9276    2.0837    2.0387 H   0  0  0  0  0  0  0  0  0  0  0  0
   -4.2663    2.6438    0.9612 H   0  0  0  0  0  0  0  0  0  0  0  0
   -2.5778    2.8141    0.4669 H   0  0  0  0  0  0  0  0  0  0  0  0
   -5.1031    1.0638    2.4152 H   0  0  0  0  0  0  0  0  0  0  0  0
   -6.2674   -0.8691    3.3866 H   0  0  0  0  0  0  0  0  0  0  0  0
   -4.3035   -3.5081    0.6688 H   0  0  0  0  0  0  0  0  0  0  0  0
   -2.6940   -2.7811   -0.7845 H   0  0  0  0  0  0  0  0  0  0  0  0
   -4.3666   -1.6215   -2.2325 H   0  0  0  0  0  0  0  0  0  0  0  0
   -2.7228   -1.4710   -2.8738 H   0  0  0  0  0  0  0  0  0  0  0  0
   -3.4779   -0.1010   -2.0627 H   0  0  0  0  0  0  0  0  0  0  0  0
   -1.5352   -0.1951   -0.0061 H   0  0  0  0  0  0  0  0  0  0  0  0
   -0.8638   -3.3870   -1.9354 H   0  0  0  0  0  0  0  0  0  0  0  0
    1.5031   -3.8130   -2.6891 H   0  0  0  0  0  0  0  0  0  0  0  0
    5.1291   -0.8759   -1.7763 H   0  0  0  0  0  0  0  0  0  0  0  0
    5.1532    3.5440    2.4878 H   0  0  0  0  0  0  0  0  0  0  0  0
    4.8277    1.8175    2.5187 H   0  0  0  0  0  0  0  0  0  0  0  0
    6.3398    2.4071    1.8049 H   0  0  0  0  0  0  0  0  0  0  0  0
    4.6034    3.9401   -1.2362 H   0  0  0  0  0  0  0  0  0  0  0  0
    5.0193    4.8226    0.2253 H   0  0  0  0  0  0  0  0  0  0  0  0
    6.2021    3.7111   -0.5044 H   0  0  0  0  0  0  0  0  0  0  0  0
    5.4993    1.0108   -0.3864 H   0  0  0  0  0  0  0  0  0  0  0  0
  1  2  1  0
  2  3  1  0
  3  4  2  0
  4  5  1  0
  5  6  2  0
  6  7  1  0
  6  8  1  0
  8  9  2  0
  9 10  1  0
 10 11  1  0
 10 12  1  0
 12 13  1  0
 13 14  1  0
 14 15  2  0
 15 16  1  0
 16 17  1  0
 17 18  2  0
 18 19  1  0
 19 20  1  0
 20 21  2  0
 21 22  1  0
 22 23  1  0
 23 24  1  0
 23 25  1  0
 23 26  1  0
 19 27  2  0
 27 28  1  0
  9  3  1  0
 28 13  2  0
 27 16  1  0
 26 20  1  0
  1 29  1  0
  1 30  1  0
  1 31  1  0
  4 32  1  0
  5 33  1  0
  8 34  1  0
 10 35  1  6
 11 36  1  0
 11 37  1  0
 11 38  1  0
 12 39  1  0
 14 40  1  0
 15 41  1  0
 18 42  1  0
 24 43  1  0
 24 44  1  0
 24 45  1  0
 25 46  1  0
 25 47  1  0
 25 48  1  0
 26 49  1  0
M  END
>  <mol_id>  (1) 
93720

>  <source_index>  (1) 
5

>  <layer>  (1) 
L2

>  <uniprot>  (1) 
P36897

>  <paff>  (1) 
7.3010000000000002

>  <smiles>  (1) 
COc1ccc(F)cc1[C@@H](C)Nc1ccn2ncc(C3=NOC(C)(C)N3)c2n1

$$$$
