L1:P0C6U8:20305
     RDKit          3D

 76 77  0  0  0  0  0  0  0  0999 V2000
   37.9771  -59.8849   26.9447 C   0  0  2  0  0  0  0  0  0  0  0  0
   39.6495  -59.6328   28.6745 C   0  0  0  0  0  0  0  0  0  0  0  0
   40.0187  -58.5456   28.2197 O   0  0  0  0  0  0  0  0  0  0  0  0
   38.6441  -60.3527   28.1511 N   0  0  0  0  0  0  0  0  0  0  0  0
   38.6729  -61.3604   28.2288 H   0  0  0  0  0  0  0  0  0  0  0  0
   40.2887  -60.1395   29.7497 O   0  0  0  0  0  0  0  0  0  0  0  0
   39.5368  -60.9591   30.6818 C   0  0  0  0  0  0  0  0  0  0  0  0
   36.0027  -60.1477   31.9267 C   0  0  1  0  0  0  0  0  0  0  0  0
   36.7889  -59.3051   30.9244 C   0  0  0  0  0  0  0  0  0  0  0  0
   38.1684  -58.9383   31.4548 C   0  0  0  0  0  0  0  0  0  0  0  0
   39.0073  -60.1549   31.8553 C   0  0  1  0  0  0  0  0  0  0  0  0
   38.2063  -61.0862   32.7671 C   0  0  0  0  0  0  0  0  0  0  0  0
   36.8159  -61.4075   32.2230 C   0  0  0  0  0  0  0  0  0  0  0  0
   35.6465  -59.3524   33.1834 C   0  0  0  0  0  0  0  0  0  0  0  0
   34.2826  -59.6399   33.7877 C   0  0  0  0  0  0  0  0  0  0  0  0
   34.9718  -61.5934   35.2675 C   0  0  0  0  0  0  0  0  0  0  0  0
   34.0336  -61.0822   34.1903 C   0  0  0  0  0  0  0  0  0  0  0  0
   36.6048  -60.5265   26.9738 C   0  0  0  0  0  0  0  0  0  0  0  0
   36.4865  -61.7494   26.9631 O   0  0  0  0  0  0  0  0  0  0  0  0
   35.5349  -59.6918   27.0723 N   0  0  0  0  0  0  0  0  0  0  0  0
   35.6688  -58.6904   27.0663 H   0  0  0  0  0  0  0  0  0  0  0  0
   34.2024  -60.2092   27.3852 C   0  0  2  0  0  0  0  0  0  0  0  0
   33.6576  -60.9829   26.1956 C   0  0  0  0  0  0  0  0  0  0  0  0
   32.5483  -60.8104   25.7380 O   0  0  0  0  0  0  0  0  0  0  0  0
   33.2726  -59.0933   27.8476 C   0  0  0  0  0  0  0  0  0  0  0  0
   31.9921  -59.6271   28.4932 C   0  0  2  0  0  0  0  0  0  0  0  0
   30.8344  -58.6312   28.5489 C   0  0  0  0  0  0  0  0  0  0  0  0
   30.8575  -58.0681   29.9765 C   0  0  0  0  0  0  0  0  0  0  0  0
   31.5156  -59.1241   30.7221 N   0  0  0  0  0  0  0  0  0  0  0  0
   32.2325  -59.9952   29.9578 C   0  0  0  0  0  0  0  0  0  0  0  0
   32.9455  -60.9024   30.3602 O   0  0  0  0  0  0  0  0  0  0  0  0
   31.6433  -59.0804   31.7251 H   0  0  0  0  0  0  0  0  0  0  0  0
   38.7984  -60.2750   25.7265 C   0  0  0  0  0  0  0  0  0  0  0  0
   38.2460  -59.8525   24.3737 C   0  0  0  0  0  0  0  0  0  0  0  0
   37.9405  -58.3682   24.3382 C   0  0  0  0  0  0  0  0  0  0  0  0
   39.2701  -60.2275   23.3105 C   0  0  0  0  0  0  0  0  0  0  0  0
   37.9050  -58.8061   27.0198 H   0  0  0  0  0  0  0  0  0  0  0  0
   38.7290  -61.4805   30.1777 H   0  0  0  0  0  0  0  0  0  0  0  0
   40.2553  -61.7065   31.0123 H   0  0  0  0  0  0  0  0  0  0  0  0
   35.0632  -60.4454   31.4594 H   0  0  0  0  0  0  0  0  0  0  0  0
   36.2325  -58.4003   30.6876 H   0  0  0  0  0  0  0  0  0  0  0  0
   36.8773  -59.8459   29.9851 H   0  0  0  0  0  0  0  0  0  0  0  0
   38.0490  -58.3048   32.3303 H   0  0  0  0  0  0  0  0  0  0  0  0
   38.7119  -58.3335   30.7290 H   0  0  0  0  0  0  0  0  0  0  0  0
   39.8885  -59.7995   32.3971 H   0  0  0  0  0  0  0  0  0  0  0  0
   38.1056  -60.6174   33.7424 H   0  0  0  0  0  0  0  0  0  0  0  0
   38.7651  -62.0110   32.9347 H   0  0  0  0  0  0  0  0  0  0  0  0
   36.2867  -62.0341   32.9333 H   0  0  0  0  0  0  0  0  0  0  0  0
   36.9043  -62.0057   31.3124 H   0  0  0  0  0  0  0  0  0  0  0  0
   36.4023  -59.5120   33.9465 H   0  0  0  0  0  0  0  0  0  0  0  0
   35.6864  -58.2903   32.9485 H   0  0  0  0  0  0  0  0  0  0  0  0
   34.1533  -59.0081   34.6658 H   0  0  0  0  0  0  0  0  0  0  0  0
   33.5162  -59.3266   33.0752 H   0  0  0  0  0  0  0  0  0  0  0  0
   34.7716  -62.6404   35.4902 H   0  0  0  0  0  0  0  0  0  0  0  0
   34.8650  -61.0304   36.1920 H   0  0  0  0  0  0  0  0  0  0  0  0
   36.0135  -61.5189   34.9752 H   0  0  0  0  0  0  0  0  0  0  0  0
   33.0117  -61.1724   34.5560 H   0  0  0  0  0  0  0  0  0  0  0  0
   34.0829  -61.7185   33.3091 H   0  0  0  0  0  0  0  0  0  0  0  0
   34.2815  -60.9420   28.1988 H   0  0  0  0  0  0  0  0  0  0  0  0
   34.3484  -61.7256   25.7692 H   0  0  0  0  0  0  0  0  0  0  0  0
   33.0269  -58.4637   26.9983 H   0  0  0  0  0  0  0  0  0  0  0  0
   33.7940  -58.4550   28.5620 H   0  0  0  0  0  0  0  0  0  0  0  0
   31.6957  -60.5245   27.9552 H   0  0  0  0  0  0  0  0  0  0  0  0
   29.8890  -59.1438   28.3797 H   0  0  0  0  0  0  0  0  0  0  0  0
   30.9048  -57.8493   27.7960 H   0  0  0  0  0  0  0  0  0  0  0  0
   29.8626  -57.8607   30.3733 H   0  0  0  0  0  0  0  0  0  0  0  0
   31.4419  -57.1524   30.0274 H   0  0  0  0  0  0  0  0  0  0  0  0
   38.9346  -61.3549   25.7554 H   0  0  0  0  0  0  0  0  0  0  0  0
   39.7877  -59.8284   25.8561 H   0  0  0  0  0  0  0  0  0  0  0  0
   37.3212  -60.4127   24.1912 H   0  0  0  0  0  0  0  0  0  0  0  0
   38.8131  -57.7925   24.6448 H   0  0  0  0  0  0  0  0  0  0  0  0
   37.1243  -58.0715   24.9943 H   0  0  0  0  0  0  0  0  0  0  0  0
   37.6813  -58.0278   23.3408 H   0  0  0  0  0  0  0  0  0  0  0  0
   40.1918  -59.6671   23.4699 H   0  0  0  0  0  0  0  0  0  0  0  0
   38.9416  -60.0196   22.2986 H   0  0  0  0  0  0  0  0  0  0  0  0
   39.5163  -61.2898   23.3513 H   0  0  0  0  0  0  0  0  0  0  0  0
  1 33  1  0
  1 18  1  0
  1 37  1  1
  2  3  2  0
  2  4  1  0
  4  1  1  0
  4  5  1  0
  6  2  1  0
  7  6  1  0
  7 38  1  0
  7 39  1  0
  8  9  1  0
  8 40  1  6
  9 10  1  0
  9 41  1  0
  9 42  1  0
 10 11  1  0
 10 43  1  0
 10 44  1  0
 11  7  1  0
 11 12  1  0
 11 45  1  1
 12 13  1  0
 12 46  1  0
 12 47  1  0
 13  8  1  0
 13 48  1  0
 13 49  1  0
 14  8  1  0
 14 50  1  0
 14 51  1  0
 15 14  1  0
 15 52  1  0
 15 53  1  0
 16 17  1  0
 16 54  1  0
 16 55  1  0
 16 56  1  0
 17 15  1  0
 17 57  1  0
 17 58  1  0
 18 19  2  0
 18 20  1  0
 20 22  1  0
 20 21  1  0
 22 23  1  0
 22 25  1  0
 22 59  1  1
 23 24  2  0
 23 60  1  0
 25 26  1  0
 25 61  1  0
 25 62  1  0
 26 27  1  0
 26 63  1  6
 27 28  1  0
 27 64  1  0
 27 65  1  0
 28 29  1  0
 28 66  1  0
 28 67  1  0
 29 30  1  0
 29 32  1  0
 30 31  2  0
 30 26  1  0
 33 34  1  0
 33 68  1  0
 33 69  1  0
 34 35  1  0
 34 36  1  0
 34 70  1  0
 35 71  1  0
 35 72  1  0
 35 73  1  0
 36 74  1  0
 36 75  1  0
 36 76  1  0
M  END
>  <minimizedAffinity>  (1) 
-6.53317

>  <mol_id>  (1) 
20305

>  <source_index>  (1) 
0

>  <layer>  (1) 
L1

>  <uniprot>  (1) 
P0C6U8

>  <paff>  (1) 
6.0457999999999998

>  <smiles>  (1) 
CCCCC1CCC(COC(=O)N[C@@H](CC(C)C)C(=O)N[C@H](C=O)C[C@@H]2CCNC2=O)CC1

>  <aimnet_interaction_kcal_mol>  (1) 
-64.044464550716796

$$$$
L1:P0C6U8:20766
     RDKit          3D

 69 73  0  0  0  0  0  0  0  0999 V2000
   35.6471  -59.6310   31.9276 C   0  0  0  0  0  0  0  0  0  0  0  0
   35.8659  -58.5095   32.4018 O   0  0  0  0  0  0  0  0  0  0  0  0
   36.3371  -60.7079   32.3455 N   0  0  0  0  0  0  0  0  0  0  0  0
   36.0782  -62.0982   31.9830 C   0  0  0  0  0  0  0  0  0  0  0  0
   36.6421  -62.8672   33.1406 C   0  0  1  0  0  0  0  0  0  0  0  0
   37.3840  -61.9261   34.0353 C   0  0  1  0  0  0  0  0  0  0  0  0
   37.2971  -60.5568   33.4408 C   0  0  1  0  0  0  0  0  0  0  0  0
   36.1189  -62.5591   34.5181 C   0  0  0  0  0  0  0  0  0  0  0  0
   36.2910  -63.7012   35.4814 C   0  0  0  0  0  0  0  0  0  0  0  0
   34.8850  -61.7281   34.7572 C   0  0  0  0  0  0  0  0  0  0  0  0
   32.7568  -60.5909   27.8479 C   0  0  0  0  0  0  0  0  0  0  0  0
   31.4553  -60.1849   27.6130 C   0  0  0  0  0  0  0  0  0  0  0  0
   30.7721  -59.3135   28.4759 C   0  0  0  0  0  0  0  0  0  0  0  0
   31.4046  -58.8167   29.5911 C   0  0  0  0  0  0  0  0  0  0  0  0
   30.7705  -57.9500   30.4121 F   0  0  0  0  0  0  0  0  0  0  0  0
   32.6921  -59.2346   29.8960 C   0  0  0  0  0  0  0  0  0  0  0  0
   33.5229  -58.9564   30.9436 N   0  0  0  0  0  0  0  0  0  0  0  0
   34.6148  -59.8031   30.8878 C   0  0  0  0  0  0  0  0  0  0  0  0
   34.4976  -60.6081   29.7767 C   0  0  0  0  0  0  0  0  0  0  0  0
   33.3191  -60.2221   29.0868 C   0  0  0  0  0  0  0  0  0  0  0  0
   33.5473  -58.1182   31.5149 H   0  0  0  0  0  0  0  0  0  0  0  0
   34.7715  -60.4611   26.3758 C   0  0  0  0  0  0  0  0  0  0  0  0
   33.6012  -61.3343   26.8377 C   0  0  0  0  0  0  0  0  0  0  0  0
   32.8474  -61.8396   25.6169 C   0  0  0  0  0  0  0  0  0  0  0  0
   38.6518  -60.0780   32.9423 C   0  0  0  0  0  0  0  0  0  0  0  0
   39.7076  -60.5249   33.3863 O   0  0  0  0  0  0  0  0  0  0  0  0
   38.5706  -59.1360   31.9786 N   0  0  0  0  0  0  0  0  0  0  0  0
   37.7762  -58.5096   31.9341 H   0  0  0  0  0  0  0  0  0  0  0  0
   39.7051  -58.8442   31.1555 C   0  0  2  0  0  0  0  0  0  0  0  0
   39.5867  -57.3963   30.7624 C   0  0  0  0  0  0  0  0  0  0  0  0
   38.5214  -56.8348   30.6562 O   0  0  0  0  0  0  0  0  0  0  0  0
   39.7736  -59.8627   29.9964 C   0  0  0  0  0  0  0  0  0  0  0  0
   38.7820  -59.6286   28.8447 C   0  0  2  0  0  0  0  0  0  0  0  0
   38.2730  -60.9133   28.1588 C   0  0  0  0  0  0  0  0  0  0  0  0
   38.4979  -60.7224   26.6514 C   0  0  0  0  0  0  0  0  0  0  0  0
   39.2801  -59.5017   26.5737 N   0  0  0  0  0  0  0  0  0  0  0  0
   39.4423  -58.8513   27.7252 C   0  0  0  0  0  0  0  0  0  0  0  0
   40.0919  -57.8011   27.8628 O   0  0  0  0  0  0  0  0  0  0  0  0
   39.6440  -59.1404   25.7016 H   0  0  0  0  0  0  0  0  0  0  0  0
   36.5792  -62.3498   31.0455 H   0  0  0  0  0  0  0  0  0  0  0  0
   35.0097  -62.2620   31.8511 H   0  0  0  0  0  0  0  0  0  0  0  0
   36.9963  -63.8728   32.9564 H   0  0  0  0  0  0  0  0  0  0  0  0
   38.3122  -62.1711   34.5285 H   0  0  0  0  0  0  0  0  0  0  0  0
   36.9231  -59.8267   34.1562 H   0  0  0  0  0  0  0  0  0  0  0  0
   36.0511  -63.4136   36.5055 H   0  0  0  0  0  0  0  0  0  0  0  0
   37.3138  -64.0747   35.4748 H   0  0  0  0  0  0  0  0  0  0  0  0
   35.6474  -64.5264   35.1844 H   0  0  0  0  0  0  0  0  0  0  0  0
   34.9473  -61.2255   35.7216 H   0  0  0  0  0  0  0  0  0  0  0  0
   33.9831  -62.3422   34.7609 H   0  0  0  0  0  0  0  0  0  0  0  0
   34.7290  -60.9611   34.0099 H   0  0  0  0  0  0  0  0  0  0  0  0
   30.9281  -60.5447   26.7450 H   0  0  0  0  0  0  0  0  0  0  0  0
   29.7441  -59.0418   28.2841 H   0  0  0  0  0  0  0  0  0  0  0  0
   35.1804  -61.3777   29.4671 H   0  0  0  0  0  0  0  0  0  0  0  0
   35.4196  -61.0289   25.7089 H   0  0  0  0  0  0  0  0  0  0  0  0
   35.3667  -60.0961   27.2081 H   0  0  0  0  0  0  0  0  0  0  0  0
   34.4099  -59.5851   25.8398 H   0  0  0  0  0  0  0  0  0  0  0  0
   34.0213  -62.2016   27.3557 H   0  0  0  0  0  0  0  0  0  0  0  0
   32.4832  -61.0160   25.0057 H   0  0  0  0  0  0  0  0  0  0  0  0
   31.9994  -62.4704   25.8684 H   0  0  0  0  0  0  0  0  0  0  0  0
   33.5153  -62.4273   24.9902 H   0  0  0  0  0  0  0  0  0  0  0  0
   40.6090  -58.9675   31.7551 H   0  0  0  0  0  0  0  0  0  0  0  0
   40.5191  -56.8423   30.6079 H   0  0  0  0  0  0  0  0  0  0  0  0
   39.5749  -60.8292   30.4520 H   0  0  0  0  0  0  0  0  0  0  0  0
   40.7902  -59.9364   29.6081 H   0  0  0  0  0  0  0  0  0  0  0  0
   37.9562  -59.0241   29.2225 H   0  0  0  0  0  0  0  0  0  0  0  0
   37.2252  -61.0897   28.3812 H   0  0  0  0  0  0  0  0  0  0  0  0
   38.8348  -61.7779   28.4996 H   0  0  0  0  0  0  0  0  0  0  0  0
   37.5769  -60.5962   26.0916 H   0  0  0  0  0  0  0  0  0  0  0  0
   39.0513  -61.5445   26.2086 H   0  0  0  0  0  0  0  0  0  0  0  0
  1  2  2  0
  1  3  1  0
  3  4  1  0
  4  5  1  0
  4 40  1  0
  4 41  1  0
  5  6  1  0
  5 42  1  6
  6  7  1  0
  6  8  1  0
  6 43  1  1
  7 25  1  0
  7  3  1  0
  7 44  1  1
  8  9  1  0
  8 10  1  0
  8  5  1  0
  9 45  1  0
  9 46  1  0
  9 47  1  0
 10 48  1  0
 10 49  1  0
 10 50  1  0
 11 12  2  0
 12 13  1  0
 12 51  1  0
 13 14  2  0
 13 52  1  0
 14 15  1  0
 14 16  1  0
 16 17  1  0
 17 18  1  0
 17 21  1  0
 18  1  1  0
 18 19  2  0
 19 20  1  0
 19 53  1  0
 20 11  1  0
 20 16  2  0
 22 23  1  0
 22 54  1  0
 22 55  1  0
 22 56  1  0
 23 24  1  0
 23 11  1  0
 23 57  1  0
 24 58  1  0
 24 59  1  0
 24 60  1  0
 25 26  2  0
 25 27  1  0
 27 29  1  0
 27 28  1  0
 29 30  1  0
 29 32  1  0
 29 61  1  1
 30 31  2  0
 30 62  1  0
 32 33  1  0
 32 63  1  0
 32 64  1  0
 33 34  1  0
 33 65  1  1
 34 35  1  0
 34 66  1  0
 34 67  1  0
 35 36  1  0
 35 68  1  0
 35 69  1  0
 36 37  1  0
 36 39  1  0
 37 38  2  0
 37 33  1  0
M  END
>  <minimizedAffinity>  (2) 
-9.00076

>  <mol_id>  (2) 
20766

>  <source_index>  (2) 
1

>  <layer>  (2) 
L1

>  <uniprot>  (2) 
P0C6U8

>  <paff>  (2) 
7.5228999999999999

>  <smiles>  (2) 
CC(C)c1ccc(F)c2[nH]c(C(=O)N3C[C@H]4[C@@H]([C@H]3C(=O)N[C@H](C=O)C[C@@H]3CCNC3=O)C4(C)C)cc12

>  <aimnet_interaction_kcal_mol>  (2) 
-58.052351223238077

$$$$
L1:P0C6U8:34868
     RDKit          3D

 65 68  0  0  0  0  0  0  0  0999 V2000
   34.8856  -59.8490   28.0119 C   0  0  1  0  0  0  0  0  0  0  0  0
   37.0995  -59.7491   27.0603 N   0  0  0  0  0  0  0  0  0  0  0  0
   36.3964  -59.9837   28.1821 C   0  0  0  0  0  0  0  0  0  0  0  0
   36.9435  -60.2666   29.2456 O   0  0  0  0  0  0  0  0  0  0  0  0
   36.6112  -59.6175   26.1883 H   0  0  0  0  0  0  0  0  0  0  0  0
   38.5332  -59.9356   27.0729 C   0  0  2  0  0  0  0  0  0  0  0  0
   40.1788  -59.4034   28.7579 O   0  0  0  0  0  0  0  0  0  0  0  0
   39.0838  -59.2046   28.2685 C   0  0  0  0  0  0  0  0  0  0  0  0
   39.1519  -59.3819   25.8062 C   0  0  0  0  0  0  0  0  0  0  0  0
   38.6699  -60.0633   24.5457 C   0  0  2  0  0  0  0  0  0  0  0  0
   38.8145  -61.5861   24.4930 C   0  0  0  0  0  0  0  0  0  0  0  0
   39.1099  -61.8800   23.0191 C   0  0  0  0  0  0  0  0  0  0  0  0
   39.7033  -60.6417   22.5522 N   0  0  0  0  0  0  0  0  0  0  0  0
   39.4826  -59.5850   23.3553 C   0  0  0  0  0  0  0  0  0  0  0  0
   39.8573  -58.4248   23.2124 O   0  0  0  0  0  0  0  0  0  0  0  0
   39.8225  -60.5162   21.5448 H   0  0  0  0  0  0  0  0  0  0  0  0
   34.3856  -60.9418   27.1926 N   0  0  0  0  0  0  0  0  0  0  0  0
   34.2732  -60.8896   25.8431 C   0  0  0  0  0  0  0  0  0  0  0  0
   34.7737  -59.9758   25.1673 O   0  0  0  0  0  0  0  0  0  0  0  0
   33.9965  -61.7340   27.6763 H   0  0  0  0  0  0  0  0  0  0  0  0
   33.5013  -61.9890   25.2429 C   0  0  0  0  0  0  0  0  0  0  0  0
   33.3502  -63.2767   25.7127 C   0  0  0  0  0  0  0  0  0  0  0  0
   32.3339  -63.8927   24.9389 C   0  0  0  0  0  0  0  0  0  0  0  0
   31.7352  -65.1565   24.9370 C   0  0  0  0  0  0  0  0  0  0  0  0
   30.6520  -65.3836   24.1124 C   0  0  0  0  0  0  0  0  0  0  0  0
   30.1487  -64.3707   23.2782 C   0  0  0  0  0  0  0  0  0  0  0  0
   30.7528  -63.1315   23.2169 C   0  0  0  0  0  0  0  0  0  0  0  0
   31.8709  -62.9127   24.0167 C   0  0  0  0  0  0  0  0  0  0  0  0
   32.6188  -61.7792   24.1952 N   0  0  0  0  0  0  0  0  0  0  0  0
   32.8014  -61.1150   23.4406 H   0  0  0  0  0  0  0  0  0  0  0  0
   34.2074  -59.7737   29.3635 C   0  0  0  0  0  0  0  0  0  0  0  0
   32.6893  -59.6991   29.3248 C   0  0  0  0  0  0  0  0  0  0  0  0
   32.1482  -58.7257   28.2881 C   0  0  0  0  0  0  0  0  0  0  0  0
   30.6365  -58.6284   28.3454 C   0  0  0  0  0  0  0  0  0  0  0  0
   30.1719  -58.2314   29.7325 C   0  0  0  0  0  0  0  0  0  0  0  0
   30.6753  -59.2064   30.7779 C   0  0  0  0  0  0  0  0  0  0  0  0
   32.1825  -59.3407   30.7152 C   0  0  0  0  0  0  0  0  0  0  0  0
   34.6980  -58.9291   27.4559 H   0  0  0  0  0  0  0  0  0  0  0  0
   38.7771  -60.9941   27.1965 H   0  0  0  0  0  0  0  0  0  0  0  0
   38.4401  -58.3992   28.6570 H   0  0  0  0  0  0  0  0  0  0  0  0
   40.2334  -59.4862   25.8707 H   0  0  0  0  0  0  0  0  0  0  0  0
   38.9650  -58.3086   25.7342 H   0  0  0  0  0  0  0  0  0  0  0  0
   37.6396  -59.7723   24.3338 H   0  0  0  0  0  0  0  0  0  0  0  0
   37.9388  -62.1187   24.8592 H   0  0  0  0  0  0  0  0  0  0  0  0
   39.6611  -61.8883   25.1065 H   0  0  0  0  0  0  0  0  0  0  0  0
   38.2097  -62.1159   22.4467 H   0  0  0  0  0  0  0  0  0  0  0  0
   39.8042  -62.7102   22.8782 H   0  0  0  0  0  0  0  0  0  0  0  0
   33.9079  -63.7346   26.5138 H   0  0  0  0  0  0  0  0  0  0  0  0
   32.1169  -65.9365   25.5811 H   0  0  0  0  0  0  0  0  0  0  0  0
   30.1759  -66.3559   24.1028 H   0  0  0  0  0  0  0  0  0  0  0  0
   29.2492  -64.5560   22.7054 H   0  0  0  0  0  0  0  0  0  0  0  0
   30.3516  -62.3449   22.5949 H   0  0  0  0  0  0  0  0  0  0  0  0
   34.5985  -58.8912   29.8692 H   0  0  0  0  0  0  0  0  0  0  0  0
   34.5258  -60.6213   29.9698 H   0  0  0  0  0  0  0  0  0  0  0  0
   32.2993  -60.6916   29.0642 H   0  0  0  0  0  0  0  0  0  0  0  0
   32.4533  -59.0107   27.2846 H   0  0  0  0  0  0  0  0  0  0  0  0
   32.5897  -57.7432   28.4692 H   0  0  0  0  0  0  0  0  0  0  0  0
   30.2049  -59.5961   28.0842 H   0  0  0  0  0  0  0  0  0  0  0  0
   30.2696  -57.9302   27.5988 H   0  0  0  0  0  0  0  0  0  0  0  0
   29.0956  -58.1601   29.7919 H   0  0  0  0  0  0  0  0  0  0  0  0
   30.5540  -57.2364   29.9600 H   0  0  0  0  0  0  0  0  0  0  0  0
   30.2038  -60.1756   30.6104 H   0  0  0  0  0  0  0  0  0  0  0  0
   30.3693  -58.8904   31.7739 H   0  0  0  0  0  0  0  0  0  0  0  0
   32.5375  -60.0746   31.4390 H   0  0  0  0  0  0  0  0  0  0  0  0
   32.6279  -58.3895   31.0099 H   0  0  0  0  0  0  0  0  0  0  0  0
  1 31  1  0
  1 17  1  0
  1 38  1  6
  2  3  1  0
  2  5  1  0
  3  4  2  0
  3  1  1  0
  6  9  1  0
  6  2  1  0
  6 39  1  1
  7  8  2  0
  8  6  1  0
  8 40  1  0
  9 10  1  0
  9 41  1  0
  9 42  1  0
 10 11  1  0
 10 43  1  6
 11 12  1  0
 11 44  1  0
 11 45  1  0
 12 13  1  0
 12 46  1  0
 12 47  1  0
 13 14  1  0
 13 16  1  0
 14 15  2  0
 14 10  1  0
 17 18  1  0
 17 20  1  0
 18 19  2  0
 18 21  1  0
 21 22  2  0
 22 23  1  0
 22 48  1  0
 23 24  2  0
 24 25  1  0
 24 49  1  0
 25 26  2  0
 25 50  1  0
 26 27  1  0
 26 51  1  0
 27 28  2  0
 27 52  1  0
 28 29  1  0
 28 23  1  0
 29 21  1  0
 29 30  1  0
 31 32  1  0
 31 53  1  0
 31 54  1  0
 32 33  1  0
 32 55  1  0
 33 34  1  0
 33 56  1  0
 33 57  1  0
 34 35  1  0
 34 58  1  0
 34 59  1  0
 35 36  1  0
 35 60  1  0
 35 61  1  0
 36 37  1  0
 36 62  1  0
 36 63  1  0
 37 32  1  0
 37 64  1  0
 37 65  1  0
M  END
>  <minimizedAffinity>  (3) 
-8.41051

>  <mol_id>  (3) 
34868

>  <source_index>  (3) 
2

>  <layer>  (3) 
L1

>  <uniprot>  (3) 
P0C6U8

>  <paff>  (3) 
7.2756999999999996

>  <smiles>  (3) 
O=C[C@H](CC1CCNC1=O)NC(=O)[C@H](CC1CCCCC1)NC(=O)c1cc2ccccc2[nH]1

>  <aimnet_interaction_kcal_mol>  (3) 
-73.691155791340634

$$$$
L1:P0C6U8:48138
     RDKit          3D

 59 62  0  0  0  0  0  0  0  0999 V2000
   34.6036  -60.2480   27.8243 C   0  0  1  0  0  0  0  0  0  0  0  0
   36.9951  -60.1135   28.2552 N   0  0  0  0  0  0  0  0  0  0  0  0
   35.9714  -60.9354   27.9104 C   0  0  0  0  0  0  0  0  0  0  0  0
   36.0979  -62.1357   27.7263 O   0  0  0  0  0  0  0  0  0  0  0  0
   36.8038  -59.1291   28.3610 H   0  0  0  0  0  0  0  0  0  0  0  0
   38.3731  -60.5317   28.1130 C   0  0  2  0  0  0  0  0  0  0  0  0
   40.4084  -59.8594   29.1996 O   0  0  0  0  0  0  0  0  0  0  0  0
   39.2769  -59.5913   28.8643 C   0  0  0  0  0  0  0  0  0  0  0  0
   38.7700  -60.6698   26.6429 C   0  0  0  0  0  0  0  0  0  0  0  0
   38.3391  -59.5381   25.7467 C   0  0  2  0  0  0  0  0  0  0  0  0
   38.4498  -59.9002   24.2678 C   0  0  0  0  0  0  0  0  0  0  0  0
   38.6574  -58.5557   23.5791 C   0  0  0  0  0  0  0  0  0  0  0  0
   39.2312  -57.7402   24.6414 N   0  0  0  0  0  0  0  0  0  0  0  0
   39.1619  -58.2767   25.8579 C   0  0  0  0  0  0  0  0  0  0  0  0
   39.7145  -57.8442   26.8902 O   0  0  0  0  0  0  0  0  0  0  0  0
   39.4336  -56.7650   24.4581 H   0  0  0  0  0  0  0  0  0  0  0  0
   33.7211  -61.0250   26.9828 N   0  0  0  0  0  0  0  0  0  0  0  0
   33.8915  -60.9882   25.6280 C   0  0  0  0  0  0  0  0  0  0  0  0
   34.6455  -60.1737   25.0804 O   0  0  0  0  0  0  0  0  0  0  0  0
   33.4474  -61.9196   27.3665 H   0  0  0  0  0  0  0  0  0  0  0  0
   33.1164  -61.9715   24.8671 C   0  0  0  0  0  0  0  0  0  0  0  0
   31.8860  -62.5358   25.1363 C   0  0  0  0  0  0  0  0  0  0  0  0
   31.6195  -63.4894   24.1164 C   0  0  0  0  0  0  0  0  0  0  0  0
   30.5624  -64.3617   23.8295 C   0  0  0  0  0  0  0  0  0  0  0  0
   30.6739  -65.2038   22.7405 C   0  0  0  0  0  0  0  0  0  0  0  0
   31.8043  -65.1783   21.9049 C   0  0  0  0  0  0  0  0  0  0  0  0
   32.8407  -64.2939   22.1271 C   0  0  0  0  0  0  0  0  0  0  0  0
   32.7413  -63.4575   23.2348 C   0  0  0  0  0  0  0  0  0  0  0  0
   33.6274  -62.5347   23.7146 N   0  0  0  0  0  0  0  0  0  0  0  0
   34.2255  -61.9937   23.1000 H   0  0  0  0  0  0  0  0  0  0  0  0
   34.0560  -60.1033   29.2437 C   0  0  0  0  0  0  0  0  0  0  0  0
   32.7342  -59.4176   29.3759 C   0  0  0  0  0  0  0  0  0  0  0  0
   31.8231  -59.8981   30.3097 C   0  0  0  0  0  0  0  0  0  0  0  0
   30.6429  -59.2205   30.5681 C   0  0  0  0  0  0  0  0  0  0  0  0
   30.3449  -58.0494   29.8833 C   0  0  0  0  0  0  0  0  0  0  0  0
   31.2441  -57.6123   28.9351 C   0  0  0  0  0  0  0  0  0  0  0  0
   30.9777  -56.4670   28.2281 F   0  0  0  0  0  0  0  0  0  0  0  0
   32.4292  -58.2607   28.6649 C   0  0  0  0  0  0  0  0  0  0  0  0
   34.7129  -59.2748   27.3528 H   0  0  0  0  0  0  0  0  0  0  0  0
   38.4703  -61.5194   28.5693 H   0  0  0  0  0  0  0  0  0  0  0  0
   38.8368  -58.6177   29.1445 H   0  0  0  0  0  0  0  0  0  0  0  0
   38.3326  -61.5932   26.2735 H   0  0  0  0  0  0  0  0  0  0  0  0
   39.8412  -60.8174   26.5806 H   0  0  0  0  0  0  0  0  0  0  0  0
   37.3058  -59.2525   25.9588 H   0  0  0  0  0  0  0  0  0  0  0  0
   37.5788  -60.4381   23.9104 H   0  0  0  0  0  0  0  0  0  0  0  0
   39.3130  -60.5467   24.1028 H   0  0  0  0  0  0  0  0  0  0  0  0
   37.7259  -58.1038   23.2521 H   0  0  0  0  0  0  0  0  0  0  0  0
   39.3162  -58.6061   22.7233 H   0  0  0  0  0  0  0  0  0  0  0  0
   31.2370  -62.2218   25.9337 H   0  0  0  0  0  0  0  0  0  0  0  0
   29.6637  -64.3628   24.4309 H   0  0  0  0  0  0  0  0  0  0  0  0
   29.8816  -65.9064   22.5187 H   0  0  0  0  0  0  0  0  0  0  0  0
   31.8582  -65.8672   21.0716 H   0  0  0  0  0  0  0  0  0  0  0  0
   33.6993  -64.2516   21.4702 H   0  0  0  0  0  0  0  0  0  0  0  0
   34.7857  -59.5645   29.8531 H   0  0  0  0  0  0  0  0  0  0  0  0
   33.9972  -61.1021   29.6783 H   0  0  0  0  0  0  0  0  0  0  0  0
   32.0579  -60.8067   30.8433 H   0  0  0  0  0  0  0  0  0  0  0  0
   29.9453  -59.5871   31.3124 H   0  0  0  0  0  0  0  0  0  0  0  0
   29.4508  -57.4966   30.1142 H   0  0  0  0  0  0  0  0  0  0  0  0
   33.1100  -57.8374   27.9391 H   0  0  0  0  0  0  0  0  0  0  0  0
  1 31  1  0
  1 17  1  0
  1 39  1  6
  2  3  1  0
  2  5  1  0
  3  4  2  0
  3  1  1  0
  6  9  1  0
  6  2  1  0
  6 40  1  1
  7  8  2  0
  8  6  1  0
  8 41  1  0
  9 10  1  0
  9 42  1  0
  9 43  1  0
 10 11  1  0
 10 44  1  1
 11 12  1  0
 11 45  1  0
 11 46  1  0
 12 13  1  0
 12 47  1  0
 12 48  1  0
 13 14  1  0
 13 16  1  0
 14 15  2  0
 14 10  1  0
 17 18  1  0
 17 20  1  0
 18 19  2  0
 18 21  1  0
 21 22  2  0
 22 23  1  0
 22 49  1  0
 23 24  2  0
 24 25  1  0
 24 50  1  0
 25 26  2  0
 25 51  1  0
 26 27  1  0
 26 52  1  0
 27 28  2  0
 27 53  1  0
 28 29  1  0
 28 23  1  0
 29 21  1  0
 29 30  1  0
 31 32  1  0
 31 54  1  0
 31 55  1  0
 32 33  2  0
 33 34  1  0
 33 56  1  0
 34 35  2  0
 34 57  1  0
 35 36  1  0
 35 58  1  0
 36 37  1  0
 36 38  2  0
 38 32  1  0
 38 59  1  0
M  END
>  <minimizedAffinity>  (4) 
-8.54161

>  <mol_id>  (4) 
48138

>  <source_index>  (4) 
3

>  <layer>  (4) 
L1

>  <uniprot>  (4) 
P0C6U8

>  <paff>  (4) 
7.3978999999999999

>  <smiles>  (4) 
O=C[C@H](C[C@@H]1CCNC1=O)NC(=O)[C@H](Cc1cccc(F)c1)NC(=O)c1cc2ccccc2[nH]1

>  <aimnet_interaction_kcal_mol>  (4) 
-75.493897302887277

$$$$
L1:P0C6U8:52582
     RDKit          3D

 91 93  0  0  0  0  0  0  0  0999 V2000
   36.6656  -59.9298   29.9527 C   0  0  0  0  0  0  0  0  0  0  0  0
   37.1253  -61.0093   29.5723 O   0  0  0  0  0  0  0  0  0  0  0  0
   35.7521  -59.2144   29.2697 N   0  0  0  0  0  0  0  0  0  0  0  0
   35.4945  -58.3091   29.6279 H   0  0  0  0  0  0  0  0  0  0  0  0
   34.8682  -59.7661   28.2332 C   0  0  2  0  0  0  0  0  0  0  0  0
   35.5515  -59.9050   26.8440 C   0  0  0  0  0  0  0  0  0  0  0  0
   35.1218  -59.3338   25.8388 O   0  0  0  0  0  0  0  0  0  0  0  0
   36.6099  -60.7366   26.8496 N   0  0  0  0  0  0  0  0  0  0  0  0
   36.8925  -61.1040   27.7547 H   0  0  0  0  0  0  0  0  0  0  0  0
   37.5108  -60.9650   25.7256 C   0  0  2  0  0  0  0  0  0  0  0  0
   37.3084  -62.4092   25.2919 C   0  0  0  0  0  0  0  0  0  0  0  0
   38.1785  -63.2428   25.2282 O   0  0  0  0  0  0  0  0  0  0  0  0
   38.9672  -60.6546   26.0808 C   0  0  0  0  0  0  0  0  0  0  0  0
   39.6790  -59.6382   25.1935 C   0  0  2  0  0  0  0  0  0  0  0  0
   38.8699  -58.4025   24.8093 C   0  0  0  0  0  0  0  0  0  0  0  0
   38.4904  -58.6132   23.3338 C   0  0  0  0  0  0  0  0  0  0  0  0
   39.2923  -59.7449   22.9100 N   0  0  0  0  0  0  0  0  0  0  0  0
   40.1083  -60.2427   23.8645 C   0  0  0  0  0  0  0  0  0  0  0  0
   41.0578  -61.0184   23.7373 O   0  0  0  0  0  0  0  0  0  0  0  0
   39.3529  -60.0197   21.9225 H   0  0  0  0  0  0  0  0  0  0  0  0
   33.5761  -58.9463   28.1909 C   0  0  0  0  0  0  0  0  0  0  0  0
   32.3546  -59.7966   28.5500 C   0  0  0  0  0  0  0  0  0  0  0  0
   32.4475  -60.3566   29.9663 C   0  0  0  0  0  0  0  0  0  0  0  0
   32.1235  -59.3360   31.0422 C   0  0  0  0  0  0  0  0  0  0  0  0
   30.7409  -58.7568   30.8164 C   0  0  0  0  0  0  0  0  0  0  0  0
   30.6832  -58.0813   29.4594 C   0  0  0  0  0  0  0  0  0  0  0  0
   31.0366  -59.0496   28.3426 C   0  0  0  0  0  0  0  0  0  0  0  0
   37.1667  -59.2831   31.2461 C   0  0  1  0  0  0  0  0  0  0  0  0
   36.8160  -60.0031   32.4431 N   0  0  0  0  0  0  0  0  0  0  0  0
   35.7049  -60.7379   32.6438 C   0  0  0  0  0  0  0  0  0  0  0  0
   34.9659  -61.1472   31.7675 O   0  0  0  0  0  0  0  0  0  0  0  0
   37.4431  -59.8757   33.2188 H   0  0  0  0  0  0  0  0  0  0  0  0
   35.5327  -60.9379   33.9777 O   0  0  0  0  0  0  0  0  0  0  0  0
   34.8109  -62.1325   34.3591 C   0  0  0  0  0  0  0  0  0  0  0  0
   35.7965  -63.2126   34.6748 C   0  0  0  0  0  0  0  0  0  0  0  0
   35.9857  -64.2954   33.8248 C   0  0  0  0  0  0  0  0  0  0  0  0
   36.9681  -65.2347   34.0972 C   0  0  0  0  0  0  0  0  0  0  0  0
   37.7800  -65.0930   35.2134 C   0  0  0  0  0  0  0  0  0  0  0  0
   37.5981  -64.0101   36.0639 C   0  0  0  0  0  0  0  0  0  0  0  0
   36.6041  -63.0818   35.7986 C   0  0  0  0  0  0  0  0  0  0  0  0
   39.0786  -57.6833   30.9256 C   0  0  0  0  0  0  0  0  0  0  0  0
   38.7189  -59.1351   31.1536 C   0  0  1  0  0  0  0  0  0  0  0  0
   39.3838  -59.5712   32.3284 O   0  0  0  0  0  0  0  0  0  0  0  0
   40.1598  -60.7975   32.2635 C   0  0  0  0  0  0  0  0  0  0  0  0
   41.2482  -60.6747   31.2059 C   0  0  0  0  0  0  0  0  0  0  0  0
   39.2794  -62.0081   31.9912 C   0  0  0  0  0  0  0  0  0  0  0  0
   40.7798  -60.8932   33.6452 C   0  0  0  0  0  0  0  0  0  0  0  0
   34.6449  -60.7881   28.5454 H   0  0  0  0  0  0  0  0  0  0  0  0
   37.1702  -60.3388   24.9012 H   0  0  0  0  0  0  0  0  0  0  0  0
   36.2478  -62.6526   25.0605 H   0  0  0  0  0  0  0  0  0  0  0  0
   39.5294  -61.5774   26.0639 H   0  0  0  0  0  0  0  0  0  0  0  0
   39.0145  -60.2993   27.1118 H   0  0  0  0  0  0  0  0  0  0  0  0
   40.5883  -59.3451   25.7041 H   0  0  0  0  0  0  0  0  0  0  0  0
   39.4583  -57.4900   24.8943 H   0  0  0  0  0  0  0  0  0  0  0  0
   38.0014  -58.2593   25.4463 H   0  0  0  0  0  0  0  0  0  0  0  0
   38.7053  -57.7391   22.7240 H   0  0  0  0  0  0  0  0  0  0  0  0
   37.4318  -58.8211   23.2235 H   0  0  0  0  0  0  0  0  0  0  0  0
   33.4820  -58.5222   27.1958 H   0  0  0  0  0  0  0  0  0  0  0  0
   33.6233  -58.0924   28.8679 H   0  0  0  0  0  0  0  0  0  0  0  0
   32.3646  -60.6363   27.8474 H   0  0  0  0  0  0  0  0  0  0  0  0
   33.4292  -60.7708   30.1577 H   0  0  0  0  0  0  0  0  0  0  0  0
   31.7612  -61.1962   30.0692 H   0  0  0  0  0  0  0  0  0  0  0  0
   32.8593  -58.5314   31.0332 H   0  0  0  0  0  0  0  0  0  0  0  0
   32.2101  -59.7861   32.0290 H   0  0  0  0  0  0  0  0  0  0  0  0
   30.4608  -58.0726   31.6109 H   0  0  0  0  0  0  0  0  0  0  0  0
   30.0068  -59.5631   30.8544 H   0  0  0  0  0  0  0  0  0  0  0  0
   31.3725  -57.2401   29.4392 H   0  0  0  0  0  0  0  0  0  0  0  0
   29.6952  -57.6626   29.2920 H   0  0  0  0  0  0  0  0  0  0  0  0
   31.0643  -58.5198   27.3933 H   0  0  0  0  0  0  0  0  0  0  0  0
   30.2329  -59.7808   28.2527 H   0  0  0  0  0  0  0  0  0  0  0  0
   36.7258  -58.2881   31.3295 H   0  0  0  0  0  0  0  0  0  0  0  0
   34.1313  -62.4236   33.5651 H   0  0  0  0  0  0  0  0  0  0  0  0
   34.2357  -61.8523   35.2415 H   0  0  0  0  0  0  0  0  0  0  0  0
   35.3767  -64.3886   32.9369 H   0  0  0  0  0  0  0  0  0  0  0  0
   37.1111  -66.0693   33.4234 H   0  0  0  0  0  0  0  0  0  0  0  0
   38.5577  -65.8173   35.4170 H   0  0  0  0  0  0  0  0  0  0  0  0
   38.2416  -63.8826   36.9241 H   0  0  0  0  0  0  0  0  0  0  0  0
   36.4660  -62.2245   36.4427 H   0  0  0  0  0  0  0  0  0  0  0  0
   40.1445  -57.5565   30.7567 H   0  0  0  0  0  0  0  0  0  0  0  0
   38.8126  -57.0967   31.8024 H   0  0  0  0  0  0  0  0  0  0  0  0
   38.5329  -57.2940   30.0707 H   0  0  0  0  0  0  0  0  0  0  0  0
   39.0402  -59.7400   30.3114 H   0  0  0  0  0  0  0  0  0  0  0  0
   40.8332  -60.7195   30.2007 H   0  0  0  0  0  0  0  0  0  0  0  0
   41.9491  -61.5021   31.3040 H   0  0  0  0  0  0  0  0  0  0  0  0
   41.7998  -59.7424   31.3185 H   0  0  0  0  0  0  0  0  0  0  0  0
   38.7156  -61.9081   31.0680 H   0  0  0  0  0  0  0  0  0  0  0  0
   38.5705  -62.1606   32.8034 H   0  0  0  0  0  0  0  0  0  0  0  0
   39.8985  -62.9039   31.9229 H   0  0  0  0  0  0  0  0  0  0  0  0
   41.4295  -60.0402   33.8386 H   0  0  0  0  0  0  0  0  0  0  0  0
   41.3772  -61.7982   33.7384 H   0  0  0  0  0  0  0  0  0  0  0  0
   40.0095  -60.9167   34.4116 H   0  0  0  0  0  0  0  0  0  0  0  0
  1  2  2  0
  1  3  1  0
  3  5  1  0
  3  4  1  0
  5 21  1  0
  5  6  1  0
  5 48  1  1
  6  7  2  0
  6  8  1  0
  8 10  1  0
  8  9  1  0
 10 11  1  0
 10 13  1  0
 10 49  1  6
 11 12  2  0
 11 50  1  0
 13 14  1  0
 13 51  1  0
 13 52  1  0
 14 15  1  0
 14 53  1  1
 15 16  1  0
 15 54  1  0
 15 55  1  0
 16 17  1  0
 16 56  1  0
 16 57  1  0
 17 18  1  0
 17 20  1  0
 18 19  2  0
 18 14  1  0
 21 22  1  0
 21 58  1  0
 21 59  1  0
 22 23  1  0
 22 60  1  0
 23 24  1  0
 23 61  1  0
 23 62  1  0
 24 25  1  0
 24 63  1  0
 24 64  1  0
 25 26  1  0
 25 65  1  0
 25 66  1  0
 26 27  1  0
 26 67  1  0
 26 68  1  0
 27 22  1  0
 27 69  1  0
 27 70  1  0
 28 29  1  0
 28  1  1  0
 28 71  1  1
 29 30  1  0
 29 32  1  0
 30 31  2  0
 30 33  1  0
 33 34  1  0
 34 35  1  0
 34 72  1  0
 34 73  1  0
 35 36  2  0
 36 37  1  0
 36 74  1  0
 37 38  2  0
 37 75  1  0
 38 39  1  0
 38 76  1  0
 39 40  2  0
 39 77  1  0
 40 35  1  0
 40 78  1  0
 41 42  1  0
 41 79  1  0
 41 80  1  0
 41 81  1  0
 42 43  1  0
 42 28  1  0
 42 82  1  6
 43 44  1  0
 44 45  1  0
 44 46  1  0
 44 47  1  0
 45 83  1  0
 45 84  1  0
 45 85  1  0
 46 86  1  0
 46 87  1  0
 46 88  1  0
 47 89  1  0
 47 90  1  0
 47 91  1  0
M  END
>  <minimizedAffinity>  (5) 
-7.53969

>  <mol_id>  (5) 
52582

>  <source_index>  (5) 
4

>  <layer>  (5) 
L1

>  <uniprot>  (5) 
P0C6U8

>  <paff>  (5) 
7.2756999999999996

>  <smiles>  (5) 
C[C@@H](OC(C)(C)C)[C@H](NC(=O)OCc1ccccc1)C(=O)N[C@@H](CC1CCCCC1)C(=O)N[C@@H](C[C@@H]1CCNC1=O)C=O |r|

>  <aimnet_interaction_kcal_mol>  (5) 
-71.098608042915558

$$$$
L1:P0C6U8:56675
     RDKit          3D

 67 69  0  0  0  0  0  0  0  0999 V2000
   34.5246  -60.3564   28.2409 C   0  0  0  0  0  0  0  0  0  0  0  0
   34.9824  -59.2793   27.8149 O   0  0  0  0  0  0  0  0  0  0  0  0
   35.0672  -61.0246   29.2591 N   0  0  0  0  0  0  0  0  0  0  0  0
   34.4695  -62.1553   29.9998 C   0  0  0  0  0  0  0  0  0  0  0  0
   35.1343  -62.0868   31.3410 C   0  0  1  0  0  0  0  0  0  0  0  0
   36.2275  -61.0662   31.3063 C   0  0  1  0  0  0  0  0  0  0  0  0
   36.2620  -60.4668   29.9321 C   0  0  1  0  0  0  0  0  0  0  0  0
   34.9987  -60.8254   32.1479 C   0  0  0  0  0  0  0  0  0  0  0  0
   33.9839  -59.7698   31.7893 C   0  0  0  0  0  0  0  0  0  0  0  0
   35.1494  -60.9896   33.6406 C   0  0  0  0  0  0  0  0  0  0  0  0
   37.5467  -60.7985   29.1460 C   0  0  0  0  0  0  0  0  0  0  0  0
   38.3981  -61.5695   29.5613 O   0  0  0  0  0  0  0  0  0  0  0  0
   37.5932  -60.1249   27.9697 N   0  0  0  0  0  0  0  0  0  0  0  0
   36.7967  -59.5325   27.7550 H   0  0  0  0  0  0  0  0  0  0  0  0
   38.6234  -60.2249   26.9553 C   0  0  2  0  0  0  0  0  0  0  0  0
   39.4467  -59.0304   27.1019 C   0  0  0  0  0  0  0  0  0  0  0  0
   40.0694  -58.0998   27.3895 N   0  0  0  0  0  0  0  0  0  0  0  0
   37.9376  -60.3548   25.5914 C   0  0  0  0  0  0  0  0  0  0  0  0
   38.7330  -60.7046   24.3537 C   0  0  2  0  0  0  0  0  0  0  0  0
   39.4588  -62.0429   24.3301 C   0  0  0  0  0  0  0  0  0  0  0  0
   40.4756  -61.8570   23.1957 C   0  0  0  0  0  0  0  0  0  0  0  0
   40.7354  -60.4313   23.2303 N   0  0  0  0  0  0  0  0  0  0  0  0
   39.7833  -59.7124   23.8865 C   0  0  0  0  0  0  0  0  0  0  0  0
   39.7445  -58.4995   24.0369 O   0  0  0  0  0  0  0  0  0  0  0  0
   41.2433  -59.9792   22.4689 H   0  0  0  0  0  0  0  0  0  0  0  0
   33.2337  -60.8737   27.6111 C   0  0  2  0  0  0  0  0  0  0  0  0
   32.1037  -61.7233   25.5285 C   0  0  0  0  0  0  0  0  0  0  0  0
   33.4358  -61.6080   26.2621 C   0  0  0  0  0  0  0  0  0  0  0  0
   34.4026  -60.8598   25.3650 C   0  0  0  0  0  0  0  0  0  0  0  0
   34.0248  -62.9876   26.5510 C   0  0  0  0  0  0  0  0  0  0  0  0
   32.3958  -59.6885   27.4912 N   0  0  0  0  0  0  0  0  0  0  0  0
   31.4964  -59.4423   28.4664 C   0  0  0  0  0  0  0  0  0  0  0  0
   31.1119  -60.2255   29.3117 O   0  0  0  0  0  0  0  0  0  0  0  0
   32.8887  -58.8970   27.0973 H   0  0  0  0  0  0  0  0  0  0  0  0
   30.8774  -58.0161   28.4739 C   0  0  0  0  0  0  0  0  0  0  0  0
   29.7085  -58.0290   27.7928 F   0  0  0  0  0  0  0  0  0  0  0  0
   31.6772  -57.0955   27.8988 F   0  0  0  0  0  0  0  0  0  0  0  0
   30.6360  -57.6320   29.7292 F   0  0  0  0  0  0  0  0  0  0  0  0
   34.6702  -63.0970   29.4890 H   0  0  0  0  0  0  0  0  0  0  0  0
   33.3914  -62.0435   30.0812 H   0  0  0  0  0  0  0  0  0  0  0  0
   35.2348  -63.0209   31.8757 H   0  0  0  0  0  0  0  0  0  0  0  0
   37.1829  -61.2377   31.7790 H   0  0  0  0  0  0  0  0  0  0  0  0
   36.1597  -59.3810   29.9607 H   0  0  0  0  0  0  0  0  0  0  0  0
   34.2313  -58.8285   32.2790 H   0  0  0  0  0  0  0  0  0  0  0  0
   32.9939  -60.0700   32.1375 H   0  0  0  0  0  0  0  0  0  0  0  0
   33.8906  -59.5659   30.7288 H   0  0  0  0  0  0  0  0  0  0  0  0
   35.4488  -60.0555   34.1143 H   0  0  0  0  0  0  0  0  0  0  0  0
   35.8928  -61.7466   33.8843 H   0  0  0  0  0  0  0  0  0  0  0  0
   34.2016  -61.2938   34.0900 H   0  0  0  0  0  0  0  0  0  0  0  0
   39.2592  -61.0831   27.1694 H   0  0  0  0  0  0  0  0  0  0  0  0
   37.3994  -59.4233   25.4106 H   0  0  0  0  0  0  0  0  0  0  0  0
   37.2066  -61.1504   25.7196 H   0  0  0  0  0  0  0  0  0  0  0  0
   38.0116  -60.7072   23.5301 H   0  0  0  0  0  0  0  0  0  0  0  0
   38.7859  -62.8810   24.1618 H   0  0  0  0  0  0  0  0  0  0  0  0
   39.9718  -62.2206   25.2697 H   0  0  0  0  0  0  0  0  0  0  0  0
   40.0698  -62.1524   22.2271 H   0  0  0  0  0  0  0  0  0  0  0  0
   41.3945  -62.4236   23.3711 H   0  0  0  0  0  0  0  0  0  0  0  0
   32.7063  -61.5381   28.2851 H   0  0  0  0  0  0  0  0  0  0  0  0
   32.1521  -62.5253   24.7954 H   0  0  0  0  0  0  0  0  0  0  0  0
   31.8850  -60.8115   24.9836 H   0  0  0  0  0  0  0  0  0  0  0  0
   31.2666  -61.9143   26.1912 H   0  0  0  0  0  0  0  0  0  0  0  0
   34.4306  -61.3210   24.3805 H   0  0  0  0  0  0  0  0  0  0  0  0
   35.3916  -60.8637   25.7940 H   0  0  0  0  0  0  0  0  0  0  0  0
   34.1214  -59.8170   25.2475 H   0  0  0  0  0  0  0  0  0  0  0  0
   34.1821  -63.5277   25.6186 H   0  0  0  0  0  0  0  0  0  0  0  0
   33.3816  -63.5903   27.1888 H   0  0  0  0  0  0  0  0  0  0  0  0
   34.9905  -62.9019   27.0457 H   0  0  0  0  0  0  0  0  0  0  0  0
  1  2  2  0
  1  3  1  0
  3  4  1  0
  4  5  1  0
  4 39  1  0
  4 40  1  0
  5  6  1  0
  5 41  1  1
  6  7  1  0
  6  8  1  0
  6 42  1  1
  7 11  1  0
  7  3  1  0
  7 43  1  1
  8  9  1  0
  8 10  1  0
  8  5  1  0
  9 44  1  0
  9 45  1  0
  9 46  1  0
 10 47  1  0
 10 48  1  0
 10 49  1  0
 11 12  2  0
 11 13  1  0
 13 15  1  0
 13 14  1  0
 15 16  1  0
 15 18  1  0
 15 50  1  1
 16 17  3  0
 18 19  1  0
 18 51  1  0
 18 52  1  0
 19 20  1  0
 19 53  1  6
 20 21  1  0
 20 54  1  0
 20 55  1  0
 21 22  1  0
 21 56  1  0
 21 57  1  0
 22 23  1  0
 22 25  1  0
 23 24  2  0
 23 19  1  0
 26 31  1  0
 26  1  1  0
 26 58  1  1
 27 28  1  0
 27 59  1  0
 27 60  1  0
 27 61  1  0
 28 29  1  0
 28 30  1  0
 28 26  1  0
 29 62  1  0
 29 63  1  0
 29 64  1  0
 30 65  1  0
 30 66  1  0
 30 67  1  0
 31 32  1  0
 31 34  1  0
 32 33  2  0
 32 35  1  0
 35 36  1  0
 35 37  1  0
 35 38  1  0
M  END
>  <minimizedAffinity>  (6) 
-7.90287

>  <mol_id>  (6) 
56675

>  <source_index>  (6) 
5

>  <layer>  (6) 
L1

>  <uniprot>  (6) 
P0C6U8

>  <paff>  (6) 
7.6989999999999998

>  <smiles>  (6) 
CC1([C@@H]2[C@H]1[C@H](N(C2)C(=O)[C@H](C(C)(C)C)NC(=O)C(F)(F)F)C(=O)N[C@@H](C[C@@H]3CCNC3=O)C#N)C

>  <aimnet_interaction_kcal_mol>  (6) 
-57.752578088737927

$$$$
L1:P0C6U8:60488
     RDKit          3D

 64 67  0  0  0  0  0  0  0  0999 V2000
   39.5983  -58.8492   23.4037 C   0  0  0  0  0  0  0  0  0  0  0  0
   38.8489  -59.5769   24.4883 C   0  0  0  0  0  0  0  0  0  0  0  0
   38.6820  -61.0466   24.1814 C   0  0  0  0  0  0  0  0  0  0  0  0
   39.0899  -59.1226   25.9031 C   0  0  2  0  0  0  0  0  0  0  0  0
   38.7674  -60.0456   27.0403 C   0  0  2  0  0  0  0  0  0  0  0  0
   37.3600  -60.4164   26.7987 N   0  0  0  0  0  0  0  0  0  0  0  0
   36.8912  -61.5904   27.2539 C   0  0  0  0  0  0  0  0  0  0  0  0
   37.4378  -62.2033   28.1774 O   0  0  0  0  0  0  0  0  0  0  0  0
   36.6902  -59.4414   25.9193 C   0  0  0  0  0  0  0  0  0  0  0  0
   37.8165  -58.7500   25.2124 C   0  0  2  0  0  0  0  0  0  0  0  0
   39.0247  -59.3858   28.4048 C   0  0  0  0  0  0  0  0  0  0  0  0
   39.6911  -58.3365   28.4842 O   0  0  0  0  0  0  0  0  0  0  0  0
   38.5649  -60.0584   29.4619 N   0  0  0  0  0  0  0  0  0  0  0  0
   38.1843  -60.9887   29.2872 H   0  0  0  0  0  0  0  0  0  0  0  0
   38.7186  -59.5745   30.8068 C   0  0  2  0  0  0  0  0  0  0  0  0
   40.1619  -59.5799   31.2470 C   0  0  0  0  0  0  0  0  0  0  0  0
   41.0559  -60.2082   30.7326 O   0  0  0  0  0  0  0  0  0  0  0  0
   37.9209  -60.4210   31.8009 C   0  0  0  0  0  0  0  0  0  0  0  0
   36.4051  -60.3060   31.6794 C   0  0  2  0  0  0  0  0  0  0  0  0
   35.8194  -58.9602   32.1283 C   0  0  0  0  0  0  0  0  0  0  0  0
   34.6519  -59.2820   33.0793 C   0  0  0  0  0  0  0  0  0  0  0  0
   34.8354  -60.6936   33.3592 N   0  0  0  0  0  0  0  0  0  0  0  0
   35.7381  -61.3440   32.5816 C   0  0  0  0  0  0  0  0  0  0  0  0
   35.9742  -62.5429   32.5960 O   0  0  0  0  0  0  0  0  0  0  0  0
   34.2204  -61.2204   33.9631 H   0  0  0  0  0  0  0  0  0  0  0  0
   35.6620  -62.2302   26.6032 C   0  0  0  0  0  0  0  0  0  0  0  0
   34.7395  -62.6527   27.5969 O   0  0  0  0  0  0  0  0  0  0  0  0
   34.1060  -61.6824   28.3266 C   0  0  0  0  0  0  0  0  0  0  0  0
   33.8465  -60.4043   27.8443 C   0  0  0  0  0  0  0  0  0  0  0  0
   33.1404  -59.4986   28.6187 C   0  0  0  0  0  0  0  0  0  0  0  0
   32.7186  -59.8770   29.8725 C   0  0  0  0  0  0  0  0  0  0  0  0
   33.0411  -61.1128   30.3977 C   0  0  0  0  0  0  0  0  0  0  0  0
   33.6819  -62.0454   29.6014 C   0  0  0  0  0  0  0  0  0  0  0  0
   31.9761  -58.9656   30.6653 O   0  0  0  0  0  0  0  0  0  0  0  0
   30.6873  -58.7953   30.3710 C   0  0  0  0  0  0  0  0  0  0  0  0
   29.9064  -59.3726   31.3103 F   0  0  0  0  0  0  0  0  0  0  0  0
   30.3092  -59.2969   29.1684 F   0  0  0  0  0  0  0  0  0  0  0  0
   30.3993  -57.4797   30.3518 F   0  0  0  0  0  0  0  0  0  0  0  0
   40.5528  -59.3234   23.1895 H   0  0  0  0  0  0  0  0  0  0  0  0
   39.7876  -57.8168   23.6819 H   0  0  0  0  0  0  0  0  0  0  0  0
   39.0399  -58.8463   22.4719 H   0  0  0  0  0  0  0  0  0  0  0  0
   39.5292  -61.6202   24.5639 H   0  0  0  0  0  0  0  0  0  0  0  0
   38.6546  -61.2054   23.1048 H   0  0  0  0  0  0  0  0  0  0  0  0
   37.7796  -61.4864   24.5937 H   0  0  0  0  0  0  0  0  0  0  0  0
   39.8634  -58.3954   26.0951 H   0  0  0  0  0  0  0  0  0  0  0  0
   39.3716  -60.9523   27.0242 H   0  0  0  0  0  0  0  0  0  0  0  0
   36.1178  -58.7385   26.5270 H   0  0  0  0  0  0  0  0  0  0  0  0
   36.0137  -59.9306   25.2196 H   0  0  0  0  0  0  0  0  0  0  0  0
   37.6425  -57.7443   24.8545 H   0  0  0  0  0  0  0  0  0  0  0  0
   38.3849  -58.5313   30.8443 H   0  0  0  0  0  0  0  0  0  0  0  0
   40.3452  -58.9628   32.1412 H   0  0  0  0  0  0  0  0  0  0  0  0
   38.2166  -60.1483   32.8160 H   0  0  0  0  0  0  0  0  0  0  0  0
   38.2086  -61.4633   31.6782 H   0  0  0  0  0  0  0  0  0  0  0  0
   36.1135  -60.5524   30.6560 H   0  0  0  0  0  0  0  0  0  0  0  0
   35.4805  -58.3513   31.2958 H   0  0  0  0  0  0  0  0  0  0  0  0
   36.5673  -58.3777   32.6631 H   0  0  0  0  0  0  0  0  0  0  0  0
   33.6881  -59.1036   32.6033 H   0  0  0  0  0  0  0  0  0  0  0  0
   34.6719  -58.6879   33.9916 H   0  0  0  0  0  0  0  0  0  0  0  0
   35.9896  -63.1521   26.1278 H   0  0  0  0  0  0  0  0  0  0  0  0
   35.1914  -61.6083   25.8452 H   0  0  0  0  0  0  0  0  0  0  0  0
   34.1521  -60.1055   26.8532 H   0  0  0  0  0  0  0  0  0  0  0  0
   32.9055  -58.5152   28.2360 H   0  0  0  0  0  0  0  0  0  0  0  0
   32.8196  -61.3532   31.4267 H   0  0  0  0  0  0  0  0  0  0  0  0
   33.8528  -63.0499   29.9594 H   0  0  0  0  0  0  0  0  0  0  0  0
  1  2  1  0
  1 39  1  0
  1 40  1  0
  1 41  1  0
  2  3  1  0
  2  4  1  0
  3 42  1  0
  3 43  1  0
  3 44  1  0
  4  5  1  0
  4 45  1  6
  5 11  1  0
  5  6  1  0
  5 46  1  6
  6  7  1  0
  6  9  1  0
  7  8  2  0
  7 26  1  0
  9 10  1  0
  9 47  1  0
  9 48  1  0
 10  2  1  0
 10  4  1  0
 10 49  1  6
 11 12  2  0
 11 13  1  0
 13 15  1  0
 13 14  1  0
 15 16  1  0
 15 18  1  0
 15 50  1  6
 16 17  2  0
 16 51  1  0
 18 19  1  0
 18 52  1  0
 18 53  1  0
 19 20  1  0
 19 54  1  6
 20 21  1  0
 20 55  1  0
 20 56  1  0
 21 22  1  0
 21 57  1  0
 21 58  1  0
 22 23  1  0
 22 25  1  0
 23 24  2  0
 23 19  1  0
 26 27  1  0
 26 59  1  0
 26 60  1  0
 27 28  1  0
 28 29  2  0
 29 30  1  0
 29 61  1  0
 30 31  2  0
 30 62  1  0
 31 34  1  0
 31 32  1  0
 32 33  2  0
 32 63  1  0
 33 28  1  0
 33 64  1  0
 34 35  1  0
 35 36  1  0
 35 37  1  0
 35 38  1  0
M  END
>  <minimizedAffinity>  (7) 
-7.75724

>  <mol_id>  (7) 
60488

>  <source_index>  (7) 
6

>  <layer>  (7) 
L1

>  <uniprot>  (7) 
P0C6U8

>  <paff>  (7) 
7.8239000000000001

>  <smiles>  (7) 
[H][C@]12CN([C@H](C(=O)N[C@@H](C[C@]3([H])CCNC3=O)C=O)[C@@]1([H])C2(C)C)C(=O)COc1ccc(OC(F)(F)F)cc1 |r|

>  <aimnet_interaction_kcal_mol>  (7) 
-63.14942316863003

$$$$
L1:P0C6U8:72398
     RDKit          3D

 63 64  0  0  0  0  0  0  0  0999 V2000
   36.6735  -62.1776   28.1938 C   0  0  0  0  0  0  0  0  0  0  0  0
   37.0467  -63.2455   27.7148 O   0  0  0  0  0  0  0  0  0  0  0  0
   37.2677  -60.9826   27.9794 N   0  0  0  0  0  0  0  0  0  0  0  0
   37.3139  -60.3302   28.7600 H   0  0  0  0  0  0  0  0  0  0  0  0
   35.3966  -62.1170   29.0270 C   0  0  1  0  0  0  0  0  0  0  0  0
   35.1539  -60.7941   29.5681 N   0  0  0  0  0  0  0  0  0  0  0  0
   34.2822  -60.5808   30.5657 C   0  0  0  0  0  0  0  0  0  0  0  0
   33.4096  -61.3432   30.9425 O   0  0  0  0  0  0  0  0  0  0  0  0
   35.5355  -59.9741   29.1324 H   0  0  0  0  0  0  0  0  0  0  0  0
   34.5074  -59.3543   31.1150 O   0  0  0  0  0  0  0  0  0  0  0  0
   33.3927  -58.8518   31.8799 C   0  0  0  0  0  0  0  0  0  0  0  0
   32.2123  -58.6348   30.9909 C   0  0  0  0  0  0  0  0  0  0  0  0
   30.9275  -58.9036   31.4383 C   0  0  0  0  0  0  0  0  0  0  0  0
   29.8333  -58.7399   30.5923 C   0  0  0  0  0  0  0  0  0  0  0  0
   30.0360  -58.3601   29.2763 C   0  0  0  0  0  0  0  0  0  0  0  0
   31.3136  -58.0458   28.8397 C   0  0  0  0  0  0  0  0  0  0  0  0
   32.3934  -58.1675   29.6943 C   0  0  0  0  0  0  0  0  0  0  0  0
   34.2402  -62.6168   28.1558 C   0  0  0  0  0  0  0  0  0  0  0  0
   32.9270  -60.7416   27.0517 C   0  0  0  0  0  0  0  0  0  0  0  0
   34.0302  -61.7757   26.8901 C   0  0  0  0  0  0  0  0  0  0  0  0
   33.7997  -62.6393   25.6610 C   0  0  0  0  0  0  0  0  0  0  0  0
   38.2123  -60.7487   26.8918 C   0  0  2  0  0  0  0  0  0  0  0  0
   38.7097  -59.3022   26.9898 C   0  0  2  0  0  0  0  0  0  0  0  0
   39.8001  -59.0516   26.1624 O   0  0  0  0  0  0  0  0  0  0  0  0
   39.4654  -58.6416   25.3395 H   0  0  0  0  0  0  0  0  0  0  0  0
   39.3031  -58.8568   28.7028 S   0  0  0  0  0  0  0  0  0  0  0  0
   40.3152  -59.8876   29.0755 O   0  0  0  0  0  0  0  0  0  0  0  0
   38.0685  -58.8248   29.5485 O   0  0  0  0  0  0  0  0  0  0  0  0
   39.9546  -57.4968   28.5637 O   0  0  0  0  0  0  0  0  0  0  0  0
   37.5071  -61.0139   25.5562 C   0  0  0  0  0  0  0  0  0  0  0  0
   38.3201  -61.2580   24.2952 C   0  0  2  0  0  0  0  0  0  0  0  0
   39.4070  -62.3214   24.3402 C   0  0  0  0  0  0  0  0  0  0  0  0
   40.2489  -61.9996   23.0991 C   0  0  0  0  0  0  0  0  0  0  0  0
   40.0825  -60.5609   22.9638 N   0  0  0  0  0  0  0  0  0  0  0  0
   39.0242  -60.0844   23.6524 C   0  0  0  0  0  0  0  0  0  0  0  0
   38.6665  -58.9013   23.7254 O   0  0  0  0  0  0  0  0  0  0  0  0
   40.4697  -60.0631   22.1664 H   0  0  0  0  0  0  0  0  0  0  0  0
   35.5250  -62.8009   29.8652 H   0  0  0  0  0  0  0  0  0  0  0  0
   33.7519  -57.9234   32.3155 H   0  0  0  0  0  0  0  0  0  0  0  0
   33.1517  -59.5627   32.6720 H   0  0  0  0  0  0  0  0  0  0  0  0
   30.7796  -59.2387   32.4583 H   0  0  0  0  0  0  0  0  0  0  0  0
   28.8389  -58.8774   30.9871 H   0  0  0  0  0  0  0  0  0  0  0  0
   29.2319  -58.3207   28.5649 H   0  0  0  0  0  0  0  0  0  0  0  0
   31.4648  -57.7128   27.8205 H   0  0  0  0  0  0  0  0  0  0  0  0
   33.3843  -57.9107   29.3454 H   0  0  0  0  0  0  0  0  0  0  0  0
   34.4677  -63.6465   27.8890 H   0  0  0  0  0  0  0  0  0  0  0  0
   33.3458  -62.6342   28.7734 H   0  0  0  0  0  0  0  0  0  0  0  0
   32.9625  -60.0200   26.2369 H   0  0  0  0  0  0  0  0  0  0  0  0
   33.0239  -60.2120   27.9923 H   0  0  0  0  0  0  0  0  0  0  0  0
   31.9367  -61.1992   27.0409 H   0  0  0  0  0  0  0  0  0  0  0  0
   34.9524  -61.2175   26.7206 H   0  0  0  0  0  0  0  0  0  0  0  0
   32.9107  -63.2641   25.7700 H   0  0  0  0  0  0  0  0  0  0  0  0
   34.6457  -63.3051   25.5004 H   0  0  0  0  0  0  0  0  0  0  0  0
   33.6637  -62.0250   24.7698 H   0  0  0  0  0  0  0  0  0  0  0  0
   39.0651  -61.4156   26.9940 H   0  0  0  0  0  0  0  0  0  0  0  0
   37.8770  -58.6124   26.8172 H   0  0  0  0  0  0  0  0  0  0  0  0
   36.8024  -60.1995   25.3720 H   0  0  0  0  0  0  0  0  0  0  0  0
   36.9118  -61.9107   25.7029 H   0  0  0  0  0  0  0  0  0  0  0  0
   37.6010  -61.5623   23.5253 H   0  0  0  0  0  0  0  0  0  0  0  0
   38.9996  -63.3294   24.3402 H   0  0  0  0  0  0  0  0  0  0  0  0
   40.0078  -62.2196   25.2396 H   0  0  0  0  0  0  0  0  0  0  0  0
   39.8845  -62.5085   22.2030 H   0  0  0  0  0  0  0  0  0  0  0  0
   41.3056  -62.2515   23.2297 H   0  0  0  0  0  0  0  0  0  0  0  0
  1  2  2  0
  1  3  1  0
  3 22  1  0
  3  4  1  0
  5  6  1  0
  5  1  1  0
  5 38  1  1
  6  7  1  0
  6  9  1  0
  7  8  2  0
  7 10  1  0
 10 11  1  0
 11 12  1  0
 11 39  1  0
 11 40  1  0
 12 13  2  0
 13 14  1  0
 13 41  1  0
 14 15  2  0
 14 42  1  0
 15 16  1  0
 15 43  1  0
 16 17  2  0
 16 44  1  0
 17 12  1  0
 17 45  1  0
 18  5  1  0
 18 46  1  0
 18 47  1  0
 19 20  1  0
 19 48  1  0
 19 49  1  0
 19 50  1  0
 20 21  1  0
 20 18  1  0
 20 51  1  0
 21 52  1  0
 21 53  1  0
 21 54  1  0
 22 30  1  0
 22 23  1  0
 22 55  1  1
 23 24  1  0
 23 26  1  0
 23 56  1  6
 24 25  1  0
 26 27  2  0
 26 28  2  0
 26 29  1  0
 30 31  1  0
 30 57  1  0
 30 58  1  0
 31 32  1  0
 31 59  1  6
 32 33  1  0
 32 60  1  0
 32 61  1  0
 33 34  1  0
 33 62  1  0
 33 63  1  0
 34 35  1  0
 34 37  1  0
 35 36  2  0
 35 31  1  0
M  CHG  1  29  -1
M  END
>  <minimizedAffinity>  (8) 
-7.15286

>  <mol_id>  (8) 
72398

>  <source_index>  (8) 
7

>  <layer>  (8) 
L1

>  <uniprot>  (8) 
P0C6U8

>  <paff>  (8) 
7.3010000000000002

>  <smiles>  (8) 
CC(C)C[C@H](NC(=O)OCc1ccccc1)C(=O)N[C@@H](C[C@@H]1CCNC1=O)C(O)S([O-])(=O)=O

>  <aimnet_interaction_kcal_mol>  (8) 
-8.7614706723112334

$$$$
L1:P0C6U8:85332
     RDKit          3D

 60 64  0  0  0  0  0  0  0  0999 V2000
   35.9654  -64.3980   34.4345 C   0  0  0  0  0  0  0  0  0  0  0  0
   35.7618  -62.9957   33.9276 C   0  0  0  0  0  0  0  0  0  0  0  0
   34.8280  -62.1421   34.7423 C   0  0  0  0  0  0  0  0  0  0  0  0
   36.9479  -62.3832   33.2506 C   0  0  2  0  0  0  0  0  0  0  0  0
   37.0082  -60.8862   33.1445 C   0  0  2  0  0  0  0  0  0  0  0  0
   35.8399  -60.5549   32.3119 N   0  0  0  0  0  0  0  0  0  0  0  0
   35.4115  -59.2835   32.1938 C   0  0  0  0  0  0  0  0  0  0  0  0
   36.0476  -58.3436   32.6800 O   0  0  0  0  0  0  0  0  0  0  0  0
   35.1144  -61.7234   31.7875 C   0  0  0  0  0  0  0  0  0  0  0  0
   35.8004  -62.8827   32.4319 C   0  0  2  0  0  0  0  0  0  0  0  0
   34.1733  -59.0776   31.3896 C   0  0  0  0  0  0  0  0  0  0  0  0
   32.8640  -59.3963   31.6470 C   0  0  0  0  0  0  0  0  0  0  0  0
   32.0789  -58.9499   30.5417 C   0  0  0  0  0  0  0  0  0  0  0  0
   30.7134  -58.9652   30.2363 C   0  0  0  0  0  0  0  0  0  0  0  0
   30.2942  -58.4093   29.0436 C   0  0  0  0  0  0  0  0  0  0  0  0
   31.2014  -57.8250   28.1454 C   0  0  0  0  0  0  0  0  0  0  0  0
   32.5531  -57.7857   28.4209 C   0  0  0  0  0  0  0  0  0  0  0  0
   32.9739  -58.3466   29.6212 C   0  0  0  0  0  0  0  0  0  0  0  0
   34.2346  -58.4583   30.1512 N   0  0  0  0  0  0  0  0  0  0  0  0
   35.0289  -57.9371   29.8211 H   0  0  0  0  0  0  0  0  0  0  0  0
   38.3746  -60.4615   32.5925 C   0  0  0  0  0  0  0  0  0  0  0  0
   39.3910  -61.0801   32.9014 O   0  0  0  0  0  0  0  0  0  0  0  0
   38.3722  -59.3910   31.7708 N   0  0  0  0  0  0  0  0  0  0  0  0
   37.6664  -58.6712   31.8801 H   0  0  0  0  0  0  0  0  0  0  0  0
   39.5530  -59.0684   31.0258 C   0  0  2  0  0  0  0  0  0  0  0  0
   39.4803  -57.5973   30.7104 C   0  0  0  0  0  0  0  0  0  0  0  0
   38.4351  -57.0073   30.5568 O   0  0  0  0  0  0  0  0  0  0  0  0
   39.6562  -60.0034   29.8059 C   0  0  0  0  0  0  0  0  0  0  0  0
   38.6530  -59.7206   28.6842 C   0  0  2  0  0  0  0  0  0  0  0  0
   38.1031  -60.9661   27.9799 C   0  0  0  0  0  0  0  0  0  0  0  0
   38.0151  -60.5914   26.4937 C   0  0  0  0  0  0  0  0  0  0  0  0
   38.8880  -59.4282   26.3969 N   0  0  0  0  0  0  0  0  0  0  0  0
   39.2845  -58.9206   27.5647 C   0  0  0  0  0  0  0  0  0  0  0  0
   40.0627  -57.9646   27.7093 O   0  0  0  0  0  0  0  0  0  0  0  0
   39.1472  -59.0040   25.5176 H   0  0  0  0  0  0  0  0  0  0  0  0
   36.2930  -64.4135   35.4743 H   0  0  0  0  0  0  0  0  0  0  0  0
   36.7220  -64.9122   33.8445 H   0  0  0  0  0  0  0  0  0  0  0  0
   35.0498  -64.9809   34.3480 H   0  0  0  0  0  0  0  0  0  0  0  0
   35.1037  -62.1523   35.7983 H   0  0  0  0  0  0  0  0  0  0  0  0
   33.7974  -62.4820   34.6539 H   0  0  0  0  0  0  0  0  0  0  0  0
   34.8320  -61.1058   34.4274 H   0  0  0  0  0  0  0  0  0  0  0  0
   37.8921  -62.9012   33.2910 H   0  0  0  0  0  0  0  0  0  0  0  0
   36.9027  -60.3942   34.1109 H   0  0  0  0  0  0  0  0  0  0  0  0
   35.1819  -61.7649   30.6975 H   0  0  0  0  0  0  0  0  0  0  0  0
   34.0600  -61.6602   32.0421 H   0  0  0  0  0  0  0  0  0  0  0  0
   35.8508  -63.8049   31.8697 H   0  0  0  0  0  0  0  0  0  0  0  0
   32.4875  -59.8148   32.5643 H   0  0  0  0  0  0  0  0  0  0  0  0
   29.9963  -59.3898   30.9272 H   0  0  0  0  0  0  0  0  0  0  0  0
   29.2484  -58.4150   28.7841 H   0  0  0  0  0  0  0  0  0  0  0  0
   30.8278  -57.3836   27.2289 H   0  0  0  0  0  0  0  0  0  0  0  0
   33.2598  -57.3136   27.7528 H   0  0  0  0  0  0  0  0  0  0  0  0
   40.4319  -59.2456   31.6530 H   0  0  0  0  0  0  0  0  0  0  0  0
   40.4338  -57.0543   30.6533 H   0  0  0  0  0  0  0  0  0  0  0  0
   39.5020  -61.0098   30.1871 H   0  0  0  0  0  0  0  0  0  0  0  0
   40.6737  -60.0020   29.4151 H   0  0  0  0  0  0  0  0  0  0  0  0
   37.8408  -59.1134   29.0881 H   0  0  0  0  0  0  0  0  0  0  0  0
   37.1417  -61.2726   28.3842 H   0  0  0  0  0  0  0  0  0  0  0  0
   38.8005  -61.7899   28.0987 H   0  0  0  0  0  0  0  0  0  0  0  0
   37.0033  -60.3258   26.1810 H   0  0  0  0  0  0  0  0  0  0  0  0
   38.3775  -61.3832   25.8424 H   0  0  0  0  0  0  0  0  0  0  0  0
  1  2  1  0
  1 36  1  0
  1 37  1  0
  1 38  1  0
  2  3  1  0
  2  4  1  0
  3 39  1  0
  3 40  1  0
  3 41  1  0
  4  5  1  0
  4 42  1  6
  5 21  1  0
  5  6  1  0
  5 43  1  1
  6  7  1  0
  6  9  1  0
  7  8  2  0
  7 11  1  0
  9 10  1  0
  9 44  1  0
  9 45  1  0
 10  2  1  0
 10  4  1  0
 10 46  1  6
 11 12  2  0
 12 13  1  0
 12 47  1  0
 13 14  2  0
 14 15  1  0
 14 48  1  0
 15 16  2  0
 15 49  1  0
 16 17  1  0
 16 50  1  0
 17 18  2  0
 17 51  1  0
 18 19  1  0
 18 13  1  0
 19 11  1  0
 19 20  1  0
 21 22  2  0
 21 23  1  0
 23 25  1  0
 23 24  1  0
 25 26  1  0
 25 28  1  0
 25 52  1  1
 26 27  2  0
 26 53  1  0
 28 29  1  0
 28 54  1  0
 28 55  1  0
 29 30  1  0
 29 56  1  1
 30 31  1  0
 30 57  1  0
 30 58  1  0
 31 32  1  0
 31 59  1  0
 31 60  1  0
 32 33  1  0
 32 35  1  0
 33 34  2  0
 33 29  1  0
M  END
>  <minimizedAffinity>  (9) 
-8.76800

>  <mol_id>  (9) 
85332

>  <source_index>  (9) 
8

>  <layer>  (9) 
L1

>  <uniprot>  (9) 
P0C6U8

>  <paff>  (9) 
7.2839999999999998

>  <smiles>  (9) 
CC1(C)[C@@H]2[C@@H](C(=O)N[C@H](C=O)C[C@@H]3CCNC3=O)N(C(=O)c3cc4ccccc4[nH]3)C[C@@H]21

>  <aimnet_interaction_kcal_mol>  (9) 
-59.648308822317944

$$$$
L1:P0C6U8:93662
     RDKit          3D

 65 68  0  0  0  0  0  0  0  0999 V2000
   34.8892  -59.8551   28.0096 C   0  0  1  0  0  0  0  0  0  0  0  0
   37.1028  -59.7591   27.0575 N   0  0  0  0  0  0  0  0  0  0  0  0
   36.3999  -59.9903   28.1799 C   0  0  0  0  0  0  0  0  0  0  0  0
   36.9473  -60.2702   29.2442 O   0  0  0  0  0  0  0  0  0  0  0  0
   36.6146  -59.6277   26.1854 H   0  0  0  0  0  0  0  0  0  0  0  0
   38.5371  -59.9414   27.0707 C   0  0  2  0  0  0  0  0  0  0  0  0
   40.1792  -59.4043   28.7578 O   0  0  0  0  0  0  0  0  0  0  0  0
   39.0849  -59.2076   28.2659 C   0  0  0  0  0  0  0  0  0  0  0  0
   39.1542  -59.3858   25.8042 C   0  0  0  0  0  0  0  0  0  0  0  0
   38.6731  -60.0674   24.5435 C   0  0  2  0  0  0  0  0  0  0  0  0
   38.8205  -61.5899   24.4897 C   0  0  0  0  0  0  0  0  0  0  0  0
   39.1150  -61.8820   23.0154 C   0  0  0  0  0  0  0  0  0  0  0  0
   39.7074  -60.6427   22.5496 N   0  0  0  0  0  0  0  0  0  0  0  0
   39.4849  -59.5868   23.3534 C   0  0  0  0  0  0  0  0  0  0  0  0
   39.8576  -58.4259   23.2113 O   0  0  0  0  0  0  0  0  0  0  0  0
   39.8257  -60.5161   21.5422 H   0  0  0  0  0  0  0  0  0  0  0  0
   34.3882  -60.9476   27.1905 N   0  0  0  0  0  0  0  0  0  0  0  0
   34.2743  -60.8945   25.8411 C   0  0  0  0  0  0  0  0  0  0  0  0
   34.7736  -59.9799   25.1656 O   0  0  0  0  0  0  0  0  0  0  0  0
   33.9996  -61.7399   27.6742 H   0  0  0  0  0  0  0  0  0  0  0  0
   33.5022  -61.9936   25.2407 C   0  0  0  0  0  0  0  0  0  0  0  0
   33.3513  -63.2818   25.7095 C   0  0  0  0  0  0  0  0  0  0  0  0
   32.3344  -63.8969   24.9358 C   0  0  0  0  0  0  0  0  0  0  0  0
   31.7351  -65.1605   24.9335 C   0  0  0  0  0  0  0  0  0  0  0  0
   30.6509  -65.3864   24.1100 C   0  0  0  0  0  0  0  0  0  0  0  0
   30.1472  -64.3727   23.2770 C   0  0  0  0  0  0  0  0  0  0  0  0
   30.7520  -63.1337   23.2159 C   0  0  0  0  0  0  0  0  0  0  0  0
   31.8711  -62.9161   24.0146 C   0  0  0  0  0  0  0  0  0  0  0  0
   32.6194  -61.7830   24.1936 N   0  0  0  0  0  0  0  0  0  0  0  0
   32.8015  -61.1176   23.4398 H   0  0  0  0  0  0  0  0  0  0  0  0
   34.2110  -59.7787   29.3611 C   0  0  0  0  0  0  0  0  0  0  0  0
   32.6930  -59.7012   29.3225 C   0  0  0  0  0  0  0  0  0  0  0  0
   32.1532  -58.7276   28.2851 C   0  0  0  0  0  0  0  0  0  0  0  0
   30.6416  -58.6282   28.3428 C   0  0  0  0  0  0  0  0  0  0  0  0
   30.1776  -58.2292   29.7295 C   0  0  0  0  0  0  0  0  0  0  0  0
   30.6802  -59.2038   30.7758 C   0  0  0  0  0  0  0  0  0  0  0  0
   32.1871  -59.3406   30.7127 C   0  0  0  0  0  0  0  0  0  0  0  0
   34.7022  -58.9353   27.4531 H   0  0  0  0  0  0  0  0  0  0  0  0
   38.7845  -60.9991   27.1946 H   0  0  0  0  0  0  0  0  0  0  0  0
   38.4402  -58.4014   28.6510 H   0  0  0  0  0  0  0  0  0  0  0  0
   40.2359  -59.4879   25.8682 H   0  0  0  0  0  0  0  0  0  0  0  0
   38.9650  -58.3127   25.7331 H   0  0  0  0  0  0  0  0  0  0  0  0
   37.6422  -59.7781   24.3319 H   0  0  0  0  0  0  0  0  0  0  0  0
   37.9463  -62.1245   24.8565 H   0  0  0  0  0  0  0  0  0  0  0  0
   39.6683  -61.8907   25.1020 H   0  0  0  0  0  0  0  0  0  0  0  0
   38.2147  -62.1177   22.4432 H   0  0  0  0  0  0  0  0  0  0  0  0
   39.8098  -62.7115   22.8729 H   0  0  0  0  0  0  0  0  0  0  0  0
   33.9095  -63.7404   26.5099 H   0  0  0  0  0  0  0  0  0  0  0  0
   32.1173  -65.9412   25.5765 H   0  0  0  0  0  0  0  0  0  0  0  0
   30.1742  -66.3584   24.1004 H   0  0  0  0  0  0  0  0  0  0  0  0
   29.2469  -64.5570   22.7052 H   0  0  0  0  0  0  0  0  0  0  0  0
   30.3506  -62.3465   22.5948 H   0  0  0  0  0  0  0  0  0  0  0  0
   34.6038  -58.8972   29.8671 H   0  0  0  0  0  0  0  0  0  0  0  0
   34.5277  -60.6270   29.9673 H   0  0  0  0  0  0  0  0  0  0  0  0
   32.3013  -60.6931   29.0626 H   0  0  0  0  0  0  0  0  0  0  0  0
   32.4576  -59.0137   27.2818 H   0  0  0  0  0  0  0  0  0  0  0  0
   32.5961  -57.7457   28.4654 H   0  0  0  0  0  0  0  0  0  0  0  0
   30.2087  -59.5956   28.0824 H   0  0  0  0  0  0  0  0  0  0  0  0
   30.2755  -57.9301   27.5958 H   0  0  0  0  0  0  0  0  0  0  0  0
   29.1013  -58.1570   29.7887 H   0  0  0  0  0  0  0  0  0  0  0  0
   30.5605  -57.2344   29.9559 H   0  0  0  0  0  0  0  0  0  0  0  0
   30.2071  -60.1725   30.6097 H   0  0  0  0  0  0  0  0  0  0  0  0
   30.3752  -58.8863   31.7717 H   0  0  0  0  0  0  0  0  0  0  0  0
   32.5411  -60.0744   31.4371 H   0  0  0  0  0  0  0  0  0  0  0  0
   32.6341  -58.3898   31.0063 H   0  0  0  0  0  0  0  0  0  0  0  0
  1 31  1  0
  1 17  1  0
  1 38  1  6
  2  3  1  0
  2  5  1  0
  3  4  2  0
  3  1  1  0
  6  9  1  0
  6  2  1  0
  6 39  1  1
  7  8  2  0
  8  6  1  0
  8 40  1  0
  9 10  1  0
  9 41  1  0
  9 42  1  0
 10 11  1  0
 10 43  1  6
 11 12  1  0
 11 44  1  0
 11 45  1  0
 12 13  1  0
 12 46  1  0
 12 47  1  0
 13 14  1  0
 13 16  1  0
 14 15  2  0
 14 10  1  0
 17 18  1  0
 17 20  1  0
 18 19  2  0
 18 21  1  0
 21 22  2  0
 22 23  1  0
 22 48  1  0
 23 24  2  0
 24 25  1  0
 24 49  1  0
 25 26  2  0
 25 50  1  0
 26 27  1  0
 26 51  1  0
 27 28  2  0
 27 52  1  0
 28 29  1  0
 28 23  1  0
 29 21  1  0
 29 30  1  0
 31 32  1  0
 31 53  1  0
 31 54  1  0
 32 33  1  0
 32 55  1  0
 33 34  1  0
 33 56  1  0
 33 57  1  0
 34 35  1  0
 34 58  1  0
 34 59  1  0
 35 36  1  0
 35 60  1  0
 35 61  1  0
 36 37  1  0
 36 62  1  0
 36 63  1  0
 37 32  1  0
 37 64  1  0
 37 65  1  0
M  END
>  <minimizedAffinity>  (10) 
-8.41051

>  <mol_id>  (10) 
93662

>  <source_index>  (10) 
9

>  <layer>  (10) 
L1

>  <uniprot>  (10) 
P0C6U8

>  <paff>  (10) 
7.2756999999999996

>  <smiles>  (10) 
O=C[C@H](C[C@@H]1CCNC1=O)NC(=O)[C@H](CC1CCCCC1)NC(=O)c1cc2ccccc2[nH]1

>  <aimnet_interaction_kcal_mol>  (10) 
-73.701590202407402

$$$$
