L1:P0C6U8:20305
     RDKit          3D

 76 77  0  0  0  0  0  0  0  0999 V2000
   37.6132  -60.2767   26.8312 C   0  0  2  0  0  0  0  0  0  0  0  0
   39.4966  -59.4901   28.2218 C   0  0  0  0  0  0  0  0  0  0  0  0
   39.7479  -58.5075   27.5411 O   0  0  0  0  0  0  0  0  0  0  0  0
   38.5145  -60.3878   27.9599 N   0  0  0  0  0  0  0  0  0  0  0  0
   38.3780  -61.1411   28.6252 H   0  0  0  0  0  0  0  0  0  0  0  0
   40.1454  -59.8554   29.3514 O   0  0  0  0  0  0  0  0  0  0  0  0
   39.4872  -60.8830   30.1061 C   0  0  0  0  0  0  0  0  0  0  0  0
   36.1113  -60.3067   31.8142 C   0  0  1  0  0  0  0  0  0  0  0  0
   36.8446  -59.2880   30.9220 C   0  0  0  0  0  0  0  0  0  0  0  0
   38.2869  -59.0347   31.3641 C   0  0  0  0  0  0  0  0  0  0  0  0
   39.1112  -60.3240   31.4899 C   0  0  1  0  0  0  0  0  0  0  0  0
   38.3770  -61.3579   32.3619 C   0  0  0  0  0  0  0  0  0  0  0  0
   36.9363  -61.6009   31.9107 C   0  0  0  0  0  0  0  0  0  0  0  0
   35.7644  -59.6822   33.1858 C   0  0  0  0  0  0  0  0  0  0  0  0
   34.2729  -59.7621   33.5323 C   0  0  0  0  0  0  0  0  0  0  0  0
   35.0525  -61.5946   35.1336 C   0  0  0  0  0  0  0  0  0  0  0  0
   33.9019  -61.0218   34.3206 C   0  0  0  0  0  0  0  0  0  0  0  0
   36.2304  -60.8311   27.2302 C   0  0  0  0  0  0  0  0  0  0  0  0
   36.0860  -61.6922   28.0958 O   0  0  0  0  0  0  0  0  0  0  0  0
   35.1632  -60.2851   26.5480 N   0  0  0  0  0  0  0  0  0  0  0  0
   35.3340  -59.5876   25.8322 H   0  0  0  0  0  0  0  0  0  0  0  0
   33.7829  -60.7088   26.8143 C   0  0  2  0  0  0  0  0  0  0  0  0
   33.1387  -60.9617   25.4552 C   0  0  0  0  0  0  0  0  0  0  0  0
   32.1594  -61.6821   25.2850 O   0  0  0  0  0  0  0  0  0  0  0  0
   33.0846  -59.6009   27.6143 C   0  0  0  0  0  0  0  0  0  0  0  0
   31.7813  -59.9376   28.3473 C   0  0  2  0  0  0  0  0  0  0  0  0
   30.6389  -58.9208   28.2517 C   0  0  0  0  0  0  0  0  0  0  0  0
   30.5773  -58.2617   29.6175 C   0  0  0  0  0  0  0  0  0  0  0  0
   31.1908  -59.2111   30.4923 N   0  0  0  0  0  0  0  0  0  0  0  0
   31.9729  -60.1282   29.8335 C   0  0  0  0  0  0  0  0  0  0  0  0
   32.7094  -60.9470   30.3554 O   0  0  0  0  0  0  0  0  0  0  0  0
   31.2529  -59.1208   31.4994 H   0  0  0  0  0  0  0  0  0  0  0  0
   38.1744  -60.9047   25.5411 C   0  0  0  0  0  0  0  0  0  0  0  0
   38.2325  -60.0060   24.2858 C   0  0  0  0  0  0  0  0  0  0  0  0
   37.8373  -58.5561   24.5577 C   0  0  0  0  0  0  0  0  0  0  0  0
   39.6490  -60.0444   23.7002 C   0  0  0  0  0  0  0  0  0  0  0  0
   37.5030  -59.2412   26.5852 H   0  0  0  0  0  0  0  0  0  0  0  0
   38.6019  -61.1945   29.5922 H   0  0  0  0  0  0  0  0  0  0  0  0
   40.1403  -61.7228   30.2203 H   0  0  0  0  0  0  0  0  0  0  0  0
   35.1733  -60.5729   31.3736 H   0  0  0  0  0  0  0  0  0  0  0  0
   36.3108  -58.3612   30.9531 H   0  0  0  0  0  0  0  0  0  0  0  0
   36.8801  -59.6959   29.9334 H   0  0  0  0  0  0  0  0  0  0  0  0
   38.2709  -58.5460   32.3159 H   0  0  0  0  0  0  0  0  0  0  0  0
   38.7506  -58.4305   30.6125 H   0  0  0  0  0  0  0  0  0  0  0  0
   40.0306  -60.0906   31.9850 H   0  0  0  0  0  0  0  0  0  0  0  0
   38.3635  -61.0048   33.3719 H   0  0  0  0  0  0  0  0  0  0  0  0
   38.9026  -62.2855   32.2715 H   0  0  0  0  0  0  0  0  0  0  0  0
   36.4643  -62.2547   32.6140 H   0  0  0  0  0  0  0  0  0  0  0  0
   36.9753  -62.0297   30.9312 H   0  0  0  0  0  0  0  0  0  0  0  0
   36.3165  -60.1988   33.9429 H   0  0  0  0  0  0  0  0  0  0  0  0
   36.0213  -58.6448   33.1342 H   0  0  0  0  0  0  0  0  0  0  0  0
   34.0139  -58.9055   34.1189 H   0  0  0  0  0  0  0  0  0  0  0  0
   33.7338  -59.7954   32.6086 H   0  0  0  0  0  0  0  0  0  0  0  0
   34.7208  -62.4683   35.6547 H   0  0  0  0  0  0  0  0  0  0  0  0
   35.3886  -60.8643   35.8397 H   0  0  0  0  0  0  0  0  0  0  0  0
   35.8576  -61.8542   34.4784 H   0  0  0  0  0  0  0  0  0  0  0  0
   33.1034  -60.7786   34.9900 H   0  0  0  0  0  0  0  0  0  0  0  0
   33.6223  -61.7673   33.6058 H   0  0  0  0  0  0  0  0  0  0  0  0
   33.7165  -61.6032   27.3979 H   0  0  0  0  0  0  0  0  0  0  0  0
   33.5506  -60.4997   24.6294 H   0  0  0  0  0  0  0  0  0  0  0  0
   32.8663  -58.8074   26.9305 H   0  0  0  0  0  0  0  0  0  0  0  0
   33.7743  -59.3707   28.3993 H   0  0  0  0  0  0  0  0  0  0  0  0
   31.5081  -60.8304   27.8246 H   0  0  0  0  0  0  0  0  0  0  0  0
   29.7153  -59.4138   28.0310 H   0  0  0  0  0  0  0  0  0  0  0  0
   30.8024  -58.2079   27.4707 H   0  0  0  0  0  0  0  0  0  0  0  0
   29.5630  -58.0799   29.9059 H   0  0  0  0  0  0  0  0  0  0  0  0
   31.0670  -57.3105   29.6363 H   0  0  0  0  0  0  0  0  0  0  0  0
   37.5643  -61.7509   25.3032 H   0  0  0  0  0  0  0  0  0  0  0  0
   39.1958  -61.1307   25.7660 H   0  0  0  0  0  0  0  0  0  0  0  0
   37.5174  -60.3965   23.5922 H   0  0  0  0  0  0  0  0  0  0  0  0
   38.5280  -58.1220   25.2501 H   0  0  0  0  0  0  0  0  0  0  0  0
   36.8512  -58.5269   24.9719 H   0  0  0  0  0  0  0  0  0  0  0  0
   37.8558  -58.0036   23.6416 H   0  0  0  0  0  0  0  0  0  0  0  0
   40.3409  -59.6489   24.4141 H   0  0  0  0  0  0  0  0  0  0  0  0
   39.6819  -59.4555   22.8074 H   0  0  0  0  0  0  0  0  0  0  0  0
   39.9126  -61.0556   23.4704 H   0  0  0  0  0  0  0  0  0  0  0  0
  1 33  1  0
  1 18  1  0
  1 37  1  6
  2  3  2  0
  2  4  1  0
  4  1  1  0
  4  5  1  0
  6  2  1  0
  7  6  1  0
  7 38  1  0
  7 39  1  0
  8  9  1  0
  8 40  1  6
  9 10  1  0
  9 41  1  0
  9 42  1  0
 10 11  1  0
 10 43  1  0
 10 44  1  0
 11  7  1  0
 11 12  1  0
 11 45  1  1
 12 13  1  0
 12 46  1  0
 12 47  1  0
 13  8  1  0
 13 48  1  0
 13 49  1  0
 14  8  1  0
 14 50  1  0
 14 51  1  0
 15 14  1  0
 15 52  1  0
 15 53  1  0
 16 17  1  0
 16 54  1  0
 16 55  1  0
 16 56  1  0
 17 15  1  0
 17 57  1  0
 17 58  1  0
 18 19  2  0
 18 20  1  0
 20 22  1  0
 20 21  1  0
 22 23  1  0
 22 25  1  0
 22 59  1  1
 23 24  2  0
 23 60  1  0
 25 26  1  0
 25 61  1  0
 25 62  1  0
 26 27  1  0
 26 63  1  6
 27 28  1  0
 27 64  1  0
 27 65  1  0
 28 29  1  0
 28 66  1  0
 28 67  1  0
 29 30  1  0
 29 32  1  0
 30 31  2  0
 30 26  1  0
 33 34  1  0
 33 68  1  0
 33 69  1  0
 34 35  1  0
 34 36  1  0
 34 70  1  0
 35 71  1  0
 35 72  1  0
 35 73  1  0
 36 74  1  0
 36 75  1  0
 36 76  1  0
M  END
>  <minimizedAffinity>  (1) 
-6.53317

>  <mol_id>  (1) 
20305

>  <source_index>  (1) 
0

>  <layer>  (1) 
L1

>  <uniprot>  (1) 
P0C6U8

>  <paff>  (1) 
6.0457999999999998

>  <smiles>  (1) 
CCCCC1CCC(COC(=O)N[C@@H](CC(C)C)C(=O)N[C@H](C=O)C[C@@H]2CCNC2=O)CC1

$$$$
L1:P0C6U8:20766
     RDKit          3D

 69 73  0  0  0  0  0  0  0  0999 V2000
   35.6465  -59.5366   31.7055 C   0  0  0  0  0  0  0  0  0  0  0  0
   36.0367  -58.4288   32.0789 O   0  0  0  0  0  0  0  0  0  0  0  0
   36.2403  -60.6826   32.2060 N   0  0  0  0  0  0  0  0  0  0  0  0
   35.7805  -62.0577   32.0547 C   0  0  0  0  0  0  0  0  0  0  0  0
   36.5202  -62.8398   33.0939 C   0  0  1  0  0  0  0  0  0  0  0  0
   37.4631  -61.9180   33.7971 C   0  0  1  0  0  0  0  0  0  0  0  0
   37.3133  -60.5396   33.2035 C   0  0  1  0  0  0  0  0  0  0  0  0
   36.3723  -62.6258   34.5924 C   0  0  0  0  0  0  0  0  0  0  0  0
   36.8070  -63.7560   35.4942 C   0  0  0  0  0  0  0  0  0  0  0  0
   35.2022  -61.8477   35.1401 C   0  0  0  0  0  0  0  0  0  0  0  0
   32.4576  -60.2326   27.7638 C   0  0  0  0  0  0  0  0  0  0  0  0
   31.1550  -59.7010   27.5953 C   0  0  0  0  0  0  0  0  0  0  0  0
   30.5555  -58.8954   28.5623 C   0  0  0  0  0  0  0  0  0  0  0  0
   31.2357  -58.5874   29.7319 C   0  0  0  0  0  0  0  0  0  0  0  0
   30.6673  -57.8066   30.6591 F   0  0  0  0  0  0  0  0  0  0  0  0
   32.5169  -59.1003   29.9134 C   0  0  0  0  0  0  0  0  0  0  0  0
   33.3914  -58.9338   30.9562 N   0  0  0  0  0  0  0  0  0  0  0  0
   34.5687  -59.6212   30.7398 C   0  0  0  0  0  0  0  0  0  0  0  0
   34.4262  -60.2254   29.5022 C   0  0  0  0  0  0  0  0  0  0  0  0
   33.1389  -59.9119   28.9694 C   0  0  0  0  0  0  0  0  0  0  0  0
   33.2118  -58.3691   31.7777 H   0  0  0  0  0  0  0  0  0  0  0  0
   34.2517  -60.3952   25.9975 C   0  0  0  0  0  0  0  0  0  0  0  0
   33.0761  -61.1010   26.6766 C   0  0  0  0  0  0  0  0  0  0  0  0
   32.0370  -61.5578   25.6502 C   0  0  0  0  0  0  0  0  0  0  0  0
   38.6391  -60.0313   32.5855 C   0  0  0  0  0  0  0  0  0  0  0  0
   39.6885  -59.9884   33.2264 O   0  0  0  0  0  0  0  0  0  0  0  0
   38.5942  -59.7244   31.2401 N   0  0  0  0  0  0  0  0  0  0  0  0
   37.7066  -59.8789   30.7621 H   0  0  0  0  0  0  0  0  0  0  0  0
   39.7417  -59.1715   30.5340 C   0  0  2  0  0  0  0  0  0  0  0  0
   39.7399  -57.6523   30.6492 C   0  0  0  0  0  0  0  0  0  0  0  0
   38.7527  -56.9931   30.9705 O   0  0  0  0  0  0  0  0  0  0  0  0
   39.9028  -59.6969   29.0977 C   0  0  0  0  0  0  0  0  0  0  0  0
   38.9598  -59.2236   27.9796 C   0  0  2  0  0  0  0  0  0  0  0  0
   38.1834  -60.3036   27.2150 C   0  0  0  0  0  0  0  0  0  0  0  0
   38.7910  -60.3481   25.8254 C   0  0  0  0  0  0  0  0  0  0  0  0
   39.4753  -59.0987   25.6950 N   0  0  0  0  0  0  0  0  0  0  0  0
   39.6446  -58.4446   26.8878 C   0  0  0  0  0  0  0  0  0  0  0  0
   40.3076  -57.4328   27.0467 O   0  0  0  0  0  0  0  0  0  0  0  0
   39.8869  -58.7481   24.8364 H   0  0  0  0  0  0  0  0  0  0  0  0
   36.0106  -62.4240   31.0760 H   0  0  0  0  0  0  0  0  0  0  0  0
   34.7204  -62.1386   32.1750 H   0  0  0  0  0  0  0  0  0  0  0  0
   36.4920  -63.7592   32.5472 H   0  0  0  0  0  0  0  0  0  0  0  0
   38.4978  -61.7983   34.0421 H   0  0  0  0  0  0  0  0  0  0  0  0
   37.0690  -59.8032   33.9403 H   0  0  0  0  0  0  0  0  0  0  0  0
   36.6510  -63.4775   36.5155 H   0  0  0  0  0  0  0  0  0  0  0  0
   37.8451  -63.9604   35.3348 H   0  0  0  0  0  0  0  0  0  0  0  0
   36.2329  -64.6310   35.2714 H   0  0  0  0  0  0  0  0  0  0  0  0
   35.2707  -61.8043   36.2070 H   0  0  0  0  0  0  0  0  0  0  0  0
   34.2898  -62.3318   34.8607 H   0  0  0  0  0  0  0  0  0  0  0  0
   35.2159  -60.8549   34.7412 H   0  0  0  0  0  0  0  0  0  0  0  0
   30.6344  -59.9167   26.7307 H   0  0  0  0  0  0  0  0  0  0  0  0
   29.6038  -58.5273   28.4080 H   0  0  0  0  0  0  0  0  0  0  0  0
   35.1383  -60.8104   29.0378 H   0  0  0  0  0  0  0  0  0  0  0  0
   34.6613  -61.0318   25.2413 H   0  0  0  0  0  0  0  0  0  0  0  0
   35.0047  -60.1758   26.7254 H   0  0  0  0  0  0  0  0  0  0  0  0
   33.9112  -59.4844   25.5510 H   0  0  0  0  0  0  0  0  0  0  0  0
   33.4556  -61.9789   27.1563 H   0  0  0  0  0  0  0  0  0  0  0  0
   31.6329  -60.7040   25.1476 H   0  0  0  0  0  0  0  0  0  0  0  0
   31.2499  -62.0835   26.1492 H   0  0  0  0  0  0  0  0  0  0  0  0
   32.5016  -62.2052   24.9362 H   0  0  0  0  0  0  0  0  0  0  0  0
   40.6271  -59.5284   31.0173 H   0  0  0  0  0  0  0  0  0  0  0  0
   40.6169  -57.1478   30.4461 H   0  0  0  0  0  0  0  0  0  0  0  0
   39.8065  -60.7613   29.1488 H   0  0  0  0  0  0  0  0  0  0  0  0
   40.8479  -59.2931   28.8001 H   0  0  0  0  0  0  0  0  0  0  0  0
   38.2901  -58.6344   28.5706 H   0  0  0  0  0  0  0  0  0  0  0  0
   37.1461  -60.0472   27.1595 H   0  0  0  0  0  0  0  0  0  0  0  0
   38.2488  -61.2537   27.7028 H   0  0  0  0  0  0  0  0  0  0  0  0
   38.0276  -60.4410   25.0814 H   0  0  0  0  0  0  0  0  0  0  0  0
   39.4434  -61.1857   25.6926 H   0  0  0  0  0  0  0  0  0  0  0  0
  1  2  2  0
  1  3  1  0
  3  4  1  0
  4  5  1  0
  4 40  1  0
  4 41  1  0
  5  6  1  0
  5 42  1  1
  6  7  1  0
  6  8  1  0
  6 43  1  1
  7 25  1  0
  7  3  1  0
  7 44  1  1
  8  9  1  0
  8 10  1  0
  8  5  1  0
  9 45  1  0
  9 46  1  0
  9 47  1  0
 10 48  1  0
 10 49  1  0
 10 50  1  0
 11 12  2  0
 12 13  1  0
 12 51  1  0
 13 14  2  0
 13 52  1  0
 14 15  1  0
 14 16  1  0
 16 17  1  0
 17 18  1  0
 17 21  1  0
 18  1  1  0
 18 19  2  0
 19 20  1  0
 19 53  1  0
 20 11  1  0
 20 16  2  0
 22 23  1  0
 22 54  1  0
 22 55  1  0
 22 56  1  0
 23 24  1  0
 23 11  1  0
 23 57  1  0
 24 58  1  0
 24 59  1  0
 24 60  1  0
 25 26  2  0
 25 27  1  0
 27 29  1  0
 27 28  1  0
 29 30  1  0
 29 32  1  0
 29 61  1  1
 30 31  2  0
 30 62  1  0
 32 33  1  0
 32 63  1  0
 32 64  1  0
 33 34  1  0
 33 65  1  1
 34 35  1  0
 34 66  1  0
 34 67  1  0
 35 36  1  0
 35 68  1  0
 35 69  1  0
 36 37  1  0
 36 39  1  0
 37 38  2  0
 37 33  1  0
M  END
>  <minimizedAffinity>  (2) 
-9.00076

>  <mol_id>  (2) 
20766

>  <source_index>  (2) 
1

>  <layer>  (2) 
L1

>  <uniprot>  (2) 
P0C6U8

>  <paff>  (2) 
7.5228999999999999

>  <smiles>  (2) 
CC(C)c1ccc(F)c2[nH]c(C(=O)N3C[C@H]4[C@@H]([C@H]3C(=O)N[C@H](C=O)C[C@@H]3CCNC3=O)C4(C)C)cc12

$$$$
L1:P0C6U8:34868
     RDKit          3D

 65 68  0  0  0  0  0  0  0  0999 V2000
   34.9088  -59.1962   27.4398 C   0  0  1  0  0  0  0  0  0  0  0  0
   37.3501  -59.3011   27.3067 N   0  0  0  0  0  0  0  0  0  0  0  0
   36.2279  -59.8718   27.8635 C   0  0  0  0  0  0  0  0  0  0  0  0
   36.2712  -60.8888   28.5518 O   0  0  0  0  0  0  0  0  0  0  0  0
   37.2398  -58.5447   26.6279 H   0  0  0  0  0  0  0  0  0  0  0  0
   38.6930  -59.8282   27.5233 C   0  0  2  0  0  0  0  0  0  0  0  0
   40.2276  -59.5507   29.3892 O   0  0  0  0  0  0  0  0  0  0  0  0
   39.2601  -59.1357   28.7537 C   0  0  0  0  0  0  0  0  0  0  0  0
   39.5647  -59.6020   26.2787 C   0  0  0  0  0  0  0  0  0  0  0  0
   38.9894  -60.0987   24.9528 C   0  0  2  0  0  0  0  0  0  0  0  0
   39.3606  -61.5614   24.6642 C   0  0  0  0  0  0  0  0  0  0  0  0
   39.3197  -61.6495   23.1501 C   0  0  0  0  0  0  0  0  0  0  0  0
   39.6955  -60.3330   22.7332 N   0  0  0  0  0  0  0  0  0  0  0  0
   39.5228  -59.3926   23.7237 C   0  0  0  0  0  0  0  0  0  0  0  0
   39.6970  -58.1938   23.5971 O   0  0  0  0  0  0  0  0  0  0  0  0
   40.0001  -60.0673   21.8042 H   0  0  0  0  0  0  0  0  0  0  0  0
   34.0750  -60.2563   26.8760 N   0  0  0  0  0  0  0  0  0  0  0  0
   34.2777  -60.7278   25.6028 C   0  0  0  0  0  0  0  0  0  0  0  0
   35.1352  -60.2537   24.8622 O   0  0  0  0  0  0  0  0  0  0  0  0
   33.4521  -60.7528   27.4962 H   0  0  0  0  0  0  0  0  0  0  0  0
   33.4408  -61.8347   25.2045 C   0  0  0  0  0  0  0  0  0  0  0  0
   33.4150  -63.1705   25.5688 C   0  0  0  0  0  0  0  0  0  0  0  0
   32.3694  -63.8139   24.8481 C   0  0  0  0  0  0  0  0  0  0  0  0
   31.8792  -65.1330   24.8017 C   0  0  0  0  0  0  0  0  0  0  0  0
   30.8035  -65.4335   23.9578 C   0  0  0  0  0  0  0  0  0  0  0  0
   30.2195  -64.4433   23.1703 C   0  0  0  0  0  0  0  0  0  0  0  0
   30.6898  -63.1269   23.2010 C   0  0  0  0  0  0  0  0  0  0  0  0
   31.7659  -62.8454   24.0503 C   0  0  0  0  0  0  0  0  0  0  0  0
   32.4259  -61.6643   24.2864 N   0  0  0  0  0  0  0  0  0  0  0  0
   32.2102  -60.7765   23.8513 H   0  0  0  0  0  0  0  0  0  0  0  0
   34.1871  -58.5319   28.6196 C   0  0  0  0  0  0  0  0  0  0  0  0
   32.7464  -59.0311   28.8633 C   0  0  0  0  0  0  0  0  0  0  0  0
   31.7463  -57.9931   28.3222 C   0  0  0  0  0  0  0  0  0  0  0  0
   30.2987  -58.4104   28.5651 C   0  0  0  0  0  0  0  0  0  0  0  0
   30.0381  -58.6911   30.0402 C   0  0  0  0  0  0  0  0  0  0  0  0
   31.0141  -59.7248   30.5892 C   0  0  0  0  0  0  0  0  0  0  0  0
   32.4675  -59.3204   30.3475 C   0  0  0  0  0  0  0  0  0  0  0  0
   35.1066  -58.4149   26.7360 H   0  0  0  0  0  0  0  0  0  0  0  0
   38.6715  -60.8853   27.6878 H   0  0  0  0  0  0  0  0  0  0  0  0
   38.8058  -58.2661   29.0739 H   0  0  0  0  0  0  0  0  0  0  0  0
   40.4971  -60.1022   26.4378 H   0  0  0  0  0  0  0  0  0  0  0  0
   39.6466  -58.5401   26.1755 H   0  0  0  0  0  0  0  0  0  0  0  0
   37.9432  -59.9253   25.0949 H   0  0  0  0  0  0  0  0  0  0  0  0
   38.6504  -62.2296   25.1048 H   0  0  0  0  0  0  0  0  0  0  0  0
   40.3115  -61.8363   25.0705 H   0  0  0  0  0  0  0  0  0  0  0  0
   38.3362  -61.8941   22.8069 H   0  0  0  0  0  0  0  0  0  0  0  0
   39.9600  -62.4116   22.7577 H   0  0  0  0  0  0  0  0  0  0  0  0
   34.0468  -63.6230   26.2478 H   0  0  0  0  0  0  0  0  0  0  0  0
   32.3080  -65.8699   25.3832 H   0  0  0  0  0  0  0  0  0  0  0  0
   30.4393  -66.3983   23.9185 H   0  0  0  0  0  0  0  0  0  0  0  0
   29.4274  -64.6854   22.5547 H   0  0  0  0  0  0  0  0  0  0  0  0
   30.2597  -62.3908   22.6194 H   0  0  0  0  0  0  0  0  0  0  0  0
   34.1474  -57.4787   28.4348 H   0  0  0  0  0  0  0  0  0  0  0  0
   34.7458  -58.7868   29.4958 H   0  0  0  0  0  0  0  0  0  0  0  0
   32.6295  -59.9578   28.3412 H   0  0  0  0  0  0  0  0  0  0  0  0
   31.9011  -57.8809   27.2694 H   0  0  0  0  0  0  0  0  0  0  0  0
   31.9151  -57.0718   28.8396 H   0  0  0  0  0  0  0  0  0  0  0  0
   30.0929  -59.2960   28.0010 H   0  0  0  0  0  0  0  0  0  0  0  0
   29.6619  -57.6070   28.2587 H   0  0  0  0  0  0  0  0  0  0  0  0
   29.0400  -59.0597   30.1536 H   0  0  0  0  0  0  0  0  0  0  0  0
   30.1700  -57.7799   30.5853 H   0  0  0  0  0  0  0  0  0  0  0  0
   30.8314  -60.6629   30.1081 H   0  0  0  0  0  0  0  0  0  0  0  0
   30.8612  -59.7971   31.6457 H   0  0  0  0  0  0  0  0  0  0  0  0
   33.1056  -60.1164   30.6700 H   0  0  0  0  0  0  0  0  0  0  0  0
   32.6571  -58.4239   30.9000 H   0  0  0  0  0  0  0  0  0  0  0  0
  1 31  1  0
  1 17  1  0
  1 38  1  6
  2  3  1  0
  2  5  1  0
  3  4  2  0
  3  1  1  0
  6  9  1  0
  6  2  1  0
  6 39  1  1
  7  8  2  0
  8  6  1  0
  8 40  1  0
  9 10  1  0
  9 41  1  0
  9 42  1  0
 10 11  1  0
 10 43  1  1
 11 12  1  0
 11 44  1  0
 11 45  1  0
 12 13  1  0
 12 46  1  0
 12 47  1  0
 13 14  1  0
 13 16  1  0
 14 15  2  0
 14 10  1  0
 17 18  1  0
 17 20  1  0
 18 19  2  0
 18 21  1  0
 21 22  2  0
 22 23  1  0
 22 48  1  0
 23 24  2  0
 24 25  1  0
 24 49  1  0
 25 26  2  0
 25 50  1  0
 26 27  1  0
 26 51  1  0
 27 28  2  0
 27 52  1  0
 28 29  1  0
 28 23  1  0
 29 21  1  0
 29 30  1  0
 31 32  1  0
 31 53  1  0
 31 54  1  0
 32 33  1  0
 32 55  1  0
 33 34  1  0
 33 56  1  0
 33 57  1  0
 34 35  1  0
 34 58  1  0
 34 59  1  0
 35 36  1  0
 35 60  1  0
 35 61  1  0
 36 37  1  0
 36 62  1  0
 36 63  1  0
 37 32  1  0
 37 64  1  0
 37 65  1  0
M  END
>  <minimizedAffinity>  (3) 
-8.41051

>  <mol_id>  (3) 
34868

>  <source_index>  (3) 
2

>  <layer>  (3) 
L1

>  <uniprot>  (3) 
P0C6U8

>  <paff>  (3) 
7.2756999999999996

>  <smiles>  (3) 
O=C[C@H](CC1CCNC1=O)NC(=O)[C@H](CC1CCCCC1)NC(=O)c1cc2ccccc2[nH]1

$$$$
L1:P0C6U8:48138
     RDKit          3D

 59 62  0  0  0  0  0  0  0  0999 V2000
   34.3254  -60.7688   27.5792 C   0  0  1  0  0  0  0  0  0  0  0  0
   36.7113  -60.2244   27.8609 N   0  0  0  0  0  0  0  0  0  0  0  0
   35.7954  -61.2239   27.6191 C   0  0  0  0  0  0  0  0  0  0  0  0
   36.1213  -62.4029   27.4886 O   0  0  0  0  0  0  0  0  0  0  0  0
   36.3773  -59.2878   28.0616 H   0  0  0  0  0  0  0  0  0  0  0  0
   38.1541  -60.4709   27.8833 C   0  0  2  0  0  0  0  0  0  0  0  0
   39.9594  -59.3098   29.0524 O   0  0  0  0  0  0  0  0  0  0  0  0
   38.7611  -59.5673   28.9574 C   0  0  0  0  0  0  0  0  0  0  0  0
   38.7617  -60.2021   26.4983 C   0  0  0  0  0  0  0  0  0  0  0  0
   38.2388  -58.9088   25.8566 C   0  0  2  0  0  0  0  0  0  0  0  0
   37.7026  -59.1345   24.4334 C   0  0  0  0  0  0  0  0  0  0  0  0
   38.9102  -58.9394   23.5368 C   0  0  0  0  0  0  0  0  0  0  0  0
   39.7148  -58.0096   24.2653 N   0  0  0  0  0  0  0  0  0  0  0  0
   39.3836  -57.9479   25.6009 C   0  0  0  0  0  0  0  0  0  0  0  0
   39.9647  -57.2780   26.4356 O   0  0  0  0  0  0  0  0  0  0  0  0
   40.4882  -57.4703   23.8946 H   0  0  0  0  0  0  0  0  0  0  0  0
   33.6284  -61.6726   26.6722 N   0  0  0  0  0  0  0  0  0  0  0  0
   33.4937  -61.4026   25.3362 C   0  0  0  0  0  0  0  0  0  0  0  0
   33.9408  -60.3750   24.8334 O   0  0  0  0  0  0  0  0  0  0  0  0
   33.2619  -62.5325   27.0650 H   0  0  0  0  0  0  0  0  0  0  0  0
   32.7907  -62.4003   24.5651 C   0  0  0  0  0  0  0  0  0  0  0  0
   31.4541  -62.7562   24.4912 C   0  0  0  0  0  0  0  0  0  0  0  0
   31.3221  -63.8195   23.5539 C   0  0  0  0  0  0  0  0  0  0  0  0
   30.2337  -64.5730   23.0743 C   0  0  0  0  0  0  0  0  0  0  0  0
   30.4618  -65.5760   22.1248 C   0  0  0  0  0  0  0  0  0  0  0  0
   31.7489  -65.8314   21.6557 C   0  0  0  0  0  0  0  0  0  0  0  0
   32.8442  -65.0958   22.1186 C   0  0  0  0  0  0  0  0  0  0  0  0
   32.5969  -64.0973   23.0675 C   0  0  0  0  0  0  0  0  0  0  0  0
   33.4608  -63.2316   23.6924 N   0  0  0  0  0  0  0  0  0  0  0  0
   34.4606  -63.1952   23.5432 H   0  0  0  0  0  0  0  0  0  0  0  0
   33.7124  -60.8054   28.9899 C   0  0  0  0  0  0  0  0  0  0  0  0
   32.5383  -59.8678   29.1558 C   0  0  0  0  0  0  0  0  0  0  0  0
   31.5596  -60.1135   30.1311 C   0  0  0  0  0  0  0  0  0  0  0  0
   30.4969  -59.2244   30.3112 C   0  0  0  0  0  0  0  0  0  0  0  0
   30.3989  -58.0862   29.5135 C   0  0  0  0  0  0  0  0  0  0  0  0
   31.3604  -57.8489   28.5388 C   0  0  0  0  0  0  0  0  0  0  0  0
   31.2673  -56.7536   27.7741 F   0  0  0  0  0  0  0  0  0  0  0  0
   32.4247  -58.7253   28.3519 C   0  0  0  0  0  0  0  0  0  0  0  0
   34.2411  -59.7593   27.2346 H   0  0  0  0  0  0  0  0  0  0  0  0
   38.3654  -61.4932   28.1181 H   0  0  0  0  0  0  0  0  0  0  0  0
   38.1218  -59.1453   29.6490 H   0  0  0  0  0  0  0  0  0  0  0  0
   38.5222  -61.0232   25.8553 H   0  0  0  0  0  0  0  0  0  0  0  0
   39.8182  -60.0919   26.6273 H   0  0  0  0  0  0  0  0  0  0  0  0
   37.4909  -58.5529   26.5340 H   0  0  0  0  0  0  0  0  0  0  0  0
   36.9390  -58.4223   24.1996 H   0  0  0  0  0  0  0  0  0  0  0  0
   37.2595  -60.1011   24.3143 H   0  0  0  0  0  0  0  0  0  0  0  0
   38.6222  -58.5361   22.5885 H   0  0  0  0  0  0  0  0  0  0  0  0
   39.4213  -59.8537   23.3185 H   0  0  0  0  0  0  0  0  0  0  0  0
   30.6842  -62.3237   25.0253 H   0  0  0  0  0  0  0  0  0  0  0  0
   29.2787  -64.3880   23.4188 H   0  0  0  0  0  0  0  0  0  0  0  0
   29.6687  -66.1320   21.7686 H   0  0  0  0  0  0  0  0  0  0  0  0
   31.8960  -66.5752   20.9556 H   0  0  0  0  0  0  0  0  0  0  0  0
   33.7988  -65.2821   21.7736 H   0  0  0  0  0  0  0  0  0  0  0  0
   34.4683  -60.5314   29.6959 H   0  0  0  0  0  0  0  0  0  0  0  0
   33.3501  -61.7990   29.1525 H   0  0  0  0  0  0  0  0  0  0  0  0
   31.6254  -60.9582   30.7204 H   0  0  0  0  0  0  0  0  0  0  0  0
   29.7849  -59.4106   31.0347 H   0  0  0  0  0  0  0  0  0  0  0  0
   29.6181  -57.4244   29.6456 H   0  0  0  0  0  0  0  0  0  0  0  0
   33.1294  -58.5344   27.6225 H   0  0  0  0  0  0  0  0  0  0  0  0
  1 31  1  0
  1 17  1  0
  1 39  1  6
  2  3  1  0
  2  5  1  0
  3  4  2  0
  3  1  1  0
  6  9  1  0
  6  2  1  0
  6 40  1  1
  7  8  2  0
  8  6  1  0
  8 41  1  0
  9 10  1  0
  9 42  1  0
  9 43  1  0
 10 11  1  0
 10 44  1  1
 11 12  1  0
 11 45  1  0
 11 46  1  0
 12 13  1  0
 12 47  1  0
 12 48  1  0
 13 14  1  0
 13 16  1  0
 14 15  2  0
 14 10  1  0
 17 18  1  0
 17 20  1  0
 18 19  2  0
 18 21  1  0
 21 22  2  0
 22 23  1  0
 22 49  1  0
 23 24  2  0
 24 25  1  0
 24 50  1  0
 25 26  2  0
 25 51  1  0
 26 27  1  0
 26 52  1  0
 27 28  2  0
 27 53  1  0
 28 29  1  0
 28 23  1  0
 29 21  1  0
 29 30  1  0
 31 32  1  0
 31 54  1  0
 31 55  1  0
 32 33  2  0
 33 34  1  0
 33 56  1  0
 34 35  2  0
 34 57  1  0
 35 36  1  0
 35 58  1  0
 36 37  1  0
 36 38  2  0
 38 32  1  0
 38 59  1  0
M  END
>  <minimizedAffinity>  (4) 
-8.54161

>  <mol_id>  (4) 
48138

>  <source_index>  (4) 
3

>  <layer>  (4) 
L1

>  <uniprot>  (4) 
P0C6U8

>  <paff>  (4) 
7.3978999999999999

>  <smiles>  (4) 
O=C[C@H](C[C@@H]1CCNC1=O)NC(=O)[C@H](Cc1cccc(F)c1)NC(=O)c1cc2ccccc2[nH]1

$$$$
L1:P0C6U8:52582
     RDKit          3D

 91 93  0  0  0  0  0  0  0  0999 V2000
   36.1311  -59.8033   30.5550 C   0  0  0  0  0  0  0  0  0  0  0  0
   36.1889  -61.0324   30.5298 O   0  0  0  0  0  0  0  0  0  0  0  0
   35.4471  -59.0830   29.5984 N   0  0  0  0  0  0  0  0  0  0  0  0
   35.2662  -58.1072   29.8345 H   0  0  0  0  0  0  0  0  0  0  0  0
   34.6009  -59.6882   28.5630 C   0  0  2  0  0  0  0  0  0  0  0  0
   35.2813  -59.9967   27.1933 C   0  0  0  0  0  0  0  0  0  0  0  0
   34.6988  -59.8942   26.1139 O   0  0  0  0  0  0  0  0  0  0  0  0
   36.5210  -60.5867   27.2597 N   0  0  0  0  0  0  0  0  0  0  0  0
   36.8364  -60.9143   28.1733 H   0  0  0  0  0  0  0  0  0  0  0  0
   37.3012  -60.9394   26.0779 C   0  0  2  0  0  0  0  0  0  0  0  0
   37.1293  -62.4383   25.8430 C   0  0  0  0  0  0  0  0  0  0  0  0
   37.6477  -63.0558   24.9150 O   0  0  0  0  0  0  0  0  0  0  0  0
   38.7654  -60.5317   26.2739 C   0  0  0  0  0  0  0  0  0  0  0  0
   39.3089  -59.6594   25.1419 C   0  0  2  0  0  0  0  0  0  0  0  0
   38.2651  -58.8640   24.3534 C   0  0  0  0  0  0  0  0  0  0  0  0
   38.9234  -58.6653   23.0002 C   0  0  0  0  0  0  0  0  0  0  0  0
   39.7116  -59.8500   22.8439 N   0  0  0  0  0  0  0  0  0  0  0  0
   39.9537  -60.4859   24.0439 C   0  0  0  0  0  0  0  0  0  0  0  0
   40.6110  -61.5026   24.1793 O   0  0  0  0  0  0  0  0  0  0  0  0
   40.0906  -60.2055   21.9748 H   0  0  0  0  0  0  0  0  0  0  0  0
   33.2854  -58.8976   28.3665 C   0  0  0  0  0  0  0  0  0  0  0  0
   31.9523  -59.6784   28.5403 C   0  0  0  0  0  0  0  0  0  0  0  0
   31.9288  -60.4041   29.9026 C   0  0  0  0  0  0  0  0  0  0  0  0
   31.7391  -59.4524   31.0818 C   0  0  0  0  0  0  0  0  0  0  0  0
   30.4893  -58.5946   30.9144 C   0  0  0  0  0  0  0  0  0  0  0  0
   30.4752  -57.8665   29.5741 C   0  0  0  0  0  0  0  0  0  0  0  0
   30.6777  -58.8294   28.4061 C   0  0  0  0  0  0  0  0  0  0  0  0
   36.7524  -58.9514   31.6790 C   0  0  1  0  0  0  0  0  0  0  0  0
   36.5378  -59.7055   32.9116 N   0  0  0  0  0  0  0  0  0  0  0  0
   35.3728  -59.6438   33.6045 C   0  0  0  0  0  0  0  0  0  0  0  0
   34.4140  -58.9620   33.2709 O   0  0  0  0  0  0  0  0  0  0  0  0
   37.2464  -60.3359   33.2559 H   0  0  0  0  0  0  0  0  0  0  0  0
   35.4365  -60.4731   34.6680 O   0  0  0  0  0  0  0  0  0  0  0  0
   34.7939  -61.7414   34.4865 C   0  0  0  0  0  0  0  0  0  0  0  0
   35.7720  -62.8653   34.7228 C   0  0  0  0  0  0  0  0  0  0  0  0
   36.0213  -63.8131   33.7198 C   0  0  0  0  0  0  0  0  0  0  0  0
   36.9215  -64.8567   33.9394 C   0  0  0  0  0  0  0  0  0  0  0  0
   37.5826  -64.9618   35.1615 C   0  0  0  0  0  0  0  0  0  0  0  0
   37.3442  -64.0246   36.1646 C   0  0  0  0  0  0  0  0  0  0  0  0
   36.4424  -62.9815   35.9478 C   0  0  0  0  0  0  0  0  0  0  0  0
   38.5784  -57.2125   31.7057 C   0  0  0  0  0  0  0  0  0  0  0  0
   38.2528  -58.6806   31.4165 C   0  0  1  0  0  0  0  0  0  0  0  0
   39.0194  -59.4873   32.3280 O   0  0  0  0  0  0  0  0  0  0  0  0
   39.9394  -60.4489   31.7878 C   0  0  0  0  0  0  0  0  0  0  0  0
   39.8347  -60.5110   30.2586 C   0  0  0  0  0  0  0  0  0  0  0  0
   39.4820  -61.7992   32.3605 C   0  0  0  0  0  0  0  0  0  0  0  0
   41.3874  -60.2008   32.2232 C   0  0  0  0  0  0  0  0  0  0  0  0
   34.3841  -60.6567   28.9628 H   0  0  0  0  0  0  0  0  0  0  0  0
   36.9599  -60.4147   25.2101 H   0  0  0  0  0  0  0  0  0  0  0  0
   36.5404  -62.9667   26.5055 H   0  0  0  0  0  0  0  0  0  0  0  0
   39.3597  -61.4195   26.3334 H   0  0  0  0  0  0  0  0  0  0  0  0
   38.8146  -59.9515   27.1716 H   0  0  0  0  0  0  0  0  0  0  0  0
   39.9717  -59.0150   25.6808 H   0  0  0  0  0  0  0  0  0  0  0  0
   38.0647  -57.9239   24.8235 H   0  0  0  0  0  0  0  0  0  0  0  0
   37.3205  -59.3626   24.2894 H   0  0  0  0  0  0  0  0  0  0  0  0
   39.5401  -57.7909   22.9980 H   0  0  0  0  0  0  0  0  0  0  0  0
   38.2191  -58.5218   22.2075 H   0  0  0  0  0  0  0  0  0  0  0  0
   33.2963  -58.4968   27.3745 H   0  0  0  0  0  0  0  0  0  0  0  0
   33.2821  -58.1699   29.1509 H   0  0  0  0  0  0  0  0  0  0  0  0
   31.9366  -60.3737   27.7272 H   0  0  0  0  0  0  0  0  0  0  0  0
   32.8561  -60.9229   30.0287 H   0  0  0  0  0  0  0  0  0  0  0  0
   31.0946  -61.0741   29.8943 H   0  0  0  0  0  0  0  0  0  0  0  0
   32.5933  -58.8118   31.1521 H   0  0  0  0  0  0  0  0  0  0  0  0
   31.6270  -60.0380   31.9703 H   0  0  0  0  0  0  0  0  0  0  0  0
   30.4584  -57.8707   31.7018 H   0  0  0  0  0  0  0  0  0  0  0  0
   29.6366  -59.2400   30.9505 H   0  0  0  0  0  0  0  0  0  0  0  0
   31.2614  -57.1407   29.5655 H   0  0  0  0  0  0  0  0  0  0  0  0
   29.5199  -57.3984   29.4588 H   0  0  0  0  0  0  0  0  0  0  0  0
   30.7409  -58.2602   27.5022 H   0  0  0  0  0  0  0  0  0  0  0  0
   29.8453  -59.5016   28.3980 H   0  0  0  0  0  0  0  0  0  0  0  0
   36.2983  -57.9844   31.7388 H   0  0  0  0  0  0  0  0  0  0  0  0
   34.4174  -61.8060   33.4870 H   0  0  0  0  0  0  0  0  0  0  0  0
   33.9907  -61.8271   35.1883 H   0  0  0  0  0  0  0  0  0  0  0  0
   35.5354  -63.7383   32.8124 H   0  0  0  0  0  0  0  0  0  0  0  0
   37.0976  -65.5509   33.1963 H   0  0  0  0  0  0  0  0  0  0  0  0
   38.2485  -65.7334   35.3236 H   0  0  0  0  0  0  0  0  0  0  0  0
   37.8351  -64.1018   37.0691 H   0  0  0  0  0  0  0  0  0  0  0  0
   36.2682  -62.2911   36.6948 H   0  0  0  0  0  0  0  0  0  0  0  0
   39.6173  -57.0346   31.5216 H   0  0  0  0  0  0  0  0  0  0  0  0
   38.3547  -56.9924   32.7286 H   0  0  0  0  0  0  0  0  0  0  0  0
   37.9907  -56.5847   31.0690 H   0  0  0  0  0  0  0  0  0  0  0  0
   38.4833  -58.9096   30.3970 H   0  0  0  0  0  0  0  0  0  0  0  0
   38.8170  -60.6846   29.9775 H   0  0  0  0  0  0  0  0  0  0  0  0
   40.4471  -61.3078   29.8912 H   0  0  0  0  0  0  0  0  0  0  0  0
   40.1670  -59.5839   29.8404 H   0  0  0  0  0  0  0  0  0  0  0  0
   38.4710  -61.9878   32.0651 H   0  0  0  0  0  0  0  0  0  0  0  0
   39.5425  -61.7726   33.4285 H   0  0  0  0  0  0  0  0  0  0  0  0
   40.1139  -62.5776   31.9868 H   0  0  0  0  0  0  0  0  0  0  0  0
   41.7217  -59.2627   31.8319 H   0  0  0  0  0  0  0  0  0  0  0  0
   42.0115  -60.9857   31.8500 H   0  0  0  0  0  0  0  0  0  0  0  0
   41.4401  -60.1807   33.2917 H   0  0  0  0  0  0  0  0  0  0  0  0
  1  2  2  0
  1  3  1  0
  3  5  1  0
  3  4  1  0
  5 21  1  0
  5  6  1  0
  5 48  1  1
  6  7  2  0
  6  8  1  0
  8 10  1  0
  8  9  1  0
 10 11  1  0
 10 13  1  0
 10 49  1  6
 11 12  2  0
 11 50  1  0
 13 14  1  0
 13 51  1  0
 13 52  1  0
 14 15  1  0
 14 53  1  1
 15 16  1  0
 15 54  1  0
 15 55  1  0
 16 17  1  0
 16 56  1  0
 16 57  1  0
 17 18  1  0
 17 20  1  0
 18 19  2  0
 18 14  1  0
 21 22  1  0
 21 58  1  0
 21 59  1  0
 22 23  1  0
 22 60  1  0
 23 24  1  0
 23 61  1  0
 23 62  1  0
 24 25  1  0
 24 63  1  0
 24 64  1  0
 25 26  1  0
 25 65  1  0
 25 66  1  0
 26 27  1  0
 26 67  1  0
 26 68  1  0
 27 22  1  0
 27 69  1  0
 27 70  1  0
 28 29  1  0
 28  1  1  0
 28 71  1  1
 29 30  1  0
 29 32  1  0
 30 31  2  0
 30 33  1  0
 33 34  1  0
 34 35  1  0
 34 72  1  0
 34 73  1  0
 35 36  2  0
 36 37  1  0
 36 74  1  0
 37 38  2  0
 37 75  1  0
 38 39  1  0
 38 76  1  0
 39 40  2  0
 39 77  1  0
 40 35  1  0
 40 78  1  0
 41 42  1  0
 41 79  1  0
 41 80  1  0
 41 81  1  0
 42 43  1  0
 42 28  1  0
 42 82  1  6
 43 44  1  0
 44 45  1  0
 44 46  1  0
 44 47  1  0
 45 83  1  0
 45 84  1  0
 45 85  1  0
 46 86  1  0
 46 87  1  0
 46 88  1  0
 47 89  1  0
 47 90  1  0
 47 91  1  0
M  END
>  <minimizedAffinity>  (5) 
-7.53969

>  <mol_id>  (5) 
52582

>  <source_index>  (5) 
4

>  <layer>  (5) 
L1

>  <uniprot>  (5) 
P0C6U8

>  <paff>  (5) 
7.2756999999999996

>  <smiles>  (5) 
C[C@@H](OC(C)(C)C)[C@H](NC(=O)OCc1ccccc1)C(=O)N[C@@H](CC1CCCCC1)C(=O)N[C@@H](C[C@@H]1CCNC1=O)C=O |r|

$$$$
L1:P0C6U8:56675
     RDKit          3D

 67 69  0  0  0  0  0  0  0  0999 V2000
   34.4627  -60.2824   28.3757 C   0  0  0  0  0  0  0  0  0  0  0  0
   34.7644  -59.1748   27.9116 O   0  0  0  0  0  0  0  0  0  0  0  0
   35.2707  -60.8913   29.3094 N   0  0  0  0  0  0  0  0  0  0  0  0
   34.9353  -62.0778   30.0912 C   0  0  0  0  0  0  0  0  0  0  0  0
   35.9104  -62.0893   31.2235 C   0  0  1  0  0  0  0  0  0  0  0  0
   36.8658  -60.9548   31.0438 C   0  0  1  0  0  0  0  0  0  0  0  0
   36.5094  -60.2372   29.7646 C   0  0  1  0  0  0  0  0  0  0  0  0
   35.9807  -61.0007   32.2845 C   0  0  0  0  0  0  0  0  0  0  0  0
   34.8460  -60.0201   32.4506 C   0  0  0  0  0  0  0  0  0  0  0  0
   36.6465  -61.3618   33.5909 C   0  0  0  0  0  0  0  0  0  0  0  0
   37.6016  -60.3795   28.6710 C   0  0  0  0  0  0  0  0  0  0  0  0
   38.4435  -61.2756   28.6505 O   0  0  0  0  0  0  0  0  0  0  0  0
   37.5433  -59.4205   27.6830 N   0  0  0  0  0  0  0  0  0  0  0  0
   36.7435  -58.7814   27.6842 H   0  0  0  0  0  0  0  0  0  0  0  0
   38.4731  -59.4022   26.5584 C   0  0  2  0  0  0  0  0  0  0  0  0
   39.4952  -58.3557   26.7763 C   0  0  0  0  0  0  0  0  0  0  0  0
   40.2673  -57.5039   26.9392 N   0  0  0  0  0  0  0  0  0  0  0  0
   37.6945  -59.2069   25.2423 C   0  0  0  0  0  0  0  0  0  0  0  0
   38.0657  -60.1037   24.0528 C   0  0  2  0  0  0  0  0  0  0  0  0
   38.6103  -61.4974   24.3905 C   0  0  0  0  0  0  0  0  0  0  0  0
   40.1139  -61.3947   24.2043 C   0  0  0  0  0  0  0  0  0  0  0  0
   40.2784  -60.2868   23.3165 N   0  0  0  0  0  0  0  0  0  0  0  0
   39.1544  -59.5053   23.1949 C   0  0  0  0  0  0  0  0  0  0  0  0
   39.0660  -58.4843   22.5381 O   0  0  0  0  0  0  0  0  0  0  0  0
   41.1418  -60.0189   22.8561 H   0  0  0  0  0  0  0  0  0  0  0  0
   33.1795  -61.0101   27.8974 C   0  0  2  0  0  0  0  0  0  0  0  0
   31.9224  -61.5306   25.7620 C   0  0  0  0  0  0  0  0  0  0  0  0
   33.3022  -61.5931   26.4535 C   0  0  0  0  0  0  0  0  0  0  0  0
   34.3149  -60.8361   25.5730 C   0  0  0  0  0  0  0  0  0  0  0  0
   33.7276  -63.0737   26.5180 C   0  0  0  0  0  0  0  0  0  0  0  0
   32.1038  -60.0253   28.0188 N   0  0  0  0  0  0  0  0  0  0  0  0
   31.4750  -59.7680   29.2317 C   0  0  0  0  0  0  0  0  0  0  0  0
   31.7393  -60.4231   30.2418 O   0  0  0  0  0  0  0  0  0  0  0  0
   31.9808  -59.3478   27.2699 H   0  0  0  0  0  0  0  0  0  0  0  0
   30.4365  -58.6228   29.1979 C   0  0  0  0  0  0  0  0  0  0  0  0
   29.7973  -58.5372   28.0000 F   0  0  0  0  0  0  0  0  0  0  0  0
   31.0183  -57.4054   29.4095 F   0  0  0  0  0  0  0  0  0  0  0  0
   29.4756  -58.7595   30.1507 F   0  0  0  0  0  0  0  0  0  0  0  0
   35.0404  -62.9611   29.4965 H   0  0  0  0  0  0  0  0  0  0  0  0
   33.9225  -62.0566   30.4357 H   0  0  0  0  0  0  0  0  0  0  0  0
   35.8867  -63.1512   31.3530 H   0  0  0  0  0  0  0  0  0  0  0  0
   37.9100  -60.7296   30.9818 H   0  0  0  0  0  0  0  0  0  0  0  0
   36.4067  -59.1862   29.9373 H   0  0  0  0  0  0  0  0  0  0  0  0
   35.0780  -59.3367   33.2405 H   0  0  0  0  0  0  0  0  0  0  0  0
   33.9482  -60.5507   32.6902 H   0  0  0  0  0  0  0  0  0  0  0  0
   34.7071  -59.4776   31.5389 H   0  0  0  0  0  0  0  0  0  0  0  0
   36.6303  -60.5154   34.2454 H   0  0  0  0  0  0  0  0  0  0  0  0
   37.6601  -61.6509   33.4067 H   0  0  0  0  0  0  0  0  0  0  0  0
   36.1208  -62.1749   34.0463 H   0  0  0  0  0  0  0  0  0  0  0  0
   38.9868  -60.3380   26.4852 H   0  0  0  0  0  0  0  0  0  0  0  0
   37.8374  -58.1922   24.9342 H   0  0  0  0  0  0  0  0  0  0  0  0
   36.6875  -59.4785   25.4814 H   0  0  0  0  0  0  0  0  0  0  0  0
   37.1158  -60.1856   23.5670 H   0  0  0  0  0  0  0  0  0  0  0  0
   38.1997  -62.2310   23.7285 H   0  0  0  0  0  0  0  0  0  0  0  0
   38.3505  -61.7977   25.3841 H   0  0  0  0  0  0  0  0  0  0  0  0
   40.5053  -62.2910   23.7703 H   0  0  0  0  0  0  0  0  0  0  0  0
   40.6349  -61.2616   25.1294 H   0  0  0  0  0  0  0  0  0  0  0  0
   32.9872  -61.8752   28.4971 H   0  0  0  0  0  0  0  0  0  0  0  0
   32.0012  -61.9290   24.7721 H   0  0  0  0  0  0  0  0  0  0  0  0
   31.5943  -60.5134   25.7120 H   0  0  0  0  0  0  0  0  0  0  0  0
   31.2159  -62.1061   26.3229 H   0  0  0  0  0  0  0  0  0  0  0  0
   34.3492  -61.2851   24.6024 H   0  0  0  0  0  0  0  0  0  0  0  0
   35.2846  -60.8842   26.0228 H   0  0  0  0  0  0  0  0  0  0  0  0
   34.0142  -59.8132   25.4824 H   0  0  0  0  0  0  0  0  0  0  0  0
   33.8092  -63.4649   25.5254 H   0  0  0  0  0  0  0  0  0  0  0  0
   32.9948  -63.6320   27.0623 H   0  0  0  0  0  0  0  0  0  0  0  0
   34.6740  -63.1517   27.0111 H   0  0  0  0  0  0  0  0  0  0  0  0
  1  2  2  0
  1  3  1  0
  3  4  1  0
  4  5  1  0
  4 39  1  0
  4 40  1  0
  5  6  1  0
  5 41  1  1
  6  7  1  0
  6  8  1  0
  6 42  1  1
  7 11  1  0
  7  3  1  0
  7 43  1  1
  8  9  1  0
  8 10  1  0
  8  5  1  0
  9 44  1  0
  9 45  1  0
  9 46  1  0
 10 47  1  0
 10 48  1  0
 10 49  1  0
 11 12  2  0
 11 13  1  0
 13 15  1  0
 13 14  1  0
 15 16  1  0
 15 18  1  0
 15 50  1  6
 16 17  3  0
 18 19  1  0
 18 51  1  0
 18 52  1  0
 19 20  1  0
 19 53  1  6
 20 21  1  0
 20 54  1  0
 20 55  1  0
 21 22  1  0
 21 56  1  0
 21 57  1  0
 22 23  1  0
 22 25  1  0
 23 24  2  0
 23 19  1  0
 26 31  1  0
 26  1  1  0
 26 58  1  1
 27 28  1  0
 27 59  1  0
 27 60  1  0
 27 61  1  0
 28 29  1  0
 28 30  1  0
 28 26  1  0
 29 62  1  0
 29 63  1  0
 29 64  1  0
 30 65  1  0
 30 66  1  0
 30 67  1  0
 31 32  1  0
 31 34  1  0
 32 33  2  0
 32 35  1  0
 35 36  1  0
 35 37  1  0
 35 38  1  0
M  END
>  <minimizedAffinity>  (6) 
-7.90287

>  <mol_id>  (6) 
56675

>  <source_index>  (6) 
5

>  <layer>  (6) 
L1

>  <uniprot>  (6) 
P0C6U8

>  <paff>  (6) 
7.6989999999999998

>  <smiles>  (6) 
CC1([C@@H]2[C@H]1[C@H](N(C2)C(=O)[C@H](C(C)(C)C)NC(=O)C(F)(F)F)C(=O)N[C@@H](C[C@@H]3CCNC3=O)C#N)C

$$$$
L1:P0C6U8:60488
     RDKit          3D

 64 67  0  0  0  0  0  0  0  0999 V2000
   39.2600  -58.8495   23.4402 C   0  0  0  0  0  0  0  0  0  0  0  0
   38.5333  -59.8901   24.2586 C   0  0  0  0  0  0  0  0  0  0  0  0
   38.6913  -61.2869   23.7124 C   0  0  0  0  0  0  0  0  0  0  0  0
   38.4602  -59.6575   25.7637 C   0  0  2  0  0  0  0  0  0  0  0  0
   38.1730  -60.7362   26.7854 C   0  0  2  0  0  0  0  0  0  0  0  0
   36.8332  -61.2221   26.4174 N   0  0  0  0  0  0  0  0  0  0  0  0
   36.3627  -62.4251   26.9129 C   0  0  0  0  0  0  0  0  0  0  0  0
   37.0085  -63.0629   27.7463 O   0  0  0  0  0  0  0  0  0  0  0  0
   36.1833  -60.4111   25.3953 C   0  0  0  0  0  0  0  0  0  0  0  0
   37.2356  -59.4602   24.9277 C   0  0  2  0  0  0  0  0  0  0  0  0
   38.2786  -60.1704   28.2278 C   0  0  0  0  0  0  0  0  0  0  0  0
   37.8003  -59.0790   28.5385 O   0  0  0  0  0  0  0  0  0  0  0  0
   38.8842  -60.9840   29.1599 N   0  0  0  0  0  0  0  0  0  0  0  0
   39.1189  -61.9268   28.8531 H   0  0  0  0  0  0  0  0  0  0  0  0
   38.9647  -60.6316   30.5687 C   0  0  2  0  0  0  0  0  0  0  0  0
   40.4075  -60.5787   31.0703 C   0  0  0  0  0  0  0  0  0  0  0  0
   41.3092  -59.9858   30.4784 O   0  0  0  0  0  0  0  0  0  0  0  0
   38.0610  -61.4946   31.4687 C   0  0  0  0  0  0  0  0  0  0  0  0
   36.7645  -60.9027   32.0369 C   0  0  2  0  0  0  0  0  0  0  0  0
   36.4224  -59.4435   31.7242 C   0  0  0  0  0  0  0  0  0  0  0  0
   35.4050  -59.0967   32.7997 C   0  0  0  0  0  0  0  0  0  0  0  0
   35.8447  -59.8739   33.9203 N   0  0  0  0  0  0  0  0  0  0  0  0
   36.6635  -60.9162   33.5468 C   0  0  0  0  0  0  0  0  0  0  0  0
   37.2100  -61.7003   34.3047 O   0  0  0  0  0  0  0  0  0  0  0  0
   35.6447  -59.6641   34.8932 H   0  0  0  0  0  0  0  0  0  0  0  0
   35.0077  -62.9097   26.3759 C   0  0  0  0  0  0  0  0  0  0  0  0
   34.0764  -63.0868   27.4385 O   0  0  0  0  0  0  0  0  0  0  0  0
   33.5614  -61.9593   28.0120 C   0  0  0  0  0  0  0  0  0  0  0  0
   32.9994  -60.8763   27.3387 C   0  0  0  0  0  0  0  0  0  0  0  0
   32.5198  -59.7682   28.0528 C   0  0  0  0  0  0  0  0  0  0  0  0
   32.6005  -59.7346   29.4452 C   0  0  0  0  0  0  0  0  0  0  0  0
   33.1677  -60.8211   30.1146 C   0  0  0  0  0  0  0  0  0  0  0  0
   33.6459  -61.9238   29.4035 C   0  0  0  0  0  0  0  0  0  0  0  0
   32.1756  -58.7268   30.2615 O   0  0  0  0  0  0  0  0  0  0  0  0
   30.8121  -58.7179   30.6470 C   0  0  0  0  0  0  0  0  0  0  0  0
   30.6829  -58.8616   31.9836 F   0  0  0  0  0  0  0  0  0  0  0  0
   30.1854  -59.7560   30.0507 F   0  0  0  0  0  0  0  0  0  0  0  0
   30.2020  -57.5784   30.2559 F   0  0  0  0  0  0  0  0  0  0  0  0
   40.1496  -59.2776   23.0277 H   0  0  0  0  0  0  0  0  0  0  0  0
   39.5197  -58.0212   24.0658 H   0  0  0  0  0  0  0  0  0  0  0  0
   38.6255  -58.5124   22.6473 H   0  0  0  0  0  0  0  0  0  0  0  0
   39.6660  -61.3943   23.2843 H   0  0  0  0  0  0  0  0  0  0  0  0
   37.9503  -61.4618   22.9606 H   0  0  0  0  0  0  0  0  0  0  0  0
   38.5697  -61.9956   24.5048 H   0  0  0  0  0  0  0  0  0  0  0  0
   39.1501  -59.1306   26.3892 H   0  0  0  0  0  0  0  0  0  0  0  0
   38.8768  -61.5421   26.7815 H   0  0  0  0  0  0  0  0  0  0  0  0
   35.3529  -59.8786   25.8098 H   0  0  0  0  0  0  0  0  0  0  0  0
   35.7970  -61.0074   24.5953 H   0  0  0  0  0  0  0  0  0  0  0  0
   36.5424  -58.7064   24.6176 H   0  0  0  0  0  0  0  0  0  0  0  0
   38.5743  -59.6380   30.6411 H   0  0  0  0  0  0  0  0  0  0  0  0
   40.6376  -61.0653   31.9508 H   0  0  0  0  0  0  0  0  0  0  0  0
   38.6556  -61.7986   32.3047 H   0  0  0  0  0  0  0  0  0  0  0  0
   37.7154  -62.2636   30.8098 H   0  0  0  0  0  0  0  0  0  0  0  0
   36.1002  -61.5712   31.5303 H   0  0  0  0  0  0  0  0  0  0  0  0
   35.9973  -59.3484   30.7469 H   0  0  0  0  0  0  0  0  0  0  0  0
   37.2765  -58.7989   31.7261 H   0  0  0  0  0  0  0  0  0  0  0  0
   34.4172  -59.3783   32.5000 H   0  0  0  0  0  0  0  0  0  0  0  0
   35.3515  -58.0485   33.0079 H   0  0  0  0  0  0  0  0  0  0  0  0
   35.1442  -63.8426   25.8700 H   0  0  0  0  0  0  0  0  0  0  0  0
   34.6228  -62.1732   25.7019 H   0  0  0  0  0  0  0  0  0  0  0  0
   32.9357  -60.8896   26.3088 H   0  0  0  0  0  0  0  0  0  0  0  0
   32.1042  -58.9720   27.5444 H   0  0  0  0  0  0  0  0  0  0  0  0
   33.2341  -60.8090   31.1444 H   0  0  0  0  0  0  0  0  0  0  0  0
   34.0649  -62.7183   29.9116 H   0  0  0  0  0  0  0  0  0  0  0  0
  1  2  1  0
  1 39  1  0
  1 40  1  0
  1 41  1  0
  2  3  1  0
  2  4  1  0
  3 42  1  0
  3 43  1  0
  3 44  1  0
  4  5  1  0
  4 45  1  1
  5 11  1  0
  5  6  1  0
  5 46  1  1
  6  7  1  0
  6  9  1  0
  7  8  2  0
  7 26  1  0
  9 10  1  0
  9 47  1  0
  9 48  1  0
 10  2  1  0
 10  4  1  0
 10 49  1  6
 11 12  2  0
 11 13  1  0
 13 15  1  0
 13 14  1  0
 15 16  1  0
 15 18  1  0
 15 50  1  6
 16 17  2  0
 16 51  1  0
 18 19  1  0
 18 52  1  0
 18 53  1  0
 19 20  1  0
 19 54  1  6
 20 21  1  0
 20 55  1  0
 20 56  1  0
 21 22  1  0
 21 57  1  0
 21 58  1  0
 22 23  1  0
 22 25  1  0
 23 24  2  0
 23 19  1  0
 26 27  1  0
 26 59  1  0
 26 60  1  0
 27 28  1  0
 28 29  2  0
 29 30  1  0
 29 61  1  0
 30 31  2  0
 30 62  1  0
 31 34  1  0
 31 32  1  0
 32 33  2  0
 32 63  1  0
 33 28  1  0
 33 64  1  0
 34 35  1  0
 35 36  1  0
 35 37  1  0
 35 38  1  0
M  END
>  <minimizedAffinity>  (7) 
-7.75724

>  <mol_id>  (7) 
60488

>  <source_index>  (7) 
6

>  <layer>  (7) 
L1

>  <uniprot>  (7) 
P0C6U8

>  <paff>  (7) 
7.8239000000000001

>  <smiles>  (7) 
[H][C@]12CN([C@H](C(=O)N[C@@H](C[C@]3([H])CCNC3=O)C=O)[C@@]1([H])C2(C)C)C(=O)COc1ccc(OC(F)(F)F)cc1 |r|

$$$$
L1:P0C6U8:72398
     RDKit          3D

 63 64  0  0  0  0  0  0  0  0999 V2000
   36.9170  -61.8424   27.8984 C   0  0  0  0  0  0  0  0  0  0  0  0
   37.5684  -62.7553   27.3972 O   0  0  0  0  0  0  0  0  0  0  0  0
   37.2005  -60.5203   27.6887 N   0  0  0  0  0  0  0  0  0  0  0  0
   36.5950  -59.8400   28.1568 H   0  0  0  0  0  0  0  0  0  0  0  0
   35.7728  -62.0836   28.9225 C   0  0  1  0  0  0  0  0  0  0  0  0
   35.3841  -60.8392   29.5870 N   0  0  0  0  0  0  0  0  0  0  0  0
   34.9716  -60.7821   30.8788 C   0  0  0  0  0  0  0  0  0  0  0  0
   34.8407  -61.7399   31.6274 O   0  0  0  0  0  0  0  0  0  0  0  0
   35.4842  -59.9303   29.1288 H   0  0  0  0  0  0  0  0  0  0  0  0
   34.7317  -59.4965   31.2083 O   0  0  0  0  0  0  0  0  0  0  0  0
   33.4938  -59.2790   31.8847 C   0  0  0  0  0  0  0  0  0  0  0  0
   32.3978  -59.0112   30.8791 C   0  0  0  0  0  0  0  0  0  0  0  0
   31.0517  -59.1631   31.2444 C   0  0  0  0  0  0  0  0  0  0  0  0
   30.0318  -58.8798   30.3328 C   0  0  0  0  0  0  0  0  0  0  0  0
   30.3451  -58.4322   29.0504 C   0  0  0  0  0  0  0  0  0  0  0  0
   31.6774  -58.2640   28.6799 C   0  0  0  0  0  0  0  0  0  0  0  0
   32.6974  -58.5457   29.5897 C   0  0  0  0  0  0  0  0  0  0  0  0
   34.5448  -62.7339   28.2522 C   0  0  0  0  0  0  0  0  0  0  0  0
   32.9891  -61.2272   26.8991 C   0  0  0  0  0  0  0  0  0  0  0  0
   34.1688  -62.1996   26.8522 C   0  0  0  0  0  0  0  0  0  0  0  0
   33.9072  -63.3068   25.8340 C   0  0  0  0  0  0  0  0  0  0  0  0
   38.1532  -59.9272   26.7356 C   0  0  2  0  0  0  0  0  0  0  0  0
   38.9052  -58.7285   27.3807 C   0  0  2  0  0  0  0  0  0  0  0  0
   40.1994  -58.5713   26.7155 O   0  0  0  0  0  0  0  0  0  0  0  0
   40.7524  -58.2023   27.4424 H   0  0  0  0  0  0  0  0  0  0  0  0
   39.0853  -58.8809   29.2116 S   0  0  0  0  0  0  0  0  0  0  0  0
   39.6800  -60.2058   29.4224 O   0  0  0  0  0  0  0  0  0  0  0  0
   37.7425  -58.7196   29.7553 O   0  0  0  0  0  0  0  0  0  0  0  0
   40.0102  -57.7824   29.5035 O   0  0  0  0  0  0  0  0  0  0  0  0
   37.4636  -59.5527   25.4022 C   0  0  0  0  0  0  0  0  0  0  0  0
   38.0752  -60.1633   24.1372 C   0  0  2  0  0  0  0  0  0  0  0  0
   38.4912  -61.6360   24.2059 C   0  0  0  0  0  0  0  0  0  0  0  0
   39.4754  -61.7679   23.0585 C   0  0  0  0  0  0  0  0  0  0  0  0
   40.1036  -60.4824   23.0188 N   0  0  0  0  0  0  0  0  0  0  0  0
   39.3535  -59.5087   23.6509 C   0  0  0  0  0  0  0  0  0  0  0  0
   39.6712  -58.3372   23.7348 O   0  0  0  0  0  0  0  0  0  0  0  0
   40.9883  -60.2561   22.5834 H   0  0  0  0  0  0  0  0  0  0  0  0
   36.1493  -62.7592   29.6619 H   0  0  0  0  0  0  0  0  0  0  0  0
   33.5896  -58.4368   32.5377 H   0  0  0  0  0  0  0  0  0  0  0  0
   33.2450  -60.1509   32.4528 H   0  0  0  0  0  0  0  0  0  0  0  0
   30.8130  -59.4869   32.1948 H   0  0  0  0  0  0  0  0  0  0  0  0
   29.0450  -59.0021   30.6092 H   0  0  0  0  0  0  0  0  0  0  0  0
   29.5913  -58.2258   28.3765 H   0  0  0  0  0  0  0  0  0  0  0  0
   31.9104  -57.9307   27.7314 H   0  0  0  0  0  0  0  0  0  0  0  0
   33.6819  -58.4103   29.3114 H   0  0  0  0  0  0  0  0  0  0  0  0
   34.7400  -63.7819   28.1600 H   0  0  0  0  0  0  0  0  0  0  0  0
   33.7141  -62.4942   28.8826 H   0  0  0  0  0  0  0  0  0  0  0  0
   32.7680  -60.8866   25.9091 H   0  0  0  0  0  0  0  0  0  0  0  0
   33.2411  -60.3902   27.5163 H   0  0  0  0  0  0  0  0  0  0  0  0
   32.1329  -61.7245   27.3047 H   0  0  0  0  0  0  0  0  0  0  0  0
   35.0320  -61.6623   26.5190 H   0  0  0  0  0  0  0  0  0  0  0  0
   33.0477  -63.8700   26.1324 H   0  0  0  0  0  0  0  0  0  0  0  0
   34.7579  -63.9538   25.7842 H   0  0  0  0  0  0  0  0  0  0  0  0
   33.7326  -62.8725   24.8718 H   0  0  0  0  0  0  0  0  0  0  0  0
   38.8897  -60.6646   26.4934 H   0  0  0  0  0  0  0  0  0  0  0  0
   38.3163  -57.8469   27.2359 H   0  0  0  0  0  0  0  0  0  0  0  0
   37.4994  -58.4880   25.3025 H   0  0  0  0  0  0  0  0  0  0  0  0
   36.4731  -59.9524   25.4666 H   0  0  0  0  0  0  0  0  0  0  0  0
   37.2356  -60.0095   23.4920 H   0  0  0  0  0  0  0  0  0  0  0  0
   37.6486  -62.2804   24.0655 H   0  0  0  0  0  0  0  0  0  0  0  0
   38.9078  -61.9123   25.1520 H   0  0  0  0  0  0  0  0  0  0  0  0
   38.9682  -61.9759   22.1396 H   0  0  0  0  0  0  0  0  0  0  0  0
   40.1699  -62.5710   23.1909 H   0  0  0  0  0  0  0  0  0  0  0  0
  1  2  2  0
  1  3  1  0
  3 22  1  0
  3  4  1  0
  5  6  1  0
  5  1  1  0
  5 38  1  1
  6  7  1  0
  6  9  1  0
  7  8  2  0
  7 10  1  0
 10 11  1  0
 11 12  1  0
 11 39  1  0
 11 40  1  0
 12 13  2  0
 13 14  1  0
 13 41  1  0
 14 15  2  0
 14 42  1  0
 15 16  1  0
 15 43  1  0
 16 17  2  0
 16 44  1  0
 17 12  1  0
 17 45  1  0
 18  5  1  0
 18 46  1  0
 18 47  1  0
 19 20  1  0
 19 48  1  0
 19 49  1  0
 19 50  1  0
 20 21  1  0
 20 18  1  0
 20 51  1  0
 21 52  1  0
 21 53  1  0
 21 54  1  0
 22 30  1  0
 22 23  1  0
 22 55  1  6
 23 24  1  0
 23 26  1  0
 23 56  1  1
 24 25  1  0
 26 27  2  0
 26 28  2  0
 26 29  1  0
 30 31  1  0
 30 57  1  0
 30 58  1  0
 31 32  1  0
 31 59  1  6
 32 33  1  0
 32 60  1  0
 32 61  1  0
 33 34  1  0
 33 62  1  0
 33 63  1  0
 34 35  1  0
 34 37  1  0
 35 36  2  0
 35 31  1  0
M  CHG  1  29  -1
M  END
>  <minimizedAffinity>  (8) 
-7.15286

>  <mol_id>  (8) 
72398

>  <source_index>  (8) 
7

>  <layer>  (8) 
L1

>  <uniprot>  (8) 
P0C6U8

>  <paff>  (8) 
7.3010000000000002

>  <smiles>  (8) 
CC(C)C[C@H](NC(=O)OCc1ccccc1)C(=O)N[C@@H](C[C@@H]1CCNC1=O)C(O)S([O-])(=O)=O

$$$$
L1:P0C6U8:85332
     RDKit          3D

 60 64  0  0  0  0  0  0  0  0999 V2000
   36.7228  -64.6642   34.1184 C   0  0  0  0  0  0  0  0  0  0  0  0
   36.3159  -63.2672   33.7133 C   0  0  0  0  0  0  0  0  0  0  0  0
   35.2370  -62.6883   34.5938 C   0  0  0  0  0  0  0  0  0  0  0  0
   37.4054  -62.3704   33.1341 C   0  0  2  0  0  0  0  0  0  0  0  0
   37.3235  -60.8612   33.0712 C   0  0  2  0  0  0  0  0  0  0  0  0
   36.1388  -60.6016   32.2284 N   0  0  0  0  0  0  0  0  0  0  0  0
   35.4868  -59.3828   32.2858 C   0  0  0  0  0  0  0  0  0  0  0  0
   35.9216  -58.4789   33.0001 O   0  0  0  0  0  0  0  0  0  0  0  0
   35.6131  -61.8096   31.5996 C   0  0  0  0  0  0  0  0  0  0  0  0
   36.3622  -62.9388   32.2283 C   0  0  2  0  0  0  0  0  0  0  0  0
   34.3165  -59.2021   31.4616 C   0  0  0  0  0  0  0  0  0  0  0  0
   32.9874  -59.3106   31.8313 C   0  0  0  0  0  0  0  0  0  0  0  0
   32.1808  -59.0304   30.6959 C   0  0  0  0  0  0  0  0  0  0  0  0
   30.7932  -59.0099   30.4597 C   0  0  0  0  0  0  0  0  0  0  0  0
   30.3214  -58.6701   29.1863 C   0  0  0  0  0  0  0  0  0  0  0  0
   31.2094  -58.3496   28.1615 C   0  0  0  0  0  0  0  0  0  0  0  0
   32.5912  -58.3594   28.3747 C   0  0  0  0  0  0  0  0  0  0  0  0
   33.0450  -58.7080   29.6518 C   0  0  0  0  0  0  0  0  0  0  0  0
   34.3251  -58.7885   30.1485 N   0  0  0  0  0  0  0  0  0  0  0  0
   35.1540  -58.5478   29.6232 H   0  0  0  0  0  0  0  0  0  0  0  0
   38.6130  -60.2115   32.4884 C   0  0  0  0  0  0  0  0  0  0  0  0
   39.6241  -59.9969   33.1559 O   0  0  0  0  0  0  0  0  0  0  0  0
   38.5089  -59.7528   31.1928 N   0  0  0  0  0  0  0  0  0  0  0  0
   37.5774  -59.7327   30.7726 H   0  0  0  0  0  0  0  0  0  0  0  0
   39.6191  -59.1427   30.4723 C   0  0  2  0  0  0  0  0  0  0  0  0
   39.3991  -57.6333   30.4479 C   0  0  0  0  0  0  0  0  0  0  0  0
   38.5284  -57.0581   31.0986 O   0  0  0  0  0  0  0  0  0  0  0  0
   39.7403  -59.7385   29.0653 C   0  0  0  0  0  0  0  0  0  0  0  0
   38.7963  -59.0662   28.0585 C   0  0  2  0  0  0  0  0  0  0  0  0
   37.8645  -60.0225   27.3030 C   0  0  0  0  0  0  0  0  0  0  0  0
   38.6858  -60.4677   26.1074 C   0  0  0  0  0  0  0  0  0  0  0  0
   39.5114  -59.3281   25.8407 N   0  0  0  0  0  0  0  0  0  0  0  0
   39.6146  -58.4828   26.9246 C   0  0  0  0  0  0  0  0  0  0  0  0
   40.2895  -57.4694   26.9712 O   0  0  0  0  0  0  0  0  0  0  0  0
   40.0268  -59.1531   24.9869 H   0  0  0  0  0  0  0  0  0  0  0  0
   36.6463  -64.7640   35.1810 H   0  0  0  0  0  0  0  0  0  0  0  0
   37.7332  -64.8435   33.8152 H   0  0  0  0  0  0  0  0  0  0  0  0
   36.0772  -65.3748   33.6460 H   0  0  0  0  0  0  0  0  0  0  0  0
   35.3726  -63.0331   35.5976 H   0  0  0  0  0  0  0  0  0  0  0  0
   34.2784  -63.0010   34.2357 H   0  0  0  0  0  0  0  0  0  0  0  0
   35.2945  -61.6201   34.5728 H   0  0  0  0  0  0  0  0  0  0  0  0
   38.4577  -62.3914   33.3265 H   0  0  0  0  0  0  0  0  0  0  0  0
   37.2372  -60.4252   34.0445 H   0  0  0  0  0  0  0  0  0  0  0  0
   35.7848  -61.7877   30.5437 H   0  0  0  0  0  0  0  0  0  0  0  0
   34.5565  -61.9048   31.7394 H   0  0  0  0  0  0  0  0  0  0  0  0
   36.2428  -63.5993   31.3950 H   0  0  0  0  0  0  0  0  0  0  0  0
   32.6408  -59.5539   32.7724 H   0  0  0  0  0  0  0  0  0  0  0  0
   30.1314  -59.2427   31.2166 H   0  0  0  0  0  0  0  0  0  0  0  0
   29.3056  -58.6568   29.0047 H   0  0  0  0  0  0  0  0  0  0  0  0
   30.8412  -58.1010   27.2300 H   0  0  0  0  0  0  0  0  0  0  0  0
   33.2514  -58.1187   27.6189 H   0  0  0  0  0  0  0  0  0  0  0  0
   40.5465  -59.3469   30.9653 H   0  0  0  0  0  0  0  0  0  0  0  0
   40.0168  -57.0617   29.8506 H   0  0  0  0  0  0  0  0  0  0  0  0
   39.5049  -60.7812   29.1128 H   0  0  0  0  0  0  0  0  0  0  0  0
   40.7430  -59.5763   28.7290 H   0  0  0  0  0  0  0  0  0  0  0  0
   38.2375  -58.3761   28.6555 H   0  0  0  0  0  0  0  0  0  0  0  0
   36.9759  -59.5171   26.9870 H   0  0  0  0  0  0  0  0  0  0  0  0
   37.5390  -60.8432   27.9074 H   0  0  0  0  0  0  0  0  0  0  0  0
   38.0572  -60.6913   25.2709 H   0  0  0  0  0  0  0  0  0  0  0  0
   39.2463  -61.3607   26.2900 H   0  0  0  0  0  0  0  0  0  0  0  0
  1  2  1  0
  1 36  1  0
  1 37  1  0
  1 38  1  0
  2  3  1  0
  2  4  1  0
  3 39  1  0
  3 40  1  0
  3 41  1  0
  4  5  1  0
  4 42  1  6
  5 21  1  0
  5  6  1  0
  5 43  1  1
  6  7  1  0
  6  9  1  0
  7  8  2  0
  7 11  1  0
  9 10  1  0
  9 44  1  0
  9 45  1  0
 10  2  1  0
 10  4  1  0
 10 46  1  6
 11 12  2  0
 12 13  1  0
 12 47  1  0
 13 14  2  0
 14 15  1  0
 14 48  1  0
 15 16  2  0
 15 49  1  0
 16 17  1  0
 16 50  1  0
 17 18  2  0
 17 51  1  0
 18 19  1  0
 18 13  1  0
 19 11  1  0
 19 20  1  0
 21 22  2  0
 21 23  1  0
 23 25  1  0
 23 24  1  0
 25 26  1  0
 25 28  1  0
 25 52  1  1
 26 27  2  0
 26 53  1  0
 28 29  1  0
 28 54  1  0
 28 55  1  0
 29 30  1  0
 29 56  1  1
 30 31  1  0
 30 57  1  0
 30 58  1  0
 31 32  1  0
 31 59  1  0
 31 60  1  0
 32 33  1  0
 32 35  1  0
 33 34  2  0
 33 29  1  0
M  END
>  <minimizedAffinity>  (9) 
-8.76800

>  <mol_id>  (9) 
85332

>  <source_index>  (9) 
8

>  <layer>  (9) 
L1

>  <uniprot>  (9) 
P0C6U8

>  <paff>  (9) 
7.2839999999999998

>  <smiles>  (9) 
CC1(C)[C@@H]2[C@@H](C(=O)N[C@H](C=O)C[C@@H]3CCNC3=O)N(C(=O)c3cc4ccccc4[nH]3)C[C@@H]21

$$$$
L1:P0C6U8:93662
     RDKit          3D

 65 68  0  0  0  0  0  0  0  0999 V2000
   34.9088  -59.1962   27.4398 C   0  0  1  0  0  0  0  0  0  0  0  0
   37.3501  -59.3011   27.3067 N   0  0  0  0  0  0  0  0  0  0  0  0
   36.2279  -59.8718   27.8635 C   0  0  0  0  0  0  0  0  0  0  0  0
   36.2712  -60.8888   28.5518 O   0  0  0  0  0  0  0  0  0  0  0  0
   37.2398  -58.5447   26.6279 H   0  0  0  0  0  0  0  0  0  0  0  0
   38.6930  -59.8282   27.5233 C   0  0  2  0  0  0  0  0  0  0  0  0
   40.2276  -59.5507   29.3892 O   0  0  0  0  0  0  0  0  0  0  0  0
   39.2601  -59.1357   28.7537 C   0  0  0  0  0  0  0  0  0  0  0  0
   39.5647  -59.6020   26.2787 C   0  0  0  0  0  0  0  0  0  0  0  0
   38.9894  -60.0987   24.9528 C   0  0  2  0  0  0  0  0  0  0  0  0
   39.3606  -61.5614   24.6642 C   0  0  0  0  0  0  0  0  0  0  0  0
   39.3197  -61.6495   23.1501 C   0  0  0  0  0  0  0  0  0  0  0  0
   39.6955  -60.3330   22.7332 N   0  0  0  0  0  0  0  0  0  0  0  0
   39.5228  -59.3926   23.7237 C   0  0  0  0  0  0  0  0  0  0  0  0
   39.6970  -58.1938   23.5971 O   0  0  0  0  0  0  0  0  0  0  0  0
   40.0001  -60.0673   21.8042 H   0  0  0  0  0  0  0  0  0  0  0  0
   34.0750  -60.2563   26.8760 N   0  0  0  0  0  0  0  0  0  0  0  0
   34.2777  -60.7278   25.6028 C   0  0  0  0  0  0  0  0  0  0  0  0
   35.1352  -60.2537   24.8622 O   0  0  0  0  0  0  0  0  0  0  0  0
   33.4521  -60.7528   27.4962 H   0  0  0  0  0  0  0  0  0  0  0  0
   33.4408  -61.8347   25.2045 C   0  0  0  0  0  0  0  0  0  0  0  0
   33.4150  -63.1705   25.5688 C   0  0  0  0  0  0  0  0  0  0  0  0
   32.3694  -63.8139   24.8481 C   0  0  0  0  0  0  0  0  0  0  0  0
   31.8792  -65.1330   24.8017 C   0  0  0  0  0  0  0  0  0  0  0  0
   30.8035  -65.4335   23.9578 C   0  0  0  0  0  0  0  0  0  0  0  0
   30.2195  -64.4433   23.1703 C   0  0  0  0  0  0  0  0  0  0  0  0
   30.6898  -63.1269   23.2010 C   0  0  0  0  0  0  0  0  0  0  0  0
   31.7659  -62.8454   24.0503 C   0  0  0  0  0  0  0  0  0  0  0  0
   32.4259  -61.6643   24.2864 N   0  0  0  0  0  0  0  0  0  0  0  0
   32.2102  -60.7765   23.8513 H   0  0  0  0  0  0  0  0  0  0  0  0
   34.1871  -58.5319   28.6196 C   0  0  0  0  0  0  0  0  0  0  0  0
   32.7464  -59.0311   28.8633 C   0  0  0  0  0  0  0  0  0  0  0  0
   31.7463  -57.9931   28.3222 C   0  0  0  0  0  0  0  0  0  0  0  0
   30.2987  -58.4104   28.5651 C   0  0  0  0  0  0  0  0  0  0  0  0
   30.0381  -58.6911   30.0402 C   0  0  0  0  0  0  0  0  0  0  0  0
   31.0141  -59.7248   30.5892 C   0  0  0  0  0  0  0  0  0  0  0  0
   32.4675  -59.3204   30.3475 C   0  0  0  0  0  0  0  0  0  0  0  0
   35.1066  -58.4149   26.7360 H   0  0  0  0  0  0  0  0  0  0  0  0
   38.6715  -60.8853   27.6878 H   0  0  0  0  0  0  0  0  0  0  0  0
   38.8058  -58.2661   29.0739 H   0  0  0  0  0  0  0  0  0  0  0  0
   40.4971  -60.1022   26.4378 H   0  0  0  0  0  0  0  0  0  0  0  0
   39.6466  -58.5401   26.1755 H   0  0  0  0  0  0  0  0  0  0  0  0
   37.9432  -59.9253   25.0949 H   0  0  0  0  0  0  0  0  0  0  0  0
   38.6504  -62.2296   25.1048 H   0  0  0  0  0  0  0  0  0  0  0  0
   40.3115  -61.8363   25.0705 H   0  0  0  0  0  0  0  0  0  0  0  0
   38.3362  -61.8941   22.8069 H   0  0  0  0  0  0  0  0  0  0  0  0
   39.9600  -62.4116   22.7577 H   0  0  0  0  0  0  0  0  0  0  0  0
   34.0468  -63.6230   26.2478 H   0  0  0  0  0  0  0  0  0  0  0  0
   32.3080  -65.8699   25.3832 H   0  0  0  0  0  0  0  0  0  0  0  0
   30.4393  -66.3983   23.9185 H   0  0  0  0  0  0  0  0  0  0  0  0
   29.4274  -64.6854   22.5547 H   0  0  0  0  0  0  0  0  0  0  0  0
   30.2597  -62.3908   22.6194 H   0  0  0  0  0  0  0  0  0  0  0  0
   34.1474  -57.4787   28.4348 H   0  0  0  0  0  0  0  0  0  0  0  0
   34.7458  -58.7868   29.4958 H   0  0  0  0  0  0  0  0  0  0  0  0
   32.6295  -59.9578   28.3412 H   0  0  0  0  0  0  0  0  0  0  0  0
   31.9011  -57.8809   27.2694 H   0  0  0  0  0  0  0  0  0  0  0  0
   31.9151  -57.0718   28.8396 H   0  0  0  0  0  0  0  0  0  0  0  0
   30.0929  -59.2960   28.0010 H   0  0  0  0  0  0  0  0  0  0  0  0
   29.6619  -57.6070   28.2587 H   0  0  0  0  0  0  0  0  0  0  0  0
   29.0400  -59.0597   30.1536 H   0  0  0  0  0  0  0  0  0  0  0  0
   30.1700  -57.7799   30.5853 H   0  0  0  0  0  0  0  0  0  0  0  0
   30.8314  -60.6629   30.1081 H   0  0  0  0  0  0  0  0  0  0  0  0
   30.8612  -59.7971   31.6457 H   0  0  0  0  0  0  0  0  0  0  0  0
   33.1056  -60.1164   30.6700 H   0  0  0  0  0  0  0  0  0  0  0  0
   32.6571  -58.4239   30.9000 H   0  0  0  0  0  0  0  0  0  0  0  0
  1 31  1  0
  1 17  1  0
  1 38  1  6
  2  3  1  0
  2  5  1  0
  3  4  2  0
  3  1  1  0
  6  9  1  0
  6  2  1  0
  6 39  1  1
  7  8  2  0
  8  6  1  0
  8 40  1  0
  9 10  1  0
  9 41  1  0
  9 42  1  0
 10 11  1  0
 10 43  1  1
 11 12  1  0
 11 44  1  0
 11 45  1  0
 12 13  1  0
 12 46  1  0
 12 47  1  0
 13 14  1  0
 13 16  1  0
 14 15  2  0
 14 10  1  0
 17 18  1  0
 17 20  1  0
 18 19  2  0
 18 21  1  0
 21 22  2  0
 22 23  1  0
 22 48  1  0
 23 24  2  0
 24 25  1  0
 24 49  1  0
 25 26  2  0
 25 50  1  0
 26 27  1  0
 26 51  1  0
 27 28  2  0
 27 52  1  0
 28 29  1  0
 28 23  1  0
 29 21  1  0
 29 30  1  0
 31 32  1  0
 31 53  1  0
 31 54  1  0
 32 33  1  0
 32 55  1  0
 33 34  1  0
 33 56  1  0
 33 57  1  0
 34 35  1  0
 34 58  1  0
 34 59  1  0
 35 36  1  0
 35 60  1  0
 35 61  1  0
 36 37  1  0
 36 62  1  0
 36 63  1  0
 37 32  1  0
 37 64  1  0
 37 65  1  0
M  END
>  <minimizedAffinity>  (10) 
-8.41051

>  <mol_id>  (10) 
93662

>  <source_index>  (10) 
9

>  <layer>  (10) 
L1

>  <uniprot>  (10) 
P0C6U8

>  <paff>  (10) 
7.2756999999999996

>  <smiles>  (10) 
O=C[C@H](C[C@@H]1CCNC1=O)NC(=O)[C@H](CC1CCCCC1)NC(=O)c1cc2ccccc2[nH]1

$$$$
