syk_000
     RDKit          3D

 52 55  0  0  1  0  0  0  0  0999 V2000
   -4.9439   -2.3659   16.3306 C   0  0  0  0  0  0  0  0  0  0  0  0
   -4.3161   -1.6512   15.2653 O   0  0  0  0  0  0  0  0  0  0  0  0
   -2.9317   -1.7720   15.2180 C   0  0  0  0  0  0  0  0  0  0  0  0
   -2.1893   -2.7036   15.9312 C   0  0  0  0  0  0  0  0  0  0  0  0
   -0.8092   -2.6035   16.0037 C   0  0  0  0  0  0  0  0  0  0  0  0
   -0.1370   -1.5733   15.3447 C   0  0  0  0  0  0  0  0  0  0  0  0
    1.2179   -1.3663   15.6410 N   0  0  0  0  0  0  0  0  0  0  0  0
    2.0445   -0.4393   15.0766 C   0  0  0  0  0  0  0  0  0  0  0  0
    1.5657    0.5048   14.2985 N   0  0  0  0  0  0  0  0  0  0  0  0
    2.3375    1.5341   13.8607 C   0  0  0  0  0  0  0  0  0  0  0  0
    3.6950    1.4931   13.9376 C   0  0  0  0  0  0  0  0  0  0  0  0
    4.2418    0.4826   14.6980 N   0  0  0  0  0  0  0  0  0  0  0  0
    5.5347    0.2529   15.1098 C   0  0  0  0  0  0  0  0  0  0  0  0
    5.4740   -0.8091   15.9932 C   0  0  0  0  0  0  0  0  0  0  0  0
    4.1829   -1.2541   16.1218 N   0  0  0  0  0  0  0  0  0  0  0  0
    3.4494   -0.4855   15.3408 C   0  0  0  0  0  0  0  0  0  0  0  0
    1.5562    2.6980   13.4031 C   0  0  0  0  0  0  0  0  0  0  0  0
    0.4318    3.0376   14.1563 C   0  0  0  0  0  0  0  0  0  0  0  0
   -0.5399    3.8592   13.6290 C   0  0  0  0  0  0  0  0  0  0  0  0
   -0.4260    4.3544   12.3316 C   0  0  0  0  0  0  0  0  0  0  0  0
   -1.6336    4.9677   11.7112 C   0  0  0  0  0  0  0  0  0  0  0  0
   -2.5681    5.4053   12.3999 O   0  0  0  0  0  0  0  0  0  0  0  0
   -1.7042    4.9472   10.3537 N   0  0  0  0  0  0  0  0  0  0  0  0
    0.8297    4.2306   11.7020 C   0  0  0  0  0  0  0  0  0  0  0  0
    1.0327    4.9541   10.5702 O   0  0  0  0  0  0  0  0  0  0  0  0
    2.3878    5.2843   10.2603 C   0  0  0  0  0  0  0  0  0  0  0  0
    1.8178    3.4088   12.2404 C   0  0  0  0  0  0  0  0  0  0  0  0
   -0.8656   -0.7724   14.4544 C   0  0  0  0  0  0  0  0  0  0  0  0
   -2.2512   -0.8166   14.4647 C   0  0  0  0  0  0  0  0  0  0  0  0
   -3.0390    0.1389   13.8389 O   0  0  0  0  0  0  0  0  0  0  0  0
   -2.3652    0.9813   12.8956 C   0  0  0  0  0  0  0  0  0  0  0  0
   -5.9871   -2.0536   16.3450 H   0  0  0  0  0  0  0  0  0  0  0  0
   -4.4745   -2.1351   17.2833 H   0  0  0  0  0  0  0  0  0  0  0  0
   -4.8921   -3.4427   16.1629 H   0  0  0  0  0  0  0  0  0  0  0  0
   -2.6536   -3.4944   16.5007 H   0  0  0  0  0  0  0  0  0  0  0  0
   -0.2659   -3.3072   16.6138 H   0  0  0  0  0  0  0  0  0  0  0  0
    1.5968   -1.9032   16.4285 H   0  0  0  0  0  0  0  0  0  0  0  0
    4.3601    2.2398   13.5407 H   0  0  0  0  0  0  0  0  0  0  0  0
    6.3751    0.8352   14.7732 H   0  0  0  0  0  0  0  0  0  0  0  0
    6.2975   -1.2715   16.5229 H   0  0  0  0  0  0  0  0  0  0  0  0
    0.3415    2.6204   15.1419 H   0  0  0  0  0  0  0  0  0  0  0  0
   -1.4160    4.1343   14.1914 H   0  0  0  0  0  0  0  0  0  0  0  0
   -2.4588    5.4404    9.9074 H   0  0  0  0  0  0  0  0  0  0  0  0
   -0.8630    4.8789    9.8045 H   0  0  0  0  0  0  0  0  0  0  0  0
    2.3258    6.0769    9.5206 H   0  0  0  0  0  0  0  0  0  0  0  0
    2.9044    4.4262    9.8305 H   0  0  0  0  0  0  0  0  0  0  0  0
    2.9233    5.6501   11.1337 H   0  0  0  0  0  0  0  0  0  0  0  0
    2.7836    3.3185   11.7628 H   0  0  0  0  0  0  0  0  0  0  0  0
   -0.3547   -0.1355   13.7598 H   0  0  0  0  0  0  0  0  0  0  0  0
   -3.1171    1.6259   12.4409 H   0  0  0  0  0  0  0  0  0  0  0  0
   -1.8975    0.3709   12.1343 H   0  0  0  0  0  0  0  0  0  0  0  0
   -1.6249    1.6035   13.3833 H   0  0  0  0  0  0  0  0  0  0  0  0
  1  2  1  0
  1 32  1  0
  1 33  1  0
  1 34  1  0
  2  3  1  0
  3  4  2  0
  3 29  1  0
  4  5  1  0
  4 35  1  0
  5  6  2  0
  5 36  1  0
  6  7  1  0
  6 28  1  0
  7  8  1  0
  7 37  1  0
  8  9  2  0
  8 16  1  0
  9 10  1  0
 10 11  2  0
 10 17  1  0
 11 12  1  0
 11 38  1  0
 12 13  1  0
 12 16  1  0
 13 14  2  0
 13 39  1  0
 14 15  1  0
 14 40  1  0
 15 16  2  0
 17 18  2  0
 17 27  1  0
 18 19  1  0
 18 41  1  0
 19 20  2  0
 19 42  1  0
 20 21  1  0
 20 24  1  0
 21 22  2  0
 21 23  1  0
 23 43  1  0
 23 44  1  0
 24 25  1  0
 24 27  2  0
 25 26  1  0
 26 45  1  0
 26 46  1  0
 26 47  1  0
 27 48  1  0
 28 29  2  0
 28 49  1  0
 29 30  1  0
 30 31  1  0
 31 50  1  0
 31 51  1  0
 31 52  1  0
M  END
>  <r_exp_dg>  (1) 
-10.4002

>  <mol_id>  (1) 
0

>  <source_index>  (1) 
0

>  <paff>  (1) 
7.6248030508718179

>  <source_r_exp_dg>  (1) 
-10.4002

>  <smiles>  (1) 
COc1ccc(Nc2nc(-c3ccc(C(N)=O)c(OC)c3)cn3ccnc23)cc1OC

>  <aimnet_interaction_kcal_mol>  (1) 
-103.24963081039752

$$$$
syk_002
     RDKit          3D

 48 52  0  0  1  0  0  0  0  0999 V2000
   -4.7936   -2.5807   16.0691 C   0  0  0  0  0  0  0  0  0  0  0  0
   -4.2019   -1.7186   15.0979 O   0  0  0  0  0  0  0  0  0  0  0  0
   -2.8127   -1.7756   15.0479 C   0  0  0  0  0  0  0  0  0  0  0  0
   -2.0377   -2.7616   15.6448 C   0  0  0  0  0  0  0  0  0  0  0  0
   -0.6638   -2.6178   15.7515 C   0  0  0  0  0  0  0  0  0  0  0  0
   -0.0284   -1.4821   15.2447 C   0  0  0  0  0  0  0  0  0  0  0  0
    1.3241   -1.2818   15.5313 N   0  0  0  0  0  0  0  0  0  0  0  0
    2.1858   -0.4516   14.8778 C   0  0  0  0  0  0  0  0  0  0  0  0
    1.7952    0.3406   13.9030 N   0  0  0  0  0  0  0  0  0  0  0  0
    2.6180    1.3215   13.4234 C   0  0  0  0  0  0  0  0  0  0  0  0
    3.9161    1.4379   13.8336 C   0  0  0  0  0  0  0  0  0  0  0  0
    4.3925    0.4868   14.7017 N   0  0  0  0  0  0  0  0  0  0  0  0
    5.6451    0.2655   15.2256 C   0  0  0  0  0  0  0  0  0  0  0  0
    5.5092   -0.7931   16.1082 C   0  0  0  0  0  0  0  0  0  0  0  0
    4.2078   -1.2296   16.1372 N   0  0  0  0  0  0  0  0  0  0  0  0
    3.5527   -0.4655   15.2831 C   0  0  0  0  0  0  0  0  0  0  0  0
    2.0226    2.1956   12.4011 C   0  0  0  0  0  0  0  0  0  0  0  0
    1.0779    1.6168   11.5213 C   0  0  0  0  0  0  0  0  0  0  0  0
    0.5437    2.3090   10.4518 C   0  0  0  0  0  0  0  0  0  0  0  0
    0.8434    3.6664   10.3424 C   0  0  0  0  0  0  0  0  0  0  0  0
    0.4209    4.6336    9.4617 N   0  0  0  0  0  0  0  0  0  0  0  0
    1.0520    5.8244    9.7588 C   0  0  0  0  0  0  0  0  0  0  0  0
    1.8811    5.6433   10.8262 C   0  0  0  0  0  0  0  0  0  0  0  0
    1.7683    4.2813   11.2232 C   0  0  0  0  0  0  0  0  0  0  0  0
    2.3685    3.5367   12.2453 C   0  0  0  0  0  0  0  0  0  0  0  0
   -0.7905   -0.5619   14.5148 C   0  0  0  0  0  0  0  0  0  0  0  0
   -2.1657   -0.7034   14.4373 C   0  0  0  0  0  0  0  0  0  0  0  0
   -2.9828    0.2626   13.8583 O   0  0  0  0  0  0  0  0  0  0  0  0
   -2.3384    1.0940   12.8918 C   0  0  0  0  0  0  0  0  0  0  0  0
   -5.8451   -2.3060   16.1324 H   0  0  0  0  0  0  0  0  0  0  0  0
   -4.3216   -2.4625   17.0417 H   0  0  0  0  0  0  0  0  0  0  0  0
   -4.7107   -3.6254   15.7662 H   0  0  0  0  0  0  0  0  0  0  0  0
   -2.4814   -3.6352   16.0951 H   0  0  0  0  0  0  0  0  0  0  0  0
   -0.0999   -3.3689   16.2833 H   0  0  0  0  0  0  0  0  0  0  0  0
    1.7298   -1.8035   16.3132 H   0  0  0  0  0  0  0  0  0  0  0  0
    4.5851    2.2253   13.5348 H   0  0  0  0  0  0  0  0  0  0  0  0
    6.5123    0.8381   14.9439 H   0  0  0  0  0  0  0  0  0  0  0  0
    6.2927   -1.2655   16.6919 H   0  0  0  0  0  0  0  0  0  0  0  0
    0.8224    0.5778   11.6768 H   0  0  0  0  0  0  0  0  0  0  0  0
    0.0072    1.7972    9.6753 H   0  0  0  0  0  0  0  0  0  0  0  0
   -0.2688    4.5471    8.7292 H   0  0  0  0  0  0  0  0  0  0  0  0
    0.8369    6.7078    9.1811 H   0  0  0  0  0  0  0  0  0  0  0  0
    2.5416    6.3651   11.2830 H   0  0  0  0  0  0  0  0  0  0  0  0
    3.0675    4.0232   12.9152 H   0  0  0  0  0  0  0  0  0  0  0  0
   -0.3010    0.2530   14.0174 H   0  0  0  0  0  0  0  0  0  0  0  0
   -3.1179    1.6491   12.3684 H   0  0  0  0  0  0  0  0  0  0  0  0
   -1.8000    0.4801   12.1822 H   0  0  0  0  0  0  0  0  0  0  0  0
   -1.6511    1.7872   13.3704 H   0  0  0  0  0  0  0  0  0  0  0  0
  1  2  1  0
  1 30  1  0
  1 31  1  0
  1 32  1  0
  2  3  1  0
  3  4  2  0
  3 27  1  0
  4  5  1  0
  4 33  1  0
  5  6  2  0
  5 34  1  0
  6  7  1  0
  6 26  1  0
  7  8  1  0
  7 35  1  0
  8  9  2  0
  8 16  1  0
  9 10  1  0
 10 11  2  0
 10 17  1  0
 11 12  1  0
 11 36  1  0
 12 13  1  0
 12 16  1  0
 13 14  2  0
 13 37  1  0
 14 15  1  0
 14 38  1  0
 15 16  2  0
 17 18  2  0
 17 25  1  0
 18 19  1  0
 18 39  1  0
 19 20  2  0
 19 40  1  0
 20 21  1  0
 20 24  1  0
 21 22  1  0
 21 41  1  0
 22 23  2  0
 22 42  1  0
 23 24  1  0
 23 43  1  0
 24 25  2  0
 25 44  1  0
 26 27  2  0
 26 45  1  0
 27 28  1  0
 28 29  1  0
 29 46  1  0
 29 47  1  0
 29 48  1  0
M  END
>  <r_exp_dg>  (2) 
-11.0033

>  <mol_id>  (2) 
2

>  <source_index>  (2) 
4

>  <paff>  (2) 
8.0669618421985252

>  <source_r_exp_dg>  (2) 
-11.003299999999999

>  <smiles>  (2) 
COc1ccc(Nc2nc(-c3ccc4[nH]ccc4c3)cn3ccnc23)cc1OC

>  <aimnet_interaction_kcal_mol>  (2) 
-95.784509990704564

$$$$
syk_003
     RDKit          3D

 50 54  0  0  1  0  0  0  0  0999 V2000
   -4.7201   -2.5858   16.0780 C   0  0  0  0  0  0  0  0  0  0  0  0
   -4.1434   -1.6952   15.1241 O   0  0  0  0  0  0  0  0  0  0  0  0
   -2.7557   -1.7297   15.0608 C   0  0  0  0  0  0  0  0  0  0  0  0
   -1.9479   -2.6580   15.7066 C   0  0  0  0  0  0  0  0  0  0  0  0
   -0.5745   -2.4843   15.7560 C   0  0  0  0  0  0  0  0  0  0  0  0
    0.0294   -1.3848   15.1412 C   0  0  0  0  0  0  0  0  0  0  0  0
    1.3936   -1.1727   15.3493 N   0  0  0  0  0  0  0  0  0  0  0  0
    2.2288   -0.2560   14.7857 C   0  0  0  0  0  0  0  0  0  0  0  0
    1.8394    0.6772   13.9434 N   0  0  0  0  0  0  0  0  0  0  0  0
    2.7064    1.6801   13.5872 C   0  0  0  0  0  0  0  0  0  0  0  0
    4.0420    1.6145   13.8599 C   0  0  0  0  0  0  0  0  0  0  0  0
    4.4794    0.5846   14.6572 N   0  0  0  0  0  0  0  0  0  0  0  0
    5.7119    0.2844   15.1893 C   0  0  0  0  0  0  0  0  0  0  0  0
    5.5123   -0.8042   16.0231 C   0  0  0  0  0  0  0  0  0  0  0  0
    4.1960   -1.1896   16.0029 N   0  0  0  0  0  0  0  0  0  0  0  0
    3.5944   -0.3533   15.1771 C   0  0  0  0  0  0  0  0  0  0  0  0
    2.0838    2.8514   12.9513 C   0  0  0  0  0  0  0  0  0  0  0  0
    0.6951    3.0527   13.1599 C   0  0  0  0  0  0  0  0  0  0  0  0
   -0.0427    3.9502   12.4208 C   0  0  0  0  0  0  0  0  0  0  0  0
    0.6471    4.7071   11.4746 C   0  0  0  0  0  0  0  0  0  0  0  0
    2.0522    4.6272   11.3432 C   0  0  0  0  0  0  0  0  0  0  0  0
    2.3568    5.5695   10.3284 C   0  0  0  0  0  0  0  0  0  0  0  0
    1.2715    6.1525    9.8568 N   0  0  0  0  0  0  0  0  0  0  0  0
    0.2244    5.6383   10.5776 N   0  0  0  0  0  0  0  0  0  0  0  0
   -1.1210    5.9760   10.2159 C   0  0  0  0  0  0  0  0  0  0  0  0
    2.7785    3.7444   12.1476 C   0  0  0  0  0  0  0  0  0  0  0  0
   -0.7678   -0.5256   14.3780 C   0  0  0  0  0  0  0  0  0  0  0  0
   -2.1443   -0.6868   14.3673 C   0  0  0  0  0  0  0  0  0  0  0  0
   -2.9976    0.2189   13.7523 O   0  0  0  0  0  0  0  0  0  0  0  0
   -2.3968    0.9985   12.7169 C   0  0  0  0  0  0  0  0  0  0  0  0
   -5.7818   -2.3503   16.1193 H   0  0  0  0  0  0  0  0  0  0  0  0
   -4.2749   -2.4528   17.0607 H   0  0  0  0  0  0  0  0  0  0  0  0
   -4.5900   -3.6248   15.7722 H   0  0  0  0  0  0  0  0  0  0  0  0
   -2.3551   -3.5019   16.2422 H   0  0  0  0  0  0  0  0  0  0  0  0
    0.0189   -3.1805   16.3299 H   0  0  0  0  0  0  0  0  0  0  0  0
    1.8557   -1.7462   16.0592 H   0  0  0  0  0  0  0  0  0  0  0  0
    4.7673    2.3503   13.5640 H   0  0  0  0  0  0  0  0  0  0  0  0
    6.6071    0.8317   14.9479 H   0  0  0  0  0  0  0  0  0  0  0  0
    6.2651   -1.3211   16.6100 H   0  0  0  0  0  0  0  0  0  0  0  0
    0.2316    2.4850   13.9515 H   0  0  0  0  0  0  0  0  0  0  0  0
   -1.1034    4.0859   12.5725 H   0  0  0  0  0  0  0  0  0  0  0  0
    3.3276    5.8817    9.9964 H   0  0  0  0  0  0  0  0  0  0  0  0
   -1.7647    5.9174   11.0930 H   0  0  0  0  0  0  0  0  0  0  0  0
   -1.5068    5.3155    9.4425 H   0  0  0  0  0  0  0  0  0  0  0  0
   -1.1283    6.9922    9.8340 H   0  0  0  0  0  0  0  0  0  0  0  0
    3.8562    3.8241   12.1816 H   0  0  0  0  0  0  0  0  0  0  0  0
   -0.2964    0.2379   13.7888 H   0  0  0  0  0  0  0  0  0  0  0  0
   -3.1815    1.3163   12.0330 H   0  0  0  0  0  0  0  0  0  0  0  0
   -1.6947    0.3951   12.1617 H   0  0  0  0  0  0  0  0  0  0  0  0
   -1.8928    1.8631   13.1434 H   0  0  0  0  0  0  0  0  0  0  0  0
  1  2  1  0
  1 31  1  0
  1 32  1  0
  1 33  1  0
  2  3  1  0
  3  4  2  0
  3 28  1  0
  4  5  1  0
  4 34  1  0
  5  6  2  0
  5 35  1  0
  6  7  1  0
  6 27  1  0
  7  8  1  0
  7 36  1  0
  8  9  2  0
  8 16  1  0
  9 10  1  0
 10 11  2  0
 10 17  1  0
 11 12  1  0
 11 37  1  0
 12 13  1  0
 12 16  1  0
 13 14  2  0
 13 38  1  0
 14 15  1  0
 14 39  1  0
 15 16  2  0
 17 18  2  0
 17 26  1  0
 18 19  1  0
 18 40  1  0
 19 20  2  0
 19 41  1  0
 20 21  1  0
 20 24  1  0
 21 22  1  0
 21 26  2  0
 22 23  2  0
 22 42  1  0
 23 24  1  0
 24 25  1  0
 25 43  1  0
 25 44  1  0
 25 45  1  0
 26 46  1  0
 27 28  2  0
 27 47  1  0
 28 29  1  0
 29 30  1  0
 30 48  1  0
 30 49  1  0
 30 50  1  0
M  END
>  <r_exp_dg>  (3) 
-10.4772

>  <mol_id>  (3) 
3

>  <source_index>  (3) 
5

>  <paff>  (3) 
7.6812439300447606

>  <source_r_exp_dg>  (3) 
-10.4772

>  <smiles>  (3) 
COc1ccc(Nc2nc(-c3ccc4c(cnn4C)c3)cn3ccnc23)cc1OC

>  <aimnet_interaction_kcal_mol>  (3) 
-85.645131609781998

$$$$
syk_004
     RDKit          3D

 54 59  0  0  1  0  0  0  0  0999 V2000
   -6.4012   -4.8055   13.6272 O   0  0  0  0  0  0  0  0  0  0  0  0
   -5.0381   -4.9787   14.2341 S   0  0  0  0  0  0  0  0  0  0  0  0
   -4.5065   -6.3532   14.3265 O   0  0  0  0  0  0  0  0  0  0  0  0
   -4.9254   -4.1806   15.8523 C   0  0  0  0  0  0  0  0  0  0  0  0
   -5.0257   -2.6515   15.7799 C   0  0  0  0  0  0  0  0  0  0  0  0
   -4.2465   -1.9328   14.7648 N   0  0  0  0  0  0  0  0  0  0  0  0
   -4.4500   -2.4838   13.4141 C   0  0  0  0  0  0  0  0  0  0  0  0
   -3.9408   -3.9101   13.2979 C   0  0  0  0  0  0  0  0  0  0  0  0
   -2.8340   -1.7714   15.0323 C   0  0  0  0  0  0  0  0  0  0  0  0
   -2.1323   -0.8473   14.2663 C   0  0  0  0  0  0  0  0  0  0  0  0
   -0.7808   -0.6272   14.4437 C   0  0  0  0  0  0  0  0  0  0  0  0
   -0.0457   -1.4134   15.3421 C   0  0  0  0  0  0  0  0  0  0  0  0
    1.3117   -1.2359   15.6025 N   0  0  0  0  0  0  0  0  0  0  0  0
    2.1973   -0.4313   14.9374 C   0  0  0  0  0  0  0  0  0  0  0  0
    1.8231    0.3705   13.9630 N   0  0  0  0  0  0  0  0  0  0  0  0
    2.6778    1.3243   13.4844 C   0  0  0  0  0  0  0  0  0  0  0  0
    3.9862    1.3822   13.8654 C   0  0  0  0  0  0  0  0  0  0  0  0
    4.4321    0.4328   14.7456 N   0  0  0  0  0  0  0  0  0  0  0  0
    5.6778    0.1907   15.2771 C   0  0  0  0  0  0  0  0  0  0  0  0
    5.5131   -0.8485   16.1743 C   0  0  0  0  0  0  0  0  0  0  0  0
    4.2013   -1.2548   16.2039 N   0  0  0  0  0  0  0  0  0  0  0  0
    3.5650   -0.4880   15.3373 C   0  0  0  0  0  0  0  0  0  0  0  0
    2.1108    2.2602   12.5023 C   0  0  0  0  0  0  0  0  0  0  0  0
    1.1247    1.7578   11.6115 C   0  0  0  0  0  0  0  0  0  0  0  0
    0.6119    2.5174   10.5893 C   0  0  0  0  0  0  0  0  0  0  0  0
    0.9985    3.8602   10.4888 C   0  0  0  0  0  0  0  0  0  0  0  0
    0.7205    4.9516    9.6289 C   0  0  0  0  0  0  0  0  0  0  0  0
    1.4549    6.0109    9.9596 N   0  0  0  0  0  0  0  0  0  0  0  0
    2.1700    5.6521   11.0445 N   0  0  0  0  0  0  0  0  0  0  0  0
    1.9625    4.3610   11.3962 C   0  0  0  0  0  0  0  0  0  0  0  0
    2.5298    3.5808   12.4094 C   0  0  0  0  0  0  0  0  0  0  0  0
   -0.7401   -2.4014   16.0485 C   0  0  0  0  0  0  0  0  0  0  0  0
   -2.1154   -2.5106   15.9623 C   0  0  0  0  0  0  0  0  0  0  0  0
   -5.7368   -4.5958   16.4455 H   0  0  0  0  0  0  0  0  0  0  0  0
   -3.9832   -4.5330   16.2604 H   0  0  0  0  0  0  0  0  0  0  0  0
   -6.0793   -2.4111   15.6150 H   0  0  0  0  0  0  0  0  0  0  0  0
   -4.7577   -2.2722   16.7642 H   0  0  0  0  0  0  0  0  0  0  0  0
   -5.5113   -2.4764   13.1584 H   0  0  0  0  0  0  0  0  0  0  0  0
   -3.9166   -1.8850   12.6805 H   0  0  0  0  0  0  0  0  0  0  0  0
   -3.9413   -4.2486   12.2707 H   0  0  0  0  0  0  0  0  0  0  0  0
   -2.9466   -4.0422   13.7127 H   0  0  0  0  0  0  0  0  0  0  0  0
   -2.6233   -0.3156   13.4618 H   0  0  0  0  0  0  0  0  0  0  0  0
   -0.2900    0.1316   13.8653 H   0  0  0  0  0  0  0  0  0  0  0  0
    1.7097   -1.7522   16.3965 H   0  0  0  0  0  0  0  0  0  0  0  0
    4.6874    2.1251   13.5286 H   0  0  0  0  0  0  0  0  0  0  0  0
    6.5581    0.7383   14.9860 H   0  0  0  0  0  0  0  0  0  0  0  0
    6.2862   -1.3276   16.7678 H   0  0  0  0  0  0  0  0  0  0  0  0
    0.8315    0.7261   11.7247 H   0  0  0  0  0  0  0  0  0  0  0  0
   -0.0032    2.0719    9.8289 H   0  0  0  0  0  0  0  0  0  0  0  0
    0.0367    5.0203    8.8026 H   0  0  0  0  0  0  0  0  0  0  0  0
    2.9181    6.2593   11.3967 H   0  0  0  0  0  0  0  0  0  0  0  0
    3.2434    4.0138   13.0982 H   0  0  0  0  0  0  0  0  0  0  0  0
   -0.2104   -3.0631   16.7166 H   0  0  0  0  0  0  0  0  0  0  0  0
   -2.5889   -3.1668   16.6719 H   0  0  0  0  0  0  0  0  0  0  0  0
  1  2  2  0
  2  3  2  0
  2  4  1  0
  2  8  1  0
  4  5  1  0
  4 34  1  0
  4 35  1  0
  5  6  1  0
  5 36  1  0
  5 37  1  0
  6  7  1  0
  6  9  1  0
  7  8  1  0
  7 38  1  0
  7 39  1  0
  8 40  1  0
  8 41  1  0
  9 10  2  0
  9 33  1  0
 10 11  1  0
 10 42  1  0
 11 12  2  0
 11 43  1  0
 12 13  1  0
 12 32  1  0
 13 14  1  0
 13 44  1  0
 14 15  2  0
 14 22  1  0
 15 16  1  0
 16 17  2  0
 16 23  1  0
 17 18  1  0
 17 45  1  0
 18 19  1  0
 18 22  1  0
 19 20  2  0
 19 46  1  0
 20 21  1  0
 20 47  1  0
 21 22  2  0
 23 24  2  0
 23 31  1  0
 24 25  1  0
 24 48  1  0
 25 26  2  0
 25 49  1  0
 26 27  1  0
 26 30  1  0
 27 28  2  0
 27 50  1  0
 28 29  1  0
 29 30  1  0
 29 51  1  0
 30 31  2  0
 31 52  1  0
 32 33  2  0
 32 53  1  0
 33 54  1  0
M  END
>  <r_exp_dg>  (4) 
-11.8386

>  <mol_id>  (4) 
4

>  <source_index>  (4) 
6

>  <paff>  (4) 
8.6793514990037473

>  <source_r_exp_dg>  (4) 
-11.8386

>  <smiles>  (4) 
O=S1(=O)CCN(c2ccc(Nc3nc(-c4ccc5cn[nH]c5c4)cn4ccnc34)cc2)CC1

>  <aimnet_interaction_kcal_mol>  (4) 
-116.81208816049734

$$$$
syk_005
     RDKit          3D

 39 43  0  0  1  0  0  0  0  0999 V2000
    1.3154   -1.2255   15.6411 N   0  0  0  0  0  0  0  0  0  0  0  0
   -0.0267   -1.4573   15.3426 C   0  0  0  0  0  0  0  0  0  0  0  0
   -0.6712   -2.5216   15.9858 C   0  0  0  0  0  0  0  0  0  0  0  0
   -1.9983   -2.8060   15.7242 C   0  0  0  0  0  0  0  0  0  0  0  0
   -2.7091   -2.0486   14.8022 C   0  0  0  0  0  0  0  0  0  0  0  0
   -2.0790   -0.9930   14.1604 C   0  0  0  0  0  0  0  0  0  0  0  0
   -0.7626   -0.6696   14.4469 C   0  0  0  0  0  0  0  0  0  0  0  0
    2.1990   -0.4375   14.9626 C   0  0  0  0  0  0  0  0  0  0  0  0
    1.8240    0.3646   13.9872 N   0  0  0  0  0  0  0  0  0  0  0  0
    2.6838    1.2946   13.4812 C   0  0  0  0  0  0  0  0  0  0  0  0
    4.0047    1.3266   13.8247 C   0  0  0  0  0  0  0  0  0  0  0  0
    4.4413    0.4031   14.7334 N   0  0  0  0  0  0  0  0  0  0  0  0
    5.6867    0.1711   15.2721 C   0  0  0  0  0  0  0  0  0  0  0  0
    5.5214   -0.8494   16.1877 C   0  0  0  0  0  0  0  0  0  0  0  0
    4.2088   -1.2537   16.2248 N   0  0  0  0  0  0  0  0  0  0  0  0
    3.5715   -0.5008   15.3476 C   0  0  0  0  0  0  0  0  0  0  0  0
    2.1038    2.2462   12.5227 C   0  0  0  0  0  0  0  0  0  0  0  0
    0.9782    1.8124   11.7727 C   0  0  0  0  0  0  0  0  0  0  0  0
    0.3662    2.6173   10.8456 C   0  0  0  0  0  0  0  0  0  0  0  0
    0.9050    3.8840   10.5875 C   0  0  0  0  0  0  0  0  0  0  0  0
    0.6524    4.9537    9.6928 C   0  0  0  0  0  0  0  0  0  0  0  0
    1.5111    5.9513    9.8993 N   0  0  0  0  0  0  0  0  0  0  0  0
    2.3052    5.5639   10.9151 N   0  0  0  0  0  0  0  0  0  0  0  0
    2.0088    4.3202   11.3598 C   0  0  0  0  0  0  0  0  0  0  0  0
    2.6058    3.5284   12.3472 C   0  0  0  0  0  0  0  0  0  0  0  0
    1.7060   -1.7405   16.4391 H   0  0  0  0  0  0  0  0  0  0  0  0
   -0.1332   -3.1229   16.7022 H   0  0  0  0  0  0  0  0  0  0  0  0
   -2.4611   -3.6222   16.2607 H   0  0  0  0  0  0  0  0  0  0  0  0
   -3.7245   -2.3279   14.5457 H   0  0  0  0  0  0  0  0  0  0  0  0
   -2.5701   -0.4593   13.3564 H   0  0  0  0  0  0  0  0  0  0  0  0
   -0.3009    0.1679   13.9598 H   0  0  0  0  0  0  0  0  0  0  0  0
    4.7226    2.0240   13.4323 H   0  0  0  0  0  0  0  0  0  0  0  0
    6.5668    0.7148   14.9750 H   0  0  0  0  0  0  0  0  0  0  0  0
    6.2920   -1.3196   16.7906 H   0  0  0  0  0  0  0  0  0  0  0  0
    0.6213    0.8104   11.9523 H   0  0  0  0  0  0  0  0  0  0  0  0
   -0.5233    2.2847   10.3425 H   0  0  0  0  0  0  0  0  0  0  0  0
   -0.0925    5.0500    8.9226 H   0  0  0  0  0  0  0  0  0  0  0  0
    3.0589    6.1755   11.2562 H   0  0  0  0  0  0  0  0  0  0  0  0
    3.3922    3.9320   12.9717 H   0  0  0  0  0  0  0  0  0  0  0  0
  1  2  1  0
  1  8  1  0
  1 26  1  0
  2  3  2  0
  2  7  1  0
  3  4  1  0
  3 27  1  0
  4  5  2  0
  4 28  1  0
  5  6  1  0
  5 29  1  0
  6  7  2  0
  6 30  1  0
  7 31  1  0
  8  9  2  0
  8 16  1  0
  9 10  1  0
 10 11  2  0
 10 17  1  0
 11 12  1  0
 11 32  1  0
 12 13  1  0
 12 16  1  0
 13 14  2  0
 13 33  1  0
 14 15  1  0
 14 34  1  0
 15 16  2  0
 17 18  2  0
 17 25  1  0
 18 19  1  0
 18 35  1  0
 19 20  2  0
 19 36  1  0
 20 21  1  0
 20 24  1  0
 21 22  2  0
 21 37  1  0
 22 23  1  0
 23 24  1  0
 23 38  1  0
 24 25  2  0
 25 39  1  0
M  END
>  <r_exp_dg>  (5) 
-10.3299

>  <mol_id>  (5) 
5

>  <source_index>  (5) 
7

>  <paff>  (5) 
7.5732361186634405

>  <source_r_exp_dg>  (5) 
-10.3299

>  <smiles>  (5) 
c1ccc(Nc2nc(-c3ccc4cn[nH]c4c3)cn3ccnc23)cc1

>  <aimnet_interaction_kcal_mol>  (5) 
-80.530663666816736

$$$$
syk_006
     RDKit          3D

 43 47  0  0  1  0  0  0  0  0999 V2000
   -4.1525   -1.7581   12.9260 C   0  0  0  0  0  0  0  0  0  0  0  0
   -3.4138   -0.9428   13.8289 O   0  0  0  0  0  0  0  0  0  0  0  0
   -2.4121   -1.6480   14.5247 C   0  0  0  0  0  0  0  0  0  0  0  0
   -2.6655   -2.9254   14.9865 C   0  0  0  0  0  0  0  0  0  0  0  0
   -1.6487   -3.6191   15.6299 C   0  0  0  0  0  0  0  0  0  0  0  0
   -0.4136   -3.0386   15.8116 C   0  0  0  0  0  0  0  0  0  0  0  0
   -0.1702   -1.7353   15.3712 C   0  0  0  0  0  0  0  0  0  0  0  0
    1.0806   -1.1950   15.6717 N   0  0  0  0  0  0  0  0  0  0  0  0
    1.8346   -0.3186   14.9514 C   0  0  0  0  0  0  0  0  0  0  0  0
    1.3423    0.5244   14.0638 N   0  0  0  0  0  0  0  0  0  0  0  0
    2.1887    1.4281   13.4673 C   0  0  0  0  0  0  0  0  0  0  0  0
    3.5471    1.3912   13.6328 C   0  0  0  0  0  0  0  0  0  0  0  0
    4.0683    0.4967   14.5267 N   0  0  0  0  0  0  0  0  0  0  0  0
    5.3465    0.2768   14.9895 C   0  0  0  0  0  0  0  0  0  0  0  0
    5.2256   -0.7006   15.9592 C   0  0  0  0  0  0  0  0  0  0  0  0
    3.9164   -1.0945   16.0963 N   0  0  0  0  0  0  0  0  0  0  0  0
    3.2338   -0.3632   15.2343 C   0  0  0  0  0  0  0  0  0  0  0  0
    1.5772    2.4608   12.6139 C   0  0  0  0  0  0  0  0  0  0  0  0
    0.3287    2.1961   11.9915 C   0  0  0  0  0  0  0  0  0  0  0  0
   -0.2373    3.0733   11.0947 C   0  0  0  0  0  0  0  0  0  0  0  0
    0.4654    4.2398   10.7521 C   0  0  0  0  0  0  0  0  0  0  0  0
    0.3174    5.3096    9.8335 C   0  0  0  0  0  0  0  0  0  0  0  0
    1.3304    6.1687    9.9431 N   0  0  0  0  0  0  0  0  0  0  0  0
    2.1275    5.6953   10.9206 N   0  0  0  0  0  0  0  0  0  0  0  0
    1.6731    4.5276   11.4339 C   0  0  0  0  0  0  0  0  0  0  0  0
    2.2175    3.6751   12.3957 C   0  0  0  0  0  0  0  0  0  0  0  0
   -1.1785   -1.0322   14.6965 C   0  0  0  0  0  0  0  0  0  0  0  0
   -4.5489   -1.1232   12.1378 H   0  0  0  0  0  0  0  0  0  0  0  0
   -4.9588   -2.2988   13.4406 H   0  0  0  0  0  0  0  0  0  0  0  0
   -3.4929   -2.4795   12.4521 H   0  0  0  0  0  0  0  0  0  0  0  0
   -3.6332   -3.3882   14.8660 H   0  0  0  0  0  0  0  0  0  0  0  0
   -1.8309   -4.6018   16.0313 H   0  0  0  0  0  0  0  0  0  0  0  0
    0.3607   -3.5786   16.3334 H   0  0  0  0  0  0  0  0  0  0  0  0
    1.6039   -1.6677   16.4199 H   0  0  0  0  0  0  0  0  0  0  0  0
    4.2376    2.0232   13.1060 H   0  0  0  0  0  0  0  0  0  0  0  0
    6.2124    0.8038   14.6286 H   0  0  0  0  0  0  0  0  0  0  0  0
    6.0185   -1.1290   16.5536 H   0  0  0  0  0  0  0  0  0  0  0  0
   -0.1707    1.2717   12.2378 H   0  0  0  0  0  0  0  0  0  0  0  0
   -1.2175    2.8860   10.6804 H   0  0  0  0  0  0  0  0  0  0  0  0
   -0.4551    5.4952    9.1079 H   0  0  0  0  0  0  0  0  0  0  0  0
    2.9473    6.2264   11.2327 H   0  0  0  0  0  0  0  0  0  0  0  0
    3.0812    3.9882   12.9669 H   0  0  0  0  0  0  0  0  0  0  0  0
   -0.9670   -0.0474   14.3098 H   0  0  0  0  0  0  0  0  0  0  0  0
  1  2  1  0
  1 28  1  0
  1 29  1  0
  1 30  1  0
  2  3  1  0
  3  4  2  0
  3 27  1  0
  4  5  1  0
  4 31  1  0
  5  6  2  0
  5 32  1  0
  6  7  1  0
  6 33  1  0
  7  8  1  0
  7 27  2  0
  8  9  1  0
  8 34  1  0
  9 10  2  0
  9 17  1  0
 10 11  1  0
 11 12  2  0
 11 18  1  0
 12 13  1  0
 12 35  1  0
 13 14  1  0
 13 17  1  0
 14 15  2  0
 14 36  1  0
 15 16  1  0
 15 37  1  0
 16 17  2  0
 18 19  2  0
 18 26  1  0
 19 20  1  0
 19 38  1  0
 20 21  2  0
 20 39  1  0
 21 22  1  0
 21 25  1  0
 22 23  2  0
 22 40  1  0
 23 24  1  0
 24 25  1  0
 24 41  1  0
 25 26  2  0
 26 42  1  0
 27 43  1  0
M  END
>  <r_exp_dg>  (6) 
-11.0103

>  <mol_id>  (6) 
6

>  <source_index>  (6) 
8

>  <paff>  (6) 
8.0720420457051283

>  <source_r_exp_dg>  (6) 
-11.010300000000001

>  <smiles>  (6) 
COc1cccc(Nc2nc(-c3ccc4cn[nH]c4c3)cn3ccnc23)c1

>  <aimnet_interaction_kcal_mol>  (6) 
-87.730355488913716

$$$$
syk_007
     RDKit          3D

 52 57  0  0  1  0  0  0  0  0999 V2000
   -5.4994   -2.8850   12.2891 C   0  0  0  0  0  0  0  0  0  0  0  0
   -4.1256   -2.5891   12.8223 C   0  0  0  0  0  0  0  0  0  0  0  0
   -4.1741   -2.1977   14.2459 N   0  0  0  0  0  0  0  0  0  0  0  0
   -4.8421   -3.2585   15.0089 C   0  0  0  0  0  0  0  0  0  0  0  0
   -6.1992   -3.5739   14.4203 C   0  0  0  0  0  0  0  0  0  0  0  0
   -6.1225   -3.9459   13.0344 O   0  0  0  0  0  0  0  0  0  0  0  0
   -2.8342   -1.9086   14.7126 C   0  0  0  0  0  0  0  0  0  0  0  0
   -2.1431   -2.6945   15.6339 C   0  0  0  0  0  0  0  0  0  0  0  0
   -0.8053   -2.4671   15.9116 C   0  0  0  0  0  0  0  0  0  0  0  0
   -0.1119   -1.4025   15.3226 C   0  0  0  0  0  0  0  0  0  0  0  0
    1.2396   -1.2252   15.6358 N   0  0  0  0  0  0  0  0  0  0  0  0
    2.1494   -0.4512   14.9673 C   0  0  0  0  0  0  0  0  0  0  0  0
    1.7825    0.3483   13.9874 N   0  0  0  0  0  0  0  0  0  0  0  0
    2.6427    1.2803   13.4832 C   0  0  0  0  0  0  0  0  0  0  0  0
    3.9616    1.3074   13.8290 C   0  0  0  0  0  0  0  0  0  0  0  0
    4.3954    0.3814   14.7360 N   0  0  0  0  0  0  0  0  0  0  0  0
    5.6428    0.1497   15.2680 C   0  0  0  0  0  0  0  0  0  0  0  0
    5.4818   -0.8694   16.1854 C   0  0  0  0  0  0  0  0  0  0  0  0
    4.1689   -1.2721   16.2289 N   0  0  0  0  0  0  0  0  0  0  0  0
    3.5242   -0.5211   15.3553 C   0  0  0  0  0  0  0  0  0  0  0  0
    2.0648    2.2378   12.5315 C   0  0  0  0  0  0  0  0  0  0  0  0
    0.9243    1.8186   11.7948 C   0  0  0  0  0  0  0  0  0  0  0  0
    0.3136    2.6326   10.8746 C   0  0  0  0  0  0  0  0  0  0  0  0
    0.8705    3.8900   10.6053 C   0  0  0  0  0  0  0  0  0  0  0  0
    0.6259    4.9610    9.7101 C   0  0  0  0  0  0  0  0  0  0  0  0
    1.4967    5.9493    9.9113 N   0  0  0  0  0  0  0  0  0  0  0  0
    2.2926    5.5538   10.9227 N   0  0  0  0  0  0  0  0  0  0  0  0
    1.9847    4.3136   11.3698 C   0  0  0  0  0  0  0  0  0  0  0  0
    2.5796    3.5147   12.3525 C   0  0  0  0  0  0  0  0  0  0  0  0
   -0.8390   -0.5475   14.4814 C   0  0  0  0  0  0  0  0  0  0  0  0
   -2.1535   -0.8278   14.1590 C   0  0  0  0  0  0  0  0  0  0  0  0
   -5.4367   -3.1882   11.2464 H   0  0  0  0  0  0  0  0  0  0  0  0
   -6.1381   -1.9944   12.3396 H   0  0  0  0  0  0  0  0  0  0  0  0
   -3.4979   -3.4769   12.7035 H   0  0  0  0  0  0  0  0  0  0  0  0
   -3.6553   -1.8085   12.2343 H   0  0  0  0  0  0  0  0  0  0  0  0
   -4.2405   -4.1741   15.0016 H   0  0  0  0  0  0  0  0  0  0  0  0
   -4.9569   -2.9547   16.0498 H   0  0  0  0  0  0  0  0  0  0  0  0
   -6.6521   -4.4122   14.9434 H   0  0  0  0  0  0  0  0  0  0  0  0
   -6.8728   -2.7146   14.5154 H   0  0  0  0  0  0  0  0  0  0  0  0
   -2.6271   -3.4948   16.1705 H   0  0  0  0  0  0  0  0  0  0  0  0
   -0.3071   -3.1096   16.6239 H   0  0  0  0  0  0  0  0  0  0  0  0
    1.6045   -1.7549   16.4380 H   0  0  0  0  0  0  0  0  0  0  0  0
    4.6822    2.0048   13.4414 H   0  0  0  0  0  0  0  0  0  0  0  0
    6.5219    0.6943   14.9681 H   0  0  0  0  0  0  0  0  0  0  0  0
    6.2565   -1.3375   16.7845 H   0  0  0  0  0  0  0  0  0  0  0  0
    0.5530    0.8237   11.9848 H   0  0  0  0  0  0  0  0  0  0  0  0
   -0.5938    2.3196   10.3904 H   0  0  0  0  0  0  0  0  0  0  0  0
   -0.1202    5.0639    8.9416 H   0  0  0  0  0  0  0  0  0  0  0  0
    3.0484    6.1618   11.2640 H   0  0  0  0  0  0  0  0  0  0  0  0
    3.3744    3.9106   12.9716 H   0  0  0  0  0  0  0  0  0  0  0  0
   -0.3661    0.3196   14.0613 H   0  0  0  0  0  0  0  0  0  0  0  0
   -2.6156   -0.2390   13.3761 H   0  0  0  0  0  0  0  0  0  0  0  0
  1  2  1  0
  1  6  1  0
  1 32  1  0
  1 33  1  0
  2  3  1  0
  2 34  1  0
  2 35  1  0
  3  4  1  0
  3  7  1  0
  4  5  1  0
  4 36  1  0
  4 37  1  0
  5  6  1  0
  5 38  1  0
  5 39  1  0
  7  8  2  0
  7 31  1  0
  8  9  1  0
  8 40  1  0
  9 10  2  0
  9 41  1  0
 10 11  1  0
 10 30  1  0
 11 12  1  0
 11 42  1  0
 12 13  2  0
 12 20  1  0
 13 14  1  0
 14 15  2  0
 14 21  1  0
 15 16  1  0
 15 43  1  0
 16 17  1  0
 16 20  1  0
 17 18  2  0
 17 44  1  0
 18 19  1  0
 18 45  1  0
 19 20  2  0
 21 22  2  0
 21 29  1  0
 22 23  1  0
 22 46  1  0
 23 24  2  0
 23 47  1  0
 24 25  1  0
 24 28  1  0
 25 26  2  0
 25 48  1  0
 26 27  1  0
 27 28  1  0
 27 49  1  0
 28 29  2  0
 29 50  1  0
 30 31  2  0
 30 51  1  0
 31 52  1  0
M  END
>  <r_exp_dg>  (7) 
-11.0688

>  <mol_id>  (7) 
7

>  <source_index>  (7) 
9

>  <paff>  (7) 
8.1149776660102546

>  <source_r_exp_dg>  (7) 
-11.0688

>  <smiles>  (7) 
c1cn2cc(-c3ccc4cn[nH]c4c3)nc(Nc3ccc(N4CCOCC4)cc3)c2n1

>  <aimnet_interaction_kcal_mol>  (7) 
-110.31270417226733

$$$$
syk_008
     RDKit          3D

 58 63  0  0  1  0  0  0  0  0999 V2000
   -7.9057   -2.9175   14.0382 C   0  0  0  0  0  0  0  0  0  0  0  0
   -6.4036   -2.8544   14.1862 C   0  0  0  0  0  0  0  0  0  0  0  0
   -6.1271   -1.6463   14.9554 O   0  0  0  0  0  0  0  0  0  0  0  0
   -5.8434   -4.0648   14.9360 C   0  0  0  0  0  0  0  0  0  0  0  0
   -4.3231   -3.9665   15.1470 C   0  0  0  0  0  0  0  0  0  0  0  0
   -3.7947   -2.8180   14.4110 N   0  0  0  0  0  0  0  0  0  0  0  0
   -4.1656   -2.8785   12.9912 C   0  0  0  0  0  0  0  0  0  0  0  0
   -5.6870   -2.7584   12.8390 C   0  0  0  0  0  0  0  0  0  0  0  0
   -2.4599   -2.4413   14.7053 C   0  0  0  0  0  0  0  0  0  0  0  0
   -1.6408   -3.2012   15.5387 C   0  0  0  0  0  0  0  0  0  0  0  0
   -0.3423   -2.8172   15.7936 C   0  0  0  0  0  0  0  0  0  0  0  0
    0.1656   -1.6187   15.2888 C   0  0  0  0  0  0  0  0  0  0  0  0
    1.4647   -1.2581   15.6371 N   0  0  0  0  0  0  0  0  0  0  0  0
    2.3037   -0.4318   14.9634 C   0  0  0  0  0  0  0  0  0  0  0  0
    1.9002    0.3655   13.9943 N   0  0  0  0  0  0  0  0  0  0  0  0
    2.7474    1.3119   13.4931 C   0  0  0  0  0  0  0  0  0  0  0  0
    4.0703    1.3656   13.8329 C   0  0  0  0  0  0  0  0  0  0  0  0
    4.5263    0.4522   14.7458 N   0  0  0  0  0  0  0  0  0  0  0  0
    5.7700    0.2355   15.2945 C   0  0  0  0  0  0  0  0  0  0  0  0
    5.6093   -0.7876   16.2123 C   0  0  0  0  0  0  0  0  0  0  0  0
    4.3036   -1.2099   16.2372 N   0  0  0  0  0  0  0  0  0  0  0  0
    3.6692   -0.4626   15.3532 C   0  0  0  0  0  0  0  0  0  0  0  0
    2.1461    2.2575   12.5415 C   0  0  0  0  0  0  0  0  0  0  0  0
    1.0225    1.8068   11.7976 C   0  0  0  0  0  0  0  0  0  0  0  0
    0.4021    2.5967   10.8636 C   0  0  0  0  0  0  0  0  0  0  0  0
    0.9222    3.8706   10.6007 C   0  0  0  0  0  0  0  0  0  0  0  0
    0.6563    4.9322    9.7002 C   0  0  0  0  0  0  0  0  0  0  0  0
    1.5008    5.9427    9.9030 N   0  0  0  0  0  0  0  0  0  0  0  0
    2.2968    5.5724   10.9236 N   0  0  0  0  0  0  0  0  0  0  0  0
    2.0183    4.3263   11.3735 C   0  0  0  0  0  0  0  0  0  0  0  0
    2.6274    3.5470   12.3635 C   0  0  0  0  0  0  0  0  0  0  0  0
   -0.6630   -0.8324   14.4858 C   0  0  0  0  0  0  0  0  0  0  0  0
   -1.9372   -1.2635   14.1735 C   0  0  0  0  0  0  0  0  0  0  0  0
   -8.2015   -3.8247   13.5112 H   0  0  0  0  0  0  0  0  0  0  0  0
   -8.2687   -2.0632   13.4681 H   0  0  0  0  0  0  0  0  0  0  0  0
   -8.3901   -2.9128   15.0117 H   0  0  0  0  0  0  0  0  0  0  0  0
   -5.1887   -1.7646   15.2329 H   0  0  0  0  0  0  0  0  0  0  0  0
   -6.3614   -4.1745   15.8876 H   0  0  0  0  0  0  0  0  0  0  0  0
   -6.0814   -4.9605   14.3539 H   0  0  0  0  0  0  0  0  0  0  0  0
   -3.8342   -4.8958   14.8278 H   0  0  0  0  0  0  0  0  0  0  0  0
   -4.0846   -3.8323   16.1990 H   0  0  0  0  0  0  0  0  0  0  0  0
   -3.8152   -3.8257   12.5649 H   0  0  0  0  0  0  0  0  0  0  0  0
   -3.6507   -2.0980   12.4389 H   0  0  0  0  0  0  0  0  0  0  0  0
   -5.9564   -1.8209   12.3503 H   0  0  0  0  0  0  0  0  0  0  0  0
   -6.0675   -3.5480   12.1833 H   0  0  0  0  0  0  0  0  0  0  0  0
   -1.9940   -4.0893   16.0348 H   0  0  0  0  0  0  0  0  0  0  0  0
    0.2772   -3.4408   16.4205 H   0  0  0  0  0  0  0  0  0  0  0  0
    1.8791   -1.7377   16.4429 H   0  0  0  0  0  0  0  0  0  0  0  0
    4.7730    2.0773   13.4380 H   0  0  0  0  0  0  0  0  0  0  0  0
    6.6456    0.7865   14.9987 H   0  0  0  0  0  0  0  0  0  0  0  0
    6.3765   -1.2521   16.8233 H   0  0  0  0  0  0  0  0  0  0  0  0
    0.6764    0.8029   11.9888 H   0  0  0  0  0  0  0  0  0  0  0  0
   -0.4772    2.2452   10.3554 H   0  0  0  0  0  0  0  0  0  0  0  0
   -0.0873    5.0150    8.9270 H   0  0  0  0  0  0  0  0  0  0  0  0
    3.0483    6.1898   11.2577 H   0  0  0  0  0  0  0  0  0  0  0  0
    3.4066    3.9661   12.9865 H   0  0  0  0  0  0  0  0  0  0  0  0
   -0.2869    0.0882   14.0771 H   0  0  0  0  0  0  0  0  0  0  0  0
   -2.5012   -0.6821   13.4546 H   0  0  0  0  0  0  0  0  0  0  0  0
  1  2  1  0
  1 34  1  0
  1 35  1  0
  1 36  1  0
  2  3  1  0
  2  4  1  0
  2  8  1  0
  3 37  1  0
  4  5  1  0
  4 38  1  0
  4 39  1  0
  5  6  1  0
  5 40  1  0
  5 41  1  0
  6  7  1  0
  6  9  1  0
  7  8  1  0
  7 42  1  0
  7 43  1  0
  8 44  1  0
  8 45  1  0
  9 10  2  0
  9 33  1  0
 10 11  1  0
 10 46  1  0
 11 12  2  0
 11 47  1  0
 12 13  1  0
 12 32  1  0
 13 14  1  0
 13 48  1  0
 14 15  2  0
 14 22  1  0
 15 16  1  0
 16 17  2  0
 16 23  1  0
 17 18  1  0
 17 49  1  0
 18 19  1  0
 18 22  1  0
 19 20  2  0
 19 50  1  0
 20 21  1  0
 20 51  1  0
 21 22  2  0
 23 24  2  0
 23 31  1  0
 24 25  1  0
 24 52  1  0
 25 26  2  0
 25 53  1  0
 26 27  1  0
 26 30  1  0
 27 28  2  0
 27 54  1  0
 28 29  1  0
 29 30  1  0
 29 55  1  0
 30 31  2  0
 31 56  1  0
 32 33  2  0
 32 57  1  0
 33 58  1  0
M  END
>  <r_exp_dg>  (8) 
-12.0789

>  <mol_id>  (8) 
8

>  <source_index>  (8) 
10

>  <paff>  (8) 
8.8554743098373638

>  <source_r_exp_dg>  (8) 
-12.078900000000001

>  <smiles>  (8) 
CC1(O)CCN(c2ccc(Nc3nc(-c4ccc5cn[nH]c5c4)cn4ccnc34)cc2)CC1

>  <aimnet_interaction_kcal_mol>  (8) 
-111.25903066396259

$$$$
syk_009
     RDKit          3D

 56 61  0  0  1  0  0  0  0  0999 V2000
   -2.2446    1.0680   12.9238 C   0  0  0  0  0  0  0  0  0  0  0  0
   -2.8749    0.2254   13.8904 O   0  0  0  0  0  0  0  0  0  0  0  0
   -2.0510   -0.7420   14.4527 C   0  0  0  0  0  0  0  0  0  0  0  0
   -0.6816   -0.5553   14.5703 C   0  0  0  0  0  0  0  0  0  0  0  0
    0.0972   -1.4971   15.2521 C   0  0  0  0  0  0  0  0  0  0  0  0
    1.4380   -1.2747   15.5612 N   0  0  0  0  0  0  0  0  0  0  0  0
    2.3002   -0.4405   14.9180 C   0  0  0  0  0  0  0  0  0  0  0  0
    1.9201    0.3628   13.9478 N   0  0  0  0  0  0  0  0  0  0  0  0
    2.7656    1.3280   13.4775 C   0  0  0  0  0  0  0  0  0  0  0  0
    4.0779    1.3885   13.8489 C   0  0  0  0  0  0  0  0  0  0  0  0
    4.5232    0.4549   14.7488 N   0  0  0  0  0  0  0  0  0  0  0  0
    5.7621    0.2276   15.3026 C   0  0  0  0  0  0  0  0  0  0  0  0
    5.5925   -0.8083   16.2047 C   0  0  0  0  0  0  0  0  0  0  0  0
    4.2864   -1.2284   16.2138 N   0  0  0  0  0  0  0  0  0  0  0  0
    3.6588   -0.4705   15.3347 C   0  0  0  0  0  0  0  0  0  0  0  0
    2.1698    2.2778   12.5251 C   0  0  0  0  0  0  0  0  0  0  0  0
    1.0617    1.8187   11.7609 C   0  0  0  0  0  0  0  0  0  0  0  0
    0.4251    2.6179   10.8435 C   0  0  0  0  0  0  0  0  0  0  0  0
    0.9259    3.9048   10.6048 C   0  0  0  0  0  0  0  0  0  0  0  0
    0.6518    4.9738    9.7159 C   0  0  0  0  0  0  0  0  0  0  0  0
    1.4869    5.9901    9.9328 N   0  0  0  0  0  0  0  0  0  0  0  0
    2.2805    5.6168   10.9531 N   0  0  0  0  0  0  0  0  0  0  0  0
    2.0151    4.3619   11.3865 C   0  0  0  0  0  0  0  0  0  0  0  0
    2.6326    3.5773   12.3681 C   0  0  0  0  0  0  0  0  0  0  0  0
   -0.5037   -2.6829   15.6888 C   0  0  0  0  0  0  0  0  0  0  0  0
   -1.8655   -2.8548   15.5493 C   0  0  0  0  0  0  0  0  0  0  0  0
   -2.6745   -1.8665   14.9899 C   0  0  0  0  0  0  0  0  0  0  0  0
   -4.1071   -1.9223   15.0017 N   0  0  0  0  0  0  0  0  0  0  0  0
   -4.6903   -2.1418   16.3284 C   0  0  0  0  0  0  0  0  0  0  0  0
   -6.2095   -1.9787   16.2499 C   0  0  0  0  0  0  0  0  0  0  0  0
   -6.6443   -1.8127   14.8845 O   0  0  0  0  0  0  0  0  0  0  0  0
   -6.1600   -2.8948   14.0834 C   0  0  0  0  0  0  0  0  0  0  0  0
   -4.6254   -2.8848   14.0377 C   0  0  0  0  0  0  0  0  0  0  0  0
   -3.0368    1.5900   12.3896 H   0  0  0  0  0  0  0  0  0  0  0  0
   -1.6786    0.4695   12.2226 H   0  0  0  0  0  0  0  0  0  0  0  0
   -1.5839    1.7881   13.3993 H   0  0  0  0  0  0  0  0  0  0  0  0
   -0.2104    0.3166   14.1611 H   0  0  0  0  0  0  0  0  0  0  0  0
    1.8421   -1.7903   16.3486 H   0  0  0  0  0  0  0  0  0  0  0  0
    4.7805    2.1205   13.4928 H   0  0  0  0  0  0  0  0  0  0  0  0
    6.6412    0.7797   15.0187 H   0  0  0  0  0  0  0  0  0  0  0  0
    6.3559   -1.2806   16.8148 H   0  0  0  0  0  0  0  0  0  0  0  0
    0.7484    0.7975   11.9152 H   0  0  0  0  0  0  0  0  0  0  0  0
   -0.4436    2.2617   10.3235 H   0  0  0  0  0  0  0  0  0  0  0  0
   -0.0895    5.0553    8.9403 H   0  0  0  0  0  0  0  0  0  0  0  0
    3.0433    6.2260   11.2841 H   0  0  0  0  0  0  0  0  0  0  0  0
    3.4038    3.9995   12.9987 H   0  0  0  0  0  0  0  0  0  0  0  0
    0.0818   -3.4451   16.1790 H   0  0  0  0  0  0  0  0  0  0  0  0
   -2.2977   -3.7628   15.9448 H   0  0  0  0  0  0  0  0  0  0  0  0
   -4.4224   -3.1264   16.7214 H   0  0  0  0  0  0  0  0  0  0  0  0
   -4.2763   -1.4228   17.0277 H   0  0  0  0  0  0  0  0  0  0  0  0
   -6.7269   -2.8365   16.6812 H   0  0  0  0  0  0  0  0  0  0  0  0
   -6.5466   -1.0915   16.7833 H   0  0  0  0  0  0  0  0  0  0  0  0
   -6.5457   -3.8334   14.4892 H   0  0  0  0  0  0  0  0  0  0  0  0
   -6.5998   -2.7512   13.0987 H   0  0  0  0  0  0  0  0  0  0  0  0
   -4.2287   -3.8878   14.2477 H   0  0  0  0  0  0  0  0  0  0  0  0
   -4.2676   -2.5954   13.0497 H   0  0  0  0  0  0  0  0  0  0  0  0
  1  2  1  0
  1 34  1  0
  1 35  1  0
  1 36  1  0
  2  3  1  0
  3  4  2  0
  3 27  1  0
  4  5  1  0
  4 37  1  0
  5  6  1  0
  5 25  2  0
  6  7  1  0
  6 38  1  0
  7  8  2  0
  7 15  1  0
  8  9  1  0
  9 10  2  0
  9 16  1  0
 10 11  1  0
 10 39  1  0
 11 12  1  0
 11 15  1  0
 12 13  2  0
 12 40  1  0
 13 14  1  0
 13 41  1  0
 14 15  2  0
 16 17  2  0
 16 24  1  0
 17 18  1  0
 17 42  1  0
 18 19  2  0
 18 43  1  0
 19 20  1  0
 19 23  1  0
 20 21  2  0
 20 44  1  0
 21 22  1  0
 22 23  1  0
 22 45  1  0
 23 24  2  0
 24 46  1  0
 25 26  1  0
 25 47  1  0
 26 27  2  0
 26 48  1  0
 27 28  1  0
 28 29  1  0
 28 33  1  0
 29 30  1  0
 29 49  1  0
 29 50  1  0
 30 31  1  0
 30 51  1  0
 30 52  1  0
 31 32  1  0
 32 33  1  0
 32 53  1  0
 32 54  1  0
 33 55  1  0
 33 56  1  0
M  END
>  <r_exp_dg>  (9) 
-12.7646

>  <mol_id>  (9) 
9

>  <source_index>  (9) 
11

>  <paff>  (9) 
9.3582410616609

>  <source_r_exp_dg>  (9) 
-12.7646

>  <smiles>  (9) 
COc1cc(Nc2nc(-c3ccc4cn[nH]c4c3)cn3ccnc23)ccc1N1CCOCC1

>  <aimnet_interaction_kcal_mol>  (9) 
-125.62078418813313

$$$$
syk_010
     RDKit          3D

 51 55  0  0  1  0  0  0  0  0999 V2000
   -4.8760   -2.5063   16.1778 C   0  0  0  0  0  0  0  0  0  0  0  0
   -4.2502   -1.6850   15.1926 O   0  0  0  0  0  0  0  0  0  0  0  0
   -2.8626   -1.7742   15.1602 C   0  0  0  0  0  0  0  0  0  0  0  0
   -2.1082   -2.7141   15.8490 C   0  0  0  0  0  0  0  0  0  0  0  0
   -0.7311   -2.5924   15.9324 C   0  0  0  0  0  0  0  0  0  0  0  0
   -0.0693   -1.5282   15.3184 C   0  0  0  0  0  0  0  0  0  0  0  0
    1.2886   -1.3410   15.6035 N   0  0  0  0  0  0  0  0  0  0  0  0
    2.1594   -0.4941   14.9839 C   0  0  0  0  0  0  0  0  0  0  0  0
    1.7519    0.3738   14.0830 N   0  0  0  0  0  0  0  0  0  0  0  0
    2.5681    1.3844   13.6658 C   0  0  0  0  0  0  0  0  0  0  0  0
    3.9184    1.3280   13.8475 C   0  0  0  0  0  0  0  0  0  0  0  0
    4.3917    0.3711   14.7088 N   0  0  0  0  0  0  0  0  0  0  0  0
    5.6530    0.1445   15.2112 C   0  0  0  0  0  0  0  0  0  0  0  0
    5.5198   -0.8789   16.1284 C   0  0  0  0  0  0  0  0  0  0  0  0
    4.2122   -1.2937   16.1976 N   0  0  0  0  0  0  0  0  0  0  0  0
    3.5436   -0.5448   15.3427 C   0  0  0  0  0  0  0  0  0  0  0  0
    1.8831    2.5721   13.1339 C   0  0  0  0  0  0  0  0  0  0  0  0
    0.6487    2.9216   13.6801 C   0  0  0  0  0  0  0  0  0  0  0  0
   -0.0341    4.0334   13.2167 C   0  0  0  0  0  0  0  0  0  0  0  0
    0.5242    4.8373   12.2404 C   0  0  0  0  0  0  0  0  0  0  0  0
   -0.1802    5.9640   11.8760 O   0  0  0  0  0  0  0  0  0  0  0  0
    0.6306    6.9364   11.2056 C   0  0  0  0  0  0  0  0  0  0  0  0
    1.4349    6.2751   10.1117 C   0  0  0  0  0  0  0  0  0  0  0  0
    2.3709    5.3133   10.6840 N   0  0  0  0  0  0  0  0  0  0  0  0
    1.7751    4.5194   11.6833 C   0  0  0  0  0  0  0  0  0  0  0  0
    2.4338    3.3891   12.1510 C   0  0  0  0  0  0  0  0  0  0  0  0
   -0.8127   -0.6755   14.4904 C   0  0  0  0  0  0  0  0  0  0  0  0
   -2.1946   -0.7766   14.4517 C   0  0  0  0  0  0  0  0  0  0  0  0
   -2.9965    0.1559   13.8074 O   0  0  0  0  0  0  0  0  0  0  0  0
   -2.3470    0.9082   12.7745 C   0  0  0  0  0  0  0  0  0  0  0  0
   -5.9301   -2.2344   16.1871 H   0  0  0  0  0  0  0  0  0  0  0  0
   -4.4420   -2.3388   17.1604 H   0  0  0  0  0  0  0  0  0  0  0  0
   -4.7779   -3.5630   15.9257 H   0  0  0  0  0  0  0  0  0  0  0  0
   -2.5592   -3.5296   16.3934 H   0  0  0  0  0  0  0  0  0  0  0  0
   -0.1815   -3.3056   16.5276 H   0  0  0  0  0  0  0  0  0  0  0  0
    1.6659   -1.8679   16.3989 H   0  0  0  0  0  0  0  0  0  0  0  0
    4.6290    2.0195   13.4285 H   0  0  0  0  0  0  0  0  0  0  0  0
    6.5204    0.7013   14.9000 H   0  0  0  0  0  0  0  0  0  0  0  0
    6.3068   -1.3421   16.7150 H   0  0  0  0  0  0  0  0  0  0  0  0
    0.2626    2.3380   14.4987 H   0  0  0  0  0  0  0  0  0  0  0  0
   -0.9883    4.3255   13.6322 H   0  0  0  0  0  0  0  0  0  0  0  0
    1.3032    7.4040   11.9267 H   0  0  0  0  0  0  0  0  0  0  0  0
   -0.0648    7.6777   10.8103 H   0  0  0  0  0  0  0  0  0  0  0  0
    2.0001    7.0337    9.5693 H   0  0  0  0  0  0  0  0  0  0  0  0
    0.7614    5.7833    9.4024 H   0  0  0  0  0  0  0  0  0  0  0  0
    3.1760    5.8225   11.0879 H   0  0  0  0  0  0  0  0  0  0  0  0
    3.4105    3.1525   11.7453 H   0  0  0  0  0  0  0  0  0  0  0  0
   -0.3079    0.0412   13.8737 H   0  0  0  0  0  0  0  0  0  0  0  0
   -3.1110    1.2476   12.0764 H   0  0  0  0  0  0  0  0  0  0  0  0
   -1.6660    0.2696   12.2312 H   0  0  0  0  0  0  0  0  0  0  0  0
   -1.8103    1.7508   13.2033 H   0  0  0  0  0  0  0  0  0  0  0  0
  1  2  1  0
  1 31  1  0
  1 32  1  0
  1 33  1  0
  2  3  1  0
  3  4  2  0
  3 28  1  0
  4  5  1  0
  4 34  1  0
  5  6  2  0
  5 35  1  0
  6  7  1  0
  6 27  1  0
  7  8  1  0
  7 36  1  0
  8  9  2  0
  8 16  1  0
  9 10  1  0
 10 11  2  0
 10 17  1  0
 11 12  1  0
 11 37  1  0
 12 13  1  0
 12 16  1  0
 13 14  2  0
 13 38  1  0
 14 15  1  0
 14 39  1  0
 15 16  2  0
 17 18  2  0
 17 26  1  0
 18 19  1  0
 18 40  1  0
 19 20  2  0
 19 41  1  0
 20 21  1  0
 20 25  1  0
 21 22  1  0
 22 23  1  0
 22 42  1  0
 22 43  1  0
 23 24  1  0
 23 44  1  0
 23 45  1  0
 24 25  1  0
 24 46  1  0
 25 26  2  0
 26 47  1  0
 27 28  2  0
 27 48  1  0
 28 29  1  0
 29 30  1  0
 30 49  1  0
 30 50  1  0
 30 51  1  0
M  END
>  <r_exp_dg>  (10) 
-11.3613

>  <mol_id>  (10) 
10

>  <source_index>  (10) 
12

>  <paff>  (10) 
8.3294096580348747

>  <source_r_exp_dg>  (10) 
-11.3613

>  <smiles>  (10) 
COc1ccc(Nc2nc(-c3ccc4c(c3)NCCO4)cn3ccnc23)cc1OC

>  <aimnet_interaction_kcal_mol>  (10) 
-100.69614655763671

$$$$
syk_011
     RDKit          3D

 48 51  0  0  1  0  0  0  0  0999 V2000
   -4.8168   -2.5115   16.1387 C   0  0  0  0  0  0  0  0  0  0  0  0
   -4.2481   -1.6501   15.1538 O   0  0  0  0  0  0  0  0  0  0  0  0
   -2.8595   -1.6713   15.0896 C   0  0  0  0  0  0  0  0  0  0  0  0
   -2.0464   -2.5542   15.7948 C   0  0  0  0  0  0  0  0  0  0  0  0
   -0.6730   -2.3684   15.8505 C   0  0  0  0  0  0  0  0  0  0  0  0
   -0.0857   -1.3100   15.1577 C   0  0  0  0  0  0  0  0  0  0  0  0
    1.2578   -1.0025   15.3550 N   0  0  0  0  0  0  0  0  0  0  0  0
    1.9528    0.0447   14.8236 C   0  0  0  0  0  0  0  0  0  0  0  0
    1.4063    1.0674   14.1959 N   0  0  0  0  0  0  0  0  0  0  0  0
    2.2070    2.0792   13.7349 C   0  0  0  0  0  0  0  0  0  0  0  0
    3.5692    2.0459   13.8138 C   0  0  0  0  0  0  0  0  0  0  0  0
    4.1461    0.9950   14.4932 N   0  0  0  0  0  0  0  0  0  0  0  0
    5.4316    0.7273   14.8999 C   0  0  0  0  0  0  0  0  0  0  0  0
    5.3536   -0.4304   15.6572 C   0  0  0  0  0  0  0  0  0  0  0  0
    4.0672   -0.8868   15.7163 N   0  0  0  0  0  0  0  0  0  0  0  0
    3.3565   -0.0239   15.0164 C   0  0  0  0  0  0  0  0  0  0  0  0
    1.5058    3.2518   13.1684 C   0  0  0  0  0  0  0  0  0  0  0  0
    0.4382    3.8266   13.8656 C   0  0  0  0  0  0  0  0  0  0  0  0
   -0.1860    4.9598   13.4013 C   0  0  0  0  0  0  0  0  0  0  0  0
    0.1211    5.4984   12.1474 C   0  0  0  0  0  0  0  0  0  0  0  0
   -0.6891    6.6463   11.6780 C   0  0  0  0  0  0  0  0  0  0  0  0
   -1.3593    7.3394   12.4663 O   0  0  0  0  0  0  0  0  0  0  0  0
   -0.6907    6.9196   10.3480 N   0  0  0  0  0  0  0  0  0  0  0  0
    1.1660    4.8787   11.4497 C   0  0  0  0  0  0  0  0  0  0  0  0
    1.5279    5.3262   10.2189 F   0  0  0  0  0  0  0  0  0  0  0  0
    1.8900    3.8239   11.9601 C   0  0  0  0  0  0  0  0  0  0  0  0
   -0.8744   -0.5487   14.2953 C   0  0  0  0  0  0  0  0  0  0  0  0
   -2.2486   -0.6692   14.3339 C   0  0  0  0  0  0  0  0  0  0  0  0
   -3.0738    0.2644   13.7243 O   0  0  0  0  0  0  0  0  0  0  0  0
   -2.4262    1.1437   12.8025 C   0  0  0  0  0  0  0  0  0  0  0  0
   -5.8836   -2.2972   16.1589 H   0  0  0  0  0  0  0  0  0  0  0  0
   -4.3838   -2.3269   17.1185 H   0  0  0  0  0  0  0  0  0  0  0  0
   -4.6629   -3.5595   15.8784 H   0  0  0  0  0  0  0  0  0  0  0  0
   -2.4477   -3.3748   16.3717 H   0  0  0  0  0  0  0  0  0  0  0  0
   -0.0725   -3.0206   16.4688 H   0  0  0  0  0  0  0  0  0  0  0  0
    1.8114   -1.5964   15.9745 H   0  0  0  0  0  0  0  0  0  0  0  0
    4.2059    2.8364   13.4506 H   0  0  0  0  0  0  0  0  0  0  0  0
    6.2626    1.3667   14.6648 H   0  0  0  0  0  0  0  0  0  0  0  0
    6.1493   -0.9546   16.1611 H   0  0  0  0  0  0  0  0  0  0  0  0
    0.1383    3.3825   14.8007 H   0  0  0  0  0  0  0  0  0  0  0  0
   -0.9176    5.4840   13.9962 H   0  0  0  0  0  0  0  0  0  0  0  0
   -1.3540    7.6019   10.0285 H   0  0  0  0  0  0  0  0  0  0  0  0
   -0.3785    6.2457    9.6674 H   0  0  0  0  0  0  0  0  0  0  0  0
    2.7567    3.4563   11.4271 H   0  0  0  0  0  0  0  0  0  0  0  0
   -0.4037    0.1360   13.6170 H   0  0  0  0  0  0  0  0  0  0  0  0
   -3.2079    1.7345   12.3215 H   0  0  0  0  0  0  0  0  0  0  0  0
   -1.8986    0.5602   12.0599 H   0  0  0  0  0  0  0  0  0  0  0  0
   -1.7321    1.8085   13.3134 H   0  0  0  0  0  0  0  0  0  0  0  0
  1  2  1  0
  1 31  1  0
  1 32  1  0
  1 33  1  0
  2  3  1  0
  3  4  2  0
  3 28  1  0
  4  5  1  0
  4 34  1  0
  5  6  2  0
  5 35  1  0
  6  7  1  0
  6 27  1  0
  7  8  1  0
  7 36  1  0
  8  9  2  0
  8 16  1  0
  9 10  1  0
 10 11  2  0
 10 17  1  0
 11 12  1  0
 11 37  1  0
 12 13  1  0
 12 16  1  0
 13 14  2  0
 13 38  1  0
 14 15  1  0
 14 39  1  0
 15 16  2  0
 17 18  2  0
 17 26  1  0
 18 19  1  0
 18 40  1  0
 19 20  2  0
 19 41  1  0
 20 21  1  0
 20 24  1  0
 21 22  2  0
 21 23  1  0
 23 42  1  0
 23 43  1  0
 24 25  1  0
 24 26  2  0
 26 44  1  0
 27 28  2  0
 27 45  1  0
 28 29  1  0
 29 30  1  0
 30 46  1  0
 30 47  1  0
 30 48  1  0
M  END
>  <r_exp_dg>  (11) 
-10.5463

>  <mol_id>  (11) 
11

>  <source_index>  (11) 
13

>  <paff>  (11) 
7.7318865532749204

>  <source_r_exp_dg>  (11) 
-10.5463

>  <smiles>  (11) 
COc1ccc(Nc2nc(-c3ccc(C(N)=O)c(F)c3)cn3ccnc23)cc1OC

>  <aimnet_interaction_kcal_mol>  (11) 
-97.706939720292425

$$$$
syk_012
     RDKit          3D

 43 47  0  0  1  0  0  0  0  0999 V2000
   -4.8824   -2.5714   16.0259 C   0  0  0  0  0  0  0  0  0  0  0  0
   -4.2373   -1.7467   15.0589 O   0  0  0  0  0  0  0  0  0  0  0  0
   -2.8383   -1.7909   15.0896 C   0  0  0  0  0  0  0  0  0  0  0  0
   -2.0999   -2.6177   15.9247 C   0  0  0  0  0  0  0  0  0  0  0  0
   -0.7265   -2.4673   16.0126 C   0  0  0  0  0  0  0  0  0  0  0  0
   -0.0579   -1.4640   15.3031 C   0  0  0  0  0  0  0  0  0  0  0  0
    1.2964   -1.2540   15.5762 N   0  0  0  0  0  0  0  0  0  0  0  0
    2.1705   -0.4392   14.9185 C   0  0  0  0  0  0  0  0  0  0  0  0
    1.7916    0.3723   13.9523 N   0  0  0  0  0  0  0  0  0  0  0  0
    2.6442    1.3282   13.4786 C   0  0  0  0  0  0  0  0  0  0  0  0
    3.9540    1.3879   13.8573 C   0  0  0  0  0  0  0  0  0  0  0  0
    4.4040    0.4350   14.7311 N   0  0  0  0  0  0  0  0  0  0  0  0
    5.6512    0.1957   15.2609 C   0  0  0  0  0  0  0  0  0  0  0  0
    5.4912   -0.8468   16.1542 C   0  0  0  0  0  0  0  0  0  0  0  0
    4.1797   -1.2578   16.1831 N   0  0  0  0  0  0  0  0  0  0  0  0
    3.5409   -0.4905   15.3188 C   0  0  0  0  0  0  0  0  0  0  0  0
    2.0806    2.2688   12.4967 C   0  0  0  0  0  0  0  0  0  0  0  0
    1.1014    1.7702   11.5971 C   0  0  0  0  0  0  0  0  0  0  0  0
    0.5986    2.5339   10.5726 C   0  0  0  0  0  0  0  0  0  0  0  0
    0.9898    3.8756   10.4782 C   0  0  0  0  0  0  0  0  0  0  0  0
    0.7212    4.9694    9.6185 C   0  0  0  0  0  0  0  0  0  0  0  0
    1.4575    6.0252    9.9552 N   0  0  0  0  0  0  0  0  0  0  0  0
    2.1640    5.6623   11.0445 N   0  0  0  0  0  0  0  0  0  0  0  0
    1.9487    4.3717   11.3931 C   0  0  0  0  0  0  0  0  0  0  0  0
    2.5041    3.5882   12.4099 C   0  0  0  0  0  0  0  0  0  0  0  0
   -0.8008   -0.7148   14.3829 C   0  0  0  0  0  0  0  0  0  0  0  0
   -2.1705   -0.8958   14.2692 C   0  0  0  0  0  0  0  0  0  0  0  0
   -5.9528   -2.3879   15.9326 H   0  0  0  0  0  0  0  0  0  0  0  0
   -4.5513   -2.3292   17.0346 H   0  0  0  0  0  0  0  0  0  0  0  0
   -4.6847   -3.6272   15.8356 H   0  0  0  0  0  0  0  0  0  0  0  0
   -2.5456   -3.3832   16.5418 H   0  0  0  0  0  0  0  0  0  0  0  0
   -0.1752   -3.1238   16.6687 H   0  0  0  0  0  0  0  0  0  0  0  0
    1.6978   -1.7683   16.3681 H   0  0  0  0  0  0  0  0  0  0  0  0
    4.6532    2.1335   13.5228 H   0  0  0  0  0  0  0  0  0  0  0  0
    6.5293    0.7485   14.9728 H   0  0  0  0  0  0  0  0  0  0  0  0
    6.2662   -1.3242   16.7462 H   0  0  0  0  0  0  0  0  0  0  0  0
    0.8036    0.7393   11.7070 H   0  0  0  0  0  0  0  0  0  0  0  0
   -0.0130    2.0934    9.8063 H   0  0  0  0  0  0  0  0  0  0  0  0
    0.0414    5.0423    8.7894 H   0  0  0  0  0  0  0  0  0  0  0  0
    2.9139    6.2652   11.3995 H   0  0  0  0  0  0  0  0  0  0  0  0
    3.2135    4.0180   13.1052 H   0  0  0  0  0  0  0  0  0  0  0  0
   -0.3126   -0.0043   13.7425 H   0  0  0  0  0  0  0  0  0  0  0  0
   -2.6927   -0.3805   13.4744 H   0  0  0  0  0  0  0  0  0  0  0  0
  1  2  1  0
  1 28  1  0
  1 29  1  0
  1 30  1  0
  2  3  1  0
  3  4  2  0
  3 27  1  0
  4  5  1  0
  4 31  1  0
  5  6  2  0
  5 32  1  0
  6  7  1  0
  6 26  1  0
  7  8  1  0
  7 33  1  0
  8  9  2  0
  8 16  1  0
  9 10  1  0
 10 11  2  0
 10 17  1  0
 11 12  1  0
 11 34  1  0
 12 13  1  0
 12 16  1  0
 13 14  2  0
 13 35  1  0
 14 15  1  0
 14 36  1  0
 15 16  2  0
 17 18  2  0
 17 25  1  0
 18 19  1  0
 18 37  1  0
 19 20  2  0
 19 38  1  0
 20 21  1  0
 20 24  1  0
 21 22  2  0
 21 39  1  0
 22 23  1  0
 23 24  1  0
 23 40  1  0
 24 25  2  0
 25 41  1  0
 26 27  2  0
 26 42  1  0
 27 43  1  0
M  END
>  <r_exp_dg>  (12) 
-11.1253

>  <mol_id>  (12) 
12

>  <source_index>  (12) 
14

>  <paff>  (12) 
8.1563778986329556

>  <source_r_exp_dg>  (12) 
-11.125299999999999

>  <smiles>  (12) 
COc1ccc(Nc2nc(-c3ccc4cn[nH]c4c3)cn3ccnc23)cc1

>  <aimnet_interaction_kcal_mol>  (12) 
-94.402082826281287

$$$$
syk_013
     RDKit          3D

 51 55  0  0  1  0  0  0  0  0999 V2000
   -4.9071   -2.5750   15.8649 C   0  0  0  0  0  0  0  0  0  0  0  0
   -4.2612   -1.7976   14.8134 N   0  0  0  0  0  0  0  0  0  0  0  0
   -4.7562   -2.0845   13.4663 C   0  0  0  0  0  0  0  0  0  0  0  0
   -4.3421   -3.4150   12.8600 C   0  0  0  0  0  0  0  0  0  0  0  0
   -4.9896   -3.5882   11.5961 O   0  0  0  0  0  0  0  0  0  0  0  0
   -2.8244   -1.7707   14.9169 C   0  0  0  0  0  0  0  0  0  0  0  0
   -2.0980   -2.6072   15.7666 C   0  0  0  0  0  0  0  0  0  0  0  0
   -0.7362   -2.4466   15.9410 C   0  0  0  0  0  0  0  0  0  0  0  0
   -0.0398   -1.4135   15.3008 C   0  0  0  0  0  0  0  0  0  0  0  0
    1.3101   -1.2288   15.6084 N   0  0  0  0  0  0  0  0  0  0  0  0
    2.2113   -0.4412   14.9476 C   0  0  0  0  0  0  0  0  0  0  0  0
    1.8473    0.3566   13.9660 N   0  0  0  0  0  0  0  0  0  0  0  0
    2.7054    1.2976   13.4758 C   0  0  0  0  0  0  0  0  0  0  0  0
    4.0207    1.3345   13.8361 C   0  0  0  0  0  0  0  0  0  0  0  0
    4.4521    0.4057   14.7432 N   0  0  0  0  0  0  0  0  0  0  0  0
    5.6945    0.1708   15.2860 C   0  0  0  0  0  0  0  0  0  0  0  0
    5.5242   -0.8531   16.1979 C   0  0  0  0  0  0  0  0  0  0  0  0
    4.2120   -1.2570   16.2270 N   0  0  0  0  0  0  0  0  0  0  0  0
    3.5786   -0.5019   15.3492 C   0  0  0  0  0  0  0  0  0  0  0  0
    2.1256    2.2479   12.5178 C   0  0  0  0  0  0  0  0  0  0  0  0
    1.0096    1.8054   11.7575 C   0  0  0  0  0  0  0  0  0  0  0  0
    0.3970    2.6065   10.8280 C   0  0  0  0  0  0  0  0  0  0  0  0
    0.9209    3.8819   10.5820 C   0  0  0  0  0  0  0  0  0  0  0  0
    0.6627    4.9525    9.6903 C   0  0  0  0  0  0  0  0  0  0  0  0
    1.5110    5.9573    9.9051 N   0  0  0  0  0  0  0  0  0  0  0  0
    2.3019    5.5744   10.9252 N   0  0  0  0  0  0  0  0  0  0  0  0
    2.0159    4.3259   11.3631 C   0  0  0  0  0  0  0  0  0  0  0  0
    2.6157    3.5358   12.3504 C   0  0  0  0  0  0  0  0  0  0  0  0
   -0.7609   -0.6040   14.4135 C   0  0  0  0  0  0  0  0  0  0  0  0
   -2.1095   -0.8238   14.1948 C   0  0  0  0  0  0  0  0  0  0  0  0
   -4.5714   -2.2326   16.8395 H   0  0  0  0  0  0  0  0  0  0  0  0
   -4.7003   -3.6456   15.7965 H   0  0  0  0  0  0  0  0  0  0  0  0
   -5.9879   -2.4426   15.8032 H   0  0  0  0  0  0  0  0  0  0  0  0
   -4.4215   -1.3079   12.7738 H   0  0  0  0  0  0  0  0  0  0  0  0
   -5.8520   -2.0649   13.4814 H   0  0  0  0  0  0  0  0  0  0  0  0
   -4.6521   -4.2340   13.5090 H   0  0  0  0  0  0  0  0  0  0  0  0
   -3.2615   -3.4563   12.7601 H   0  0  0  0  0  0  0  0  0  0  0  0
   -4.5418   -3.0142   10.9547 H   0  0  0  0  0  0  0  0  0  0  0  0
   -2.5705   -3.3923   16.3385 H   0  0  0  0  0  0  0  0  0  0  0  0
   -0.2149   -3.1112   16.6149 H   0  0  0  0  0  0  0  0  0  0  0  0
    1.6834   -1.7494   16.4116 H   0  0  0  0  0  0  0  0  0  0  0  0
    4.7380    2.0418   13.4599 H   0  0  0  0  0  0  0  0  0  0  0  0
    6.5767    0.7136   14.9925 H   0  0  0  0  0  0  0  0  0  0  0  0
    6.2927   -1.3253   16.8023 H   0  0  0  0  0  0  0  0  0  0  0  0
    0.6665    0.7970   11.9261 H   0  0  0  0  0  0  0  0  0  0  0  0
   -0.4770    2.2621   10.3063 H   0  0  0  0  0  0  0  0  0  0  0  0
   -0.0788    5.0447    8.9163 H   0  0  0  0  0  0  0  0  0  0  0  0
    3.0565    6.1862   11.2655 H   0  0  0  0  0  0  0  0  0  0  0  0
    3.3953    3.9445   12.9802 H   0  0  0  0  0  0  0  0  0  0  0  0
   -0.2667    0.1860   13.8834 H   0  0  0  0  0  0  0  0  0  0  0  0
   -2.5779   -0.2633   13.3954 H   0  0  0  0  0  0  0  0  0  0  0  0
  1  2  1  0
  1 31  1  0
  1 32  1  0
  1 33  1  0
  2  3  1  0
  2  6  1  0
  3  4  1  0
  3 34  1  0
  3 35  1  0
  4  5  1  0
  4 36  1  0
  4 37  1  0
  5 38  1  0
  6  7  2  0
  6 30  1  0
  7  8  1  0
  7 39  1  0
  8  9  2  0
  8 40  1  0
  9 10  1  0
  9 29  1  0
 10 11  1  0
 10 41  1  0
 11 12  2  0
 11 19  1  0
 12 13  1  0
 13 14  2  0
 13 20  1  0
 14 15  1  0
 14 42  1  0
 15 16  1  0
 15 19  1  0
 16 17  2  0
 16 43  1  0
 17 18  1  0
 17 44  1  0
 18 19  2  0
 20 21  2  0
 20 28  1  0
 21 22  1  0
 21 45  1  0
 22 23  2  0
 22 46  1  0
 23 24  1  0
 23 27  1  0
 24 25  2  0
 24 47  1  0
 25 26  1  0
 26 27  1  0
 26 48  1  0
 27 28  2  0
 28 49  1  0
 29 30  2  0
 29 50  1  0
 30 51  1  0
M  END
>  <r_exp_dg>  (13) 
-11.0766

>  <mol_id>  (13) 
13

>  <source_index>  (13) 
15

>  <paff>  (13) 
8.1206563630761277

>  <source_r_exp_dg>  (13) 
-11.076599999999999

>  <smiles>  (13) 
CN(CCO)c1ccc(Nc2nc(-c3ccc4cn[nH]c4c3)cn3ccnc23)cc1

>  <aimnet_interaction_kcal_mol>  (13) 
-110.62800630345748

$$$$
syk_014
     RDKit          3D

 50 54  0  0  1  0  0  0  0  0999 V2000
   -4.7636   -2.5968   16.0569 C   0  0  0  0  0  0  0  0  0  0  0  0
   -4.1702   -1.7293   15.0913 O   0  0  0  0  0  0  0  0  0  0  0  0
   -2.7811   -1.7838   15.0451 C   0  0  0  0  0  0  0  0  0  0  0  0
   -2.0046   -2.7721   15.6353 C   0  0  0  0  0  0  0  0  0  0  0  0
   -0.6315   -2.6227   15.7480 C   0  0  0  0  0  0  0  0  0  0  0  0
    0.0005   -1.4779   15.2587 C   0  0  0  0  0  0  0  0  0  0  0  0
    1.3492   -1.2729   15.5663 N   0  0  0  0  0  0  0  0  0  0  0  0
    2.2205   -0.4416   14.9288 C   0  0  0  0  0  0  0  0  0  0  0  0
    1.8384    0.3690   13.9648 N   0  0  0  0  0  0  0  0  0  0  0  0
    2.6801    1.3332   13.4871 C   0  0  0  0  0  0  0  0  0  0  0  0
    3.9761    1.4405   13.8958 C   0  0  0  0  0  0  0  0  0  0  0  0
    4.4414    0.4770   14.7566 N   0  0  0  0  0  0  0  0  0  0  0  0
    5.6913    0.2402   15.2805 C   0  0  0  0  0  0  0  0  0  0  0  0
    5.5435   -0.8193   16.1578 C   0  0  0  0  0  0  0  0  0  0  0  0
    4.2383   -1.2443   16.1814 N   0  0  0  0  0  0  0  0  0  0  0  0
    3.5896   -0.4723   15.3313 C   0  0  0  0  0  0  0  0  0  0  0  0
    2.0980    2.1926   12.4418 C   0  0  0  0  0  0  0  0  0  0  0  0
    1.1759    1.5992   11.5764 C   0  0  0  0  0  0  0  0  0  0  0  0
    0.6675    2.2909   10.4939 C   0  0  0  0  0  0  0  0  0  0  0  0
    0.9691    3.6292   10.3451 C   0  0  0  0  0  0  0  0  0  0  0  0
    0.4060    4.3133    9.3056 O   0  0  0  0  0  0  0  0  0  0  0  0
    0.2609    5.7051    9.5665 C   0  0  0  0  0  0  0  0  0  0  0  0
    1.5530    6.3487   10.0187 C   0  0  0  0  0  0  0  0  0  0  0  0
    1.8789    7.4717    9.6471 O   0  0  0  0  0  0  0  0  0  0  0  0
    2.2329    5.5833   10.9107 N   0  0  0  0  0  0  0  0  0  0  0  0
    1.8794    4.2631   11.2016 C   0  0  0  0  0  0  0  0  0  0  0  0
    2.4456    3.5359   12.2505 C   0  0  0  0  0  0  0  0  0  0  0  0
   -0.7620   -0.5563   14.5305 C   0  0  0  0  0  0  0  0  0  0  0  0
   -2.1367   -0.7044   14.4454 C   0  0  0  0  0  0  0  0  0  0  0  0
   -2.9588    0.2610   13.8709 O   0  0  0  0  0  0  0  0  0  0  0  0
   -2.3157    1.0887   12.9019 C   0  0  0  0  0  0  0  0  0  0  0  0
   -5.8149   -2.3216   16.1204 H   0  0  0  0  0  0  0  0  0  0  0  0
   -4.2930   -2.4847   17.0309 H   0  0  0  0  0  0  0  0  0  0  0  0
   -4.6809   -3.6399   15.7481 H   0  0  0  0  0  0  0  0  0  0  0  0
   -2.4460   -3.6513   16.0765 H   0  0  0  0  0  0  0  0  0  0  0  0
   -0.0660   -3.3778   16.2721 H   0  0  0  0  0  0  0  0  0  0  0  0
    1.7402   -1.8019   16.3517 H   0  0  0  0  0  0  0  0  0  0  0  0
    4.6493    2.2300   13.6105 H   0  0  0  0  0  0  0  0  0  0  0  0
    6.5630    0.8041   14.9948 H   0  0  0  0  0  0  0  0  0  0  0  0
    6.3209   -1.3013   16.7425 H   0  0  0  0  0  0  0  0  0  0  0  0
    0.9015    0.5691   11.7371 H   0  0  0  0  0  0  0  0  0  0  0  0
    0.1043    1.7969    9.7248 H   0  0  0  0  0  0  0  0  0  0  0  0
   -0.0820    6.1582    8.6498 H   0  0  0  0  0  0  0  0  0  0  0  0
   -0.4939    5.8604   10.3478 H   0  0  0  0  0  0  0  0  0  0  0  0
    3.0383    6.0236   11.3948 H   0  0  0  0  0  0  0  0  0  0  0  0
    3.1333    4.0383   12.9230 H   0  0  0  0  0  0  0  0  0  0  0  0
   -0.2745    0.2670   14.0447 H   0  0  0  0  0  0  0  0  0  0  0  0
   -3.0959    1.6413   12.3772 H   0  0  0  0  0  0  0  0  0  0  0  0
   -1.7765    0.4724   12.1943 H   0  0  0  0  0  0  0  0  0  0  0  0
   -1.6272    1.7841   13.3772 H   0  0  0  0  0  0  0  0  0  0  0  0
  1  2  1  0
  1 32  1  0
  1 33  1  0
  1 34  1  0
  2  3  1  0
  3  4  2  0
  3 29  1  0
  4  5  1  0
  4 35  1  0
  5  6  2  0
  5 36  1  0
  6  7  1  0
  6 28  1  0
  7  8  1  0
  7 37  1  0
  8  9  2  0
  8 16  1  0
  9 10  1  0
 10 11  2  0
 10 17  1  0
 11 12  1  0
 11 38  1  0
 12 13  1  0
 12 16  1  0
 13 14  2  0
 13 39  1  0
 14 15  1  0
 14 40  1  0
 15 16  2  0
 17 18  2  0
 17 27  1  0
 18 19  1  0
 18 41  1  0
 19 20  2  0
 19 42  1  0
 20 21  1  0
 20 26  1  0
 21 22  1  0
 22 23  1  0
 22 43  1  0
 22 44  1  0
 23 24  2  0
 23 25  1  0
 25 26  1  0
 25 45  1  0
 26 27  2  0
 27 46  1  0
 28 29  2  0
 28 47  1  0
 29 30  1  0
 30 31  1  0
 31 48  1  0
 31 49  1  0
 31 50  1  0
M  END
>  <r_exp_dg>  (14) 
-11.7847

>  <mol_id>  (14) 
14

>  <source_index>  (14) 
16

>  <paff>  (14) 
8.6398355422481412

>  <source_r_exp_dg>  (14) 
-11.784700000000001

>  <smiles>  (14) 
COc1ccc(Nc2nc(-c3ccc4c(c3)NC(=O)CO4)cn3ccnc23)cc1OC

>  <aimnet_interaction_kcal_mol>  (14) 
-107.27567525569494

$$$$
syk_015
     RDKit          3D

 47 51  0  0  1  0  0  0  0  0999 V2000
   -4.7728   -2.6230   16.0635 C   0  0  0  0  0  0  0  0  0  0  0  0
   -4.1761   -1.7633   15.0931 O   0  0  0  0  0  0  0  0  0  0  0  0
   -2.7871   -1.8212   15.0501 C   0  0  0  0  0  0  0  0  0  0  0  0
   -2.0157   -2.8228   15.6237 C   0  0  0  0  0  0  0  0  0  0  0  0
   -0.6427   -2.6803   15.7397 C   0  0  0  0  0  0  0  0  0  0  0  0
   -0.0074   -1.5247   15.2805 C   0  0  0  0  0  0  0  0  0  0  0  0
    1.3406   -1.3332   15.6008 N   0  0  0  0  0  0  0  0  0  0  0  0
    2.2303   -0.5304   14.9510 C   0  0  0  0  0  0  0  0  0  0  0  0
    1.8615    0.2519   13.9598 N   0  0  0  0  0  0  0  0  0  0  0  0
    2.6977    1.2148   13.4799 C   0  0  0  0  0  0  0  0  0  0  0  0
    4.0155    1.2689   13.8319 C   0  0  0  0  0  0  0  0  0  0  0  0
    4.4573    0.3609   14.7525 N   0  0  0  0  0  0  0  0  0  0  0  0
    5.7020    0.1553   15.3028 C   0  0  0  0  0  0  0  0  0  0  0  0
    5.5446   -0.8560   16.2296 C   0  0  0  0  0  0  0  0  0  0  0  0
    4.2397   -1.2811   16.2580 N   0  0  0  0  0  0  0  0  0  0  0  0
    3.5958   -0.5512   15.3676 C   0  0  0  0  0  0  0  0  0  0  0  0
    2.0902    2.1890   12.5665 C   0  0  0  0  0  0  0  0  0  0  0  0
    0.9318    1.7873   11.8607 C   0  0  0  0  0  0  0  0  0  0  0  0
    0.1834    2.6763   11.1136 C   0  0  0  0  0  0  0  0  0  0  0  0
    0.6558    3.9824   10.9748 C   0  0  0  0  0  0  0  0  0  0  0  0
    0.1481    5.0599   10.2700 N   0  0  0  0  0  0  0  0  0  0  0  0
    1.0276    6.0209   10.4615 C   0  0  0  0  0  0  0  0  0  0  0  0
    2.0664    5.6522   11.2548 N   0  0  0  0  0  0  0  0  0  0  0  0
    1.8577    4.3483   11.6126 C   0  0  0  0  0  0  0  0  0  0  0  0
    2.5804    3.4873   12.4292 C   0  0  0  0  0  0  0  0  0  0  0  0
   -0.7658   -0.5798   14.5766 C   0  0  0  0  0  0  0  0  0  0  0  0
   -2.1398   -0.7318   14.4732 C   0  0  0  0  0  0  0  0  0  0  0  0
   -2.9612    0.2358   13.9028 O   0  0  0  0  0  0  0  0  0  0  0  0
   -2.3200    1.0592   12.9264 C   0  0  0  0  0  0  0  0  0  0  0  0
   -5.8211   -2.3378   16.1323 H   0  0  0  0  0  0  0  0  0  0  0  0
   -4.2955   -2.5138   17.0349 H   0  0  0  0  0  0  0  0  0  0  0  0
   -4.7018   -3.6675   15.7566 H   0  0  0  0  0  0  0  0  0  0  0  0
   -2.4629   -3.7082   16.0465 H   0  0  0  0  0  0  0  0  0  0  0  0
   -0.0792   -3.4511   16.2425 H   0  0  0  0  0  0  0  0  0  0  0  0
    1.7080   -1.8491   16.4079 H   0  0  0  0  0  0  0  0  0  0  0  0
    4.7258    1.9758   13.4445 H   0  0  0  0  0  0  0  0  0  0  0  0
    6.5760    0.7074   15.0022 H   0  0  0  0  0  0  0  0  0  0  0  0
    6.3143   -1.3100   16.8454 H   0  0  0  0  0  0  0  0  0  0  0  0
    0.6528    0.7465   11.9291 H   0  0  0  0  0  0  0  0  0  0  0  0
   -0.7456    2.3903   10.6561 H   0  0  0  0  0  0  0  0  0  0  0  0
    0.9532    7.0137   10.0463 H   0  0  0  0  0  0  0  0  0  0  0  0
    2.8825    6.2038   11.5455 H   0  0  0  0  0  0  0  0  0  0  0  0
    3.4458    3.8418   12.9737 H   0  0  0  0  0  0  0  0  0  0  0  0
   -0.2736    0.2658   14.1371 H   0  0  0  0  0  0  0  0  0  0  0  0
   -3.1058    1.5824   12.3833 H   0  0  0  0  0  0  0  0  0  0  0  0
   -1.7644    0.4418   12.2347 H   0  0  0  0  0  0  0  0  0  0  0  0
   -1.6546    1.7795   13.3940 H   0  0  0  0  0  0  0  0  0  0  0  0
  1  2  1  0
  1 30  1  0
  1 31  1  0
  1 32  1  0
  2  3  1  0
  3  4  2  0
  3 27  1  0
  4  5  1  0
  4 33  1  0
  5  6  2  0
  5 34  1  0
  6  7  1  0
  6 26  1  0
  7  8  1  0
  7 35  1  0
  8  9  2  0
  8 16  1  0
  9 10  1  0
 10 11  2  0
 10 17  1  0
 11 12  1  0
 11 36  1  0
 12 13  1  0
 12 16  1  0
 13 14  2  0
 13 37  1  0
 14 15  1  0
 14 38  1  0
 15 16  2  0
 17 18  2  0
 17 25  1  0
 18 19  1  0
 18 39  1  0
 19 20  2  0
 19 40  1  0
 20 21  1  0
 20 24  1  0
 21 22  2  0
 22 23  1  0
 22 41  1  0
 23 24  1  0
 23 42  1  0
 24 25  2  0
 25 43  1  0
 26 27  2  0
 26 44  1  0
 27 28  1  0
 28 29  1  0
 29 45  1  0
 29 46  1  0
 29 47  1  0
M  END
>  <r_exp_dg>  (15) 
-11.1877

>  <mol_id>  (15) 
15

>  <source_index>  (15) 
17

>  <paff>  (15) 
8.2021437781996731

>  <source_r_exp_dg>  (15) 
-11.1877

>  <smiles>  (15) 
COc1ccc(Nc2nc(-c3ccc4nc[nH]c4c3)cn3ccnc23)cc1OC

>  <aimnet_interaction_kcal_mol>  (15) 
-105.59078044328811

$$$$
syk_016
     RDKit          3D

 48 51  0  0  1  0  0  0  0  0999 V2000
   -4.9322   -2.4279   16.2369 C   0  0  0  0  0  0  0  0  0  0  0  0
   -4.2934   -1.6604   15.2168 O   0  0  0  0  0  0  0  0  0  0  0  0
   -2.9075   -1.7765   15.1858 C   0  0  0  0  0  0  0  0  0  0  0  0
   -2.1722   -2.7249   15.8833 C   0  0  0  0  0  0  0  0  0  0  0  0
   -0.7942   -2.6214   15.9749 C   0  0  0  0  0  0  0  0  0  0  0  0
   -0.1166   -1.5691   15.3587 C   0  0  0  0  0  0  0  0  0  0  0  0
    1.2326   -1.3779   15.6823 N   0  0  0  0  0  0  0  0  0  0  0  0
    2.0874   -0.4655   15.1391 C   0  0  0  0  0  0  0  0  0  0  0  0
    1.6306    0.5004   14.3682 N   0  0  0  0  0  0  0  0  0  0  0  0
    2.4566    1.4573   13.8769 C   0  0  0  0  0  0  0  0  0  0  0  0
    3.8125    1.3664   13.9599 C   0  0  0  0  0  0  0  0  0  0  0  0
    4.3166    0.3817   14.7694 N   0  0  0  0  0  0  0  0  0  0  0  0
    5.5975    0.1403   15.2102 C   0  0  0  0  0  0  0  0  0  0  0  0
    5.5001   -0.9030   16.1091 C   0  0  0  0  0  0  0  0  0  0  0  0
    4.1976   -1.3186   16.2205 N   0  0  0  0  0  0  0  0  0  0  0  0
    3.4897   -0.5490   15.4158 C   0  0  0  0  0  0  0  0  0  0  0  0
    1.7768    2.6179   13.2883 C   0  0  0  0  0  0  0  0  0  0  0  0
    0.6103    3.0997   13.8727 C   0  0  0  0  0  0  0  0  0  0  0  0
   -0.1370    4.0828   13.2453 C   0  0  0  0  0  0  0  0  0  0  0  0
    0.2912    4.5750   12.0270 C   0  0  0  0  0  0  0  0  0  0  0  0
   -0.4655    5.5176   11.4125 F   0  0  0  0  0  0  0  0  0  0  0  0
    1.4693    4.1489   11.4400 C   0  0  0  0  0  0  0  0  0  0  0  0
    2.2350    3.2158   12.1264 C   0  0  0  0  0  0  0  0  0  0  0  0
    1.9098    4.6068   10.0788 C   0  0  0  0  0  0  0  0  0  0  0  0
    1.2427    4.3894    9.0729 O   0  0  0  0  0  0  0  0  0  0  0  0
    3.1221    5.1960   10.0957 N   0  0  0  0  0  0  0  0  0  0  0  0
   -0.8360   -0.7384   14.4883 C   0  0  0  0  0  0  0  0  0  0  0  0
   -2.2209   -0.7966   14.4709 C   0  0  0  0  0  0  0  0  0  0  0  0
   -3.0073    0.1715   13.8605 O   0  0  0  0  0  0  0  0  0  0  0  0
   -2.3409    0.9873   12.8890 C   0  0  0  0  0  0  0  0  0  0  0  0
   -5.9792   -2.1285   16.2452 H   0  0  0  0  0  0  0  0  0  0  0  0
   -4.4843   -2.2353   17.2085 H   0  0  0  0  0  0  0  0  0  0  0  0
   -4.8645   -3.4954   16.0230 H   0  0  0  0  0  0  0  0  0  0  0  0
   -2.6395   -3.5300   16.4297 H   0  0  0  0  0  0  0  0  0  0  0  0
   -0.2561   -3.3396   16.5731 H   0  0  0  0  0  0  0  0  0  0  0  0
    1.5874   -1.9237   16.4766 H   0  0  0  0  0  0  0  0  0  0  0  0
    4.5083    2.0525   13.5101 H   0  0  0  0  0  0  0  0  0  0  0  0
    6.4516    0.7046   14.8768 H   0  0  0  0  0  0  0  0  0  0  0  0
    6.3072   -1.3746   16.6600 H   0  0  0  0  0  0  0  0  0  0  0  0
    0.3000    2.6993   14.8228 H   0  0  0  0  0  0  0  0  0  0  0  0
   -1.0405    4.4720   13.6902 H   0  0  0  0  0  0  0  0  0  0  0  0
    3.2048    2.9510   11.7273 H   0  0  0  0  0  0  0  0  0  0  0  0
    3.5723    5.3821    9.2141 H   0  0  0  0  0  0  0  0  0  0  0  0
    3.4696    5.7346   10.8971 H   0  0  0  0  0  0  0  0  0  0  0  0
   -0.3183   -0.0642   13.8349 H   0  0  0  0  0  0  0  0  0  0  0  0
   -3.1095    1.5805   12.3910 H   0  0  0  0  0  0  0  0  0  0  0  0
   -1.8433    0.3597   12.1613 H   0  0  0  0  0  0  0  0  0  0  0  0
   -1.6248    1.6505   13.3628 H   0  0  0  0  0  0  0  0  0  0  0  0
  1  2  1  0
  1 31  1  0
  1 32  1  0
  1 33  1  0
  2  3  1  0
  3  4  2  0
  3 28  1  0
  4  5  1  0
  4 34  1  0
  5  6  2  0
  5 35  1  0
  6  7  1  0
  6 27  1  0
  7  8  1  0
  7 36  1  0
  8  9  2  0
  8 16  1  0
  9 10  1  0
 10 11  2  0
 10 17  1  0
 11 12  1  0
 11 37  1  0
 12 13  1  0
 12 16  1  0
 13 14  2  0
 13 38  1  0
 14 15  1  0
 14 39  1  0
 15 16  2  0
 17 18  2  0
 17 23  1  0
 18 19  1  0
 18 40  1  0
 19 20  2  0
 19 41  1  0
 20 21  1  0
 20 22  1  0
 22 23  2  0
 22 24  1  0
 23 42  1  0
 24 25  2  0
 24 26  1  0
 26 43  1  0
 26 44  1  0
 27 28  2  0
 27 45  1  0
 28 29  1  0
 29 30  1  0
 30 46  1  0
 30 47  1  0
 30 48  1  0
M  END
>  <r_exp_dg>  (16) 
-9.78436

>  <mol_id>  (16) 
16

>  <source_index>  (16) 
18

>  <paff>  (16) 
7.17328300923546

>  <source_r_exp_dg>  (16) 
-9.7843599999999995

>  <smiles>  (16) 
COc1ccc(Nc2nc(-c3ccc(F)c(C(N)=O)c3)cn3ccnc23)cc1OC

>  <aimnet_interaction_kcal_mol>  (16) 
-97.566237664006749

$$$$
syk_017
     RDKit          3D

 48 52  0  0  1  0  0  0  0  0999 V2000
   -4.7703   -2.5899   16.0415 C   0  0  0  0  0  0  0  0  0  0  0  0
   -4.1733   -1.7265   15.0750 O   0  0  0  0  0  0  0  0  0  0  0  0
   -2.7835   -1.7847   15.0337 C   0  0  0  0  0  0  0  0  0  0  0  0
   -2.0167   -2.7860   15.6147 C   0  0  0  0  0  0  0  0  0  0  0  0
   -0.6441   -2.6472   15.7389 C   0  0  0  0  0  0  0  0  0  0  0  0
   -0.0035   -1.4962   15.2752 C   0  0  0  0  0  0  0  0  0  0  0  0
    1.3450   -1.3071   15.5918 N   0  0  0  0  0  0  0  0  0  0  0  0
    2.2326   -0.4992   14.9439 C   0  0  0  0  0  0  0  0  0  0  0  0
    1.8624    0.2928   13.9611 N   0  0  0  0  0  0  0  0  0  0  0  0
    2.7089    1.2454   13.4724 C   0  0  0  0  0  0  0  0  0  0  0  0
    4.0234    1.3023   13.8386 C   0  0  0  0  0  0  0  0  0  0  0  0
    4.4622    0.3858   14.7524 N   0  0  0  0  0  0  0  0  0  0  0  0
    5.7056    0.1702   15.3024 C   0  0  0  0  0  0  0  0  0  0  0  0
    5.5438   -0.8506   16.2187 C   0  0  0  0  0  0  0  0  0  0  0  0
    4.2373   -1.2717   16.2423 N   0  0  0  0  0  0  0  0  0  0  0  0
    3.5977   -0.5302   15.3580 C   0  0  0  0  0  0  0  0  0  0  0  0
    2.1236    2.1836   12.5125 C   0  0  0  0  0  0  0  0  0  0  0  0
    1.0088    1.7446   11.7619 C   0  0  0  0  0  0  0  0  0  0  0  0
    0.3840    2.5597   10.8412 C   0  0  0  0  0  0  0  0  0  0  0  0
    0.9000    3.8347   10.5879 C   0  0  0  0  0  0  0  0  0  0  0  0
    0.5827    4.8910    9.6862 C   0  0  0  0  0  0  0  0  0  0  0  0
    1.4884    5.8942    9.9267 C   0  0  0  0  0  0  0  0  0  0  0  0
    2.3345    5.5222   10.9280 N   0  0  0  0  0  0  0  0  0  0  0  0
    2.0178    4.2657   11.3528 C   0  0  0  0  0  0  0  0  0  0  0  0
    2.6192    3.4745   12.3287 C   0  0  0  0  0  0  0  0  0  0  0  0
   -0.7573   -0.5513   14.5668 C   0  0  0  0  0  0  0  0  0  0  0  0
   -2.1311   -0.6990   14.4544 C   0  0  0  0  0  0  0  0  0  0  0  0
   -2.9426    0.2705   13.8722 O   0  0  0  0  0  0  0  0  0  0  0  0
   -2.2904    1.0733   12.8842 C   0  0  0  0  0  0  0  0  0  0  0  0
   -5.8203   -2.3091   16.1070 H   0  0  0  0  0  0  0  0  0  0  0  0
   -4.2974   -2.4811   17.0151 H   0  0  0  0  0  0  0  0  0  0  0  0
   -4.6948   -3.6337   15.7330 H   0  0  0  0  0  0  0  0  0  0  0  0
   -2.4680   -3.6696   16.0368 H   0  0  0  0  0  0  0  0  0  0  0  0
   -0.0861   -3.4157   16.2513 H   0  0  0  0  0  0  0  0  0  0  0  0
    1.7191   -1.8286   16.3918 H   0  0  0  0  0  0  0  0  0  0  0  0
    4.7328    2.0154   13.4601 H   0  0  0  0  0  0  0  0  0  0  0  0
    6.5817    0.7221   15.0080 H   0  0  0  0  0  0  0  0  0  0  0  0
    6.3124   -1.3126   16.8303 H   0  0  0  0  0  0  0  0  0  0  0  0
    0.6751    0.7301   11.9190 H   0  0  0  0  0  0  0  0  0  0  0  0
   -0.4952    2.2220   10.3253 H   0  0  0  0  0  0  0  0  0  0  0  0
   -0.1987    4.9198    8.9490 H   0  0  0  0  0  0  0  0  0  0  0  0
    1.5921    6.8589    9.4569 H   0  0  0  0  0  0  0  0  0  0  0  0
    3.0962    6.0928   11.3192 H   0  0  0  0  0  0  0  0  0  0  0  0
    3.4077    3.8766   12.9527 H   0  0  0  0  0  0  0  0  0  0  0  0
   -0.2605    0.2943   14.1328 H   0  0  0  0  0  0  0  0  0  0  0  0
   -3.0675    1.6018   12.3329 H   0  0  0  0  0  0  0  0  0  0  0  0
   -1.7409    0.4400   12.2013 H   0  0  0  0  0  0  0  0  0  0  0  0
   -1.6137    1.7904   13.3427 H   0  0  0  0  0  0  0  0  0  0  0  0
  1  2  1  0
  1 30  1  0
  1 31  1  0
  1 32  1  0
  2  3  1  0
  3  4  2  0
  3 27  1  0
  4  5  1  0
  4 33  1  0
  5  6  2  0
  5 34  1  0
  6  7  1  0
  6 26  1  0
  7  8  1  0
  7 35  1  0
  8  9  2  0
  8 16  1  0
  9 10  1  0
 10 11  2  0
 10 17  1  0
 11 12  1  0
 11 36  1  0
 12 13  1  0
 12 16  1  0
 13 14  2  0
 13 37  1  0
 14 15  1  0
 14 38  1  0
 15 16  2  0
 17 18  2  0
 17 25  1  0
 18 19  1  0
 18 39  1  0
 19 20  2  0
 19 40  1  0
 20 21  1  0
 20 24  1  0
 21 22  2  0
 21 41  1  0
 22 23  1  0
 22 42  1  0
 23 24  1  0
 23 43  1  0
 24 25  2  0
 25 44  1  0
 26 27  2  0
 26 45  1  0
 27 28  1  0
 28 29  1  0
 29 46  1  0
 29 47  1  0
 29 48  1  0
M  END
>  <r_exp_dg>  (17) 
-11.6897

>  <mol_id>  (17) 
17

>  <source_index>  (17) 
19

>  <paff>  (17) 
8.5701872526375773

>  <source_r_exp_dg>  (17) 
-11.6897

>  <smiles>  (17) 
COc1ccc(Nc2nc(-c3ccc4cc[nH]c4c3)cn3ccnc23)cc1OC

>  <aimnet_interaction_kcal_mol>  (17) 
-104.9198671850346

$$$$
syk_018
     RDKit          3D

 50 54  0  0  1  0  0  0  0  0999 V2000
   -4.7398   -2.5833   16.0533 C   0  0  0  0  0  0  0  0  0  0  0  0
   -4.1724   -1.7030   15.0833 O   0  0  0  0  0  0  0  0  0  0  0  0
   -2.7842   -1.7349   15.0143 C   0  0  0  0  0  0  0  0  0  0  0  0
   -1.9814   -2.7064   15.6000 C   0  0  0  0  0  0  0  0  0  0  0  0
   -0.6061   -2.5454   15.6694 C   0  0  0  0  0  0  0  0  0  0  0  0
    0.0014   -1.4091   15.1312 C   0  0  0  0  0  0  0  0  0  0  0  0
    1.3648   -1.2012   15.3413 N   0  0  0  0  0  0  0  0  0  0  0  0
    2.1986   -0.3414   14.6933 C   0  0  0  0  0  0  0  0  0  0  0  0
    1.8131    0.4838   13.7434 N   0  0  0  0  0  0  0  0  0  0  0  0
    2.6938    1.3989   13.2275 C   0  0  0  0  0  0  0  0  0  0  0  0
    4.0150    1.4212   13.5817 C   0  0  0  0  0  0  0  0  0  0  0  0
    4.4408    0.5214   14.5280 N   0  0  0  0  0  0  0  0  0  0  0  0
    5.6668    0.2909   15.1112 C   0  0  0  0  0  0  0  0  0  0  0  0
    5.4700   -0.7398   16.0146 C   0  0  0  0  0  0  0  0  0  0  0  0
    4.1590   -1.1462   16.0047 N   0  0  0  0  0  0  0  0  0  0  0  0
    3.5597   -0.3812   15.1124 C   0  0  0  0  0  0  0  0  0  0  0  0
    2.1359    2.3543   12.2490 C   0  0  0  0  0  0  0  0  0  0  0  0
    0.8705    2.1197   11.7037 C   0  0  0  0  0  0  0  0  0  0  0  0
    0.2532    3.0459   10.8708 C   0  0  0  0  0  0  0  0  0  0  0  0
    0.9477    4.1781   10.4704 C   0  0  0  0  0  0  0  0  0  0  0  0
    0.4045    5.2103    9.6860 N   0  0  0  0  0  0  0  0  0  0  0  0
    0.9738    6.4488    9.5926 C   0  0  0  0  0  0  0  0  0  0  0  0
    0.4503    7.3954    9.0175 O   0  0  0  0  0  0  0  0  0  0  0  0
    2.3076    6.5482   10.3001 C   0  0  0  0  0  0  0  0  0  0  0  0
    3.0120    5.3015   10.2728 O   0  0  0  0  0  0  0  0  0  0  0  0
    2.2788    4.3205   10.8770 C   0  0  0  0  0  0  0  0  0  0  0  0
    2.8298    3.5016   11.8429 C   0  0  0  0  0  0  0  0  0  0  0  0
   -0.7925   -0.4883   14.4439 C   0  0  0  0  0  0  0  0  0  0  0  0
   -2.1651   -0.6528   14.3932 C   0  0  0  0  0  0  0  0  0  0  0  0
   -2.9964    0.3024   13.8196 O   0  0  0  0  0  0  0  0  0  0  0  0
   -2.3611    1.1194   12.8363 C   0  0  0  0  0  0  0  0  0  0  0  0
   -5.7947   -2.3260   16.1280 H   0  0  0  0  0  0  0  0  0  0  0  0
   -4.2617   -2.4642   17.0226 H   0  0  0  0  0  0  0  0  0  0  0  0
   -4.6417   -3.6240   15.7415 H   0  0  0  0  0  0  0  0  0  0  0  0
   -2.4020   -3.5814   16.0694 H   0  0  0  0  0  0  0  0  0  0  0  0
   -0.0191   -3.2826   16.1970 H   0  0  0  0  0  0  0  0  0  0  0  0
    1.8255   -1.7328   16.0839 H   0  0  0  0  0  0  0  0  0  0  0  0
    4.7544    2.0856   13.1774 H   0  0  0  0  0  0  0  0  0  0  0  0
    6.5572    0.8417   14.8617 H   0  0  0  0  0  0  0  0  0  0  0  0
    6.2190   -1.2100   16.6404 H   0  0  0  0  0  0  0  0  0  0  0  0
    0.3798    1.1909   11.9436 H   0  0  0  0  0  0  0  0  0  0  0  0
   -0.7655    2.9058   10.5440 H   0  0  0  0  0  0  0  0  0  0  0  0
   -0.4406    5.0697    9.1510 H   0  0  0  0  0  0  0  0  0  0  0  0
    2.1749    6.8698   11.3361 H   0  0  0  0  0  0  0  0  0  0  0  0
    2.9418    7.2764    9.8139 H   0  0  0  0  0  0  0  0  0  0  0  0
    3.7498    3.8219   12.3163 H   0  0  0  0  0  0  0  0  0  0  0  0
   -0.3239    0.3553   13.9754 H   0  0  0  0  0  0  0  0  0  0  0  0
   -3.1480    1.6366   12.2893 H   0  0  0  0  0  0  0  0  0  0  0  0
   -1.8038    0.4940   12.1523 H   0  0  0  0  0  0  0  0  0  0  0  0
   -1.6954    1.8469   13.2980 H   0  0  0  0  0  0  0  0  0  0  0  0
  1  2  1  0
  1 32  1  0
  1 33  1  0
  1 34  1  0
  2  3  1  0
  3  4  2  0
  3 29  1  0
  4  5  1  0
  4 35  1  0
  5  6  2  0
  5 36  1  0
  6  7  1  0
  6 28  1  0
  7  8  1  0
  7 37  1  0
  8  9  2  0
  8 16  1  0
  9 10  1  0
 10 11  2  0
 10 17  1  0
 11 12  1  0
 11 38  1  0
 12 13  1  0
 12 16  1  0
 13 14  2  0
 13 39  1  0
 14 15  1  0
 14 40  1  0
 15 16  2  0
 17 18  2  0
 17 27  1  0
 18 19  1  0
 18 41  1  0
 19 20  2  0
 19 42  1  0
 20 21  1  0
 20 26  1  0
 21 22  1  0
 21 43  1  0
 22 23  2  0
 22 24  1  0
 24 25  1  0
 24 44  1  0
 24 45  1  0
 25 26  1  0
 26 27  2  0
 27 46  1  0
 28 29  2  0
 28 47  1  0
 29 30  1  0
 30 31  1  0
 31 48  1  0
 31 49  1  0
 31 50  1  0
M  END
>  <r_exp_dg>  (18) 
-10.1995

>  <mol_id>  (18) 
18

>  <source_index>  (18) 
20

>  <paff>  (18) 
7.4776064965032756

>  <source_r_exp_dg>  (18) 
-10.1995

>  <smiles>  (18) 
COc1ccc(Nc2nc(-c3ccc4c(c3)OCC(=O)N4)cn3ccnc23)cc1OC

>  <aimnet_interaction_kcal_mol>  (18) 
-93.588001484825881

$$$$
syk_019
     RDKit          3D

 51 54  0  0  1  0  0  0  0  0999 V2000
   -4.7010   -2.5523   16.0376 C   0  0  0  0  0  0  0  0  0  0  0  0
   -4.1287   -1.6654   15.0783 O   0  0  0  0  0  0  0  0  0  0  0  0
   -2.7408   -1.7054   15.0065 C   0  0  0  0  0  0  0  0  0  0  0  0
   -1.9408   -2.6648   15.6158 C   0  0  0  0  0  0  0  0  0  0  0  0
   -0.5661   -2.5033   15.6788 C   0  0  0  0  0  0  0  0  0  0  0  0
    0.0446   -1.3872   15.1013 C   0  0  0  0  0  0  0  0  0  0  0  0
    1.4067   -1.1816   15.3295 N   0  0  0  0  0  0  0  0  0  0  0  0
    2.2475   -0.2672   14.7709 C   0  0  0  0  0  0  0  0  0  0  0  0
    1.8611    0.6694   13.9311 N   0  0  0  0  0  0  0  0  0  0  0  0
    2.7456    1.6472   13.5531 C   0  0  0  0  0  0  0  0  0  0  0  0
    4.0802    1.5685   13.8227 C   0  0  0  0  0  0  0  0  0  0  0  0
    4.5048    0.5552   14.6449 N   0  0  0  0  0  0  0  0  0  0  0  0
    5.7316    0.2582   15.1924 C   0  0  0  0  0  0  0  0  0  0  0  0
    5.5210   -0.8215   16.0333 C   0  0  0  0  0  0  0  0  0  0  0  0
    4.2029   -1.2025   16.0047 N   0  0  0  0  0  0  0  0  0  0  0  0
    3.6109   -0.3713   15.1682 C   0  0  0  0  0  0  0  0  0  0  0  0
    2.1553    2.8357   12.9090 C   0  0  0  0  0  0  0  0  0  0  0  0
    2.8295    3.5911   11.9555 C   0  0  0  0  0  0  0  0  0  0  0  0
    2.1815    4.6234   11.3096 C   0  0  0  0  0  0  0  0  0  0  0  0
    0.8487    4.9279   11.5871 C   0  0  0  0  0  0  0  0  0  0  0  0
    0.1121    5.8591   10.6779 C   0  0  0  0  0  0  0  0  0  0  0  0
   -0.7798    6.6277   11.0425 O   0  0  0  0  0  0  0  0  0  0  0  0
    0.4993    5.7917    9.3632 N   0  0  0  0  0  0  0  0  0  0  0  0
    0.2211    4.3040   12.6743 C   0  0  0  0  0  0  0  0  0  0  0  0
   -1.1107    4.7516   13.1925 C   0  0  0  0  0  0  0  0  0  0  0  0
    0.8817    3.2528   13.2960 C   0  0  0  0  0  0  0  0  0  0  0  0
   -0.7424   -0.5032   14.3563 C   0  0  0  0  0  0  0  0  0  0  0  0
   -2.1208   -0.6418   14.3515 C   0  0  0  0  0  0  0  0  0  0  0  0
   -2.9618    0.3142   13.7952 O   0  0  0  0  0  0  0  0  0  0  0  0
   -2.3526    1.1323   12.7933 C   0  0  0  0  0  0  0  0  0  0  0  0
   -5.7581   -2.3003   16.1032 H   0  0  0  0  0  0  0  0  0  0  0  0
   -4.2341   -2.4352   17.0123 H   0  0  0  0  0  0  0  0  0  0  0  0
   -4.5957   -3.5913   15.7222 H   0  0  0  0  0  0  0  0  0  0  0  0
   -2.3607   -3.5270   16.1093 H   0  0  0  0  0  0  0  0  0  0  0  0
    0.0206   -3.2226   16.2306 H   0  0  0  0  0  0  0  0  0  0  0  0
    1.8576   -1.7535   16.0470 H   0  0  0  0  0  0  0  0  0  0  0  0
    4.8122    2.2893   13.5045 H   0  0  0  0  0  0  0  0  0  0  0  0
    6.6287    0.8033   14.9555 H   0  0  0  0  0  0  0  0  0  0  0  0
    6.2673   -1.3362   16.6306 H   0  0  0  0  0  0  0  0  0  0  0  0
    3.8747    3.4039   11.7521 H   0  0  0  0  0  0  0  0  0  0  0  0
    2.7435    5.2707   10.6535 H   0  0  0  0  0  0  0  0  0  0  0  0
   -0.1965    6.0014    8.6571 H   0  0  0  0  0  0  0  0  0  0  0  0
    1.1371    5.0551    9.1033 H   0  0  0  0  0  0  0  0  0  0  0  0
   -1.4101    4.1355   14.0357 H   0  0  0  0  0  0  0  0  0  0  0  0
   -1.8838    4.7025   12.4281 H   0  0  0  0  0  0  0  0  0  0  0  0
   -1.0775    5.7847   13.5280 H   0  0  0  0  0  0  0  0  0  0  0  0
    0.4290    2.7457   14.1360 H   0  0  0  0  0  0  0  0  0  0  0  0
   -0.2653    0.2735   13.7870 H   0  0  0  0  0  0  0  0  0  0  0  0
   -3.1527    1.6751   12.2897 H   0  0  0  0  0  0  0  0  0  0  0  0
   -1.8262    0.5092   12.0828 H   0  0  0  0  0  0  0  0  0  0  0  0
   -1.6651    1.8444   13.2409 H   0  0  0  0  0  0  0  0  0  0  0  0
  1  2  1  0
  1 31  1  0
  1 32  1  0
  1 33  1  0
  2  3  1  0
  3  4  2  0
  3 28  1  0
  4  5  1  0
  4 34  1  0
  5  6  2  0
  5 35  1  0
  6  7  1  0
  6 27  1  0
  7  8  1  0
  7 36  1  0
  8  9  2  0
  8 16  1  0
  9 10  1  0
 10 11  2  0
 10 17  1  0
 11 12  1  0
 11 37  1  0
 12 13  1  0
 12 16  1  0
 13 14  2  0
 13 38  1  0
 14 15  1  0
 14 39  1  0
 15 16  2  0
 17 18  2  0
 17 26  1  0
 18 19  1  0
 18 40  1  0
 19 20  2  0
 19 41  1  0
 20 21  1  0
 20 24  1  0
 21 22  2  0
 21 23  1  0
 23 42  1  0
 23 43  1  0
 24 25  1  0
 24 26  2  0
 25 44  1  0
 25 45  1  0
 25 46  1  0
 26 47  1  0
 27 28  2  0
 27 48  1  0
 28 29  1  0
 29 30  1  0
 30 49  1  0
 30 50  1  0
 30 51  1  0
M  END
>  <r_exp_dg>  (19) 
-9.81322

>  <mol_id>  (19) 
19

>  <source_index>  (19) 
22

>  <paff>  (19) 
7.1944442312738408

>  <source_r_exp_dg>  (19) 
-9.8132199999999994

>  <smiles>  (19) 
COc1ccc(Nc2nc(-c3ccc(C(N)=O)c(C)c3)cn3ccnc23)cc1OC

>  <aimnet_interaction_kcal_mol>  (19) 
-96.775083487910692

$$$$
syk_020
     RDKit          3D

 48 51  0  0  1  0  0  0  0  0999 V2000
   -4.8182   -2.5247   16.1255 C   0  0  0  0  0  0  0  0  0  0  0  0
   -4.2428   -1.6556   15.1513 O   0  0  0  0  0  0  0  0  0  0  0  0
   -2.8541   -1.6802   15.0947 C   0  0  0  0  0  0  0  0  0  0  0  0
   -2.0477   -2.5684   15.8002 C   0  0  0  0  0  0  0  0  0  0  0  0
   -0.6744   -2.3881   15.8600 C   0  0  0  0  0  0  0  0  0  0  0  0
   -0.0780   -1.3293   15.1744 C   0  0  0  0  0  0  0  0  0  0  0  0
    1.2692   -1.0421   15.3767 N   0  0  0  0  0  0  0  0  0  0  0  0
    1.9883   -0.0048   14.8591 C   0  0  0  0  0  0  0  0  0  0  0  0
    1.4623    1.0212   14.2196 N   0  0  0  0  0  0  0  0  0  0  0  0
    2.2701    2.0453   13.8009 C   0  0  0  0  0  0  0  0  0  0  0  0
    3.6328    1.9926   13.8956 C   0  0  0  0  0  0  0  0  0  0  0  0
    4.1882    0.9263   14.5654 N   0  0  0  0  0  0  0  0  0  0  0  0
    5.4688    0.6476   14.9787 C   0  0  0  0  0  0  0  0  0  0  0  0
    5.3765   -0.5081   15.7393 C   0  0  0  0  0  0  0  0  0  0  0  0
    4.0855   -0.9554   15.7934 N   0  0  0  0  0  0  0  0  0  0  0  0
    3.3864   -0.0876   15.0826 C   0  0  0  0  0  0  0  0  0  0  0  0
    1.5722    3.2466   13.2972 C   0  0  0  0  0  0  0  0  0  0  0  0
    0.3958    3.6605   13.9309 C   0  0  0  0  0  0  0  0  0  0  0  0
   -0.2826    4.7889   13.5230 C   0  0  0  0  0  0  0  0  0  0  0  0
    0.1436    5.4868   12.3930 C   0  0  0  0  0  0  0  0  0  0  0  0
    1.3386    5.1037   11.7768 C   0  0  0  0  0  0  0  0  0  0  0  0
    2.0544    4.0195   12.2413 C   0  0  0  0  0  0  0  0  0  0  0  0
   -0.6818    6.5970   11.8668 C   0  0  0  0  0  0  0  0  0  0  0  0
   -1.4374    7.2939   12.5670 O   0  0  0  0  0  0  0  0  0  0  0  0
   -0.5604    6.8390   10.5255 N   0  0  0  0  0  0  0  0  0  0  0  0
   -0.8623   -0.5548   14.3177 C   0  0  0  0  0  0  0  0  0  0  0  0
   -2.2377   -0.6755   14.3468 C   0  0  0  0  0  0  0  0  0  0  0  0
   -3.0644    0.2569   13.7368 O   0  0  0  0  0  0  0  0  0  0  0  0
   -2.4218    1.1294   12.8042 C   0  0  0  0  0  0  0  0  0  0  0  0
   -5.8855   -2.3119   16.1387 H   0  0  0  0  0  0  0  0  0  0  0  0
   -4.3934   -2.3470   17.1102 H   0  0  0  0  0  0  0  0  0  0  0  0
   -4.6609   -3.5705   15.8586 H   0  0  0  0  0  0  0  0  0  0  0  0
   -2.4538   -3.3888   16.3739 H   0  0  0  0  0  0  0  0  0  0  0  0
   -0.0793   -3.0459   16.4773 H   0  0  0  0  0  0  0  0  0  0  0  0
    1.8080   -1.6403   16.0060 H   0  0  0  0  0  0  0  0  0  0  0  0
    4.2870    2.7845   13.5720 H   0  0  0  0  0  0  0  0  0  0  0  0
    6.3102    1.2751   14.7451 H   0  0  0  0  0  0  0  0  0  0  0  0
    6.1720   -1.0337   16.2427 H   0  0  0  0  0  0  0  0  0  0  0  0
    0.0568    3.0857   14.7766 H   0  0  0  0  0  0  0  0  0  0  0  0
   -1.1244    5.1717   14.0796 H   0  0  0  0  0  0  0  0  0  0  0  0
    1.7643    5.7145   10.9943 H   0  0  0  0  0  0  0  0  0  0  0  0
    3.0203    3.8014   11.8056 H   0  0  0  0  0  0  0  0  0  0  0  0
   -1.2212    7.4873   10.1353 H   0  0  0  0  0  0  0  0  0  0  0  0
   -0.2912    6.0929    9.8992 H   0  0  0  0  0  0  0  0  0  0  0  0
   -0.3853    0.1316   13.6451 H   0  0  0  0  0  0  0  0  0  0  0  0
   -3.2079    1.6988   12.3049 H   0  0  0  0  0  0  0  0  0  0  0  0
   -1.8797    0.5431   12.0744 H   0  0  0  0  0  0  0  0  0  0  0  0
   -1.7454    1.8111   13.3141 H   0  0  0  0  0  0  0  0  0  0  0  0
  1  2  1  0
  1 30  1  0
  1 31  1  0
  1 32  1  0
  2  3  1  0
  3  4  2  0
  3 27  1  0
  4  5  1  0
  4 33  1  0
  5  6  2  0
  5 34  1  0
  6  7  1  0
  6 26  1  0
  7  8  1  0
  7 35  1  0
  8  9  2  0
  8 16  1  0
  9 10  1  0
 10 11  2  0
 10 17  1  0
 11 12  1  0
 11 36  1  0
 12 13  1  0
 12 16  1  0
 13 14  2  0
 13 37  1  0
 14 15  1  0
 14 38  1  0
 15 16  2  0
 17 18  2  0
 17 22  1  0
 18 19  1  0
 18 39  1  0
 19 20  2  0
 19 40  1  0
 20 21  1  0
 20 23  1  0
 21 22  2  0
 21 41  1  0
 22 42  1  0
 23 24  2  0
 23 25  1  0
 25 43  1  0
 25 44  1  0
 26 27  2  0
 26 45  1  0
 27 28  1  0
 28 29  1  0
 29 46  1  0
 29 47  1  0
 29 48  1  0
M  END
>  <r_exp_dg>  (20) 
-10.5757

>  <mol_id>  (20) 
20

>  <source_index>  (20) 
24

>  <paff>  (20) 
7.7534302238844699

>  <source_r_exp_dg>  (20) 
-10.575699999999999

>  <smiles>  (20) 
COc1ccc(Nc2nc(-c3ccc(C(N)=O)cc3)cn3ccnc23)cc1OC

>  <aimnet_interaction_kcal_mol>  (20) 
-97.237294536043592

$$$$
syk_021
     RDKit          3D

 51 54  0  0  1  0  0  0  0  0999 V2000
    2.0682    7.7625   10.0488 C   0  0  0  0  0  0  0  0  0  0  0  0
    1.6753    6.8576   11.1085 N   0  0  0  0  0  0  0  0  0  0  0  0
    1.8402    5.5108   10.8997 C   0  0  0  0  0  0  0  0  0  0  0  0
    2.1644    5.0191    9.8227 O   0  0  0  0  0  0  0  0  0  0  0  0
    1.5218    4.6797   12.0791 C   0  0  0  0  0  0  0  0  0  0  0  0
    0.5572    5.0977   12.9927 C   0  0  0  0  0  0  0  0  0  0  0  0
    0.1693    4.2751   14.0282 C   0  0  0  0  0  0  0  0  0  0  0  0
    0.7812    3.0412   14.1755 C   0  0  0  0  0  0  0  0  0  0  0  0
    1.8422    2.6658   13.3538 C   0  0  0  0  0  0  0  0  0  0  0  0
    2.1838    3.4724   12.2776 C   0  0  0  0  0  0  0  0  0  0  0  0
    2.5567    1.4333   13.7410 C   0  0  0  0  0  0  0  0  0  0  0  0
    3.9093    1.3587   13.8681 C   0  0  0  0  0  0  0  0  0  0  0  0
    4.3954    0.3838   14.7078 N   0  0  0  0  0  0  0  0  0  0  0  0
    5.6597    0.1513   15.1969 C   0  0  0  0  0  0  0  0  0  0  0  0
    5.5330   -0.8775   16.1104 C   0  0  0  0  0  0  0  0  0  0  0  0
    4.2272   -1.2916   16.1867 N   0  0  0  0  0  0  0  0  0  0  0  0
    3.5522   -0.5371   15.3422 C   0  0  0  0  0  0  0  0  0  0  0  0
    2.1658   -0.4863   14.9964 C   0  0  0  0  0  0  0  0  0  0  0  0
    1.3014   -1.3564   15.5925 N   0  0  0  0  0  0  0  0  0  0  0  0
   -0.0567   -1.5347   15.3036 C   0  0  0  0  0  0  0  0  0  0  0  0
   -0.7237   -2.5997   15.9108 C   0  0  0  0  0  0  0  0  0  0  0  0
   -2.1012   -2.7153   15.8240 C   0  0  0  0  0  0  0  0  0  0  0  0
   -2.8510   -1.7621   15.1483 C   0  0  0  0  0  0  0  0  0  0  0  0
   -4.2385   -1.6684   15.1818 O   0  0  0  0  0  0  0  0  0  0  0  0
   -4.8649   -2.4857   16.1698 C   0  0  0  0  0  0  0  0  0  0  0  0
   -2.1788   -0.7554   14.4570 C   0  0  0  0  0  0  0  0  0  0  0  0
   -2.9778    0.2159   13.8647 O   0  0  0  0  0  0  0  0  0  0  0  0
   -2.3205    1.0348   12.8918 C   0  0  0  0  0  0  0  0  0  0  0  0
   -0.7956   -0.6771   14.4760 C   0  0  0  0  0  0  0  0  0  0  0  0
    1.7433    0.4129   14.1323 N   0  0  0  0  0  0  0  0  0  0  0  0
    1.8142    8.7816   10.3340 H   0  0  0  0  0  0  0  0  0  0  0  0
    1.5289    7.5076    9.1372 H   0  0  0  0  0  0  0  0  0  0  0  0
    3.1374    7.7051    9.8615 H   0  0  0  0  0  0  0  0  0  0  0  0
    1.9827    7.1227   12.0361 H   0  0  0  0  0  0  0  0  0  0  0  0
    0.1238    6.0809   12.8835 H   0  0  0  0  0  0  0  0  0  0  0  0
   -0.5694    4.6149   14.7368 H   0  0  0  0  0  0  0  0  0  0  0  0
    0.4749    2.3676   14.9589 H   0  0  0  0  0  0  0  0  0  0  0  0
    2.9652    3.1826   11.5886 H   0  0  0  0  0  0  0  0  0  0  0  0
    4.6130    2.0483   13.4342 H   0  0  0  0  0  0  0  0  0  0  0  0
    6.5242    0.7098   14.8813 H   0  0  0  0  0  0  0  0  0  0  0  0
    6.3232   -1.3426   16.6906 H   0  0  0  0  0  0  0  0  0  0  0  0
    1.6755   -1.8898   16.3842 H   0  0  0  0  0  0  0  0  0  0  0  0
   -0.1774   -3.3180   16.5029 H   0  0  0  0  0  0  0  0  0  0  0  0
   -2.5573   -3.5343   16.3587 H   0  0  0  0  0  0  0  0  0  0  0  0
   -5.9167   -2.2054   16.1871 H   0  0  0  0  0  0  0  0  0  0  0  0
   -4.4229   -2.3232   17.1496 H   0  0  0  0  0  0  0  0  0  0  0  0
   -4.7772   -3.5427   15.9157 H   0  0  0  0  0  0  0  0  0  0  0  0
   -3.0965    1.6220   12.3976 H   0  0  0  0  0  0  0  0  0  0  0  0
   -1.8226    0.4081   12.1630 H   0  0  0  0  0  0  0  0  0  0  0  0
   -1.6021    1.7025   13.3610 H   0  0  0  0  0  0  0  0  0  0  0  0
   -0.2914    0.0328   13.8501 H   0  0  0  0  0  0  0  0  0  0  0  0
  1  2  1  0
  1 31  1  0
  1 32  1  0
  1 33  1  0
  2  3  1  0
  2 34  1  0
  3  4  2  0
  3  5  1  0
  5  6  2  0
  5 10  1  0
  6  7  1  0
  6 35  1  0
  7  8  2  0
  7 36  1  0
  8  9  1  0
  8 37  1  0
  9 10  2  0
  9 11  1  0
 10 38  1  0
 11 12  2  0
 11 30  1  0
 12 13  1  0
 12 39  1  0
 13 14  1  0
 13 17  1  0
 14 15  2  0
 14 40  1  0
 15 16  1  0
 15 41  1  0
 16 17  2  0
 17 18  1  0
 18 19  1  0
 18 30  2  0
 19 20  1  0
 19 42  1  0
 20 21  2  0
 20 29  1  0
 21 22  1  0
 21 43  1  0
 22 23  2  0
 22 44  1  0
 23 24  1  0
 23 26  1  0
 24 25  1  0
 25 45  1  0
 25 46  1  0
 25 47  1  0
 26 27  1  0
 26 29  2  0
 27 28  1  0
 28 48  1  0
 28 49  1  0
 28 50  1  0
 29 51  1  0
M  END
>  <r_exp_dg>  (21) 
-9.95804

>  <mol_id>  (21) 
21

>  <source_index>  (21) 
25

>  <paff>  (21) 
7.3006174081931015

>  <source_r_exp_dg>  (21) 
-9.9580400000000004

>  <smiles>  (21) 
CNC(=O)c1cccc(-c2cn3ccnc3c(Nc3ccc(OC)c(OC)c3)n2)c1

>  <aimnet_interaction_kcal_mol>  (21) 
-94.905047346939227

$$$$
syk_022
     RDKit          3D

 52 57  0  0  1  0  0  0  0  0999 V2000
   -7.0502   -2.2861   13.2482 C   0  0  0  0  0  0  0  0  0  0  0  0
   -5.6804   -2.8839   13.0430 C   0  0  0  0  0  0  0  0  0  0  0  0
   -5.7954   -3.9618   12.0948 O   0  0  0  0  0  0  0  0  0  0  0  0
   -4.5473   -1.9122   12.7182 C   0  0  0  0  0  0  0  0  0  0  0  0
   -4.2283   -1.8604   14.1737 N   0  0  0  0  0  0  0  0  0  0  0  0
   -4.9142   -3.1803   14.3448 C   0  0  0  0  0  0  0  0  0  0  0  0
   -2.8532   -1.7182   14.5524 C   0  0  0  0  0  0  0  0  0  0  0  0
   -2.2234   -2.5663   15.4665 C   0  0  0  0  0  0  0  0  0  0  0  0
   -0.8858   -2.3976   15.7948 C   0  0  0  0  0  0  0  0  0  0  0  0
   -0.1312   -1.3457   15.2490 C   0  0  0  0  0  0  0  0  0  0  0  0
    1.2172   -1.2198   15.6006 N   0  0  0  0  0  0  0  0  0  0  0  0
    2.1605   -0.4581   14.9543 C   0  0  0  0  0  0  0  0  0  0  0  0
    1.8168    0.3358   13.9630 N   0  0  0  0  0  0  0  0  0  0  0  0
    2.6740    1.2806   13.4805 C   0  0  0  0  0  0  0  0  0  0  0  0
    3.9845    1.3156   13.8513 C   0  0  0  0  0  0  0  0  0  0  0  0
    4.4074    0.3803   14.7531 N   0  0  0  0  0  0  0  0  0  0  0  0
    5.6508    0.1460   15.2917 C   0  0  0  0  0  0  0  0  0  0  0  0
    5.4839   -0.8764   16.2038 C   0  0  0  0  0  0  0  0  0  0  0  0
    4.1718   -1.2797   16.2361 N   0  0  0  0  0  0  0  0  0  0  0  0
    3.5305   -0.5277   15.3620 C   0  0  0  0  0  0  0  0  0  0  0  0
    2.1017    2.2346   12.5227 C   0  0  0  0  0  0  0  0  0  0  0  0
    0.9967    1.7918   11.7459 C   0  0  0  0  0  0  0  0  0  0  0  0
    0.4133    2.5876   10.7930 C   0  0  0  0  0  0  0  0  0  0  0  0
    0.9294    3.8703   10.5697 C   0  0  0  0  0  0  0  0  0  0  0  0
    0.6771    4.9461    9.6828 C   0  0  0  0  0  0  0  0  0  0  0  0
    1.5137    5.9556    9.9195 N   0  0  0  0  0  0  0  0  0  0  0  0
    2.2883    5.5720   10.9518 N   0  0  0  0  0  0  0  0  0  0  0  0
    2.0056    4.3175   11.3742 C   0  0  0  0  0  0  0  0  0  0  0  0
    2.5925    3.5239   12.3665 C   0  0  0  0  0  0  0  0  0  0  0  0
   -0.8019   -0.4446   14.4060 C   0  0  0  0  0  0  0  0  0  0  0  0
   -2.1091   -0.6688   14.0212 C   0  0  0  0  0  0  0  0  0  0  0  0
   -7.0628   -1.5728   14.0766 H   0  0  0  0  0  0  0  0  0  0  0  0
   -7.3875   -1.7772   12.3476 H   0  0  0  0  0  0  0  0  0  0  0  0
   -7.7776   -3.0547   13.4971 H   0  0  0  0  0  0  0  0  0  0  0  0
   -5.4454   -3.6369   11.2494 H   0  0  0  0  0  0  0  0  0  0  0  0
   -4.7934   -0.9796   12.2124 H   0  0  0  0  0  0  0  0  0  0  0  0
   -3.7537   -2.3895   12.1383 H   0  0  0  0  0  0  0  0  0  0  0  0
   -4.2349   -4.0268   14.2277 H   0  0  0  0  0  0  0  0  0  0  0  0
   -5.4908   -3.2908   15.2628 H   0  0  0  0  0  0  0  0  0  0  0  0
   -2.7705   -3.3545   15.9635 H   0  0  0  0  0  0  0  0  0  0  0  0
   -0.4402   -3.0696   16.5155 H   0  0  0  0  0  0  0  0  0  0  0  0
    1.5411   -1.7633   16.4101 H   0  0  0  0  0  0  0  0  0  0  0  0
    4.7056    2.0263   13.4889 H   0  0  0  0  0  0  0  0  0  0  0  0
    6.5317    0.6903   14.9965 H   0  0  0  0  0  0  0  0  0  0  0  0
    6.2549   -1.3465   16.8062 H   0  0  0  0  0  0  0  0  0  0  0  0
    0.6400    0.7894   11.9249 H   0  0  0  0  0  0  0  0  0  0  0  0
   -0.4241    2.2313   10.2223 H   0  0  0  0  0  0  0  0  0  0  0  0
   -0.0532    5.0388    8.8986 H   0  0  0  0  0  0  0  0  0  0  0  0
    3.0428    6.1812   11.2964 H   0  0  0  0  0  0  0  0  0  0  0  0
    3.3654    3.9300   13.0064 H   0  0  0  0  0  0  0  0  0  0  0  0
   -0.2941    0.4227   14.0326 H   0  0  0  0  0  0  0  0  0  0  0  0
   -2.5171   -0.0508   13.2312 H   0  0  0  0  0  0  0  0  0  0  0  0
  1  2  1  0
  1 32  1  0
  1 33  1  0
  1 34  1  0
  2  3  1  0
  2  4  1  0
  2  6  1  0
  3 35  1  0
  4  5  1  0
  4 36  1  0
  4 37  1  0
  5  6  1  0
  5  7  1  0
  6 38  1  0
  6 39  1  0
  7  8  2  0
  7 31  1  0
  8  9  1  0
  8 40  1  0
  9 10  2  0
  9 41  1  0
 10 11  1  0
 10 30  1  0
 11 12  1  0
 11 42  1  0
 12 13  2  0
 12 20  1  0
 13 14  1  0
 14 15  2  0
 14 21  1  0
 15 16  1  0
 15 43  1  0
 16 17  1  0
 16 20  1  0
 17 18  2  0
 17 44  1  0
 18 19  1  0
 18 45  1  0
 19 20  2  0
 21 22  2  0
 21 29  1  0
 22 23  1  0
 22 46  1  0
 23 24  2  0
 23 47  1  0
 24 25  1  0
 24 28  1  0
 25 26  2  0
 25 48  1  0
 26 27  1  0
 27 28  1  0
 27 49  1  0
 28 29  2  0
 29 50  1  0
 30 31  2  0
 30 51  1  0
 31 52  1  0
M  END
>  <r_exp_dg>  (22) 
-11.4719

>  <mol_id>  (22) 
22

>  <source_index>  (22) 
26

>  <paff>  (22) 
8.4104572922603111

>  <source_r_exp_dg>  (22) 
-11.4719

>  <smiles>  (22) 
CC1(O)CN(c2ccc(Nc3nc(-c4ccc5cn[nH]c5c4)cn4ccnc34)cc2)C1

>  <aimnet_interaction_kcal_mol>  (22) 
-105.21060046041447

$$$$
syk_023
     RDKit          3D

 50 54  0  0  1  0  0  0  0  0999 V2000
   -4.7824   -2.5213   16.1466 C   0  0  0  0  0  0  0  0  0  0  0  0
   -4.2014   -1.6630   15.1660 O   0  0  0  0  0  0  0  0  0  0  0  0
   -2.8135   -1.7009   15.1054 C   0  0  0  0  0  0  0  0  0  0  0  0
   -2.0099   -2.6044   15.7924 C   0  0  0  0  0  0  0  0  0  0  0  0
   -0.6349   -2.4378   15.8397 C   0  0  0  0  0  0  0  0  0  0  0  0
   -0.0265   -1.3806   15.1597 C   0  0  0  0  0  0  0  0  0  0  0  0
    1.3370   -1.1439   15.3439 N   0  0  0  0  0  0  0  0  0  0  0  0
    2.0916   -0.1333   14.8239 C   0  0  0  0  0  0  0  0  0  0  0  0
    1.5969    0.8504   14.1066 N   0  0  0  0  0  0  0  0  0  0  0  0
    2.3666    1.9394   13.7956 C   0  0  0  0  0  0  0  0  0  0  0  0
    3.7262    1.9148   13.9152 C   0  0  0  0  0  0  0  0  0  0  0  0
    4.2759    0.8511   14.6045 N   0  0  0  0  0  0  0  0  0  0  0  0
    5.5497    0.5924   15.0499 C   0  0  0  0  0  0  0  0  0  0  0  0
    5.4598   -0.5547   15.8246 C   0  0  0  0  0  0  0  0  0  0  0  0
    4.1739   -1.0185   15.8601 N   0  0  0  0  0  0  0  0  0  0  0  0
    3.4784   -0.1736   15.1185 C   0  0  0  0  0  0  0  0  0  0  0  0
    1.5767    3.1399   13.4445 C   0  0  0  0  0  0  0  0  0  0  0  0
    0.3767    3.2942   14.1828 C   0  0  0  0  0  0  0  0  0  0  0  0
   -0.5591    4.2558   13.8937 C   0  0  0  0  0  0  0  0  0  0  0  0
   -0.3114    5.1226   12.8215 C   0  0  0  0  0  0  0  0  0  0  0  0
   -0.9843    6.1798   12.1638 C   0  0  0  0  0  0  0  0  0  0  0  0
   -0.2518    6.6706   11.1675 N   0  0  0  0  0  0  0  0  0  0  0  0
    0.8927    5.9538   11.1491 N   0  0  0  0  0  0  0  0  0  0  0  0
    1.9270    6.2230   10.1816 C   0  0  0  0  0  0  0  0  0  0  0  0
    0.9215    5.0037   12.1292 C   0  0  0  0  0  0  0  0  0  0  0  0
    1.9034    4.0597   12.4629 C   0  0  0  0  0  0  0  0  0  0  0  0
   -0.8167   -0.5744   14.3345 C   0  0  0  0  0  0  0  0  0  0  0  0
   -2.1951   -0.6887   14.3712 C   0  0  0  0  0  0  0  0  0  0  0  0
   -3.0315    0.2518   13.7869 O   0  0  0  0  0  0  0  0  0  0  0  0
   -2.4184    1.1074   12.8154 C   0  0  0  0  0  0  0  0  0  0  0  0
   -5.8457   -2.2906   16.1697 H   0  0  0  0  0  0  0  0  0  0  0  0
   -4.3456   -2.3487   17.1267 H   0  0  0  0  0  0  0  0  0  0  0  0
   -4.6448   -3.5700   15.8804 H   0  0  0  0  0  0  0  0  0  0  0  0
   -2.4209   -3.4239   16.3634 H   0  0  0  0  0  0  0  0  0  0  0  0
   -0.0451   -3.1063   16.4501 H   0  0  0  0  0  0  0  0  0  0  0  0
    1.8450   -1.7312   16.0074 H   0  0  0  0  0  0  0  0  0  0  0  0
    4.3823    2.7156   13.6157 H   0  0  0  0  0  0  0  0  0  0  0  0
    6.3907    1.2230   14.8230 H   0  0  0  0  0  0  0  0  0  0  0  0
    6.2588   -1.0619   16.3421 H   0  0  0  0  0  0  0  0  0  0  0  0
    0.2473    2.6188   15.0108 H   0  0  0  0  0  0  0  0  0  0  0  0
   -1.4462    4.3714   14.4953 H   0  0  0  0  0  0  0  0  0  0  0  0
   -1.9684    6.5821   12.3409 H   0  0  0  0  0  0  0  0  0  0  0  0
    2.8385    6.5307   10.6898 H   0  0  0  0  0  0  0  0  0  0  0  0
    1.5683    7.0129    9.5283 H   0  0  0  0  0  0  0  0  0  0  0  0
    2.1280    5.3307    9.5832 H   0  0  0  0  0  0  0  0  0  0  0  0
    2.8816    4.1007   12.0035 H   0  0  0  0  0  0  0  0  0  0  0  0
   -0.3437    0.1298   13.6773 H   0  0  0  0  0  0  0  0  0  0  0  0
   -3.2200    1.6631   12.3261 H   0  0  0  0  0  0  0  0  0  0  0  0
   -1.8962    0.5081   12.0820 H   0  0  0  0  0  0  0  0  0  0  0  0
   -1.7344    1.8038   13.2877 H   0  0  0  0  0  0  0  0  0  0  0  0
  1  2  1  0
  1 31  1  0
  1 32  1  0
  1 33  1  0
  2  3  1  0
  3  4  2  0
  3 28  1  0
  4  5  1  0
  4 34  1  0
  5  6  2  0
  5 35  1  0
  6  7  1  0
  6 27  1  0
  7  8  1  0
  7 36  1  0
  8  9  2  0
  8 16  1  0
  9 10  1  0
 10 11  2  0
 10 17  1  0
 11 12  1  0
 11 37  1  0
 12 13  1  0
 12 16  1  0
 13 14  2  0
 13 38  1  0
 14 15  1  0
 14 39  1  0
 15 16  2  0
 17 18  2  0
 17 26  1  0
 18 19  1  0
 18 40  1  0
 19 20  2  0
 19 41  1  0
 20 21  1  0
 20 25  1  0
 21 22  2  0
 21 42  1  0
 22 23  1  0
 23 24  1  0
 23 25  1  0
 24 43  1  0
 24 44  1  0
 24 45  1  0
 25 26  2  0
 26 46  1  0
 27 28  2  0
 27 47  1  0
 28 29  1  0
 29 30  1  0
 30 48  1  0
 30 49  1  0
 30 50  1  0
M  END
>  <r_exp_dg>  (23) 
-10.7913

>  <mol_id>  (23) 
23

>  <source_index>  (23) 
27

>  <paff>  (23) 
7.9115269121186822

>  <source_r_exp_dg>  (23) 
-10.7913

>  <smiles>  (23) 
COc1ccc(Nc2nc(-c3ccc4cnn(C)c4c3)cn3ccnc23)cc1OC

>  <aimnet_interaction_kcal_mol>  (23) 
-88.288251002858786

$$$$
syk_024
     RDKit          3D

 46 50  0  0  1  0  0  0  0  0999 V2000
   -4.7728   -2.6102   16.0605 C   0  0  0  0  0  0  0  0  0  0  0  0
   -4.1760   -1.7498   15.0910 O   0  0  0  0  0  0  0  0  0  0  0  0
   -2.7869   -1.8062   15.0485 C   0  0  0  0  0  0  0  0  0  0  0  0
   -2.0135   -2.8018   15.6300 C   0  0  0  0  0  0  0  0  0  0  0  0
   -0.6404   -2.6567   15.7446 C   0  0  0  0  0  0  0  0  0  0  0  0
   -0.0065   -1.5053   15.2731 C   0  0  0  0  0  0  0  0  0  0  0  0
    1.3431   -1.3094   15.5834 N   0  0  0  0  0  0  0  0  0  0  0  0
    2.2263   -0.4977   14.9367 C   0  0  0  0  0  0  0  0  0  0  0  0
    1.8565    0.2994   13.9558 N   0  0  0  0  0  0  0  0  0  0  0  0
    2.6984    1.2669   13.4904 C   0  0  0  0  0  0  0  0  0  0  0  0
    4.0156    1.3120   13.8409 C   0  0  0  0  0  0  0  0  0  0  0  0
    4.4574    0.3865   14.7471 N   0  0  0  0  0  0  0  0  0  0  0  0
    5.7013    0.1666   15.2934 C   0  0  0  0  0  0  0  0  0  0  0  0
    5.5385   -0.8550   16.2088 C   0  0  0  0  0  0  0  0  0  0  0  0
    4.2306   -1.2727   16.2338 N   0  0  0  0  0  0  0  0  0  0  0  0
    3.5922   -0.5287   15.3513 C   0  0  0  0  0  0  0  0  0  0  0  0
    2.0963    2.2613   12.5867 C   0  0  0  0  0  0  0  0  0  0  0  0
    0.9503    1.8584   11.8466 C   0  0  0  0  0  0  0  0  0  0  0  0
    0.2200    2.7410   11.0852 C   0  0  0  0  0  0  0  0  0  0  0  0
    0.6971    4.0512   10.9709 C   0  0  0  0  0  0  0  0  0  0  0  0
    0.2410    5.1319   10.2570 N   0  0  0  0  0  0  0  0  0  0  0  0
    1.0793    6.1210   10.4468 N   0  0  0  0  0  0  0  0  0  0  0  0
    2.0540    5.7114   11.2805 N   0  0  0  0  0  0  0  0  0  0  0  0
    1.8693    4.4246   11.6455 C   0  0  0  0  0  0  0  0  0  0  0  0
    2.5770    3.5610   12.4831 C   0  0  0  0  0  0  0  0  0  0  0  0
   -0.7672   -0.5669   14.5646 C   0  0  0  0  0  0  0  0  0  0  0  0
   -2.1408   -0.7205   14.4631 C   0  0  0  0  0  0  0  0  0  0  0  0
   -2.9607    0.2426   13.8845 O   0  0  0  0  0  0  0  0  0  0  0  0
   -2.3126    1.0677   12.9137 C   0  0  0  0  0  0  0  0  0  0  0  0
   -5.8222   -2.3280   16.1259 H   0  0  0  0  0  0  0  0  0  0  0  0
   -4.2989   -2.4984   17.0332 H   0  0  0  0  0  0  0  0  0  0  0  0
   -4.6980   -3.6549   15.7549 H   0  0  0  0  0  0  0  0  0  0  0  0
   -2.4587   -3.6844   16.0608 H   0  0  0  0  0  0  0  0  0  0  0  0
   -0.0764   -3.4208   16.2567 H   0  0  0  0  0  0  0  0  0  0  0  0
    1.7224   -1.8290   16.3820 H   0  0  0  0  0  0  0  0  0  0  0  0
    4.7273    2.0248   13.4662 H   0  0  0  0  0  0  0  0  0  0  0  0
    6.5784    0.7169   14.9986 H   0  0  0  0  0  0  0  0  0  0  0  0
    6.3071   -1.3187   16.8189 H   0  0  0  0  0  0  0  0  0  0  0  0
    0.6766    0.8157   11.9038 H   0  0  0  0  0  0  0  0  0  0  0  0
   -0.6900    2.4554   10.5935 H   0  0  0  0  0  0  0  0  0  0  0  0
    2.8584    6.3041   11.5318 H   0  0  0  0  0  0  0  0  0  0  0  0
    3.4211    3.9228   13.0539 H   0  0  0  0  0  0  0  0  0  0  0  0
   -0.2767    0.2763   14.1185 H   0  0  0  0  0  0  0  0  0  0  0  0
   -3.0945    1.5905   12.3648 H   0  0  0  0  0  0  0  0  0  0  0  0
   -1.7501    0.4506   12.2267 H   0  0  0  0  0  0  0  0  0  0  0  0
   -1.6512    1.7879   13.3885 H   0  0  0  0  0  0  0  0  0  0  0  0
  1  2  1  0
  1 30  1  0
  1 31  1  0
  1 32  1  0
  2  3  1  0
  3  4  2  0
  3 27  1  0
  4  5  1  0
  4 33  1  0
  5  6  2  0
  5 34  1  0
  6  7  1  0
  6 26  1  0
  7  8  1  0
  7 35  1  0
  8  9  2  0
  8 16  1  0
  9 10  1  0
 10 11  2  0
 10 17  1  0
 11 12  1  0
 11 36  1  0
 12 13  1  0
 12 16  1  0
 13 14  2  0
 13 37  1  0
 14 15  1  0
 14 38  1  0
 15 16  2  0
 17 18  2  0
 17 25  1  0
 18 19  1  0
 18 39  1  0
 19 20  2  0
 19 40  1  0
 20 21  1  0
 20 24  1  0
 21 22  2  0
 22 23  1  0
 23 24  1  0
 23 41  1  0
 24 25  2  0
 25 42  1  0
 26 27  2  0
 26 43  1  0
 27 28  1  0
 28 29  1  0
 29 44  1  0
 29 45  1  0
 29 46  1  0
M  END
>  <r_exp_dg>  (24) 
-10.777

>  <mol_id>  (24) 
24

>  <source_index>  (24) 
28

>  <paff>  (24) 
7.9010595674039328

>  <source_r_exp_dg>  (24) 
-10.776999999999999

>  <smiles>  (24) 
COc1ccc(Nc2nc(-c3ccc4nn[nH]c4c3)cn3ccnc23)cc1OC

>  <aimnet_interaction_kcal_mol>  (24) 
-107.46065748791926

$$$$
syk_025
     RDKit          3D

 51 54  0  0  1  0  0  0  0  0999 V2000
   -4.9302   -2.5232   16.2705 C   0  0  0  0  0  0  0  0  0  0  0  0
   -4.3041   -1.7323   15.2598 O   0  0  0  0  0  0  0  0  0  0  0  0
   -2.9186   -1.8385   15.2157 C   0  0  0  0  0  0  0  0  0  0  0  0
   -2.1626   -2.7706   15.9108 C   0  0  0  0  0  0  0  0  0  0  0  0
   -0.7844   -2.6502   15.9809 C   0  0  0  0  0  0  0  0  0  0  0  0
   -0.1244   -1.5911   15.3571 C   0  0  0  0  0  0  0  0  0  0  0  0
    1.2322   -1.4002   15.6519 N   0  0  0  0  0  0  0  0  0  0  0  0
    2.0994   -0.5511   15.0314 C   0  0  0  0  0  0  0  0  0  0  0  0
    1.6662    0.3106   14.1360 N   0  0  0  0  0  0  0  0  0  0  0  0
    2.4605    1.3131   13.6758 C   0  0  0  0  0  0  0  0  0  0  0  0
    3.8097    1.3024   13.8554 C   0  0  0  0  0  0  0  0  0  0  0  0
    4.3132    0.3525   14.7094 N   0  0  0  0  0  0  0  0  0  0  0  0
    5.5892    0.1486   15.1831 C   0  0  0  0  0  0  0  0  0  0  0  0
    5.4953   -0.8749   16.1047 C   0  0  0  0  0  0  0  0  0  0  0  0
    4.1971   -1.3112   16.2040 N   0  0  0  0  0  0  0  0  0  0  0  0
    3.4932   -0.5793   15.3638 C   0  0  0  0  0  0  0  0  0  0  0  0
    1.7349    2.4410   13.0703 C   0  0  0  0  0  0  0  0  0  0  0  0
    0.4518    2.7343   13.5344 C   0  0  0  0  0  0  0  0  0  0  0  0
   -0.3545    3.6484   12.8797 C   0  0  0  0  0  0  0  0  0  0  0  0
    0.1214    4.3750   11.7972 C   0  0  0  0  0  0  0  0  0  0  0  0
   -0.8099    5.2382   10.9988 C   0  0  0  0  0  0  0  0  0  0  0  0
    1.4763    4.2388   11.4783 C   0  0  0  0  0  0  0  0  0  0  0  0
    2.2495    3.2381   12.0573 C   0  0  0  0  0  0  0  0  0  0  0  0
    2.1903    5.2073   10.6114 C   0  0  0  0  0  0  0  0  0  0  0  0
    2.9805    4.8169    9.7618 O   0  0  0  0  0  0  0  0  0  0  0  0
    1.9460    6.5356   10.8522 N   0  0  0  0  0  0  0  0  0  0  0  0
   -0.8694   -0.7539   14.5143 C   0  0  0  0  0  0  0  0  0  0  0  0
   -2.2517   -0.8613   14.4814 C   0  0  0  0  0  0  0  0  0  0  0  0
   -3.0647    0.0375   13.8064 O   0  0  0  0  0  0  0  0  0  0  0  0
   -2.4122    0.7994   12.7844 C   0  0  0  0  0  0  0  0  0  0  0  0
   -5.9808   -2.2397   16.2826 H   0  0  0  0  0  0  0  0  0  0  0  0
   -4.4837   -2.3364   17.2440 H   0  0  0  0  0  0  0  0  0  0  0  0
   -4.8450   -3.5868   16.0424 H   0  0  0  0  0  0  0  0  0  0  0  0
   -2.6133   -3.5777   16.4669 H   0  0  0  0  0  0  0  0  0  0  0  0
   -0.2308   -3.3624   16.5719 H   0  0  0  0  0  0  0  0  0  0  0  0
    1.5929   -1.9161   16.4638 H   0  0  0  0  0  0  0  0  0  0  0  0
    4.4991    2.0151   13.4376 H   0  0  0  0  0  0  0  0  0  0  0  0
    6.4396    0.7202   14.8528 H   0  0  0  0  0  0  0  0  0  0  0  0
    6.3014   -1.3237   16.6751 H   0  0  0  0  0  0  0  0  0  0  0  0
    0.1108    2.2342   14.4247 H   0  0  0  0  0  0  0  0  0  0  0  0
   -1.3674    3.8259   13.2188 H   0  0  0  0  0  0  0  0  0  0  0  0
   -0.4665    5.3607    9.9768 H   0  0  0  0  0  0  0  0  0  0  0  0
   -0.9134    6.2401   11.4210 H   0  0  0  0  0  0  0  0  0  0  0  0
   -1.8055    4.7950   10.9653 H   0  0  0  0  0  0  0  0  0  0  0  0
    3.2680    3.1169   11.7141 H   0  0  0  0  0  0  0  0  0  0  0  0
    2.8321    7.0471   10.8907 H   0  0  0  0  0  0  0  0  0  0  0  0
    1.4429    6.6847   11.7142 H   0  0  0  0  0  0  0  0  0  0  0  0
   -0.3711   -0.0475   13.8806 H   0  0  0  0  0  0  0  0  0  0  0  0
   -3.1709    1.1490   12.0874 H   0  0  0  0  0  0  0  0  0  0  0  0
   -1.7292    0.1685   12.2362 H   0  0  0  0  0  0  0  0  0  0  0  0
   -1.8789    1.6332   13.2257 H   0  0  0  0  0  0  0  0  0  0  0  0
  1  2  1  0
  1 31  1  0
  1 32  1  0
  1 33  1  0
  2  3  1  0
  3  4  2  0
  3 28  1  0
  4  5  1  0
  4 34  1  0
  5  6  2  0
  5 35  1  0
  6  7  1  0
  6 27  1  0
  7  8  1  0
  7 36  1  0
  8  9  2  0
  8 16  1  0
  9 10  1  0
 10 11  2  0
 10 17  1  0
 11 12  1  0
 11 37  1  0
 12 13  1  0
 12 16  1  0
 13 14  2  0
 13 38  1  0
 14 15  1  0
 14 39  1  0
 15 16  2  0
 17 18  2  0
 17 23  1  0
 18 19  1  0
 18 40  1  0
 19 20  2  0
 19 41  1  0
 20 21  1  0
 20 22  1  0
 21 42  1  0
 21 43  1  0
 21 44  1  0
 22 23  2  0
 22 24  1  0
 23 45  1  0
 24 25  2  0
 24 26  1  0
 26 46  1  0
 26 47  1  0
 27 28  2  0
 27 48  1  0
 28 29  1  0
 29 30  1  0
 30 49  1  0
 30 50  1  0
 30 51  1  0
M  END
>  <r_exp_dg>  (25) 
-10.2976

>  <mol_id>  (25) 
25

>  <source_index>  (25) 
29

>  <paff>  (25) 
7.5495802412284778

>  <source_r_exp_dg>  (25) 
-10.297599999999999

>  <smiles>  (25) 
COc1ccc(Nc2nc(-c3ccc(C)c(C(N)=O)c3)cn3ccnc23)cc1OC

>  <aimnet_interaction_kcal_mol>  (25) 
-98.750425117350744

$$$$
syk_026
     RDKit          3D

 47 51  0  0  1  0  0  0  0  0999 V2000
   -4.7393   -2.5744   16.0558 C   0  0  0  0  0  0  0  0  0  0  0  0
   -4.1652   -1.6940   15.0906 O   0  0  0  0  0  0  0  0  0  0  0  0
   -2.7769   -1.7369   15.0211 C   0  0  0  0  0  0  0  0  0  0  0  0
   -1.9808   -2.7073   15.6176 C   0  0  0  0  0  0  0  0  0  0  0  0
   -0.6048   -2.5559   15.6847 C   0  0  0  0  0  0  0  0  0  0  0  0
    0.0126   -1.4331   15.1277 C   0  0  0  0  0  0  0  0  0  0  0  0
    1.3767   -1.2341   15.3437 N   0  0  0  0  0  0  0  0  0  0  0  0
    2.2042   -0.3450   14.7263 C   0  0  0  0  0  0  0  0  0  0  0  0
    1.8029    0.4868   13.7906 N   0  0  0  0  0  0  0  0  0  0  0  0
    2.6236    1.5040   13.3763 C   0  0  0  0  0  0  0  0  0  0  0  0
    3.9124    1.6265   13.8132 C   0  0  0  0  0  0  0  0  0  0  0  0
    4.3997    0.6358   14.6341 N   0  0  0  0  0  0  0  0  0  0  0  0
    5.6420    0.4023   15.1730 C   0  0  0  0  0  0  0  0  0  0  0  0
    5.4978   -0.7026   16.0001 C   0  0  0  0  0  0  0  0  0  0  0  0
    4.2039   -1.1559   15.9771 N   0  0  0  0  0  0  0  0  0  0  0  0
    3.5641   -0.3547   15.1456 C   0  0  0  0  0  0  0  0  0  0  0  0
    2.0319    2.4226   12.3894 C   0  0  0  0  0  0  0  0  0  0  0  0
    1.1090    1.8708   11.4609 C   0  0  0  0  0  0  0  0  0  0  0  0
    0.5721    2.6014   10.4238 C   0  0  0  0  0  0  0  0  0  0  0  0
    0.8780    3.9634   10.3772 C   0  0  0  0  0  0  0  0  0  0  0  0
    0.5184    4.9603    9.5220 N   0  0  0  0  0  0  0  0  0  0  0  0
    1.1167    6.1461    9.8398 N   0  0  0  0  0  0  0  0  0  0  0  0
    1.8602    5.9050   10.9064 C   0  0  0  0  0  0  0  0  0  0  0  0
    1.7663    4.5464   11.3073 C   0  0  0  0  0  0  0  0  0  0  0  0
    2.3552    3.7740   12.3181 C   0  0  0  0  0  0  0  0  0  0  0  0
   -0.7740   -0.5259   14.4109 C   0  0  0  0  0  0  0  0  0  0  0  0
   -2.1505   -0.6665   14.3845 C   0  0  0  0  0  0  0  0  0  0  0  0
   -2.9840    0.2962   13.8253 O   0  0  0  0  0  0  0  0  0  0  0  0
   -2.3606    1.1424   12.8579 C   0  0  0  0  0  0  0  0  0  0  0  0
   -5.7941   -2.3148   16.1264 H   0  0  0  0  0  0  0  0  0  0  0  0
   -4.2655   -2.4584   17.0275 H   0  0  0  0  0  0  0  0  0  0  0  0
   -4.6426   -3.6148   15.7422 H   0  0  0  0  0  0  0  0  0  0  0  0
   -2.4070   -3.5736   16.0982 H   0  0  0  0  0  0  0  0  0  0  0  0
   -0.0238   -3.2887   16.2244 H   0  0  0  0  0  0  0  0  0  0  0  0
    1.8352   -1.7759   16.0791 H   0  0  0  0  0  0  0  0  0  0  0  0
    4.5569    2.4587   13.5879 H   0  0  0  0  0  0  0  0  0  0  0  0
    6.5070    1.0014   14.9454 H   0  0  0  0  0  0  0  0  0  0  0  0
    6.2712   -1.1919   16.5804 H   0  0  0  0  0  0  0  0  0  0  0  0
    0.8721    0.8205   11.5617 H   0  0  0  0  0  0  0  0  0  0  0  0
    0.0232    2.1364    9.6278 H   0  0  0  0  0  0  0  0  0  0  0  0
   -0.1537    4.9548    8.7697 H   0  0  0  0  0  0  0  0  0  0  0  0
    2.4812    6.6677   11.3456 H   0  0  0  0  0  0  0  0  0  0  0  0
    3.0276    4.2470   13.0236 H   0  0  0  0  0  0  0  0  0  0  0  0
   -0.2989    0.2765   13.8793 H   0  0  0  0  0  0  0  0  0  0  0  0
   -3.1524    1.7012   12.3572 H   0  0  0  0  0  0  0  0  0  0  0  0
   -1.8339    0.5392   12.1304 H   0  0  0  0  0  0  0  0  0  0  0  0
   -1.6676    1.8330   13.3329 H   0  0  0  0  0  0  0  0  0  0  0  0
  1  2  1  0
  1 30  1  0
  1 31  1  0
  1 32  1  0
  2  3  1  0
  3  4  2  0
  3 27  1  0
  4  5  1  0
  4 33  1  0
  5  6  2  0
  5 34  1  0
  6  7  1  0
  6 26  1  0
  7  8  1  0
  7 35  1  0
  8  9  2  0
  8 16  1  0
  9 10  1  0
 10 11  2  0
 10 17  1  0
 11 12  1  0
 11 36  1  0
 12 13  1  0
 12 16  1  0
 13 14  2  0
 13 37  1  0
 14 15  1  0
 14 38  1  0
 15 16  2  0
 17 18  2  0
 17 25  1  0
 18 19  1  0
 18 39  1  0
 19 20  2  0
 19 40  1  0
 20 21  1  0
 20 24  1  0
 21 22  1  0
 21 41  1  0
 22 23  2  0
 23 24  1  0
 23 42  1  0
 24 25  2  0
 25 43  1  0
 26 27  2  0
 26 44  1  0
 27 28  1  0
 28 29  1  0
 29 45  1  0
 29 46  1  0
 29 47  1  0
M  END
>  <r_exp_dg>  (26) 
-10.8907

>  <mol_id>  (26) 
26

>  <source_index>  (26) 
30

>  <paff>  (26) 
7.9844116815024453

>  <source_r_exp_dg>  (26) 
-10.890700000000001

>  <smiles>  (26) 
COc1ccc(Nc2nc(-c3ccc4[nH]ncc4c3)cn3ccnc23)cc1OC

>  <aimnet_interaction_kcal_mol>  (26) 
-97.234606566946525

$$$$
syk_027
     RDKit          3D

 48 51  0  0  1  0  0  0  0  0999 V2000
   -4.9166   -2.4319   16.2548 C   0  0  0  0  0  0  0  0  0  0  0  0
   -4.2853   -1.6659   15.2284 O   0  0  0  0  0  0  0  0  0  0  0  0
   -2.9000   -1.7837   15.1869 C   0  0  0  0  0  0  0  0  0  0  0  0
   -2.1598   -2.7392   15.8692 C   0  0  0  0  0  0  0  0  0  0  0  0
   -0.7803   -2.6407   15.9469 C   0  0  0  0  0  0  0  0  0  0  0  0
   -0.1027   -1.5883   15.3299 C   0  0  0  0  0  0  0  0  0  0  0  0
    1.2553   -1.4172   15.6289 N   0  0  0  0  0  0  0  0  0  0  0  0
    2.1164   -0.5354   15.0435 C   0  0  0  0  0  0  0  0  0  0  0  0
    1.6712    0.3705   14.1986 N   0  0  0  0  0  0  0  0  0  0  0  0
    2.4598    1.4005   13.7936 C   0  0  0  0  0  0  0  0  0  0  0  0
    3.8154    1.3464   13.8959 C   0  0  0  0  0  0  0  0  0  0  0  0
    4.3297    0.3676   14.7139 N   0  0  0  0  0  0  0  0  0  0  0  0
    5.6077    0.1520   15.1747 C   0  0  0  0  0  0  0  0  0  0  0  0
    5.5162   -0.8806   16.0882 C   0  0  0  0  0  0  0  0  0  0  0  0
    4.2189   -1.3141   16.1905 N   0  0  0  0  0  0  0  0  0  0  0  0
    3.5117   -0.5707   15.3631 C   0  0  0  0  0  0  0  0  0  0  0  0
    1.7148    2.6093   13.4007 C   0  0  0  0  0  0  0  0  0  0  0  0
    0.6089    2.9416   14.1816 C   0  0  0  0  0  0  0  0  0  0  0  0
   -0.1188    4.0956   13.9447 C   0  0  0  0  0  0  0  0  0  0  0  0
    0.2592    4.9310   12.9115 C   0  0  0  0  0  0  0  0  0  0  0  0
    1.3523    4.6090   12.1146 C   0  0  0  0  0  0  0  0  0  0  0  0
    2.0629    3.4370   12.3455 C   0  0  0  0  0  0  0  0  0  0  0  0
    1.8418    5.5235   11.0582 C   0  0  0  0  0  0  0  0  0  0  0  0
    2.3096    5.0822   10.0163 O   0  0  0  0  0  0  0  0  0  0  0  0
    1.7350    6.8694   11.3275 N   0  0  0  0  0  0  0  0  0  0  0  0
   -0.8329   -0.7393   14.4849 C   0  0  0  0  0  0  0  0  0  0  0  0
   -2.2172   -0.7979   14.4772 C   0  0  0  0  0  0  0  0  0  0  0  0
   -3.0079    0.1770   13.8815 O   0  0  0  0  0  0  0  0  0  0  0  0
   -2.3534    0.9892   12.9003 C   0  0  0  0  0  0  0  0  0  0  0  0
   -5.9609   -2.1245   16.2778 H   0  0  0  0  0  0  0  0  0  0  0  0
   -4.4541   -2.2452   17.2205 H   0  0  0  0  0  0  0  0  0  0  0  0
   -4.8592   -3.4993   16.0369 H   0  0  0  0  0  0  0  0  0  0  0  0
   -2.6252   -3.5455   16.4151 H   0  0  0  0  0  0  0  0  0  0  0  0
   -0.2400   -3.3636   16.5382 H   0  0  0  0  0  0  0  0  0  0  0  0
    1.6098   -1.9437   16.4355 H   0  0  0  0  0  0  0  0  0  0  0  0
    4.4991    2.0562   13.4632 H   0  0  0  0  0  0  0  0  0  0  0  0
    6.4574    0.7245   14.8442 H   0  0  0  0  0  0  0  0  0  0  0  0
    6.3228   -1.3349   16.6531 H   0  0  0  0  0  0  0  0  0  0  0  0
    0.3576    2.2857   14.9980 H   0  0  0  0  0  0  0  0  0  0  0  0
   -0.9533    4.3622   14.5772 H   0  0  0  0  0  0  0  0  0  0  0  0
   -0.2916    5.8414   12.7139 H   0  0  0  0  0  0  0  0  0  0  0  0
    2.9026    3.2026   11.7055 H   0  0  0  0  0  0  0  0  0  0  0  0
    2.6209    7.3096   11.0793 H   0  0  0  0  0  0  0  0  0  0  0  0
    1.5801    7.0321   12.3136 H   0  0  0  0  0  0  0  0  0  0  0  0
   -0.3260   -0.0515   13.8377 H   0  0  0  0  0  0  0  0  0  0  0  0
   -3.1273    1.5879   12.4162 H   0  0  0  0  0  0  0  0  0  0  0  0
   -1.8727    0.3578   12.1639 H   0  0  0  0  0  0  0  0  0  0  0  0
   -1.6243    1.6493   13.3610 H   0  0  0  0  0  0  0  0  0  0  0  0
  1  2  1  0
  1 30  1  0
  1 31  1  0
  1 32  1  0
  2  3  1  0
  3  4  2  0
  3 27  1  0
  4  5  1  0
  4 33  1  0
  5  6  2  0
  5 34  1  0
  6  7  1  0
  6 26  1  0
  7  8  1  0
  7 35  1  0
  8  9  2  0
  8 16  1  0
  9 10  1  0
 10 11  2  0
 10 17  1  0
 11 12  1  0
 11 36  1  0
 12 13  1  0
 12 16  1  0
 13 14  2  0
 13 37  1  0
 14 15  1  0
 14 38  1  0
 15 16  2  0
 17 18  2  0
 17 22  1  0
 18 19  1  0
 18 39  1  0
 19 20  2  0
 19 40  1  0
 20 21  1  0
 20 41  1  0
 21 22  2  0
 21 23  1  0
 22 42  1  0
 23 24  2  0
 23 25  1  0
 25 43  1  0
 25 44  1  0
 26 27  2  0
 26 45  1  0
 27 28  1  0
 28 29  1  0
 29 46  1  0
 29 47  1  0
 29 48  1  0
M  END
>  <r_exp_dg>  (27) 
-10.3233

>  <mol_id>  (27) 
27

>  <source_index>  (27) 
32

>  <paff>  (27) 
7.5684006263084074

>  <source_r_exp_dg>  (27) 
-10.3233

>  <smiles>  (27) 
COc1ccc(Nc2nc(-c3cccc(C(N)=O)c3)cn3ccnc23)cc1OC

>  <aimnet_interaction_kcal_mol>  (27) 
-99.554745241330693

$$$$
syk_028
     RDKit          3D

 47 51  0  0  1  0  0  0  0  0999 V2000
   -4.7635   -2.5686   16.0405 C   0  0  0  0  0  0  0  0  0  0  0  0
   -4.1688   -1.7075   15.0706 O   0  0  0  0  0  0  0  0  0  0  0  0
   -2.7791   -1.7642   15.0263 C   0  0  0  0  0  0  0  0  0  0  0  0
   -2.0096   -2.7608   15.6122 C   0  0  0  0  0  0  0  0  0  0  0  0
   -0.6367   -2.6197   15.7324 C   0  0  0  0  0  0  0  0  0  0  0  0
    0.0017   -1.4723   15.2568 C   0  0  0  0  0  0  0  0  0  0  0  0
    1.3521   -1.2799   15.5625 N   0  0  0  0  0  0  0  0  0  0  0  0
    2.2321   -0.4598   14.9215 C   0  0  0  0  0  0  0  0  0  0  0  0
    1.8609    0.3480   13.9503 N   0  0  0  0  0  0  0  0  0  0  0  0
    2.7089    1.3115   13.4818 C   0  0  0  0  0  0  0  0  0  0  0  0
    4.0196    1.3676   13.8561 C   0  0  0  0  0  0  0  0  0  0  0  0
    4.4624    0.4254   14.7461 N   0  0  0  0  0  0  0  0  0  0  0  0
    5.7055    0.1925   15.2880 C   0  0  0  0  0  0  0  0  0  0  0  0
    5.5406   -0.8452   16.1864 C   0  0  0  0  0  0  0  0  0  0  0  0
    4.2318   -1.2599   16.2060 N   0  0  0  0  0  0  0  0  0  0  0  0
    3.5967   -0.4992   15.3346 C   0  0  0  0  0  0  0  0  0  0  0  0
    2.1248    2.2656   12.5262 C   0  0  0  0  0  0  0  0  0  0  0  0
    1.0330    1.8087   11.7380 C   0  0  0  0  0  0  0  0  0  0  0  0
    0.4180    2.6116   10.8091 C   0  0  0  0  0  0  0  0  0  0  0  0
    0.9175    3.9027   10.5926 C   0  0  0  0  0  0  0  0  0  0  0  0
    0.6559    4.9776    9.7074 C   0  0  0  0  0  0  0  0  0  0  0  0
    1.4857    5.9932    9.9445 N   0  0  0  0  0  0  0  0  0  0  0  0
    2.2620    5.6149   10.9766 N   0  0  0  0  0  0  0  0  0  0  0  0
    1.9918    4.3563   11.3961 C   0  0  0  0  0  0  0  0  0  0  0  0
    2.5923    3.5655   12.3829 C   0  0  0  0  0  0  0  0  0  0  0  0
   -0.7552   -0.5329   14.5455 C   0  0  0  0  0  0  0  0  0  0  0  0
   -2.1292   -0.6814   14.4385 C   0  0  0  0  0  0  0  0  0  0  0  0
   -2.9414    0.2839   13.8516 O   0  0  0  0  0  0  0  0  0  0  0  0
   -2.2872    1.0906   12.8678 C   0  0  0  0  0  0  0  0  0  0  0  0
   -5.8136   -2.2880   16.1074 H   0  0  0  0  0  0  0  0  0  0  0  0
   -4.2891   -2.4565   17.0128 H   0  0  0  0  0  0  0  0  0  0  0  0
   -4.6882   -3.6131   15.7349 H   0  0  0  0  0  0  0  0  0  0  0  0
   -2.4587   -3.6420   16.0415 H   0  0  0  0  0  0  0  0  0  0  0  0
   -0.0768   -3.3828   16.2510 H   0  0  0  0  0  0  0  0  0  0  0  0
    1.7394   -1.8079   16.3509 H   0  0  0  0  0  0  0  0  0  0  0  0
    4.7247    2.1012   13.5085 H   0  0  0  0  0  0  0  0  0  0  0  0
    6.5841    0.7445   15.0009 H   0  0  0  0  0  0  0  0  0  0  0  0
    6.3094   -1.3201   16.7881 H   0  0  0  0  0  0  0  0  0  0  0  0
    0.7194    0.7855   11.8784 H   0  0  0  0  0  0  0  0  0  0  0  0
   -0.4284    2.2532   10.2552 H   0  0  0  0  0  0  0  0  0  0  0  0
   -0.0738    5.0628    8.9215 H   0  0  0  0  0  0  0  0  0  0  0  0
    3.0262    6.2186   11.3124 H   0  0  0  0  0  0  0  0  0  0  0  0
    3.3576    3.9819   13.0246 H   0  0  0  0  0  0  0  0  0  0  0  0
   -0.2604    0.3094   14.1021 H   0  0  0  0  0  0  0  0  0  0  0  0
   -3.0627    1.6093   12.3053 H   0  0  0  0  0  0  0  0  0  0  0  0
   -1.7230    0.4607   12.1937 H   0  0  0  0  0  0  0  0  0  0  0  0
   -1.6224    1.8150   13.3329 H   0  0  0  0  0  0  0  0  0  0  0  0
  1  2  1  0
  1 30  1  0
  1 31  1  0
  1 32  1  0
  2  3  1  0
  3  4  2  0
  3 27  1  0
  4  5  1  0
  4 33  1  0
  5  6  2  0
  5 34  1  0
  6  7  1  0
  6 26  1  0
  7  8  1  0
  7 35  1  0
  8  9  2  0
  8 16  1  0
  9 10  1  0
 10 11  2  0
 10 17  1  0
 11 12  1  0
 11 36  1  0
 12 13  1  0
 12 16  1  0
 13 14  2  0
 13 37  1  0
 14 15  1  0
 14 38  1  0
 15 16  2  0
 17 18  2  0
 17 25  1  0
 18 19  1  0
 18 39  1  0
 19 20  2  0
 19 40  1  0
 20 21  1  0
 20 24  1  0
 21 22  2  0
 21 41  1  0
 22 23  1  0
 23 24  1  0
 23 42  1  0
 24 25  2  0
 25 43  1  0
 26 27  2  0
 26 44  1  0
 27 28  1  0
 28 29  1  0
 29 45  1  0
 29 46  1  0
 29 47  1  0
M  END
>  <r_exp_dg>  (28) 
-11.4873

>  <mol_id>  (28) 
28

>  <source_index>  (28) 
33

>  <paff>  (28) 
8.4217405738718689

>  <source_r_exp_dg>  (28) 
-11.487299999999999

>  <smiles>  (28) 
COc1ccc(Nc2nc(-c3ccc4cn[nH]c4c3)cn3ccnc23)cc1OC

>  <aimnet_interaction_kcal_mol>  (28) 
-105.84529989233639

$$$$
syk_029
     RDKit          3D

 52 55  0  0  1  0  0  0  0  0999 V2000
   -4.9173   -2.4915   16.2555 C   0  0  0  0  0  0  0  0  0  0  0  0
   -4.2908   -1.7051   15.2414 O   0  0  0  0  0  0  0  0  0  0  0  0
   -2.9050   -1.8121   15.1994 C   0  0  0  0  0  0  0  0  0  0  0  0
   -2.1530   -2.7514   15.8899 C   0  0  0  0  0  0  0  0  0  0  0  0
   -0.7750   -2.6350   15.9649 C   0  0  0  0  0  0  0  0  0  0  0  0
   -0.1108   -1.5724   15.3513 C   0  0  0  0  0  0  0  0  0  0  0  0
    1.2455   -1.3876   15.6501 N   0  0  0  0  0  0  0  0  0  0  0  0
    2.1168   -0.5402   15.0332 C   0  0  0  0  0  0  0  0  0  0  0  0
    1.6879    0.3278   14.1409 N   0  0  0  0  0  0  0  0  0  0  0  0
    2.4932    1.3210   13.6796 C   0  0  0  0  0  0  0  0  0  0  0  0
    3.8434    1.2930   13.8505 C   0  0  0  0  0  0  0  0  0  0  0  0
    4.3377    0.3453   14.7118 N   0  0  0  0  0  0  0  0  0  0  0  0
    5.6102    0.1371   15.1924 C   0  0  0  0  0  0  0  0  0  0  0  0
    5.5066   -0.8824   16.1171 C   0  0  0  0  0  0  0  0  0  0  0  0
    4.2057   -1.3117   16.2116 N   0  0  0  0  0  0  0  0  0  0  0  0
    3.5096   -0.5783   15.3663 C   0  0  0  0  0  0  0  0  0  0  0  0
    1.7835    2.4643   13.0880 C   0  0  0  0  0  0  0  0  0  0  0  0
    0.5333    2.8055   13.5935 C   0  0  0  0  0  0  0  0  0  0  0  0
   -0.2496    3.7778   12.9922 C   0  0  0  0  0  0  0  0  0  0  0  0
    0.2387    4.4713   11.8961 C   0  0  0  0  0  0  0  0  0  0  0  0
   -0.5169    5.3724   11.1846 O   0  0  0  0  0  0  0  0  0  0  0  0
   -1.9138    5.3064   11.3309 C   0  0  0  0  0  0  0  0  0  0  0  0
    1.5649    4.2783   11.4956 C   0  0  0  0  0  0  0  0  0  0  0  0
    2.2981    3.2399   12.0580 C   0  0  0  0  0  0  0  0  0  0  0  0
    2.2907    5.1895   10.5787 C   0  0  0  0  0  0  0  0  0  0  0  0
    3.1381    4.7311    9.8216 O   0  0  0  0  0  0  0  0  0  0  0  0
    2.0214    6.5287   10.6595 N   0  0  0  0  0  0  0  0  0  0  0  0
   -0.8519   -0.7252   14.5149 C   0  0  0  0  0  0  0  0  0  0  0  0
   -2.2340   -0.8293   14.4759 C   0  0  0  0  0  0  0  0  0  0  0  0
   -3.0403    0.0844   13.8102 O   0  0  0  0  0  0  0  0  0  0  0  0
   -2.3874    0.8356   12.7804 C   0  0  0  0  0  0  0  0  0  0  0  0
   -5.9666   -2.2025   16.2715 H   0  0  0  0  0  0  0  0  0  0  0  0
   -4.4663   -2.3056   17.2271 H   0  0  0  0  0  0  0  0  0  0  0  0
   -4.8387   -3.5557   16.0287 H   0  0  0  0  0  0  0  0  0  0  0  0
   -2.6066   -3.5608   16.4408 H   0  0  0  0  0  0  0  0  0  0  0  0
   -0.2249   -3.3524   16.5536 H   0  0  0  0  0  0  0  0  0  0  0  0
    1.6043   -1.9085   16.4595 H   0  0  0  0  0  0  0  0  0  0  0  0
    4.5401    1.9919   13.4211 H   0  0  0  0  0  0  0  0  0  0  0  0
    6.4645    0.7040   14.8639 H   0  0  0  0  0  0  0  0  0  0  0  0
    6.3080   -1.3336   16.6927 H   0  0  0  0  0  0  0  0  0  0  0  0
    0.1920    2.3095   14.4867 H   0  0  0  0  0  0  0  0  0  0  0  0
   -1.2179    4.0165   13.4038 H   0  0  0  0  0  0  0  0  0  0  0  0
   -2.3401    5.9281   10.5497 H   0  0  0  0  0  0  0  0  0  0  0  0
   -2.2482    5.6843   12.3048 H   0  0  0  0  0  0  0  0  0  0  0  0
   -2.2856    4.2847   11.2078 H   0  0  0  0  0  0  0  0  0  0  0  0
    3.2997    3.0734   11.6859 H   0  0  0  0  0  0  0  0  0  0  0  0
    2.8935    7.0504   10.7604 H   0  0  0  0  0  0  0  0  0  0  0  0
    1.3672    6.7698   11.3858 H   0  0  0  0  0  0  0  0  0  0  0  0
   -0.3505   -0.0113   13.8923 H   0  0  0  0  0  0  0  0  0  0  0  0
   -3.1450    1.1724   12.0749 H   0  0  0  0  0  0  0  0  0  0  0  0
   -1.7003    0.2010   12.2410 H   0  0  0  0  0  0  0  0  0  0  0  0
   -1.8584    1.6755   13.2188 H   0  0  0  0  0  0  0  0  0  0  0  0
  1  2  1  0
  1 32  1  0
  1 33  1  0
  1 34  1  0
  2  3  1  0
  3  4  2  0
  3 29  1  0
  4  5  1  0
  4 35  1  0
  5  6  2  0
  5 36  1  0
  6  7  1  0
  6 28  1  0
  7  8  1  0
  7 37  1  0
  8  9  2  0
  8 16  1  0
  9 10  1  0
 10 11  2  0
 10 17  1  0
 11 12  1  0
 11 38  1  0
 12 13  1  0
 12 16  1  0
 13 14  2  0
 13 39  1  0
 14 15  1  0
 14 40  1  0
 15 16  2  0
 17 18  2  0
 17 24  1  0
 18 19  1  0
 18 41  1  0
 19 20  2  0
 19 42  1  0
 20 21  1  0
 20 23  1  0
 21 22  1  0
 22 43  1  0
 22 44  1  0
 22 45  1  0
 23 24  2  0
 23 25  1  0
 24 46  1  0
 25 26  2  0
 25 27  1  0
 27 47  1  0
 27 48  1  0
 28 29  2  0
 28 49  1  0
 29 30  1  0
 30 31  1  0
 31 50  1  0
 31 51  1  0
 31 52  1  0
M  END
>  <r_exp_dg>  (29) 
-10.1324

>  <mol_id>  (29) 
29

>  <source_index>  (29) 
34

>  <paff>  (29) 
7.4284726923162285

>  <source_r_exp_dg>  (29) 
-10.132400000000001

>  <smiles>  (29) 
COc1ccc(Nc2nc(-c3ccc(OC)c(C(N)=O)c3)cn3ccnc23)cc1OC

>  <aimnet_interaction_kcal_mol>  (29) 
-96.73545574211667

$$$$
syk_030
     RDKit          3D

 53 58  0  0  1  0  0  0  0  0999 V2000
   -5.6370   -3.0854   12.4089 C   0  0  0  0  0  0  0  0  0  0  0  0
   -4.1970   -2.8168   12.7600 C   0  0  0  0  0  0  0  0  0  0  0  0
   -4.0235   -2.6871   14.2688 C   0  0  0  0  0  0  0  0  0  0  0  0
   -4.5953   -3.9301   14.9373 C   0  0  0  0  0  0  0  0  0  0  0  0
   -6.0117   -4.1890   14.4720 C   0  0  0  0  0  0  0  0  0  0  0  0
   -6.1159   -4.2864   13.0363 O   0  0  0  0  0  0  0  0  0  0  0  0
   -2.6150   -2.3363   14.6645 C   0  0  0  0  0  0  0  0  0  0  0  0
   -2.0261   -1.1881   14.1381 C   0  0  0  0  0  0  0  0  0  0  0  0
   -0.7443   -0.7937   14.4660 C   0  0  0  0  0  0  0  0  0  0  0  0
    0.0438   -1.6004   15.2952 C   0  0  0  0  0  0  0  0  0  0  0  0
    1.3589   -1.2936   15.6353 N   0  0  0  0  0  0  0  0  0  0  0  0
    2.2175   -0.4713   14.9683 C   0  0  0  0  0  0  0  0  0  0  0  0
    1.8201    0.3345   14.0033 N   0  0  0  0  0  0  0  0  0  0  0  0
    2.6678    1.2773   13.4977 C   0  0  0  0  0  0  0  0  0  0  0  0
    3.9916    1.3207   13.8312 C   0  0  0  0  0  0  0  0  0  0  0  0
    4.4453    0.4030   14.7378 N   0  0  0  0  0  0  0  0  0  0  0  0
    5.6952    0.1829   15.2714 C   0  0  0  0  0  0  0  0  0  0  0  0
    5.5428   -0.8398   16.1879 C   0  0  0  0  0  0  0  0  0  0  0  0
    4.2347   -1.2566   16.2291 N   0  0  0  0  0  0  0  0  0  0  0  0
    3.5883   -0.5092   15.3537 C   0  0  0  0  0  0  0  0  0  0  0  0
    2.0735    2.2332   12.5521 C   0  0  0  0  0  0  0  0  0  0  0  0
    0.9276    1.8104   11.8263 C   0  0  0  0  0  0  0  0  0  0  0  0
    0.3091    2.6195   10.9070 C   0  0  0  0  0  0  0  0  0  0  0  0
    0.8658    3.8743   10.6245 C   0  0  0  0  0  0  0  0  0  0  0  0
    0.6183    4.9391    9.7221 C   0  0  0  0  0  0  0  0  0  0  0  0
    1.4895    5.9290    9.9134 N   0  0  0  0  0  0  0  0  0  0  0  0
    2.2891    5.5406   10.9247 N   0  0  0  0  0  0  0  0  0  0  0  0
    1.9828    4.3035   11.3817 C   0  0  0  0  0  0  0  0  0  0  0  0
    2.5832    3.5110   12.3660 C   0  0  0  0  0  0  0  0  0  0  0  0
   -0.5315   -2.7583   15.8231 C   0  0  0  0  0  0  0  0  0  0  0  0
   -1.8377   -3.1023   15.5288 C   0  0  0  0  0  0  0  0  0  0  0  0
   -6.2778   -2.2494   12.7270 H   0  0  0  0  0  0  0  0  0  0  0  0
   -5.7637   -3.2016   11.3339 H   0  0  0  0  0  0  0  0  0  0  0  0
   -3.8363   -1.9456   12.2176 H   0  0  0  0  0  0  0  0  0  0  0  0
   -3.5788   -3.6423   12.4106 H   0  0  0  0  0  0  0  0  0  0  0  0
   -4.6601   -1.8385   14.5884 H   0  0  0  0  0  0  0  0  0  0  0  0
   -4.5860   -3.8315   16.0224 H   0  0  0  0  0  0  0  0  0  0  0  0
   -3.9663   -4.7881   14.6948 H   0  0  0  0  0  0  0  0  0  0  0  0
   -6.6789   -3.3893   14.8099 H   0  0  0  0  0  0  0  0  0  0  0  0
   -6.3922   -5.1291   14.8622 H   0  0  0  0  0  0  0  0  0  0  0  0
   -2.5539   -0.6031   13.3925 H   0  0  0  0  0  0  0  0  0  0  0  0
   -0.3343    0.1111   14.0568 H   0  0  0  0  0  0  0  0  0  0  0  0
    1.7601   -1.7881   16.4407 H   0  0  0  0  0  0  0  0  0  0  0  0
    4.7002    2.0245   13.4335 H   0  0  0  0  0  0  0  0  0  0  0  0
    6.5688    0.7350   14.9705 H   0  0  0  0  0  0  0  0  0  0  0  0
    6.3181   -1.3051   16.7886 H   0  0  0  0  0  0  0  0  0  0  0  0
    0.5575    0.8163   12.0239 H   0  0  0  0  0  0  0  0  0  0  0  0
   -0.6053    2.3050   10.4367 H   0  0  0  0  0  0  0  0  0  0  0  0
   -0.1293    5.0369    8.9542 H   0  0  0  0  0  0  0  0  0  0  0  0
    3.0423    6.1528   11.2620 H   0  0  0  0  0  0  0  0  0  0  0  0
    3.3786    3.9130   12.9803 H   0  0  0  0  0  0  0  0  0  0  0  0
    0.0291   -3.3727   16.5108 H   0  0  0  0  0  0  0  0  0  0  0  0
   -2.2391   -3.9724   16.0235 H   0  0  0  0  0  0  0  0  0  0  0  0
  1  2  1  0
  1  6  1  0
  1 32  1  0
  1 33  1  0
  2  3  1  0
  2 34  1  0
  2 35  1  0
  3  4  1  0
  3  7  1  0
  3 36  1  0
  4  5  1  0
  4 37  1  0
  4 38  1  0
  5  6  1  0
  5 39  1  0
  5 40  1  0
  7  8  2  0
  7 31  1  0
  8  9  1  0
  8 41  1  0
  9 10  2  0
  9 42  1  0
 10 11  1  0
 10 30  1  0
 11 12  1  0
 11 43  1  0
 12 13  2  0
 12 20  1  0
 13 14  1  0
 14 15  2  0
 14 21  1  0
 15 16  1  0
 15 44  1  0
 16 17  1  0
 16 20  1  0
 17 18  2  0
 17 45  1  0
 18 19  1  0
 18 46  1  0
 19 20  2  0
 21 22  2  0
 21 29  1  0
 22 23  1  0
 22 47  1  0
 23 24  2  0
 23 48  1  0
 24 25  1  0
 24 28  1  0
 25 26  2  0
 25 49  1  0
 26 27  1  0
 27 28  1  0
 27 50  1  0
 28 29  2  0
 29 51  1  0
 30 31  2  0
 30 52  1  0
 31 53  1  0
M  END
>  <r_exp_dg>  (30) 
-11.4873

>  <mol_id>  (30) 
30

>  <source_index>  (30) 
35

>  <paff>  (30) 
8.4217405738718689

>  <source_r_exp_dg>  (30) 
-11.487299999999999

>  <smiles>  (30) 
c1cn2cc(-c3ccc4cn[nH]c4c3)nc(Nc3ccc(C4CCOCC4)cc3)c2n1

>  <aimnet_interaction_kcal_mol>  (30) 
-102.81292540929219

$$$$
syk_031
     RDKit          3D

 51 54  0  0  1  0  0  0  0  0999 V2000
   -4.9203   -2.6020   16.2402 C   0  0  0  0  0  0  0  0  0  0  0  0
   -4.3057   -1.7843   15.2441 O   0  0  0  0  0  0  0  0  0  0  0  0
   -2.9183   -1.8477   15.2128 C   0  0  0  0  0  0  0  0  0  0  0  0
   -2.1407   -2.7595   15.9124 C   0  0  0  0  0  0  0  0  0  0  0  0
   -0.7666   -2.6020   15.9925 C   0  0  0  0  0  0  0  0  0  0  0  0
   -0.1385   -1.5173   15.3791 C   0  0  0  0  0  0  0  0  0  0  0  0
    1.2087   -1.2748   15.6586 N   0  0  0  0  0  0  0  0  0  0  0  0
    2.0863   -0.4796   14.9864 C   0  0  0  0  0  0  0  0  0  0  0  0
    1.7192    0.3835   14.0565 N   0  0  0  0  0  0  0  0  0  0  0  0
    2.6648    1.1475   13.4242 C   0  0  0  0  0  0  0  0  0  0  0  0
    3.9950    0.8454   13.5201 C   0  0  0  0  0  0  0  0  0  0  0  0
    4.3842    0.1010   14.5958 N   0  0  0  0  0  0  0  0  0  0  0  0
    5.6200   -0.0896   15.1802 C   0  0  0  0  0  0  0  0  0  0  0  0
    5.3988   -0.9247   16.2518 C   0  0  0  0  0  0  0  0  0  0  0  0
    4.0650   -1.2574   16.3354 N   0  0  0  0  0  0  0  0  0  0  0  0
    3.4659   -0.6120   15.3548 C   0  0  0  0  0  0  0  0  0  0  0  0
    2.2145    2.3228   12.6413 C   0  0  0  0  0  0  0  0  0  0  0  0
    0.8718    2.4110   12.2715 C   0  0  0  0  0  0  0  0  0  0  0  0
    0.3973    3.4751   11.5041 C   0  0  0  0  0  0  0  0  0  0  0  0
    1.3269    4.3775   10.9936 C   0  0  0  0  0  0  0  0  0  0  0  0
    2.6395    4.3410   11.4103 C   0  0  0  0  0  0  0  0  0  0  0  0
    3.0958    3.3743   12.3041 C   0  0  0  0  0  0  0  0  0  0  0  0
    4.4423    3.5646   12.9137 C   0  0  0  0  0  0  0  0  0  0  0  0
   -1.0530    3.7393   11.2931 C   0  0  0  0  0  0  0  0  0  0  0  0
   -1.9098    3.6845   12.1770 O   0  0  0  0  0  0  0  0  0  0  0  0
   -1.4106    4.0833   10.0224 N   0  0  0  0  0  0  0  0  0  0  0  0
   -0.9010   -0.6782   14.5626 C   0  0  0  0  0  0  0  0  0  0  0  0
   -2.2747   -0.8468   14.4902 C   0  0  0  0  0  0  0  0  0  0  0  0
   -3.0932    0.0065   13.7800 O   0  0  0  0  0  0  0  0  0  0  0  0
   -2.4063    0.8294   12.8318 C   0  0  0  0  0  0  0  0  0  0  0  0
   -5.9781   -2.3489   16.2403 H   0  0  0  0  0  0  0  0  0  0  0  0
   -4.4922   -2.4109   17.2214 H   0  0  0  0  0  0  0  0  0  0  0  0
   -4.8008   -3.6606   16.0049 H   0  0  0  0  0  0  0  0  0  0  0  0
   -2.5730   -3.5811   16.4618 H   0  0  0  0  0  0  0  0  0  0  0  0
   -0.1931   -3.2999   16.5817 H   0  0  0  0  0  0  0  0  0  0  0  0
    1.6125   -1.7829   16.4574 H   0  0  0  0  0  0  0  0  0  0  0  0
    4.7474    1.1556   12.8251 H   0  0  0  0  0  0  0  0  0  0  0  0
    6.5235    0.3733   14.8255 H   0  0  0  0  0  0  0  0  0  0  0  0
    6.1365   -1.3155   16.9401 H   0  0  0  0  0  0  0  0  0  0  0  0
    0.2169    1.6227   12.5989 H   0  0  0  0  0  0  0  0  0  0  0  0
    1.0148    5.1716   10.3296 H   0  0  0  0  0  0  0  0  0  0  0  0
    3.3123    5.1314   11.1124 H   0  0  0  0  0  0  0  0  0  0  0  0
    4.6922    4.6216   12.8972 H   0  0  0  0  0  0  0  0  0  0  0  0
    5.2080    3.0056   12.3768 H   0  0  0  0  0  0  0  0  0  0  0  0
    4.4478    3.2617   13.9568 H   0  0  0  0  0  0  0  0  0  0  0  0
   -2.3084    4.5214    9.9060 H   0  0  0  0  0  0  0  0  0  0  0  0
   -0.7367    4.3068    9.3085 H   0  0  0  0  0  0  0  0  0  0  0  0
   -0.4201    0.1005   14.0069 H   0  0  0  0  0  0  0  0  0  0  0  0
   -3.1423    1.2288   12.1426 H   0  0  0  0  0  0  0  0  0  0  0  0
   -1.7067    0.2228   12.2758 H   0  0  0  0  0  0  0  0  0  0  0  0
   -1.8873    1.6347   13.3366 H   0  0  0  0  0  0  0  0  0  0  0  0
  1  2  1  0
  1 31  1  0
  1 32  1  0
  1 33  1  0
  2  3  1  0
  3  4  2  0
  3 28  1  0
  4  5  1  0
  4 34  1  0
  5  6  2  0
  5 35  1  0
  6  7  1  0
  6 27  1  0
  7  8  1  0
  7 36  1  0
  8  9  2  0
  8 16  1  0
  9 10  1  0
 10 11  2  0
 10 17  1  0
 11 12  1  0
 11 37  1  0
 12 13  1  0
 12 16  1  0
 13 14  2  0
 13 38  1  0
 14 15  1  0
 14 39  1  0
 15 16  2  0
 17 18  2  0
 17 22  1  0
 18 19  1  0
 18 40  1  0
 19 20  2  0
 19 24  1  0
 20 21  1  0
 20 41  1  0
 21 22  2  0
 21 42  1  0
 22 23  1  0
 23 43  1  0
 23 44  1  0
 23 45  1  0
 24 25  2  0
 24 26  1  0
 26 46  1  0
 26 47  1  0
 27 28  2  0
 27 48  1  0
 28 29  1  0
 29 30  1  0
 30 49  1  0
 30 50  1  0
 30 51  1  0
M  END
>  <r_exp_dg>  (31) 
-8.63789

>  <mol_id>  (31) 
31

>  <source_index>  (31) 
31

>  <paff>  (31) 
6.3327603326165427

>  <source_r_exp_dg>  (31) 
-8.6378900000000005

>  <smiles>  (31) 
COc1ccc(Nc2nc(-c3cc(C(N)=O)ccc3C)cn3ccnc23)cc1OC

>  <aimnet_interaction_kcal_mol>  (31) 
-101.0815686852329

$$$$
syk_032
     RDKit          3D

 51 54  0  0  1  0  0  0  0  0999 V2000
   -4.9174   -2.5091   16.2288 C   0  0  0  0  0  0  0  0  0  0  0  0
   -4.2921   -1.7097   15.2254 O   0  0  0  0  0  0  0  0  0  0  0  0
   -2.9053   -1.8009   15.1908 C   0  0  0  0  0  0  0  0  0  0  0  0
   -2.1481   -2.7217   15.9009 C   0  0  0  0  0  0  0  0  0  0  0  0
   -0.7724   -2.5913   15.9814 C   0  0  0  0  0  0  0  0  0  0  0  0
   -0.1170   -1.5315   15.3519 C   0  0  0  0  0  0  0  0  0  0  0  0
    1.2328   -1.3250   15.6516 N   0  0  0  0  0  0  0  0  0  0  0  0
    2.1176   -0.4900   15.0328 C   0  0  0  0  0  0  0  0  0  0  0  0
    1.7248    0.4119   14.1599 N   0  0  0  0  0  0  0  0  0  0  0  0
    2.5999    1.3258   13.6401 C   0  0  0  0  0  0  0  0  0  0  0  0
    3.9467    1.1178   13.7305 C   0  0  0  0  0  0  0  0  0  0  0  0
    4.3751    0.2342   14.6797 N   0  0  0  0  0  0  0  0  0  0  0  0
    5.6344    0.0143   15.1953 C   0  0  0  0  0  0  0  0  0  0  0  0
    5.4764   -0.9413   16.1742 C   0  0  0  0  0  0  0  0  0  0  0  0
    4.1569   -1.3202   16.2669 N   0  0  0  0  0  0  0  0  0  0  0  0
    3.5033   -0.6021   15.3753 C   0  0  0  0  0  0  0  0  0  0  0  0
    1.9919    2.5361   13.0457 C   0  0  0  0  0  0  0  0  0  0  0  0
    0.6287    2.7541   13.2858 C   0  0  0  0  0  0  0  0  0  0  0  0
   -0.0968    3.6627   12.5456 C   0  0  0  0  0  0  0  0  0  0  0  0
    0.5417    4.3989   11.5532 C   0  0  0  0  0  0  0  0  0  0  0  0
    1.9299    4.3481   11.4802 C   0  0  0  0  0  0  0  0  0  0  0  0
    2.6793    3.4958   12.2852 C   0  0  0  0  0  0  0  0  0  0  0  0
    4.1399    3.7415   12.3970 C   0  0  0  0  0  0  0  0  0  0  0  0
   -0.2979    5.2067   10.6291 C   0  0  0  0  0  0  0  0  0  0  0  0
   -1.4508    5.5393   10.9079 O   0  0  0  0  0  0  0  0  0  0  0  0
    0.2902    5.5522    9.4453 N   0  0  0  0  0  0  0  0  0  0  0  0
   -0.8599   -0.7034   14.4996 C   0  0  0  0  0  0  0  0  0  0  0  0
   -2.2412   -0.8222   14.4538 C   0  0  0  0  0  0  0  0  0  0  0  0
   -3.0562    0.0588   13.7624 O   0  0  0  0  0  0  0  0  0  0  0  0
   -2.4010    0.8684   12.7814 C   0  0  0  0  0  0  0  0  0  0  0  0
   -5.9723   -2.2409   16.2287 H   0  0  0  0  0  0  0  0  0  0  0  0
   -4.4856   -2.3160   17.2079 H   0  0  0  0  0  0  0  0  0  0  0  0
   -4.8151   -3.5714   16.0023 H   0  0  0  0  0  0  0  0  0  0  0  0
   -2.5960   -3.5298   16.4587 H   0  0  0  0  0  0  0  0  0  0  0  0
   -0.2170   -3.2941   16.5825 H   0  0  0  0  0  0  0  0  0  0  0  0
    1.6057   -1.8531   16.4510 H   0  0  0  0  0  0  0  0  0  0  0  0
    4.6979    1.5975   13.1461 H   0  0  0  0  0  0  0  0  0  0  0  0
    6.5156    0.5324   14.8593 H   0  0  0  0  0  0  0  0  0  0  0  0
    6.2524   -1.3850   16.7889 H   0  0  0  0  0  0  0  0  0  0  0  0
    0.1722    2.1961   14.0864 H   0  0  0  0  0  0  0  0  0  0  0  0
   -1.1527    3.8258   12.7018 H   0  0  0  0  0  0  0  0  0  0  0  0
    2.4589    5.0549   10.8562 H   0  0  0  0  0  0  0  0  0  0  0  0
    4.3446    4.7718   12.1281 H   0  0  0  0  0  0  0  0  0  0  0  0
    4.7114    3.0553   11.7720 H   0  0  0  0  0  0  0  0  0  0  0  0
    4.4626    3.6438   13.4275 H   0  0  0  0  0  0  0  0  0  0  0  0
   -0.3396    5.7481    8.6743 H   0  0  0  0  0  0  0  0  0  0  0  0
    1.1410    5.0808    9.1804 H   0  0  0  0  0  0  0  0  0  0  0  0
   -0.3508    0.0026   13.8744 H   0  0  0  0  0  0  0  0  0  0  0  0
   -3.1520    1.2043   12.0702 H   0  0  0  0  0  0  0  0  0  0  0  0
   -1.6761    0.2788   12.2415 H   0  0  0  0  0  0  0  0  0  0  0  0
   -1.9176    1.7161   13.2585 H   0  0  0  0  0  0  0  0  0  0  0  0
  1  2  1  0
  1 31  1  0
  1 32  1  0
  1 33  1  0
  2  3  1  0
  3  4  2  0
  3 28  1  0
  4  5  1  0
  4 34  1  0
  5  6  2  0
  5 35  1  0
  6  7  1  0
  6 27  1  0
  7  8  1  0
  7 36  1  0
  8  9  2  0
  8 16  1  0
  9 10  1  0
 10 11  2  0
 10 17  1  0
 11 12  1  0
 11 37  1  0
 12 13  1  0
 12 16  1  0
 13 14  2  0
 13 38  1  0
 14 15  1  0
 14 39  1  0
 15 16  2  0
 17 18  2  0
 17 22  1  0
 18 19  1  0
 18 40  1  0
 19 20  2  0
 19 41  1  0
 20 21  1  0
 20 24  1  0
 21 22  2  0
 21 42  1  0
 22 23  1  0
 23 43  1  0
 23 44  1  0
 23 45  1  0
 24 25  2  0
 24 26  1  0
 26 46  1  0
 26 47  1  0
 27 28  2  0
 27 48  1  0
 28 29  1  0
 29 30  1  0
 30 49  1  0
 30 50  1  0
 30 51  1  0
M  END
>  <r_exp_dg>  (32) 
-9.47732

>  <mol_id>  (32) 
32

>  <source_index>  (32) 
2

>  <paff>  (32) 
6.9481788143034899

>  <source_r_exp_dg>  (32) 
-9.4773200000000006

>  <smiles>  (32) 
COc1ccc(Nc2nc(-c3ccc(C(N)=O)cc3C)cn3ccnc23)cc1OC

>  <aimnet_interaction_kcal_mol>  (32) 
-99.172757570898682

$$$$
syk_033
     RDKit          3D

 65 70  0  0  1  0  0  0  0  0999 V2000
   -4.2561   -2.5559   13.1628 C   0  0  0  0  0  0  0  0  0  0  0  0
   -4.1027   -1.8900   14.4212 O   0  0  0  0  0  0  0  0  0  0  0  0
   -2.7494   -1.7193   14.7475 C   0  0  0  0  0  0  0  0  0  0  0  0
   -2.0465   -2.6511   15.4968 C   0  0  0  0  0  0  0  0  0  0  0  0
   -0.6970   -2.4711   15.7616 C   0  0  0  0  0  0  0  0  0  0  0  0
   -0.0199   -1.3578   15.2471 C   0  0  0  0  0  0  0  0  0  0  0  0
    1.3352   -1.1962   15.5491 N   0  0  0  0  0  0  0  0  0  0  0  0
    2.2522   -0.4250   14.8965 C   0  0  0  0  0  0  0  0  0  0  0  0
    1.9383    0.3921   13.9101 N   0  0  0  0  0  0  0  0  0  0  0  0
    2.8798    1.2565   13.4264 C   0  0  0  0  0  0  0  0  0  0  0  0
    4.2035    1.1621   13.7463 C   0  0  0  0  0  0  0  0  0  0  0  0
    4.5497    0.2897   14.7357 N   0  0  0  0  0  0  0  0  0  0  0  0
    5.7515    0.0483   15.3671 C   0  0  0  0  0  0  0  0  0  0  0  0
    5.4830   -0.8988   16.3295 C   0  0  0  0  0  0  0  0  0  0  0  0
    4.1560   -1.2580   16.2960 N   0  0  0  0  0  0  0  0  0  0  0  0
    3.6051   -0.5331   15.3446 C   0  0  0  0  0  0  0  0  0  0  0  0
    2.4162    2.3570   12.5687 C   0  0  0  0  0  0  0  0  0  0  0  0
    3.2136    3.4859   12.3751 C   0  0  0  0  0  0  0  0  0  0  0  0
    2.8016    4.5246   11.5627 C   0  0  0  0  0  0  0  0  0  0  0  0
    1.5390    4.4959   11.0165 C   0  0  0  0  0  0  0  0  0  0  0  0
    0.6705    3.4534   11.3269 C   0  0  0  0  0  0  0  0  0  0  0  0
    1.1500    2.3208   11.9845 C   0  0  0  0  0  0  0  0  0  0  0  0
   -0.7734    3.7253   11.1557 C   0  0  0  0  0  0  0  0  0  0  0  0
   -1.5284    3.1860   10.3594 O   0  0  0  0  0  0  0  0  0  0  0  0
   -1.2074    4.7093   12.0305 N   0  0  0  0  0  0  0  0  0  0  0  0
   -2.5046    5.1811   12.1556 C   0  0  0  0  0  0  0  0  0  0  0  0
   -2.9566    5.6637   13.3896 C   0  0  0  0  0  0  0  0  0  0  0  0
   -4.2493    6.1262   13.5533 C   0  0  0  0  0  0  0  0  0  0  0  0
   -5.1273    6.1886   12.4646 C   0  0  0  0  0  0  0  0  0  0  0  0
   -4.6682    5.6923   11.2365 C   0  0  0  0  0  0  0  0  0  0  0  0
   -3.3969    5.1896   11.0790 C   0  0  0  0  0  0  0  0  0  0  0  0
   -6.4521    6.7555   12.5954 C   0  0  0  0  0  0  0  0  0  0  0  0
   -6.8535    7.6650   13.4759 N   0  0  0  0  0  0  0  0  0  0  0  0
   -8.1820    7.9029   13.2146 C   0  0  0  0  0  0  0  0  0  0  0  0
   -8.6143    7.1279   12.1785 C   0  0  0  0  0  0  0  0  0  0  0  0
   -7.5079    6.4072   11.7864 N   0  0  0  0  0  0  0  0  0  0  0  0
   -0.7316   -0.4110   14.4985 C   0  0  0  0  0  0  0  0  0  0  0  0
   -2.0924   -0.5810   14.2992 C   0  0  0  0  0  0  0  0  0  0  0  0
   -2.9019    0.3910   13.7190 O   0  0  0  0  0  0  0  0  0  0  0  0
   -2.2594    1.2240   12.7545 C   0  0  0  0  0  0  0  0  0  0  0  0
   -3.7703   -3.5347   13.1977 H   0  0  0  0  0  0  0  0  0  0  0  0
   -3.8199   -1.9713   12.3530 H   0  0  0  0  0  0  0  0  0  0  0  0
   -5.3277   -2.6931   12.9994 H   0  0  0  0  0  0  0  0  0  0  0  0
   -2.5541   -3.5067   15.9192 H   0  0  0  0  0  0  0  0  0  0  0  0
   -0.1824   -3.1714   16.4033 H   0  0  0  0  0  0  0  0  0  0  0  0
    1.7139   -1.7310   16.3386 H   0  0  0  0  0  0  0  0  0  0  0  0
    4.9831    1.7460   13.2998 H   0  0  0  0  0  0  0  0  0  0  0  0
    6.6685    0.5403   15.0931 H   0  0  0  0  0  0  0  0  0  0  0  0
    6.1933   -1.3493   17.0117 H   0  0  0  0  0  0  0  0  0  0  0  0
    4.1344    3.6224   12.9207 H   0  0  0  0  0  0  0  0  0  0  0  0
    3.4383    5.3905   11.4492 H   0  0  0  0  0  0  0  0  0  0  0  0
    1.2124    5.3059   10.3785 H   0  0  0  0  0  0  0  0  0  0  0  0
    0.5640    1.4188   12.0581 H   0  0  0  0  0  0  0  0  0  0  0  0
   -0.5154    5.0576   12.6790 H   0  0  0  0  0  0  0  0  0  0  0  0
   -2.2746    5.6519   14.2294 H   0  0  0  0  0  0  0  0  0  0  0  0
   -4.5784    6.4238   14.5416 H   0  0  0  0  0  0  0  0  0  0  0  0
   -5.3107    5.7282   10.3645 H   0  0  0  0  0  0  0  0  0  0  0  0
   -3.0811    4.8167   10.1189 H   0  0  0  0  0  0  0  0  0  0  0  0
   -8.7628    8.5962   13.8041 H   0  0  0  0  0  0  0  0  0  0  0  0
   -9.5687    7.0202   11.6934 H   0  0  0  0  0  0  0  0  0  0  0  0
   -7.4913    5.7040   11.0669 H   0  0  0  0  0  0  0  0  0  0  0  0
   -0.2119    0.4394   14.0968 H   0  0  0  0  0  0  0  0  0  0  0  0
   -3.0298    1.7051   12.1598 H   0  0  0  0  0  0  0  0  0  0  0  0
   -1.6339    0.6216   12.1123 H   0  0  0  0  0  0  0  0  0  0  0  0
   -1.6532    1.9877   13.2355 H   0  0  0  0  0  0  0  0  0  0  0  0
  1  2  1  0
  1 41  1  0
  1 42  1  0
  1 43  1  0
  2  3  1  0
  3  4  2  0
  3 38  1  0
  4  5  1  0
  4 44  1  0
  5  6  2  0
  5 45  1  0
  6  7  1  0
  6 37  1  0
  7  8  1  0
  7 46  1  0
  8  9  2  0
  8 16  1  0
  9 10  1  0
 10 11  2  0
 10 17  1  0
 11 12  1  0
 11 47  1  0
 12 13  1  0
 12 16  1  0
 13 14  2  0
 13 48  1  0
 14 15  1  0
 14 49  1  0
 15 16  2  0
 17 18  2  0
 17 22  1  0
 18 19  1  0
 18 50  1  0
 19 20  2  0
 19 51  1  0
 20 21  1  0
 20 52  1  0
 21 22  2  0
 21 23  1  0
 22 53  1  0
 23 24  2  0
 23 25  1  0
 25 26  1  0
 25 54  1  0
 26 27  2  0
 26 31  1  0
 27 28  1  0
 27 55  1  0
 28 29  2  0
 28 56  1  0
 29 30  1  0
 29 32  1  0
 30 31  2  0
 30 57  1  0
 31 58  1  0
 32 33  2  0
 32 36  1  0
 33 34  1  0
 34 35  2  0
 34 59  1  0
 35 36  1  0
 35 60  1  0
 36 61  1  0
 37 38  2  0
 37 62  1  0
 38 39  1  0
 39 40  1  0
 40 63  1  0
 40 64  1  0
 40 65  1  0
M  END
>  <r_exp_dg>  (33) 
-10.6173

>  <mol_id>  (33) 
33

>  <source_index>  (33) 
39

>  <paff>  (33) 
7.7839247292437506

>  <source_r_exp_dg>  (33) 
-10.6173

>  <smiles>  (33) 
COc1ccc(Nc2nc(-c3cccc(C(=O)Nc4ccc(-c5ncc[nH]5)cc4)c3)cn3ccnc23)cc1OC

>  <aimnet_interaction_kcal_mol>  (33) 
-120.84393324150655

$$$$
syk_034
     RDKit          3D

 63 67  0  0  1  0  0  0  0  0999 V2000
   -4.2909   -2.5639   13.1452 C   0  0  0  0  0  0  0  0  0  0  0  0
   -4.1322   -1.9041   14.4061 O   0  0  0  0  0  0  0  0  0  0  0  0
   -2.7791   -1.7092   14.7180 C   0  0  0  0  0  0  0  0  0  0  0  0
   -2.0569   -2.6288   15.4651 C   0  0  0  0  0  0  0  0  0  0  0  0
   -0.7054   -2.4344   15.7106 C   0  0  0  0  0  0  0  0  0  0  0  0
   -0.0477   -1.3177   15.1782 C   0  0  0  0  0  0  0  0  0  0  0  0
    1.3143   -1.1485   15.4389 N   0  0  0  0  0  0  0  0  0  0  0  0
    2.1992   -0.3314   14.7990 C   0  0  0  0  0  0  0  0  0  0  0  0
    1.8530    0.5159   13.8518 N   0  0  0  0  0  0  0  0  0  0  0  0
    2.7755    1.4050   13.3685 C   0  0  0  0  0  0  0  0  0  0  0  0
    4.1050    1.3128   13.6685 C   0  0  0  0  0  0  0  0  0  0  0  0
    4.4826    0.4083   14.6248 N   0  0  0  0  0  0  0  0  0  0  0  0
    5.6982    0.1424   15.2176 C   0  0  0  0  0  0  0  0  0  0  0  0
    5.4552   -0.8523   16.1439 C   0  0  0  0  0  0  0  0  0  0  0  0
    4.1272   -1.2067   16.1348 N   0  0  0  0  0  0  0  0  0  0  0  0
    3.5581   -0.4392   15.2244 C   0  0  0  0  0  0  0  0  0  0  0  0
    2.2781    2.5103   12.5269 C   0  0  0  0  0  0  0  0  0  0  0  0
    3.0992    3.6025   12.2428 C   0  0  0  0  0  0  0  0  0  0  0  0
    2.6728    4.6217   11.4125 C   0  0  0  0  0  0  0  0  0  0  0  0
    1.3670    4.6372   10.9737 C   0  0  0  0  0  0  0  0  0  0  0  0
    0.4714    3.6587   11.3988 C   0  0  0  0  0  0  0  0  0  0  0  0
    0.9635    2.5200   12.0418 C   0  0  0  0  0  0  0  0  0  0  0  0
   -0.9793    4.0217   11.3235 C   0  0  0  0  0  0  0  0  0  0  0  0
   -1.8200    3.5402   10.5751 O   0  0  0  0  0  0  0  0  0  0  0  0
   -1.2758    5.0299   12.2190 N   0  0  0  0  0  0  0  0  0  0  0  0
   -2.4585    5.7799   12.3151 C   0  0  0  0  0  0  0  0  0  0  0  0
   -3.0977    6.3354   11.2108 C   0  0  0  0  0  0  0  0  0  0  0  0
   -4.1567    7.2190   11.4004 C   0  0  0  0  0  0  0  0  0  0  0  0
   -4.6775    7.5088   12.6620 C   0  0  0  0  0  0  0  0  0  0  0  0
   -5.9533    8.3006   12.7931 C   0  0  0  0  0  0  0  0  0  0  0  0
   -6.0319    9.7303   13.4046 C   0  0  0  0  0  0  0  0  0  0  0  0
   -5.0338   10.4445   13.6557 O   0  0  0  0  0  0  0  0  0  0  0  0
   -7.2361   10.0964   13.6007 O   0  0  0  0  0  0  0  0  0  0  0  0
   -4.0596    6.8949   13.7443 C   0  0  0  0  0  0  0  0  0  0  0  0
   -2.9649    6.0600   13.5803 C   0  0  0  0  0  0  0  0  0  0  0  0
   -0.7808   -0.3765   14.4462 C   0  0  0  0  0  0  0  0  0  0  0  0
   -2.1406   -0.5624   14.2610 C   0  0  0  0  0  0  0  0  0  0  0  0
   -2.9621    0.3987   13.6909 O   0  0  0  0  0  0  0  0  0  0  0  0
   -2.3422    1.2914   12.7619 C   0  0  0  0  0  0  0  0  0  0  0  0
   -5.3621   -2.7220   12.9979 H   0  0  0  0  0  0  0  0  0  0  0  0
   -3.8795   -1.9656   12.3324 H   0  0  0  0  0  0  0  0  0  0  0  0
   -3.7854   -3.5331   13.1652 H   0  0  0  0  0  0  0  0  0  0  0  0
   -2.5507   -3.4863   15.8996 H   0  0  0  0  0  0  0  0  0  0  0  0
   -0.1744   -3.1255   16.3498 H   0  0  0  0  0  0  0  0  0  0  0  0
    1.7336   -1.7036   16.1885 H   0  0  0  0  0  0  0  0  0  0  0  0
    4.8755    1.9120   13.2267 H   0  0  0  0  0  0  0  0  0  0  0  0
    6.6088    0.6519   14.9531 H   0  0  0  0  0  0  0  0  0  0  0  0
    6.1867   -1.3300   16.7856 H   0  0  0  0  0  0  0  0  0  0  0  0
    4.0533    3.7280   12.7304 H   0  0  0  0  0  0  0  0  0  0  0  0
    3.3377    5.4460   11.2017 H   0  0  0  0  0  0  0  0  0  0  0  0
    1.0280    5.4365   10.3297 H   0  0  0  0  0  0  0  0  0  0  0  0
    0.3516    1.6431   12.1731 H   0  0  0  0  0  0  0  0  0  0  0  0
   -0.5320    5.2695   12.8622 H   0  0  0  0  0  0  0  0  0  0  0  0
   -2.7537    6.0924   10.2172 H   0  0  0  0  0  0  0  0  0  0  0  0
   -4.6157    7.6757   10.5321 H   0  0  0  0  0  0  0  0  0  0  0  0
   -6.6765    7.7180   13.3692 H   0  0  0  0  0  0  0  0  0  0  0  0
   -6.3990    8.3976   11.8071 H   0  0  0  0  0  0  0  0  0  0  0  0
   -4.3897    7.0679   14.7594 H   0  0  0  0  0  0  0  0  0  0  0  0
   -2.4789    5.6395   14.4478 H   0  0  0  0  0  0  0  0  0  0  0  0
   -0.2791    0.4852   14.0480 H   0  0  0  0  0  0  0  0  0  0  0  0
   -3.1282    1.7866   12.1986 H   0  0  0  0  0  0  0  0  0  0  0  0
   -1.7539    2.0473   13.2758 H   0  0  0  0  0  0  0  0  0  0  0  0
   -1.7131    0.7264   12.0898 H   0  0  0  0  0  0  0  0  0  0  0  0
  1  2  1  0
  1 40  1  0
  1 41  1  0
  1 42  1  0
  2  3  1  0
  3  4  2  0
  3 37  1  0
  4  5  1  0
  4 43  1  0
  5  6  2  0
  5 44  1  0
  6  7  1  0
  6 36  1  0
  7  8  1  0
  7 45  1  0
  8  9  2  0
  8 16  1  0
  9 10  1  0
 10 11  2  0
 10 17  1  0
 11 12  1  0
 11 46  1  0
 12 13  1  0
 12 16  1  0
 13 14  2  0
 13 47  1  0
 14 15  1  0
 14 48  1  0
 15 16  2  0
 17 18  2  0
 17 22  1  0
 18 19  1  0
 18 49  1  0
 19 20  2  0
 19 50  1  0
 20 21  1  0
 20 51  1  0
 21 22  2  0
 21 23  1  0
 22 52  1  0
 23 24  2  0
 23 25  1  0
 25 26  1  0
 25 53  1  0
 26 27  2  0
 26 35  1  0
 27 28  1  0
 27 54  1  0
 28 29  2  0
 28 55  1  0
 29 30  1  0
 29 34  1  0
 30 31  1  0
 30 56  1  0
 30 57  1  0
 31 32  2  0
 31 33  1  0
 34 35  2  0
 34 58  1  0
 35 59  1  0
 36 37  2  0
 36 60  1  0
 37 38  1  0
 38 39  1  0
 39 61  1  0
 39 62  1  0
 39 63  1  0
M  CHG  1  33  -1
M  END
>  <r_exp_dg>  (34) 
-11.7121

>  <mol_id>  (34) 
34

>  <source_index>  (34) 
40

>  <paff>  (34) 
8.5865808022686458

>  <source_r_exp_dg>  (34) 
-11.7121

>  <smiles>  (34) 
COc1ccc(Nc2nc(-c3cccc(C(=O)Nc4ccc(CC(=O)O)cc4)c3)cn3ccnc23)cc1OC

>  <aimnet_interaction_kcal_mol>  (34) 
-258.45463791529988

$$$$
syk_035
     RDKit          3D

 60 64  0  0  1  0  0  0  0  0999 V2000
   -4.1694   -3.0791   13.4026 C   0  0  0  0  0  0  0  0  0  0  0  0
   -4.0244   -2.1013   14.4322 O   0  0  0  0  0  0  0  0  0  0  0  0
   -2.6880   -1.8619   14.7547 C   0  0  0  0  0  0  0  0  0  0  0  0
   -1.9353   -2.7637   15.4953 C   0  0  0  0  0  0  0  0  0  0  0  0
   -0.5912   -2.5363   15.7351 C   0  0  0  0  0  0  0  0  0  0  0  0
    0.0293   -1.3915   15.2194 C   0  0  0  0  0  0  0  0  0  0  0  0
    1.3844   -1.1849   15.4956 N   0  0  0  0  0  0  0  0  0  0  0  0
    2.2590   -0.3647   14.8541 C   0  0  0  0  0  0  0  0  0  0  0  0
    1.9104    0.4784   13.9033 N   0  0  0  0  0  0  0  0  0  0  0  0
    2.8290    1.3650   13.4124 C   0  0  0  0  0  0  0  0  0  0  0  0
    4.1586    1.2898   13.7190 C   0  0  0  0  0  0  0  0  0  0  0  0
    4.5386    0.3907   14.6768 N   0  0  0  0  0  0  0  0  0  0  0  0
    5.7559    0.1324   15.2696 C   0  0  0  0  0  0  0  0  0  0  0  0
    5.5184   -0.8603   16.1982 C   0  0  0  0  0  0  0  0  0  0  0  0
    4.1929   -1.2225   16.1897 N   0  0  0  0  0  0  0  0  0  0  0  0
    3.6190   -0.4615   15.2779 C   0  0  0  0  0  0  0  0  0  0  0  0
    2.3266    2.4425   12.5423 C   0  0  0  0  0  0  0  0  0  0  0  0
    3.1236    3.5466   12.2309 C   0  0  0  0  0  0  0  0  0  0  0  0
    2.6955    4.5053   11.3287 C   0  0  0  0  0  0  0  0  0  0  0  0
    1.4023    4.4555   10.8443 C   0  0  0  0  0  0  0  0  0  0  0  0
    0.5278    3.4808   11.3126 C   0  0  0  0  0  0  0  0  0  0  0  0
    1.0222    2.3973   12.0353 C   0  0  0  0  0  0  0  0  0  0  0  0
   -0.9421    3.7729   11.2443 C   0  0  0  0  0  0  0  0  0  0  0  0
   -1.7221    3.2656   10.4519 O   0  0  0  0  0  0  0  0  0  0  0  0
   -1.2929    4.6945   12.2030 N   0  0  0  0  0  0  0  0  0  0  0  0
   -2.5537    5.1440   12.6269 C   0  0  0  0  0  0  0  0  0  0  0  0
   -2.5902    5.8085   13.8576 C   0  0  0  0  0  0  0  0  0  0  0  0
   -3.8023    6.2664   14.3536 C   0  0  0  0  0  0  0  0  0  0  0  0
   -4.9409    6.1602   13.5779 C   0  0  0  0  0  0  0  0  0  0  0  0
   -4.9403    5.4497   12.3879 C   0  0  0  0  0  0  0  0  0  0  0  0
   -3.7357    4.9393   11.9116 C   0  0  0  0  0  0  0  0  0  0  0  0
   -6.3230    5.1715   11.7478 C   0  0  0  0  0  0  0  0  0  0  0  0
   -6.4322    4.0566   11.1892 O   0  0  0  0  0  0  0  0  0  0  0  0
   -7.1748    6.0657   11.9729 O   0  0  0  0  0  0  0  0  0  0  0  0
   -0.7308   -0.4661   14.4970 C   0  0  0  0  0  0  0  0  0  0  0  0
   -2.0898   -0.6840   14.3153 C   0  0  0  0  0  0  0  0  0  0  0  0
   -2.9275    0.2626   13.7647 O   0  0  0  0  0  0  0  0  0  0  0  0
   -2.3304    1.1842   12.8491 C   0  0  0  0  0  0  0  0  0  0  0  0
   -3.6531   -4.0033   13.6758 H   0  0  0  0  0  0  0  0  0  0  0  0
   -3.7614   -2.7120   12.4582 H   0  0  0  0  0  0  0  0  0  0  0  0
   -5.2355   -3.2865   13.3024 H   0  0  0  0  0  0  0  0  0  0  0  0
   -2.4062   -3.6391   15.9209 H   0  0  0  0  0  0  0  0  0  0  0  0
   -0.0388   -3.2196   16.3620 H   0  0  0  0  0  0  0  0  0  0  0  0
    1.8029   -1.7237   16.2584 H   0  0  0  0  0  0  0  0  0  0  0  0
    4.9226    1.8995   13.2796 H   0  0  0  0  0  0  0  0  0  0  0  0
    6.6626    0.6444   14.9980 H   0  0  0  0  0  0  0  0  0  0  0  0
    6.2507   -1.3365   16.8408 H   0  0  0  0  0  0  0  0  0  0  0  0
    4.0554    3.7288   12.7447 H   0  0  0  0  0  0  0  0  0  0  0  0
    3.3458    5.3333   11.0909 H   0  0  0  0  0  0  0  0  0  0  0  0
    1.0586    5.1993   10.1395 H   0  0  0  0  0  0  0  0  0  0  0  0
    0.4168    1.5224   12.2136 H   0  0  0  0  0  0  0  0  0  0  0  0
   -0.5116    5.0683   12.7235 H   0  0  0  0  0  0  0  0  0  0  0  0
   -1.6837    5.9157   14.4392 H   0  0  0  0  0  0  0  0  0  0  0  0
   -3.8646    6.6348   15.3661 H   0  0  0  0  0  0  0  0  0  0  0  0
   -5.9097    6.5560   13.8588 H   0  0  0  0  0  0  0  0  0  0  0  0
   -3.7273    4.3755   10.9936 H   0  0  0  0  0  0  0  0  0  0  0  0
   -0.2561    0.4101   14.0954 H   0  0  0  0  0  0  0  0  0  0  0  0
   -3.1285    1.7123   12.3362 H   0  0  0  0  0  0  0  0  0  0  0  0
   -1.7307    0.6470   12.1273 H   0  0  0  0  0  0  0  0  0  0  0  0
   -1.7153    1.9080   13.3762 H   0  0  0  0  0  0  0  0  0  0  0  0
  1  2  1  0
  1 39  1  0
  1 40  1  0
  1 41  1  0
  2  3  1  0
  3  4  2  0
  3 36  1  0
  4  5  1  0
  4 42  1  0
  5  6  2  0
  5 43  1  0
  6  7  1  0
  6 35  1  0
  7  8  1  0
  7 44  1  0
  8  9  2  0
  8 16  1  0
  9 10  1  0
 10 11  2  0
 10 17  1  0
 11 12  1  0
 11 45  1  0
 12 13  1  0
 12 16  1  0
 13 14  2  0
 13 46  1  0
 14 15  1  0
 14 47  1  0
 15 16  2  0
 17 18  2  0
 17 22  1  0
 18 19  1  0
 18 48  1  0
 19 20  2  0
 19 49  1  0
 20 21  1  0
 20 50  1  0
 21 22  2  0
 21 23  1  0
 22 51  1  0
 23 24  2  0
 23 25  1  0
 25 26  1  0
 25 52  1  0
 26 27  2  0
 26 31  1  0
 27 28  1  0
 27 53  1  0
 28 29  2  0
 28 54  1  0
 29 30  1  0
 29 55  1  0
 30 31  2  0
 30 32  1  0
 31 56  1  0
 32 33  2  0
 32 34  1  0
 35 36  2  0
 35 57  1  0
 36 37  1  0
 37 38  1  0
 38 58  1  0
 38 59  1  0
 38 60  1  0
M  CHG  1  34  -1
M  END
>  <r_exp_dg>  (35) 
-10.983

>  <mol_id>  (35) 
35

>  <source_index>  (35) 
41

>  <paff>  (35) 
8.0520673231645059

>  <source_r_exp_dg>  (35) 
-10.983000000000001

>  <smiles>  (35) 
COc1ccc(Nc2nc(-c3cccc(C(=O)Nc4cccc(C(=O)O)c4)c3)cn3ccnc23)cc1OC

>  <aimnet_interaction_kcal_mol>  (35) 
-177.65363303080375

$$$$
syk_036
     RDKit          3D

 64 68  0  0  1  0  0  0  0  0999 V2000
   -5.0780   -2.5344   15.5769 C   0  0  0  0  0  0  0  0  0  0  0  0
   -4.1319   -3.0390   14.4809 C   0  0  0  0  0  0  0  0  0  0  0  0
   -3.9651   -4.5524   14.6441 C   0  0  0  0  0  0  0  0  0  0  0  0
   -4.7380   -2.7789   13.1033 C   0  0  0  0  0  0  0  0  0  0  0  0
   -2.7840   -2.3398   14.6400 C   0  0  0  0  0  0  0  0  0  0  0  0
   -2.4107   -1.2418   13.8647 C   0  0  0  0  0  0  0  0  0  0  0  0
   -1.1817   -0.6135   14.0220 C   0  0  0  0  0  0  0  0  0  0  0  0
   -0.2482   -1.1428   14.9118 C   0  0  0  0  0  0  0  0  0  0  0  0
    1.0572   -0.6826   15.0234 N   0  0  0  0  0  0  0  0  0  0  0  0
    1.6821    0.3675   14.4216 C   0  0  0  0  0  0  0  0  0  0  0  0
    1.0739    1.3308   13.7565 N   0  0  0  0  0  0  0  0  0  0  0  0
    1.8435    2.3689   13.2867 C   0  0  0  0  0  0  0  0  0  0  0  0
    3.1662    2.5337   13.6099 C   0  0  0  0  0  0  0  0  0  0  0  0
    3.8142    1.4728   14.2000 N   0  0  0  0  0  0  0  0  0  0  0  0
    5.1153    1.2580   14.5955 C   0  0  0  0  0  0  0  0  0  0  0  0
    5.1035    0.0371   15.2450 C   0  0  0  0  0  0  0  0  0  0  0  0
    3.8520   -0.5062   15.2579 N   0  0  0  0  0  0  0  0  0  0  0  0
    3.0927    0.3648   14.6113 C   0  0  0  0  0  0  0  0  0  0  0  0
    1.2264    3.3161   12.3320 C   0  0  0  0  0  0  0  0  0  0  0  0
    2.0513    3.8964   11.3654 C   0  0  0  0  0  0  0  0  0  0  0  0
    1.5170    4.6364   10.3310 C   0  0  0  0  0  0  0  0  0  0  0  0
    0.1632    4.9020   10.3111 C   0  0  0  0  0  0  0  0  0  0  0  0
   -0.6341    4.5315   11.3934 C   0  0  0  0  0  0  0  0  0  0  0  0
   -1.8771    5.2097   11.4327 N   0  0  0  0  0  0  0  0  0  0  0  0
   -2.9522    5.1459   12.2716 C   0  0  0  0  0  0  0  0  0  0  0  0
   -3.2562    4.1315   12.9057 O   0  0  0  0  0  0  0  0  0  0  0  0
   -3.7532    6.4001   12.3517 C   0  0  0  0  0  0  0  0  0  0  0  0
   -3.3272    7.6392   11.8437 C   0  0  0  0  0  0  0  0  0  0  0  0
   -4.0524    8.7880   12.0702 C   0  0  0  0  0  0  0  0  0  0  0  0
   -5.2400    8.7695   12.8088 C   0  0  0  0  0  0  0  0  0  0  0  0
   -5.7515    7.5112   13.1693 C   0  0  0  0  0  0  0  0  0  0  0  0
   -5.0004    6.3623   12.9917 C   0  0  0  0  0  0  0  0  0  0  0  0
   -5.8494   10.0817   13.2361 C   0  0  0  0  0  0  0  0  0  0  0  0
   -7.0701   10.0980   13.5974 O   0  0  0  0  0  0  0  0  0  0  0  0
   -5.1065   11.1057   13.2266 O   0  0  0  0  0  0  0  0  0  0  0  0
   -0.1354    3.6467   12.3562 C   0  0  0  0  0  0  0  0  0  0  0  0
   -0.6205   -2.2201   15.7229 C   0  0  0  0  0  0  0  0  0  0  0  0
   -1.8684   -2.7891   15.5943 C   0  0  0  0  0  0  0  0  0  0  0  0
   -6.0813   -2.9489   15.4679 H   0  0  0  0  0  0  0  0  0  0  0  0
   -5.1477   -1.4448   15.5671 H   0  0  0  0  0  0  0  0  0  0  0  0
   -4.7066   -2.7970   16.5634 H   0  0  0  0  0  0  0  0  0  0  0  0
   -3.2002   -4.9311   13.9688 H   0  0  0  0  0  0  0  0  0  0  0  0
   -3.6715   -4.8217   15.6531 H   0  0  0  0  0  0  0  0  0  0  0  0
   -4.9105   -5.0596   14.4390 H   0  0  0  0  0  0  0  0  0  0  0  0
   -4.0642   -3.0832   12.3052 H   0  0  0  0  0  0  0  0  0  0  0  0
   -5.6778   -3.3228   12.9902 H   0  0  0  0  0  0  0  0  0  0  0  0
   -4.9583   -1.7254   12.9309 H   0  0  0  0  0  0  0  0  0  0  0  0
   -3.0205   -0.9219   13.0319 H   0  0  0  0  0  0  0  0  0  0  0  0
   -0.9175    0.2491   13.4297 H   0  0  0  0  0  0  0  0  0  0  0  0
    1.6888   -1.2456   15.5904 H   0  0  0  0  0  0  0  0  0  0  0  0
    3.7132    3.4541   13.4899 H   0  0  0  0  0  0  0  0  0  0  0  0
    5.9069    1.9667   14.4320 H   0  0  0  0  0  0  0  0  0  0  0  0
    5.9346   -0.4808   15.7017 H   0  0  0  0  0  0  0  0  0  0  0  0
    3.1212    3.7777   11.4205 H   0  0  0  0  0  0  0  0  0  0  0  0
    2.1623    5.0298    9.5588 H   0  0  0  0  0  0  0  0  0  0  0  0
   -0.2833    5.4119    9.4678 H   0  0  0  0  0  0  0  0  0  0  0  0
   -1.9492    5.8747   10.6805 H   0  0  0  0  0  0  0  0  0  0  0  0
   -2.3996    7.7260   11.2935 H   0  0  0  0  0  0  0  0  0  0  0  0
   -3.6935    9.7316   11.6783 H   0  0  0  0  0  0  0  0  0  0  0  0
   -6.7698    7.4476   13.5323 H   0  0  0  0  0  0  0  0  0  0  0  0
   -5.3581    5.4073   13.3393 H   0  0  0  0  0  0  0  0  0  0  0  0
   -0.7813    3.2284   13.1138 H   0  0  0  0  0  0  0  0  0  0  0  0
    0.0751   -2.5989   16.4599 H   0  0  0  0  0  0  0  0  0  0  0  0
   -2.1093   -3.5914   16.2750 H   0  0  0  0  0  0  0  0  0  0  0  0
  1  2  1  0
  1 39  1  0
  1 40  1  0
  1 41  1  0
  2  3  1  0
  2  4  1  0
  2  5  1  0
  3 42  1  0
  3 43  1  0
  3 44  1  0
  4 45  1  0
  4 46  1  0
  4 47  1  0
  5  6  2  0
  5 38  1  0
  6  7  1  0
  6 48  1  0
  7  8  2  0
  7 49  1  0
  8  9  1  0
  8 37  1  0
  9 10  1  0
  9 50  1  0
 10 11  2  0
 10 18  1  0
 11 12  1  0
 12 13  2  0
 12 19  1  0
 13 14  1  0
 13 51  1  0
 14 15  1  0
 14 18  1  0
 15 16  2  0
 15 52  1  0
 16 17  1  0
 16 53  1  0
 17 18  2  0
 19 20  2  0
 19 36  1  0
 20 21  1  0
 20 54  1  0
 21 22  2  0
 21 55  1  0
 22 23  1  0
 22 56  1  0
 23 24  1  0
 23 36  2  0
 24 25  1  0
 24 57  1  0
 25 26  2  0
 25 27  1  0
 27 28  2  0
 27 32  1  0
 28 29  1  0
 28 58  1  0
 29 30  2  0
 29 59  1  0
 30 31  1  0
 30 33  1  0
 31 32  2  0
 31 60  1  0
 32 61  1  0
 33 34  2  0
 33 35  1  0
 36 62  1  0
 37 38  2  0
 37 63  1  0
 38 64  1  0
M  CHG  1  35  -1
M  END
>  <r_exp_dg>  (36) 
-9.80496

>  <mol_id>  (36) 
36

>  <source_index>  (36) 
42

>  <paff>  (36) 
7.1883872806851112

>  <source_r_exp_dg>  (36) 
-9.8049599999999995

>  <smiles>  (36) 
CC(C)(C)c1ccc(Nc2nc(-c3cccc(NC(=O)c4ccc(C(=O)O)cc4)c3)cn3ccnc23)cc1

>  <aimnet_interaction_kcal_mol>  (36) 
-239.96187565824991

$$$$
syk_037
     RDKit          3D

 60 64  0  0  1  0  0  0  0  0999 V2000
   -4.3391   -2.7611   13.0365 C   0  0  0  0  0  0  0  0  0  0  0  0
   -4.2591   -1.9383   14.2065 O   0  0  0  0  0  0  0  0  0  0  0  0
   -2.9279   -1.6556   14.5480 C   0  0  0  0  0  0  0  0  0  0  0  0
   -2.1943   -2.4781   15.3914 C   0  0  0  0  0  0  0  0  0  0  0  0
   -0.8622   -2.2100   15.6754 C   0  0  0  0  0  0  0  0  0  0  0  0
   -0.2345   -1.1021   15.0891 C   0  0  0  0  0  0  0  0  0  0  0  0
    1.1152   -0.8562   15.3552 N   0  0  0  0  0  0  0  0  0  0  0  0
    1.9229    0.0829   14.7697 C   0  0  0  0  0  0  0  0  0  0  0  0
    1.4804    1.0678   14.0136 N   0  0  0  0  0  0  0  0  0  0  0  0
    2.3564    2.0126   13.5410 C   0  0  0  0  0  0  0  0  0  0  0  0
    3.6949    1.9723   13.8095 C   0  0  0  0  0  0  0  0  0  0  0  0
    4.1748    0.9108   14.5382 N   0  0  0  0  0  0  0  0  0  0  0  0
    5.4281    0.5932   15.0023 C   0  0  0  0  0  0  0  0  0  0  0  0
    5.2601   -0.5380   15.7821 C   0  0  0  0  0  0  0  0  0  0  0  0
    3.9496   -0.9349   15.7973 N   0  0  0  0  0  0  0  0  0  0  0  0
    3.3114   -0.0585   15.0430 C   0  0  0  0  0  0  0  0  0  0  0  0
    1.7898    3.1224   12.7334 C   0  0  0  0  0  0  0  0  0  0  0  0
    2.5934    3.7824   11.8037 C   0  0  0  0  0  0  0  0  0  0  0  0
    2.1349    4.8980   11.1298 C   0  0  0  0  0  0  0  0  0  0  0  0
    0.8312    5.3212   11.2903 C   0  0  0  0  0  0  0  0  0  0  0  0
   -0.0251    4.6466   12.1611 C   0  0  0  0  0  0  0  0  0  0  0  0
    0.4846    3.5798   12.9165 C   0  0  0  0  0  0  0  0  0  0  0  0
   -1.4363    5.0464   12.3806 C   0  0  0  0  0  0  0  0  0  0  0  0
   -2.1416    4.5087   13.2377 O   0  0  0  0  0  0  0  0  0  0  0  0
   -1.9334    6.0605   11.5762 N   0  0  0  0  0  0  0  0  0  0  0  0
   -2.9962    6.9208   11.8699 C   0  0  0  0  0  0  0  0  0  0  0  0
   -3.4489    7.8608   10.9349 C   0  0  0  0  0  0  0  0  0  0  0  0
   -4.3558    8.8550   11.2926 C   0  0  0  0  0  0  0  0  0  0  0  0
   -4.8060    8.9776   12.6099 C   0  0  0  0  0  0  0  0  0  0  0  0
   -4.4262    7.9687   13.4841 C   0  0  0  0  0  0  0  0  0  0  0  0
   -3.5959    6.9269   13.1288 C   0  0  0  0  0  0  0  0  0  0  0  0
   -5.5707   10.1606   13.1940 C   0  0  0  0  0  0  0  0  0  0  0  0
   -6.6823   10.4853   12.6851 O   0  0  0  0  0  0  0  0  0  0  0  0
   -5.0595   10.7521   14.1949 O   0  0  0  0  0  0  0  0  0  0  0  0
   -0.9820   -0.2505   14.2735 C   0  0  0  0  0  0  0  0  0  0  0  0
   -2.3129   -0.5249   14.0167 C   0  0  0  0  0  0  0  0  0  0  0  0
   -3.1147    0.3257   13.2887 O   0  0  0  0  0  0  0  0  0  0  0  0
   -2.4373    1.2156   12.3924 C   0  0  0  0  0  0  0  0  0  0  0  0
   -5.3981   -2.9438   12.8464 H   0  0  0  0  0  0  0  0  0  0  0  0
   -3.8360   -3.7142   13.2192 H   0  0  0  0  0  0  0  0  0  0  0  0
   -3.8766   -2.2687   12.1795 H   0  0  0  0  0  0  0  0  0  0  0  0
   -2.6691   -3.3255   15.8662 H   0  0  0  0  0  0  0  0  0  0  0  0
   -0.3292   -2.8383   16.3761 H   0  0  0  0  0  0  0  0  0  0  0  0
    1.6018   -1.4692   16.0143 H   0  0  0  0  0  0  0  0  0  0  0  0
    4.3841    2.7652   13.5770 H   0  0  0  0  0  0  0  0  0  0  0  0
    6.3051    1.1773   14.7842 H   0  0  0  0  0  0  0  0  0  0  0  0
    6.0202   -1.0775   16.3232 H   0  0  0  0  0  0  0  0  0  0  0  0
    3.6091    3.4549   11.6328 H   0  0  0  0  0  0  0  0  0  0  0  0
    2.8160    5.4850   10.5371 H   0  0  0  0  0  0  0  0  0  0  0  0
    0.5315    6.2254   10.7802 H   0  0  0  0  0  0  0  0  0  0  0  0
   -0.1361    3.1432   13.6822 H   0  0  0  0  0  0  0  0  0  0  0  0
   -1.4552    6.2255   10.7067 H   0  0  0  0  0  0  0  0  0  0  0  0
   -3.0881    7.8116    9.9138 H   0  0  0  0  0  0  0  0  0  0  0  0
   -4.6877    9.5618   10.5456 H   0  0  0  0  0  0  0  0  0  0  0  0
   -4.6909    8.0653   14.5210 H   0  0  0  0  0  0  0  0  0  0  0  0
   -3.3504    6.1501   13.8301 H   0  0  0  0  0  0  0  0  0  0  0  0
   -0.5245    0.6270   13.8532 H   0  0  0  0  0  0  0  0  0  0  0  0
   -3.1494    1.4798   11.6152 H   0  0  0  0  0  0  0  0  0  0  0  0
   -1.5967    0.7086   11.9386 H   0  0  0  0  0  0  0  0  0  0  0  0
   -2.0957    2.1021   12.9204 H   0  0  0  0  0  0  0  0  0  0  0  0
  1  2  1  0
  1 39  1  0
  1 40  1  0
  1 41  1  0
  2  3  1  0
  3  4  2  0
  3 36  1  0
  4  5  1  0
  4 42  1  0
  5  6  2  0
  5 43  1  0
  6  7  1  0
  6 35  1  0
  7  8  1  0
  7 44  1  0
  8  9  2  0
  8 16  1  0
  9 10  1  0
 10 11  2  0
 10 17  1  0
 11 12  1  0
 11 45  1  0
 12 13  1  0
 12 16  1  0
 13 14  2  0
 13 46  1  0
 14 15  1  0
 14 47  1  0
 15 16  2  0
 17 18  2  0
 17 22  1  0
 18 19  1  0
 18 48  1  0
 19 20  2  0
 19 49  1  0
 20 21  1  0
 20 50  1  0
 21 22  2  0
 21 23  1  0
 22 51  1  0
 23 24  2  0
 23 25  1  0
 25 26  1  0
 25 52  1  0
 26 27  2  0
 26 31  1  0
 27 28  1  0
 27 53  1  0
 28 29  2  0
 28 54  1  0
 29 30  1  0
 29 32  1  0
 30 31  2  0
 30 55  1  0
 31 56  1  0
 32 33  2  0
 32 34  1  0
 35 36  2  0
 35 57  1  0
 36 37  1  0
 37 38  1  0
 38 58  1  0
 38 59  1  0
 38 60  1  0
M  CHG  1  34  -1
M  END
>  <r_exp_dg>  (37) 
-12.3815

>  <mol_id>  (37) 
37

>  <source_index>  (37) 
43

>  <paff>  (37) 
9.0773636994124143

>  <source_r_exp_dg>  (37) 
-12.381500000000001

>  <smiles>  (37) 
COc1ccc(Nc2nc(-c3cccc(C(=O)Nc4ccc(C(=O)O)cc4)c3)cn3ccnc23)cc1OC

>  <aimnet_interaction_kcal_mol>  (37) 
-244.73224850940667

$$$$
syk_038
     RDKit          3D

 65 70  0  0  1  0  0  0  0  0999 V2000
   -4.2653   -2.5897   13.1510 C   0  0  0  0  0  0  0  0  0  0  0  0
   -4.1253   -1.9495   14.4245 O   0  0  0  0  0  0  0  0  0  0  0  0
   -2.7763   -1.7601   14.7553 C   0  0  0  0  0  0  0  0  0  0  0  0
   -2.0600   -2.6844   15.5015 C   0  0  0  0  0  0  0  0  0  0  0  0
   -0.7114   -2.4891   15.7613 C   0  0  0  0  0  0  0  0  0  0  0  0
   -0.0502   -1.3648   15.2505 C   0  0  0  0  0  0  0  0  0  0  0  0
    1.3079   -1.1919   15.5309 N   0  0  0  0  0  0  0  0  0  0  0  0
    2.1999   -0.3994   14.8700 C   0  0  0  0  0  0  0  0  0  0  0  0
    1.8529    0.4263   13.9024 N   0  0  0  0  0  0  0  0  0  0  0  0
    2.7664    1.3183   13.4124 C   0  0  0  0  0  0  0  0  0  0  0  0
    4.0980    1.2335   13.7034 C   0  0  0  0  0  0  0  0  0  0  0  0
    4.4811    0.3458   14.6692 N   0  0  0  0  0  0  0  0  0  0  0  0
    5.7026    0.0967   15.2581 C   0  0  0  0  0  0  0  0  0  0  0  0
    5.4720   -0.8809   16.2031 C   0  0  0  0  0  0  0  0  0  0  0  0
    4.1448   -1.2426   16.2080 N   0  0  0  0  0  0  0  0  0  0  0  0
    3.5626   -0.4973   15.2893 C   0  0  0  0  0  0  0  0  0  0  0  0
    2.2573    2.4288   12.5845 C   0  0  0  0  0  0  0  0  0  0  0  0
    3.0246    3.5781   12.3964 C   0  0  0  0  0  0  0  0  0  0  0  0
    2.5436    4.6542   11.6745 C   0  0  0  0  0  0  0  0  0  0  0  0
    1.2562    4.6234   11.1894 C   0  0  0  0  0  0  0  0  0  0  0  0
    0.4357    3.5249   11.4365 C   0  0  0  0  0  0  0  0  0  0  0  0
    0.9754    2.3807   12.0299 C   0  0  0  0  0  0  0  0  0  0  0  0
   -1.0169    3.7438   11.2240 C   0  0  0  0  0  0  0  0  0  0  0  0
   -1.7390    3.1748   10.4177 O   0  0  0  0  0  0  0  0  0  0  0  0
   -1.5083    4.7349   12.0614 N   0  0  0  0  0  0  0  0  0  0  0  0
   -2.8239    5.1810   12.1612 C   0  0  0  0  0  0  0  0  0  0  0  0
   -3.2982    5.6604   13.3828 C   0  0  0  0  0  0  0  0  0  0  0  0
   -4.5910    6.1384   13.5227 C   0  0  0  0  0  0  0  0  0  0  0  0
   -5.4533    6.2357   12.4290 C   0  0  0  0  0  0  0  0  0  0  0  0
   -4.9775    5.7157   11.2164 C   0  0  0  0  0  0  0  0  0  0  0  0
   -3.7088    5.1818   11.0796 C   0  0  0  0  0  0  0  0  0  0  0  0
   -6.7870    6.8501   12.5048 C   0  0  0  0  0  0  0  0  0  0  0  0
   -7.6597    6.9941   13.5990 C   0  0  0  0  0  0  0  0  0  0  0  0
   -8.7781    7.6701   13.2902 N   0  0  0  0  0  0  0  0  0  0  0  0
   -8.6351    7.9332   11.9772 N   0  0  0  0  0  0  0  0  0  0  0  0
   -7.4833    7.4384   11.4577 C   0  0  0  0  0  0  0  0  0  0  0  0
   -0.7795   -0.4170   14.5220 C   0  0  0  0  0  0  0  0  0  0  0  0
   -2.1343   -0.6122   14.3106 C   0  0  0  0  0  0  0  0  0  0  0  0
   -2.9462    0.3426   13.7124 O   0  0  0  0  0  0  0  0  0  0  0  0
   -2.3236    1.1216   12.6880 C   0  0  0  0  0  0  0  0  0  0  0  0
   -5.3346   -2.7380   12.9827 H   0  0  0  0  0  0  0  0  0  0  0  0
   -3.8376   -1.9802   12.3550 H   0  0  0  0  0  0  0  0  0  0  0  0
   -3.7634   -3.5607   13.1656 H   0  0  0  0  0  0  0  0  0  0  0  0
   -2.5554   -3.5475   15.9230 H   0  0  0  0  0  0  0  0  0  0  0  0
   -0.1857   -3.1863   16.3973 H   0  0  0  0  0  0  0  0  0  0  0  0
    1.7099   -1.7305   16.3047 H   0  0  0  0  0  0  0  0  0  0  0  0
    4.8646    1.8291   13.2485 H   0  0  0  0  0  0  0  0  0  0  0  0
    6.6085    0.6052   14.9770 H   0  0  0  0  0  0  0  0  0  0  0  0
    6.2103   -1.3468   16.8471 H   0  0  0  0  0  0  0  0  0  0  0  0
    3.9847    3.6950   12.8742 H   0  0  0  0  0  0  0  0  0  0  0  0
    3.1671    5.5325   11.5714 H   0  0  0  0  0  0  0  0  0  0  0  0
    0.8724    5.4670   10.6303 H   0  0  0  0  0  0  0  0  0  0  0  0
    0.4311    1.4521   12.0728 H   0  0  0  0  0  0  0  0  0  0  0  0
   -0.8399    5.1176   12.7140 H   0  0  0  0  0  0  0  0  0  0  0  0
   -2.6469    5.6331   14.2459 H   0  0  0  0  0  0  0  0  0  0  0  0
   -4.9123    6.3988   14.5213 H   0  0  0  0  0  0  0  0  0  0  0  0
   -5.6276    5.7110   10.3503 H   0  0  0  0  0  0  0  0  0  0  0  0
   -3.3899    4.7758   10.1331 H   0  0  0  0  0  0  0  0  0  0  0  0
   -7.5706    6.6120   14.5975 H   0  0  0  0  0  0  0  0  0  0  0  0
   -9.4021    8.3428   11.4695 H   0  0  0  0  0  0  0  0  0  0  0  0
   -7.2388    7.5499   10.4162 H   0  0  0  0  0  0  0  0  0  0  0  0
   -0.2811    0.4584   14.1477 H   0  0  0  0  0  0  0  0  0  0  0  0
   -3.0889    1.4256   11.9824 H   0  0  0  0  0  0  0  0  0  0  0  0
   -1.8370    2.0005   13.1037 H   0  0  0  0  0  0  0  0  0  0  0  0
   -1.5954    0.5182   12.1677 H   0  0  0  0  0  0  0  0  0  0  0  0
  1  2  1  0
  1 41  1  0
  1 42  1  0
  1 43  1  0
  2  3  1  0
  3  4  2  0
  3 38  1  0
  4  5  1  0
  4 44  1  0
  5  6  2  0
  5 45  1  0
  6  7  1  0
  6 37  1  0
  7  8  1  0
  7 46  1  0
  8  9  2  0
  8 16  1  0
  9 10  1  0
 10 11  2  0
 10 17  1  0
 11 12  1  0
 11 47  1  0
 12 13  1  0
 12 16  1  0
 13 14  2  0
 13 48  1  0
 14 15  1  0
 14 49  1  0
 15 16  2  0
 17 18  2  0
 17 22  1  0
 18 19  1  0
 18 50  1  0
 19 20  2  0
 19 51  1  0
 20 21  1  0
 20 52  1  0
 21 22  2  0
 21 23  1  0
 22 53  1  0
 23 24  2  0
 23 25  1  0
 25 26  1  0
 25 54  1  0
 26 27  2  0
 26 31  1  0
 27 28  1  0
 27 55  1  0
 28 29  2  0
 28 56  1  0
 29 30  1  0
 29 32  1  0
 30 31  2  0
 30 57  1  0
 31 58  1  0
 32 33  1  0
 32 36  2  0
 33 34  2  0
 33 59  1  0
 34 35  1  0
 35 36  1  0
 35 60  1  0
 36 61  1  0
 37 38  2  0
 37 62  1  0
 38 39  1  0
 39 40  1  0
 40 63  1  0
 40 64  1  0
 40 65  1  0
M  END
>  <r_exp_dg>  (38) 
-10.8575

>  <mol_id>  (38) 
38

>  <source_index>  (38) 
44

>  <paff>  (38) 
7.9600482392520844

>  <source_r_exp_dg>  (38) 
-10.8575

>  <smiles>  (38) 
COc1ccc(Nc2nc(-c3cccc(C(=O)Nc4ccc(-c5cn[nH]c5)cc4)c3)cn3ccnc23)cc1OC

>  <aimnet_interaction_kcal_mol>  (38) 
-110.03833731462072

$$$$
syk_039
     RDKit          3D

 62 67  0  0  1  0  0  0  0  0999 V2000
   -4.2154   -2.9754   13.3333 C   0  0  0  0  0  0  0  0  0  0  0  0
   -4.0841   -2.0068   14.3762 O   0  0  0  0  0  0  0  0  0  0  0  0
   -2.7460   -1.7818   14.7213 C   0  0  0  0  0  0  0  0  0  0  0  0
   -2.0140   -2.6872   15.4785 C   0  0  0  0  0  0  0  0  0  0  0  0
   -0.6693   -2.4745   15.7334 C   0  0  0  0  0  0  0  0  0  0  0  0
   -0.0237   -1.3499   15.2027 C   0  0  0  0  0  0  0  0  0  0  0  0
    1.3350   -1.1672   15.4716 N   0  0  0  0  0  0  0  0  0  0  0  0
    2.2191   -0.3551   14.8263 C   0  0  0  0  0  0  0  0  0  0  0  0
    1.8730    0.4845   13.8714 N   0  0  0  0  0  0  0  0  0  0  0  0
    2.7954    1.3694   13.3822 C   0  0  0  0  0  0  0  0  0  0  0  0
    4.1240    1.2873   13.6882 C   0  0  0  0  0  0  0  0  0  0  0  0
    4.5014    0.3895   14.6494 N   0  0  0  0  0  0  0  0  0  0  0  0
    5.7178    0.1288   15.2431 C   0  0  0  0  0  0  0  0  0  0  0  0
    5.4772   -0.8617   16.1736 C   0  0  0  0  0  0  0  0  0  0  0  0
    4.1497   -1.2191   16.1661 N   0  0  0  0  0  0  0  0  0  0  0  0
    3.5782   -0.4577   15.2525 C   0  0  0  0  0  0  0  0  0  0  0  0
    2.2998    2.4592   12.5215 C   0  0  0  0  0  0  0  0  0  0  0  0
    3.1048    3.5689   12.2558 C   0  0  0  0  0  0  0  0  0  0  0  0
    2.6922    4.5621   11.3862 C   0  0  0  0  0  0  0  0  0  0  0  0
    1.4085    4.5312   10.8839 C   0  0  0  0  0  0  0  0  0  0  0  0
    0.5216    3.5394   11.2960 C   0  0  0  0  0  0  0  0  0  0  0  0
    1.0042    2.4302   11.9915 C   0  0  0  0  0  0  0  0  0  0  0  0
   -0.9345    3.8705   11.2013 C   0  0  0  0  0  0  0  0  0  0  0  0
   -1.7567    3.3677   10.4483 O   0  0  0  0  0  0  0  0  0  0  0  0
   -1.2568    4.8628   12.1009 N   0  0  0  0  0  0  0  0  0  0  0  0
   -2.4763    5.5240   12.2756 C   0  0  0  0  0  0  0  0  0  0  0  0
   -2.8283    5.9041   13.5705 C   0  0  0  0  0  0  0  0  0  0  0  0
   -3.9308    6.7053   13.8060 C   0  0  0  0  0  0  0  0  0  0  0  0
   -4.6555    7.2555   12.7505 C   0  0  0  0  0  0  0  0  0  0  0  0
   -4.3950    6.7417   11.4755 C   0  0  0  0  0  0  0  0  0  0  0  0
   -3.3286    5.8868   11.2314 C   0  0  0  0  0  0  0  0  0  0  0  0
   -5.6423    8.3272   12.9735 C   0  0  0  0  0  0  0  0  0  0  0  0
   -6.9226    8.2414   12.5807 N   0  0  0  0  0  0  0  0  0  0  0  0
   -7.4931    9.3702   12.9984 N   0  0  0  0  0  0  0  0  0  0  0  0
   -6.5794   10.1226   13.5924 N   0  0  0  0  0  0  0  0  0  0  0  0
   -5.3844    9.4974   13.5842 N   0  0  0  0  0  0  0  0  0  0  0  0
   -0.7667   -0.4181   14.4694 C   0  0  0  0  0  0  0  0  0  0  0  0
   -2.1268   -0.6164   14.2840 C   0  0  0  0  0  0  0  0  0  0  0  0
   -2.9518    0.3531   13.7364 O   0  0  0  0  0  0  0  0  0  0  0  0
   -2.3343    1.2497   12.8091 C   0  0  0  0  0  0  0  0  0  0  0  0
   -3.7245   -3.9103   13.6161 H   0  0  0  0  0  0  0  0  0  0  0  0
   -3.7735   -2.6115   12.4027 H   0  0  0  0  0  0  0  0  0  0  0  0
   -5.2814   -3.1655   13.1999 H   0  0  0  0  0  0  0  0  0  0  0  0
   -2.4992   -3.5523   15.9095 H   0  0  0  0  0  0  0  0  0  0  0  0
   -0.1339   -3.1560   16.3783 H   0  0  0  0  0  0  0  0  0  0  0  0
    1.7517   -1.7141   16.2293 H   0  0  0  0  0  0  0  0  0  0  0  0
    4.8918    1.8904   13.2463 H   0  0  0  0  0  0  0  0  0  0  0  0
    6.6268    0.6385   14.9739 H   0  0  0  0  0  0  0  0  0  0  0  0
    6.2096   -1.3369   16.8166 H   0  0  0  0  0  0  0  0  0  0  0  0
    4.0320    3.7277   12.7844 H   0  0  0  0  0  0  0  0  0  0  0  0
    3.3459    5.4010   11.1948 H   0  0  0  0  0  0  0  0  0  0  0  0
    1.0758    5.3073   10.2089 H   0  0  0  0  0  0  0  0  0  0  0  0
    0.3976    1.5496   12.1305 H   0  0  0  0  0  0  0  0  0  0  0  0
   -0.5096    5.1408   12.7232 H   0  0  0  0  0  0  0  0  0  0  0  0
   -2.2019    5.5840   14.3920 H   0  0  0  0  0  0  0  0  0  0  0  0
   -4.2024    6.9073   14.8333 H   0  0  0  0  0  0  0  0  0  0  0  0
   -5.0418    7.0275   10.6581 H   0  0  0  0  0  0  0  0  0  0  0  0
   -3.1398    5.5197   10.2333 H   0  0  0  0  0  0  0  0  0  0  0  0
   -0.2728    0.4457   14.0642 H   0  0  0  0  0  0  0  0  0  0  0  0
   -3.1218    1.7687   12.2690 H   0  0  0  0  0  0  0  0  0  0  0  0
   -1.7293    0.6877   12.1123 H   0  0  0  0  0  0  0  0  0  0  0  0
   -1.7189    1.9821   13.3256 H   0  0  0  0  0  0  0  0  0  0  0  0
  1  2  1  0
  1 41  1  0
  1 42  1  0
  1 43  1  0
  2  3  1  0
  3  4  2  0
  3 38  1  0
  4  5  1  0
  4 44  1  0
  5  6  2  0
  5 45  1  0
  6  7  1  0
  6 37  1  0
  7  8  1  0
  7 46  1  0
  8  9  2  0
  8 16  1  0
  9 10  1  0
 10 11  2  0
 10 17  1  0
 11 12  1  0
 11 47  1  0
 12 13  1  0
 12 16  1  0
 13 14  2  0
 13 48  1  0
 14 15  1  0
 14 49  1  0
 15 16  2  0
 17 18  2  0
 17 22  1  0
 18 19  1  0
 18 50  1  0
 19 20  2  0
 19 51  1  0
 20 21  1  0
 20 52  1  0
 21 22  2  0
 21 23  1  0
 22 53  1  0
 23 24  2  0
 23 25  1  0
 25 26  1  0
 25 54  1  0
 26 27  2  0
 26 31  1  0
 27 28  1  0
 27 55  1  0
 28 29  2  0
 28 56  1  0
 29 30  1  0
 29 32  1  0
 30 31  2  0
 30 57  1  0
 31 58  1  0
 32 36  2  0
 32 33  1  0
 33 34  1  0
 34 35  2  0
 35 36  1  0
 37 38  2  0
 37 59  1  0
 38 39  1  0
 39 40  1  0
 40 60  1  0
 40 61  1  0
 40 62  1  0
M  CHG  1  33  -1
M  END
>  <r_exp_dg>  (39) 
-12.038

>  <mol_id>  (39) 
39

>  <source_index>  (39) 
45

>  <paff>  (39) 
8.8255062830413191

>  <source_r_exp_dg>  (39) 
-12.038

>  <smiles>  (39) 
COc1ccc(Nc2nc(-c3cccc(C(=O)Nc4ccc(-c5nnn[nH]5)cc4)c3)cn3ccnc23)cc1OC

>  <aimnet_interaction_kcal_mol>  (39) 
-240.40036293799758

$$$$
syk_040
     RDKit          3D

 64 68  0  0  1  0  0  0  0  0999 V2000
   -8.5914    6.7963   11.9490 C   0  0  0  0  0  0  0  0  0  0  0  0
   -7.2692    6.2786   11.7890 O   0  0  0  0  0  0  0  0  0  0  0  0
   -6.3524    6.7062   12.6966 C   0  0  0  0  0  0  0  0  0  0  0  0
   -6.6379    7.5524   13.5511 O   0  0  0  0  0  0  0  0  0  0  0  0
   -5.0705    6.0740   12.5346 C   0  0  0  0  0  0  0  0  0  0  0  0
   -4.6958    5.4733   11.3164 C   0  0  0  0  0  0  0  0  0  0  0  0
   -3.4223    5.0101   11.1200 C   0  0  0  0  0  0  0  0  0  0  0  0
   -2.4634    5.1144   12.1430 C   0  0  0  0  0  0  0  0  0  0  0  0
   -1.1651    4.6823   11.9725 N   0  0  0  0  0  0  0  0  0  0  0  0
   -0.7252    3.6875   11.1073 C   0  0  0  0  0  0  0  0  0  0  0  0
   -1.4707    3.1383   10.3107 O   0  0  0  0  0  0  0  0  0  0  0  0
    0.7146    3.4195   11.2949 C   0  0  0  0  0  0  0  0  0  0  0  0
    1.5773    4.4745   11.0112 C   0  0  0  0  0  0  0  0  0  0  0  0
    2.8314    4.5066   11.5761 C   0  0  0  0  0  0  0  0  0  0  0  0
    3.2372    3.4644   12.3868 C   0  0  0  0  0  0  0  0  0  0  0  0
    2.4444    2.3286   12.5599 C   0  0  0  0  0  0  0  0  0  0  0  0
    1.1914    2.2839   11.9501 C   0  0  0  0  0  0  0  0  0  0  0  0
    2.8997    1.2308   13.4242 C   0  0  0  0  0  0  0  0  0  0  0  0
    4.2220    1.1373   13.7502 C   0  0  0  0  0  0  0  0  0  0  0  0
    4.5617    0.2730   14.7485 N   0  0  0  0  0  0  0  0  0  0  0  0
    5.7588    0.0387   15.3916 C   0  0  0  0  0  0  0  0  0  0  0  0
    5.4821   -0.8969   16.3624 C   0  0  0  0  0  0  0  0  0  0  0  0
    4.1562   -1.2585   16.3201 N   0  0  0  0  0  0  0  0  0  0  0  0
    3.6124   -0.5438   15.3575 C   0  0  0  0  0  0  0  0  0  0  0  0
    2.2616   -0.4383   14.9024 C   0  0  0  0  0  0  0  0  0  0  0  0
    1.3417   -1.2040   15.5571 N   0  0  0  0  0  0  0  0  0  0  0  0
   -0.0127   -1.3650   15.2526 C   0  0  0  0  0  0  0  0  0  0  0  0
   -0.6918   -2.4776   15.7659 C   0  0  0  0  0  0  0  0  0  0  0  0
   -2.0414   -2.6549   15.5004 C   0  0  0  0  0  0  0  0  0  0  0  0
   -2.7426   -1.7216   14.7513 C   0  0  0  0  0  0  0  0  0  0  0  0
   -4.0960   -1.8902   14.4258 O   0  0  0  0  0  0  0  0  0  0  0  0
   -4.2518   -2.5556   13.1673 C   0  0  0  0  0  0  0  0  0  0  0  0
   -2.0833   -0.5846   14.3025 C   0  0  0  0  0  0  0  0  0  0  0  0
   -2.8896    0.3886   13.7198 O   0  0  0  0  0  0  0  0  0  0  0  0
   -2.2425    1.2147   12.7531 C   0  0  0  0  0  0  0  0  0  0  0  0
   -0.7219   -0.4178   14.5024 C   0  0  0  0  0  0  0  0  0  0  0  0
    1.9538    0.3719   13.9083 N   0  0  0  0  0  0  0  0  0  0  0  0
   -2.8515    5.6581   13.3811 C   0  0  0  0  0  0  0  0  0  0  0  0
   -4.1363    6.1059   13.5838 C   0  0  0  0  0  0  0  0  0  0  0  0
   -9.1840    6.3396   11.1655 H   0  0  0  0  0  0  0  0  0  0  0  0
   -8.6079    7.8814   11.8468 H   0  0  0  0  0  0  0  0  0  0  0  0
   -9.0070    6.5368   12.9244 H   0  0  0  0  0  0  0  0  0  0  0  0
   -5.4167    5.3899   10.5162 H   0  0  0  0  0  0  0  0  0  0  0  0
   -3.1371    4.5743   10.1765 H   0  0  0  0  0  0  0  0  0  0  0  0
   -0.4660    5.0403   12.6085 H   0  0  0  0  0  0  0  0  0  0  0  0
    1.2522    5.2905   10.3797 H   0  0  0  0  0  0  0  0  0  0  0  0
    3.4635    5.3779   11.4802 H   0  0  0  0  0  0  0  0  0  0  0  0
    4.1486    3.6026   12.9476 H   0  0  0  0  0  0  0  0  0  0  0  0
    0.6120    1.3763   12.0045 H   0  0  0  0  0  0  0  0  0  0  0  0
    5.0039    1.7170   13.3023 H   0  0  0  0  0  0  0  0  0  0  0  0
    6.6780    0.5265   15.1183 H   0  0  0  0  0  0  0  0  0  0  0  0
    6.1846   -1.3389   17.0568 H   0  0  0  0  0  0  0  0  0  0  0  0
    1.7168   -1.7342   16.3519 H   0  0  0  0  0  0  0  0  0  0  0  0
   -0.1789   -3.1790   16.4076 H   0  0  0  0  0  0  0  0  0  0  0  0
   -2.5507   -3.5100   15.9218 H   0  0  0  0  0  0  0  0  0  0  0  0
   -5.3238   -2.6927   13.0060 H   0  0  0  0  0  0  0  0  0  0  0  0
   -3.7661   -3.5344   13.2011 H   0  0  0  0  0  0  0  0  0  0  0  0
   -3.8172   -1.9705   12.3571 H   0  0  0  0  0  0  0  0  0  0  0  0
   -3.0100    1.7062   12.1635 H   0  0  0  0  0  0  0  0  0  0  0  0
   -1.6267    0.6060   12.1072 H   0  0  0  0  0  0  0  0  0  0  0  0
   -1.6241    1.9696   13.2334 H   0  0  0  0  0  0  0  0  0  0  0  0
   -0.1989    0.4294   14.0976 H   0  0  0  0  0  0  0  0  0  0  0  0
   -2.1187    5.6937   14.1788 H   0  0  0  0  0  0  0  0  0  0  0  0
   -4.4253    6.4552   14.5683 H   0  0  0  0  0  0  0  0  0  0  0  0
  1  2  1  0
  1 40  1  0
  1 41  1  0
  1 42  1  0
  2  3  1  0
  3  4  2  0
  3  5  1  0
  5  6  2  0
  5 39  1  0
  6  7  1  0
  6 43  1  0
  7  8  2  0
  7 44  1  0
  8  9  1  0
  8 38  1  0
  9 10  1  0
  9 45  1  0
 10 11  2  0
 10 12  1  0
 12 13  2  0
 12 17  1  0
 13 14  1  0
 13 46  1  0
 14 15  2  0
 14 47  1  0
 15 16  1  0
 15 48  1  0
 16 17  2  0
 16 18  1  0
 17 49  1  0
 18 19  2  0
 18 37  1  0
 19 20  1  0
 19 50  1  0
 20 21  1  0
 20 24  1  0
 21 22  2  0
 21 51  1  0
 22 23  1  0
 22 52  1  0
 23 24  2  0
 24 25  1  0
 25 26  1  0
 25 37  2  0
 26 27  1  0
 26 53  1  0
 27 28  2  0
 27 36  1  0
 28 29  1  0
 28 54  1  0
 29 30  2  0
 29 55  1  0
 30 31  1  0
 30 33  1  0
 31 32  1  0
 32 56  1  0
 32 57  1  0
 32 58  1  0
 33 34  1  0
 33 36  2  0
 34 35  1  0
 35 59  1  0
 35 60  1  0
 35 61  1  0
 36 62  1  0
 38 39  2  0
 38 63  1  0
 39 64  1  0
M  END
>  <r_exp_dg>  (40) 
-10.6659

>  <mol_id>  (40) 
40

>  <source_index>  (40) 
46

>  <paff>  (40) 
7.8195714531056684

>  <source_r_exp_dg>  (40) 
-10.665900000000001

>  <smiles>  (40) 
COC(=O)c1ccc(NC(=O)c2cccc(-c3cn4ccnc4c(Nc4ccc(OC)c(OC)c4)n3)c2)cc1

>  <aimnet_interaction_kcal_mol>  (40) 
-123.04770963337008

$$$$
syk_041
     RDKit          3D

 62 66  0  0  1  0  0  0  0  0999 V2000
   -4.2453   -2.5514   13.1566 C   0  0  0  0  0  0  0  0  0  0  0  0
   -4.0977   -1.9058   14.4262 O   0  0  0  0  0  0  0  0  0  0  0  0
   -2.7456   -1.7321   14.7560 C   0  0  0  0  0  0  0  0  0  0  0  0
   -2.0423   -2.6621   15.5066 C   0  0  0  0  0  0  0  0  0  0  0  0
   -0.6935   -2.4797   15.7729 C   0  0  0  0  0  0  0  0  0  0  0  0
   -0.0184   -1.3627   15.2643 C   0  0  0  0  0  0  0  0  0  0  0  0
    1.3372   -1.2004   15.5628 N   0  0  0  0  0  0  0  0  0  0  0  0
    2.2510   -0.4306   14.9042 C   0  0  0  0  0  0  0  0  0  0  0  0
    1.9331    0.3825   13.9155 N   0  0  0  0  0  0  0  0  0  0  0  0
    2.8710    1.2498   13.4295 C   0  0  0  0  0  0  0  0  0  0  0  0
    4.1954    1.1602   13.7470 C   0  0  0  0  0  0  0  0  0  0  0  0
    4.5465    0.2888   14.7358 N   0  0  0  0  0  0  0  0  0  0  0  0
    5.7507    0.0502   15.3634 C   0  0  0  0  0  0  0  0  0  0  0  0
    5.4871   -0.8971   16.3273 C   0  0  0  0  0  0  0  0  0  0  0  0
    4.1608   -1.2587   16.2983 N   0  0  0  0  0  0  0  0  0  0  0  0
    3.6054   -0.5353   15.3481 C   0  0  0  0  0  0  0  0  0  0  0  0
    2.4004    2.3487   12.5727 C   0  0  0  0  0  0  0  0  0  0  0  0
    3.1818    3.4909   12.3935 C   0  0  0  0  0  0  0  0  0  0  0  0
    2.7527    4.5369   11.5989 C   0  0  0  0  0  0  0  0  0  0  0  0
    1.4930    4.4944   11.0467 C   0  0  0  0  0  0  0  0  0  0  0  0
    0.6439    3.4281   11.3321 C   0  0  0  0  0  0  0  0  0  0  0  0
    1.1404    2.2955   11.9773 C   0  0  0  0  0  0  0  0  0  0  0  0
   -0.8032    3.6781   11.1585 C   0  0  0  0  0  0  0  0  0  0  0  0
   -1.5436    3.1573   10.3383 O   0  0  0  0  0  0  0  0  0  0  0  0
   -1.2558    4.6269   12.0674 N   0  0  0  0  0  0  0  0  0  0  0  0
   -2.5452    5.1002   12.2055 C   0  0  0  0  0  0  0  0  0  0  0  0
   -3.4606    5.0905   11.1424 C   0  0  0  0  0  0  0  0  0  0  0  0
   -4.7115    5.6342   11.3029 C   0  0  0  0  0  0  0  0  0  0  0  0
   -5.1134    6.2050   12.5254 C   0  0  0  0  0  0  0  0  0  0  0  0
   -4.2210    6.1422   13.6108 C   0  0  0  0  0  0  0  0  0  0  0  0
   -2.9571    5.6216   13.4428 C   0  0  0  0  0  0  0  0  0  0  0  0
   -6.3783    6.9252   12.6642 C   0  0  0  0  0  0  0  0  0  0  0  0
   -6.5644    7.8249   13.5089 O   0  0  0  0  0  0  0  0  0  0  0  0
   -7.3715    6.5992   11.7809 N   0  0  0  0  0  0  0  0  0  0  0  0
   -0.7328   -0.4122   14.5238 C   0  0  0  0  0  0  0  0  0  0  0  0
   -2.0893   -0.5946   14.3053 C   0  0  0  0  0  0  0  0  0  0  0  0
   -2.8895    0.3603   13.6897 O   0  0  0  0  0  0  0  0  0  0  0  0
   -2.2467    1.1114   12.6569 C   0  0  0  0  0  0  0  0  0  0  0  0
   -5.3160   -2.6905   12.9886 H   0  0  0  0  0  0  0  0  0  0  0  0
   -3.8108   -1.9513   12.3576 H   0  0  0  0  0  0  0  0  0  0  0  0
   -3.7538   -3.5277   13.1765 H   0  0  0  0  0  0  0  0  0  0  0  0
   -2.5486   -3.5193   15.9272 H   0  0  0  0  0  0  0  0  0  0  0  0
   -0.1782   -3.1809   16.4129 H   0  0  0  0  0  0  0  0  0  0  0  0
    1.7179   -1.7326   16.3535 H   0  0  0  0  0  0  0  0  0  0  0  0
    4.9723    1.7469   13.2992 H   0  0  0  0  0  0  0  0  0  0  0  0
    6.6657    0.5439   15.0862 H   0  0  0  0  0  0  0  0  0  0  0  0
    6.1998   -1.3464   17.0078 H   0  0  0  0  0  0  0  0  0  0  0  0
    4.1043    3.6298   12.9358 H   0  0  0  0  0  0  0  0  0  0  0  0
    3.3784    5.4136   11.5015 H   0  0  0  0  0  0  0  0  0  0  0  0
    1.1525    5.3082   10.4207 H   0  0  0  0  0  0  0  0  0  0  0  0
    0.5754    1.3797   12.0320 H   0  0  0  0  0  0  0  0  0  0  0  0
   -0.5581    4.9708   12.7132 H   0  0  0  0  0  0  0  0  0  0  0  0
   -3.1587    4.6754   10.1948 H   0  0  0  0  0  0  0  0  0  0  0  0
   -5.3625    5.6692   10.4386 H   0  0  0  0  0  0  0  0  0  0  0  0
   -4.5157    6.4895   14.5953 H   0  0  0  0  0  0  0  0  0  0  0  0
   -2.2581    5.5988   14.2691 H   0  0  0  0  0  0  0  0  0  0  0  0
   -8.2849    6.9905   11.9372 H   0  0  0  0  0  0  0  0  0  0  0  0
   -7.3416    5.7237   11.2856 H   0  0  0  0  0  0  0  0  0  0  0  0
   -0.2207    0.4535   14.1433 H   0  0  0  0  0  0  0  0  0  0  0  0
   -3.0035    1.4125   11.9406 H   0  0  0  0  0  0  0  0  0  0  0  0
   -1.7482    1.9895   13.0608 H   0  0  0  0  0  0  0  0  0  0  0  0
   -1.5230    0.4894   12.1514 H   0  0  0  0  0  0  0  0  0  0  0  0
  1  2  1  0
  1 39  1  0
  1 40  1  0
  1 41  1  0
  2  3  1  0
  3  4  2  0
  3 36  1  0
  4  5  1  0
  4 42  1  0
  5  6  2  0
  5 43  1  0
  6  7  1  0
  6 35  1  0
  7  8  1  0
  7 44  1  0
  8  9  2  0
  8 16  1  0
  9 10  1  0
 10 11  2  0
 10 17  1  0
 11 12  1  0
 11 45  1  0
 12 13  1  0
 12 16  1  0
 13 14  2  0
 13 46  1  0
 14 15  1  0
 14 47  1  0
 15 16  2  0
 17 18  2  0
 17 22  1  0
 18 19  1  0
 18 48  1  0
 19 20  2  0
 19 49  1  0
 20 21  1  0
 20 50  1  0
 21 22  2  0
 21 23  1  0
 22 51  1  0
 23 24  2  0
 23 25  1  0
 25 26  1  0
 25 52  1  0
 26 27  2  0
 26 31  1  0
 27 28  1  0
 27 53  1  0
 28 29  2  0
 28 54  1  0
 29 30  1  0
 29 32  1  0
 30 31  2  0
 30 55  1  0
 31 56  1  0
 32 33  2  0
 32 34  1  0
 34 57  1  0
 34 58  1  0
 35 36  2  0
 35 59  1  0
 36 37  1  0
 37 38  1  0
 38 60  1  0
 38 61  1  0
 38 62  1  0
M  END
>  <r_exp_dg>  (41) 
-11.414

>  <mol_id>  (41) 
41

>  <source_index>  (41) 
48

>  <paff>  (41) 
8.3680460529942664

>  <source_r_exp_dg>  (41) 
-11.414

>  <smiles>  (41) 
COc1ccc(Nc2nc(-c3cccc(C(=O)Nc4ccc(C(N)=O)cc4)c3)cn3ccnc23)cc1OC

>  <aimnet_interaction_kcal_mol>  (41) 
-125.32865651500356

$$$$
syk_042
     RDKit          3D

 67 71  0  0  1  0  0  0  0  0999 V2000
   -4.2557   -2.5265   13.1598 C   0  0  0  0  0  0  0  0  0  0  0  0
   -4.0918   -1.8646   14.4189 O   0  0  0  0  0  0  0  0  0  0  0  0
   -2.7361   -1.6997   14.7399 C   0  0  0  0  0  0  0  0  0  0  0  0
   -2.0406   -2.6338   15.4928 C   0  0  0  0  0  0  0  0  0  0  0  0
   -0.6902   -2.4630   15.7583 C   0  0  0  0  0  0  0  0  0  0  0  0
   -0.0056   -1.3544   15.2437 C   0  0  0  0  0  0  0  0  0  0  0  0
    1.3486   -1.2001   15.5549 N   0  0  0  0  0  0  0  0  0  0  0  0
    2.2757   -0.4408   14.9028 C   0  0  0  0  0  0  0  0  0  0  0  0
    1.9774    0.3633   13.9020 N   0  0  0  0  0  0  0  0  0  0  0  0
    2.9315    1.2143   13.4167 C   0  0  0  0  0  0  0  0  0  0  0  0
    4.2505    1.1213   13.7545 C   0  0  0  0  0  0  0  0  0  0  0  0
    4.5796    0.2636   14.7626 N   0  0  0  0  0  0  0  0  0  0  0  0
    5.7697    0.0347   15.4204 C   0  0  0  0  0  0  0  0  0  0  0  0
    5.4812   -0.8909   16.3965 C   0  0  0  0  0  0  0  0  0  0  0  0
    4.1566   -1.2550   16.3417 N   0  0  0  0  0  0  0  0  0  0  0  0
    3.6234   -0.5473   15.3679 C   0  0  0  0  0  0  0  0  0  0  0  0
    2.4880    2.3015   12.5366 C   0  0  0  0  0  0  0  0  0  0  0  0
    3.2926    3.4278   12.3509 C   0  0  0  0  0  0  0  0  0  0  0  0
    2.9129    4.4483   11.5009 C   0  0  0  0  0  0  0  0  0  0  0  0
    1.6649    4.4078   10.9194 C   0  0  0  0  0  0  0  0  0  0  0  0
    0.7796    3.3858   11.2436 C   0  0  0  0  0  0  0  0  0  0  0  0
    1.2347    2.2579   11.9219 C   0  0  0  0  0  0  0  0  0  0  0  0
   -0.6669    3.7187   11.1208 C   0  0  0  0  0  0  0  0  0  0  0  0
   -1.4565    3.2782   10.2978 O   0  0  0  0  0  0  0  0  0  0  0  0
   -1.0189    4.6323   12.0872 N   0  0  0  0  0  0  0  0  0  0  0  0
   -2.1865    5.3890   12.1553 C   0  0  0  0  0  0  0  0  0  0  0  0
   -2.8319    5.8833   11.0186 C   0  0  0  0  0  0  0  0  0  0  0  0
   -3.8121    6.8454   11.1698 C   0  0  0  0  0  0  0  0  0  0  0  0
   -4.2087    7.2994   12.4308 C   0  0  0  0  0  0  0  0  0  0  0  0
   -3.7192    6.6169   13.5473 C   0  0  0  0  0  0  0  0  0  0  0  0
   -2.6754    5.7266   13.4189 C   0  0  0  0  0  0  0  0  0  0  0  0
   -5.0049    8.5190   12.6456 C   0  0  0  0  0  0  0  0  0  0  0  0
   -5.2644    8.8930   13.8138 O   0  0  0  0  0  0  0  0  0  0  0  0
   -5.3604    9.1855   11.5238 N   0  0  0  0  0  0  0  0  0  0  0  0
   -6.2361   10.5190   11.7448 S   0  0  0  0  0  0  0  0  0  0  0  0
   -5.4555   11.7589   12.1438 O   0  0  0  0  0  0  0  0  0  0  0  0
   -7.4754   10.3653   12.6081 O   0  0  0  0  0  0  0  0  0  0  0  0
   -6.7993   10.7860   10.0505 C   0  0  0  0  0  0  0  0  0  0  0  0
   -0.7085   -0.4066   14.4874 C   0  0  0  0  0  0  0  0  0  0  0  0
   -2.0706   -0.5682   14.2837 C   0  0  0  0  0  0  0  0  0  0  0  0
   -2.8701    0.4015   13.6913 O   0  0  0  0  0  0  0  0  0  0  0  0
   -2.2166    1.2305   12.7264 C   0  0  0  0  0  0  0  0  0  0  0  0
   -5.3286   -2.6656   13.0049 H   0  0  0  0  0  0  0  0  0  0  0  0
   -3.7689   -3.5052   13.1872 H   0  0  0  0  0  0  0  0  0  0  0  0
   -3.8268   -1.9396   12.3481 H   0  0  0  0  0  0  0  0  0  0  0  0
   -2.5548   -3.4845   15.9172 H   0  0  0  0  0  0  0  0  0  0  0  0
   -0.1808   -3.1660   16.4013 H   0  0  0  0  0  0  0  0  0  0  0  0
    1.7170   -1.7310   16.3520 H   0  0  0  0  0  0  0  0  0  0  0  0
    5.0355    1.6991   13.3095 H   0  0  0  0  0  0  0  0  0  0  0  0
    6.6922    0.5187   15.1508 H   0  0  0  0  0  0  0  0  0  0  0  0
    6.1729   -1.3245   17.1048 H   0  0  0  0  0  0  0  0  0  0  0  0
    4.1883    3.5802   12.9342 H   0  0  0  0  0  0  0  0  0  0  0  0
    3.5471    5.3173   11.3953 H   0  0  0  0  0  0  0  0  0  0  0  0
    1.3489    5.2138   10.2713 H   0  0  0  0  0  0  0  0  0  0  0  0
    0.6360    1.3630   11.9930 H   0  0  0  0  0  0  0  0  0  0  0  0
   -0.3086    4.8341   12.7788 H   0  0  0  0  0  0  0  0  0  0  0  0
   -2.5300    5.5500   10.0349 H   0  0  0  0  0  0  0  0  0  0  0  0
   -4.2703    7.2754   10.2899 H   0  0  0  0  0  0  0  0  0  0  0  0
   -4.1223    6.8155   14.5282 H   0  0  0  0  0  0  0  0  0  0  0  0
   -2.1885    5.3221   14.2937 H   0  0  0  0  0  0  0  0  0  0  0  0
   -5.9241   10.8924    9.4175 H   0  0  0  0  0  0  0  0  0  0  0  0
   -7.4011   11.6905   10.0250 H   0  0  0  0  0  0  0  0  0  0  0  0
   -7.3857    9.9240    9.7476 H   0  0  0  0  0  0  0  0  0  0  0  0
   -0.1810    0.4365   14.0796 H   0  0  0  0  0  0  0  0  0  0  0  0
   -2.9829    1.7268   12.1378 H   0  0  0  0  0  0  0  0  0  0  0  0
   -1.6045    0.6197   12.0780 H   0  0  0  0  0  0  0  0  0  0  0  0
   -1.5961    1.9795   13.2108 H   0  0  0  0  0  0  0  0  0  0  0  0
  1  2  1  0
  1 43  1  0
  1 44  1  0
  1 45  1  0
  2  3  1  0
  3  4  2  0
  3 40  1  0
  4  5  1  0
  4 46  1  0
  5  6  2  0
  5 47  1  0
  6  7  1  0
  6 39  1  0
  7  8  1  0
  7 48  1  0
  8  9  2  0
  8 16  1  0
  9 10  1  0
 10 11  2  0
 10 17  1  0
 11 12  1  0
 11 49  1  0
 12 13  1  0
 12 16  1  0
 13 14  2  0
 13 50  1  0
 14 15  1  0
 14 51  1  0
 15 16  2  0
 17 18  2  0
 17 22  1  0
 18 19  1  0
 18 52  1  0
 19 20  2  0
 19 53  1  0
 20 21  1  0
 20 54  1  0
 21 22  2  0
 21 23  1  0
 22 55  1  0
 23 24  2  0
 23 25  1  0
 25 26  1  0
 25 56  1  0
 26 27  2  0
 26 31  1  0
 27 28  1  0
 27 57  1  0
 28 29  2  0
 28 58  1  0
 29 30  1  0
 29 32  1  0
 30 31  2  0
 30 59  1  0
 31 60  1  0
 32 33  1  0
 32 34  2  0
 34 35  1  0
 35 36  2  0
 35 37  2  0
 35 38  1  0
 38 61  1  0
 38 62  1  0
 38 63  1  0
 39 40  2  0
 39 64  1  0
 40 41  1  0
 41 42  1  0
 42 65  1  0
 42 66  1  0
 42 67  1  0
M  CHG  1  33  -1
M  END
>  <r_exp_dg>  (42) 
-11.8111

>  <mol_id>  (42) 
42

>  <source_index>  (42) 
49

>  <paff>  (42) 
8.6591446504564917

>  <source_r_exp_dg>  (42) 
-11.8111

>  <smiles>  (42) 
COc1ccc(Nc2nc(-c3cccc(C(=O)Nc4ccc(/C(O)=N/S(C)(=O)=O)cc4)c3)cn3ccnc23)cc1OC

>  <aimnet_interaction_kcal_mol>  (42) 
-252.48483527715661

$$$$
syk_043
     RDKit          3D

 65 70  0  0  1  0  0  0  0  0999 V2000
   -4.2619   -2.5548   13.1625 C   0  0  0  0  0  0  0  0  0  0  0  0
   -4.1069   -1.8893   14.4210 O   0  0  0  0  0  0  0  0  0  0  0  0
   -2.7537   -1.7166   14.7458 C   0  0  0  0  0  0  0  0  0  0  0  0
   -2.0508   -2.6474   15.4966 C   0  0  0  0  0  0  0  0  0  0  0  0
   -0.7015   -2.4673   15.7619 C   0  0  0  0  0  0  0  0  0  0  0  0
   -0.0241   -1.3547   15.2459 C   0  0  0  0  0  0  0  0  0  0  0  0
    1.3311   -1.1934   15.5487 N   0  0  0  0  0  0  0  0  0  0  0  0
    2.2485   -0.4219   14.8972 C   0  0  0  0  0  0  0  0  0  0  0  0
    1.9343    0.3978   13.9133 N   0  0  0  0  0  0  0  0  0  0  0  0
    2.8759    1.2618   13.4292 C   0  0  0  0  0  0  0  0  0  0  0  0
    4.2003    1.1635   13.7462 C   0  0  0  0  0  0  0  0  0  0  0  0
    4.5466    0.2899   14.7343 N   0  0  0  0  0  0  0  0  0  0  0  0
    5.7490    0.0470   15.3640 C   0  0  0  0  0  0  0  0  0  0  0  0
    5.4808   -0.9004   16.3262 C   0  0  0  0  0  0  0  0  0  0  0  0
    4.1533   -1.2582   16.2942 N   0  0  0  0  0  0  0  0  0  0  0  0
    3.6019   -0.5322   15.3438 C   0  0  0  0  0  0  0  0  0  0  0  0
    2.4139    2.3644   12.5735 C   0  0  0  0  0  0  0  0  0  0  0  0
    3.2194    3.4860   12.3710 C   0  0  0  0  0  0  0  0  0  0  0  0
    2.8150    4.5207   11.5501 C   0  0  0  0  0  0  0  0  0  0  0  0
    1.5501    4.4991   11.0084 C   0  0  0  0  0  0  0  0  0  0  0  0
    0.6718    3.4695   11.3330 C   0  0  0  0  0  0  0  0  0  0  0  0
    1.1433    2.3375   11.9973 C   0  0  0  0  0  0  0  0  0  0  0  0
   -0.7710    3.7530   11.1618 C   0  0  0  0  0  0  0  0  0  0  0  0
   -1.5301    3.2118   10.3708 O   0  0  0  0  0  0  0  0  0  0  0  0
   -1.1959    4.7474   12.0272 N   0  0  0  0  0  0  0  0  0  0  0  0
   -2.4951    5.2226   12.1538 C   0  0  0  0  0  0  0  0  0  0  0  0
   -3.3776    5.2499   11.0727 C   0  0  0  0  0  0  0  0  0  0  0  0
   -4.6676    5.6990   11.2479 C   0  0  0  0  0  0  0  0  0  0  0  0
   -5.1517    6.1236   12.4921 C   0  0  0  0  0  0  0  0  0  0  0  0
   -4.2625    6.0918   13.5709 C   0  0  0  0  0  0  0  0  0  0  0  0
   -2.9533    5.6791   13.3936 C   0  0  0  0  0  0  0  0  0  0  0  0
   -6.5505    6.5112   12.6118 C   0  0  0  0  0  0  0  0  0  0  0  0
   -7.6225    6.0485   11.8075 C   0  0  0  0  0  0  0  0  0  0  0  0
   -8.7466    6.6847   12.2747 C   0  0  0  0  0  0  0  0  0  0  0  0
   -8.3412    7.4612   13.3068 N   0  0  0  0  0  0  0  0  0  0  0  0
   -6.9957    7.3938   13.5211 N   0  0  0  0  0  0  0  0  0  0  0  0
   -0.7354   -0.4091   14.4951 C   0  0  0  0  0  0  0  0  0  0  0  0
   -2.0967   -0.5784   14.2958 C   0  0  0  0  0  0  0  0  0  0  0  0
   -2.9060    0.3927   13.7157 O   0  0  0  0  0  0  0  0  0  0  0  0
   -2.2624    1.2389   12.7633 C   0  0  0  0  0  0  0  0  0  0  0  0
   -5.3335   -2.6967   13.0031 H   0  0  0  0  0  0  0  0  0  0  0  0
   -3.7718   -3.5315   13.1948 H   0  0  0  0  0  0  0  0  0  0  0  0
   -3.8311   -1.9676   12.3517 H   0  0  0  0  0  0  0  0  0  0  0  0
   -2.5587   -3.5026   15.9193 H   0  0  0  0  0  0  0  0  0  0  0  0
   -0.1874   -3.1669   16.4048 H   0  0  0  0  0  0  0  0  0  0  0  0
    1.7093   -1.7295   16.3375 H   0  0  0  0  0  0  0  0  0  0  0  0
    4.9801    1.7456   13.2979 H   0  0  0  0  0  0  0  0  0  0  0  0
    6.6661    0.5383   15.0894 H   0  0  0  0  0  0  0  0  0  0  0  0
    6.1916   -1.3516   17.0074 H   0  0  0  0  0  0  0  0  0  0  0  0
    4.1408    3.6205   12.9161 H   0  0  0  0  0  0  0  0  0  0  0  0
    3.4579    5.3802   11.4268 H   0  0  0  0  0  0  0  0  0  0  0  0
    1.2297    5.3061   10.3636 H   0  0  0  0  0  0  0  0  0  0  0  0
    0.5479    1.4424   12.0809 H   0  0  0  0  0  0  0  0  0  0  0  0
   -0.5028    5.0957   12.6742 H   0  0  0  0  0  0  0  0  0  0  0  0
   -3.0442    4.9219   10.1023 H   0  0  0  0  0  0  0  0  0  0  0  0
   -5.3228    5.7304   10.3873 H   0  0  0  0  0  0  0  0  0  0  0  0
   -4.5917    6.3612   14.5671 H   0  0  0  0  0  0  0  0  0  0  0  0
   -2.2661    5.6738   14.2291 H   0  0  0  0  0  0  0  0  0  0  0  0
   -7.5833    5.3399   10.9998 H   0  0  0  0  0  0  0  0  0  0  0  0
   -9.7783    6.6366   11.9648 H   0  0  0  0  0  0  0  0  0  0  0  0
   -8.8620    8.2010   13.7427 H   0  0  0  0  0  0  0  0  0  0  0  0
   -0.2149    0.4398   14.0917 H   0  0  0  0  0  0  0  0  0  0  0  0
   -3.0331    1.7326   12.1793 H   0  0  0  0  0  0  0  0  0  0  0  0
   -1.6411    0.6450   12.1092 H   0  0  0  0  0  0  0  0  0  0  0  0
   -1.6528    1.9919   13.2564 H   0  0  0  0  0  0  0  0  0  0  0  0
  1  2  1  0
  1 41  1  0
  1 42  1  0
  1 43  1  0
  2  3  1  0
  3  4  2  0
  3 38  1  0
  4  5  1  0
  4 44  1  0
  5  6  2  0
  5 45  1  0
  6  7  1  0
  6 37  1  0
  7  8  1  0
  7 46  1  0
  8  9  2  0
  8 16  1  0
  9 10  1  0
 10 11  2  0
 10 17  1  0
 11 12  1  0
 11 47  1  0
 12 13  1  0
 12 16  1  0
 13 14  2  0
 13 48  1  0
 14 15  1  0
 14 49  1  0
 15 16  2  0
 17 18  2  0
 17 22  1  0
 18 19  1  0
 18 50  1  0
 19 20  2  0
 19 51  1  0
 20 21  1  0
 20 52  1  0
 21 22  2  0
 21 23  1  0
 22 53  1  0
 23 24  2  0
 23 25  1  0
 25 26  1  0
 25 54  1  0
 26 27  2  0
 26 31  1  0
 27 28  1  0
 27 55  1  0
 28 29  2  0
 28 56  1  0
 29 30  1  0
 29 32  1  0
 30 31  2  0
 30 57  1  0
 31 58  1  0
 32 36  2  0
 32 33  1  0
 33 34  2  0
 33 59  1  0
 34 35  1  0
 34 60  1  0
 35 36  1  0
 35 61  1  0
 37 38  2  0
 37 62  1  0
 38 39  1  0
 39 40  1  0
 40 63  1  0
 40 64  1  0
 40 65  1  0
M  END
>  <r_exp_dg>  (43) 
-10.821

>  <mol_id>  (43) 
43

>  <source_index>  (43) 
51

>  <paff>  (43) 
7.933249571456237

>  <source_r_exp_dg>  (43) 
-10.821

>  <smiles>  (43) 
COc1ccc(Nc2nc(-c3cccc(C(=O)Nc4ccc(-c5cc[nH]n5)cc4)c3)cn3ccnc23)cc1OC

>  <aimnet_interaction_kcal_mol>  (43) 
-115.33952274188135

$$$$
