L4:O00767:6702
     RDKit          3D

 47 50  0  0  0  0  0  0  0  0999 V2000
   21.7052   68.3278   45.8687 N   0  0  0  0  0  0  0  0  0  0  0  0
   23.1399   68.1840   46.1314 C   0  0  0  0  0  0  0  0  0  0  0  0
   23.3845   67.3017   47.3540 C   0  0  0  0  0  0  0  0  0  0  0  0
   22.6126   67.7764   48.5941 C   0  0  0  0  0  0  0  0  0  0  0  0
   21.1250   67.8794   48.2256 C   0  0  0  0  0  0  0  0  0  0  0  0
   20.8741   68.7556   46.9979 C   0  0  0  0  0  0  0  0  0  0  0  0
   20.0612   69.4961   43.1328 C   0  0  0  0  0  0  0  0  0  0  0  0
   20.0787   69.2366   44.4213 N   0  0  0  0  0  0  0  0  0  0  0  0
   21.3362   68.7296   44.6205 C   0  0  0  0  0  0  0  0  0  0  0  0
   22.0791   68.6881   43.5036 N   0  0  0  0  0  0  0  0  0  0  0  0
   21.2393   69.1901   42.5187 O   0  0  0  0  0  0  0  0  0  0  0  0
   18.2638   70.8131   38.9241 C   0  0  0  0  0  0  0  0  0  0  0  0
   18.0434   70.7024   40.3547 N   0  0  0  0  0  0  0  0  0  0  0  0
   19.0948   70.1744   41.0767 N   0  0  0  0  0  0  0  0  0  0  0  0
   18.9656   70.0500   42.3654 C   0  0  0  0  0  0  0  0  0  0  0  0
   17.7354   70.4518   43.0932 C   0  0  0  0  0  0  0  0  0  0  0  0
   16.7313   70.9595   42.3770 C   0  0  0  0  0  0  0  0  0  0  0  0
   16.8423   71.1151   40.9124 C   0  0  0  0  0  0  0  0  0  0  0  0
   15.8919   71.5864   40.2953 O   0  0  0  0  0  0  0  0  0  0  0  0
   23.1352   69.1075   49.1776 C   0  0  0  0  0  0  0  0  0  0  0  0
   23.9088   68.9454   50.4661 C   0  0  0  0  0  0  0  0  0  0  0  0
   24.8096   69.9380   50.8867 C   0  0  0  0  0  0  0  0  0  0  0  0
   25.5276   69.7868   52.0761 C   0  0  0  0  0  0  0  0  0  0  0  0
   25.3456   68.6453   52.8486 C   0  0  0  0  0  0  0  0  0  0  0  0
   26.0370   68.5057   53.9881 F   0  0  0  0  0  0  0  0  0  0  0  0
   24.4551   67.6598   52.4443 C   0  0  0  0  0  0  0  0  0  0  0  0
   24.2793   66.5607   53.1909 F   0  0  0  0  0  0  0  0  0  0  0  0
   23.7357   67.8018   51.2608 C   0  0  0  0  0  0  0  0  0  0  0  0
   23.5625   69.1512   46.3072 H   0  0  0  0  0  0  0  0  0  0  0  0
   23.5988   67.7245   45.2810 H   0  0  0  0  0  0  0  0  0  0  0  0
   24.4307   67.3106   47.5783 H   0  0  0  0  0  0  0  0  0  0  0  0
   23.0381   66.3177   47.1159 H   0  0  0  0  0  0  0  0  0  0  0  0
   22.7607   67.0565   49.3717 H   0  0  0  0  0  0  0  0  0  0  0  0
   20.5958   68.2968   49.0566 H   0  0  0  0  0  0  0  0  0  0  0  0
   20.7840   66.8928   47.9904 H   0  0  0  0  0  0  0  0  0  0  0  0
   21.1078   69.7715   47.2393 H   0  0  0  0  0  0  0  0  0  0  0  0
   19.8454   68.6640   46.7181 H   0  0  0  0  0  0  0  0  0  0  0  0
   19.2404   70.4475   38.6843 H   0  0  0  0  0  0  0  0  0  0  0  0
   18.1845   71.8386   38.6293 H   0  0  0  0  0  0  0  0  0  0  0  0
   17.5289   70.2347   38.4042 H   0  0  0  0  0  0  0  0  0  0  0  0
   17.6600   70.3422   44.1166 H   0  0  0  0  0  0  0  0  0  0  0  0
   15.8628   71.2483   42.8538 H   0  0  0  0  0  0  0  0  0  0  0  0
   22.2973   69.7460   49.3650 H   0  0  0  0  0  0  0  0  0  0  0  0
   23.8108   69.5201   48.4577 H   0  0  0  0  0  0  0  0  0  0  0  0
   24.9422   70.7854   50.3129 H   0  0  0  0  0  0  0  0  0  0  0  0
   26.1893   70.5184   52.3793 H   0  0  0  0  0  0  0  0  0  0  0  0
   23.0746   67.0655   50.9677 H   0  0  0  0  0  0  0  0  0  0  0  0
  1  2  1  0
  2  3  1  0
  2 29  1  0
  2 30  1  0
  3  4  1  0
  3 31  1  0
  3 32  1  0
  4 20  1  0
  4  5  1  0
  4 33  1  0
  5  6  1  0
  5 34  1  0
  5 35  1  0
  6  1  1  0
  6 36  1  0
  6 37  1  0
  7  8  2  0
  8  9  1  0
  9  1  1  0
  9 10  2  0
 10 11  1  0
 11  7  1  0
 12 13  1  0
 12 38  1  0
 12 39  1  0
 12 40  1  0
 13 14  1  0
 14 15  2  0
 15  7  1  0
 15 16  1  0
 16 17  2  0
 16 41  1  0
 17 18  1  0
 17 42  1  0
 18 19  2  0
 18 13  1  0
 20 21  1  0
 20 43  1  0
 20 44  1  0
 21 22  2  0
 22 23  1  0
 22 45  1  0
 23 24  2  0
 23 46  1  0
 24 25  1  0
 24 26  1  0
 26 27  1  0
 26 28  2  0
 28 21  1  0
 28 47  1  0
M  END
>  <minimizedAffinity>  (1) 
-9.03447

>  <mol_id>  (1) 
6702

>  <source_index>  (1) 
0

>  <layer>  (1) 
L4

>  <uniprot>  (1) 
O00767

>  <paff>  (1) 
6.0655000000000001

>  <smiles>  (1) 
Cn1nc(-c2nc(N3CCC(Cc4ccc(F)c(F)c4)CC3)no2)ccc1=O

$$$$
L4:O00767:41603
     RDKit          3D

 47 49  0  0  0  0  0  0  0  0999 V2000
   13.7877   63.0513   43.3476 N   0  0  0  0  0  0  0  0  0  0  0  0
   13.1497   63.3322   42.1536 C   0  0  0  0  0  0  0  0  0  0  0  0
   13.6271   63.0691   41.0534 O   0  0  0  0  0  0  0  0  0  0  0  0
   11.8688   63.8808   42.3062 N   0  0  0  0  0  0  0  0  0  0  0  0
   11.1377   64.1505   41.0686 C   0  0  0  0  0  0  0  0  0  0  0  0
    9.6296   64.1960   41.2933 C   0  0  0  0  0  0  0  0  0  0  0  0
    9.2527   65.1755   42.4073 C   0  0  0  0  0  0  0  0  0  0  0  0
   10.0367   64.8297   43.6777 C   0  0  0  0  0  0  0  0  0  0  0  0
   11.5392   64.7768   43.4194 C   0  0  0  0  0  0  0  0  0  0  0  0
   13.1830   62.8535   44.1279 H   0  0  0  0  0  0  0  0  0  0  0  0
   16.7152   60.4750   45.8690 C   0  0  0  0  0  0  0  0  0  0  0  0
   16.5642   61.5015   44.8558 N   0  0  0  0  0  0  0  0  0  0  0  0
   15.2667   61.8478   44.5414 N   0  0  0  0  0  0  0  0  0  0  0  0
   15.0938   62.7351   43.6170 C   0  0  0  0  0  0  0  0  0  0  0  0
   16.1715   63.4182   42.8885 C   0  0  0  0  0  0  0  0  0  0  0  0
   17.4181   63.0552   43.1953 C   0  0  0  0  0  0  0  0  0  0  0  0
   17.6835   62.0253   44.2213 C   0  0  0  0  0  0  0  0  0  0  0  0
   18.8462   61.7055   44.4541 O   0  0  0  0  0  0  0  0  0  0  0  0
    9.5976   66.5180   42.0447 O   0  0  0  0  0  0  0  0  0  0  0  0
    8.6617   67.5062   42.1498 C   0  0  0  0  0  0  0  0  0  0  0  0
    7.5389   67.5033   42.9775 C   0  0  0  0  0  0  0  0  0  0  0  0
    6.6574   68.5927   42.9771 C   0  0  0  0  0  0  0  0  0  0  0  0
    6.8882   69.6980   42.1465 C   0  0  0  0  0  0  0  0  0  0  0  0
    8.0093   69.6838   41.3239 C   0  0  0  0  0  0  0  0  0  0  0  0
    8.2589   70.7227   40.5161 F   0  0  0  0  0  0  0  0  0  0  0  0
    8.8889   68.6045   41.3191 C   0  0  0  0  0  0  0  0  0  0  0  0
    5.9703   70.8825   42.1164 C   0  0  0  0  0  0  0  0  0  0  0  0
    6.5870   72.0406   42.4929 F   0  0  0  0  0  0  0  0  0  0  0  0
    5.4604   71.1292   40.8786 F   0  0  0  0  0  0  0  0  0  0  0  0
    4.9042   70.7509   42.9522 F   0  0  0  0  0  0  0  0  0  0  0  0
   11.3584   63.3781   40.3618 H   0  0  0  0  0  0  0  0  0  0  0  0
   11.4464   65.1082   40.7047 H   0  0  0  0  0  0  0  0  0  0  0  0
    9.2893   63.2177   41.5619 H   0  0  0  0  0  0  0  0  0  0  0  0
    9.1671   64.5274   40.3871 H   0  0  0  0  0  0  0  0  0  0  0  0
    8.1975   65.1001   42.5678 H   0  0  0  0  0  0  0  0  0  0  0  0
    9.7129   63.8746   44.0353 H   0  0  0  0  0  0  0  0  0  0  0  0
    9.8505   65.5949   44.4021 H   0  0  0  0  0  0  0  0  0  0  0  0
   12.0305   64.4266   44.3031 H   0  0  0  0  0  0  0  0  0  0  0  0
   11.8675   65.7621   43.1619 H   0  0  0  0  0  0  0  0  0  0  0  0
   15.7514   60.1973   46.2418 H   0  0  0  0  0  0  0  0  0  0  0  0
   17.3133   60.8519   46.6722 H   0  0  0  0  0  0  0  0  0  0  0  0
   17.1923   59.6184   45.4406 H   0  0  0  0  0  0  0  0  0  0  0  0
   15.9747   64.1400   42.1777 H   0  0  0  0  0  0  0  0  0  0  0  0
   18.2107   63.5013   42.7077 H   0  0  0  0  0  0  0  0  0  0  0  0
    7.3565   66.6952   43.5930 H   0  0  0  0  0  0  0  0  0  0  0  0
    5.8304   68.5811   43.5943 H   0  0  0  0  0  0  0  0  0  0  0  0
    9.7131   68.6167   40.6981 H   0  0  0  0  0  0  0  0  0  0  0  0
  1  2  1  0
  1 10  1  0
  2  3  2  0
  2  4  1  0
  4  5  1  0
  5  6  1  0
  5 31  1  0
  5 32  1  0
  6  7  1  0
  6 33  1  0
  6 34  1  0
  7 19  1  0
  7  8  1  0
  7 35  1  0
  8  9  1  0
  8 36  1  0
  8 37  1  0
  9  4  1  0
  9 38  1  0
  9 39  1  0
 11 12  1  0
 11 40  1  0
 11 41  1  0
 11 42  1  0
 12 13  1  0
 13 14  2  0
 14  1  1  0
 14 15  1  0
 15 16  2  0
 15 43  1  0
 16 17  1  0
 16 44  1  0
 17 18  2  0
 17 12  1  0
 19 20  1  0
 20 21  2  0
 21 22  1  0
 21 45  1  0
 22 23  2  0
 22 46  1  0
 23 27  1  0
 23 24  1  0
 24 25  1  0
 24 26  2  0
 26 20  1  0
 26 47  1  0
 27 28  1  0
 27 29  1  0
 27 30  1  0
M  END
>  <minimizedAffinity>  (2) 
-7.35567

>  <mol_id>  (2) 
41603

>  <source_index>  (2) 
1

>  <layer>  (2) 
L4

>  <uniprot>  (2) 
O00767

>  <paff>  (2) 
7.1548999999999996

>  <smiles>  (2) 
Cn1nc(NC(=O)N2CCC(Oc3ccc(C(F)(F)F)c(F)c3)CC2)ccc1=O

$$$$
L4:O00767:50261
     RDKit          3D

 46 48  0  0  0  0  0  0  0  0999 V2000
   21.3449   69.5629   53.3978 N   0  0  0  0  0  0  0  0  0  0  0  0
   21.6290   68.3087   52.8832 C   0  0  0  0  0  0  0  0  0  0  0  0
   21.4124   67.2655   53.4940 O   0  0  0  0  0  0  0  0  0  0  0  0
   22.1974   68.3154   51.6096 N   0  0  0  0  0  0  0  0  0  0  0  0
   22.4789   69.5162   50.8220 C   0  0  0  0  0  0  0  0  0  0  0  0
   22.9647   69.2120   49.4051 C   0  0  0  0  0  0  0  0  0  0  0  0
   22.0791   68.1407   48.7547 C   0  0  0  0  0  0  0  0  0  0  0  0
   22.0491   66.8570   49.6133 C   0  0  0  0  0  0  0  0  0  0  0  0
   22.6113   67.0451   51.0231 C   0  0  0  0  0  0  0  0  0  0  0  0
   21.7728   70.3509   52.9453 H   0  0  0  0  0  0  0  0  0  0  0  0
   21.0285   72.6820   56.8176 C   0  0  0  0  0  0  0  0  0  0  0  0
   20.4735   71.4885   56.2090 N   0  0  0  0  0  0  0  0  0  0  0  0
   21.1140   71.0397   55.0733 N   0  0  0  0  0  0  0  0  0  0  0  0
   20.6697   69.9555   54.5250 C   0  0  0  0  0  0  0  0  0  0  0  0
   19.5269   69.1720   55.0123 C   0  0  0  0  0  0  0  0  0  0  0  0
   18.9355   69.6115   56.1246 C   0  0  0  0  0  0  0  0  0  0  0  0
   19.4123   70.8276   56.8145 C   0  0  0  0  0  0  0  0  0  0  0  0
   18.8558   71.1798   57.8510 O   0  0  0  0  0  0  0  0  0  0  0  0
   22.5303   67.8691   47.3068 C   0  0  0  0  0  0  0  0  0  0  0  0
   21.5472   68.3513   46.2670 C   0  0  0  0  0  0  0  0  0  0  0  0
   21.9548   68.5761   44.9448 C   0  0  0  0  0  0  0  0  0  0  0  0
   21.0358   69.0180   43.9940 C   0  0  0  0  0  0  0  0  0  0  0  0
   21.4439   69.2252   42.7352 F   0  0  0  0  0  0  0  0  0  0  0  0
   19.7094   69.2468   44.3276 C   0  0  0  0  0  0  0  0  0  0  0  0
   19.3066   69.0277   45.6364 C   0  0  0  0  0  0  0  0  0  0  0  0
   18.0302   69.2454   45.9785 F   0  0  0  0  0  0  0  0  0  0  0  0
   20.2066   68.5856   46.6048 C   0  0  0  0  0  0  0  0  0  0  0  0
   23.2343   70.0827   51.3253 H   0  0  0  0  0  0  0  0  0  0  0  0
   21.5604   70.0576   50.7319 H   0  0  0  0  0  0  0  0  0  0  0  0
   23.9736   68.8579   49.4467 H   0  0  0  0  0  0  0  0  0  0  0  0
   22.9130   70.1068   48.8207 H   0  0  0  0  0  0  0  0  0  0  0  0
   21.0745   68.5060   48.7076 H   0  0  0  0  0  0  0  0  0  0  0  0
   22.6269   66.1055   49.1170 H   0  0  0  0  0  0  0  0  0  0  0  0
   21.0218   66.5781   49.7217 H   0  0  0  0  0  0  0  0  0  0  0  0
   23.6799   67.0180   50.9757 H   0  0  0  0  0  0  0  0  0  0  0  0
   22.2320   66.2566   51.6390 H   0  0  0  0  0  0  0  0  0  0  0  0
   21.8320   73.0495   56.2141 H   0  0  0  0  0  0  0  0  0  0  0  0
   21.3953   72.4465   57.7948 H   0  0  0  0  0  0  0  0  0  0  0  0
   20.2678   73.4307   56.8930 H   0  0  0  0  0  0  0  0  0  0  0  0
   19.1987   68.3262   54.5203 H   0  0  0  0  0  0  0  0  0  0  0  0
   18.1308   69.0927   56.5098 H   0  0  0  0  0  0  0  0  0  0  0  0
   22.6609   66.8141   47.1854 H   0  0  0  0  0  0  0  0  0  0  0  0
   23.4398   68.4118   47.1544 H   0  0  0  0  0  0  0  0  0  0  0  0
   22.9375   68.4141   44.6745 H   0  0  0  0  0  0  0  0  0  0  0  0
   19.0362   69.5733   43.6168 H   0  0  0  0  0  0  0  0  0  0  0  0
   19.8853   68.4303   47.5731 H   0  0  0  0  0  0  0  0  0  0  0  0
  1  2  1  0
  1 10  1  0
  2  3  2  0
  2  4  1  0
  4  5  1  0
  5  6  1  0
  5 28  1  0
  5 29  1  0
  6  7  1  0
  6 30  1  0
  6 31  1  0
  7 19  1  0
  7  8  1  0
  7 32  1  0
  8  9  1  0
  8 33  1  0
  8 34  1  0
  9  4  1  0
  9 35  1  0
  9 36  1  0
 11 12  1  0
 11 37  1  0
 11 38  1  0
 11 39  1  0
 12 13  1  0
 13 14  2  0
 14  1  1  0
 14 15  1  0
 15 16  2  0
 15 40  1  0
 16 17  1  0
 16 41  1  0
 17 18  2  0
 17 12  1  0
 19 20  1  0
 19 42  1  0
 19 43  1  0
 20 21  2  0
 21 22  1  0
 21 44  1  0
 22 23  1  0
 22 24  2  0
 24 25  1  0
 24 45  1  0
 25 26  1  0
 25 27  2  0
 27 20  1  0
 27 46  1  0
M  END
>  <minimizedAffinity>  (3) 
-8.17504

>  <mol_id>  (3) 
50261

>  <source_index>  (3) 
2

>  <layer>  (3) 
L4

>  <uniprot>  (3) 
O00767

>  <paff>  (3) 
6.1675000000000004

>  <smiles>  (3) 
Cn1nc(NC(=O)N2CCC(Cc3cc(F)cc(F)c3)CC2)ccc1=O

$$$$
L4:O00767:77625
     RDKit          3D

 47 49  0  0  0  0  0  0  0  0999 V2000
   19.4215   69.8269   44.0237 N   0  0  0  0  0  0  0  0  0  0  0  0
   20.6471   69.1847   43.9827 C   0  0  0  0  0  0  0  0  0  0  0  0
   21.2773   68.9831   42.9468 O   0  0  0  0  0  0  0  0  0  0  0  0
   21.1416   68.7998   45.2288 N   0  0  0  0  0  0  0  0  0  0  0  0
   22.4992   68.2553   45.2844 C   0  0  0  0  0  0  0  0  0  0  0  0
   23.1708   68.5921   46.6061 C   0  0  0  0  0  0  0  0  0  0  0  0
   22.3894   68.0427   47.8084 C   0  0  0  0  0  0  0  0  0  0  0  0
   20.9119   67.7941   47.4879 C   0  0  0  0  0  0  0  0  0  0  0  0
   20.3756   68.8032   46.4795 C   0  0  0  0  0  0  0  0  0  0  0  0
   19.1238   70.1746   44.9214 H   0  0  0  0  0  0  0  0  0  0  0  0
   18.8074   70.4959   39.4706 C   0  0  0  0  0  0  0  0  0  0  0  0
   18.2140   70.5266   40.7923 N   0  0  0  0  0  0  0  0  0  0  0  0
   19.0390   70.1504   41.8333 N   0  0  0  0  0  0  0  0  0  0  0  0
   18.5533   70.2057   43.0309 C   0  0  0  0  0  0  0  0  0  0  0  0
   17.1941   70.6503   43.3686 C   0  0  0  0  0  0  0  0  0  0  0  0
   16.4201   71.0315   42.3496 C   0  0  0  0  0  0  0  0  0  0  0  0
   16.9175   71.0028   40.9589 C   0  0  0  0  0  0  0  0  0  0  0  0
   16.1799   71.3906   40.0545 O   0  0  0  0  0  0  0  0  0  0  0  0
   22.4464   69.0057   48.8820 O   0  0  0  0  0  0  0  0  0  0  0  0
   23.0137   68.4774   50.0103 C   0  0  0  0  0  0  0  0  0  0  0  0
   22.4181   67.3669   50.6011 C   0  0  0  0  0  0  0  0  0  0  0  0
   22.9985   66.7921   51.7309 C   0  0  0  0  0  0  0  0  0  0  0  0
   24.1832   67.3187   52.2529 C   0  0  0  0  0  0  0  0  0  0  0  0
   24.8019   68.4251   51.6467 C   0  0  0  0  0  0  0  0  0  0  0  0
   24.2102   68.9949   50.5072 C   0  0  0  0  0  0  0  0  0  0  0  0
   26.1034   68.9582   52.1915 C   0  0  0  0  0  0  0  0  0  0  0  0
   26.1542   68.9714   53.5540 F   0  0  0  0  0  0  0  0  0  0  0  0
   27.1822   68.2293   51.7884 F   0  0  0  0  0  0  0  0  0  0  0  0
   26.3461   70.2389   51.7957 F   0  0  0  0  0  0  0  0  0  0  0  0
   23.0752   68.6706   44.4840 H   0  0  0  0  0  0  0  0  0  0  0  0
   22.4421   67.1907   45.1940 H   0  0  0  0  0  0  0  0  0  0  0  0
   23.2398   69.6560   46.6966 H   0  0  0  0  0  0  0  0  0  0  0  0
   24.1398   68.1383   46.6080 H   0  0  0  0  0  0  0  0  0  0  0  0
   22.8392   67.1097   48.0769 H   0  0  0  0  0  0  0  0  0  0  0  0
   20.3435   67.8712   48.3912 H   0  0  0  0  0  0  0  0  0  0  0  0
   20.8233   66.8170   47.0609 H   0  0  0  0  0  0  0  0  0  0  0  0
   20.4255   69.7810   46.9111 H   0  0  0  0  0  0  0  0  0  0  0  0
   19.3675   68.5301   46.2471 H   0  0  0  0  0  0  0  0  0  0  0  0
   19.8004   70.1024   39.5345 H   0  0  0  0  0  0  0  0  0  0  0  0
   18.8420   71.4883   39.0720 H   0  0  0  0  0  0  0  0  0  0  0  0
   18.2180   69.8743   38.8294 H   0  0  0  0  0  0  0  0  0  0  0  0
   16.8552   70.6671   44.3432 H   0  0  0  0  0  0  0  0  0  0  0  0
   15.4571   71.3519   42.5369 H   0  0  0  0  0  0  0  0  0  0  0  0
   21.5513   66.9710   50.2049 H   0  0  0  0  0  0  0  0  0  0  0  0
   22.5532   65.9776   52.1819 H   0  0  0  0  0  0  0  0  0  0  0  0
   24.6073   66.8912   53.0910 H   0  0  0  0  0  0  0  0  0  0  0  0
   24.6605   69.7961   50.0378 H   0  0  0  0  0  0  0  0  0  0  0  0
  1  2  1  0
  1 10  1  0
  2  3  2  0
  2  4  1  0
  4  5  1  0
  5  6  1  0
  5 30  1  0
  5 31  1  0
  6  7  1  0
  6 32  1  0
  6 33  1  0
  7 19  1  0
  7  8  1  0
  7 34  1  0
  8  9  1  0
  8 35  1  0
  8 36  1  0
  9  4  1  0
  9 37  1  0
  9 38  1  0
 11 12  1  0
 11 39  1  0
 11 40  1  0
 11 41  1  0
 12 13  1  0
 13 14  2  0
 14  1  1  0
 14 15  1  0
 15 16  2  0
 15 42  1  0
 16 17  1  0
 16 43  1  0
 17 18  2  0
 17 12  1  0
 19 20  1  0
 20 21  2  0
 21 22  1  0
 21 44  1  0
 22 23  2  0
 22 45  1  0
 23 24  1  0
 23 46  1  0
 24 26  1  0
 24 25  2  0
 25 20  1  0
 25 47  1  0
 26 27  1  0
 26 28  1  0
 26 29  1  0
M  END
>  <minimizedAffinity>  (4) 
-9.39240

>  <mol_id>  (4) 
77625

>  <source_index>  (4) 
3

>  <layer>  (4) 
L4

>  <uniprot>  (4) 
O00767

>  <paff>  (4) 
7.6989999999999998

>  <smiles>  (4) 
Cn1nc(NC(=O)N2CCC(Oc3cccc(C(F)(F)F)c3)CC2)ccc1=O

$$$$
L4:O00767:78807
     RDKit          3D

 44 46  0  0  0  0  0  0  0  0999 V2000
   19.2640   69.5045   44.0794 N   0  0  0  0  0  0  0  0  0  0  0  0
   20.5808   69.0783   44.0164 C   0  0  0  0  0  0  0  0  0  0  0  0
   21.2472   69.0934   42.9850 O   0  0  0  0  0  0  0  0  0  0  0  0
   21.1108   68.6287   45.2283 N   0  0  0  0  0  0  0  0  0  0  0  0
   20.3481   68.4730   46.4702 C   0  0  0  0  0  0  0  0  0  0  0  0
   21.1844   67.9454   47.6277 C   0  0  0  0  0  0  0  0  0  0  0  0
   22.4980   68.7198   47.7157 C   0  0  0  0  0  0  0  0  0  0  0  0
   23.2947   68.6129   46.4065 C   0  0  0  0  0  0  0  0  0  0  0  0
   22.4700   68.0926   45.2317 C   0  0  0  0  0  0  0  0  0  0  0  0
   18.7848   69.4024   44.9559 H   0  0  0  0  0  0  0  0  0  0  0  0
   18.6739   70.5457   39.5993 C   0  0  0  0  0  0  0  0  0  0  0  0
   18.0942   70.5347   40.9280 N   0  0  0  0  0  0  0  0  0  0  0  0
   18.8909   70.0197   41.9283 N   0  0  0  0  0  0  0  0  0  0  0  0
   18.4217   70.0319   43.1336 C   0  0  0  0  0  0  0  0  0  0  0  0
   17.1017   70.5497   43.5183 C   0  0  0  0  0  0  0  0  0  0  0  0
   16.3580   71.0677   42.5390 C   0  0  0  0  0  0  0  0  0  0  0  0
   16.8482   71.1078   41.1458 C   0  0  0  0  0  0  0  0  0  0  0  0
   16.1454   71.6265   40.2822 O   0  0  0  0  0  0  0  0  0  0  0  0
   23.2682   68.1654   48.7981 O   0  0  0  0  0  0  0  0  0  0  0  0
   22.9031   68.7041   50.0054 C   0  0  0  0  0  0  0  0  0  0  0  0
   23.2271   70.0404   50.2502 C   0  0  0  0  0  0  0  0  0  0  0  0
   22.8976   70.6238   51.4742 C   0  0  0  0  0  0  0  0  0  0  0  0
   22.2634   69.8680   52.4606 C   0  0  0  0  0  0  0  0  0  0  0  0
   21.9652   68.5238   52.2280 C   0  0  0  0  0  0  0  0  0  0  0  0
   22.2914   67.9370   51.0031 C   0  0  0  0  0  0  0  0  0  0  0  0
   21.9233   66.2679   50.7679 Cl  0  0  0  0  0  0  0  0  0  0  0  0
   19.5448   67.7890   46.2920 H   0  0  0  0  0  0  0  0  0  0  0  0
   19.9960   69.4439   46.7500 H   0  0  0  0  0  0  0  0  0  0  0  0
   21.3940   66.9081   47.4700 H   0  0  0  0  0  0  0  0  0  0  0  0
   20.6404   68.0699   48.5406 H   0  0  0  0  0  0  0  0  0  0  0  0
   22.2895   69.7554   47.8857 H   0  0  0  0  0  0  0  0  0  0  0  0
   24.1172   67.9468   46.5641 H   0  0  0  0  0  0  0  0  0  0  0  0
   23.6156   69.6014   46.1521 H   0  0  0  0  0  0  0  0  0  0  0  0
   22.4190   67.0256   45.2928 H   0  0  0  0  0  0  0  0  0  0  0  0
   22.9494   68.4096   44.3291 H   0  0  0  0  0  0  0  0  0  0  0  0
   19.6288   70.0634   39.6228 H   0  0  0  0  0  0  0  0  0  0  0  0
   18.7930   71.5569   39.2705 H   0  0  0  0  0  0  0  0  0  0  0  0
   18.0278   70.0248   38.9239 H   0  0  0  0  0  0  0  0  0  0  0  0
   16.7675   70.5146   44.4940 H   0  0  0  0  0  0  0  0  0  0  0  0
   15.4237   71.4471   42.7586 H   0  0  0  0  0  0  0  0  0  0  0  0
   23.7097   70.5958   49.5266 H   0  0  0  0  0  0  0  0  0  0  0  0
   23.1233   71.6154   51.6500 H   0  0  0  0  0  0  0  0  0  0  0  0
   22.0145   70.3027   53.3629 H   0  0  0  0  0  0  0  0  0  0  0  0
   21.5035   67.9636   52.9615 H   0  0  0  0  0  0  0  0  0  0  0  0
  1  2  1  0
  1 10  1  0
  2  3  2  0
  2  4  1  0
  4  5  1  0
  5  6  1  0
  5 27  1  0
  5 28  1  0
  6  7  1  0
  6 29  1  0
  6 30  1  0
  7 19  1  0
  7  8  1  0
  7 31  1  0
  8  9  1  0
  8 32  1  0
  8 33  1  0
  9  4  1  0
  9 34  1  0
  9 35  1  0
 11 12  1  0
 11 36  1  0
 11 37  1  0
 11 38  1  0
 12 13  1  0
 13 14  2  0
 14  1  1  0
 14 15  1  0
 15 16  2  0
 15 39  1  0
 16 17  1  0
 16 40  1  0
 17 18  2  0
 17 12  1  0
 19 20  1  0
 20 21  2  0
 21 22  1  0
 21 41  1  0
 22 23  2  0
 22 42  1  0
 23 24  1  0
 23 43  1  0
 24 25  2  0
 24 44  1  0
 25 26  1  0
 25 20  1  0
M  END
>  <minimizedAffinity>  (5) 
-8.60527

>  <mol_id>  (5) 
78807

>  <source_index>  (5) 
4

>  <layer>  (5) 
L4

>  <uniprot>  (5) 
O00767

>  <paff>  (5) 
6.3768000000000002

>  <smiles>  (5) 
Cn1nc(NC(=O)N2CCC(Oc3ccccc3Cl)CC2)ccc1=O

$$$$
L4:O00767:95360
     RDKit          3D

 49 51  0  0  0  0  0  0  0  0999 V2000
   25.2156   66.3645   51.6160 N   0  0  0  0  0  0  0  0  0  0  0  0
   24.8866   67.6132   51.1264 C   0  0  0  0  0  0  0  0  0  0  0  0
   25.4644   68.6482   51.4427 O   0  0  0  0  0  0  0  0  0  0  0  0
   23.7239   67.6096   50.3332 N   0  0  0  0  0  0  0  0  0  0  0  0
   23.4637   66.5038   49.4081 C   0  0  0  0  0  0  0  0  0  0  0  0
   22.0136   66.4756   48.9315 C   0  0  0  0  0  0  0  0  0  0  0  0
   21.5465   67.8275   48.3672 C   0  0  0  0  0  0  0  0  0  0  0  0
   21.8221   68.9151   49.4179 C   0  0  0  0  0  0  0  0  0  0  0  0
   23.2748   68.9272   49.8839 C   0  0  0  0  0  0  0  0  0  0  0  0
   24.4216   65.7819   51.8168 H   0  0  0  0  0  0  0  0  0  0  0  0
   29.5538   64.8243   50.0085 C   0  0  0  0  0  0  0  0  0  0  0  0
   28.5747   65.1980   51.0753 C   0  0  0  0  0  0  0  0  0  0  0  0
   27.3303   65.6179   50.8201 C   0  0  0  0  0  0  0  0  0  0  0  0
   26.4750   65.9400   51.9759 C   0  0  0  0  0  0  0  0  0  0  0  0
   26.8477   65.8737   53.2075 N   0  0  0  0  0  0  0  0  0  0  0  0
   28.1334   65.4575   53.4651 N   0  0  0  0  0  0  0  0  0  0  0  0
   28.4783   65.3450   54.8699 C   0  0  0  0  0  0  0  0  0  0  0  0
   29.0439   65.0787   52.4870 C   0  0  0  0  0  0  0  0  0  0  0  0
   30.1807   64.6698   52.7152 O   0  0  0  0  0  0  0  0  0  0  0  0
   22.1985   68.1147   46.9965 C   0  0  0  0  0  0  0  0  0  0  0  0
   21.2268   68.6194   45.9569 C   0  0  0  0  0  0  0  0  0  0  0  0
   21.6300   68.7943   44.6256 C   0  0  0  0  0  0  0  0  0  0  0  0
   20.7241   69.2651   43.6761 C   0  0  0  0  0  0  0  0  0  0  0  0
   21.1274   69.4282   42.4093 F   0  0  0  0  0  0  0  0  0  0  0  0
   19.4148   69.5677   44.0190 C   0  0  0  0  0  0  0  0  0  0  0  0
   19.0153   69.3919   45.3353 C   0  0  0  0  0  0  0  0  0  0  0  0
   17.7544   69.6775   45.6853 F   0  0  0  0  0  0  0  0  0  0  0  0
   19.9023   68.9227   46.3029 C   0  0  0  0  0  0  0  0  0  0  0  0
   23.6805   65.5813   49.9050 H   0  0  0  0  0  0  0  0  0  0  0  0
   24.0876   66.6416   48.5498 H   0  0  0  0  0  0  0  0  0  0  0  0
   21.3867   66.2152   49.7586 H   0  0  0  0  0  0  0  0  0  0  0  0
   21.9474   65.7563   48.1421 H   0  0  0  0  0  0  0  0  0  0  0  0
   20.4936   67.8109   48.1773 H   0  0  0  0  0  0  0  0  0  0  0  0
   21.1921   68.7405   50.2650 H   0  0  0  0  0  0  0  0  0  0  0  0
   21.6199   69.8626   48.9637 H   0  0  0  0  0  0  0  0  0  0  0  0
   23.3704   69.6185   50.6950 H   0  0  0  0  0  0  0  0  0  0  0  0
   23.8833   69.2147   49.0521 H   0  0  0  0  0  0  0  0  0  0  0  0
   29.1005   64.9521   49.0477 H   0  0  0  0  0  0  0  0  0  0  0  0
   29.8439   63.8019   50.1329 H   0  0  0  0  0  0  0  0  0  0  0  0
   30.4176   65.4515   50.0816 H   0  0  0  0  0  0  0  0  0  0  0  0
   26.9834   65.7124   49.8527 H   0  0  0  0  0  0  0  0  0  0  0  0
   27.6567   65.6818   55.4669 H   0  0  0  0  0  0  0  0  0  0  0  0
   29.3388   65.9469   55.0752 H   0  0  0  0  0  0  0  0  0  0  0  0
   28.6937   64.3233   55.1036 H   0  0  0  0  0  0  0  0  0  0  0  0
   22.6394   67.2090   46.6356 H   0  0  0  0  0  0  0  0  0  0  0  0
   22.9223   68.8877   47.1499 H   0  0  0  0  0  0  0  0  0  0  0  0
   22.5992   68.5741   44.3479 H   0  0  0  0  0  0  0  0  0  0  0  0
   18.7516   69.9164   43.3094 H   0  0  0  0  0  0  0  0  0  0  0  0
   19.5833   68.7982   47.2764 H   0  0  0  0  0  0  0  0  0  0  0  0
  1  2  1  0
  1 10  1  0
  2  3  2  0
  2  4  1  0
  4  5  1  0
  5  6  1  0
  5 29  1  0
  5 30  1  0
  6  7  1  0
  6 31  1  0
  6 32  1  0
  7 20  1  0
  7  8  1  0
  7 33  1  0
  8  9  1  0
  8 34  1  0
  8 35  1  0
  9  4  1  0
  9 36  1  0
  9 37  1  0
 11 12  1  0
 11 38  1  0
 11 39  1  0
 11 40  1  0
 12 13  2  0
 13 14  1  0
 13 41  1  0
 14  1  1  0
 14 15  2  0
 15 16  1  0
 16 17  1  0
 16 18  1  0
 17 42  1  0
 17 43  1  0
 17 44  1  0
 18 19  2  0
 18 12  1  0
 20 21  1  0
 20 45  1  0
 20 46  1  0
 21 22  2  0
 22 23  1  0
 22 47  1  0
 23 24  1  0
 23 25  2  0
 25 26  1  0
 25 48  1  0
 26 27  1  0
 26 28  2  0
 28 21  1  0
 28 49  1  0
M  END
>  <minimizedAffinity>  (6) 
-8.62532

>  <mol_id>  (6) 
95360

>  <source_index>  (6) 
5

>  <layer>  (6) 
L4

>  <uniprot>  (6) 
O00767

>  <paff>  (6) 
7.3010000000000002

>  <smiles>  (6) 
Cc1cc(NC(=O)N2CCC(Cc3cc(F)cc(F)c3)CC2)nn(C)c1=O

$$$$
L4:O00767:96016
     RDKit          3D

 49 51  0  0  0  0  0  0  0  0999 V2000
   24.5518   66.8241   52.3396 N   0  0  0  0  0  0  0  0  0  0  0  0
   23.9792   67.9458   51.7717 C   0  0  0  0  0  0  0  0  0  0  0  0
   23.5821   68.9176   52.4081 O   0  0  0  0  0  0  0  0  0  0  0  0
   23.9911   67.9263   50.3697 N   0  0  0  0  0  0  0  0  0  0  0  0
   23.5114   69.1259   49.6841 C   0  0  0  0  0  0  0  0  0  0  0  0
   22.0371   68.9730   49.3007 C   0  0  0  0  0  0  0  0  0  0  0  0
   21.7725   67.6921   48.4792 C   0  0  0  0  0  0  0  0  0  0  0  0
   22.3818   66.4769   49.2132 C   0  0  0  0  0  0  0  0  0  0  0  0
   23.8504   66.6975   49.5864 C   0  0  0  0  0  0  0  0  0  0  0  0
   25.2550   66.3889   51.7683 H   0  0  0  0  0  0  0  0  0  0  0  0
   21.4551   64.8553   55.5567 C   0  0  0  0  0  0  0  0  0  0  0  0
   22.7767   65.4204   55.1420 C   0  0  0  0  0  0  0  0  0  0  0  0
   23.0363   65.8571   53.9014 C   0  0  0  0  0  0  0  0  0  0  0  0
   24.3873   66.3860   53.6395 C   0  0  0  0  0  0  0  0  0  0  0  0
   25.3285   66.4599   54.5184 N   0  0  0  0  0  0  0  0  0  0  0  0
   25.0623   65.9958   55.7881 N   0  0  0  0  0  0  0  0  0  0  0  0
   26.1706   66.0789   56.7223 C   0  0  0  0  0  0  0  0  0  0  0  0
   23.8376   65.4809   56.1906 C   0  0  0  0  0  0  0  0  0  0  0  0
   23.5882   65.0825   57.3259 O   0  0  0  0  0  0  0  0  0  0  0  0
   22.3045   67.7819   47.0292 C   0  0  0  0  0  0  0  0  0  0  0  0
   21.3165   68.3844   46.0578 C   0  0  0  0  0  0  0  0  0  0  0  0
   19.9888   68.6238   46.4511 C   0  0  0  0  0  0  0  0  0  0  0  0
   19.0714   69.1771   45.5560 C   0  0  0  0  0  0  0  0  0  0  0  0
   19.4797   69.4966   44.2662 C   0  0  0  0  0  0  0  0  0  0  0  0
   18.5969   70.0283   43.4127 F   0  0  0  0  0  0  0  0  0  0  0  0
   20.7902   69.2706   43.8703 C   0  0  0  0  0  0  0  0  0  0  0  0
   21.1894   69.5908   42.6311 F   0  0  0  0  0  0  0  0  0  0  0  0
   21.7105   68.7153   44.7537 C   0  0  0  0  0  0  0  0  0  0  0  0
   24.0911   69.2803   48.7981 H   0  0  0  0  0  0  0  0  0  0  0  0
   23.6120   69.9634   50.3424 H   0  0  0  0  0  0  0  0  0  0  0  0
   21.7436   69.8214   48.7185 H   0  0  0  0  0  0  0  0  0  0  0  0
   21.4701   68.9034   50.2054 H   0  0  0  0  0  0  0  0  0  0  0  0
   20.7121   67.5746   48.3979 H   0  0  0  0  0  0  0  0  0  0  0  0
   22.3141   65.6206   48.5752 H   0  0  0  0  0  0  0  0  0  0  0  0
   21.8323   66.3340   50.1201 H   0  0  0  0  0  0  0  0  0  0  0  0
   24.4342   66.7782   48.6934 H   0  0  0  0  0  0  0  0  0  0  0  0
   24.1917   65.8686   50.1707 H   0  0  0  0  0  0  0  0  0  0  0  0
   20.7851   64.8660   54.7225 H   0  0  0  0  0  0  0  0  0  0  0  0
   21.0472   65.4469   56.3495 H   0  0  0  0  0  0  0  0  0  0  0  0
   21.5878   63.8488   55.8947 H   0  0  0  0  0  0  0  0  0  0  0  0
   22.3195   65.8244   53.1597 H   0  0  0  0  0  0  0  0  0  0  0  0
   27.0219   66.4997   56.2292 H   0  0  0  0  0  0  0  0  0  0  0  0
   26.4123   65.0988   57.0771 H   0  0  0  0  0  0  0  0  0  0  0  0
   25.8944   66.6995   57.5491 H   0  0  0  0  0  0  0  0  0  0  0  0
   22.5468   66.7943   46.6962 H   0  0  0  0  0  0  0  0  0  0  0  0
   23.1584   68.4264   47.0480 H   0  0  0  0  0  0  0  0  0  0  0  0
   19.6892   68.3885   47.4102 H   0  0  0  0  0  0  0  0  0  0  0  0
   18.0969   69.3477   45.8498 H   0  0  0  0  0  0  0  0  0  0  0  0
   22.6821   68.5472   44.4493 H   0  0  0  0  0  0  0  0  0  0  0  0
  1  2  1  0
  1 10  1  0
  2  3  2  0
  2  4  1  0
  4  5  1  0
  5  6  1  0
  5 29  1  0
  5 30  1  0
  6  7  1  0
  6 31  1  0
  6 32  1  0
  7 20  1  0
  7  8  1  0
  7 33  1  0
  8  9  1  0
  8 34  1  0
  8 35  1  0
  9  4  1  0
  9 36  1  0
  9 37  1  0
 11 12  1  0
 11 38  1  0
 11 39  1  0
 11 40  1  0
 12 13  2  0
 13 14  1  0
 13 41  1  0
 14  1  1  0
 14 15  2  0
 15 16  1  0
 16 17  1  0
 16 18  1  0
 17 42  1  0
 17 43  1  0
 17 44  1  0
 18 19  2  0
 18 12  1  0
 20 21  1  0
 20 45  1  0
 20 46  1  0
 21 22  2  0
 22 23  1  0
 22 47  1  0
 23 24  2  0
 23 48  1  0
 24 25  1  0
 24 26  1  0
 26 27  1  0
 26 28  2  0
 28 21  1  0
 28 49  1  0
M  END
>  <minimizedAffinity>  (7) 
-8.28593

>  <mol_id>  (7) 
96016

>  <source_index>  (7) 
6

>  <layer>  (7) 
L4

>  <uniprot>  (7) 
O00767

>  <paff>  (7) 
6.5086000000000004

>  <smiles>  (7) 
Cc1cc(NC(=O)N2CCC(Cc3ccc(F)c(F)c3)CC2)nn(C)c1=O

$$$$
L4:O00767:130232
     RDKit          3D

 46 48  0  0  0  0  0  0  0  0999 V2000
    8.7118   68.4337   41.6679 N   0  0  0  0  0  0  0  0  0  0  0  0
    8.3126   67.1436   41.3576 C   0  0  0  0  0  0  0  0  0  0  0  0
    7.3258   66.8892   40.6726 O   0  0  0  0  0  0  0  0  0  0  0  0
    9.1300   66.1372   41.8770 N   0  0  0  0  0  0  0  0  0  0  0  0
    8.7435   64.7502   41.6390 C   0  0  0  0  0  0  0  0  0  0  0  0
    9.9404   63.8543   41.3141 C   0  0  0  0  0  0  0  0  0  0  0  0
   11.2040   64.1694   42.1419 C   0  0  0  0  0  0  0  0  0  0  0  0
   10.8584   65.0669   43.3365 C   0  0  0  0  0  0  0  0  0  0  0  0
   10.2022   66.3579   42.8503 C   0  0  0  0  0  0  0  0  0  0  0  0
    9.6122   68.5447   42.1005 H   0  0  0  0  0  0  0  0  0  0  0  0
    7.8659   71.6994   38.4828 C   0  0  0  0  0  0  0  0  0  0  0  0
    7.6887   71.2699   39.8571 N   0  0  0  0  0  0  0  0  0  0  0  0
    8.2501   70.0541   40.1837 N   0  0  0  0  0  0  0  0  0  0  0  0
    8.1457   69.6565   41.4103 C   0  0  0  0  0  0  0  0  0  0  0  0
    7.4913   70.4113   42.4871 C   0  0  0  0  0  0  0  0  0  0  0  0
    6.9612   71.5886   42.1513 C   0  0  0  0  0  0  0  0  0  0  0  0
    7.0473   72.0994   40.7681 C   0  0  0  0  0  0  0  0  0  0  0  0
    6.5670   73.2000   40.5107 O   0  0  0  0  0  0  0  0  0  0  0  0
   11.9403   62.8981   42.6081 C   0  0  0  0  0  0  0  0  0  0  0  0
   13.4479   63.0380   42.6135 C   0  0  0  0  0  0  0  0  0  0  0  0
   14.0977   63.4427   41.4340 C   0  0  0  0  0  0  0  0  0  0  0  0
   15.4846   63.6005   41.3951 C   0  0  0  0  0  0  0  0  0  0  0  0
   16.2461   63.3543   42.5334 C   0  0  0  0  0  0  0  0  0  0  0  0
   15.6209   62.9454   43.7099 C   0  0  0  0  0  0  0  0  0  0  0  0
   14.2320   62.7861   43.7523 C   0  0  0  0  0  0  0  0  0  0  0  0
   13.5371   62.2613   45.2459 Cl  0  0  0  0  0  0  0  0  0  0  0  0
    8.0601   64.7211   40.8162 H   0  0  0  0  0  0  0  0  0  0  0  0
    8.2952   64.3796   42.5371 H   0  0  0  0  0  0  0  0  0  0  0  0
   10.1787   63.9740   40.2779 H   0  0  0  0  0  0  0  0  0  0  0  0
    9.6525   62.8530   41.5580 H   0  0  0  0  0  0  0  0  0  0  0  0
   11.8755   64.6954   41.4959 H   0  0  0  0  0  0  0  0  0  0  0  0
   11.7541   65.3048   43.8713 H   0  0  0  0  0  0  0  0  0  0  0  0
   10.1778   64.5483   43.9789 H   0  0  0  0  0  0  0  0  0  0  0  0
   10.9531   66.9688   42.3944 H   0  0  0  0  0  0  0  0  0  0  0  0
    9.7606   66.8277   43.7042 H   0  0  0  0  0  0  0  0  0  0  0  0
    8.3764   70.9361   37.9336 H   0  0  0  0  0  0  0  0  0  0  0  0
    8.4431   72.6001   38.4622 H   0  0  0  0  0  0  0  0  0  0  0  0
    6.9090   71.8788   38.0390 H   0  0  0  0  0  0  0  0  0  0  0  0
    7.4441   70.0499   43.4526 H   0  0  0  0  0  0  0  0  0  0  0  0
    6.4824   72.1525   42.8709 H   0  0  0  0  0  0  0  0  0  0  0  0
   11.6775   62.0951   41.9516 H   0  0  0  0  0  0  0  0  0  0  0  0
   11.6388   62.7136   43.6180 H   0  0  0  0  0  0  0  0  0  0  0  0
   13.5413   63.6258   40.5844 H   0  0  0  0  0  0  0  0  0  0  0  0
   15.9452   63.8999   40.5215 H   0  0  0  0  0  0  0  0  0  0  0  0
   17.2708   63.4741   42.5065 H   0  0  0  0  0  0  0  0  0  0  0  0
   16.1853   62.7593   44.5536 H   0  0  0  0  0  0  0  0  0  0  0  0
  1  2  1  0
  1 10  1  0
  2  3  2  0
  2  4  1  0
  4  5  1  0
  5  6  1  0
  5 27  1  0
  5 28  1  0
  6  7  1  0
  6 29  1  0
  6 30  1  0
  7 19  1  0
  7  8  1  0
  7 31  1  0
  8  9  1  0
  8 32  1  0
  8 33  1  0
  9  4  1  0
  9 34  1  0
  9 35  1  0
 11 12  1  0
 11 36  1  0
 11 37  1  0
 11 38  1  0
 12 13  1  0
 13 14  2  0
 14  1  1  0
 14 15  1  0
 15 16  2  0
 15 39  1  0
 16 17  1  0
 16 40  1  0
 17 18  2  0
 17 12  1  0
 19 20  1  0
 19 41  1  0
 19 42  1  0
 20 21  2  0
 21 22  1  0
 21 43  1  0
 22 23  2  0
 22 44  1  0
 23 24  1  0
 23 45  1  0
 24 25  2  0
 24 46  1  0
 25 26  1  0
 25 20  1  0
M  END
>  <minimizedAffinity>  (8) 
-7.19413

>  <mol_id>  (8) 
130232

>  <source_index>  (8) 
7

>  <layer>  (8) 
L4

>  <uniprot>  (8) 
O00767

>  <paff>  (8) 
6.3564999999999996

>  <smiles>  (8) 
Cn1nc(NC(=O)N2CCC(Cc3ccccc3Cl)CC2)ccc1=O

$$$$
L4:O00767:131697
     RDKit          3D

 46 48  0  0  0  0  0  0  0  0999 V2000
   19.2574   69.4146   43.8499 N   0  0  0  0  0  0  0  0  0  0  0  0
   20.5901   69.0349   43.8522 C   0  0  0  0  0  0  0  0  0  0  0  0
   21.3100   69.0968   42.8593 O   0  0  0  0  0  0  0  0  0  0  0  0
   21.0636   68.5694   45.0792 N   0  0  0  0  0  0  0  0  0  0  0  0
   22.4492   68.1131   45.1654 C   0  0  0  0  0  0  0  0  0  0  0  0
   23.1835   68.7762   46.3298 C   0  0  0  0  0  0  0  0  0  0  0  0
   22.3808   68.7604   47.6481 C   0  0  0  0  0  0  0  0  0  0  0  0
   21.0700   67.9737   47.5072 C   0  0  0  0  0  0  0  0  0  0  0  0
   20.2696   68.4736   46.3052 C   0  0  0  0  0  0  0  0  0  0  0  0
   18.7084   69.1700   44.6544 H   0  0  0  0  0  0  0  0  0  0  0  0
   18.8413   70.5271   39.3658 C   0  0  0  0  0  0  0  0  0  0  0  0
   18.2270   70.5340   40.6794 N   0  0  0  0  0  0  0  0  0  0  0  0
   18.9709   69.9705   41.6942 N   0  0  0  0  0  0  0  0  0  0  0  0
   18.4714   69.9952   42.8875 C   0  0  0  0  0  0  0  0  0  0  0  0
   17.1692   70.5733   43.2433 C   0  0  0  0  0  0  0  0  0  0  0  0
   16.4756   71.1335   42.2506 C   0  0  0  0  0  0  0  0  0  0  0  0
   17.0009   71.1583   40.8702 C   0  0  0  0  0  0  0  0  0  0  0  0
   16.3408   71.7081   39.9926 O   0  0  0  0  0  0  0  0  0  0  0  0
   23.2205   68.3537   48.8782 C   0  0  0  0  0  0  0  0  0  0  0  0
   22.5192   68.3868   50.2174 C   0  0  0  0  0  0  0  0  0  0  0  0
   22.3780   67.2126   50.9745 C   0  0  0  0  0  0  0  0  0  0  0  0
   21.7283   67.2367   52.2102 C   0  0  0  0  0  0  0  0  0  0  0  0
   21.2101   68.4330   52.6943 C   0  0  0  0  0  0  0  0  0  0  0  0
   20.5891   68.4315   53.8835 F   0  0  0  0  0  0  0  0  0  0  0  0
   21.3303   69.6049   51.9533 C   0  0  0  0  0  0  0  0  0  0  0  0
   20.6846   71.0878   52.5433 Cl  0  0  0  0  0  0  0  0  0  0  0  0
   21.9794   69.5829   50.7164 C   0  0  0  0  0  0  0  0  0  0  0  0
   22.9529   68.3555   44.2530 H   0  0  0  0  0  0  0  0  0  0  0  0
   22.4458   67.0555   45.3281 H   0  0  0  0  0  0  0  0  0  0  0  0
   23.3860   69.7937   46.0680 H   0  0  0  0  0  0  0  0  0  0  0  0
   24.0797   68.2165   46.4984 H   0  0  0  0  0  0  0  0  0  0  0  0
   22.1025   69.7745   47.8456 H   0  0  0  0  0  0  0  0  0  0  0  0
   20.4867   68.1001   48.3953 H   0  0  0  0  0  0  0  0  0  0  0  0
   21.3022   66.9395   47.3612 H   0  0  0  0  0  0  0  0  0  0  0  0
   19.8820   69.4440   46.5353 H   0  0  0  0  0  0  0  0  0  0  0  0
   19.4922   67.7610   46.1240 H   0  0  0  0  0  0  0  0  0  0  0  0
   19.7739   70.0045   39.4109 H   0  0  0  0  0  0  0  0  0  0  0  0
   19.0118   71.5340   39.0465 H   0  0  0  0  0  0  0  0  0  0  0  0
   18.1915   70.0377   38.6707 H   0  0  0  0  0  0  0  0  0  0  0  0
   16.8095   70.5476   44.2102 H   0  0  0  0  0  0  0  0  0  0  0  0
   15.5560   71.5569   42.4507 H   0  0  0  0  0  0  0  0  0  0  0  0
   24.0577   69.0177   48.9337 H   0  0  0  0  0  0  0  0  0  0  0  0
   23.4758   67.3269   48.7186 H   0  0  0  0  0  0  0  0  0  0  0  0
   22.7580   66.3234   50.6142 H   0  0  0  0  0  0  0  0  0  0  0  0
   21.6330   66.3700   52.7622 H   0  0  0  0  0  0  0  0  0  0  0  0
   22.0627   70.4518   50.1658 H   0  0  0  0  0  0  0  0  0  0  0  0
  1  2  1  0
  1 10  1  0
  2  3  2  0
  2  4  1  0
  4  5  1  0
  5  6  1  0
  5 28  1  0
  5 29  1  0
  6  7  1  0
  6 30  1  0
  6 31  1  0
  7 19  1  0
  7  8  1  0
  7 32  1  0
  8  9  1  0
  8 33  1  0
  8 34  1  0
  9  4  1  0
  9 35  1  0
  9 36  1  0
 11 12  1  0
 11 37  1  0
 11 38  1  0
 11 39  1  0
 12 13  1  0
 13 14  2  0
 14  1  1  0
 14 15  1  0
 15 16  2  0
 15 40  1  0
 16 17  1  0
 16 41  1  0
 17 18  2  0
 17 12  1  0
 19 20  1  0
 19 42  1  0
 19 43  1  0
 20 21  2  0
 21 22  1  0
 21 44  1  0
 22 23  2  0
 22 45  1  0
 23 24  1  0
 23 25  1  0
 25 26  1  0
 25 27  2  0
 27 20  1  0
 27 46  1  0
M  END
>  <minimizedAffinity>  (9) 
-8.81922

>  <mol_id>  (9) 
131697

>  <source_index>  (9) 
8

>  <layer>  (9) 
L4

>  <uniprot>  (9) 
O00767

>  <paff>  (9) 
6.3564999999999996

>  <smiles>  (9) 
Cn1nc(NC(=O)N2CCC(Cc3ccc(F)c(Cl)c3)CC2)ccc1=O

$$$$
L4:O00767:138397
     RDKit          3D

 48 51  0  0  0  0  0  0  0  0999 V2000
   21.9144   68.2406   46.4870 N   0  0  0  0  0  0  0  0  0  0  0  0
   23.3706   68.3858   46.5760 C   0  0  0  0  0  0  0  0  0  0  0  0
   23.9453   67.4594   47.6461 C   0  0  0  0  0  0  0  0  0  0  0  0
   23.2607   67.6293   49.0104 C   0  0  0  0  0  0  0  0  0  0  0  0
   21.7478   67.4470   48.8171 C   0  0  0  0  0  0  0  0  0  0  0  0
   21.1693   68.3674   47.7418 C   0  0  0  0  0  0  0  0  0  0  0  0
   19.7430   69.4667   44.1417 C   0  0  0  0  0  0  0  0  0  0  0  0
   20.0315   69.1503   45.3928 N   0  0  0  0  0  0  0  0  0  0  0  0
   21.3145   68.6748   45.3433 C   0  0  0  0  0  0  0  0  0  0  0  0
   21.8370   68.6952   44.1127 N   0  0  0  0  0  0  0  0  0  0  0  0
   20.8232   69.2076   43.3229 O   0  0  0  0  0  0  0  0  0  0  0  0
   17.1895   71.2617   40.4451 C   0  0  0  0  0  0  0  0  0  0  0  0
   17.2165   70.8988   41.8539 N   0  0  0  0  0  0  0  0  0  0  0  0
   18.3884   70.3682   42.3787 C   0  0  0  0  0  0  0  0  0  0  0  0
   18.4981   70.0063   43.6719 C   0  0  0  0  0  0  0  0  0  0  0  0
   17.3322   70.1869   44.5241 C   0  0  0  0  0  0  0  0  0  0  0  0
   16.1868   70.6953   44.0526 C   0  0  0  0  0  0  0  0  0  0  0  0
   16.0730   71.0945   42.6259 C   0  0  0  0  0  0  0  0  0  0  0  0
   15.0134   71.5598   42.2181 O   0  0  0  0  0  0  0  0  0  0  0  0
   23.5762   68.9756   49.6984 C   0  0  0  0  0  0  0  0  0  0  0  0
   22.9596   69.1171   51.0696 C   0  0  0  0  0  0  0  0  0  0  0  0
   21.9797   70.0889   51.3172 C   0  0  0  0  0  0  0  0  0  0  0  0
   21.4152   70.2072   52.5863 C   0  0  0  0  0  0  0  0  0  0  0  0
   20.4796   71.1407   52.8034 F   0  0  0  0  0  0  0  0  0  0  0  0
   21.8049   69.3769   53.6265 C   0  0  0  0  0  0  0  0  0  0  0  0
   22.7765   68.4179   53.3824 C   0  0  0  0  0  0  0  0  0  0  0  0
   23.1663   67.6074   54.3750 F   0  0  0  0  0  0  0  0  0  0  0  0
   23.3562   68.2801   52.1220 C   0  0  0  0  0  0  0  0  0  0  0  0
   23.6072   69.3990   46.8257 H   0  0  0  0  0  0  0  0  0  0  0  0
   23.7991   68.1245   45.6310 H   0  0  0  0  0  0  0  0  0  0  0  0
   24.9880   67.6718   47.7580 H   0  0  0  0  0  0  0  0  0  0  0  0
   23.7776   66.4527   47.3246 H   0  0  0  0  0  0  0  0  0  0  0  0
   23.6498   66.8830   49.6711 H   0  0  0  0  0  0  0  0  0  0  0  0
   21.2576   67.6560   49.7450 H   0  0  0  0  0  0  0  0  0  0  0  0
   21.5844   66.4388   48.4981 H   0  0  0  0  0  0  0  0  0  0  0  0
   21.2252   69.3806   48.0812 H   0  0  0  0  0  0  0  0  0  0  0  0
   20.1519   68.0875   47.5643 H   0  0  0  0  0  0  0  0  0  0  0  0
   18.1406   71.0486   40.0036 H   0  0  0  0  0  0  0  0  0  0  0  0
   16.9781   72.3063   40.3499 H   0  0  0  0  0  0  0  0  0  0  0  0
   16.4300   70.6971   39.9458 H   0  0  0  0  0  0  0  0  0  0  0  0
   19.2029   70.2471   41.7566 H   0  0  0  0  0  0  0  0  0  0  0  0
   17.3898   69.9159   45.5182 H   0  0  0  0  0  0  0  0  0  0  0  0
   15.3784   70.8105   44.6837 H   0  0  0  0  0  0  0  0  0  0  0  0
   23.2068   69.7660   49.0789 H   0  0  0  0  0  0  0  0  0  0  0  0
   24.6375   69.0191   49.8273 H   0  0  0  0  0  0  0  0  0  0  0  0
   21.6756   70.7182   50.5579 H   0  0  0  0  0  0  0  0  0  0  0  0
   21.3808   69.4707   54.5626 H   0  0  0  0  0  0  0  0  0  0  0  0
   24.0787   67.5605   51.9634 H   0  0  0  0  0  0  0  0  0  0  0  0
  1  2  1  0
  2  3  1  0
  2 29  1  0
  2 30  1  0
  3  4  1  0
  3 31  1  0
  3 32  1  0
  4 20  1  0
  4  5  1  0
  4 33  1  0
  5  6  1  0
  5 34  1  0
  5 35  1  0
  6  1  1  0
  6 36  1  0
  6 37  1  0
  7  8  2  0
  8  9  1  0
  9  1  1  0
  9 10  2  0
 10 11  1  0
 11  7  1  0
 12 13  1  0
 12 38  1  0
 12 39  1  0
 12 40  1  0
 13 14  1  0
 14 15  2  0
 14 41  1  0
 15  7  1  0
 15 16  1  0
 16 17  2  0
 16 42  1  0
 17 18  1  0
 17 43  1  0
 18 19  2  0
 18 13  1  0
 20 21  1  0
 20 44  1  0
 20 45  1  0
 21 22  2  0
 22 23  1  0
 22 46  1  0
 23 24  1  0
 23 25  2  0
 25 26  1  0
 25 47  1  0
 26 27  1  0
 26 28  2  0
 28 21  1  0
 28 48  1  0
M  END
>  <minimizedAffinity>  (10) 
-8.97890

>  <mol_id>  (10) 
138397

>  <source_index>  (10) 
9

>  <layer>  (10) 
L4

>  <uniprot>  (10) 
O00767

>  <paff>  (10) 
6.1426999999999996

>  <smiles>  (10) 
Cn1cc(-c2nc(N3CCC(Cc4cc(F)cc(F)c4)CC3)no2)ccc1=O

$$$$
