L2:Q14145:1372
     RDKit          3D

 74 79  0  0  0  0  0  0  0  0999 V2000
    3.3493    0.8223  -21.3697 C   0  0  0  0  0  0  0  0  0  0  0  0
    3.5320   -0.4249  -21.9429 C   0  0  0  0  0  0  0  0  0  0  0  0
    2.6195   -1.4567  -21.7611 C   0  0  0  0  0  0  0  0  0  0  0  0
    1.4251   -1.2139  -21.0966 C   0  0  0  0  0  0  0  0  0  0  0  0
    1.2094    0.0345  -20.4922 C   0  0  0  0  0  0  0  0  0  0  0  0
    0.1531    0.4506  -19.6170 C   0  0  0  0  0  0  0  0  0  0  0  0
    0.2671    1.7366  -19.1950 C   0  0  0  0  0  0  0  0  0  0  0  0
    1.6678    2.5362  -19.8716 S   0  0  0  0  0  0  0  0  0  0  0  0
    2.1588    1.0608  -20.6909 C   0  0  0  0  0  0  0  0  0  0  0  0
    4.4439    1.8333  -21.3802 C   0  0  0  0  0  0  0  0  0  0  0  0
    4.9388    1.6778  -24.6431 C   0  0  2  0  0  0  0  0  0  0  0  0
    3.9457    2.4522  -23.7702 C   0  0  0  0  0  0  0  0  0  0  0  0
    4.3251    2.8559  -22.4168 N   0  0  0  0  0  0  0  0  0  0  0  0
    5.6220    3.9501  -22.3378 S   0  0  0  0  0  0  0  0  0  0  0  0
    5.9446    4.1013  -20.9038 O   0  0  0  0  0  0  0  0  0  0  0  0
    5.2720    5.0896  -23.1852 O   0  0  0  0  0  0  0  0  0  0  0  0
    7.0320    3.0687  -23.0404 C   0  0  0  0  0  0  0  0  0  0  0  0
    8.2556    3.7367  -22.9778 C   0  0  0  0  0  0  0  0  0  0  0  0
    9.4006    2.9553  -22.9500 C   0  0  0  0  0  0  0  0  0  0  0  0
   10.9733    3.6832  -22.7449 Cl  0  0  0  0  0  0  0  0  0  0  0  0
    9.2858    1.5733  -23.0186 C   0  0  0  0  0  0  0  0  0  0  0  0
    8.1183    0.9529  -23.2125 N   0  0  0  0  0  0  0  0  0  0  0  0
    7.0242    1.7010  -23.3813 C   0  0  0  0  0  0  0  0  0  0  0  0
    5.9563    1.0238  -23.8310 O   0  0  0  0  0  0  0  0  0  0  0  0
    6.4040    1.6978  -26.7048 C   0  0  0  0  0  0  0  0  0  0  0  0
    5.4853    2.4942  -25.7975 C   0  0  0  0  0  0  0  0  0  0  0  0
    3.0380   -2.8139  -22.2694 C   0  0  2  0  0  0  0  0  0  0  0  0
    3.5084   -2.9075  -23.6990 C   0  0  0  0  0  0  0  0  0  0  0  0
    4.6253   -3.7397  -23.9536 C   0  0  0  0  0  0  0  0  0  0  0  0
    5.1739   -3.8805  -25.2169 C   0  0  0  0  0  0  0  0  0  0  0  0
    4.6226   -3.0885  -26.2287 C   0  0  0  0  0  0  0  0  0  0  0  0
    3.5332   -2.2468  -25.9575 C   0  0  0  0  0  0  0  0  0  0  0  0
    3.3290   -1.4653  -27.0613 N   0  0  0  0  0  0  0  0  0  0  0  0
    4.1767   -1.8233  -27.9833 N   0  0  0  0  0  0  0  0  0  0  0  0
    4.9663   -2.8057  -27.5113 N   0  0  0  0  0  0  0  0  0  0  0  0
    5.8989   -3.4644  -28.4101 C   0  0  0  0  0  0  0  0  0  0  0  0
    2.8485   -2.2709  -24.7354 C   0  0  0  0  0  0  0  0  0  0  0  0
    1.4765   -1.6950  -24.6279 C   0  0  0  0  0  0  0  0  0  0  0  0
    6.1929   -4.6981  -25.5675 O   0  0  0  0  0  0  0  0  0  0  0  0
    6.8953   -5.3730  -24.5393 C   0  0  0  0  0  0  0  0  0  0  0  0
    1.9518   -3.8663  -22.0397 C   0  0  0  0  0  0  0  0  0  0  0  0
    2.0217   -4.4293  -20.6604 C   0  0  0  0  0  0  0  0  0  0  0  0
    3.0625   -4.8145  -20.1539 O   0  0  0  0  0  0  0  0  0  0  0  0
    0.8281   -4.4468  -20.0649 O   0  0  0  0  0  0  0  0  0  0  0  0
    0.7963   -4.9949  -19.2453 H   0  0  0  0  0  0  0  0  0  0  0  0
    4.4051   -0.6272  -22.5473 H   0  0  0  0  0  0  0  0  0  0  0  0
    0.6433   -1.9549  -21.0422 H   0  0  0  0  0  0  0  0  0  0  0  0
   -0.6585   -0.1897  -19.3128 H   0  0  0  0  0  0  0  0  0  0  0  0
   -0.3886    2.2850  -18.5442 H   0  0  0  0  0  0  0  0  0  0  0  0
    4.4546    2.3713  -20.4364 H   0  0  0  0  0  0  0  0  0  0  0  0
    5.4028    1.3182  -21.4559 H   0  0  0  0  0  0  0  0  0  0  0  0
    4.4170    0.8150  -25.0574 H   0  0  0  0  0  0  0  0  0  0  0  0
    3.0442    1.8617  -23.6639 H   0  0  0  0  0  0  0  0  0  0  0  0
    3.6683    3.3683  -24.2832 H   0  0  0  0  0  0  0  0  0  0  0  0
    8.2908    4.8207  -22.9618 H   0  0  0  0  0  0  0  0  0  0  0  0
   10.1626    0.9428  -22.9390 H   0  0  0  0  0  0  0  0  0  0  0  0
    6.5842    2.2369  -27.6300 H   0  0  0  0  0  0  0  0  0  0  0  0
    5.9529    0.7405  -26.9632 H   0  0  0  0  0  0  0  0  0  0  0  0
    7.3603    1.4956  -26.2258 H   0  0  0  0  0  0  0  0  0  0  0  0
    4.6266    2.8405  -26.3715 H   0  0  0  0  0  0  0  0  0  0  0  0
    5.9839    3.3956  -25.4351 H   0  0  0  0  0  0  0  0  0  0  0  0
    3.8933   -3.0966  -21.6552 H   0  0  0  0  0  0  0  0  0  0  0  0
    5.0388   -4.2940  -23.1244 H   0  0  0  0  0  0  0  0  0  0  0  0
    6.0368   -2.8088  -29.2595 H   0  0  0  0  0  0  0  0  0  0  0  0
    5.4805   -4.4153  -28.7324 H   0  0  0  0  0  0  0  0  0  0  0  0
    6.8425   -3.6296  -27.9047 H   0  0  0  0  0  0  0  0  0  0  0  0
    1.1578   -1.3650  -25.6113 H   0  0  0  0  0  0  0  0  0  0  0  0
    1.4292   -0.8346  -23.9664 H   0  0  0  0  0  0  0  0  0  0  0  0
    0.7413   -2.4182  -24.2695 H   0  0  0  0  0  0  0  0  0  0  0  0
    7.6852   -5.9343  -25.0252 H   0  0  0  0  0  0  0  0  0  0  0  0
    6.2471   -6.0691  -23.9983 H   0  0  0  0  0  0  0  0  0  0  0  0
    7.3296   -4.6679  -23.8276 H   0  0  0  0  0  0  0  0  0  0  0  0
    2.0963   -4.6554  -22.7635 H   0  0  0  0  0  0  0  0  0  0  0  0
    0.9657   -3.4684  -22.2560 H   0  0  0  0  0  0  0  0  0  0  0  0
  1  2  2  0
  2  3  1  0
  2 46  1  0
  3 27  1  0
  3  4  2  0
  4  5  1  0
  4 47  1  0
  5  6  1  0
  6  7  2  0
  6 48  1  0
  7  8  1  0
  7 49  1  0
  8  9  1  0
  9  1  1  0
  9  5  2  0
 10  1  1  0
 10 50  1  0
 10 51  1  0
 11 12  1  0
 11 52  1  6
 12 13  1  0
 12 53  1  0
 12 54  1  0
 13 10  1  0
 13 14  1  0
 14 15  2  0
 14 16  2  0
 14 17  1  0
 17 18  2  0
 18 19  1  0
 18 55  1  0
 19 20  1  0
 19 21  2  0
 21 22  1  0
 21 56  1  0
 22 23  2  0
 23 24  1  0
 23 17  1  0
 24 11  1  0
 25 26  1  0
 25 57  1  0
 25 58  1  0
 25 59  1  0
 26 11  1  0
 26 60  1  0
 26 61  1  0
 27 41  1  0
 27 28  1  0
 27 62  1  1
 28 29  2  0
 29 30  1  0
 29 63  1  0
 30 39  1  0
 30 31  2  0
 31 32  1  0
 32 33  1  0
 32 37  2  0
 33 34  2  0
 34 35  1  0
 35 36  1  0
 35 31  1  0
 36 64  1  0
 36 65  1  0
 36 66  1  0
 37 38  1  0
 37 28  1  0
 38 67  1  0
 38 68  1  0
 38 69  1  0
 39 40  1  0
 40 70  1  0
 40 71  1  0
 40 72  1  0
 41 42  1  0
 41 73  1  0
 41 74  1  0
 42 43  2  0
 42 44  1  0
 44 45  1  0
M  END
>  <minimizedAffinity>  (1) 
-9.79888

>  <mol_id>  (1) 
1372

>  <source_index>  (1) 
0

>  <layer>  (1) 
L2

>  <uniprot>  (1) 
Q14145

>  <paff>  (1) 
7.6989999999999998

>  <smiles>  (1) 
CC[C@@H]1CN(Cc2cc(C(CC(=O)O)c3cc(OC)c4c(nnn4C)c3C)cc3ccsc23)S(=O)(=O)c2cc(Cl)cnc2O1

>  <aimnet_interaction_kcal_mol>  (1) 
-100.85819037535192

$$$$
L2:Q14145:15758
     RDKit          3D

 78 84  0  0  0  0  0  0  0  0999 V2000
    2.3464    1.1891  -20.9792 C   0  0  0  0  0  0  0  0  0  0  0  0
    2.5420   -0.0983  -21.4464 C   0  0  0  0  0  0  0  0  0  0  0  0
    1.5506   -1.0804  -21.3077 C   0  0  0  0  0  0  0  0  0  0  0  0
    0.3990   -0.8143  -20.5855 C   0  0  0  0  0  0  0  0  0  0  0  0
    0.1836    0.4799  -20.1226 C   0  0  0  0  0  0  0  0  0  0  0  0
   -0.8892    1.0530  -19.4667 N   0  0  0  0  0  0  0  0  0  0  0  0
   -0.6399    2.3923  -19.2344 C   0  0  0  0  0  0  0  0  0  0  0  0
    0.5848    2.6998  -19.7654 C   0  0  0  0  0  0  0  0  0  0  0  0
    1.1338    1.5082  -20.3361 C   0  0  0  0  0  0  0  0  0  0  0  0
   -1.6480    0.5550  -19.0264 H   0  0  0  0  0  0  0  0  0  0  0  0
    3.4052    2.2419  -21.0290 C   0  0  0  0  0  0  0  0  0  0  0  0
    4.3778    1.1688  -24.3377 C   0  0  2  0  0  0  0  0  0  0  0  0
    4.1485    2.3255  -23.3855 C   0  0  0  0  0  0  0  0  0  0  0  0
    4.4305    1.9421  -22.0112 N   0  0  0  0  0  0  0  0  0  0  0  0
    5.9655    2.4147  -21.5037 S   0  0  0  0  0  0  0  0  0  0  0  0
    6.2018    1.5613  -20.2922 O   0  0  0  0  0  0  0  0  0  0  0  0
    6.0566    3.8802  -21.3086 O   0  0  0  0  0  0  0  0  0  0  0  0
    6.9568    1.9210  -22.8882 C   0  0  0  0  0  0  0  0  0  0  0  0
    8.1550    2.6068  -23.0639 C   0  0  0  0  0  0  0  0  0  0  0  0
    9.1525    1.9636  -23.7674 C   0  0  0  0  0  0  0  0  0  0  0  0
   10.7057    2.7200  -23.9871 Cl  0  0  0  0  0  0  0  0  0  0  0  0
    8.9136    0.6776  -24.2506 C   0  0  0  0  0  0  0  0  0  0  0  0
    7.7160    0.0976  -24.1875 N   0  0  0  0  0  0  0  0  0  0  0  0
    6.6939    0.7816  -23.6732 C   0  0  0  0  0  0  0  0  0  0  0  0
    5.4808    0.2994  -23.9382 O   0  0  0  0  0  0  0  0  0  0  0  0
    5.6875    2.5410  -26.0957 C   0  0  0  0  0  0  0  0  0  0  0  0
    4.5062    1.6445  -25.7689 C   0  0  0  0  0  0  0  0  0  0  0  0
    1.7810   -2.4955  -21.8252 C   0  0  1  0  0  0  0  0  0  0  0  0
    2.6296   -2.6130  -23.0736 C   0  0  0  0  0  0  0  0  0  0  0  0
    3.8390   -3.3300  -23.0909 C   0  0  0  0  0  0  0  0  0  0  0  0
    4.6327   -3.4701  -24.2207 C   0  0  0  0  0  0  0  0  0  0  0  0
    4.1419   -2.8807  -25.3960 C   0  0  0  0  0  0  0  0  0  0  0  0
    2.9870   -2.0878  -25.3625 C   0  0  0  0  0  0  0  0  0  0  0  0
    2.8572   -1.4590  -26.5727 N   0  0  0  0  0  0  0  0  0  0  0  0
    3.8108   -1.8762  -27.3523 N   0  0  0  0  0  0  0  0  0  0  0  0
    4.5959   -2.7461  -26.6784 N   0  0  0  0  0  0  0  0  0  0  0  0
    5.6495   -3.4157  -27.4091 C   0  0  0  0  0  0  0  0  0  0  0  0
    2.1703   -2.0062  -24.2334 C   0  0  0  0  0  0  0  0  0  0  0  0
    0.8652   -1.3187  -24.3500 C   0  0  0  0  0  0  0  0  0  0  0  0
    5.9805   -4.0578  -24.1713 C   0  0  0  0  0  0  0  0  0  0  0  0
    6.5747   -4.6067  -22.9047 C   0  0  0  0  0  0  0  0  0  0  0  0
    7.0556   -3.3014  -23.4293 C   0  0  0  0  0  0  0  0  0  0  0  0
    2.3358   -3.2573  -20.6149 C   0  0  0  0  0  0  0  0  0  0  0  0
    2.2578   -4.7530  -20.6022 C   0  0  0  0  0  0  0  0  0  0  0  0
    3.1907   -5.5008  -20.8194 O   0  0  0  0  0  0  0  0  0  0  0  0
    1.0201   -5.1707  -20.3096 O   0  0  0  0  0  0  0  0  0  0  0  0
    0.9551   -5.8465  -19.6046 H   0  0  0  0  0  0  0  0  0  0  0  0
    3.4725   -0.3838  -21.9169 H   0  0  0  0  0  0  0  0  0  0  0  0
   -0.3021   -1.6061  -20.4005 H   0  0  0  0  0  0  0  0  0  0  0  0
   -1.3554    2.9900  -18.6957 H   0  0  0  0  0  0  0  0  0  0  0  0
    1.0650    3.6586  -19.7244 H   0  0  0  0  0  0  0  0  0  0  0  0
    2.9621    3.2230  -21.2203 H   0  0  0  0  0  0  0  0  0  0  0  0
    3.8775    2.3331  -20.0515 H   0  0  0  0  0  0  0  0  0  0  0  0
    3.5320    0.4891  -24.2562 H   0  0  0  0  0  0  0  0  0  0  0  0
    3.1018    2.6079  -23.4489 H   0  0  0  0  0  0  0  0  0  0  0  0
    4.7234    3.2040  -23.6730 H   0  0  0  0  0  0  0  0  0  0  0  0
    8.2768    3.6149  -22.6967 H   0  0  0  0  0  0  0  0  0  0  0  0
    9.7144    0.1136  -24.7158 H   0  0  0  0  0  0  0  0  0  0  0  0
    5.6441    2.8394  -27.1391 H   0  0  0  0  0  0  0  0  0  0  0  0
    6.6395    2.0424  -25.9328 H   0  0  0  0  0  0  0  0  0  0  0  0
    5.6902    3.4620  -25.5129 H   0  0  0  0  0  0  0  0  0  0  0  0
    4.5196    0.7583  -26.3937 H   0  0  0  0  0  0  0  0  0  0  0  0
    3.5809    2.1680  -26.0019 H   0  0  0  0  0  0  0  0  0  0  0  0
    0.7976   -2.9213  -22.0457 H   0  0  0  0  0  0  0  0  0  0  0  0
    4.1664   -3.8079  -22.1879 H   0  0  0  0  0  0  0  0  0  0  0  0
    5.6741   -2.9628  -28.3906 H   0  0  0  0  0  0  0  0  0  0  0  0
    5.4291   -4.4771  -27.5020 H   0  0  0  0  0  0  0  0  0  0  0  0
    6.6049   -3.2705  -26.9182 H   0  0  0  0  0  0  0  0  0  0  0  0
    0.7332   -1.0266  -25.3812 H   0  0  0  0  0  0  0  0  0  0  0  0
    0.8026   -0.4261  -23.7304 H   0  0  0  0  0  0  0  0  0  0  0  0
    0.0373   -1.9720  -24.0827 H   0  0  0  0  0  0  0  0  0  0  0  0
    6.2832   -4.5619  -25.0792 H   0  0  0  0  0  0  0  0  0  0  0  0
    7.2179   -5.4714  -22.9908 H   0  0  0  0  0  0  0  0  0  0  0  0
    5.9564   -4.6309  -22.0135 H   0  0  0  0  0  0  0  0  0  0  0  0
    8.0444   -3.2194  -23.8621 H   0  0  0  0  0  0  0  0  0  0  0  0
    6.7242   -2.3881  -22.9521 H   0  0  0  0  0  0  0  0  0  0  0  0
    1.7959   -2.9058  -19.7375 H   0  0  0  0  0  0  0  0  0  0  0  0
    3.3722   -2.9621  -20.5018 H   0  0  0  0  0  0  0  0  0  0  0  0
  1  2  2  0
  2  3  1  0
  2 48  1  0
  3 28  1  0
  3  4  2  0
  4  5  1  0
  4 49  1  0
  5  6  1  0
  6  7  1  0
  6 10  1  0
  7  8  2  0
  7 50  1  0
  8  9  1  0
  8 51  1  0
  9  1  1  0
  9  5  2  0
 11  1  1  0
 11 52  1  0
 11 53  1  0
 12 13  1  0
 12 54  1  6
 13 14  1  0
 13 55  1  0
 13 56  1  0
 14 11  1  0
 14 15  1  0
 15 16  2  0
 15 17  2  0
 15 18  1  0
 18 19  2  0
 19 20  1  0
 19 57  1  0
 20 21  1  0
 20 22  2  0
 22 23  1  0
 22 58  1  0
 23 24  2  0
 24 25  1  0
 24 18  1  0
 25 12  1  0
 26 27  1  0
 26 59  1  0
 26 60  1  0
 26 61  1  0
 27 12  1  0
 27 62  1  0
 27 63  1  0
 28 43  1  0
 28 29  1  0
 28 64  1  6
 29 30  2  0
 30 31  1  0
 30 65  1  0
 31 40  1  0
 31 32  2  0
 32 33  1  0
 33 34  1  0
 33 38  2  0
 34 35  2  0
 35 36  1  0
 36 37  1  0
 36 32  1  0
 37 66  1  0
 37 67  1  0
 37 68  1  0
 38 39  1  0
 38 29  1  0
 39 69  1  0
 39 70  1  0
 39 71  1  0
 40 41  1  0
 40 72  1  0
 41 42  1  0
 41 73  1  0
 41 74  1  0
 42 40  1  0
 42 75  1  0
 42 76  1  0
 43 44  1  0
 43 77  1  0
 43 78  1  0
 44 45  2  0
 44 46  1  0
 46 47  1  0
M  END
>  <minimizedAffinity>  (2) 
-10.59499

>  <mol_id>  (2) 
15758

>  <source_index>  (2) 
1

>  <layer>  (2) 
L2

>  <uniprot>  (2) 
Q14145

>  <paff>  (2) 
8

>  <smiles>  (2) 
CC[C@@H]1CN(Cc2cc(C(CC(=O)O)c3cc(C4CC4)c4c(nnn4C)c3C)cc3[nH]ccc23)S(=O)(=O)c2cc(Cl)cnc2O1

>  <aimnet_interaction_kcal_mol>  (2) 
-102.33716720914791

$$$$
L2:Q14145:16948
     RDKit          3D

 74 79  0  0  0  0  0  0  0  0999 V2000
    1.9467    0.2889  -21.0408 C   0  0  0  0  0  0  0  0  0  0  0  0
    3.2318    0.7790  -21.1594 C   0  0  0  0  0  0  0  0  0  0  0  0
    3.6314    1.9483  -20.5270 C   0  0  0  0  0  0  0  0  0  0  0  0
    2.6983    2.7342  -19.8589 C   0  0  0  0  0  0  0  0  0  0  0  0
    1.3579    2.2949  -19.7798 C   0  0  0  0  0  0  0  0  0  0  0  0
    0.1542    2.9175  -19.2869 C   0  0  0  0  0  0  0  0  0  0  0  0
   -0.8905    2.0648  -19.1289 C   0  0  0  0  0  0  0  0  0  0  0  0
   -0.5102    0.4538  -19.6825 S   0  0  0  0  0  0  0  0  0  0  0  0
    1.0814    0.9750  -20.2094 C   0  0  0  0  0  0  0  0  0  0  0  0
    1.4217   -0.8055  -21.9001 C   0  0  0  0  0  0  0  0  0  0  0  0
    3.1511   -3.7222  -22.0454 C   0  0  2  0  0  0  0  0  0  0  0  0
    3.4264   -2.2360  -22.0790 C   0  0  0  0  0  0  0  0  0  0  0  0
    2.4605   -1.3887  -22.7237 N   0  0  0  0  0  0  0  0  0  0  0  0
    1.8402   -1.7230  -24.2770 S   0  0  0  0  0  0  0  0  0  0  0  0
    0.6484   -2.5700  -24.0913 O   0  0  0  0  0  0  0  0  0  0  0  0
    1.7592   -0.3923  -24.8895 O   0  0  0  0  0  0  0  0  0  0  0  0
    3.1670   -2.6353  -25.0036 C   0  0  0  0  0  0  0  0  0  0  0  0
    3.6672   -2.1830  -26.2161 C   0  0  0  0  0  0  0  0  0  0  0  0
    4.6974   -2.8932  -26.7925 C   0  0  0  0  0  0  0  0  0  0  0  0
    5.4552   -2.3490  -28.2530 Cl  0  0  0  0  0  0  0  0  0  0  0  0
    5.1559   -4.0552  -26.1766 C   0  0  0  0  0  0  0  0  0  0  0  0
    4.6602   -4.4878  -25.0212 N   0  0  0  0  0  0  0  0  0  0  0  0
    3.6945   -3.7966  -24.4354 C   0  0  0  0  0  0  0  0  0  0  0  0
    3.1819   -4.3690  -23.3145 O   0  0  0  0  0  0  0  0  0  0  0  0
    1.8144   -3.7410  -19.9062 C   0  0  0  0  0  0  0  0  0  0  0  0
    1.8485   -4.0860  -21.3826 C   0  0  0  0  0  0  0  0  0  0  0  0
    5.0982    2.2445  -20.7445 C   0  0  1  0  0  0  0  0  0  0  0  0
    5.5169    2.2897  -22.1913 C   0  0  0  0  0  0  0  0  0  0  0  0
    6.6577    1.5545  -22.5561 C   0  0  0  0  0  0  0  0  0  0  0  0
    6.9884    1.3004  -23.8752 C   0  0  0  0  0  0  0  0  0  0  0  0
    6.2748    1.9592  -24.8635 C   0  0  0  0  0  0  0  0  0  0  0  0
    5.1783    2.7610  -24.4902 C   0  0  0  0  0  0  0  0  0  0  0  0
    4.6687    3.3198  -25.6302 N   0  0  0  0  0  0  0  0  0  0  0  0
    5.3885    2.9505  -26.6414 N   0  0  0  0  0  0  0  0  0  0  0  0
    6.3722    2.1153  -26.2084 N   0  0  0  0  0  0  0  0  0  0  0  0
    7.3051    1.5606  -27.1744 C   0  0  0  0  0  0  0  0  0  0  0  0
    4.7602    2.9164  -23.1681 C   0  0  0  0  0  0  0  0  0  0  0  0
    3.5018    3.6437  -22.9023 C   0  0  0  0  0  0  0  0  0  0  0  0
    8.0453    0.4407  -24.1788 O   0  0  0  0  0  0  0  0  0  0  0  0
    7.6735   -0.8469  -24.4672 C   0  0  0  0  0  0  0  0  0  0  0  0
    8.6435   -1.4119  -25.1960 F   0  0  0  0  0  0  0  0  0  0  0  0
    7.5751   -1.5796  -23.2864 F   0  0  0  0  0  0  0  0  0  0  0  0
    5.6696    3.4039  -19.9260 C   0  0  0  0  0  0  0  0  0  0  0  0
    5.8362    2.9487  -18.5185 C   0  0  0  0  0  0  0  0  0  0  0  0
    6.5679    1.9745  -18.2761 O   0  0  0  0  0  0  0  0  0  0  0  0
    5.1093    3.6080  -17.6470 O   0  0  0  0  0  0  0  0  0  0  0  0
    5.0553    3.2090  -16.7302 H   0  0  0  0  0  0  0  0  0  0  0  0
    3.9291    0.3093  -21.8390 H   0  0  0  0  0  0  0  0  0  0  0  0
    2.9907    3.6863  -19.4453 H   0  0  0  0  0  0  0  0  0  0  0  0
    0.0325    3.9698  -19.1103 H   0  0  0  0  0  0  0  0  0  0  0  0
   -1.8721    2.2527  -18.7352 H   0  0  0  0  0  0  0  0  0  0  0  0
    0.8790   -1.5421  -21.3071 H   0  0  0  0  0  0  0  0  0  0  0  0
    0.6721   -0.3763  -22.5611 H   0  0  0  0  0  0  0  0  0  0  0  0
    3.9765   -4.1751  -21.4902 H   0  0  0  0  0  0  0  0  0  0  0  0
    4.3938   -2.0618  -22.5437 H   0  0  0  0  0  0  0  0  0  0  0  0
    3.5039   -1.8776  -21.0542 H   0  0  0  0  0  0  0  0  0  0  0  0
    3.2506   -1.3033  -26.6807 H   0  0  0  0  0  0  0  0  0  0  0  0
    5.9326   -4.6511  -26.6364 H   0  0  0  0  0  0  0  0  0  0  0  0
    1.0631   -4.3203  -19.3744 H   0  0  0  0  0  0  0  0  0  0  0  0
    1.6065   -2.6900  -19.7267 H   0  0  0  0  0  0  0  0  0  0  0  0
    2.7713   -3.9921  -19.4508 H   0  0  0  0  0  0  0  0  0  0  0  0
    1.0213   -3.6467  -21.9291 H   0  0  0  0  0  0  0  0  0  0  0  0
    1.7121   -5.1602  -21.4503 H   0  0  0  0  0  0  0  0  0  0  0  0
    5.6082    1.3578  -20.3505 H   0  0  0  0  0  0  0  0  0  0  0  0
    7.3162    1.1711  -21.7899 H   0  0  0  0  0  0  0  0  0  0  0  0
    7.2045    2.1289  -28.0910 H   0  0  0  0  0  0  0  0  0  0  0  0
    7.0798    0.5123  -27.3643 H   0  0  0  0  0  0  0  0  0  0  0  0
    8.3182    1.6478  -26.7949 H   0  0  0  0  0  0  0  0  0  0  0  0
    3.1549    4.0763  -23.8332 H   0  0  0  0  0  0  0  0  0  0  0  0
    3.6175    4.4229  -22.1474 H   0  0  0  0  0  0  0  0  0  0  0  0
    2.7246    2.9782  -22.5489 H   0  0  0  0  0  0  0  0  0  0  0  0
    6.7081   -0.9306  -24.9781 H   0  0  0  0  0  0  0  0  0  0  0  0
    5.0617    4.2998  -20.0101 H   0  0  0  0  0  0  0  0  0  0  0  0
    6.6499    3.6385  -20.3250 H   0  0  0  0  0  0  0  0  0  0  0  0
  1  2  2  0
  2  3  1  0
  2 48  1  0
  3 27  1  0
  3  4  2  0
  4  5  1  0
  4 49  1  0
  5  6  1  0
  6  7  2  0
  6 50  1  0
  7  8  1  0
  7 51  1  0
  8  9  1  0
  9  1  1  0
  9  5  2  0
 10  1  1  0
 10 52  1  0
 10 53  1  0
 11 12  1  0
 11 54  1  1
 12 13  1  0
 12 55  1  0
 12 56  1  0
 13 10  1  0
 13 14  1  0
 14 15  2  0
 14 16  2  0
 14 17  1  0
 17 18  2  0
 18 19  1  0
 18 57  1  0
 19 20  1  0
 19 21  2  0
 21 22  1  0
 21 58  1  0
 22 23  2  0
 23 24  1  0
 23 17  1  0
 24 11  1  0
 25 26  1  0
 25 59  1  0
 25 60  1  0
 25 61  1  0
 26 11  1  0
 26 62  1  0
 26 63  1  0
 27 43  1  0
 27 28  1  0
 27 64  1  1
 28 29  2  0
 29 30  1  0
 29 65  1  0
 30 39  1  0
 30 31  2  0
 31 32  1  0
 32 33  1  0
 32 37  2  0
 33 34  2  0
 34 35  1  0
 35 36  1  0
 35 31  1  0
 36 66  1  0
 36 67  1  0
 36 68  1  0
 37 38  1  0
 37 28  1  0
 38 69  1  0
 38 70  1  0
 38 71  1  0
 39 40  1  0
 40 41  1  0
 40 42  1  0
 40 72  1  0
 43 44  1  0
 43 73  1  0
 43 74  1  0
 44 45  2  0
 44 46  1  0
 46 47  1  0
M  END
>  <minimizedAffinity>  (3) 
-10.28604

>  <mol_id>  (3) 
16948

>  <source_index>  (3) 
2

>  <layer>  (3) 
L2

>  <uniprot>  (3) 
Q14145

>  <paff>  (3) 
7.6989999999999998

>  <smiles>  (3) 
CC[C@@H]6CN(Cc3cc(C(CC(=O)O)c2cc(OC(F)F)c1c(nnn1C)c2C)cc4ccsc34)S(=O)(=O)c5cc(Cl)cnc5O6

>  <aimnet_interaction_kcal_mol>  (3) 
-100.74034533026195

$$$$
L2:Q14145:41332
     RDKit          3D

 74 79  0  0  0  0  0  0  0  0999 V2000
    2.2375    0.9714  -21.0701 C   0  0  0  0  0  0  0  0  0  0  0  0
    2.5111   -0.3014  -21.5436 C   0  0  0  0  0  0  0  0  0  0  0  0
    1.5574   -1.3124  -21.4430 C   0  0  0  0  0  0  0  0  0  0  0  0
    0.3987   -1.0983  -20.7234 C   0  0  0  0  0  0  0  0  0  0  0  0
    0.0927    0.1638  -20.1976 C   0  0  0  0  0  0  0  0  0  0  0  0
   -1.0357    0.6359  -19.4401 C   0  0  0  0  0  0  0  0  0  0  0  0
   -0.9961    1.9610  -19.1517 C   0  0  0  0  0  0  0  0  0  0  0  0
    0.4421    2.7267  -19.7794 S   0  0  0  0  0  0  0  0  0  0  0  0
    1.0229    1.1977  -20.4356 C   0  0  0  0  0  0  0  0  0  0  0  0
    3.2190    2.0906  -21.0957 C   0  0  0  0  0  0  0  0  0  0  0  0
    4.6711    1.0892  -24.3209 C   0  0  2  0  0  0  0  0  0  0  0  0
    4.1418    2.1547  -23.3799 C   0  0  0  0  0  0  0  0  0  0  0  0
    4.3433    1.8050  -21.9769 N   0  0  0  0  0  0  0  0  0  0  0  0
    5.7504    2.5152  -21.3342 S   0  0  0  0  0  0  0  0  0  0  0  0
    5.5594    3.9562  -21.0452 O   0  0  0  0  0  0  0  0  0  0  0  0
    6.0719    1.6232  -20.1707 O   0  0  0  0  0  0  0  0  0  0  0  0
    6.9110    2.3508  -22.6607 C   0  0  0  0  0  0  0  0  0  0  0  0
    7.9377    3.2899  -22.6432 C   0  0  0  0  0  0  0  0  0  0  0  0
    9.1275    2.9286  -23.2415 C   0  0  0  0  0  0  0  0  0  0  0  0
   10.5304    3.9445  -23.1057 Cl  0  0  0  0  0  0  0  0  0  0  0  0
    9.2052    1.6972  -23.8935 C   0  0  0  0  0  0  0  0  0  0  0  0
    8.1530    0.8933  -24.0474 N   0  0  0  0  0  0  0  0  0  0  0  0
    6.9744    1.2554  -23.5441 C   0  0  0  0  0  0  0  0  0  0  0  0
    5.9371    0.4995  -23.9065 O   0  0  0  0  0  0  0  0  0  0  0  0
    5.7330    2.6900  -26.0496 C   0  0  0  0  0  0  0  0  0  0  0  0
    4.7232    1.5967  -25.7502 C   0  0  0  0  0  0  0  0  0  0  0  0
    1.8476   -2.7143  -21.9522 C   0  0  1  0  0  0  0  0  0  0  0  0
    2.6371   -2.8411  -23.2379 C   0  0  0  0  0  0  0  0  0  0  0  0
    3.7301   -3.7235  -23.3410 C   0  0  0  0  0  0  0  0  0  0  0  0
    4.4460   -3.8359  -24.5125 C   0  0  0  0  0  0  0  0  0  0  0  0
    4.1146   -3.0354  -25.6006 C   0  0  0  0  0  0  0  0  0  0  0  0
    3.0423   -2.1426  -25.4770 C   0  0  0  0  0  0  0  0  0  0  0  0
    3.0061   -1.3664  -26.6032 N   0  0  0  0  0  0  0  0  0  0  0  0
    3.9412   -1.7785  -27.4123 N   0  0  0  0  0  0  0  0  0  0  0  0
    4.6215   -2.7957  -26.8382 N   0  0  0  0  0  0  0  0  0  0  0  0
    5.6478   -3.4953  -27.5880 C   0  0  0  0  0  0  0  0  0  0  0  0
    2.2136   -2.1313  -24.3501 C   0  0  0  0  0  0  0  0  0  0  0  0
    0.9118   -1.4338  -24.4214 C   0  0  0  0  0  0  0  0  0  0  0  0
    5.4926   -4.7555  -24.6929 O   0  0  0  0  0  0  0  0  0  0  0  0
    6.3278   -5.0662  -23.6840 C   0  0  0  0  0  0  0  0  0  0  0  0
    7.4501   -5.5599  -24.1806 F   0  0  0  0  0  0  0  0  0  0  0  0
    5.7868   -5.9905  -22.8447 F   0  0  0  0  0  0  0  0  0  0  0  0
    6.6515   -3.9873  -22.9047 F   0  0  0  0  0  0  0  0  0  0  0  0
    2.5235   -3.4088  -20.7718 C   0  0  0  0  0  0  0  0  0  0  0  0
    2.2977   -4.8734  -20.6107 C   0  0  0  0  0  0  0  0  0  0  0  0
    3.1499   -5.7202  -20.7786 O   0  0  0  0  0  0  0  0  0  0  0  0
    1.0279   -5.1255  -20.2669 O   0  0  0  0  0  0  0  0  0  0  0  0
    0.9010   -5.7394  -19.5128 H   0  0  0  0  0  0  0  0  0  0  0  0
    3.4746   -0.5355  -21.9789 H   0  0  0  0  0  0  0  0  0  0  0  0
   -0.2639   -1.9280  -20.5655 H   0  0  0  0  0  0  0  0  0  0  0  0
   -1.8452    0.0122  -19.0966 H   0  0  0  0  0  0  0  0  0  0  0  0
   -1.6972    2.5482  -18.5868 H   0  0  0  0  0  0  0  0  0  0  0  0
    2.7345    3.0256  -21.3784 H   0  0  0  0  0  0  0  0  0  0  0  0
    3.5878    2.2511  -20.0830 H   0  0  0  0  0  0  0  0  0  0  0  0
    4.0093    0.2251  -24.2720 H   0  0  0  0  0  0  0  0  0  0  0  0
    3.0716    2.2328  -23.5493 H   0  0  0  0  0  0  0  0  0  0  0  0
    4.5641    3.1324  -23.6131 H   0  0  0  0  0  0  0  0  0  0  0  0
    7.7667    4.2678  -22.2151 H   0  0  0  0  0  0  0  0  0  0  0  0
   10.1440    1.3612  -24.3165 H   0  0  0  0  0  0  0  0  0  0  0  0
    5.5824    3.0685  -27.0569 H   0  0  0  0  0  0  0  0  0  0  0  0
    6.7534    2.3212  -25.9838 H   0  0  0  0  0  0  0  0  0  0  0  0
    5.6423    3.5455  -25.3809 H   0  0  0  0  0  0  0  0  0  0  0  0
    4.9110    0.7381  -26.3856 H   0  0  0  0  0  0  0  0  0  0  0  0
    3.7210    1.9391  -26.0040 H   0  0  0  0  0  0  0  0  0  0  0  0
    0.8762   -3.1837  -22.1157 H   0  0  0  0  0  0  0  0  0  0  0  0
    4.0294   -4.3378  -22.5087 H   0  0  0  0  0  0  0  0  0  0  0  0
    5.8626   -2.8963  -28.4622 H   0  0  0  0  0  0  0  0  0  0  0  0
    5.2821   -4.4744  -27.8913 H   0  0  0  0  0  0  0  0  0  0  0  0
    6.5381   -3.6067  -26.9794 H   0  0  0  0  0  0  0  0  0  0  0  0
    0.7885   -1.0453  -25.4222 H   0  0  0  0  0  0  0  0  0  0  0  0
    0.8357   -0.6077  -23.7198 H   0  0  0  0  0  0  0  0  0  0  0  0
    0.0847   -2.1160  -24.2272 H   0  0  0  0  0  0  0  0  0  0  0  0
    2.1308   -2.9427  -19.8753 H   0  0  0  0  0  0  0  0  0  0  0  0
    3.5885   -3.2098  -20.8074 H   0  0  0  0  0  0  0  0  0  0  0  0
  1  2  2  0
  2  3  1  0
  2 49  1  0
  3 27  1  0
  3  4  2  0
  4  5  1  0
  4 50  1  0
  5  6  1  0
  6  7  2  0
  6 51  1  0
  7  8  1  0
  7 52  1  0
  8  9  1  0
  9  1  1  0
  9  5  2  0
 10  1  1  0
 10 53  1  0
 10 54  1  0
 11 12  1  0
 11 55  1  6
 12 13  1  0
 12 56  1  0
 12 57  1  0
 13 10  1  0
 13 14  1  0
 14 15  2  0
 14 16  2  0
 14 17  1  0
 17 18  2  0
 18 19  1  0
 18 58  1  0
 19 20  1  0
 19 21  2  0
 21 22  1  0
 21 59  1  0
 22 23  2  0
 23 24  1  0
 23 17  1  0
 24 11  1  0
 25 26  1  0
 25 60  1  0
 25 61  1  0
 25 62  1  0
 26 11  1  0
 26 63  1  0
 26 64  1  0
 27 44  1  0
 27 28  1  0
 27 65  1  6
 28 29  2  0
 29 30  1  0
 29 66  1  0
 30 39  1  0
 30 31  2  0
 31 32  1  0
 32 33  1  0
 32 37  2  0
 33 34  2  0
 34 35  1  0
 35 36  1  0
 35 31  1  0
 36 67  1  0
 36 68  1  0
 36 69  1  0
 37 38  1  0
 37 28  1  0
 38 70  1  0
 38 71  1  0
 38 72  1  0
 39 40  1  0
 40 41  1  0
 40 42  1  0
 40 43  1  0
 44 45  1  0
 44 73  1  0
 44 74  1  0
 45 46  2  0
 45 47  1  0
 47 48  1  0
M  END
>  <minimizedAffinity>  (4) 
-9.88532

>  <mol_id>  (4) 
41332

>  <source_index>  (4) 
3

>  <layer>  (4) 
L2

>  <uniprot>  (4) 
Q14145

>  <paff>  (4) 
7.6989999999999998

>  <smiles>  (4) 
CC[C@@H]6CN(Cc3cc(C(CC(=O)O)c2cc(OC(F)(F)F)c1c(nnn1C)c2C)cc4ccsc34)S(=O)(=O)c5cc(Cl)cnc5O6

>  <aimnet_interaction_kcal_mol>  (4) 
-114.4528218783156

$$$$
L2:Q14145:62918
     RDKit          3D

 76 81  0  0  0  0  0  0  0  0999 V2000
    3.9172   -0.4428  -22.1294 C   0  0  0  0  0  0  0  0  0  0  0  0
    4.7885    0.6352  -22.0410 C   0  0  0  0  0  0  0  0  0  0  0  0
    4.4760    1.7930  -21.3258 C   0  0  0  0  0  0  0  0  0  0  0  0
    3.2043    1.9257  -20.7954 C   0  0  0  0  0  0  0  0  0  0  0  0
    2.3008    0.8574  -20.8644 C   0  0  0  0  0  0  0  0  0  0  0  0
    0.9778    0.7645  -20.3285 C   0  0  0  0  0  0  0  0  0  0  0  0
    0.4336   -0.4790  -20.4283 C   0  0  0  0  0  0  0  0  0  0  0  0
    1.4955   -1.6221  -21.2023 S   0  0  0  0  0  0  0  0  0  0  0  0
    2.7027   -0.3626  -21.4621 C   0  0  0  0  0  0  0  0  0  0  0  0
    4.3556   -1.6283  -22.9380 C   0  0  0  0  0  0  0  0  0  0  0  0
    4.7961   -4.7632  -22.9553 C   0  0  2  0  0  0  0  0  0  0  0  0
    3.7152   -3.9003  -22.3215 C   0  0  0  0  0  0  0  0  0  0  0  0
    3.3782   -2.6891  -23.0304 N   0  0  0  0  0  0  0  0  0  0  0  0
    2.7980   -2.9181  -24.3686 C   0  0  1  0  0  0  0  0  0  0  0  0
    1.9674   -1.7402  -24.8250 C   0  0  0  0  0  0  0  0  0  0  0  0
    3.8304   -3.3125  -25.4011 C   0  0  0  0  0  0  0  0  0  0  0  0
    4.0798   -2.4772  -26.4081 N   0  0  0  0  0  0  0  0  0  0  0  0
    4.7989   -2.9281  -27.4387 C   0  0  0  0  0  0  0  0  0  0  0  0
    5.3171   -4.2159  -27.4982 C   0  0  0  0  0  0  0  0  0  0  0  0
    5.1531   -5.0448  -26.4031 C   0  0  0  0  0  0  0  0  0  0  0  0
    4.4480   -4.5620  -25.3166 C   0  0  0  0  0  0  0  0  0  0  0  0
    4.2950   -5.3418  -24.1713 O   0  0  0  0  0  0  0  0  0  0  0  0
    6.4530   -6.6489  -22.6369 C   0  0  0  0  0  0  0  0  0  0  0  0
    5.2604   -5.9046  -22.0680 C   0  0  0  0  0  0  0  0  0  0  0  0
    5.4885    2.9156  -21.2120 C   0  0  2  0  0  0  0  0  0  0  0  0
    6.8466    2.5673  -21.7757 C   0  0  0  0  0  0  0  0  0  0  0  0
    7.7318    1.7185  -21.0770 C   0  0  0  0  0  0  0  0  0  0  0  0
    8.8713    1.1515  -21.6589 C   0  0  0  0  0  0  0  0  0  0  0  0
    9.6808    0.0876  -20.9851 C   0  0  0  0  0  0  0  0  0  0  0  0
    9.1868    1.6147  -22.9432 C   0  0  0  0  0  0  0  0  0  0  0  0
    8.3785    2.5613  -23.6005 C   0  0  0  0  0  0  0  0  0  0  0  0
    8.9543    2.8582  -24.8075 N   0  0  0  0  0  0  0  0  0  0  0  0
   10.0334    2.1574  -24.9368 N   0  0  0  0  0  0  0  0  0  0  0  0
   10.2024    1.3865  -23.8209 N   0  0  0  0  0  0  0  0  0  0  0  0
   11.3389    0.4900  -23.7501 C   0  0  0  0  0  0  0  0  0  0  0  0
    7.1865    3.0346  -23.0391 C   0  0  0  0  0  0  0  0  0  0  0  0
    6.3529    3.9749  -23.8289 C   0  0  0  0  0  0  0  0  0  0  0  0
    5.5338    3.5651  -19.8186 C   0  0  0  0  0  0  0  0  0  0  0  0
    5.4449    2.6686  -18.6329 C   0  0  0  0  0  0  0  0  0  0  0  0
    6.1258    1.6526  -18.4560 O   0  0  0  0  0  0  0  0  0  0  0  0
    4.5534    3.0970  -17.7554 O   0  0  0  0  0  0  0  0  0  0  0  0
    4.7198    2.8292  -16.8070 H   0  0  0  0  0  0  0  0  0  0  0  0
    5.7295    0.5798  -22.5768 H   0  0  0  0  0  0  0  0  0  0  0  0
    2.8819    2.8470  -20.3329 H   0  0  0  0  0  0  0  0  0  0  0  0
    0.4629    1.6032  -19.8844 H   0  0  0  0  0  0  0  0  0  0  0  0
   -0.5354   -0.7988  -20.0922 H   0  0  0  0  0  0  0  0  0  0  0  0
    4.6402   -1.2711  -23.9280 H   0  0  0  0  0  0  0  0  0  0  0  0
    5.2842   -1.9993  -22.4865 H   0  0  0  0  0  0  0  0  0  0  0  0
    5.6534   -4.1340  -23.2104 H   0  0  0  0  0  0  0  0  0  0  0  0
    4.0112   -3.6344  -21.3063 H   0  0  0  0  0  0  0  0  0  0  0  0
    2.8097   -4.4976  -22.2143 H   0  0  0  0  0  0  0  0  0  0  0  0
    2.1190   -3.7641  -24.2549 H   0  0  0  0  0  0  0  0  0  0  0  0
    2.5530   -0.8290  -24.8819 H   0  0  0  0  0  0  0  0  0  0  0  0
    1.1336   -1.5730  -24.1478 H   0  0  0  0  0  0  0  0  0  0  0  0
    1.5807   -1.9321  -25.8185 H   0  0  0  0  0  0  0  0  0  0  0  0
    4.9573   -2.2354  -28.2586 H   0  0  0  0  0  0  0  0  0  0  0  0
    5.8023   -4.5829  -28.3892 H   0  0  0  0  0  0  0  0  0  0  0  0
    5.5345   -6.0557  -26.4058 H   0  0  0  0  0  0  0  0  0  0  0  0
    6.8040   -7.4115  -21.9461 H   0  0  0  0  0  0  0  0  0  0  0  0
    7.2778   -5.9679  -22.8459 H   0  0  0  0  0  0  0  0  0  0  0  0
    6.2094   -7.1528  -23.5699 H   0  0  0  0  0  0  0  0  0  0  0  0
    5.5138   -5.5042  -21.0836 H   0  0  0  0  0  0  0  0  0  0  0  0
    4.4373   -6.5983  -21.8846 H   0  0  0  0  0  0  0  0  0  0  0  0
    5.1045    3.7222  -21.8350 H   0  0  0  0  0  0  0  0  0  0  0  0
    7.5295    1.5620  -20.0254 H   0  0  0  0  0  0  0  0  0  0  0  0
    9.3107   -0.1208  -19.9836 H   0  0  0  0  0  0  0  0  0  0  0  0
   10.7296    0.3668  -20.8936 H   0  0  0  0  0  0  0  0  0  0  0  0
    9.6533   -0.8478  -21.5440 H   0  0  0  0  0  0  0  0  0  0  0  0
   11.8879    0.5948  -24.6784 H   0  0  0  0  0  0  0  0  0  0  0  0
   11.0106   -0.5407  -23.6437 H   0  0  0  0  0  0  0  0  0  0  0  0
   11.9890    0.7516  -22.9188 H   0  0  0  0  0  0  0  0  0  0  0  0
    6.8354    4.1517  -24.7831 H   0  0  0  0  0  0  0  0  0  0  0  0
    6.2408    4.9316  -23.3219 H   0  0  0  0  0  0  0  0  0  0  0  0
    5.3600    3.5710  -24.0172 H   0  0  0  0  0  0  0  0  0  0  0  0
    4.7139    4.2763  -19.7483 H   0  0  0  0  0  0  0  0  0  0  0  0
    6.4352    4.1651  -19.7386 H   0  0  0  0  0  0  0  0  0  0  0  0
  1  2  2  0
  2  3  1  0
  2 43  1  0
  3 25  1  0
  3  4  2  0
  4  5  1  0
  4 44  1  0
  5  6  1  0
  6  7  2  0
  6 45  1  0
  7  8  1  0
  7 46  1  0
  8  9  1  0
  9  1  1  0
  9  5  2  0
 10  1  1  0
 10 47  1  0
 10 48  1  0
 11 12  1  0
 11 49  1  6
 12 13  1  0
 12 50  1  0
 12 51  1  0
 13 10  1  0
 13 14  1  0
 14 15  1  0
 14 16  1  0
 14 52  1  1
 15 53  1  0
 15 54  1  0
 15 55  1  0
 16 17  2  0
 17 18  1  0
 18 19  2  0
 18 56  1  0
 19 20  1  0
 19 57  1  0
 20 21  2  0
 20 58  1  0
 21 22  1  0
 21 16  1  0
 22 11  1  0
 23 24  1  0
 23 59  1  0
 23 60  1  0
 23 61  1  0
 24 11  1  0
 24 62  1  0
 24 63  1  0
 25 38  1  0
 25 26  1  0
 25 64  1  6
 26 27  2  0
 27 28  1  0
 27 65  1  0
 28 29  1  0
 28 30  2  0
 29 66  1  0
 29 67  1  0
 29 68  1  0
 30 31  1  0
 31 32  1  0
 31 36  2  0
 32 33  2  0
 33 34  1  0
 34 35  1  0
 34 30  1  0
 35 69  1  0
 35 70  1  0
 35 71  1  0
 36 37  1  0
 36 26  1  0
 37 72  1  0
 37 73  1  0
 37 74  1  0
 38 39  1  0
 38 75  1  0
 38 76  1  0
 39 40  2  0
 39 41  1  0
 41 42  1  0
M  END
>  <minimizedAffinity>  (5) 
-9.98049

>  <mol_id>  (5) 
62918

>  <source_index>  (5) 
4

>  <layer>  (5) 
L2

>  <uniprot>  (5) 
Q14145

>  <paff>  (5) 
8

>  <smiles>  (5) 
CC[C@@H]6CN(Cc3cc([C@@H](CC(=O)O)c2cc(C)c1c(nnn1C)c2C)cc4ccsc34)[C@@H](C)c5ncccc5O6

>  <aimnet_interaction_kcal_mol>  (5) 
-103.8957839954161

$$$$
L2:Q14145:64270
     RDKit          3D

 84 88  0  0  0  0  0  0  0  0999 V2000
    4.4675    1.6290  -21.3268 C   0  0  0  0  0  0  0  0  0  0  0  0
    3.1427    1.5196  -20.9575 C   0  0  0  0  0  0  0  0  0  0  0  0
    2.3790    0.3931  -21.2843 C   0  0  0  0  0  0  0  0  0  0  0  0
    2.9934   -0.6081  -22.0236 C   0  0  0  0  0  0  0  0  0  0  0  0
    4.3313   -0.5050  -22.4854 C   0  0  0  0  0  0  0  0  0  0  0  0
    4.9206   -1.5080  -23.2840 C   0  0  0  0  0  0  0  0  0  0  0  0
    6.1587   -1.3332  -23.8464 C   0  0  0  0  0  0  0  0  0  0  0  0
    6.8847   -0.1669  -23.5759 C   0  0  0  0  0  0  0  0  0  0  0  0
    6.3709    0.7880  -22.7302 C   0  0  0  0  0  0  0  0  0  0  0  0
    5.0773    0.6626  -22.1715 C   0  0  0  0  0  0  0  0  0  0  0  0
    2.2574   -1.7314  -22.4340 N   0  0  0  0  0  0  0  0  0  0  0  0
    2.4448   -3.0060  -22.0129 C   0  0  0  0  0  0  0  0  0  0  0  0
    2.5631   -3.9808  -22.7203 O   0  0  0  0  0  0  0  0  0  0  0  0
    2.5061   -3.0934  -20.6444 O   0  0  0  0  0  0  0  0  0  0  0  0
    2.4487   -4.0388  -20.4255 H   0  0  0  0  0  0  0  0  0  0  0  0
    1.3866   -1.5439  -24.1059 S   0  0  0  0  0  0  0  0  0  0  0  0
    0.9004   -0.1581  -24.0345 O   0  0  0  0  0  0  0  0  0  0  0  0
    0.4822   -2.6881  -24.0376 O   0  0  0  0  0  0  0  0  0  0  0  0
    2.5051   -1.6667  -25.4221 C   0  0  0  0  0  0  0  0  0  0  0  0
    2.9695   -0.4796  -25.9817 C   0  0  0  0  0  0  0  0  0  0  0  0
    3.9333   -0.5248  -26.9576 C   0  0  0  0  0  0  0  0  0  0  0  0
    4.4106   -1.7610  -27.4118 C   0  0  0  0  0  0  0  0  0  0  0  0
    3.9151   -2.9466  -26.8625 C   0  0  0  0  0  0  0  0  0  0  0  0
    2.9536   -2.8993  -25.8801 C   0  0  0  0  0  0  0  0  0  0  0  0
    5.3518   -1.6991  -28.3587 O   0  0  0  0  0  0  0  0  0  0  0  0
    5.6486   -2.8757  -29.1370 C   0  0  0  0  0  0  0  0  0  0  0  0
    5.3433    2.6946  -20.7835 C   0  0  2  0  0  0  0  0  0  0  0  0
    5.3242    2.8639  -19.2964 C   0  0  0  0  0  0  0  0  0  0  0  0
    5.9165    2.0576  -18.5739 O   0  0  0  0  0  0  0  0  0  0  0  0
    4.6368    3.9235  -18.9246 O   0  0  0  0  0  0  0  0  0  0  0  0
    4.8416    4.2298  -18.0256 H   0  0  0  0  0  0  0  0  0  0  0  0
    5.3018    4.3355  -21.8477 S   0  0  0  0  0  0  0  0  0  0  0  0
    6.5653    4.9512  -21.3698 O   0  0  0  0  0  0  0  0  0  0  0  0
    3.9957    5.0315  -21.7373 O   0  0  0  0  0  0  0  0  0  0  0  0
    6.0293    2.8016  -26.0411 C   0  0  0  0  0  0  0  0  0  0  0  0
    4.7246    2.7913  -25.5170 C   0  0  0  0  0  0  0  0  0  0  0  0
    4.4766    3.2865  -24.2601 C   0  0  0  0  0  0  0  0  0  0  0  0
    5.5333    3.8057  -23.5132 C   0  0  0  0  0  0  0  0  0  0  0  0
    6.8134    3.8811  -24.0407 C   0  0  0  0  0  0  0  0  0  0  0  0
    7.0619    3.3861  -25.3033 C   0  0  0  0  0  0  0  0  0  0  0  0
    7.4364    2.4445  -27.9121 C   0  0  0  0  0  0  0  0  0  0  0  0
    6.2052    2.2019  -27.2163 O   0  0  0  0  0  0  0  0  0  0  0  0
    0.9060    0.3112  -20.9662 C   0  0  0  0  0  0  0  0  0  0  0  0
    0.4991    0.8470  -19.5936 C   0  0  0  0  0  0  0  0  0  0  0  0
   -0.2821    2.1411  -19.6372 C   0  0  0  0  0  0  0  0  0  0  0  0
    0.3105    3.1675  -19.9890 O   0  0  0  0  0  0  0  0  0  0  0  0
   -1.5704    2.1766  -19.2225 N   0  0  0  0  0  0  0  0  0  0  0  0
   -2.2438    3.4731  -19.0777 C   0  0  0  0  0  0  0  0  0  0  0  0
   -3.1982    3.4462  -17.9037 C   0  0  0  0  0  0  0  0  0  0  0  0
   -4.1338    2.3750  -18.0069 O   0  0  0  0  0  0  0  0  0  0  0  0
   -3.4401    1.1398  -18.0319 C   0  0  0  0  0  0  0  0  0  0  0  0
   -2.5352    1.0734  -19.2415 C   0  0  0  0  0  0  0  0  0  0  0  0
    2.6840    2.3420  -20.4212 H   0  0  0  0  0  0  0  0  0  0  0  0
    4.3822   -2.4229  -23.4525 H   0  0  0  0  0  0  0  0  0  0  0  0
    6.5680   -2.0851  -24.5053 H   0  0  0  0  0  0  0  0  0  0  0  0
    7.8508   -0.0131  -24.0390 H   0  0  0  0  0  0  0  0  0  0  0  0
    6.9636    1.6655  -22.5475 H   0  0  0  0  0  0  0  0  0  0  0  0
    2.5689    0.4605  -25.6436 H   0  0  0  0  0  0  0  0  0  0  0  0
    4.3368    0.3785  -27.3831 H   0  0  0  0  0  0  0  0  0  0  0  0
    4.2913   -3.8917  -27.2066 H   0  0  0  0  0  0  0  0  0  0  0  0
    2.5386   -3.8015  -25.4712 H   0  0  0  0  0  0  0  0  0  0  0  0
    6.3354   -2.5378  -29.9030 H   0  0  0  0  0  0  0  0  0  0  0  0
    4.7428   -3.2700  -29.5864 H   0  0  0  0  0  0  0  0  0  0  0  0
    6.1237   -3.6403  -28.5256 H   0  0  0  0  0  0  0  0  0  0  0  0
    6.3789    2.4714  -21.0069 H   0  0  0  0  0  0  0  0  0  0  0  0
    3.9205    2.3941  -26.1148 H   0  0  0  0  0  0  0  0  0  0  0  0
    3.4751    3.2855  -23.8590 H   0  0  0  0  0  0  0  0  0  0  0  0
    7.6035    4.3443  -23.4726 H   0  0  0  0  0  0  0  0  0  0  0  0
    8.0632    3.4440  -25.7003 H   0  0  0  0  0  0  0  0  0  0  0  0
    7.3157    2.0045  -28.8890 H   0  0  0  0  0  0  0  0  0  0  0  0
    8.2722    1.9783  -27.3893 H   0  0  0  0  0  0  0  0  0  0  0  0
    7.6042    3.5143  -28.0270 H   0  0  0  0  0  0  0  0  0  0  0  0
    0.5733   -0.7195  -21.0477 H   0  0  0  0  0  0  0  0  0  0  0  0
    0.3710    0.8397  -21.7484 H   0  0  0  0  0  0  0  0  0  0  0  0
    1.3897    1.0979  -19.0323 H   0  0  0  0  0  0  0  0  0  0  0  0
   -0.0288    0.0997  -19.0055 H   0  0  0  0  0  0  0  0  0  0  0  0
   -2.7979    3.6941  -19.9914 H   0  0  0  0  0  0  0  0  0  0  0  0
   -1.4941    4.2378  -18.9244 H   0  0  0  0  0  0  0  0  0  0  0  0
   -3.7663    4.3719  -17.8905 H   0  0  0  0  0  0  0  0  0  0  0  0
   -2.6242    3.3674  -16.9783 H   0  0  0  0  0  0  0  0  0  0  0  0
   -4.1787    0.3477  -18.0860 H   0  0  0  0  0  0  0  0  0  0  0  0
   -2.8398    1.0019  -17.1297 H   0  0  0  0  0  0  0  0  0  0  0  0
   -3.1502    1.1678  -20.1380 H   0  0  0  0  0  0  0  0  0  0  0  0
   -2.0295    0.1178  -19.2675 H   0  0  0  0  0  0  0  0  0  0  0  0
  1  2  2  0
  2  3  1  0
  2 53  1  0
  3 43  1  0
  3  4  2  0
  4 11  1  0
  4  5  1  0
  5  6  2  0
  6  7  1  0
  6 54  1  0
  7  8  2  0
  7 55  1  0
  8  9  1  0
  8 56  1  0
  9 10  2  0
  9 57  1  0
 10  1  1  0
 10  5  1  0
 11 12  1  0
 11 16  1  0
 12 13  2  0
 12 14  1  0
 14 15  1  0
 16 17  2  0
 16 18  2  0
 16 19  1  0
 19 20  2  0
 20 21  1  0
 20 58  1  0
 21 22  2  0
 21 59  1  0
 22 25  1  0
 22 23  1  0
 23 24  2  0
 23 60  1  0
 24 19  1  0
 24 61  1  0
 25 26  1  0
 26 62  1  0
 26 63  1  0
 26 64  1  0
 27 28  1  0
 27  1  1  0
 27 65  1  1
 28 29  2  0
 28 30  1  0
 30 31  1  0
 32 33  2  0
 32 34  2  0
 32 27  1  0
 35 36  2  0
 36 37  1  0
 36 66  1  0
 37 38  2  0
 37 67  1  0
 38 32  1  0
 38 39  1  0
 39 40  2  0
 39 68  1  0
 40 35  1  0
 40 69  1  0
 41 42  1  0
 41 70  1  0
 41 71  1  0
 41 72  1  0
 42 35  1  0
 43 44  1  0
 43 73  1  0
 43 74  1  0
 44 45  1  0
 44 75  1  0
 44 76  1  0
 45 46  2  0
 45 47  1  0
 47 48  1  0
 48 49  1  0
 48 77  1  0
 48 78  1  0
 49 50  1  0
 49 79  1  0
 49 80  1  0
 50 51  1  0
 51 52  1  0
 51 81  1  0
 51 82  1  0
 52 47  1  0
 52 83  1  0
 52 84  1  0
M  END
>  <minimizedAffinity>  (6) 
-11.20416

>  <mol_id>  (6) 
64270

>  <source_index>  (6) 
5

>  <layer>  (6) 
L2

>  <uniprot>  (6) 
Q14145

>  <paff>  (6) 
7.0605000000000002

>  <smiles>  (6) 
COc1ccc(S(=O)(=O)C(C(=O)O)c2cc(CCC(=O)N3CCOCC3)c(N(C(=O)O)S(=O)(=O)c3ccc(OC)cc3)c3ccccc23)cc1

>  <aimnet_interaction_kcal_mol>  (6) 
-129.1460904227641

$$$$
L2:Q14145:77634
     RDKit          3D

 76 81  0  0  0  0  0  0  0  0999 V2000
    4.1282    0.4712  -21.6926 C   0  0  0  0  0  0  0  0  0  0  0  0
    3.9789   -0.8078  -22.2169 C   0  0  0  0  0  0  0  0  0  0  0  0
    2.8406   -1.5804  -21.9696 C   0  0  0  0  0  0  0  0  0  0  0  0
    1.7661   -1.0218  -21.3076 C   0  0  0  0  0  0  0  0  0  0  0  0
    1.8412    0.2964  -20.8376 C   0  0  0  0  0  0  0  0  0  0  0  0
    0.8419    1.0833  -20.1809 C   0  0  0  0  0  0  0  0  0  0  0  0
    1.2851    2.2993  -19.7765 C   0  0  0  0  0  0  0  0  0  0  0  0
    2.9674    2.5693  -20.1794 S   0  0  0  0  0  0  0  0  0  0  0  0
    3.0522    1.0008  -20.9792 C   0  0  0  0  0  0  0  0  0  0  0  0
    5.3765    1.2978  -21.8659 C   0  0  0  0  0  0  0  0  0  0  0  0
    5.6273    1.8072  -24.9285 C   0  0  2  0  0  0  0  0  0  0  0  0
    4.6259    2.3354  -23.9331 C   0  0  0  0  0  0  0  0  0  0  0  0
    5.1210    2.5304  -22.5749 N   0  0  0  0  0  0  0  0  0  0  0  0
    6.1921    3.5409  -22.4735 C   0  0  1  0  0  0  0  0  0  0  0  0
    6.1760    4.1880  -21.1092 C   0  0  0  0  0  0  0  0  0  0  0  0
    7.5657    3.0583  -22.9216 C   0  0  0  0  0  0  0  0  0  0  0  0
    8.6162    3.0164  -22.0746 N   0  0  0  0  0  0  0  0  0  0  0  0
    9.8149    2.6768  -22.5845 C   0  0  0  0  0  0  0  0  0  0  0  0
   10.0266    2.3690  -23.9134 C   0  0  0  0  0  0  0  0  0  0  0  0
    8.9480    2.3979  -24.7817 C   0  0  0  0  0  0  0  0  0  0  0  0
    7.7024    2.7395  -24.2817 C   0  0  0  0  0  0  0  0  0  0  0  0
    6.6398    2.8247  -25.1241 O   0  0  0  0  0  0  0  0  0  0  0  0
    6.0938    1.0881  -27.2845 C   0  0  0  0  0  0  0  0  0  0  0  0
    5.0290    1.4715  -26.2751 C   0  0  0  0  0  0  0  0  0  0  0  0
    2.7821   -3.0427  -22.3746 C   0  0  1  0  0  0  0  0  0  0  0  0
    3.2324   -3.2960  -23.7930 C   0  0  0  0  0  0  0  0  0  0  0  0
    4.2015   -4.2737  -24.1272 C   0  0  0  0  0  0  0  0  0  0  0  0
    4.8523   -4.3167  -25.3494 C   0  0  0  0  0  0  0  0  0  0  0  0
    5.8534   -5.3660  -25.6845 C   0  0  0  0  0  0  0  0  0  0  0  0
    4.4845   -3.3118  -26.2530 C   0  0  0  0  0  0  0  0  0  0  0  0
    3.4443   -2.4091  -25.9696 C   0  0  0  0  0  0  0  0  0  0  0  0
    3.3387   -1.5363  -27.0161 N   0  0  0  0  0  0  0  0  0  0  0  0
    4.2103   -1.8691  -27.9198 N   0  0  0  0  0  0  0  0  0  0  0  0
    4.9188   -2.9343  -27.4872 N   0  0  0  0  0  0  0  0  0  0  0  0
    5.8746   -3.5518  -28.3842 C   0  0  0  0  0  0  0  0  0  0  0  0
    2.6971   -2.4971  -24.7928 C   0  0  0  0  0  0  0  0  0  0  0  0
    1.3857   -1.8011  -24.6763 C   0  0  0  0  0  0  0  0  0  0  0  0
    3.5969   -3.7913  -21.3217 C   0  0  0  0  0  0  0  0  0  0  0  0
    3.0661   -5.1061  -20.8856 C   0  0  0  0  0  0  0  0  0  0  0  0
    1.9037   -5.2843  -20.6046 O   0  0  0  0  0  0  0  0  0  0  0  0
    4.0381   -6.0377  -20.8268 O   0  0  0  0  0  0  0  0  0  0  0  0
    3.7525   -6.9001  -20.4528 H   0  0  0  0  0  0  0  0  0  0  0  0
    4.7528   -1.2164  -22.8562 H   0  0  0  0  0  0  0  0  0  0  0  0
    0.8595   -1.5960  -21.1703 H   0  0  0  0  0  0  0  0  0  0  0  0
   -0.1678    0.7374  -20.0216 H   0  0  0  0  0  0  0  0  0  0  0  0
    0.7233    3.0584  -19.2669 H   0  0  0  0  0  0  0  0  0  0  0  0
    5.7768    1.5504  -20.8745 H   0  0  0  0  0  0  0  0  0  0  0  0
    6.1482    0.6834  -22.3548 H   0  0  0  0  0  0  0  0  0  0  0  0
    6.1164    0.9140  -24.5216 H   0  0  0  0  0  0  0  0  0  0  0  0
    3.7688    1.6658  -23.8947 H   0  0  0  0  0  0  0  0  0  0  0  0
    4.2602    3.2927  -24.3018 H   0  0  0  0  0  0  0  0  0  0  0  0
    5.9227    4.3073  -23.1947 H   0  0  0  0  0  0  0  0  0  0  0  0
    6.6353    3.5501  -20.3608 H   0  0  0  0  0  0  0  0  0  0  0  0
    5.1479    4.3894  -20.8212 H   0  0  0  0  0  0  0  0  0  0  0  0
    6.7098    5.1319  -21.1163 H   0  0  0  0  0  0  0  0  0  0  0  0
   10.6575    2.6706  -21.8943 H   0  0  0  0  0  0  0  0  0  0  0  0
   11.0178    2.1155  -24.2619 H   0  0  0  0  0  0  0  0  0  0  0  0
    9.0536    2.1675  -25.8320 H   0  0  0  0  0  0  0  0  0  0  0  0
    5.6551    0.5529  -28.1170 H   0  0  0  0  0  0  0  0  0  0  0  0
    6.8424    0.4352  -26.8324 H   0  0  0  0  0  0  0  0  0  0  0  0
    6.5978    1.9607  -27.6869 H   0  0  0  0  0  0  0  0  0  0  0  0
    4.3181    0.6538  -26.1448 H   0  0  0  0  0  0  0  0  0  0  0  0
    4.4445    2.3182  -26.6324 H   0  0  0  0  0  0  0  0  0  0  0  0
    1.7414   -3.3515  -22.2935 H   0  0  0  0  0  0  0  0  0  0  0  0
    4.4619   -5.0350  -23.4037 H   0  0  0  0  0  0  0  0  0  0  0  0
    6.0135   -6.0518  -24.8513 H   0  0  0  0  0  0  0  0  0  0  0  0
    6.8219   -4.9332  -25.9248 H   0  0  0  0  0  0  0  0  0  0  0  0
    5.5389   -5.9471  -26.5496 H   0  0  0  0  0  0  0  0  0  0  0  0
    5.9487   -2.9060  -29.2488 H   0  0  0  0  0  0  0  0  0  0  0  0
    5.5187   -4.5345  -28.6835 H   0  0  0  0  0  0  0  0  0  0  0  0
    6.8449   -3.6353  -27.9055 H   0  0  0  0  0  0  0  0  0  0  0  0
    1.0516   -1.5126  -25.6670 H   0  0  0  0  0  0  0  0  0  0  0  0
    1.4372   -0.8886  -24.0871 H   0  0  0  0  0  0  0  0  0  0  0  0
    0.6103   -2.4308  -24.2355 H   0  0  0  0  0  0  0  0  0  0  0  0
    3.5797   -3.2004  -20.4149 H   0  0  0  0  0  0  0  0  0  0  0  0
    4.6312   -3.8556  -21.6372 H   0  0  0  0  0  0  0  0  0  0  0  0
  1  2  2  0
  2  3  1  0
  2 43  1  0
  3 25  1  0
  3  4  2  0
  4  5  1  0
  4 44  1  0
  5  6  1  0
  6  7  2  0
  6 45  1  0
  7  8  1  0
  7 46  1  0
  8  9  1  0
  9  1  1  0
  9  5  2  0
 10  1  1  0
 10 47  1  0
 10 48  1  0
 11 12  1  0
 11 49  1  1
 12 13  1  0
 12 50  1  0
 12 51  1  0
 13 10  1  0
 13 14  1  0
 14 15  1  0
 14 16  1  0
 14 52  1  6
 15 53  1  0
 15 54  1  0
 15 55  1  0
 16 17  2  0
 17 18  1  0
 18 19  2  0
 18 56  1  0
 19 20  1  0
 19 57  1  0
 20 21  2  0
 20 58  1  0
 21 22  1  0
 21 16  1  0
 22 11  1  0
 23 24  1  0
 23 59  1  0
 23 60  1  0
 23 61  1  0
 24 11  1  0
 24 62  1  0
 24 63  1  0
 25 38  1  0
 25 26  1  0
 25 64  1  6
 26 27  2  0
 27 28  1  0
 27 65  1  0
 28 29  1  0
 28 30  2  0
 29 66  1  0
 29 67  1  0
 29 68  1  0
 30 31  1  0
 31 32  1  0
 31 36  2  0
 32 33  2  0
 33 34  1  0
 34 35  1  0
 34 30  1  0
 35 69  1  0
 35 70  1  0
 35 71  1  0
 36 37  1  0
 36 26  1  0
 37 72  1  0
 37 73  1  0
 37 74  1  0
 38 39  1  0
 38 75  1  0
 38 76  1  0
 39 40  2  0
 39 41  1  0
 41 42  1  0
M  END
>  <minimizedAffinity>  (7) 
-9.86229

>  <mol_id>  (7) 
77634

>  <source_index>  (7) 
6

>  <layer>  (7) 
L2

>  <uniprot>  (7) 
Q14145

>  <paff>  (7) 
8

>  <smiles>  (7) 
CC[C@@H]1CN(Cc2cc([C@H](CC(=O)O)c3cc(C)c4c(nnn4C)c3C)cc3ccsc23)[C@@H](C)c2ncccc2O1

>  <aimnet_interaction_kcal_mol>  (7) 
-91.997622842535648

$$$$
L2:Q14145:83648
     RDKit          3D

 70 75  0  0  0  0  0  0  0  0999 V2000
    2.1821    1.5117  -20.9163 C   0  0  0  0  0  0  0  0  0  0  0  0
    2.6584    0.2874  -21.3493 C   0  0  0  0  0  0  0  0  0  0  0  0
    1.9058   -0.8722  -21.1941 C   0  0  0  0  0  0  0  0  0  0  0  0
    0.6379   -0.8076  -20.6380 C   0  0  0  0  0  0  0  0  0  0  0  0
    0.1595    0.3964  -20.0946 C   0  0  0  0  0  0  0  0  0  0  0  0
   -1.0418    0.6961  -19.3623 C   0  0  0  0  0  0  0  0  0  0  0  0
   -1.2069    2.0124  -19.0797 C   0  0  0  0  0  0  0  0  0  0  0  0
    0.1091    2.9801  -19.6898 S   0  0  0  0  0  0  0  0  0  0  0  0
    0.9359    1.5547  -20.3080 C   0  0  0  0  0  0  0  0  0  0  0  0
    3.0177    2.7507  -21.0021 C   0  0  0  0  0  0  0  0  0  0  0  0
    4.4689    1.6322  -24.1502 C   0  0  2  0  0  0  0  0  0  0  0  0
    4.0823    2.8054  -23.2616 C   0  0  0  0  0  0  0  0  0  0  0  0
    4.1744    2.5078  -21.8459 N   0  0  0  0  0  0  0  0  0  0  0  0
    5.6496    2.7913  -21.0978 S   0  0  0  0  0  0  0  0  0  0  0  0
    5.7973    1.6833  -20.0985 O   0  0  0  0  0  0  0  0  0  0  0  0
    5.7315    4.1734  -20.5851 O   0  0  0  0  0  0  0  0  0  0  0  0
    6.7604    2.6027  -22.4547 C   0  0  0  0  0  0  0  0  0  0  0  0
    7.8394    3.4812  -22.4979 C   0  0  0  0  0  0  0  0  0  0  0  0
    8.9695    3.0391  -23.1632 C   0  0  0  0  0  0  0  0  0  0  0  0
   10.4401    3.9617  -23.1132 Cl  0  0  0  0  0  0  0  0  0  0  0  0
    8.9320    1.8113  -23.8220 C   0  0  0  0  0  0  0  0  0  0  0  0
    7.8159    1.0808  -23.9254 N   0  0  0  0  0  0  0  0  0  0  0  0
    6.7082    1.5128  -23.3386 C   0  0  0  0  0  0  0  0  0  0  0  0
    5.5665    0.8503  -23.5945 O   0  0  0  0  0  0  0  0  0  0  0  0
    5.2469    1.0374  -26.4771 C   0  0  0  0  0  0  0  0  0  0  0  0
    4.7866    2.1302  -25.5417 C   0  0  0  0  0  0  0  0  0  0  0  0
    2.6276   -2.1534  -21.5546 C   0  0  2  0  0  0  0  0  0  0  0  0
    3.1542   -2.3101  -22.9692 C   0  0  0  0  0  0  0  0  0  0  0  0
    4.3912   -2.9641  -23.1153 C   0  0  0  0  0  0  0  0  0  0  0  0
    4.9564   -3.2318  -24.3428 C   0  0  0  0  0  0  0  0  0  0  0  0
    6.4765   -4.1047  -24.4097 Cl  0  0  0  0  0  0  0  0  0  0  0  0
    4.3045   -2.7711  -25.4844 C   0  0  0  0  0  0  0  0  0  0  0  0
    3.1005   -2.0511  -25.3318 C   0  0  0  0  0  0  0  0  0  0  0  0
    2.7496   -1.5696  -26.5612 N   0  0  0  0  0  0  0  0  0  0  0  0
    3.6239   -1.9761  -27.4338 N   0  0  0  0  0  0  0  0  0  0  0  0
    4.5677   -2.7208  -26.8151 N   0  0  0  0  0  0  0  0  0  0  0  0
    5.5954   -3.3557  -27.6168 C   0  0  0  0  0  0  0  0  0  0  0  0
    2.4610   -1.8875  -24.0954 C   0  0  0  0  0  0  0  0  0  0  0  0
    1.0902   -1.3157  -24.0730 C   0  0  0  0  0  0  0  0  0  0  0  0
    1.8157   -3.3600  -21.1091 C   0  0  0  0  0  0  0  0  0  0  0  0
    2.6339   -4.5640  -20.7706 C   0  0  0  0  0  0  0  0  0  0  0  0
    3.8457   -4.6749  -20.7405 O   0  0  0  0  0  0  0  0  0  0  0  0
    1.8154   -5.5747  -20.4669 O   0  0  0  0  0  0  0  0  0  0  0  0
    2.3054   -6.3451  -20.1234 H   0  0  0  0  0  0  0  0  0  0  0  0
    3.6489    0.1991  -21.7823 H   0  0  0  0  0  0  0  0  0  0  0  0
   -0.0113   -1.6661  -20.6503 H   0  0  0  0  0  0  0  0  0  0  0  0
   -1.7592   -0.0400  -19.0378 H   0  0  0  0  0  0  0  0  0  0  0  0
   -1.9971    2.4957  -18.5363 H   0  0  0  0  0  0  0  0  0  0  0  0
    2.4386    3.5854  -21.3966 H   0  0  0  0  0  0  0  0  0  0  0  0
    3.3175    3.0639  -20.0005 H   0  0  0  0  0  0  0  0  0  0  0  0
    3.6625    0.9040  -24.1639 H   0  0  0  0  0  0  0  0  0  0  0  0
    3.0510    3.0599  -23.4831 H   0  0  0  0  0  0  0  0  0  0  0  0
    4.6830    3.6821  -23.5074 H   0  0  0  0  0  0  0  0  0  0  0  0
    7.7344    4.4757  -22.0869 H   0  0  0  0  0  0  0  0  0  0  0  0
    9.8194    1.4202  -24.3028 H   0  0  0  0  0  0  0  0  0  0  0  0
    5.4941    1.4597  -27.4444 H   0  0  0  0  0  0  0  0  0  0  0  0
    4.4709    0.2962  -26.6242 H   0  0  0  0  0  0  0  0  0  0  0  0
    6.1277    0.5272  -26.0963 H   0  0  0  0  0  0  0  0  0  0  0  0
    3.8959    2.6300  -25.9231 H   0  0  0  0  0  0  0  0  0  0  0  0
    5.5643    2.8963  -25.4798 H   0  0  0  0  0  0  0  0  0  0  0  0
    3.5191   -2.1330  -20.9354 H   0  0  0  0  0  0  0  0  0  0  0  0
    4.9222   -3.2975  -22.2404 H   0  0  0  0  0  0  0  0  0  0  0  0
    5.5721   -2.8759  -28.5850 H   0  0  0  0  0  0  0  0  0  0  0  0
    5.3805   -4.4167  -27.7265 H   0  0  0  0  0  0  0  0  0  0  0  0
    6.5648   -3.2165  -27.1546 H   0  0  0  0  0  0  0  0  0  0  0  0
    0.7676   -1.1865  -25.0993 H   0  0  0  0  0  0  0  0  0  0  0  0
    1.0449   -0.3508  -23.5751 H   0  0  0  0  0  0  0  0  0  0  0  0
    0.3709   -1.9728  -23.5790 H   0  0  0  0  0  0  0  0  0  0  0  0
    1.0623   -3.6130  -21.8543 H   0  0  0  0  0  0  0  0  0  0  0  0
    1.2705   -3.1288  -20.1984 H   0  0  0  0  0  0  0  0  0  0  0  0
  1  2  2  0
  2  3  1  0
  2 45  1  0
  3 27  1  0
  3  4  2  0
  4  5  1  0
  4 46  1  0
  5  6  1  0
  6  7  2  0
  6 47  1  0
  7  8  1  0
  7 48  1  0
  8  9  1  0
  9  1  1  0
  9  5  2  0
 10  1  1  0
 10 49  1  0
 10 50  1  0
 11 12  1  0
 11 51  1  6
 12 13  1  0
 12 52  1  0
 12 53  1  0
 13 10  1  0
 13 14  1  0
 14 15  2  0
 14 16  2  0
 14 17  1  0
 17 18  2  0
 18 19  1  0
 18 54  1  0
 19 20  1  0
 19 21  2  0
 21 22  1  0
 21 55  1  0
 22 23  2  0
 23 24  1  0
 23 17  1  0
 24 11  1  0
 25 26  1  0
 25 56  1  0
 25 57  1  0
 25 58  1  0
 26 11  1  0
 26 59  1  0
 26 60  1  0
 27 40  1  0
 27 28  1  0
 27 61  1  1
 28 29  2  0
 29 30  1  0
 29 62  1  0
 30 31  1  0
 30 32  2  0
 32 33  1  0
 33 34  1  0
 33 38  2  0
 34 35  2  0
 35 36  1  0
 36 37  1  0
 36 32  1  0
 37 63  1  0
 37 64  1  0
 37 65  1  0
 38 39  1  0
 38 28  1  0
 39 66  1  0
 39 67  1  0
 39 68  1  0
 40 41  1  0
 40 69  1  0
 40 70  1  0
 41 42  2  0
 41 43  1  0
 43 44  1  0
M  END
>  <minimizedAffinity>  (8) 
-10.88000

>  <mol_id>  (8) 
83648

>  <source_index>  (8) 
7

>  <layer>  (8) 
L2

>  <uniprot>  (8) 
Q14145

>  <paff>  (8) 
8

>  <smiles>  (8) 
CC[C@@H]1CN(Cc2cc([C@@H](CC(=O)O)c3cc(Cl)c4c(nnn4C)c3C)cc3ccsc23)S(=O)(=O)c2cc(Cl)cnc2O1

>  <aimnet_interaction_kcal_mol>  (8) 
-98.852279970745585

$$$$
L2:Q14145:122553
     RDKit          3D

 75 80  0  0  0  0  0  0  0  0999 V2000
    5.8444    1.2529  -25.8544 C   0  0  0  0  0  0  0  0  0  0  0  0
    5.1724    0.0804  -26.1745 C   0  0  0  0  0  0  0  0  0  0  0  0
    5.7002   -0.8913  -27.0356 C   0  0  0  0  0  0  0  0  0  0  0  0
    6.8693   -0.6088  -27.7160 C   0  0  0  0  0  0  0  0  0  0  0  0
    7.4926    0.6285  -27.5550 C   0  0  0  0  0  0  0  0  0  0  0  0
    8.5706    1.1747  -28.3124 C   0  0  0  0  0  0  0  0  0  0  0  0
    8.8584    2.4503  -27.9755 C   0  0  0  0  0  0  0  0  0  0  0  0
    7.8377    3.0617  -26.6943 S   0  0  0  0  0  0  0  0  0  0  0  0
    6.9723    1.5410  -26.6146 C   0  0  0  0  0  0  0  0  0  0  0  0
    5.3771    2.1604  -24.7521 C   0  0  0  0  0  0  0  0  0  0  0  0
    3.5372    0.6592  -22.8350 C   0  0  2  0  0  0  0  0  0  0  0  0
    5.0386    0.5210  -23.0018 C   0  0  0  0  0  0  0  0  0  0  0  0
    5.7457    1.7095  -23.4061 N   0  0  0  0  0  0  0  0  0  0  0  0
    5.7596    2.8062  -22.4294 C   0  0  2  0  0  0  0  0  0  0  0  0
    7.1419    3.4113  -22.3657 C   0  0  0  0  0  0  0  0  0  0  0  0
    5.2411    2.4249  -21.0597 C   0  0  0  0  0  0  0  0  0  0  0  0
    6.0455    2.5575  -19.9794 N   0  0  0  0  0  0  0  0  0  0  0  0
    5.4519    2.6419  -18.7986 C   0  0  0  0  0  0  0  0  0  0  0  0
    6.2751    2.9531  -17.7319 O   0  0  0  0  0  0  0  0  0  0  0  0
    4.1025    2.4260  -18.5953 C   0  0  0  0  0  0  0  0  0  0  0  0
    3.3074    2.1271  -19.6959 C   0  0  0  0  0  0  0  0  0  0  0  0
    3.8987    2.0711  -20.9481 C   0  0  0  0  0  0  0  0  0  0  0  0
    3.1327    1.8119  -22.0487 O   0  0  0  0  0  0  0  0  0  0  0  0
    5.7329    3.2986  -17.0007 H   0  0  0  0  0  0  0  0  0  0  0  0
    1.4658   -0.6716  -22.3150 C   0  0  0  0  0  0  0  0  0  0  0  0
    2.9696   -0.5979  -22.2140 C   0  0  0  0  0  0  0  0  0  0  0  0
    4.9307   -2.1942  -27.1979 C   0  0  2  0  0  0  0  0  0  0  0  0
    4.8477   -2.9036  -25.8659 C   0  0  0  0  0  0  0  0  0  0  0  0
    5.9969   -3.3987  -25.2594 C   0  0  0  0  0  0  0  0  0  0  0  0
    6.0479   -3.9565  -24.0313 N   0  0  0  0  0  0  0  0  0  0  0  0
    4.8975   -3.9965  -23.3970 C   0  0  0  0  0  0  0  0  0  0  0  0
    3.6884   -3.5753  -23.9211 C   0  0  0  0  0  0  0  0  0  0  0  0
    3.6251   -2.9910  -25.1727 C   0  0  0  0  0  0  0  0  0  0  0  0
    2.3532   -2.4385  -25.6955 C   0  0  0  0  0  0  0  0  0  0  0  0
    2.6478   -3.8088  -22.9794 N   0  0  0  0  0  0  0  0  0  0  0  0
    3.3158   -4.2771  -21.7589 N   0  0  0  0  0  0  0  0  0  0  0  0
    4.7273   -4.4451  -22.0638 N   0  0  0  0  0  0  0  0  0  0  0  0
    5.2400   -5.7665  -21.7367 C   0  0  0  0  0  0  0  0  0  0  0  0
    2.0000   -4.5151  -23.3168 H   0  0  0  0  0  0  0  0  0  0  0  0
    3.3025   -3.4403  -21.1809 H   0  0  0  0  0  0  0  0  0  0  0  0
    5.3912   -3.1474  -28.3060 C   0  0  0  0  0  0  0  0  0  0  0  0
    5.1150   -2.6219  -29.6967 C   0  0  0  0  0  0  0  0  0  0  0  0
    4.6561   -1.5241  -29.9343 O   0  0  0  0  0  0  0  0  0  0  0  0
    5.4135   -3.5158  -30.6400 O   0  0  0  0  0  0  0  0  0  0  0  0
    5.1697   -3.1547  -31.5122 H   0  0  0  0  0  0  0  0  0  0  0  0
    4.1835   -0.0864  -25.7690 H   0  0  0  0  0  0  0  0  0  0  0  0
    7.2780   -1.3088  -28.4306 H   0  0  0  0  0  0  0  0  0  0  0  0
    9.0781    0.6294  -29.0939 H   0  0  0  0  0  0  0  0  0  0  0  0
    9.5991    3.1002  -28.4057 H   0  0  0  0  0  0  0  0  0  0  0  0
    5.8172    3.1411  -24.9202 H   0  0  0  0  0  0  0  0  0  0  0  0
    4.2906    2.3177  -24.8350 H   0  0  0  0  0  0  0  0  0  0  0  0
    3.0868    0.8388  -23.8119 H   0  0  0  0  0  0  0  0  0  0  0  0
    5.2285   -0.2600  -23.7317 H   0  0  0  0  0  0  0  0  0  0  0  0
    5.4462    0.1475  -22.0633 H   0  0  0  0  0  0  0  0  0  0  0  0
    5.0751    3.5941  -22.7958 H   0  0  0  0  0  0  0  0  0  0  0  0
    7.8397    2.6922  -21.9401 H   0  0  0  0  0  0  0  0  0  0  0  0
    7.1186    4.2981  -21.7425 H   0  0  0  0  0  0  0  0  0  0  0  0
    7.4822    3.6857  -23.3598 H   0  0  0  0  0  0  0  0  0  0  0  0
    3.7008    2.4293  -17.5965 H   0  0  0  0  0  0  0  0  0  0  0  0
    2.2460    1.9567  -19.5939 H   0  0  0  0  0  0  0  0  0  0  0  0
    1.0980   -1.6095  -21.9072 H   0  0  0  0  0  0  0  0  0  0  0  0
    1.1461   -0.6207  -23.3532 H   0  0  0  0  0  0  0  0  0  0  0  0
    0.9947    0.1497  -21.7822 H   0  0  0  0  0  0  0  0  0  0  0  0
    3.4183   -1.4634  -22.6940 H   0  0  0  0  0  0  0  0  0  0  0  0
    3.2588   -0.6237  -21.1599 H   0  0  0  0  0  0  0  0  0  0  0  0
    3.9240   -1.8910  -27.4721 H   0  0  0  0  0  0  0  0  0  0  0  0
    6.9436   -3.3236  -25.7782 H   0  0  0  0  0  0  0  0  0  0  0  0
    1.5086   -2.7239  -25.0749 H   0  0  0  0  0  0  0  0  0  0  0  0
    2.1680   -2.7816  -26.7034 H   0  0  0  0  0  0  0  0  0  0  0  0
    2.3852   -1.3508  -25.7234 H   0  0  0  0  0  0  0  0  0  0  0  0
    5.1223   -5.9738  -20.6744 H   0  0  0  0  0  0  0  0  0  0  0  0
    6.2983   -5.7962  -21.9953 H   0  0  0  0  0  0  0  0  0  0  0  0
    4.7315   -6.5530  -22.2954 H   0  0  0  0  0  0  0  0  0  0  0  0
    4.8793   -4.1041  -28.2043 H   0  0  0  0  0  0  0  0  0  0  0  0
    6.4530   -3.3682  -28.2064 H   0  0  0  0  0  0  0  0  0  0  0  0
  1  2  2  0
  2  3  1  0
  2 46  1  0
  3 27  1  0
  3  4  2  0
  4  5  1  0
  4 47  1  0
  5  6  1  0
  6  7  2  0
  6 48  1  0
  7  8  1  0
  7 49  1  0
  8  9  1  0
  9  1  1  0
  9  5  2  0
 10  1  1  0
 10 50  1  0
 10 51  1  0
 11 12  1  0
 11 52  1  6
 12 13  1  0
 12 53  1  0
 12 54  1  0
 13 10  1  0
 13 14  1  0
 14 15  1  0
 14 16  1  0
 14 55  1  6
 15 56  1  0
 15 57  1  0
 15 58  1  0
 16 17  2  0
 17 18  1  0
 18 19  1  0
 18 20  2  0
 19 24  1  0
 20 21  1  0
 20 59  1  0
 21 22  2  0
 21 60  1  0
 22 23  1  0
 22 16  1  0
 23 11  1  0
 25 26  1  0
 25 61  1  0
 25 62  1  0
 25 63  1  0
 26 11  1  0
 26 64  1  0
 26 65  1  0
 27 41  1  0
 27 28  1  0
 27 66  1  6
 28 29  2  0
 29 30  1  0
 29 67  1  0
 30 31  2  0
 31 32  1  0
 32 33  2  0
 32 35  1  0
 33 34  1  0
 33 28  1  0
 34 68  1  0
 34 69  1  0
 34 70  1  0
 35 36  1  0
 35 39  1  0
 36 37  1  0
 36 40  1  0
 37 38  1  0
 37 31  1  0
 38 71  1  0
 38 72  1  0
 38 73  1  0
 41 42  1  0
 41 74  1  0
 41 75  1  0
 42 43  2  0
 42 44  1  0
 44 45  1  0
M  END
>  <minimizedAffinity>  (9) 
-10.13918

>  <mol_id>  (9) 
122553

>  <source_index>  (9) 
8

>  <layer>  (9) 
L2

>  <uniprot>  (9) 
Q14145

>  <paff>  (9) 
7.6989999999999998

>  <smiles>  (9) 
CC[C@@H]1CN(Cc2cc([C@@H](CC(=O)O)c3cnc4c(c3C)NNN4C)cc3ccsc23)C(C)c2nc(O)ccc2O1

>  <aimnet_interaction_kcal_mol>  (9) 
-91.976010685566777

$$$$
L2:Q14145:143441
     RDKit          3D

 74 79  0  0  0  0  0  0  0  0999 V2000
    2.3063    1.4317  -20.8963 C   0  0  0  0  0  0  0  0  0  0  0  0
    2.6942    0.2106  -21.4197 C   0  0  0  0  0  0  0  0  0  0  0  0
    1.9130   -0.9260  -21.2465 C   0  0  0  0  0  0  0  0  0  0  0  0
    0.6563   -0.8257  -20.6775 C   0  0  0  0  0  0  0  0  0  0  0  0
    0.2197    0.3921  -20.1318 C   0  0  0  0  0  0  0  0  0  0  0  0
   -0.9824    0.7285  -19.4196 C   0  0  0  0  0  0  0  0  0  0  0  0
   -1.1099    2.0496  -19.1386 C   0  0  0  0  0  0  0  0  0  0  0  0
    0.2509    2.9726  -19.7191 S   0  0  0  0  0  0  0  0  0  0  0  0
    1.0470    1.5233  -20.3195 C   0  0  0  0  0  0  0  0  0  0  0  0
    3.2541    2.5895  -20.9101 C   0  0  0  0  0  0  0  0  0  0  0  0
    4.6455    2.1478  -24.4132 C   0  0  2  0  0  0  0  0  0  0  0  0
    3.9334    2.8373  -23.2516 C   0  0  0  0  0  0  0  0  0  0  0  0
    4.2865    2.3573  -21.9184 N   0  0  0  0  0  0  0  0  0  0  0  0
    5.8553    2.6924  -21.3856 S   0  0  0  0  0  0  0  0  0  0  0  0
    6.2017    4.1135  -21.5843 O   0  0  0  0  0  0  0  0  0  0  0  0
    5.9810    2.1513  -19.9981 O   0  0  0  0  0  0  0  0  0  0  0  0
    6.8226    1.6085  -22.4111 C   0  0  0  0  0  0  0  0  0  0  0  0
    8.1440    1.4948  -21.9815 C   0  0  0  0  0  0  0  0  0  0  0  0
    8.9048    0.4537  -22.4651 C   0  0  0  0  0  0  0  0  0  0  0  0
   10.5361    0.2078  -21.8855 Cl  0  0  0  0  0  0  0  0  0  0  0  0
    8.3347   -0.4260  -23.3777 C   0  0  0  0  0  0  0  0  0  0  0  0
    7.0884   -0.2773  -23.8276 N   0  0  0  0  0  0  0  0  0  0  0  0
    6.3502    0.7536  -23.4275 C   0  0  0  0  0  0  0  0  0  0  0  0
    5.1611    0.8486  -24.0296 O   0  0  0  0  0  0  0  0  0  0  0  0
    6.2235    2.4584  -26.3672 C   0  0  0  0  0  0  0  0  0  0  0  0
    5.6578    3.0485  -25.0911 C   0  0  0  0  0  0  0  0  0  0  0  0
    2.6080   -2.2270  -21.5704 C   0  0  2  0  0  0  0  0  0  0  0  0
    3.0588   -2.4874  -22.9927 C   0  0  0  0  0  0  0  0  0  0  0  0
    4.2236   -3.2648  -23.1271 C   0  0  0  0  0  0  0  0  0  0  0  0
    4.8071   -3.4863  -24.3516 C   0  0  0  0  0  0  0  0  0  0  0  0
    4.2500   -2.8887  -25.4773 C   0  0  0  0  0  0  0  0  0  0  0  0
    3.1040   -2.0871  -25.3261 C   0  0  0  0  0  0  0  0  0  0  0  0
    2.8720   -1.4585  -26.5160 N   0  0  0  0  0  0  0  0  0  0  0  0
    3.7569   -1.8718  -27.3786 N   0  0  0  0  0  0  0  0  0  0  0  0
    4.5960   -2.7455  -26.7849 N   0  0  0  0  0  0  0  0  0  0  0  0
    5.6048   -3.4181  -27.5816 C   0  0  0  0  0  0  0  0  0  0  0  0
    2.4027   -2.0099  -24.1138 C   0  0  0  0  0  0  0  0  0  0  0  0
    1.0122   -1.4987  -24.1176 C   0  0  0  0  0  0  0  0  0  0  0  0
    5.9798   -4.2345  -24.5480 O   0  0  0  0  0  0  0  0  0  0  0  0
    6.6013   -4.8308  -23.5235 C   0  0  0  0  0  0  0  0  0  0  0  0
    7.6864   -5.4481  -23.9553 F   0  0  0  0  0  0  0  0  0  0  0  0
    5.8102   -5.7402  -22.8898 F   0  0  0  0  0  0  0  0  0  0  0  0
    6.9947   -3.9337  -22.5527 F   0  0  0  0  0  0  0  0  0  0  0  0
    1.8068   -3.3959  -21.0234 C   0  0  0  0  0  0  0  0  0  0  0  0
    2.6403   -4.5485  -20.5902 C   0  0  0  0  0  0  0  0  0  0  0  0
    3.8186   -4.5329  -20.2919 O   0  0  0  0  0  0  0  0  0  0  0  0
    1.9025   -5.6544  -20.5354 O   0  0  0  0  0  0  0  0  0  0  0  0
    2.4053   -6.3972  -20.1531 H   0  0  0  0  0  0  0  0  0  0  0  0
    3.6329    0.1106  -21.9540 H   0  0  0  0  0  0  0  0  0  0  0  0
   -0.0143   -1.6683  -20.6768 H   0  0  0  0  0  0  0  0  0  0  0  0
   -1.7279    0.0153  -19.1074 H   0  0  0  0  0  0  0  0  0  0  0  0
   -1.8957    2.5560  -18.6095 H   0  0  0  0  0  0  0  0  0  0  0  0
    2.7289    3.5264  -21.1182 H   0  0  0  0  0  0  0  0  0  0  0  0
    3.7103    2.7145  -19.9319 H   0  0  0  0  0  0  0  0  0  0  0  0
    3.8890    1.8682  -25.1507 H   0  0  0  0  0  0  0  0  0  0  0  0
    2.8739    2.6444  -23.3566 H   0  0  0  0  0  0  0  0  0  0  0  0
    4.0736    3.9180  -23.3137 H   0  0  0  0  0  0  0  0  0  0  0  0
    8.5290    2.2038  -21.2661 H   0  0  0  0  0  0  0  0  0  0  0  0
    8.8957   -1.2692  -23.7568 H   0  0  0  0  0  0  0  0  0  0  0  0
    6.7935    3.2038  -26.9152 H   0  0  0  0  0  0  0  0  0  0  0  0
    5.4284    2.1350  -27.0341 H   0  0  0  0  0  0  0  0  0  0  0  0
    6.8614    1.6014  -26.1657 H   0  0  0  0  0  0  0  0  0  0  0  0
    5.1322    3.9709  -25.3326 H   0  0  0  0  0  0  0  0  0  0  0  0
    6.4589    3.3254  -24.4032 H   0  0  0  0  0  0  0  0  0  0  0  0
    3.5387   -2.1754  -21.0114 H   0  0  0  0  0  0  0  0  0  0  0  0
    4.6697   -3.6934  -22.2481 H   0  0  0  0  0  0  0  0  0  0  0  0
    5.7088   -2.8524  -28.4966 H   0  0  0  0  0  0  0  0  0  0  0  0
    5.2811   -4.4317  -27.8113 H   0  0  0  0  0  0  0  0  0  0  0  0
    6.5454   -3.4405  -27.0437 H   0  0  0  0  0  0  0  0  0  0  0  0
    0.6444   -1.5076  -25.1368 H   0  0  0  0  0  0  0  0  0  0  0  0
    0.9504   -0.4799  -23.7440 H   0  0  0  0  0  0  0  0  0  0  0  0
    0.3401   -2.1185  -23.5221 H   0  0  0  0  0  0  0  0  0  0  0  0
    1.0532   -3.7047  -21.7460 H   0  0  0  0  0  0  0  0  0  0  0  0
    1.2630   -3.1121  -20.1278 H   0  0  0  0  0  0  0  0  0  0  0  0
  1  2  2  0
  2  3  1  0
  2 49  1  0
  3 27  1  0
  3  4  2  0
  4  5  1  0
  4 50  1  0
  5  6  1  0
  6  7  2  0
  6 51  1  0
  7  8  1  0
  7 52  1  0
  8  9  1  0
  9  1  1  0
  9  5  2  0
 10  1  1  0
 10 53  1  0
 10 54  1  0
 11 12  1  0
 11 55  1  6
 12 13  1  0
 12 56  1  0
 12 57  1  0
 13 10  1  0
 13 14  1  0
 14 15  2  0
 14 16  2  0
 14 17  1  0
 17 18  2  0
 18 19  1  0
 18 58  1  0
 19 20  1  0
 19 21  2  0
 21 22  1  0
 21 59  1  0
 22 23  2  0
 23 24  1  0
 23 17  1  0
 24 11  1  0
 25 26  1  0
 25 60  1  0
 25 61  1  0
 25 62  1  0
 26 11  1  0
 26 63  1  0
 26 64  1  0
 27 44  1  0
 27 28  1  0
 27 65  1  1
 28 29  2  0
 29 30  1  0
 29 66  1  0
 30 39  1  0
 30 31  2  0
 31 32  1  0
 32 33  1  0
 32 37  2  0
 33 34  2  0
 34 35  1  0
 35 36  1  0
 35 31  1  0
 36 67  1  0
 36 68  1  0
 36 69  1  0
 37 38  1  0
 37 28  1  0
 38 70  1  0
 38 71  1  0
 38 72  1  0
 39 40  1  0
 40 41  1  0
 40 42  1  0
 40 43  1  0
 44 45  1  0
 44 73  1  0
 44 74  1  0
 45 46  2  0
 45 47  1  0
 47 48  1  0
M  END
>  <minimizedAffinity>  (10) 
-10.00789

>  <mol_id>  (10) 
143441

>  <source_index>  (10) 
9

>  <layer>  (10) 
L2

>  <uniprot>  (10) 
Q14145

>  <paff>  (10) 
8

>  <smiles>  (10) 
CC[C@@H]1CN(Cc2cc([C@@H](CC(=O)O)c3cc(OC(F)(F)F)c4c(nnn4C)c3C)cc3ccsc23)S(=O)(=O)c2cc(Cl)cnc2O1

>  <aimnet_interaction_kcal_mol>  (10) 
-97.968392243957396

$$$$
