L2:Q14145:1372
     RDKit          3D

 74 79  0  0  0  0  0  0  0  0999 V2000
    7.4669   -0.6991  -25.2558 C   0  0  0  0  0  0  0  0  0  0  0  0
    6.6585   -1.8546  -25.1860 C   0  0  0  0  0  0  0  0  0  0  0  0
    6.0572   -2.4374  -26.3070 C   0  0  0  0  0  0  0  0  0  0  0  0
    6.2600   -1.8266  -27.5510 C   0  0  0  0  0  0  0  0  0  0  0  0
    7.0622   -0.6645  -27.6819 C   0  0  0  0  0  0  0  0  0  0  0  0
    7.3882    0.0923  -28.8589 C   0  0  0  0  0  0  0  0  0  0  0  0
    8.2046    1.1652  -28.5968 C   0  0  0  0  0  0  0  0  0  0  0  0
    8.5912    1.2780  -26.9457 S   0  0  0  0  0  0  0  0  0  0  0  0
    7.6542   -0.1213  -26.5355 C   0  0  0  0  0  0  0  0  0  0  0  0
    8.0623   -0.1621  -23.9707 C   0  0  0  0  0  0  0  0  0  0  0  0
    5.8380    2.4237  -24.5896 C   0  0  2  0  0  0  0  0  0  0  0  0
    5.8431    1.0029  -23.9887 C   0  0  0  0  0  0  0  0  0  0  0  0
    7.0859    0.6749  -23.2207 N   0  0  0  0  0  0  0  0  0  0  0  0
    7.7978    1.9068  -22.2972 S   0  0  0  0  0  0  0  0  0  0  0  0
    8.4316    2.8554  -23.1853 O   0  0  0  0  0  0  0  0  0  0  0  0
    8.5677    1.2665  -21.2481 O   0  0  0  0  0  0  0  0  0  0  0  0
    6.4006    2.6532  -21.5687 C   0  0  0  0  0  0  0  0  0  0  0  0
    6.1889    2.5618  -20.1875 C   0  0  0  0  0  0  0  0  0  0  0  0
    5.0737    3.1828  -19.6415 C   0  0  0  0  0  0  0  0  0  0  0  0
    4.7625    3.1016  -17.9563 Cl  0  0  0  0  0  0  0  0  0  0  0  0
    4.2194    3.8596  -20.4961 C   0  0  0  0  0  0  0  0  0  0  0  0
    4.4065    3.9459  -21.8367 N   0  0  0  0  0  0  0  0  0  0  0  0
    5.4963    3.3352  -22.3628 C   0  0  0  0  0  0  0  0  0  0  0  0
    5.5908    3.5260  -23.7008 O   0  0  0  0  0  0  0  0  0  0  0  0
    4.1781    1.2156  -26.1442 C   0  0  0  0  0  0  0  0  0  0  0  0
    4.8024    2.5436  -25.7280 C   0  0  0  0  0  0  0  0  0  0  0  0
    5.2014   -3.6936  -26.1104 C   0  0  2  0  0  0  0  0  0  0  0  0
    4.2835   -3.6076  -24.8724 C   0  0  0  0  0  0  0  0  0  0  0  0
    4.6916   -4.3585  -23.7381 C   0  0  0  0  0  0  0  0  0  0  0  0
    3.9591   -4.4062  -22.5450 C   0  0  0  0  0  0  0  0  0  0  0  0
    2.7944   -3.6414  -22.5241 C   0  0  0  0  0  0  0  0  0  0  0  0
    2.3510   -2.8884  -23.6026 C   0  0  0  0  0  0  0  0  0  0  0  0
    1.1673   -2.2737  -23.2707 N   0  0  0  0  0  0  0  0  0  0  0  0
    0.8554   -2.6108  -22.0281 N   0  0  0  0  0  0  0  0  0  0  0  0
    1.8274   -3.4245  -21.5787 N   0  0  0  0  0  0  0  0  0  0  0  0
    1.7654   -3.9486  -20.2403 C   0  0  0  0  0  0  0  0  0  0  0  0
    3.0816   -2.8457  -24.8141 C   0  0  0  0  0  0  0  0  0  0  0  0
    2.5317   -2.0668  -25.9749 C   0  0  0  0  0  0  0  0  0  0  0  0
    4.2964   -5.1165  -21.4282 O   0  0  0  0  0  0  0  0  0  0  0  0
    5.2032   -6.1979  -21.6215 C   0  0  0  0  0  0  0  0  0  0  0  0
    5.9547   -5.0353  -26.1946 C   0  0  0  0  0  0  0  0  0  0  0  0
    7.0615   -5.0478  -27.2111 C   0  0  0  0  0  0  0  0  0  0  0  0
    8.2465   -4.8821  -26.9719 O   0  0  0  0  0  0  0  0  0  0  0  0
    6.6392   -5.1643  -28.4822 O   0  0  0  0  0  0  0  0  0  0  0  0
    7.4681   -5.1032  -29.0055 H   0  0  0  0  0  0  0  0  0  0  0  0
    6.5036   -2.2905  -24.2635 H   0  0  0  0  0  0  0  0  0  0  0  0
    5.8161   -2.2309  -28.3904 H   0  0  0  0  0  0  0  0  0  0  0  0
    7.0448   -0.1454  -29.8026 H   0  0  0  0  0  0  0  0  0  0  0  0
    8.5426    1.8237  -29.3160 H   0  0  0  0  0  0  0  0  0  0  0  0
    8.3586   -0.9855  -23.3549 H   0  0  0  0  0  0  0  0  0  0  0  0
    8.9032    0.4499  -24.2222 H   0  0  0  0  0  0  0  0  0  0  0  0
    6.8527    2.5161  -24.9164 H   0  0  0  0  0  0  0  0  0  0  0  0
    5.7449    0.2984  -24.7880 H   0  0  0  0  0  0  0  0  0  0  0  0
    5.0281    0.9546  -23.2971 H   0  0  0  0  0  0  0  0  0  0  0  0
    6.8489    2.0430  -19.5872 H   0  0  0  0  0  0  0  0  0  0  0  0
    3.3929    4.3250  -20.0895 H   0  0  0  0  0  0  0  0  0  0  0  0
    3.4754    1.3836  -26.9334 H   0  0  0  0  0  0  0  0  0  0  0  0
    3.6757    0.7795  -25.3062 H   0  0  0  0  0  0  0  0  0  0  0  0
    4.9453    0.5521  -26.4850 H   0  0  0  0  0  0  0  0  0  0  0  0
    4.0191    3.1958  -25.4024 H   0  0  0  0  0  0  0  0  0  0  0  0
    5.3251    2.9201  -26.5823 H   0  0  0  0  0  0  0  0  0  0  0  0
    4.5700   -3.7001  -26.9742 H   0  0  0  0  0  0  0  0  0  0  0  0
    5.5711   -4.8954  -23.7957 H   0  0  0  0  0  0  0  0  0  0  0  0
    0.8808   -3.5894  -19.7572 H   0  0  0  0  0  0  0  0  0  0  0  0
    2.6264   -3.6284  -19.6916 H   0  0  0  0  0  0  0  0  0  0  0  0
    1.7429   -5.0177  -20.2766 H   0  0  0  0  0  0  0  0  0  0  0  0
    1.6242   -1.5820  -25.6812 H   0  0  0  0  0  0  0  0  0  0  0  0
    2.3333   -2.7322  -26.7890 H   0  0  0  0  0  0  0  0  0  0  0  0
    3.2459   -1.3314  -26.2813 H   0  0  0  0  0  0  0  0  0  0  0  0
    5.3922   -6.6769  -20.6835 H   0  0  0  0  0  0  0  0  0  0  0  0
    6.1222   -5.8253  -22.0233 H   0  0  0  0  0  0  0  0  0  0  0  0
    4.7763   -6.9039  -22.3028 H   0  0  0  0  0  0  0  0  0  0  0  0
    5.2525   -5.8007  -26.4513 H   0  0  0  0  0  0  0  0  0  0  0  0
    6.4078   -5.1983  -25.2391 H   0  0  0  0  0  0  0  0  0  0  0  0
  1  2  2  0
  2  3  1  0
  2 46  1  0
  3 27  1  0
  3  4  2  0
  4  5  1  0
  4 47  1  0
  5  6  1  0
  6  7  2  0
  6 48  1  0
  7  8  1  0
  7 49  1  0
  8  9  1  0
  9  1  1  0
  9  5  2  0
 10  1  1  0
 10 50  1  0
 10 51  1  0
 11 12  1  0
 11 52  1  6
 12 13  1  0
 12 53  1  0
 12 54  1  0
 13 10  1  0
 13 14  1  0
 14 15  2  0
 14 16  2  0
 14 17  1  0
 17 18  2  0
 18 19  1  0
 18 55  1  0
 19 20  1  0
 19 21  2  0
 21 22  1  0
 21 56  1  0
 22 23  2  0
 23 24  1  0
 23 17  1  0
 24 11  1  0
 25 26  1  0
 25 57  1  0
 25 58  1  0
 25 59  1  0
 26 11  1  0
 26 60  1  0
 26 61  1  0
 27 41  1  0
 27 28  1  0
 27 62  1  6
 28 29  2  0
 29 30  1  0
 29 63  1  0
 30 39  1  0
 30 31  2  0
 31 32  1  0
 32 33  1  0
 32 37  2  0
 33 34  2  0
 34 35  1  0
 35 36  1  0
 35 31  1  0
 36 64  1  0
 36 65  1  0
 36 66  1  0
 37 38  1  0
 37 28  1  0
 38 67  1  0
 38 68  1  0
 38 69  1  0
 39 40  1  0
 40 70  1  0
 40 71  1  0
 40 72  1  0
 41 42  1  0
 41 73  1  0
 41 74  1  0
 42 43  2  0
 42 44  1  0
 44 45  1  0
M  END
>  <minimizedAffinity>  (1) 
-8.91240

>  <mol_id>  (1) 
1372

>  <source_index>  (1) 
0

>  <layer>  (1) 
L2

>  <uniprot>  (1) 
Q14145

>  <paff>  (1) 
7.6989999999999998

>  <smiles>  (1) 
CC[C@@H]1CN(Cc2cc(C(CC(=O)O)c3cc(OC)c4c(nnn4C)c3C)cc3ccsc23)S(=O)(=O)c2cc(Cl)cnc2O1

$$$$
L2:Q14145:15758
     RDKit          3D

 78 84  0  0  0  0  0  0  0  0999 V2000
    1.9845    0.1487  -21.1921 C   0  0  0  0  0  0  0  0  0  0  0  0
    3.3360    0.5667  -21.2620 C   0  0  0  0  0  0  0  0  0  0  0  0
    3.7827    1.8119  -20.7725 C   0  0  0  0  0  0  0  0  0  0  0  0
    2.8421    2.6880  -20.2062 C   0  0  0  0  0  0  0  0  0  0  0  0
    1.5026    2.2829  -20.1454 C   0  0  0  0  0  0  0  0  0  0  0  0
    0.4135    2.9449  -19.6285 N   0  0  0  0  0  0  0  0  0  0  0  0
   -0.7143    2.1845  -19.7630 C   0  0  0  0  0  0  0  0  0  0  0  0
   -0.3510    1.0078  -20.3736 C   0  0  0  0  0  0  0  0  0  0  0  0
    1.0557    1.0486  -20.6165 C   0  0  0  0  0  0  0  0  0  0  0  0
    0.4523    3.8694  -19.2187 H   0  0  0  0  0  0  0  0  0  0  0  0
    1.5860   -1.2231  -21.6970 C   0  0  0  0  0  0  0  0  0  0  0  0
    2.5290   -0.6468  -25.0249 C   0  0  2  0  0  0  0  0  0  0  0  0
    3.1376   -0.7162  -23.6036 C   0  0  0  0  0  0  0  0  0  0  0  0
    2.5406   -1.7528  -22.7066 N   0  0  0  0  0  0  0  0  0  0  0  0
    2.0694   -3.2342  -23.3795 S   0  0  0  0  0  0  0  0  0  0  0  0
    2.0996   -4.2161  -22.3141 O   0  0  0  0  0  0  0  0  0  0  0  0
    0.8593   -3.0365  -24.1520 O   0  0  0  0  0  0  0  0  0  0  0  0
    3.4044   -3.5667  -24.4496 C   0  0  0  0  0  0  0  0  0  0  0  0
    4.2945   -4.6125  -24.1974 C   0  0  0  0  0  0  0  0  0  0  0  0
    5.3654   -4.7950  -25.0629 C   0  0  0  0  0  0  0  0  0  0  0  0
    6.4960   -6.0577  -24.8076 Cl  0  0  0  0  0  0  0  0  0  0  0  0
    5.4999   -3.9237  -26.1356 C   0  0  0  0  0  0  0  0  0  0  0  0
    4.6430   -2.9030  -26.3917 N   0  0  0  0  0  0  0  0  0  0  0  0
    3.6048   -2.7414  -25.5393 C   0  0  0  0  0  0  0  0  0  0  0  0
    2.7423   -1.7613  -25.9128 O   0  0  0  0  0  0  0  0  0  0  0  0
    3.2303    1.8008  -24.8096 C   0  0  0  0  0  0  0  0  0  0  0  0
    3.0756    0.6036  -25.7394 C   0  0  0  0  0  0  0  0  0  0  0  0
    5.2818    2.1279  -20.8238 C   0  0  1  0  0  0  0  0  0  0  0  0
    5.8777    2.1163  -22.2453 C   0  0  0  0  0  0  0  0  0  0  0  0
    6.2491    0.8507  -22.7628 C   0  0  0  0  0  0  0  0  0  0  0  0
    6.8700    0.6589  -24.0116 C   0  0  0  0  0  0  0  0  0  0  0  0
    7.1672    1.8387  -24.7150 C   0  0  0  0  0  0  0  0  0  0  0  0
    6.7837    3.0988  -24.2635 C   0  0  0  0  0  0  0  0  0  0  0  0
    7.1805    4.0518  -25.1682 N   0  0  0  0  0  0  0  0  0  0  0  0
    7.8117    3.4485  -26.1586 N   0  0  0  0  0  0  0  0  0  0  0  0
    7.8286    2.1312  -25.8849 N   0  0  0  0  0  0  0  0  0  0  0  0
    8.5474    1.2545  -26.7711 C   0  0  0  0  0  0  0  0  0  0  0  0
    6.1055    3.2759  -23.0329 C   0  0  0  0  0  0  0  0  0  0  0  0
    5.7181    4.6617  -22.6013 C   0  0  0  0  0  0  0  0  0  0  0  0
    7.2397   -0.6899  -24.5539 C   0  0  0  0  0  0  0  0  0  0  0  0
    7.1749   -1.9112  -23.6603 C   0  0  0  0  0  0  0  0  0  0  0  0
    8.5064   -1.3796  -24.0884 C   0  0  0  0  0  0  0  0  0  0  0  0
    5.7728    3.3626  -20.0484 C   0  0  0  0  0  0  0  0  0  0  0  0
    5.9847    3.0787  -18.5894 C   0  0  0  0  0  0  0  0  0  0  0  0
    6.7317    2.2316  -18.1214 O   0  0  0  0  0  0  0  0  0  0  0  0
    5.1990    3.8189  -17.7846 O   0  0  0  0  0  0  0  0  0  0  0  0
    5.4167    3.4921  -16.8842 H   0  0  0  0  0  0  0  0  0  0  0  0
    4.0261   -0.0694  -21.6911 H   0  0  0  0  0  0  0  0  0  0  0  0
    3.1315    3.6096  -19.8430 H   0  0  0  0  0  0  0  0  0  0  0  0
   -1.6658    2.4463  -19.4610 H   0  0  0  0  0  0  0  0  0  0  0  0
   -0.9848    0.2299  -20.6147 H   0  0  0  0  0  0  0  0  0  0  0  0
    1.5525   -1.8985  -20.8678 H   0  0  0  0  0  0  0  0  0  0  0  0
    0.6291   -1.1333  -22.1672 H   0  0  0  0  0  0  0  0  0  0  0  0
    1.4760   -0.6390  -24.8348 H   0  0  0  0  0  0  0  0  0  0  0  0
    3.0056    0.2390  -23.1398 H   0  0  0  0  0  0  0  0  0  0  0  0
    4.1639   -0.9899  -23.7326 H   0  0  0  0  0  0  0  0  0  0  0  0
    4.1597   -5.2359  -23.3861 H   0  0  0  0  0  0  0  0  0  0  0  0
    6.2980   -4.0603  -26.7754 H   0  0  0  0  0  0  0  0  0  0  0  0
    3.6119    2.6342  -25.3616 H   0  0  0  0  0  0  0  0  0  0  0  0
    3.9098    1.5543  -24.0207 H   0  0  0  0  0  0  0  0  0  0  0  0
    2.2778    2.0547  -24.3935 H   0  0  0  0  0  0  0  0  0  0  0  0
    4.0334    0.3680  -26.1541 H   0  0  0  0  0  0  0  0  0  0  0  0
    2.3687    0.8748  -26.4955 H   0  0  0  0  0  0  0  0  0  0  0  0
    5.6679    1.2925  -20.2780 H   0  0  0  0  0  0  0  0  0  0  0  0
    6.0520    0.0167  -22.1879 H   0  0  0  0  0  0  0  0  0  0  0  0
    8.9395    1.8193  -27.5909 H   0  0  0  0  0  0  0  0  0  0  0  0
    7.8848    0.5006  -27.1419 H   0  0  0  0  0  0  0  0  0  0  0  0
    9.3524    0.7917  -26.2394 H   0  0  0  0  0  0  0  0  0  0  0  0
    5.9927    5.3621  -23.3622 H   0  0  0  0  0  0  0  0  0  0  0  0
    6.2249    4.9066  -21.6913 H   0  0  0  0  0  0  0  0  0  0  0  0
    4.6607    4.7034  -22.4430 H   0  0  0  0  0  0  0  0  0  0  0  0
    6.8276   -0.4168  -25.5029 H   0  0  0  0  0  0  0  0  0  0  0  0
    6.8203   -2.8414  -24.0525 H   0  0  0  0  0  0  0  0  0  0  0  0
    6.7189   -2.1328  -22.7180 H   0  0  0  0  0  0  0  0  0  0  0  0
    9.1019   -1.9303  -24.7863 H   0  0  0  0  0  0  0  0  0  0  0  0
    9.3927   -1.0651  -23.5780 H   0  0  0  0  0  0  0  0  0  0  0  0
    5.0440    4.1402  -20.1443 H   0  0  0  0  0  0  0  0  0  0  0  0
    6.7153    3.6533  -20.4632 H   0  0  0  0  0  0  0  0  0  0  0  0
  1  2  2  0
  2  3  1  0
  2 48  1  0
  3 28  1  0
  3  4  2  0
  4  5  1  0
  4 49  1  0
  5  6  1  0
  6  7  1  0
  6 10  1  0
  7  8  2  0
  7 50  1  0
  8  9  1  0
  8 51  1  0
  9  1  1  0
  9  5  2  0
 11  1  1  0
 11 52  1  0
 11 53  1  0
 12 13  1  0
 12 54  1  1
 13 14  1  0
 13 55  1  0
 13 56  1  0
 14 11  1  0
 14 15  1  0
 15 16  2  0
 15 17  2  0
 15 18  1  0
 18 19  2  0
 19 20  1  0
 19 57  1  0
 20 21  1  0
 20 22  2  0
 22 23  1  0
 22 58  1  0
 23 24  2  0
 24 25  1  0
 24 18  1  0
 25 12  1  0
 26 27  1  0
 26 59  1  0
 26 60  1  0
 26 61  1  0
 27 12  1  0
 27 62  1  0
 27 63  1  0
 28 43  1  0
 28 29  1  0
 28 64  1  1
 29 30  2  0
 30 31  1  0
 30 65  1  0
 31 40  1  0
 31 32  2  0
 32 33  1  0
 33 34  1  0
 33 38  2  0
 34 35  2  0
 35 36  1  0
 36 37  1  0
 36 32  1  0
 37 66  1  0
 37 67  1  0
 37 68  1  0
 38 39  1  0
 38 29  1  0
 39 69  1  0
 39 70  1  0
 39 71  1  0
 40 41  1  0
 40 72  1  0
 41 42  1  0
 41 73  1  0
 41 74  1  0
 42 40  1  0
 42 75  1  0
 42 76  1  0
 43 44  1  0
 43 77  1  0
 43 78  1  0
 44 45  2  0
 44 46  1  0
 46 47  1  0
M  END
>  <minimizedAffinity>  (2) 
-9.91789

>  <mol_id>  (2) 
15758

>  <source_index>  (2) 
1

>  <layer>  (2) 
L2

>  <uniprot>  (2) 
Q14145

>  <paff>  (2) 
8

>  <smiles>  (2) 
CC[C@@H]1CN(Cc2cc(C(CC(=O)O)c3cc(C4CC4)c4c(nnn4C)c3C)cc3[nH]ccc23)S(=O)(=O)c2cc(Cl)cnc2O1

$$$$
L2:Q14145:16948
     RDKit          3D

 74 79  0  0  0  0  0  0  0  0999 V2000
    7.3185    1.6190  -22.8437 C   0  0  0  0  0  0  0  0  0  0  0  0
    6.5526    0.5887  -23.4361 C   0  0  0  0  0  0  0  0  0  0  0  0
    7.0044   -0.1712  -24.5158 C   0  0  0  0  0  0  0  0  0  0  0  0
    8.2848    0.1096  -25.0209 C   0  0  0  0  0  0  0  0  0  0  0  0
    9.1090    1.1107  -24.4507 C   0  0  0  0  0  0  0  0  0  0  0  0
   10.4376    1.5214  -24.8100 C   0  0  0  0  0  0  0  0  0  0  0  0
   10.9189    2.5343  -24.0174 C   0  0  0  0  0  0  0  0  0  0  0  0
    9.7888    3.0052  -22.8375 S   0  0  0  0  0  0  0  0  0  0  0  0
    8.6131    1.8498  -23.3708 C   0  0  0  0  0  0  0  0  0  0  0  0
    6.7323    2.3854  -21.6760 C   0  0  0  0  0  0  0  0  0  0  0  0
    4.3364    3.2286  -23.9666 C   0  0  2  0  0  0  0  0  0  0  0  0
    5.7441    3.7026  -23.5736 C   0  0  0  0  0  0  0  0  0  0  0  0
    5.9981    3.6024  -22.1114 N   0  0  0  0  0  0  0  0  0  0  0  0
    4.7812    4.1589  -21.0871 S   0  0  0  0  0  0  0  0  0  0  0  0
    5.3017    4.1429  -19.7373 O   0  0  0  0  0  0  0  0  0  0  0  0
    4.2391    5.3720  -21.6629 O   0  0  0  0  0  0  0  0  0  0  0  0
    3.4925    2.9648  -21.1456 C   0  0  0  0  0  0  0  0  0  0  0  0
    2.6420    2.8845  -20.0322 C   0  0  0  0  0  0  0  0  0  0  0  0
    1.6465    1.9194  -20.0079 C   0  0  0  0  0  0  0  0  0  0  0  0
    0.5889    1.7808  -18.6668 Cl  0  0  0  0  0  0  0  0  0  0  0  0
    1.5394    1.0675  -21.0920 C   0  0  0  0  0  0  0  0  0  0  0  0
    2.3524    1.1251  -22.1748 N   0  0  0  0  0  0  0  0  0  0  0  0
    3.3154    2.0782  -22.1954 C   0  0  0  0  0  0  0  0  0  0  0  0
    4.0878    1.9812  -23.3127 O   0  0  0  0  0  0  0  0  0  0  0  0
    5.6388    3.0001  -26.1347 C   0  0  0  0  0  0  0  0  0  0  0  0
    4.2619    3.0089  -25.4857 C   0  0  0  0  0  0  0  0  0  0  0  0
    6.1703   -1.2686  -25.1807 C   0  0  1  0  0  0  0  0  0  0  0  0
    5.3779   -2.1429  -24.1859 C   0  0  0  0  0  0  0  0  0  0  0  0
    4.0784   -1.6835  -23.8474 C   0  0  0  0  0  0  0  0  0  0  0  0
    3.2438   -2.3558  -22.9459 C   0  0  0  0  0  0  0  0  0  0  0  0
    3.7816   -3.5026  -22.3637 C   0  0  0  0  0  0  0  0  0  0  0  0
    5.0478   -3.9897  -22.6583 C   0  0  0  0  0  0  0  0  0  0  0  0
    5.2725   -5.1360  -21.9358 N   0  0  0  0  0  0  0  0  0  0  0  0
    4.2009   -5.3796  -21.1949 N   0  0  0  0  0  0  0  0  0  0  0  0
    3.3124   -4.4015  -21.4404 N   0  0  0  0  0  0  0  0  0  0  0  0
    2.0428   -4.3960  -20.7611 C   0  0  0  0  0  0  0  0  0  0  0  0
    5.8912   -3.3214  -23.5757 C   0  0  0  0  0  0  0  0  0  0  0  0
    7.2501   -3.8843  -23.8780 C   0  0  0  0  0  0  0  0  0  0  0  0
    1.9978   -1.9551  -22.5675 O   0  0  0  0  0  0  0  0  0  0  0  0
    0.9658   -2.1474  -23.5218 C   0  0  0  0  0  0  0  0  0  0  0  0
    0.9037   -1.0162  -24.2668 F   0  0  0  0  0  0  0  0  0  0  0  0
    1.3262   -3.1442  -24.3642 F   0  0  0  0  0  0  0  0  0  0  0  0
    5.2493   -0.8588  -26.3461 C   0  0  0  0  0  0  0  0  0  0  0  0
    4.9305   -2.0450  -27.2114 C   0  0  0  0  0  0  0  0  0  0  0  0
    5.7442   -2.7873  -27.7332 O   0  0  0  0  0  0  0  0  0  0  0  0
    3.6098   -2.2395  -27.3798 O   0  0  0  0  0  0  0  0  0  0  0  0
    3.5594   -2.9986  -28.0007 H   0  0  0  0  0  0  0  0  0  0  0  0
    5.6157    0.3893  -23.0521 H   0  0  0  0  0  0  0  0  0  0  0  0
    8.6345   -0.4281  -25.8294 H   0  0  0  0  0  0  0  0  0  0  0  0
   10.9747    1.0992  -25.5835 H   0  0  0  0  0  0  0  0  0  0  0  0
   11.8536    2.9584  -24.1249 H   0  0  0  0  0  0  0  0  0  0  0  0
    6.0557    1.7454  -21.1493 H   0  0  0  0  0  0  0  0  0  0  0  0
    7.5419    2.6980  -21.0501 H   0  0  0  0  0  0  0  0  0  0  0  0
    3.6142    3.9641  -23.6798 H   0  0  0  0  0  0  0  0  0  0  0  0
    5.8564    4.7243  -23.8710 H   0  0  0  0  0  0  0  0  0  0  0  0
    6.4482    3.0661  -24.0675 H   0  0  0  0  0  0  0  0  0  0  0  0
    2.7561    3.5364  -19.2404 H   0  0  0  0  0  0  0  0  0  0  0  0
    0.7996    0.3482  -21.0756 H   0  0  0  0  0  0  0  0  0  0  0  0
    5.5355    2.8446  -27.1883 H   0  0  0  0  0  0  0  0  0  0  0  0
    6.2265    2.2113  -25.7137 H   0  0  0  0  0  0  0  0  0  0  0  0
    6.1222    3.9382  -25.9583 H   0  0  0  0  0  0  0  0  0  0  0  0
    3.7860    2.0694  -25.6749 H   0  0  0  0  0  0  0  0  0  0  0  0
    3.7056    3.8198  -25.9075 H   0  0  0  0  0  0  0  0  0  0  0  0
    6.9535   -1.8449  -25.6272 H   0  0  0  0  0  0  0  0  0  0  0  0
    3.7330   -0.8151  -24.2852 H   0  0  0  0  0  0  0  0  0  0  0  0
    1.9868   -5.2377  -20.1029 H   0  0  0  0  0  0  0  0  0  0  0  0
    1.2530   -4.4528  -21.4807 H   0  0  0  0  0  0  0  0  0  0  0  0
    1.9451   -3.4934  -20.1949 H   0  0  0  0  0  0  0  0  0  0  0  0
    7.4067   -4.7695  -23.2976 H   0  0  0  0  0  0  0  0  0  0  0  0
    7.9987   -3.1601  -23.6330 H   0  0  0  0  0  0  0  0  0  0  0  0
    7.3132   -4.1244  -24.9188 H   0  0  0  0  0  0  0  0  0  0  0  0
    0.0407   -2.3754  -23.0348 H   0  0  0  0  0  0  0  0  0  0  0  0
    5.7404   -0.1143  -26.9372 H   0  0  0  0  0  0  0  0  0  0  0  0
    4.3370   -0.4702  -25.9442 H   0  0  0  0  0  0  0  0  0  0  0  0
  1  2  2  0
  2  3  1  0
  2 48  1  0
  3 27  1  0
  3  4  2  0
  4  5  1  0
  4 49  1  0
  5  6  1  0
  6  7  2  0
  6 50  1  0
  7  8  1  0
  7 51  1  0
  8  9  1  0
  9  1  1  0
  9  5  2  0
 10  1  1  0
 10 52  1  0
 10 53  1  0
 11 12  1  0
 11 54  1  1
 12 13  1  0
 12 55  1  0
 12 56  1  0
 13 10  1  0
 13 14  1  0
 14 15  2  0
 14 16  2  0
 14 17  1  0
 17 18  2  0
 18 19  1  0
 18 57  1  0
 19 20  1  0
 19 21  2  0
 21 22  1  0
 21 58  1  0
 22 23  2  0
 23 24  1  0
 23 17  1  0
 24 11  1  0
 25 26  1  0
 25 59  1  0
 25 60  1  0
 25 61  1  0
 26 11  1  0
 26 62  1  0
 26 63  1  0
 27 43  1  0
 27 28  1  0
 27 64  1  6
 28 29  2  0
 29 30  1  0
 29 65  1  0
 30 39  1  0
 30 31  2  0
 31 32  1  0
 32 33  1  0
 32 37  2  0
 33 34  2  0
 34 35  1  0
 35 36  1  0
 35 31  1  0
 36 66  1  0
 36 67  1  0
 36 68  1  0
 37 38  1  0
 37 28  1  0
 38 69  1  0
 38 70  1  0
 38 71  1  0
 39 40  1  0
 40 41  1  0
 40 42  1  0
 40 72  1  0
 43 44  1  0
 43 73  1  0
 43 74  1  0
 44 45  2  0
 44 46  1  0
 46 47  1  0
M  END
>  <minimizedAffinity>  (3) 
-8.98593

>  <mol_id>  (3) 
16948

>  <source_index>  (3) 
2

>  <layer>  (3) 
L2

>  <uniprot>  (3) 
Q14145

>  <paff>  (3) 
7.6989999999999998

>  <smiles>  (3) 
CC[C@@H]6CN(Cc3cc(C(CC(=O)O)c2cc(OC(F)F)c1c(nnn1C)c2C)cc4ccsc34)S(=O)(=O)c5cc(Cl)cnc5O6

$$$$
L2:Q14145:41332
     RDKit          3D

 74 79  0  0  0  0  0  0  0  0999 V2000
    3.5952    1.0451  -21.4072 C   0  0  0  0  0  0  0  0  0  0  0  0
    3.6677   -0.2833  -21.8829 C   0  0  0  0  0  0  0  0  0  0  0  0
    2.5912   -1.1738  -21.8203 C   0  0  0  0  0  0  0  0  0  0  0  0
    1.3895   -0.7203  -21.2586 C   0  0  0  0  0  0  0  0  0  0  0  0
    1.2605    0.5989  -20.7601 C   0  0  0  0  0  0  0  0  0  0  0  0
    0.1284    1.2387  -20.1496 C   0  0  0  0  0  0  0  0  0  0  0  0
    0.3772    2.5407  -19.7936 C   0  0  0  0  0  0  0  0  0  0  0  0
    1.9602    3.0131  -20.1924 S   0  0  0  0  0  0  0  0  0  0  0  0
    2.3607    1.4596  -20.8446 C   0  0  0  0  0  0  0  0  0  0  0  0
    4.8113    1.9377  -21.5323 C   0  0  0  0  0  0  0  0  0  0  0  0
    5.1080    1.7705  -24.7150 C   0  0  2  0  0  0  0  0  0  0  0  0
    4.0958    2.5498  -23.8543 C   0  0  0  0  0  0  0  0  0  0  0  0
    4.6718    2.9977  -22.5546 N   0  0  0  0  0  0  0  0  0  0  0  0
    5.8639    4.2035  -22.6274 S   0  0  0  0  0  0  0  0  0  0  0  0
    6.1809    4.5900  -21.2686 O   0  0  0  0  0  0  0  0  0  0  0  0
    5.4799    5.1937  -23.6082 O   0  0  0  0  0  0  0  0  0  0  0  0
    7.2748    3.3644  -23.2441 C   0  0  0  0  0  0  0  0  0  0  0  0
    8.4745    3.3659  -22.5249 C   0  0  0  0  0  0  0  0  0  0  0  0
    9.5645    2.6783  -23.0438 C   0  0  0  0  0  0  0  0  0  0  0  0
   11.0626    2.6519  -22.2061 Cl  0  0  0  0  0  0  0  0  0  0  0  0
    9.4098    2.0100  -24.2490 C   0  0  0  0  0  0  0  0  0  0  0  0
    8.2520    1.9924  -24.9562 N   0  0  0  0  0  0  0  0  0  0  0  0
    7.2081    2.6838  -24.4425 C   0  0  0  0  0  0  0  0  0  0  0  0
    6.0908    2.6795  -25.2256 O   0  0  0  0  0  0  0  0  0  0  0  0
    2.8949    1.4391  -25.9267 C   0  0  0  0  0  0  0  0  0  0  0  0
    4.3884    1.1358  -25.9174 C   0  0  0  0  0  0  0  0  0  0  0  0
    2.7484   -2.5918  -22.3747 C   0  0  1  0  0  0  0  0  0  0  0  0
    3.5459   -2.6263  -23.6926 C   0  0  0  0  0  0  0  0  0  0  0  0
    4.8998   -3.0274  -23.6833 C   0  0  0  0  0  0  0  0  0  0  0  0
    5.6852   -3.0504  -24.8409 C   0  0  0  0  0  0  0  0  0  0  0  0
    5.0559   -2.7324  -26.0399 C   0  0  0  0  0  0  0  0  0  0  0  0
    3.7281   -2.3306  -26.1025 C   0  0  0  0  0  0  0  0  0  0  0  0
    3.3959   -2.0735  -27.4101 N   0  0  0  0  0  0  0  0  0  0  0  0
    4.4605   -2.3060  -28.1649 N   0  0  0  0  0  0  0  0  0  0  0  0
    5.4529   -2.7004  -27.3491 N   0  0  0  0  0  0  0  0  0  0  0  0
    6.7390   -3.0417  -27.8970 C   0  0  0  0  0  0  0  0  0  0  0  0
    2.9417   -2.2458  -24.9293 C   0  0  0  0  0  0  0  0  0  0  0  0
    1.5075   -1.8010  -25.0179 C   0  0  0  0  0  0  0  0  0  0  0  0
    6.9900   -3.4620  -24.8036 O   0  0  0  0  0  0  0  0  0  0  0  0
    7.8558   -2.3957  -24.4196 C   0  0  0  0  0  0  0  0  0  0  0  0
    8.9941   -2.4103  -25.1435 F   0  0  0  0  0  0  0  0  0  0  0  0
    7.2461   -1.1974  -24.5491 F   0  0  0  0  0  0  0  0  0  0  0  0
    8.1857   -2.5627  -23.1199 F   0  0  0  0  0  0  0  0  0  0  0  0
    3.2709   -3.5426  -21.2807 C   0  0  0  0  0  0  0  0  0  0  0  0
    2.1320   -4.2585  -20.6145 C   0  0  0  0  0  0  0  0  0  0  0  0
    1.6899   -5.3547  -20.9143 O   0  0  0  0  0  0  0  0  0  0  0  0
    1.5775   -3.5393  -19.6199 O   0  0  0  0  0  0  0  0  0  0  0  0
    0.8614   -4.1175  -19.2813 H   0  0  0  0  0  0  0  0  0  0  0  0
    4.5551   -0.6113  -22.2952 H   0  0  0  0  0  0  0  0  0  0  0  0
    0.5822   -1.3611  -21.2073 H   0  0  0  0  0  0  0  0  0  0  0  0
   -0.7772    0.7686  -19.9949 H   0  0  0  0  0  0  0  0  0  0  0  0
   -0.3134    3.1581  -19.3388 H   0  0  0  0  0  0  0  0  0  0  0  0
    4.9866    2.4036  -20.5851 H   0  0  0  0  0  0  0  0  0  0  0  0
    5.6250    1.3143  -21.8391 H   0  0  0  0  0  0  0  0  0  0  0  0
    5.5647    1.0134  -24.1124 H   0  0  0  0  0  0  0  0  0  0  0  0
    3.2557    1.9173  -23.6568 H   0  0  0  0  0  0  0  0  0  0  0  0
    3.8120    3.4247  -24.4011 H   0  0  0  0  0  0  0  0  0  0  0  0
    8.5485    3.8680  -21.6263 H   0  0  0  0  0  0  0  0  0  0  0  0
   10.2207    1.4973  -24.6293 H   0  0  0  0  0  0  0  0  0  0  0  0
    2.4424    0.9771  -26.7792 H   0  0  0  0  0  0  0  0  0  0  0  0
    2.7462    2.4977  -25.9738 H   0  0  0  0  0  0  0  0  0  0  0  0
    2.4475    1.0554  -25.0337 H   0  0  0  0  0  0  0  0  0  0  0  0
    4.8222    1.5173  -26.8181 H   0  0  0  0  0  0  0  0  0  0  0  0
    4.5055    0.0747  -25.8448 H   0  0  0  0  0  0  0  0  0  0  0  0
    1.7827   -2.9593  -22.6525 H   0  0  0  0  0  0  0  0  0  0  0  0
    5.3262   -3.3145  -22.7885 H   0  0  0  0  0  0  0  0  0  0  0  0
    6.7213   -2.9082  -28.9585 H   0  0  0  0  0  0  0  0  0  0  0  0
    6.9640   -4.0628  -27.6696 H   0  0  0  0  0  0  0  0  0  0  0  0
    7.4881   -2.4079  -27.4703 H   0  0  0  0  0  0  0  0  0  0  0  0
    1.2691   -1.5658  -26.0342 H   0  0  0  0  0  0  0  0  0  0  0  0
    1.3648   -0.9334  -24.4081 H   0  0  0  0  0  0  0  0  0  0  0  0
    0.8683   -2.5874  -24.6744 H   0  0  0  0  0  0  0  0  0  0  0  0
    3.8062   -2.9754  -20.5482 H   0  0  0  0  0  0  0  0  0  0  0  0
    3.9163   -4.2667  -21.7325 H   0  0  0  0  0  0  0  0  0  0  0  0
  1  2  2  0
  2  3  1  0
  2 49  1  0
  3 27  1  0
  3  4  2  0
  4  5  1  0
  4 50  1  0
  5  6  1  0
  6  7  2  0
  6 51  1  0
  7  8  1  0
  7 52  1  0
  8  9  1  0
  9  1  1  0
  9  5  2  0
 10  1  1  0
 10 53  1  0
 10 54  1  0
 11 12  1  0
 11 55  1  1
 12 13  1  0
 12 56  1  0
 12 57  1  0
 13 10  1  0
 13 14  1  0
 14 15  2  0
 14 16  2  0
 14 17  1  0
 17 18  2  0
 18 19  1  0
 18 58  1  0
 19 20  1  0
 19 21  2  0
 21 22  1  0
 21 59  1  0
 22 23  2  0
 23 24  1  0
 23 17  1  0
 24 11  1  0
 25 26  1  0
 25 60  1  0
 25 61  1  0
 25 62  1  0
 26 11  1  0
 26 63  1  0
 26 64  1  0
 27 44  1  0
 27 28  1  0
 27 65  1  6
 28 29  2  0
 29 30  1  0
 29 66  1  0
 30 39  1  0
 30 31  2  0
 31 32  1  0
 32 33  1  0
 32 37  2  0
 33 34  2  0
 34 35  1  0
 35 36  1  0
 35 31  1  0
 36 67  1  0
 36 68  1  0
 36 69  1  0
 37 38  1  0
 37 28  1  0
 38 70  1  0
 38 71  1  0
 38 72  1  0
 39 40  1  0
 40 41  1  0
 40 42  1  0
 40 43  1  0
 44 45  1  0
 44 73  1  0
 44 74  1  0
 45 46  2  0
 45 47  1  0
 47 48  1  0
M  END
>  <minimizedAffinity>  (4) 
-8.60509

>  <mol_id>  (4) 
41332

>  <source_index>  (4) 
3

>  <layer>  (4) 
L2

>  <uniprot>  (4) 
Q14145

>  <paff>  (4) 
7.6989999999999998

>  <smiles>  (4) 
CC[C@@H]6CN(Cc3cc(C(CC(=O)O)c2cc(OC(F)(F)F)c1c(nnn1C)c2C)cc4ccsc34)S(=O)(=O)c5cc(Cl)cnc5O6

$$$$
L2:Q14145:62918
     RDKit          3D

 76 81  0  0  0  0  0  0  0  0999 V2000
    3.1195    0.4415  -21.4963 C   0  0  0  0  0  0  0  0  0  0  0  0
    4.2200    1.3242  -21.5347 C   0  0  0  0  0  0  0  0  0  0  0  0
    4.2234    2.5568  -20.8750 C   0  0  0  0  0  0  0  0  0  0  0  0
    3.0938    2.9111  -20.1244 C   0  0  0  0  0  0  0  0  0  0  0  0
    1.9744    2.0495  -20.0233 C   0  0  0  0  0  0  0  0  0  0  0  0
    0.7424    2.2252  -19.3044 C   0  0  0  0  0  0  0  0  0  0  0  0
   -0.1177    1.1645  -19.4463 C   0  0  0  0  0  0  0  0  0  0  0  0
    0.5330   -0.0464  -20.4476 S   0  0  0  0  0  0  0  0  0  0  0  0
    2.0037    0.8318  -20.7102 C   0  0  0  0  0  0  0  0  0  0  0  0
    3.1726   -0.8452  -22.3036 C   0  0  0  0  0  0  0  0  0  0  0  0
    3.0691    0.1547  -25.5129 C   0  0  2  0  0  0  0  0  0  0  0  0
    2.0839    0.1465  -24.3172 C   0  0  0  0  0  0  0  0  0  0  0  0
    2.1177   -0.9270  -23.3188 N   0  0  0  0  0  0  0  0  0  0  0  0
    1.9709   -2.2877  -23.8678 C   0  0  1  0  0  0  0  0  0  0  0  0
    0.6227   -2.4920  -24.5822 C   0  0  0  0  0  0  0  0  0  0  0  0
    3.1256   -2.7804  -24.7217 C   0  0  0  0  0  0  0  0  0  0  0  0
    3.7409   -3.9231  -24.2929 N   0  0  0  0  0  0  0  0  0  0  0  0
    4.7038   -4.4529  -25.0763 C   0  0  0  0  0  0  0  0  0  0  0  0
    5.0879   -3.9122  -26.2891 C   0  0  0  0  0  0  0  0  0  0  0  0
    4.4612   -2.7452  -26.7106 C   0  0  0  0  0  0  0  0  0  0  0  0
    3.4947   -2.1445  -25.9042 C   0  0  0  0  0  0  0  0  0  0  0  0
    2.9385   -0.9922  -26.3759 O   0  0  0  0  0  0  0  0  0  0  0  0
    5.3210    0.9746  -26.3841 C   0  0  0  0  0  0  0  0  0  0  0  0
    4.5264    0.5168  -25.1658 C   0  0  0  0  0  0  0  0  0  0  0  0
    5.4136    3.4970  -21.0607 C   0  0  2  0  0  0  0  0  0  0  0  0
    6.4674    3.0212  -22.0800 C   0  0  0  0  0  0  0  0  0  0  0  0
    7.4405    2.0689  -21.7051 C   0  0  0  0  0  0  0  0  0  0  0  0
    8.4582    1.6066  -22.5663 C   0  0  0  0  0  0  0  0  0  0  0  0
    9.4332    0.5744  -22.0810 C   0  0  0  0  0  0  0  0  0  0  0  0
    8.4381    2.1484  -23.8613 C   0  0  0  0  0  0  0  0  0  0  0  0
    7.4801    3.0650  -24.2868 C   0  0  0  0  0  0  0  0  0  0  0  0
    7.7125    3.4001  -25.5976 N   0  0  0  0  0  0  0  0  0  0  0  0
    8.7827    2.7436  -26.0115 N   0  0  0  0  0  0  0  0  0  0  0  0
    9.2179    1.9937  -24.9816 N   0  0  0  0  0  0  0  0  0  0  0  0
   10.3961    1.1878  -25.1497 C   0  0  0  0  0  0  0  0  0  0  0  0
    6.4628    3.5169  -23.4166 C   0  0  0  0  0  0  0  0  0  0  0  0
    5.4320    4.5006  -23.9047 C   0  0  0  0  0  0  0  0  0  0  0  0
    5.9811    4.0448  -19.7290 C   0  0  0  0  0  0  0  0  0  0  0  0
    5.9382    3.1035  -18.5592 C   0  0  0  0  0  0  0  0  0  0  0  0
    6.3867    1.9669  -18.5537 O   0  0  0  0  0  0  0  0  0  0  0  0
    5.3243    3.6054  -17.4736 O   0  0  0  0  0  0  0  0  0  0  0  0
    5.4158    2.8954  -16.8017 H   0  0  0  0  0  0  0  0  0  0  0  0
    5.0568    1.0484  -22.0720 H   0  0  0  0  0  0  0  0  0  0  0  0
    3.0775    3.8195  -19.6349 H   0  0  0  0  0  0  0  0  0  0  0  0
    0.5266    3.0619  -18.7401 H   0  0  0  0  0  0  0  0  0  0  0  0
   -1.0463    1.1088  -18.9996 H   0  0  0  0  0  0  0  0  0  0  0  0
    4.1224   -0.9020  -22.7931 H   0  0  0  0  0  0  0  0  0  0  0  0
    3.0259   -1.6573  -21.6226 H   0  0  0  0  0  0  0  0  0  0  0  0
    2.7462    0.9891  -26.0998 H   0  0  0  0  0  0  0  0  0  0  0  0
    1.0987    0.1429  -24.7347 H   0  0  0  0  0  0  0  0  0  0  0  0
    2.3908    1.0024  -23.7532 H   0  0  0  0  0  0  0  0  0  0  0  0
    1.9918   -2.9080  -22.9962 H   0  0  0  0  0  0  0  0  0  0  0  0
    0.5861   -1.8775  -25.4574 H   0  0  0  0  0  0  0  0  0  0  0  0
   -0.1751   -2.2211  -23.9226 H   0  0  0  0  0  0  0  0  0  0  0  0
    0.5200   -3.5193  -24.8631 H   0  0  0  0  0  0  0  0  0  0  0  0
    5.1797   -5.3092  -24.7519 H   0  0  0  0  0  0  0  0  0  0  0  0
    5.8177   -4.3613  -26.8642 H   0  0  0  0  0  0  0  0  0  0  0  0
    4.7108   -2.3238  -27.6190 H   0  0  0  0  0  0  0  0  0  0  0  0
    6.3215    1.2126  -26.0886 H   0  0  0  0  0  0  0  0  0  0  0  0
    4.8580    1.8418  -26.8066 H   0  0  0  0  0  0  0  0  0  0  0  0
    5.3411    0.1906  -27.1120 H   0  0  0  0  0  0  0  0  0  0  0  0
    4.5210    1.3061  -24.4434 H   0  0  0  0  0  0  0  0  0  0  0  0
    4.9977   -0.3642  -24.7829 H   0  0  0  0  0  0  0  0  0  0  0  0
    5.0034    4.3583  -21.5452 H   0  0  0  0  0  0  0  0  0  0  0  0
    7.4053    1.6893  -20.7461 H   0  0  0  0  0  0  0  0  0  0  0  0
    9.2242    0.3393  -21.0583 H   0  0  0  0  0  0  0  0  0  0  0  0
   10.4288    0.9580  -22.1625 H   0  0  0  0  0  0  0  0  0  0  0  0
    9.3419   -0.3101  -22.6762 H   0  0  0  0  0  0  0  0  0  0  0  0
   10.7611    1.2940  -26.1499 H   0  0  0  0  0  0  0  0  0  0  0  0
   10.1557    0.1617  -24.9648 H   0  0  0  0  0  0  0  0  0  0  0  0
   11.1486    1.5078  -24.4596 H   0  0  0  0  0  0  0  0  0  0  0  0
    5.6192    4.7329  -24.9323 H   0  0  0  0  0  0  0  0  0  0  0  0
    5.4883    5.3954  -23.3207 H   0  0  0  0  0  0  0  0  0  0  0  0
    4.4563    4.0723  -23.8079 H   0  0  0  0  0  0  0  0  0  0  0  0
    5.4196    4.9174  -19.4680 H   0  0  0  0  0  0  0  0  0  0  0  0
    7.0188    4.2310  -19.9121 H   0  0  0  0  0  0  0  0  0  0  0  0
  1  2  2  0
  2  3  1  0
  2 43  1  0
  3 25  1  0
  3  4  2  0
  4  5  1  0
  4 44  1  0
  5  6  1  0
  6  7  2  0
  6 45  1  0
  7  8  1  0
  7 46  1  0
  8  9  1  0
  9  1  1  0
  9  5  2  0
 10  1  1  0
 10 47  1  0
 10 48  1  0
 11 12  1  0
 11 49  1  6
 12 13  1  0
 12 50  1  0
 12 51  1  0
 13 10  1  0
 13 14  1  0
 14 15  1  0
 14 16  1  0
 14 52  1  1
 15 53  1  0
 15 54  1  0
 15 55  1  0
 16 17  2  0
 17 18  1  0
 18 19  2  0
 18 56  1  0
 19 20  1  0
 19 57  1  0
 20 21  2  0
 20 58  1  0
 21 22  1  0
 21 16  1  0
 22 11  1  0
 23 24  1  0
 23 59  1  0
 23 60  1  0
 23 61  1  0
 24 11  1  0
 24 62  1  0
 24 63  1  0
 25 38  1  0
 25 26  1  0
 25 64  1  6
 26 27  2  0
 27 28  1  0
 27 65  1  0
 28 29  1  0
 28 30  2  0
 29 66  1  0
 29 67  1  0
 29 68  1  0
 30 31  1  0
 31 32  1  0
 31 36  2  0
 32 33  2  0
 33 34  1  0
 34 35  1  0
 34 30  1  0
 35 69  1  0
 35 70  1  0
 35 71  1  0
 36 37  1  0
 36 26  1  0
 37 72  1  0
 37 73  1  0
 37 74  1  0
 38 39  1  0
 38 75  1  0
 38 76  1  0
 39 40  2  0
 39 41  1  0
 41 42  1  0
M  END
>  <minimizedAffinity>  (5) 
-9.41365

>  <mol_id>  (5) 
62918

>  <source_index>  (5) 
4

>  <layer>  (5) 
L2

>  <uniprot>  (5) 
Q14145

>  <paff>  (5) 
8

>  <smiles>  (5) 
CC[C@@H]6CN(Cc3cc([C@@H](CC(=O)O)c2cc(C)c1c(nnn1C)c2C)cc4ccsc34)[C@@H](C)c5ncccc5O6

$$$$
L2:Q14145:64270
     RDKit          3D

 84 88  0  0  0  0  0  0  0  0999 V2000
    4.7445    1.5122  -21.2237 C   0  0  0  0  0  0  0  0  0  0  0  0
    5.4986    0.7104  -22.1107 C   0  0  0  0  0  0  0  0  0  0  0  0
    4.9546   -0.3798  -22.7943 C   0  0  0  0  0  0  0  0  0  0  0  0
    3.5708   -0.6158  -22.6636 C   0  0  0  0  0  0  0  0  0  0  0  0
    2.7811    0.1157  -21.7228 C   0  0  0  0  0  0  0  0  0  0  0  0
    1.4125   -0.1777  -21.4796 C   0  0  0  0  0  0  0  0  0  0  0  0
    0.6373    0.5282  -20.5644 C   0  0  0  0  0  0  0  0  0  0  0  0
    1.2179    1.5473  -19.8433 C   0  0  0  0  0  0  0  0  0  0  0  0
    2.5592    1.8629  -20.0560 C   0  0  0  0  0  0  0  0  0  0  0  0
    3.3777    1.1793  -20.9881 C   0  0  0  0  0  0  0  0  0  0  0  0
    2.9681   -1.5825  -23.5586 N   0  0  0  0  0  0  0  0  0  0  0  0
    2.6544   -2.8415  -23.0342 C   0  0  0  0  0  0  0  0  0  0  0  0
    1.7920   -3.5953  -23.4520 O   0  0  0  0  0  0  0  0  0  0  0  0
    3.3706   -3.2183  -21.9539 O   0  0  0  0  0  0  0  0  0  0  0  0
    2.9904   -4.0928  -21.7313 H   0  0  0  0  0  0  0  0  0  0  0  0
    2.3051   -1.0042  -25.0027 S   0  0  0  0  0  0  0  0  0  0  0  0
    1.2085   -1.8638  -25.4106 O   0  0  0  0  0  0  0  0  0  0  0  0
    2.0820    0.4248  -24.8995 O   0  0  0  0  0  0  0  0  0  0  0  0
    3.5952   -1.2418  -26.2093 C   0  0  0  0  0  0  0  0  0  0  0  0
    4.3369   -0.1435  -26.6517 C   0  0  0  0  0  0  0  0  0  0  0  0
    5.3362   -0.3319  -27.6079 C   0  0  0  0  0  0  0  0  0  0  0  0
    5.6295   -1.6125  -28.0800 C   0  0  0  0  0  0  0  0  0  0  0  0
    4.9081   -2.7095  -27.6070 C   0  0  0  0  0  0  0  0  0  0  0  0
    3.8838   -2.5288  -26.6699 C   0  0  0  0  0  0  0  0  0  0  0  0
    6.6263   -1.6653  -29.0121 O   0  0  0  0  0  0  0  0  0  0  0  0
    7.4609   -0.5183  -29.1163 C   0  0  0  0  0  0  0  0  0  0  0  0
    5.4991    2.6958  -20.5989 C   0  0  2  0  0  0  0  0  0  0  0  0
    5.3895    2.8610  -19.1147 C   0  0  0  0  0  0  0  0  0  0  0  0
    5.7236    2.0838  -18.2368 O   0  0  0  0  0  0  0  0  0  0  0  0
    4.8684    4.0564  -18.7534 O   0  0  0  0  0  0  0  0  0  0  0  0
    4.8266    4.0165  -17.7733 H   0  0  0  0  0  0  0  0  0  0  0  0
    5.2505    4.2185  -21.4963 S   0  0  0  0  0  0  0  0  0  0  0  0
    3.8305    4.5391  -21.4298 O   0  0  0  0  0  0  0  0  0  0  0  0
    6.2164    5.2241  -21.0932 O   0  0  0  0  0  0  0  0  0  0  0  0
    6.1157    3.3578  -25.9183 C   0  0  0  0  0  0  0  0  0  0  0  0
    7.1577    3.6737  -25.0399 C   0  0  0  0  0  0  0  0  0  0  0  0
    6.9022    3.9337  -23.6901 C   0  0  0  0  0  0  0  0  0  0  0  0
    5.5868    3.8921  -23.2215 C   0  0  0  0  0  0  0  0  0  0  0  0
    4.5474    3.5256  -24.0788 C   0  0  0  0  0  0  0  0  0  0  0  0
    4.8102    3.2830  -25.4308 C   0  0  0  0  0  0  0  0  0  0  0  0
    7.8988    3.1053  -27.4742 C   0  0  0  0  0  0  0  0  0  0  0  0
    6.5008    3.1403  -27.2121 O   0  0  0  0  0  0  0  0  0  0  0  0
    5.8243   -1.3136  -23.6306 C   0  0  0  0  0  0  0  0  0  0  0  0
    7.1349   -0.7239  -24.1630 C   0  0  0  0  0  0  0  0  0  0  0  0
    8.3569   -1.2693  -23.4400 C   0  0  0  0  0  0  0  0  0  0  0  0
    8.3527   -2.3831  -22.9225 O   0  0  0  0  0  0  0  0  0  0  0  0
    9.4649   -0.4335  -23.3817 N   0  0  0  0  0  0  0  0  0  0  0  0
   10.5744   -0.8091  -22.5012 C   0  0  0  0  0  0  0  0  0  0  0  0
   10.4806   -0.0033  -21.1989 C   0  0  0  0  0  0  0  0  0  0  0  0
   10.4707    1.4121  -21.4710 O   0  0  0  0  0  0  0  0  0  0  0  0
    9.3744    1.7768  -22.3316 C   0  0  0  0  0  0  0  0  0  0  0  0
    9.4417    1.0053  -23.6610 C   0  0  0  0  0  0  0  0  0  0  0  0
    6.4936    0.9402  -22.2597 H   0  0  0  0  0  0  0  0  0  0  0  0
    0.9732   -0.9494  -22.0055 H   0  0  0  0  0  0  0  0  0  0  0  0
   -0.3579    0.2913  -20.4283 H   0  0  0  0  0  0  0  0  0  0  0  0
    0.6640    2.0741  -19.1500 H   0  0  0  0  0  0  0  0  0  0  0  0
    2.9757    2.6317  -19.5078 H   0  0  0  0  0  0  0  0  0  0  0  0
    4.1477    0.7985  -26.2750 H   0  0  0  0  0  0  0  0  0  0  0  0
    5.8613    0.4803  -27.9680 H   0  0  0  0  0  0  0  0  0  0  0  0
    5.1305   -3.6574  -27.9492 H   0  0  0  0  0  0  0  0  0  0  0  0
    3.3469   -3.3388  -26.3226 H   0  0  0  0  0  0  0  0  0  0  0  0
    8.1975   -0.6809  -29.8752 H   0  0  0  0  0  0  0  0  0  0  0  0
    7.9469   -0.3445  -28.1790 H   0  0  0  0  0  0  0  0  0  0  0  0
    6.8662    0.3334  -29.3731 H   0  0  0  0  0  0  0  0  0  0  0  0
    6.5245    2.4144  -20.7181 H   0  0  0  0  0  0  0  0  0  0  0  0
    8.1267    3.7153  -25.3925 H   0  0  0  0  0  0  0  0  0  0  0  0
    7.6779    4.1542  -23.0461 H   0  0  0  0  0  0  0  0  0  0  0  0
    3.5860    3.4338  -23.7150 H   0  0  0  0  0  0  0  0  0  0  0  0
    4.0355    3.0477  -26.0707 H   0  0  0  0  0  0  0  0  0  0  0  0
    8.0619    2.9290  -28.5169 H   0  0  0  0  0  0  0  0  0  0  0  0
    8.3488    2.3190  -26.9049 H   0  0  0  0  0  0  0  0  0  0  0  0
    8.3370    4.0415  -27.1979 H   0  0  0  0  0  0  0  0  0  0  0  0
    5.2449   -1.6330  -24.4716 H   0  0  0  0  0  0  0  0  0  0  0  0
    6.1141   -2.1031  -22.9690 H   0  0  0  0  0  0  0  0  0  0  0  0
    7.1085    0.3385  -24.0383 H   0  0  0  0  0  0  0  0  0  0  0  0
    7.2188   -0.9978  -25.1940 H   0  0  0  0  0  0  0  0  0  0  0  0
   11.5040   -0.5973  -22.9868 H   0  0  0  0  0  0  0  0  0  0  0  0
   10.5204   -1.8549  -22.2813 H   0  0  0  0  0  0  0  0  0  0  0  0
   11.3230   -0.2357  -20.5814 H   0  0  0  0  0  0  0  0  0  0  0  0
    9.5699   -0.2626  -20.7006 H   0  0  0  0  0  0  0  0  0  0  0  0
    9.4209    2.8267  -22.5328 H   0  0  0  0  0  0  0  0  0  0  0  0
    8.4565    1.5316  -21.8395 H   0  0  0  0  0  0  0  0  0  0  0  0
   10.3294    1.2815  -24.1907 H   0  0  0  0  0  0  0  0  0  0  0  0
    8.5861    1.2422  -24.2582 H   0  0  0  0  0  0  0  0  0  0  0  0
  1  2  2  0
  2  3  1  0
  2 53  1  0
  3 43  1  0
  3  4  2  0
  4 11  1  0
  4  5  1  0
  5  6  2  0
  6  7  1  0
  6 54  1  0
  7  8  2  0
  7 55  1  0
  8  9  1  0
  8 56  1  0
  9 10  2  0
  9 57  1  0
 10  1  1  0
 10  5  1  0
 11 12  1  0
 11 16  1  0
 12 13  2  0
 12 14  1  0
 14 15  1  0
 16 17  2  0
 16 18  2  0
 16 19  1  0
 19 20  2  0
 20 21  1  0
 20 58  1  0
 21 22  2  0
 21 59  1  0
 22 25  1  0
 22 23  1  0
 23 24  2  0
 23 60  1  0
 24 19  1  0
 24 61  1  0
 25 26  1  0
 26 62  1  0
 26 63  1  0
 26 64  1  0
 27 28  1  0
 27  1  1  0
 27 65  1  1
 28 29  2  0
 28 30  1  0
 30 31  1  0
 32 33  2  0
 32 34  2  0
 32 27  1  0
 35 36  2  0
 36 37  1  0
 36 66  1  0
 37 38  2  0
 37 67  1  0
 38 32  1  0
 38 39  1  0
 39 40  2  0
 39 68  1  0
 40 35  1  0
 40 69  1  0
 41 42  1  0
 41 70  1  0
 41 71  1  0
 41 72  1  0
 42 35  1  0
 43 44  1  0
 43 73  1  0
 43 74  1  0
 44 45  1  0
 44 75  1  0
 44 76  1  0
 45 46  2  0
 45 47  1  0
 47 48  1  0
 48 49  1  0
 48 77  1  0
 48 78  1  0
 49 50  1  0
 49 79  1  0
 49 80  1  0
 50 51  1  0
 51 52  1  0
 51 81  1  0
 51 82  1  0
 52 47  1  0
 52 83  1  0
 52 84  1  0
M  END
>  <minimizedAffinity>  (6) 
-9.59226

>  <mol_id>  (6) 
64270

>  <source_index>  (6) 
5

>  <layer>  (6) 
L2

>  <uniprot>  (6) 
Q14145

>  <paff>  (6) 
7.0605000000000002

>  <smiles>  (6) 
COc1ccc(S(=O)(=O)C(C(=O)O)c2cc(CCC(=O)N3CCOCC3)c(N(C(=O)O)S(=O)(=O)c3ccc(OC)cc3)c3ccccc23)cc1

$$$$
L2:Q14145:77634
     RDKit          3D

 76 81  0  0  0  0  0  0  0  0999 V2000
    5.5697    1.3541  -22.5862 C   0  0  0  0  0  0  0  0  0  0  0  0
    5.0096    0.0933  -22.8979 C   0  0  0  0  0  0  0  0  0  0  0  0
    3.7508   -0.3033  -22.4426 C   0  0  0  0  0  0  0  0  0  0  0  0
    3.0271    0.5968  -21.6402 C   0  0  0  0  0  0  0  0  0  0  0  0
    3.5349    1.8752  -21.3076 C   0  0  0  0  0  0  0  0  0  0  0  0
    2.9457    2.9220  -20.5225 C   0  0  0  0  0  0  0  0  0  0  0  0
    3.7515    4.0290  -20.4181 C   0  0  0  0  0  0  0  0  0  0  0  0
    5.2177    3.8280  -21.2568 S   0  0  0  0  0  0  0  0  0  0  0  0
    4.7993    2.2336  -21.7850 C   0  0  0  0  0  0  0  0  0  0  0  0
    6.9564    1.6910  -23.1079 C   0  0  0  0  0  0  0  0  0  0  0  0
    8.4418    3.8855  -25.8915 C   0  0  2  0  0  0  0  0  0  0  0  0
    8.3395    2.9920  -24.6381 C   0  0  0  0  0  0  0  0  0  0  0  0
    6.9642    2.7102  -24.1806 N   0  0  0  0  0  0  0  0  0  0  0  0
    6.0293    2.3094  -25.2609 C   0  0  1  0  0  0  0  0  0  0  0  0
    5.1899    3.4932  -25.7640 C   0  0  0  0  0  0  0  0  0  0  0  0
    6.6359    1.5153  -26.4028 C   0  0  0  0  0  0  0  0  0  0  0  0
    6.1135    0.2651  -26.5807 N   0  0  0  0  0  0  0  0  0  0  0  0
    6.5570   -0.4666  -27.6249 C   0  0  0  0  0  0  0  0  0  0  0  0
    7.5093   -0.0201  -28.5188 C   0  0  0  0  0  0  0  0  0  0  0  0
    8.0457    1.2462  -28.3186 C   0  0  0  0  0  0  0  0  0  0  0  0
    7.6265    2.0283  -27.2393 C   0  0  0  0  0  0  0  0  0  0  0  0
    8.2435    3.2373  -27.1576 O   0  0  0  0  0  0  0  0  0  0  0  0
   10.0890    5.2996  -27.2813 C   0  0  0  0  0  0  0  0  0  0  0  0
    9.8303    4.5562  -25.9755 C   0  0  0  0  0  0  0  0  0  0  0  0
    3.1341   -1.6703  -22.7518 C   0  0  1  0  0  0  0  0  0  0  0  0
    4.0032   -2.5419  -23.6805 C   0  0  0  0  0  0  0  0  0  0  0  0
    4.9068   -3.4277  -23.0449 C   0  0  0  0  0  0  0  0  0  0  0  0
    5.7828   -4.2835  -23.7375 C   0  0  0  0  0  0  0  0  0  0  0  0
    6.7125   -5.1839  -22.9802 C   0  0  0  0  0  0  0  0  0  0  0  0
    5.6960   -4.2147  -25.1349 C   0  0  0  0  0  0  0  0  0  0  0  0
    4.8255   -3.3604  -25.8041 C   0  0  0  0  0  0  0  0  0  0  0  0
    4.9733   -3.5270  -27.1595 N   0  0  0  0  0  0  0  0  0  0  0  0
    5.8974   -4.4502  -27.3683 N   0  0  0  0  0  0  0  0  0  0  0  0
    6.3322   -4.8608  -26.1666 N   0  0  0  0  0  0  0  0  0  0  0  0
    7.3453   -5.8811  -26.0980 C   0  0  0  0  0  0  0  0  0  0  0  0
    3.9588   -2.4903  -25.1005 C   0  0  0  0  0  0  0  0  0  0  0  0
    3.0318   -1.5916  -25.8699 C   0  0  0  0  0  0  0  0  0  0  0  0
    2.6246   -2.4685  -21.5368 C   0  0  0  0  0  0  0  0  0  0  0  0
    1.1966   -2.9071  -21.6940 C   0  0  0  0  0  0  0  0  0  0  0  0
    0.5036   -3.4296  -20.8384 O   0  0  0  0  0  0  0  0  0  0  0  0
    0.6791   -2.6150  -22.9034 O   0  0  0  0  0  0  0  0  0  0  0  0
   -0.2524   -2.9169  -22.8363 H   0  0  0  0  0  0  0  0  0  0  0  0
    5.5527   -0.5590  -23.4849 H   0  0  0  0  0  0  0  0  0  0  0  0
    2.0998    0.3172  -21.2839 H   0  0  0  0  0  0  0  0  0  0  0  0
    2.0148    2.8504  -20.0828 H   0  0  0  0  0  0  0  0  0  0  0  0
    3.4979    4.8809  -19.8936 H   0  0  0  0  0  0  0  0  0  0  0  0
    7.5433    2.0571  -22.2916 H   0  0  0  0  0  0  0  0  0  0  0  0
    7.3548    0.7927  -23.5312 H   0  0  0  0  0  0  0  0  0  0  0  0
    7.6371    4.5761  -25.7484 H   0  0  0  0  0  0  0  0  0  0  0  0
    8.8610    3.4787  -23.8406 H   0  0  0  0  0  0  0  0  0  0  0  0
    8.7626    2.0476  -24.9100 H   0  0  0  0  0  0  0  0  0  0  0  0
    5.3753    1.6092  -24.7846 H   0  0  0  0  0  0  0  0  0  0  0  0
    5.8286    4.2048  -26.2441 H   0  0  0  0  0  0  0  0  0  0  0  0
    4.6967    3.9581  -24.9360 H   0  0  0  0  0  0  0  0  0  0  0  0
    4.4596    3.1413  -26.4624 H   0  0  0  0  0  0  0  0  0  0  0  0
    6.1629   -1.4105  -27.7622 H   0  0  0  0  0  0  0  0  0  0  0  0
    7.8133   -0.6080  -29.3107 H   0  0  0  0  0  0  0  0  0  0  0  0
    8.7576    1.6109  -28.9707 H   0  0  0  0  0  0  0  0  0  0  0  0
   11.0673    5.7324  -27.2575 H   0  0  0  0  0  0  0  0  0  0  0  0
    9.3596    6.0731  -27.4019 H   0  0  0  0  0  0  0  0  0  0  0  0
   10.0217    4.6150  -28.1009 H   0  0  0  0  0  0  0  0  0  0  0  0
    9.9144    5.2550  -25.1695 H   0  0  0  0  0  0  0  0  0  0  0  0
   10.5544    3.7703  -25.9212 H   0  0  0  0  0  0  0  0  0  0  0  0
    2.2496   -1.4050  -23.2922 H   0  0  0  0  0  0  0  0  0  0  0  0
    4.9238   -3.4466  -22.0132 H   0  0  0  0  0  0  0  0  0  0  0  0
    6.5744   -5.0367  -21.9294 H   0  0  0  0  0  0  0  0  0  0  0  0
    7.7241   -4.9541  -23.2426 H   0  0  0  0  0  0  0  0  0  0  0  0
    6.5025   -6.2034  -23.2282 H   0  0  0  0  0  0  0  0  0  0  0  0
    7.6277   -6.1705  -27.0887 H   0  0  0  0  0  0  0  0  0  0  0  0
    6.9606   -6.7311  -25.5741 H   0  0  0  0  0  0  0  0  0  0  0  0
    8.2007   -5.5001  -25.5803 H   0  0  0  0  0  0  0  0  0  0  0  0
    3.1862   -1.7340  -26.9191 H   0  0  0  0  0  0  0  0  0  0  0  0
    3.2311   -0.5716  -25.6153 H   0  0  0  0  0  0  0  0  0  0  0  0
    2.0182   -1.8293  -25.6231 H   0  0  0  0  0  0  0  0  0  0  0  0
    2.7003   -1.8523  -20.6653 H   0  0  0  0  0  0  0  0  0  0  0  0
    3.2272   -3.3485  -21.4502 H   0  0  0  0  0  0  0  0  0  0  0  0
  1  2  2  0
  2  3  1  0
  2 43  1  0
  3 25  1  0
  3  4  2  0
  4  5  1  0
  4 44  1  0
  5  6  1  0
  6  7  2  0
  6 45  1  0
  7  8  1  0
  7 46  1  0
  8  9  1  0
  9  1  1  0
  9  5  2  0
 10  1  1  0
 10 47  1  0
 10 48  1  0
 11 12  1  0
 11 49  1  1
 12 13  1  0
 12 50  1  0
 12 51  1  0
 13 10  1  0
 13 14  1  0
 14 15  1  0
 14 16  1  0
 14 52  1  1
 15 53  1  0
 15 54  1  0
 15 55  1  0
 16 17  2  0
 17 18  1  0
 18 19  2  0
 18 56  1  0
 19 20  1  0
 19 57  1  0
 20 21  2  0
 20 58  1  0
 21 22  1  0
 21 16  1  0
 22 11  1  0
 23 24  1  0
 23 59  1  0
 23 60  1  0
 23 61  1  0
 24 11  1  0
 24 62  1  0
 24 63  1  0
 25 38  1  0
 25 26  1  0
 25 64  1  6
 26 27  2  0
 27 28  1  0
 27 65  1  0
 28 29  1  0
 28 30  2  0
 29 66  1  0
 29 67  1  0
 29 68  1  0
 30 31  1  0
 31 32  1  0
 31 36  2  0
 32 33  2  0
 33 34  1  0
 34 35  1  0
 34 30  1  0
 35 69  1  0
 35 70  1  0
 35 71  1  0
 36 37  1  0
 36 26  1  0
 37 72  1  0
 37 73  1  0
 37 74  1  0
 38 39  1  0
 38 75  1  0
 38 76  1  0
 39 40  2  0
 39 41  1  0
 41 42  1  0
M  END
>  <minimizedAffinity>  (7) 
-8.43522

>  <mol_id>  (7) 
77634

>  <source_index>  (7) 
6

>  <layer>  (7) 
L2

>  <uniprot>  (7) 
Q14145

>  <paff>  (7) 
8

>  <smiles>  (7) 
CC[C@@H]1CN(Cc2cc([C@H](CC(=O)O)c3cc(C)c4c(nnn4C)c3C)cc3ccsc23)[C@@H](C)c2ncccc2O1

$$$$
L2:Q14145:83648
     RDKit          3D

 70 75  0  0  0  0  0  0  0  0999 V2000
    2.3681    1.7450  -20.3956 C   0  0  0  0  0  0  0  0  0  0  0  0
    2.7390    0.4677  -20.8672 C   0  0  0  0  0  0  0  0  0  0  0  0
    1.8572   -0.6163  -20.9142 C   0  0  0  0  0  0  0  0  0  0  0  0
    0.5347   -0.4068  -20.5083 C   0  0  0  0  0  0  0  0  0  0  0  0
    0.0916    0.8643  -20.0678 C   0  0  0  0  0  0  0  0  0  0  0  0
   -1.2137    1.2738  -19.6304 C   0  0  0  0  0  0  0  0  0  0  0  0
   -1.2681    2.5974  -19.2716 C   0  0  0  0  0  0  0  0  0  0  0  0
    0.2396    3.3618  -19.4482 S   0  0  0  0  0  0  0  0  0  0  0  0
    1.0120    1.9168  -20.0162 C   0  0  0  0  0  0  0  0  0  0  0  0
    3.4173    2.8362  -20.3262 C   0  0  0  0  0  0  0  0  0  0  0  0
    4.0915    2.7033  -24.0810 C   0  0  2  0  0  0  0  0  0  0  0  0
    3.2597    2.9728  -22.8154 C   0  0  0  0  0  0  0  0  0  0  0  0
    4.1229    3.1568  -21.6044 N   0  0  0  0  0  0  0  0  0  0  0  0
    5.1074    4.5452  -21.5757 S   0  0  0  0  0  0  0  0  0  0  0  0
    4.3447    5.6890  -22.0274 O   0  0  0  0  0  0  0  0  0  0  0  0
    5.7651    4.5747  -20.2831 O   0  0  0  0  0  0  0  0  0  0  0  0
    6.3539    4.2092  -22.7570 C   0  0  0  0  0  0  0  0  0  0  0  0
    7.7037    4.2012  -22.3930 C   0  0  0  0  0  0  0  0  0  0  0  0
    8.6580    3.9422  -23.3689 C   0  0  0  0  0  0  0  0  0  0  0  0
   10.3261    3.9114  -22.9722 Cl  0  0  0  0  0  0  0  0  0  0  0  0
    8.2287    3.7030  -24.6653 C   0  0  0  0  0  0  0  0  0  0  0  0
    6.9245    3.7004  -25.0363 N   0  0  0  0  0  0  0  0  0  0  0  0
    6.0132    3.9536  -24.0682 C   0  0  0  0  0  0  0  0  0  0  0  0
    4.7176    3.9253  -24.4959 O   0  0  0  0  0  0  0  0  0  0  0  0
    3.9159    1.4176  -26.2692 C   0  0  0  0  0  0  0  0  0  0  0  0
    3.1728    2.2399  -25.2245 C   0  0  0  0  0  0  0  0  0  0  0  0
    2.3812   -1.9762  -21.3702 C   0  0  2  0  0  0  0  0  0  0  0  0
    2.9640   -2.0134  -22.8004 C   0  0  0  0  0  0  0  0  0  0  0  0
    4.3665   -2.2194  -22.8763 C   0  0  0  0  0  0  0  0  0  0  0  0
    5.0679   -2.2880  -24.0843 C   0  0  0  0  0  0  0  0  0  0  0  0
    6.7649   -2.5460  -24.0659 Cl  0  0  0  0  0  0  0  0  0  0  0  0
    4.3286   -2.1393  -25.2517 C   0  0  0  0  0  0  0  0  0  0  0  0
    2.9557   -1.9131  -25.2298 C   0  0  0  0  0  0  0  0  0  0  0  0
    2.4977   -1.7934  -26.5198 N   0  0  0  0  0  0  0  0  0  0  0  0
    3.5231   -1.9422  -27.3436 N   0  0  0  0  0  0  0  0  0  0  0  0
    4.6201   -2.1434  -26.5906 N   0  0  0  0  0  0  0  0  0  0  0  0
    5.8976   -2.3093  -27.2371 C   0  0  0  0  0  0  0  0  0  0  0  0
    2.2365   -1.8246  -24.0077 C   0  0  0  0  0  0  0  0  0  0  0  0
    0.7688   -1.5163  -24.0537 C   0  0  0  0  0  0  0  0  0  0  0  0
    1.5750   -3.1976  -20.8777 C   0  0  0  0  0  0  0  0  0  0  0  0
    2.3214   -4.4792  -20.6076 C   0  0  0  0  0  0  0  0  0  0  0  0
    3.5193   -4.6625  -20.4949 O   0  0  0  0  0  0  0  0  0  0  0  0
    1.4655   -5.5168  -20.4709 O   0  0  0  0  0  0  0  0  0  0  0  0
    2.0556   -6.2934  -20.3668 H   0  0  0  0  0  0  0  0  0  0  0  0
    3.7080    0.3269  -21.1932 H   0  0  0  0  0  0  0  0  0  0  0  0
   -0.1316   -1.1946  -20.5303 H   0  0  0  0  0  0  0  0  0  0  0  0
   -2.0262    0.6388  -19.5901 H   0  0  0  0  0  0  0  0  0  0  0  0
   -2.1211    3.0711  -18.9353 H   0  0  0  0  0  0  0  0  0  0  0  0
    2.9369    3.7296  -19.9858 H   0  0  0  0  0  0  0  0  0  0  0  0
    4.1739    2.4639  -19.6675 H   0  0  0  0  0  0  0  0  0  0  0  0
    4.8195    1.9500  -23.8632 H   0  0  0  0  0  0  0  0  0  0  0  0
    2.6044    2.1433  -22.6497 H   0  0  0  0  0  0  0  0  0  0  0  0
    2.7086    3.8771  -22.9687 H   0  0  0  0  0  0  0  0  0  0  0  0
    7.9860    4.3843  -21.4174 H   0  0  0  0  0  0  0  0  0  0  0  0
    8.9413    3.5166  -25.3881 H   0  0  0  0  0  0  0  0  0  0  0  0
    3.2353    1.1209  -27.0397 H   0  0  0  0  0  0  0  0  0  0  0  0
    4.3332    0.5473  -25.8073 H   0  0  0  0  0  0  0  0  0  0  0  0
    4.7012    2.0069  -26.6945 H   0  0  0  0  0  0  0  0  0  0  0  0
    2.3863    1.6426  -24.8128 H   0  0  0  0  0  0  0  0  0  0  0  0
    2.7892    3.1133  -25.7092 H   0  0  0  0  0  0  0  0  0  0  0  0
    3.2782   -2.1149  -20.8036 H   0  0  0  0  0  0  0  0  0  0  0  0
    4.8950   -2.3238  -21.9960 H   0  0  0  0  0  0  0  0  0  0  0  0
    5.7693   -2.2607  -28.2983 H   0  0  0  0  0  0  0  0  0  0  0  0
    6.3113   -3.2595  -26.9710 H   0  0  0  0  0  0  0  0  0  0  0  0
    6.5606   -1.5308  -26.9220 H   0  0  0  0  0  0  0  0  0  0  0  0
    0.4563   -1.4200  -25.0725 H   0  0  0  0  0  0  0  0  0  0  0  0
    0.5804   -0.5997  -23.5347 H   0  0  0  0  0  0  0  0  0  0  0  0
    0.2230   -2.3093  -23.5867 H   0  0  0  0  0  0  0  0  0  0  0  0
    0.8358   -3.4111  -21.6213 H   0  0  0  0  0  0  0  0  0  0  0  0
    1.2006   -2.9008  -19.9203 H   0  0  0  0  0  0  0  0  0  0  0  0
  1  2  2  0
  2  3  1  0
  2 45  1  0
  3 27  1  0
  3  4  2  0
  4  5  1  0
  4 46  1  0
  5  6  1  0
  6  7  2  0
  6 47  1  0
  7  8  1  0
  7 48  1  0
  8  9  1  0
  9  1  1  0
  9  5  2  0
 10  1  1  0
 10 49  1  0
 10 50  1  0
 11 12  1  0
 11 51  1  1
 12 13  1  0
 12 52  1  0
 12 53  1  0
 13 10  1  0
 13 14  1  0
 14 15  2  0
 14 16  2  0
 14 17  1  0
 17 18  2  0
 18 19  1  0
 18 54  1  0
 19 20  1  0
 19 21  2  0
 21 22  1  0
 21 55  1  0
 22 23  2  0
 23 24  1  0
 23 17  1  0
 24 11  1  0
 25 26  1  0
 25 56  1  0
 25 57  1  0
 25 58  1  0
 26 11  1  0
 26 59  1  0
 26 60  1  0
 27 40  1  0
 27 28  1  0
 27 61  1  1
 28 29  2  0
 29 30  1  0
 29 62  1  0
 30 31  1  0
 30 32  2  0
 32 33  1  0
 33 34  1  0
 33 38  2  0
 34 35  2  0
 35 36  1  0
 36 37  1  0
 36 32  1  0
 37 63  1  0
 37 64  1  0
 37 65  1  0
 38 39  1  0
 38 28  1  0
 39 66  1  0
 39 67  1  0
 39 68  1  0
 40 41  1  0
 40 69  1  0
 40 70  1  0
 41 42  2  0
 41 43  1  0
 43 44  1  0
M  END
>  <minimizedAffinity>  (8) 
-10.46121

>  <mol_id>  (8) 
83648

>  <source_index>  (8) 
7

>  <layer>  (8) 
L2

>  <uniprot>  (8) 
Q14145

>  <paff>  (8) 
8

>  <smiles>  (8) 
CC[C@@H]1CN(Cc2cc([C@@H](CC(=O)O)c3cc(Cl)c4c(nnn4C)c3C)cc3ccsc23)S(=O)(=O)c2cc(Cl)cnc2O1

$$$$
L2:Q14145:122553
     RDKit          3D

 75 80  0  0  0  0  0  0  0  0999 V2000
    1.3566    0.0883  -20.5286 C   0  0  0  0  0  0  0  0  0  0  0  0
    2.6228    0.6413  -20.8175 C   0  0  0  0  0  0  0  0  0  0  0  0
    2.9008    2.0027  -20.6686 C   0  0  0  0  0  0  0  0  0  0  0  0
    1.8680    2.8525  -20.2465 C   0  0  0  0  0  0  0  0  0  0  0  0
    0.5760    2.3505  -19.9528 C   0  0  0  0  0  0  0  0  0  0  0  0
   -0.5981    3.0453  -19.5020 C   0  0  0  0  0  0  0  0  0  0  0  0
   -1.6734    2.2125  -19.3124 C   0  0  0  0  0  0  0  0  0  0  0  0
   -1.2924    0.5933  -19.6699 S   0  0  0  0  0  0  0  0  0  0  0  0
    0.3420    0.9787  -20.0940 C   0  0  0  0  0  0  0  0  0  0  0  0
    1.1557   -1.4125  -20.6670 C   0  0  0  0  0  0  0  0  0  0  0  0
    2.3280   -2.3300  -24.2146 C   0  0  2  0  0  0  0  0  0  0  0  0
    1.6825   -1.5562  -23.0466 C   0  0  0  0  0  0  0  0  0  0  0  0
    2.0131   -2.0333  -21.6873 N   0  0  0  0  0  0  0  0  0  0  0  0
    2.1426   -3.5107  -21.6331 C   0  0  2  0  0  0  0  0  0  0  0  0
    1.8406   -4.1256  -20.2452 C   0  0  0  0  0  0  0  0  0  0  0  0
    3.5305   -3.9764  -22.1271 C   0  0  0  0  0  0  0  0  0  0  0  0
    4.1038   -5.0071  -21.4324 N   0  0  0  0  0  0  0  0  0  0  0  0
    5.3318   -5.4023  -21.8006 C   0  0  0  0  0  0  0  0  0  0  0  0
    5.8329   -6.4100  -21.0449 O   0  0  0  0  0  0  0  0  0  0  0  0
    6.0652   -4.8702  -22.8302 C   0  0  0  0  0  0  0  0  0  0  0  0
    5.4747   -3.8459  -23.5547 C   0  0  0  0  0  0  0  0  0  0  0  0
    4.1883   -3.3998  -23.2270 C   0  0  0  0  0  0  0  0  0  0  0  0
    3.7431   -2.3959  -24.0416 O   0  0  0  0  0  0  0  0  0  0  0  0
    5.0994   -6.5183  -20.4136 H   0  0  0  0  0  0  0  0  0  0  0  0
    3.1435   -1.8221  -26.5706 C   0  0  0  0  0  0  0  0  0  0  0  0
    2.0492   -1.5912  -25.5366 C   0  0  0  0  0  0  0  0  0  0  0  0
    4.3042    2.5270  -20.9780 C   0  0  2  0  0  0  0  0  0  0  0  0
    4.6985    2.2996  -22.4434 C   0  0  0  0  0  0  0  0  0  0  0  0
    4.2792    1.1407  -23.1323 C   0  0  0  0  0  0  0  0  0  0  0  0
    4.5516    0.8417  -24.4251 N   0  0  0  0  0  0  0  0  0  0  0  0
    5.2697    1.7682  -25.0718 C   0  0  0  0  0  0  0  0  0  0  0  0
    5.7553    2.9416  -24.4875 C   0  0  0  0  0  0  0  0  0  0  0  0
    5.4663    3.2487  -23.1647 C   0  0  0  0  0  0  0  0  0  0  0  0
    5.9523    4.5305  -22.5544 C   0  0  0  0  0  0  0  0  0  0  0  0
    6.5128    3.6790  -25.4327 N   0  0  0  0  0  0  0  0  0  0  0  0
    6.6259    2.8438  -26.6064 N   0  0  0  0  0  0  0  0  0  0  0  0
    5.7042    1.7508  -26.4322 N   0  0  0  0  0  0  0  0  0  0  0  0
    6.0716    0.4210  -26.8857 C   0  0  0  0  0  0  0  0  0  0  0  0
    7.4175    3.9314  -25.0343 H   0  0  0  0  0  0  0  0  0  0  0  0
    6.3155    3.3878  -27.4209 H   0  0  0  0  0  0  0  0  0  0  0  0
    5.3231    1.9863  -19.9530 C   0  0  0  0  0  0  0  0  0  0  0  0
    5.6467    3.0070  -18.8949 C   0  0  0  0  0  0  0  0  0  0  0  0
    6.4368    2.8904  -17.9743 O   0  0  0  0  0  0  0  0  0  0  0  0
    4.8995    4.1209  -19.0218 O   0  0  0  0  0  0  0  0  0  0  0  0
    5.1864    4.6944  -18.2805 H   0  0  0  0  0  0  0  0  0  0  0  0
    3.3725    0.0158  -21.1517 H   0  0  0  0  0  0  0  0  0  0  0  0
    2.0527    3.8630  -20.1479 H   0  0  0  0  0  0  0  0  0  0  0  0
   -0.6300    4.0637  -19.3379 H   0  0  0  0  0  0  0  0  0  0  0  0
   -2.6012    2.5306  -18.9916 H   0  0  0  0  0  0  0  0  0  0  0  0
    1.3685   -1.8700  -19.7234 H   0  0  0  0  0  0  0  0  0  0  0  0
    0.1427   -1.5646  -20.9760 H   0  0  0  0  0  0  0  0  0  0  0  0
    1.9144   -3.3166  -24.2356 H   0  0  0  0  0  0  0  0  0  0  0  0
    0.6205   -1.6140  -23.1638 H   0  0  0  0  0  0  0  0  0  0  0  0
    2.0783   -0.5639  -23.1064 H   0  0  0  0  0  0  0  0  0  0  0  0
    1.3864   -3.8751  -22.2966 H   0  0  0  0  0  0  0  0  0  0  0  0
    2.5724   -3.7909  -19.5399 H   0  0  0  0  0  0  0  0  0  0  0  0
    1.8729   -5.1929  -20.3133 H   0  0  0  0  0  0  0  0  0  0  0  0
    0.8677   -3.8181  -19.9229 H   0  0  0  0  0  0  0  0  0  0  0  0
    7.0113   -5.2157  -23.0550 H   0  0  0  0  0  0  0  0  0  0  0  0
    5.9853   -3.4105  -24.3387 H   0  0  0  0  0  0  0  0  0  0  0  0
    2.9045   -1.2901  -27.4677 H   0  0  0  0  0  0  0  0  0  0  0  0
    3.2168   -2.8679  -26.7849 H   0  0  0  0  0  0  0  0  0  0  0  0
    4.0779   -1.4706  -26.1856 H   0  0  0  0  0  0  0  0  0  0  0  0
    1.1196   -1.9396  -25.9359 H   0  0  0  0  0  0  0  0  0  0  0  0
    2.0155   -0.5430  -25.3246 H   0  0  0  0  0  0  0  0  0  0  0  0
    4.3044    3.5911  -20.8661 H   0  0  0  0  0  0  0  0  0  0  0  0
    3.7136    0.4592  -22.6026 H   0  0  0  0  0  0  0  0  0  0  0  0
    6.5072    5.0843  -23.2826 H   0  0  0  0  0  0  0  0  0  0  0  0
    6.5819    4.3109  -21.7176 H   0  0  0  0  0  0  0  0  0  0  0  0
    5.1144    5.1103  -22.2279 H   0  0  0  0  0  0  0  0  0  0  0  0
    6.3878    0.4671  -27.9069 H   0  0  0  0  0  0  0  0  0  0  0  0
    5.2266   -0.2302  -26.8030 H   0  0  0  0  0  0  0  0  0  0  0  0
    6.8711    0.0463  -26.2813 H   0  0  0  0  0  0  0  0  0  0  0  0
    6.2239    1.7221  -20.4664 H   0  0  0  0  0  0  0  0  0  0  0  0
    4.8906    1.1340  -19.4719 H   0  0  0  0  0  0  0  0  0  0  0  0
  1  2  2  0
  2  3  1  0
  2 46  1  0
  3 27  1  0
  3  4  2  0
  4  5  1  0
  4 47  1  0
  5  6  1  0
  6  7  2  0
  6 48  1  0
  7  8  1  0
  7 49  1  0
  8  9  1  0
  9  1  1  0
  9  5  2  0
 10  1  1  0
 10 50  1  0
 10 51  1  0
 11 12  1  0
 11 52  1  6
 12 13  1  0
 12 53  1  0
 12 54  1  0
 13 10  1  0
 13 14  1  0
 14 15  1  0
 14 16  1  0
 14 55  1  6
 15 56  1  0
 15 57  1  0
 15 58  1  0
 16 17  2  0
 17 18  1  0
 18 19  1  0
 18 20  2  0
 19 24  1  0
 20 21  1  0
 20 59  1  0
 21 22  2  0
 21 60  1  0
 22 23  1  0
 22 16  1  0
 23 11  1  0
 25 26  1  0
 25 61  1  0
 25 62  1  0
 25 63  1  0
 26 11  1  0
 26 64  1  0
 26 65  1  0
 27 41  1  0
 27 28  1  0
 27 66  1  6
 28 29  2  0
 29 30  1  0
 29 67  1  0
 30 31  2  0
 31 32  1  0
 32 33  2  0
 32 35  1  0
 33 34  1  0
 33 28  1  0
 34 68  1  0
 34 69  1  0
 34 70  1  0
 35 36  1  0
 35 39  1  0
 36 37  1  0
 36 40  1  0
 37 38  1  0
 37 31  1  0
 38 71  1  0
 38 72  1  0
 38 73  1  0
 41 42  1  0
 41 74  1  0
 41 75  1  0
 42 43  2  0
 42 44  1  0
 44 45  1  0
M  END
>  <minimizedAffinity>  (9) 
-10.20698

>  <mol_id>  (9) 
122553

>  <source_index>  (9) 
8

>  <layer>  (9) 
L2

>  <uniprot>  (9) 
Q14145

>  <paff>  (9) 
7.6989999999999998

>  <smiles>  (9) 
CC[C@@H]1CN(Cc2cc([C@@H](CC(=O)O)c3cnc4c(c3C)NNN4C)cc3ccsc23)C(C)c2nc(O)ccc2O1

$$$$
L2:Q14145:143441
     RDKit          3D

 74 79  0  0  0  0  0  0  0  0999 V2000
    3.2562    0.3461  -21.6203 C   0  0  0  0  0  0  0  0  0  0  0  0
    4.0220    1.4790  -21.9764 C   0  0  0  0  0  0  0  0  0  0  0  0
    3.7100    2.7783  -21.5695 C   0  0  0  0  0  0  0  0  0  0  0  0
    2.5597    2.9510  -20.7824 C   0  0  0  0  0  0  0  0  0  0  0  0
    1.7145    1.8646  -20.4499 C   0  0  0  0  0  0  0  0  0  0  0  0
    0.4905    1.8560  -19.6980 C   0  0  0  0  0  0  0  0  0  0  0  0
   -0.0571    0.6031  -19.5834 C   0  0  0  0  0  0  0  0  0  0  0  0
    0.8910   -0.5738  -20.3621 S   0  0  0  0  0  0  0  0  0  0  0  0
    2.0741    0.5801  -20.8752 C   0  0  0  0  0  0  0  0  0  0  0  0
    3.7725   -1.0239  -22.0155 C   0  0  0  0  0  0  0  0  0  0  0  0
    3.6772   -1.3474  -25.4160 C   0  0  2  0  0  0  0  0  0  0  0  0
    2.7416   -0.8773  -24.2927 C   0  0  0  0  0  0  0  0  0  0  0  0
    2.9052   -1.6638  -23.0390 N   0  0  0  0  0  0  0  0  0  0  0  0
    2.9479   -3.3395  -23.2071 S   0  0  0  0  0  0  0  0  0  0  0  0
    1.9774   -3.7162  -24.2129 O   0  0  0  0  0  0  0  0  0  0  0  0
    2.9023   -3.9361  -21.8847 O   0  0  0  0  0  0  0  0  0  0  0  0
    4.5184   -3.7415  -23.8824 C   0  0  0  0  0  0  0  0  0  0  0  0
    5.0063   -5.0364  -23.6461 C   0  0  0  0  0  0  0  0  0  0  0  0
    6.2520   -5.3924  -24.1407 C   0  0  0  0  0  0  0  0  0  0  0  0
    6.8774   -6.9671  -23.8921 Cl  0  0  0  0  0  0  0  0  0  0  0  0
    6.9707   -4.4407  -24.8401 C   0  0  0  0  0  0  0  0  0  0  0  0
    6.5205   -3.1831  -25.0718 N   0  0  0  0  0  0  0  0  0  0  0  0
    5.2930   -2.8497  -24.6039 C   0  0  0  0  0  0  0  0  0  0  0  0
    4.9891   -1.5525  -24.8768 O   0  0  0  0  0  0  0  0  0  0  0  0
    5.0547   -0.3670  -27.3705 C   0  0  0  0  0  0  0  0  0  0  0  0
    3.7684   -0.3186  -26.5565 C   0  0  0  0  0  0  0  0  0  0  0  0
    4.5903    3.9958  -21.8805 C   0  0  2  0  0  0  0  0  0  0  0  0
    5.5452    3.8008  -23.0784 C   0  0  0  0  0  0  0  0  0  0  0  0
    6.9272    3.9297  -22.8014 C   0  0  0  0  0  0  0  0  0  0  0  0
    7.9093    3.7311  -23.7759 C   0  0  0  0  0  0  0  0  0  0  0  0
    7.4655    3.4682  -25.0682 C   0  0  0  0  0  0  0  0  0  0  0  0
    6.1207    3.3307  -25.3869 C   0  0  0  0  0  0  0  0  0  0  0  0
    6.0002    3.0647  -26.7294 N   0  0  0  0  0  0  0  0  0  0  0  0
    7.2152    3.0314  -27.2596 N   0  0  0  0  0  0  0  0  0  0  0  0
    8.0915    3.2693  -26.2694 N   0  0  0  0  0  0  0  0  0  0  0  0
    9.5029    3.2633  -26.5432 C   0  0  0  0  0  0  0  0  0  0  0  0
    5.1185    3.4600  -24.3949 C   0  0  0  0  0  0  0  0  0  0  0  0
    3.6758    3.2941  -24.7785 C   0  0  0  0  0  0  0  0  0  0  0  0
    9.2406    3.8705  -23.4962 O   0  0  0  0  0  0  0  0  0  0  0  0
    9.7574    2.7226  -22.8260 C   0  0  0  0  0  0  0  0  0  0  0  0
    8.8276    2.1624  -22.0253 F   0  0  0  0  0  0  0  0  0  0  0  0
   10.7986    3.1112  -22.0591 F   0  0  0  0  0  0  0  0  0  0  0  0
   10.2084    1.8073  -23.7091 F   0  0  0  0  0  0  0  0  0  0  0  0
    5.3952    4.6301  -20.7262 C   0  0  0  0  0  0  0  0  0  0  0  0
    5.7075    3.6192  -19.6588 C   0  0  0  0  0  0  0  0  0  0  0  0
    6.5210    2.7153  -19.7342 O   0  0  0  0  0  0  0  0  0  0  0  0
    5.0062    3.8587  -18.5333 O   0  0  0  0  0  0  0  0  0  0  0  0
    5.5316    3.4428  -17.8049 H   0  0  0  0  0  0  0  0  0  0  0  0
    4.8557    1.3391  -22.5683 H   0  0  0  0  0  0  0  0  0  0  0  0
    2.3242    3.8946  -20.4372 H   0  0  0  0  0  0  0  0  0  0  0  0
    0.0675    2.7030  -19.2873 H   0  0  0  0  0  0  0  0  0  0  0  0
   -0.9376    0.3998  -19.0850 H   0  0  0  0  0  0  0  0  0  0  0  0
    4.7603   -0.9207  -22.4135 H   0  0  0  0  0  0  0  0  0  0  0  0
    3.7733   -1.6444  -21.1438 H   0  0  0  0  0  0  0  0  0  0  0  0
    3.2780   -2.2559  -25.8164 H   0  0  0  0  0  0  0  0  0  0  0  0
    1.7299   -0.9740  -24.6274 H   0  0  0  0  0  0  0  0  0  0  0  0
    2.9905    0.1393  -24.0702 H   0  0  0  0  0  0  0  0  0  0  0  0
    4.4441   -5.7160  -23.1102 H   0  0  0  0  0  0  0  0  0  0  0  0
    7.8999   -4.7017  -25.2055 H   0  0  0  0  0  0  0  0  0  0  0  0
    5.0220    0.3819  -28.1341 H   0  0  0  0  0  0  0  0  0  0  0  0
    5.1553   -1.3321  -27.8215 H   0  0  0  0  0  0  0  0  0  0  0  0
    5.8906   -0.1848  -26.7278 H   0  0  0  0  0  0  0  0  0  0  0  0
    2.9484   -0.4888  -27.2225 H   0  0  0  0  0  0  0  0  0  0  0  0
    3.7472    0.6445  -26.0907 H   0  0  0  0  0  0  0  0  0  0  0  0
    3.8148    4.6930  -22.1200 H   0  0  0  0  0  0  0  0  0  0  0  0
    7.2207    4.1797  -21.8441 H   0  0  0  0  0  0  0  0  0  0  0  0
    9.6633    3.0790  -27.5849 H   0  0  0  0  0  0  0  0  0  0  0  0
    9.9745    2.4941  -25.9681 H   0  0  0  0  0  0  0  0  0  0  0  0
    9.9212    4.2124  -26.2804 H   0  0  0  0  0  0  0  0  0  0  0  0
    3.6095    3.0393  -25.8156 H   0  0  0  0  0  0  0  0  0  0  0  0
    3.1522    4.2105  -24.6022 H   0  0  0  0  0  0  0  0  0  0  0  0
    3.2379    2.5144  -24.1909 H   0  0  0  0  0  0  0  0  0  0  0  0
    4.8216    5.4247  -20.2967 H   0  0  0  0  0  0  0  0  0  0  0  0
    6.3181    5.0004  -21.1213 H   0  0  0  0  0  0  0  0  0  0  0  0
  1  2  2  0
  2  3  1  0
  2 49  1  0
  3 27  1  0
  3  4  2  0
  4  5  1  0
  4 50  1  0
  5  6  1  0
  6  7  2  0
  6 51  1  0
  7  8  1  0
  7 52  1  0
  8  9  1  0
  9  1  1  0
  9  5  2  0
 10  1  1  0
 10 53  1  0
 10 54  1  0
 11 12  1  0
 11 55  1  6
 12 13  1  0
 12 56  1  0
 12 57  1  0
 13 10  1  0
 13 14  1  0
 14 15  2  0
 14 16  2  0
 14 17  1  0
 17 18  2  0
 18 19  1  0
 18 58  1  0
 19 20  1  0
 19 21  2  0
 21 22  1  0
 21 59  1  0
 22 23  2  0
 23 24  1  0
 23 17  1  0
 24 11  1  0
 25 26  1  0
 25 60  1  0
 25 61  1  0
 25 62  1  0
 26 11  1  0
 26 63  1  0
 26 64  1  0
 27 44  1  0
 27 28  1  0
 27 65  1  6
 28 29  2  0
 29 30  1  0
 29 66  1  0
 30 39  1  0
 30 31  2  0
 31 32  1  0
 32 33  1  0
 32 37  2  0
 33 34  2  0
 34 35  1  0
 35 36  1  0
 35 31  1  0
 36 67  1  0
 36 68  1  0
 36 69  1  0
 37 38  1  0
 37 28  1  0
 38 70  1  0
 38 71  1  0
 38 72  1  0
 39 40  1  0
 40 41  1  0
 40 42  1  0
 40 43  1  0
 44 45  1  0
 44 73  1  0
 44 74  1  0
 45 46  2  0
 45 47  1  0
 47 48  1  0
M  END
>  <minimizedAffinity>  (10) 
-9.73270

>  <mol_id>  (10) 
143441

>  <source_index>  (10) 
9

>  <layer>  (10) 
L2

>  <uniprot>  (10) 
Q14145

>  <paff>  (10) 
8

>  <smiles>  (10) 
CC[C@@H]1CN(Cc2cc([C@@H](CC(=O)O)c3cc(OC(F)(F)F)c4c(nnn4C)c3C)cc3ccsc23)S(=O)(=O)c2cc(Cl)cnc2O1

$$$$
