L2:Q14145:1372
     RDKit          3D

 74 79  0  0  0  0  0  0  0  0999 V2000
    3.4150    1.2258  -21.1973 C   0  0  0  0  0  0  0  0  0  0  0  0
    3.7067   -0.0848  -21.6352 C   0  0  0  0  0  0  0  0  0  0  0  0
    2.7706   -1.1271  -21.6095 C   0  0  0  0  0  0  0  0  0  0  0  0
    1.4937   -0.8433  -21.1123 C   0  0  0  0  0  0  0  0  0  0  0  0
    1.1427    0.4563  -20.6649 C   0  0  0  0  0  0  0  0  0  0  0  0
   -0.1058    0.9359  -20.1402 C   0  0  0  0  0  0  0  0  0  0  0  0
   -0.0722    2.2679  -19.8094 C   0  0  0  0  0  0  0  0  0  0  0  0
    1.4502    2.9585  -20.1216 S   0  0  0  0  0  0  0  0  0  0  0  0
    2.1064    1.4691  -20.7151 C   0  0  0  0  0  0  0  0  0  0  0  0
    4.5108    2.2690  -21.2668 C   0  0  0  0  0  0  0  0  0  0  0  0
    4.9564    1.5293  -24.5086 C   0  0  2  0  0  0  0  0  0  0  0  0
    3.9035    2.3037  -23.6937 C   0  0  0  0  0  0  0  0  0  0  0  0
    4.4503    3.0393  -22.5323 N   0  0  0  0  0  0  0  0  0  0  0  0
    5.6629    4.1533  -22.8325 S   0  0  0  0  0  0  0  0  0  0  0  0
    5.9049    4.8728  -21.5994 O   0  0  0  0  0  0  0  0  0  0  0  0
    5.3281    4.8628  -24.0484 O   0  0  0  0  0  0  0  0  0  0  0  0
    7.1150    3.2369  -23.1737 C   0  0  0  0  0  0  0  0  0  0  0  0
    8.3381    3.9088  -23.0187 C   0  0  0  0  0  0  0  0  0  0  0  0
    9.5234    3.2231  -23.2313 C   0  0  0  0  0  0  0  0  0  0  0  0
   11.0372    4.0069  -23.0566 Cl  0  0  0  0  0  0  0  0  0  0  0  0
    9.4458    1.8889  -23.5796 C   0  0  0  0  0  0  0  0  0  0  0  0
    8.2757    1.2216  -23.7271 N   0  0  0  0  0  0  0  0  0  0  0  0
    7.1186    1.9040  -23.5386 C   0  0  0  0  0  0  0  0  0  0  0  0
    6.0442    1.0897  -23.6900 O   0  0  0  0  0  0  0  0  0  0  0  0
    6.0305    1.1823  -26.7933 C   0  0  0  0  0  0  0  0  0  0  0  0
    5.3380    2.1690  -25.8591 C   0  0  0  0  0  0  0  0  0  0  0  0
    3.2065   -2.5085  -22.1132 C   0  0  2  0  0  0  0  0  0  0  0  0
    3.8330   -2.4789  -23.5200 C   0  0  0  0  0  0  0  0  0  0  0  0
    5.2182   -2.7436  -23.6545 C   0  0  0  0  0  0  0  0  0  0  0  0
    5.8861   -2.7182  -24.8855 C   0  0  0  0  0  0  0  0  0  0  0  0
    5.0936   -2.4098  -25.9911 C   0  0  0  0  0  0  0  0  0  0  0  0
    3.7341   -2.1412  -25.9132 C   0  0  0  0  0  0  0  0  0  0  0  0
    3.2506   -1.8725  -27.1709 N   0  0  0  0  0  0  0  0  0  0  0  0
    4.2539   -1.9628  -28.0319 N   0  0  0  0  0  0  0  0  0  0  0  0
    5.3540   -2.2894  -27.3306 N   0  0  0  0  0  0  0  0  0  0  0  0
    6.6115   -2.4682  -28.0065 C   0  0  0  0  0  0  0  0  0  0  0  0
    3.0601   -2.1673  -24.6723 C   0  0  0  0  0  0  0  0  0  0  0  0
    1.5837   -1.8945  -24.6006 C   0  0  0  0  0  0  0  0  0  0  0  0
    7.2143   -2.9589  -25.0862 O   0  0  0  0  0  0  0  0  0  0  0  0
    7.6625   -4.2954  -24.8865 C   0  0  0  0  0  0  0  0  0  0  0  0
    2.2127   -3.6767  -21.9528 C   0  0  0  0  0  0  0  0  0  0  0  0
    2.4507   -4.5682  -20.7619 C   0  0  0  0  0  0  0  0  0  0  0  0
    3.4943   -5.1115  -20.4413 O   0  0  0  0  0  0  0  0  0  0  0  0
    1.3313   -4.7693  -20.0391 O   0  0  0  0  0  0  0  0  0  0  0  0
    1.6156   -5.3426  -19.2970 H   0  0  0  0  0  0  0  0  0  0  0  0
    4.6546   -0.2844  -21.9911 H   0  0  0  0  0  0  0  0  0  0  0  0
    0.7905   -1.5975  -21.0701 H   0  0  0  0  0  0  0  0  0  0  0  0
   -0.9410    0.3410  -20.0240 H   0  0  0  0  0  0  0  0  0  0  0  0
   -0.8738    2.7872  -19.4186 H   0  0  0  0  0  0  0  0  0  0  0  0
    4.4008    2.9438  -20.4437 H   0  0  0  0  0  0  0  0  0  0  0  0
    5.4547    1.7668  -21.2250 H   0  0  0  0  0  0  0  0  0  0  0  0
    4.4792    0.6310  -24.8407 H   0  0  0  0  0  0  0  0  0  0  0  0
    3.1770    1.6047  -23.3354 H   0  0  0  0  0  0  0  0  0  0  0  0
    3.4868    3.0375  -24.3516 H   0  0  0  0  0  0  0  0  0  0  0  0
    8.3542    4.9047  -22.7488 H   0  0  0  0  0  0  0  0  0  0  0  0
   10.3257    1.3727  -23.7358 H   0  0  0  0  0  0  0  0  0  0  0  0
    6.2739    1.6724  -27.7128 H   0  0  0  0  0  0  0  0  0  0  0  0
    5.3765    0.3587  -26.9904 H   0  0  0  0  0  0  0  0  0  0  0  0
    6.9269    0.8235  -26.3322 H   0  0  0  0  0  0  0  0  0  0  0  0
    4.4481    2.5258  -26.3342 H   0  0  0  0  0  0  0  0  0  0  0  0
    6.0227    2.9669  -25.6608 H   0  0  0  0  0  0  0  0  0  0  0  0
    3.9736   -2.7472  -21.4064 H   0  0  0  0  0  0  0  0  0  0  0  0
    5.7609   -2.9657  -22.8053 H   0  0  0  0  0  0  0  0  0  0  0  0
    6.4794   -2.3025  -29.0553 H   0  0  0  0  0  0  0  0  0  0  0  0
    6.9648   -3.4651  -27.8447 H   0  0  0  0  0  0  0  0  0  0  0  0
    7.3254   -1.7700  -27.6222 H   0  0  0  0  0  0  0  0  0  0  0  0
    1.2118   -1.6841  -25.5816 H   0  0  0  0  0  0  0  0  0  0  0  0
    1.4070   -1.0528  -23.9640 H   0  0  0  0  0  0  0  0  0  0  0  0
    1.0813   -2.7524  -24.2051 H   0  0  0  0  0  0  0  0  0  0  0  0
    8.7144   -4.3506  -25.0743 H   0  0  0  0  0  0  0  0  0  0  0  0
    7.1456   -4.9490  -25.5577 H   0  0  0  0  0  0  0  0  0  0  0  0
    7.4643   -4.5910  -23.8774 H   0  0  0  0  0  0  0  0  0  0  0  0
    2.2685   -4.2810  -22.8340 H   0  0  0  0  0  0  0  0  0  0  0  0
    1.2533   -3.2287  -21.7989 H   0  0  0  0  0  0  0  0  0  0  0  0
  1  2  2  0
  2  3  1  0
  2 46  1  0
  3 27  1  0
  3  4  2  0
  4  5  1  0
  4 47  1  0
  5  6  1  0
  6  7  2  0
  6 48  1  0
  7  8  1  0
  7 49  1  0
  8  9  1  0
  9  1  1  0
  9  5  2  0
 10  1  1  0
 10 50  1  0
 10 51  1  0
 11 12  1  0
 11 52  1  6
 12 13  1  0
 12 53  1  0
 12 54  1  0
 13 10  1  0
 13 14  1  0
 14 15  2  0
 14 16  2  0
 14 17  1  0
 17 18  2  0
 18 19  1  0
 18 55  1  0
 19 20  1  0
 19 21  2  0
 21 22  1  0
 21 56  1  0
 22 23  2  0
 23 24  1  0
 23 17  1  0
 24 11  1  0
 25 26  1  0
 25 57  1  0
 25 58  1  0
 25 59  1  0
 26 11  1  0
 26 60  1  0
 26 61  1  0
 27 41  1  0
 27 28  1  0
 27 62  1  1
 28 29  2  0
 29 30  1  0
 29 63  1  0
 30 39  1  0
 30 31  2  0
 31 32  1  0
 32 33  1  0
 32 37  2  0
 33 34  2  0
 34 35  1  0
 35 36  1  0
 35 31  1  0
 36 64  1  0
 36 65  1  0
 36 66  1  0
 37 38  1  0
 37 28  1  0
 38 67  1  0
 38 68  1  0
 38 69  1  0
 39 40  1  0
 40 70  1  0
 40 71  1  0
 40 72  1  0
 41 42  1  0
 41 73  1  0
 41 74  1  0
 42 43  2  0
 42 44  1  0
 44 45  1  0
M  END
>  <minimizedAffinity>  (1) 
-9.79888

>  <mol_id>  (1) 
1372

>  <source_index>  (1) 
0

>  <layer>  (1) 
L2

>  <uniprot>  (1) 
Q14145

>  <paff>  (1) 
7.6989999999999998

>  <smiles>  (1) 
CC[C@@H]1CN(Cc2cc(C(CC(=O)O)c3cc(OC)c4c(nnn4C)c3C)cc3ccsc23)S(=O)(=O)c2cc(Cl)cnc2O1

$$$$
L2:Q14145:15758
     RDKit          3D

 78 84  0  0  0  0  0  0  0  0999 V2000
    2.1711    1.6153  -20.5731 C   0  0  0  0  0  0  0  0  0  0  0  0
    2.4757    0.3198  -21.0535 C   0  0  0  0  0  0  0  0  0  0  0  0
    1.5969   -0.7645  -20.9350 C   0  0  0  0  0  0  0  0  0  0  0  0
    0.3567   -0.5581  -20.3014 C   0  0  0  0  0  0  0  0  0  0  0  0
    0.0413    0.7241  -19.8391 C   0  0  0  0  0  0  0  0  0  0  0  0
   -1.0987    1.1758  -19.2125 N   0  0  0  0  0  0  0  0  0  0  0  0
   -0.9846    2.5091  -18.9274 C   0  0  0  0  0  0  0  0  0  0  0  0
    0.2444    2.9291  -19.3799 C   0  0  0  0  0  0  0  0  0  0  0  0
    0.9089    1.8079  -19.9613 C   0  0  0  0  0  0  0  0  0  0  0  0
   -1.9017    0.5991  -19.0022 H   0  0  0  0  0  0  0  0  0  0  0  0
    3.1953    2.7188  -20.7333 C   0  0  0  0  0  0  0  0  0  0  0  0
    4.0704    1.5565  -23.9654 C   0  0  2  0  0  0  0  0  0  0  0  0
    4.0288    2.8417  -23.1146 C   0  0  0  0  0  0  0  0  0  0  0  0
    4.2711    2.4615  -21.7112 N   0  0  0  0  0  0  0  0  0  0  0  0
    5.8569    2.4921  -21.1628 S   0  0  0  0  0  0  0  0  0  0  0  0
    5.9746    1.5902  -20.0391 O   0  0  0  0  0  0  0  0  0  0  0  0
    6.2356    3.8860  -21.0389 O   0  0  0  0  0  0  0  0  0  0  0  0
    6.8448    1.8429  -22.4596 C   0  0  0  0  0  0  0  0  0  0  0  0
    8.1979    2.2034  -22.4981 C   0  0  0  0  0  0  0  0  0  0  0  0
    8.9875    1.7496  -23.5447 C   0  0  0  0  0  0  0  0  0  0  0  0
   10.6496    2.1608  -23.6310 Cl  0  0  0  0  0  0  0  0  0  0  0  0
    8.3954    0.9635  -24.5185 C   0  0  0  0  0  0  0  0  0  0  0  0
    7.0861    0.6146  -24.5073 N   0  0  0  0  0  0  0  0  0  0  0  0
    6.3282    1.0676  -23.4796 C   0  0  0  0  0  0  0  0  0  0  0  0
    5.0488    0.6040  -23.5045 O   0  0  0  0  0  0  0  0  0  0  0  0
    4.7693    3.2396  -25.7388 C   0  0  0  0  0  0  0  0  0  0  0  0
    4.1776    1.8631  -25.4672 C   0  0  0  0  0  0  0  0  0  0  0  0
    1.9407   -2.1805  -21.4215 C   0  0  1  0  0  0  0  0  0  0  0  0
    2.6735   -2.2177  -22.7751 C   0  0  0  0  0  0  0  0  0  0  0  0
    3.9848   -2.7352  -22.8277 C   0  0  0  0  0  0  0  0  0  0  0  0
    4.7386   -2.8524  -24.0114 C   0  0  0  0  0  0  0  0  0  0  0  0
    4.1094   -2.3680  -25.1684 C   0  0  0  0  0  0  0  0  0  0  0  0
    2.8163   -1.8483  -25.1628 C   0  0  0  0  0  0  0  0  0  0  0  0
    2.4675   -1.4661  -26.4338 N   0  0  0  0  0  0  0  0  0  0  0  0
    3.4873   -1.7162  -27.2371 N   0  0  0  0  0  0  0  0  0  0  0  0
    4.4721   -2.2436  -26.4876 N   0  0  0  0  0  0  0  0  0  0  0  0
    5.7198   -2.5724  -27.1234 C   0  0  0  0  0  0  0  0  0  0  0  0
    2.0586   -1.7676  -23.9720 C   0  0  0  0  0  0  0  0  0  0  0  0
    0.6678   -1.1959  -23.9924 C   0  0  0  0  0  0  0  0  0  0  0  0
    6.1261   -3.4197  -24.0585 C   0  0  0  0  0  0  0  0  0  0  0  0
    6.8179   -3.8393  -22.7809 C   0  0  0  0  0  0  0  0  0  0  0  0
    7.2933   -2.6243  -23.5121 C   0  0  0  0  0  0  0  0  0  0  0  0
    2.5695   -3.1641  -20.4114 C   0  0  0  0  0  0  0  0  0  0  0  0
    2.1999   -4.6157  -20.5812 C   0  0  0  0  0  0  0  0  0  0  0  0
    2.9107   -5.5388  -20.9381 O   0  0  0  0  0  0  0  0  0  0  0  0
    0.9213   -4.8539  -20.2203 O   0  0  0  0  0  0  0  0  0  0  0  0
    0.8196   -5.8213  -20.3406 H   0  0  0  0  0  0  0  0  0  0  0  0
    3.3873    0.1667  -21.5123 H   0  0  0  0  0  0  0  0  0  0  0  0
   -0.3077   -1.3385  -20.1802 H   0  0  0  0  0  0  0  0  0  0  0  0
   -1.6930    3.0942  -18.4575 H   0  0  0  0  0  0  0  0  0  0  0  0
    0.6204    3.8877  -19.3110 H   0  0  0  0  0  0  0  0  0  0  0  0
    2.6784    3.6042  -21.0396 H   0  0  0  0  0  0  0  0  0  0  0  0
    3.6808    2.8040  -19.7836 H   0  0  0  0  0  0  0  0  0  0  0  0
    3.1274    1.0702  -23.8272 H   0  0  0  0  0  0  0  0  0  0  0  0
    3.0696    3.3072  -23.2051 H   0  0  0  0  0  0  0  0  0  0  0  0
    4.7730    3.5346  -23.4478 H   0  0  0  0  0  0  0  0  0  0  0  0
    8.6019    2.7984  -21.7580 H   0  0  0  0  0  0  0  0  0  0  0  0
    8.9836    0.6246  -25.2958 H   0  0  0  0  0  0  0  0  0  0  0  0
    4.8221    3.4031  -26.7949 H   0  0  0  0  0  0  0  0  0  0  0  0
    5.7524    3.2942  -25.3198 H   0  0  0  0  0  0  0  0  0  0  0  0
    4.1492    3.9888  -25.2925 H   0  0  0  0  0  0  0  0  0  0  0  0
    4.8020    1.1245  -25.9248 H   0  0  0  0  0  0  0  0  0  0  0  0
    3.1882    1.8476  -25.8744 H   0  0  0  0  0  0  0  0  0  0  0  0
    0.9537   -2.5703  -21.5590 H   0  0  0  0  0  0  0  0  0  0  0  0
    4.4182   -3.0470  -21.9446 H   0  0  0  0  0  0  0  0  0  0  0  0
    5.6581   -2.3475  -28.1677 H   0  0  0  0  0  0  0  0  0  0  0  0
    5.9219   -3.6152  -26.9944 H   0  0  0  0  0  0  0  0  0  0  0  0
    6.5075   -1.9991  -26.6810 H   0  0  0  0  0  0  0  0  0  0  0  0
    0.4088   -0.9236  -24.9942 H   0  0  0  0  0  0  0  0  0  0  0  0
    0.6292   -0.3293  -23.3660 H   0  0  0  0  0  0  0  0  0  0  0  0
   -0.0241   -1.9280  -23.6315 H   0  0  0  0  0  0  0  0  0  0  0  0
    5.8976   -3.8917  -24.9912 H   0  0  0  0  0  0  0  0  0  0  0  0
    7.4208   -4.7232  -22.7658 H   0  0  0  0  0  0  0  0  0  0  0  0
    6.4965   -4.0394  -21.7801 H   0  0  0  0  0  0  0  0  0  0  0  0
    8.2351   -2.6407  -24.0196 H   0  0  0  0  0  0  0  0  0  0  0  0
    7.4512   -1.5990  -23.2497 H   0  0  0  0  0  0  0  0  0  0  0  0
    2.2676   -2.8625  -19.4302 H   0  0  0  0  0  0  0  0  0  0  0  0
    3.6248   -3.1145  -20.5809 H   0  0  0  0  0  0  0  0  0  0  0  0
  1  2  2  0
  2  3  1  0
  2 48  1  0
  3 28  1  0
  3  4  2  0
  4  5  1  0
  4 49  1  0
  5  6  1  0
  6  7  1  0
  6 10  1  0
  7  8  2  0
  7 50  1  0
  8  9  1  0
  8 51  1  0
  9  1  1  0
  9  5  2  0
 11  1  1  0
 11 52  1  0
 11 53  1  0
 12 13  1  0
 12 54  1  6
 13 14  1  0
 13 55  1  0
 13 56  1  0
 14 11  1  0
 14 15  1  0
 15 16  2  0
 15 17  2  0
 15 18  1  0
 18 19  2  0
 19 20  1  0
 19 57  1  0
 20 21  1  0
 20 22  2  0
 22 23  1  0
 22 58  1  0
 23 24  2  0
 24 25  1  0
 24 18  1  0
 25 12  1  0
 26 27  1  0
 26 59  1  0
 26 60  1  0
 26 61  1  0
 27 12  1  0
 27 62  1  0
 27 63  1  0
 28 43  1  0
 28 29  1  0
 28 64  1  6
 29 30  2  0
 30 31  1  0
 30 65  1  0
 31 40  1  0
 31 32  2  0
 32 33  1  0
 33 34  1  0
 33 38  2  0
 34 35  2  0
 35 36  1  0
 36 37  1  0
 36 32  1  0
 37 66  1  0
 37 67  1  0
 37 68  1  0
 38 39  1  0
 38 29  1  0
 39 69  1  0
 39 70  1  0
 39 71  1  0
 40 41  1  0
 40 72  1  0
 41 42  1  0
 41 73  1  0
 41 74  1  0
 42 40  1  0
 42 75  1  0
 42 76  1  0
 43 44  1  0
 43 77  1  0
 43 78  1  0
 44 45  2  0
 44 46  1  0
 46 47  1  0
M  END
>  <minimizedAffinity>  (2) 
-10.59499

>  <mol_id>  (2) 
15758

>  <source_index>  (2) 
1

>  <layer>  (2) 
L2

>  <uniprot>  (2) 
Q14145

>  <paff>  (2) 
8

>  <smiles>  (2) 
CC[C@@H]1CN(Cc2cc(C(CC(=O)O)c3cc(C4CC4)c4c(nnn4C)c3C)cc3[nH]ccc23)S(=O)(=O)c2cc(Cl)cnc2O1

$$$$
L2:Q14145:16948
     RDKit          3D

 74 79  0  0  0  0  0  0  0  0999 V2000
    1.5656    0.2172  -20.9808 C   0  0  0  0  0  0  0  0  0  0  0  0
    2.9181    0.6173  -21.0509 C   0  0  0  0  0  0  0  0  0  0  0  0
    3.3866    1.8397  -20.5562 C   0  0  0  0  0  0  0  0  0  0  0  0
    2.4574    2.6956  -19.9524 C   0  0  0  0  0  0  0  0  0  0  0  0
    1.0834    2.3532  -19.8633 C   0  0  0  0  0  0  0  0  0  0  0  0
   -0.0095    3.0983  -19.3022 C   0  0  0  0  0  0  0  0  0  0  0  0
   -1.2127    2.4452  -19.4060 C   0  0  0  0  0  0  0  0  0  0  0  0
   -1.0492    0.9371  -20.1738 S   0  0  0  0  0  0  0  0  0  0  0  0
    0.6591    1.1239  -20.3820 C   0  0  0  0  0  0  0  0  0  0  0  0
    1.1812   -1.1242  -21.5743 C   0  0  0  0  0  0  0  0  0  0  0  0
    3.3708   -3.8463  -22.2982 C   0  0  2  0  0  0  0  0  0  0  0  0
    3.3342   -2.3135  -22.0715 C   0  0  0  0  0  0  0  0  0  0  0  0
    2.1545   -1.5710  -22.6000 N   0  0  0  0  0  0  0  0  0  0  0  0
    1.4907   -1.9522  -24.1037 S   0  0  0  0  0  0  0  0  0  0  0  0
    0.6282   -3.1016  -23.9572 O   0  0  0  0  0  0  0  0  0  0  0  0
    0.9660   -0.7146  -24.6495 O   0  0  0  0  0  0  0  0  0  0  0  0
    2.9019   -2.3933  -25.0290 C   0  0  0  0  0  0  0  0  0  0  0  0
    3.3639   -1.6291  -26.0979 C   0  0  0  0  0  0  0  0  0  0  0  0
    4.5378   -2.0255  -26.7262 C   0  0  0  0  0  0  0  0  0  0  0  0
    5.1662   -1.1289  -28.0463 Cl  0  0  0  0  0  0  0  0  0  0  0  0
    5.1972   -3.1546  -26.2545 C   0  0  0  0  0  0  0  0  0  0  0  0
    4.7620   -3.9044  -25.2104 N   0  0  0  0  0  0  0  0  0  0  0  0
    3.6149   -3.5044  -24.6230 C   0  0  0  0  0  0  0  0  0  0  0  0
    3.1443   -4.3181  -23.6381 O   0  0  0  0  0  0  0  0  0  0  0  0
    2.1188   -3.9627  -20.0605 C   0  0  0  0  0  0  0  0  0  0  0  0
    2.3819   -4.6184  -21.4066 C   0  0  0  0  0  0  0  0  0  0  0  0
    4.8811    2.1603  -20.6796 C   0  0  1  0  0  0  0  0  0  0  0  0
    5.3488    2.1960  -22.1493 C   0  0  0  0  0  0  0  0  0  0  0  0
    6.4162    1.3260  -22.4842 C   0  0  0  0  0  0  0  0  0  0  0  0
    6.9161    1.2093  -23.7839 C   0  0  0  0  0  0  0  0  0  0  0  0
    6.3664    2.0548  -24.7401 C   0  0  0  0  0  0  0  0  0  0  0  0
    5.3202    2.9236  -24.4632 C   0  0  0  0  0  0  0  0  0  0  0  0
    4.9838    3.6017  -25.6098 N   0  0  0  0  0  0  0  0  0  0  0  0
    5.7832    3.1960  -26.5864 N   0  0  0  0  0  0  0  0  0  0  0  0
    6.6166    2.2785  -26.0670 N   0  0  0  0  0  0  0  0  0  0  0  0
    7.6224    1.6663  -26.8944 C   0  0  0  0  0  0  0  0  0  0  0  0
    4.7602    3.0037  -23.1639 C   0  0  0  0  0  0  0  0  0  0  0  0
    3.6223    3.9509  -22.9170 C   0  0  0  0  0  0  0  0  0  0  0  0
    7.9307    0.3531  -24.1100 O   0  0  0  0  0  0  0  0  0  0  0  0
    7.4572   -0.9840  -24.2566 C   0  0  0  0  0  0  0  0  0  0  0  0
    7.8238   -1.3966  -25.4973 F   0  0  0  0  0  0  0  0  0  0  0  0
    8.1191   -1.7762  -23.3758 F   0  0  0  0  0  0  0  0  0  0  0  0
    5.3818    3.3449  -19.8358 C   0  0  0  0  0  0  0  0  0  0  0  0
    5.9191    2.9165  -18.5006 C   0  0  0  0  0  0  0  0  0  0  0  0
    6.5956    1.9245  -18.2875 O   0  0  0  0  0  0  0  0  0  0  0  0
    5.6422    3.7823  -17.5085 O   0  0  0  0  0  0  0  0  0  0  0  0
    6.0654    3.3796  -16.7197 H   0  0  0  0  0  0  0  0  0  0  0  0
    3.5962   -0.0251  -21.4897 H   0  0  0  0  0  0  0  0  0  0  0  0
    2.7792    3.5957  -19.5634 H   0  0  0  0  0  0  0  0  0  0  0  0
    0.0987    4.0276  -18.8666 H   0  0  0  0  0  0  0  0  0  0  0  0
   -2.1081    2.8239  -19.0598 H   0  0  0  0  0  0  0  0  0  0  0  0
    1.1448   -1.8521  -20.7909 H   0  0  0  0  0  0  0  0  0  0  0  0
    0.2262   -1.0185  -22.0452 H   0  0  0  0  0  0  0  0  0  0  0  0
    4.3910   -4.0437  -22.0431 H   0  0  0  0  0  0  0  0  0  0  0  0
    4.2068   -1.8998  -22.5322 H   0  0  0  0  0  0  0  0  0  0  0  0
    3.2797   -2.1947  -21.0095 H   0  0  0  0  0  0  0  0  0  0  0  0
    2.8490   -0.7925  -26.4140 H   0  0  0  0  0  0  0  0  0  0  0  0
    6.0696   -3.4397  -26.7264 H   0  0  0  0  0  0  0  0  0  0  0  0
    1.4252   -4.5574  -19.5036 H   0  0  0  0  0  0  0  0  0  0  0  0
    1.7090   -2.9862  -20.2135 H   0  0  0  0  0  0  0  0  0  0  0  0
    3.0371   -3.8830  -19.5170 H   0  0  0  0  0  0  0  0  0  0  0  0
    1.4514   -4.6996  -21.9286 H   0  0  0  0  0  0  0  0  0  0  0  0
    2.8265   -5.5705  -21.2048 H   0  0  0  0  0  0  0  0  0  0  0  0
    5.3732    1.3292  -20.2192 H   0  0  0  0  0  0  0  0  0  0  0  0
    6.8419    0.7550  -21.7373 H   0  0  0  0  0  0  0  0  0  0  0  0
    7.5549    2.0591  -27.8874 H   0  0  0  0  0  0  0  0  0  0  0  0
    7.4687    0.6077  -26.9183 H   0  0  0  0  0  0  0  0  0  0  0  0
    8.5915    1.8770  -26.4926 H   0  0  0  0  0  0  0  0  0  0  0  0
    3.3600    4.4396  -23.8321 H   0  0  0  0  0  0  0  0  0  0  0  0
    3.9175    4.6823  -22.1940 H   0  0  0  0  0  0  0  0  0  0  0  0
    2.7781    3.4061  -22.5490 H   0  0  0  0  0  0  0  0  0  0  0  0
    6.3999   -1.0325  -24.0996 H   0  0  0  0  0  0  0  0  0  0  0  0
    4.5676    4.0207  -19.6768 H   0  0  0  0  0  0  0  0  0  0  0  0
    6.1817    3.8102  -20.3729 H   0  0  0  0  0  0  0  0  0  0  0  0
  1  2  2  0
  2  3  1  0
  2 48  1  0
  3 27  1  0
  3  4  2  0
  4  5  1  0
  4 49  1  0
  5  6  1  0
  6  7  2  0
  6 50  1  0
  7  8  1  0
  7 51  1  0
  8  9  1  0
  9  1  1  0
  9  5  2  0
 10  1  1  0
 10 52  1  0
 10 53  1  0
 11 12  1  0
 11 54  1  1
 12 13  1  0
 12 55  1  0
 12 56  1  0
 13 10  1  0
 13 14  1  0
 14 15  2  0
 14 16  2  0
 14 17  1  0
 17 18  2  0
 18 19  1  0
 18 57  1  0
 19 20  1  0
 19 21  2  0
 21 22  1  0
 21 58  1  0
 22 23  2  0
 23 24  1  0
 23 17  1  0
 24 11  1  0
 25 26  1  0
 25 59  1  0
 25 60  1  0
 25 61  1  0
 26 11  1  0
 26 62  1  0
 26 63  1  0
 27 43  1  0
 27 28  1  0
 27 64  1  1
 28 29  2  0
 29 30  1  0
 29 65  1  0
 30 39  1  0
 30 31  2  0
 31 32  1  0
 32 33  1  0
 32 37  2  0
 33 34  2  0
 34 35  1  0
 35 36  1  0
 35 31  1  0
 36 66  1  0
 36 67  1  0
 36 68  1  0
 37 38  1  0
 37 28  1  0
 38 69  1  0
 38 70  1  0
 38 71  1  0
 39 40  1  0
 40 41  1  0
 40 42  1  0
 40 72  1  0
 43 44  1  0
 43 73  1  0
 43 74  1  0
 44 45  2  0
 44 46  1  0
 46 47  1  0
M  END
>  <minimizedAffinity>  (3) 
-10.28604

>  <mol_id>  (3) 
16948

>  <source_index>  (3) 
2

>  <layer>  (3) 
L2

>  <uniprot>  (3) 
Q14145

>  <paff>  (3) 
7.6989999999999998

>  <smiles>  (3) 
CC[C@@H]6CN(Cc3cc(C(CC(=O)O)c2cc(OC(F)F)c1c(nnn1C)c2C)cc4ccsc34)S(=O)(=O)c5cc(Cl)cnc5O6

$$$$
L2:Q14145:41332
     RDKit          3D

 74 79  0  0  0  0  0  0  0  0999 V2000
    1.9713    1.5965  -20.4916 C   0  0  0  0  0  0  0  0  0  0  0  0
    2.2997    0.2877  -20.9110 C   0  0  0  0  0  0  0  0  0  0  0  0
    1.3971   -0.7829  -20.8622 C   0  0  0  0  0  0  0  0  0  0  0  0
    0.1077   -0.5218  -20.3853 C   0  0  0  0  0  0  0  0  0  0  0  0
   -0.2750    0.7707  -19.9419 C   0  0  0  0  0  0  0  0  0  0  0  0
   -1.5328    1.2204  -19.4129 C   0  0  0  0  0  0  0  0  0  0  0  0
   -1.5319    2.5547  -19.0892 C   0  0  0  0  0  0  0  0  0  0  0  0
   -0.0305    3.2836  -19.4165 S   0  0  0  0  0  0  0  0  0  0  0  0
    0.6614    1.8079  -20.0011 C   0  0  0  0  0  0  0  0  0  0  0  0
    3.0327    2.6745  -20.5981 C   0  0  0  0  0  0  0  0  0  0  0  0
    3.9974    1.5964  -23.9159 C   0  0  2  0  0  0  0  0  0  0  0  0
    3.8158    2.7940  -22.9621 C   0  0  0  0  0  0  0  0  0  0  0  0
    4.0779    2.3142  -21.5833 N   0  0  0  0  0  0  0  0  0  0  0  0
    5.6597    2.5196  -21.0332 S   0  0  0  0  0  0  0  0  0  0  0  0
    5.8535    3.9487  -20.8881 O   0  0  0  0  0  0  0  0  0  0  0  0
    5.8717    1.6244  -19.9184 O   0  0  0  0  0  0  0  0  0  0  0  0
    6.7137    2.0070  -22.3362 C   0  0  0  0  0  0  0  0  0  0  0  0
    8.0364    2.4672  -22.3280 C   0  0  0  0  0  0  0  0  0  0  0  0
    8.8772    2.1199  -23.3757 C   0  0  0  0  0  0  0  0  0  0  0  0
   10.5056    2.6555  -23.4070 Cl  0  0  0  0  0  0  0  0  0  0  0  0
    8.3639    1.3375  -24.3965 C   0  0  0  0  0  0  0  0  0  0  0  0
    7.0837    0.8937  -24.4311 N   0  0  0  0  0  0  0  0  0  0  0  0
    6.2759    1.2423  -23.4007 C   0  0  0  0  0  0  0  0  0  0  0  0
    5.0343    0.6907  -23.4786 O   0  0  0  0  0  0  0  0  0  0  0  0
    4.6492    3.4278  -25.5701 C   0  0  0  0  0  0  0  0  0  0  0  0
    4.1681    1.9965  -25.3898 C   0  0  0  0  0  0  0  0  0  0  0  0
    1.8614   -2.1543  -21.3684 C   0  0  1  0  0  0  0  0  0  0  0  0
    2.6512   -2.0835  -22.6902 C   0  0  0  0  0  0  0  0  0  0  0  0
    4.0415   -2.3563  -22.6680 C   0  0  0  0  0  0  0  0  0  0  0  0
    4.8402   -2.3415  -23.8189 C   0  0  0  0  0  0  0  0  0  0  0  0
    4.1807   -2.0078  -25.0043 C   0  0  0  0  0  0  0  0  0  0  0  0
    2.8205   -1.7368  -25.0771 C   0  0  0  0  0  0  0  0  0  0  0  0
    2.4791   -1.4623  -26.3784 N   0  0  0  0  0  0  0  0  0  0  0  0
    3.5714   -1.5460  -27.1227 N   0  0  0  0  0  0  0  0  0  0  0  0
    4.5902   -1.8610  -26.3049 N   0  0  0  0  0  0  0  0  0  0  0  0
    5.9192   -2.0026  -26.8384 C   0  0  0  0  0  0  0  0  0  0  0  0
    2.0112   -1.7734  -23.9211 C   0  0  0  0  0  0  0  0  0  0  0  0
    0.5416   -1.4682  -24.0082 C   0  0  0  0  0  0  0  0  0  0  0  0
    6.1766   -2.6010  -23.8733 O   0  0  0  0  0  0  0  0  0  0  0  0
    6.5872   -3.9494  -23.6976 C   0  0  0  0  0  0  0  0  0  0  0  0
    7.7355   -4.1357  -24.3863 F   0  0  0  0  0  0  0  0  0  0  0  0
    5.6655   -4.8081  -24.1831 F   0  0  0  0  0  0  0  0  0  0  0  0
    6.8287   -4.2162  -22.3986 F   0  0  0  0  0  0  0  0  0  0  0  0
    2.5382   -3.1103  -20.3652 C   0  0  0  0  0  0  0  0  0  0  0  0
    2.2112   -4.5665  -20.5605 C   0  0  0  0  0  0  0  0  0  0  0  0
    2.9642   -5.4382  -20.9598 O   0  0  0  0  0  0  0  0  0  0  0  0
    0.9392   -4.8637  -20.2341 O   0  0  0  0  0  0  0  0  0  0  0  0
    0.8522   -5.8201  -20.4327 H   0  0  0  0  0  0  0  0  0  0  0  0
    3.2508    0.1118  -21.2708 H   0  0  0  0  0  0  0  0  0  0  0  0
   -0.5823   -1.2886  -20.3553 H   0  0  0  0  0  0  0  0  0  0  0  0
   -2.3517    0.6046  -19.2891 H   0  0  0  0  0  0  0  0  0  0  0  0
   -2.3440    3.0548  -18.6950 H   0  0  0  0  0  0  0  0  0  0  0  0
    2.5691    3.5895  -20.9025 H   0  0  0  0  0  0  0  0  0  0  0  0
    3.4979    2.7822  -19.6406 H   0  0  0  0  0  0  0  0  0  0  0  0
    3.0715    1.0624  -23.8668 H   0  0  0  0  0  0  0  0  0  0  0  0
    2.8163    3.1691  -23.0339 H   0  0  0  0  0  0  0  0  0  0  0  0
    4.4900    3.5842  -23.2191 H   0  0  0  0  0  0  0  0  0  0  0  0
    8.3808    3.0562  -21.5538 H   0  0  0  0  0  0  0  0  0  0  0  0
    8.9909    1.0779  -25.1740 H   0  0  0  0  0  0  0  0  0  0  0  0
    4.7472    3.6423  -26.6138 H   0  0  0  0  0  0  0  0  0  0  0  0
    5.5981    3.5482  -25.0906 H   0  0  0  0  0  0  0  0  0  0  0  0
    3.9408    4.1000  -25.1328 H   0  0  0  0  0  0  0  0  0  0  0  0
    4.8816    1.3386  -25.8403 H   0  0  0  0  0  0  0  0  0  0  0  0
    3.2061    1.9237  -25.8525 H   0  0  0  0  0  0  0  0  0  0  0  0
    0.9155   -2.6212  -21.5478 H   0  0  0  0  0  0  0  0  0  0  0  0
    4.4859   -2.5759  -21.7629 H   0  0  0  0  0  0  0  0  0  0  0  0
    5.9012   -1.8227  -27.8930 H   0  0  0  0  0  0  0  0  0  0  0  0
    6.2747   -2.9944  -26.6518 H   0  0  0  0  0  0  0  0  0  0  0  0
    6.5699   -1.2959  -26.3671 H   0  0  0  0  0  0  0  0  0  0  0  0
    0.2792   -1.2649  -25.0254 H   0  0  0  0  0  0  0  0  0  0  0  0
    0.3185   -0.6133  -23.4046 H   0  0  0  0  0  0  0  0  0  0  0  0
   -0.0188   -2.3091  -23.6565 H   0  0  0  0  0  0  0  0  0  0  0  0
    2.2313   -2.8297  -19.3793 H   0  0  0  0  0  0  0  0  0  0  0  0
    3.5922   -3.0149  -20.5230 H   0  0  0  0  0  0  0  0  0  0  0  0
  1  2  2  0
  2  3  1  0
  2 49  1  0
  3 27  1  0
  3  4  2  0
  4  5  1  0
  4 50  1  0
  5  6  1  0
  6  7  2  0
  6 51  1  0
  7  8  1  0
  7 52  1  0
  8  9  1  0
  9  1  1  0
  9  5  2  0
 10  1  1  0
 10 53  1  0
 10 54  1  0
 11 12  1  0
 11 55  1  6
 12 13  1  0
 12 56  1  0
 12 57  1  0
 13 10  1  0
 13 14  1  0
 14 15  2  0
 14 16  2  0
 14 17  1  0
 17 18  2  0
 18 19  1  0
 18 58  1  0
 19 20  1  0
 19 21  2  0
 21 22  1  0
 21 59  1  0
 22 23  2  0
 23 24  1  0
 23 17  1  0
 24 11  1  0
 25 26  1  0
 25 60  1  0
 25 61  1  0
 25 62  1  0
 26 11  1  0
 26 63  1  0
 26 64  1  0
 27 44  1  0
 27 28  1  0
 27 65  1  6
 28 29  2  0
 29 30  1  0
 29 66  1  0
 30 39  1  0
 30 31  2  0
 31 32  1  0
 32 33  1  0
 32 37  2  0
 33 34  2  0
 34 35  1  0
 35 36  1  0
 35 31  1  0
 36 67  1  0
 36 68  1  0
 36 69  1  0
 37 38  1  0
 37 28  1  0
 38 70  1  0
 38 71  1  0
 38 72  1  0
 39 40  1  0
 40 41  1  0
 40 42  1  0
 40 43  1  0
 44 45  1  0
 44 73  1  0
 44 74  1  0
 45 46  2  0
 45 47  1  0
 47 48  1  0
M  END
>  <minimizedAffinity>  (4) 
-9.88532

>  <mol_id>  (4) 
41332

>  <source_index>  (4) 
3

>  <layer>  (4) 
L2

>  <uniprot>  (4) 
Q14145

>  <paff>  (4) 
7.6989999999999998

>  <smiles>  (4) 
CC[C@@H]6CN(Cc3cc(C(CC(=O)O)c2cc(OC(F)(F)F)c1c(nnn1C)c2C)cc4ccsc34)S(=O)(=O)c5cc(Cl)cnc5O6

$$$$
L2:Q14145:62918
     RDKit          3D

 76 81  0  0  0  0  0  0  0  0999 V2000
    3.2952    0.1856  -21.7011 C   0  0  0  0  0  0  0  0  0  0  0  0
    4.0953    1.3401  -21.8559 C   0  0  0  0  0  0  0  0  0  0  0  0
    3.7740    2.5799  -21.2876 C   0  0  0  0  0  0  0  0  0  0  0  0
    2.5942    2.6649  -20.5401 C   0  0  0  0  0  0  0  0  0  0  0  0
    1.7575    1.5367  -20.3402 C   0  0  0  0  0  0  0  0  0  0  0  0
    0.5302    1.4297  -19.6008 C   0  0  0  0  0  0  0  0  0  0  0  0
   -0.0014    0.1644  -19.6248 C   0  0  0  0  0  0  0  0  0  0  0  0
    0.9607   -0.9081  -20.5277 S   0  0  0  0  0  0  0  0  0  0  0  0
    2.1219    0.3161  -20.9189 C   0  0  0  0  0  0  0  0  0  0  0  0
    3.7489   -1.1080  -22.3589 C   0  0  0  0  0  0  0  0  0  0  0  0
    4.1341   -4.2603  -22.3516 C   0  0  2  0  0  0  0  0  0  0  0  0
    3.0115   -3.3846  -21.7398 C   0  0  0  0  0  0  0  0  0  0  0  0
    2.6770   -2.1199  -22.4321 N   0  0  0  0  0  0  0  0  0  0  0  0
    2.2071   -2.3700  -23.8188 C   0  0  1  0  0  0  0  0  0  0  0  0
    1.3473   -1.1926  -24.3106 C   0  0  0  0  0  0  0  0  0  0  0  0
    3.3014   -2.7631  -24.8078 C   0  0  0  0  0  0  0  0  0  0  0  0
    3.6052   -1.9098  -25.8236 N   0  0  0  0  0  0  0  0  0  0  0  0
    4.5465   -2.3039  -26.7103 C   0  0  0  0  0  0  0  0  0  0  0  0
    5.2151   -3.5145  -26.6404 C   0  0  0  0  0  0  0  0  0  0  0  0
    4.9146   -4.3698  -25.5877 C   0  0  0  0  0  0  0  0  0  0  0  0
    3.9678   -3.9789  -24.6473 C   0  0  0  0  0  0  0  0  0  0  0  0
    3.7054   -4.8287  -23.6103 O   0  0  0  0  0  0  0  0  0  0  0  0
    5.6561   -6.2837  -21.9193 C   0  0  0  0  0  0  0  0  0  0  0  0
    4.4587   -5.4698  -21.4549 C   0  0  0  0  0  0  0  0  0  0  0  0
    4.7149    3.7641  -21.5402 C   0  0  2  0  0  0  0  0  0  0  0  0
    5.6292    3.5750  -22.7647 C   0  0  0  0  0  0  0  0  0  0  0  0
    7.0295    3.5583  -22.5746 C   0  0  0  0  0  0  0  0  0  0  0  0
    7.9569    3.4080  -23.6230 C   0  0  0  0  0  0  0  0  0  0  0  0
    9.4259    3.3859  -23.3237 C   0  0  0  0  0  0  0  0  0  0  0  0
    7.3941    3.2603  -24.8997 C   0  0  0  0  0  0  0  0  0  0  0  0
    6.0221    3.2786  -25.1346 C   0  0  0  0  0  0  0  0  0  0  0  0
    5.7840    3.1206  -26.4776 N   0  0  0  0  0  0  0  0  0  0  0  0
    6.9478    2.9987  -27.0952 N   0  0  0  0  0  0  0  0  0  0  0  0
    7.9092    3.0696  -26.1584 N   0  0  0  0  0  0  0  0  0  0  0  0
    9.2858    2.9420  -26.5563 C   0  0  0  0  0  0  0  0  0  0  0  0
    5.1002    3.4402  -24.0761 C   0  0  0  0  0  0  0  0  0  0  0  0
    3.6215    3.4399  -24.3480 C   0  0  0  0  0  0  0  0  0  0  0  0
    5.4903    4.3367  -20.3372 C   0  0  0  0  0  0  0  0  0  0  0  0
    5.7428    3.3631  -19.2167 C   0  0  0  0  0  0  0  0  0  0  0  0
    6.3752    2.3221  -19.2717 O   0  0  0  0  0  0  0  0  0  0  0  0
    5.1455    3.7333  -18.0669 O   0  0  0  0  0  0  0  0  0  0  0  0
    5.3996    3.0373  -17.4258 H   0  0  0  0  0  0  0  0  0  0  0  0
    4.9593    1.2664  -22.4154 H   0  0  0  0  0  0  0  0  0  0  0  0
    2.3261    3.5704  -20.1240 H   0  0  0  0  0  0  0  0  0  0  0  0
    0.0938    2.2217  -19.1035 H   0  0  0  0  0  0  0  0  0  0  0  0
   -0.8788   -0.1035  -19.1521 H   0  0  0  0  0  0  0  0  0  0  0  0
    4.0799   -0.8884  -23.3524 H   0  0  0  0  0  0  0  0  0  0  0  0
    4.5356   -1.5154  -21.7589 H   0  0  0  0  0  0  0  0  0  0  0  0
    4.9826   -3.6180  -22.4632 H   0  0  0  0  0  0  0  0  0  0  0  0
    3.3074   -3.1353  -20.7422 H   0  0  0  0  0  0  0  0  0  0  0  0
    2.1267   -3.9811  -21.8195 H   0  0  0  0  0  0  0  0  0  0  0  0
    1.5930   -3.2451  -23.7749 H   0  0  0  0  0  0  0  0  0  0  0  0
    1.9480   -0.3085  -24.3601 H   0  0  0  0  0  0  0  0  0  0  0  0
    0.5360   -1.0350  -23.6309 H   0  0  0  0  0  0  0  0  0  0  0  0
    0.9599   -1.4155  -25.2828 H   0  0  0  0  0  0  0  0  0  0  0  0
    4.7808   -1.6643  -27.4856 H   0  0  0  0  0  0  0  0  0  0  0  0
    5.9173   -3.7742  -27.3507 H   0  0  0  0  0  0  0  0  0  0  0  0
    5.3878   -5.2832  -25.5047 H   0  0  0  0  0  0  0  0  0  0  0  0
    5.8144   -7.1008  -21.2469 H   0  0  0  0  0  0  0  0  0  0  0  0
    6.5261   -5.6611  -21.9350 H   0  0  0  0  0  0  0  0  0  0  0  0
    5.4704   -6.6620  -22.9028 H   0  0  0  0  0  0  0  0  0  0  0  0
    4.6590   -5.1113  -20.4668 H   0  0  0  0  0  0  0  0  0  0  0  0
    3.6098   -6.1199  -21.4947 H   0  0  0  0  0  0  0  0  0  0  0  0
    4.0048    4.5336  -21.7605 H   0  0  0  0  0  0  0  0  0  0  0  0
    7.3923    3.6620  -21.6140 H   0  0  0  0  0  0  0  0  0  0  0  0
    9.5779    3.5206  -22.2732 H   0  0  0  0  0  0  0  0  0  0  0  0
    9.9108    4.1758  -23.8584 H   0  0  0  0  0  0  0  0  0  0  0  0
    9.8374    2.4455  -23.6259 H   0  0  0  0  0  0  0  0  0  0  0  0
    9.3394    2.8026  -27.6158 H   0  0  0  0  0  0  0  0  0  0  0  0
    9.7230    2.0991  -26.0631 H   0  0  0  0  0  0  0  0  0  0  0  0
    9.8189    3.8295  -26.2860 H   0  0  0  0  0  0  0  0  0  0  0  0
    3.4520    3.3268  -25.3984 H   0  0  0  0  0  0  0  0  0  0  0  0
    3.1976    4.3645  -24.0159 H   0  0  0  0  0  0  0  0  0  0  0  0
    3.1625    2.6282  -23.8232 H   0  0  0  0  0  0  0  0  0  0  0  0
    4.9297    5.1581  -19.9423 H   0  0  0  0  0  0  0  0  0  0  0  0
    6.4531    4.6173  -20.7101 H   0  0  0  0  0  0  0  0  0  0  0  0
  1  2  2  0
  2  3  1  0
  2 43  1  0
  3 25  1  0
  3  4  2  0
  4  5  1  0
  4 44  1  0
  5  6  1  0
  6  7  2  0
  6 45  1  0
  7  8  1  0
  7 46  1  0
  8  9  1  0
  9  1  1  0
  9  5  2  0
 10  1  1  0
 10 47  1  0
 10 48  1  0
 11 12  1  0
 11 49  1  6
 12 13  1  0
 12 50  1  0
 12 51  1  0
 13 10  1  0
 13 14  1  0
 14 15  1  0
 14 16  1  0
 14 52  1  1
 15 53  1  0
 15 54  1  0
 15 55  1  0
 16 17  2  0
 17 18  1  0
 18 19  2  0
 18 56  1  0
 19 20  1  0
 19 57  1  0
 20 21  2  0
 20 58  1  0
 21 22  1  0
 21 16  1  0
 22 11  1  0
 23 24  1  0
 23 59  1  0
 23 60  1  0
 23 61  1  0
 24 11  1  0
 24 62  1  0
 24 63  1  0
 25 38  1  0
 25 26  1  0
 25 64  1  6
 26 27  2  0
 27 28  1  0
 27 65  1  0
 28 29  1  0
 28 30  2  0
 29 66  1  0
 29 67  1  0
 29 68  1  0
 30 31  1  0
 31 32  1  0
 31 36  2  0
 32 33  2  0
 33 34  1  0
 34 35  1  0
 34 30  1  0
 35 69  1  0
 35 70  1  0
 35 71  1  0
 36 37  1  0
 36 26  1  0
 37 72  1  0
 37 73  1  0
 37 74  1  0
 38 39  1  0
 38 75  1  0
 38 76  1  0
 39 40  2  0
 39 41  1  0
 41 42  1  0
M  END
>  <minimizedAffinity>  (5) 
-9.98049

>  <mol_id>  (5) 
62918

>  <source_index>  (5) 
4

>  <layer>  (5) 
L2

>  <uniprot>  (5) 
Q14145

>  <paff>  (5) 
8

>  <smiles>  (5) 
CC[C@@H]6CN(Cc3cc([C@@H](CC(=O)O)c2cc(C)c1c(nnn1C)c2C)cc4ccsc34)[C@@H](C)c5ncccc5O6

$$$$
L2:Q14145:64270
     RDKit          3D

 84 88  0  0  0  0  0  0  0  0999 V2000
    4.8322    1.5802  -21.3411 C   0  0  0  0  0  0  0  0  0  0  0  0
    3.4517    1.4649  -21.0819 C   0  0  0  0  0  0  0  0  0  0  0  0
    2.6698    0.4506  -21.6430 C   0  0  0  0  0  0  0  0  0  0  0  0
    3.2960   -0.5071  -22.4638 C   0  0  0  0  0  0  0  0  0  0  0  0
    4.6704   -0.3748  -22.8262 C   0  0  0  0  0  0  0  0  0  0  0  0
    5.3076   -1.2582  -23.7350 C   0  0  0  0  0  0  0  0  0  0  0  0
    6.6486   -1.1326  -24.0893 C   0  0  0  0  0  0  0  0  0  0  0  0
    7.3957   -0.1026  -23.5551 C   0  0  0  0  0  0  0  0  0  0  0  0
    6.8009    0.7912  -22.6640 C   0  0  0  0  0  0  0  0  0  0  0  0
    5.4434    0.6839  -22.2665 C   0  0  0  0  0  0  0  0  0  0  0  0
    2.5248   -1.6574  -22.8689 N   0  0  0  0  0  0  0  0  0  0  0  0
    2.4708   -2.7677  -22.0182 C   0  0  0  0  0  0  0  0  0  0  0  0
    1.7147   -3.7181  -22.1379 O   0  0  0  0  0  0  0  0  0  0  0  0
    3.3025   -2.7456  -20.9555 O   0  0  0  0  0  0  0  0  0  0  0  0
    3.1928   -3.6514  -20.6025 H   0  0  0  0  0  0  0  0  0  0  0  0
    1.5678   -1.5051  -24.2485 S   0  0  0  0  0  0  0  0  0  0  0  0
    0.8145   -0.2690  -24.2089 O   0  0  0  0  0  0  0  0  0  0  0  0
    0.8681   -2.7544  -24.4937 O   0  0  0  0  0  0  0  0  0  0  0  0
    2.7698   -1.3318  -25.5519 C   0  0  0  0  0  0  0  0  0  0  0  0
    3.2208   -0.0617  -25.9226 C   0  0  0  0  0  0  0  0  0  0  0  0
    4.1652    0.0673  -26.9462 C   0  0  0  0  0  0  0  0  0  0  0  0
    4.6685   -1.0684  -27.5852 C   0  0  0  0  0  0  0  0  0  0  0  0
    4.2275   -2.3351  -27.1866 C   0  0  0  0  0  0  0  0  0  0  0  0
    3.2858   -2.4746  -26.1659 C   0  0  0  0  0  0  0  0  0  0  0  0
    5.5847   -1.0786  -28.6003 O   0  0  0  0  0  0  0  0  0  0  0  0
    5.9936   -2.3509  -29.0864 C   0  0  0  0  0  0  0  0  0  0  0  0
    5.6185    2.6703  -20.6079 C   0  0  2  0  0  0  0  0  0  0  0  0
    5.3118    2.7517  -19.1398 C   0  0  0  0  0  0  0  0  0  0  0  0
    5.5473    1.9342  -18.2675 O   0  0  0  0  0  0  0  0  0  0  0  0
    4.7382    3.9316  -18.8051 O   0  0  0  0  0  0  0  0  0  0  0  0
    4.6450    3.9051  -17.8274 H   0  0  0  0  0  0  0  0  0  0  0  0
    5.3286    4.2369  -21.4047 S   0  0  0  0  0  0  0  0  0  0  0  0
    6.2842    5.2305  -20.9469 O   0  0  0  0  0  0  0  0  0  0  0  0
    3.9069    4.5318  -21.3240 O   0  0  0  0  0  0  0  0  0  0  0  0
    6.1735    3.4335  -25.8295 C   0  0  0  0  0  0  0  0  0  0  0  0
    4.8704    3.3305  -25.3378 C   0  0  0  0  0  0  0  0  0  0  0  0
    4.6068    3.5731  -23.9860 C   0  0  0  0  0  0  0  0  0  0  0  0
    5.6507    3.9339  -23.1316 C   0  0  0  0  0  0  0  0  0  0  0  0
    6.9606    4.0199  -23.6065 C   0  0  0  0  0  0  0  0  0  0  0  0
    7.2128    3.7756  -24.9574 C   0  0  0  0  0  0  0  0  0  0  0  0
    7.3524    2.0710  -27.3815 C   0  0  0  0  0  0  0  0  0  0  0  0
    6.5631    3.2260  -27.1235 O   0  0  0  0  0  0  0  0  0  0  0  0
    1.1872    0.4212  -21.3155 C   0  0  0  0  0  0  0  0  0  0  0  0
    0.8612    0.7477  -19.8559 C   0  0  0  0  0  0  0  0  0  0  0  0
    0.0576    2.0312  -19.7353 C   0  0  0  0  0  0  0  0  0  0  0  0
    0.6227    3.1088  -19.9506 O   0  0  0  0  0  0  0  0  0  0  0  0
   -1.2809    1.9720  -19.3968 N   0  0  0  0  0  0  0  0  0  0  0  0
   -2.0813    3.1989  -19.4436 C   0  0  0  0  0  0  0  0  0  0  0  0
   -2.9988    3.3177  -18.2251 C   0  0  0  0  0  0  0  0  0  0  0  0
   -3.8232    2.1524  -18.0917 O   0  0  0  0  0  0  0  0  0  0  0  0
   -3.0055    0.9871  -17.9034 C   0  0  0  0  0  0  0  0  0  0  0  0
   -2.0651    0.7664  -19.0961 C   0  0  0  0  0  0  0  0  0  0  0  0
    3.0027    2.1524  -20.4568 H   0  0  0  0  0  0  0  0  0  0  0  0
    4.7553   -2.0247  -24.1503 H   0  0  0  0  0  0  0  0  0  0  0  0
    7.0794   -1.8032  -24.7449 H   0  0  0  0  0  0  0  0  0  0  0  0
    8.3890    0.0060  -23.8133 H   0  0  0  0  0  0  0  0  0  0  0  0
    7.3709    1.5605  -22.2790 H   0  0  0  0  0  0  0  0  0  0  0  0
    2.8585    0.7772  -25.4431 H   0  0  0  0  0  0  0  0  0  0  0  0
    4.4912    1.0043  -27.2303 H   0  0  0  0  0  0  0  0  0  0  0  0
    4.6029   -3.1759  -27.6527 H   0  0  0  0  0  0  0  0  0  0  0  0
    2.9743   -3.4124  -25.8683 H   0  0  0  0  0  0  0  0  0  0  0  0
    6.7069   -2.2197  -29.8731 H   0  0  0  0  0  0  0  0  0  0  0  0
    5.1424   -2.8799  -29.4613 H   0  0  0  0  0  0  0  0  0  0  0  0
    6.4392   -2.9104  -28.2906 H   0  0  0  0  0  0  0  0  0  0  0  0
    6.6545    2.4095  -20.6682 H   0  0  0  0  0  0  0  0  0  0  0  0
    4.0994    3.0745  -25.9742 H   0  0  0  0  0  0  0  0  0  0  0  0
    3.6452    3.4859  -23.6216 H   0  0  0  0  0  0  0  0  0  0  0  0
    7.7333    4.2612  -22.9664 H   0  0  0  0  0  0  0  0  0  0  0  0
    8.1773    3.8482  -25.3173 H   0  0  0  0  0  0  0  0  0  0  0  0
    7.5883    2.0259  -28.4242 H   0  0  0  0  0  0  0  0  0  0  0  0
    6.8052    1.1952  -27.1014 H   0  0  0  0  0  0  0  0  0  0  0  0
    8.2574    2.1232  -26.8130 H   0  0  0  0  0  0  0  0  0  0  0  0
    0.8150   -0.5585  -21.5316 H   0  0  0  0  0  0  0  0  0  0  0  0
    0.7252    1.1805  -21.9113 H   0  0  0  0  0  0  0  0  0  0  0  0
    1.7761    0.8586  -19.3123 H   0  0  0  0  0  0  0  0  0  0  0  0
    0.2741   -0.0531  -19.4572 H   0  0  0  0  0  0  0  0  0  0  0  0
   -2.6804    3.1894  -20.3301 H   0  0  0  0  0  0  0  0  0  0  0  0
   -1.4137    4.0351  -19.4434 H   0  0  0  0  0  0  0  0  0  0  0  0
   -3.6242    4.1783  -18.3397 H   0  0  0  0  0  0  0  0  0  0  0  0
   -2.3930    3.4109  -17.3480 H   0  0  0  0  0  0  0  0  0  0  0  0
   -3.6383    0.1311  -17.7956 H   0  0  0  0  0  0  0  0  0  0  0  0
   -2.4100    1.1309  -17.0261 H   0  0  0  0  0  0  0  0  0  0  0  0
   -2.6485    0.5084  -19.9552 H   0  0  0  0  0  0  0  0  0  0  0  0
   -1.3855   -0.0210  -18.8452 H   0  0  0  0  0  0  0  0  0  0  0  0
  1  2  2  0
  2  3  1  0
  2 53  1  0
  3 43  1  0
  3  4  2  0
  4 11  1  0
  4  5  1  0
  5  6  2  0
  6  7  1  0
  6 54  1  0
  7  8  2  0
  7 55  1  0
  8  9  1  0
  8 56  1  0
  9 10  2  0
  9 57  1  0
 10  1  1  0
 10  5  1  0
 11 12  1  0
 11 16  1  0
 12 13  2  0
 12 14  1  0
 14 15  1  0
 16 17  2  0
 16 18  2  0
 16 19  1  0
 19 20  2  0
 20 21  1  0
 20 58  1  0
 21 22  2  0
 21 59  1  0
 22 25  1  0
 22 23  1  0
 23 24  2  0
 23 60  1  0
 24 19  1  0
 24 61  1  0
 25 26  1  0
 26 62  1  0
 26 63  1  0
 26 64  1  0
 27 28  1  0
 27  1  1  0
 27 65  1  1
 28 29  2  0
 28 30  1  0
 30 31  1  0
 32 33  2  0
 32 34  2  0
 32 27  1  0
 35 36  2  0
 36 37  1  0
 36 66  1  0
 37 38  2  0
 37 67  1  0
 38 32  1  0
 38 39  1  0
 39 40  2  0
 39 68  1  0
 40 35  1  0
 40 69  1  0
 41 42  1  0
 41 70  1  0
 41 71  1  0
 41 72  1  0
 42 35  1  0
 43 44  1  0
 43 73  1  0
 43 74  1  0
 44 45  1  0
 44 75  1  0
 44 76  1  0
 45 46  2  0
 45 47  1  0
 47 48  1  0
 48 49  1  0
 48 77  1  0
 48 78  1  0
 49 50  1  0
 49 79  1  0
 49 80  1  0
 50 51  1  0
 51 52  1  0
 51 81  1  0
 51 82  1  0
 52 47  1  0
 52 83  1  0
 52 84  1  0
M  END
>  <minimizedAffinity>  (6) 
-11.20416

>  <mol_id>  (6) 
64270

>  <source_index>  (6) 
5

>  <layer>  (6) 
L2

>  <uniprot>  (6) 
Q14145

>  <paff>  (6) 
7.0605000000000002

>  <smiles>  (6) 
COc1ccc(S(=O)(=O)C(C(=O)O)c2cc(CCC(=O)N3CCOCC3)c(N(C(=O)O)S(=O)(=O)c3ccc(OC)cc3)c3ccccc23)cc1

$$$$
L2:Q14145:77634
     RDKit          3D

 76 81  0  0  0  0  0  0  0  0999 V2000
    3.2568    0.9471  -21.4367 C   0  0  0  0  0  0  0  0  0  0  0  0
    3.4973   -0.3553  -21.9348 C   0  0  0  0  0  0  0  0  0  0  0  0
    2.6348   -1.4259  -21.6961 C   0  0  0  0  0  0  0  0  0  0  0  0
    1.4677   -1.1803  -20.9548 C   0  0  0  0  0  0  0  0  0  0  0  0
    1.1728    0.1034  -20.4369 C   0  0  0  0  0  0  0  0  0  0  0  0
    0.0467    0.5416  -19.6606 C   0  0  0  0  0  0  0  0  0  0  0  0
    0.1056    1.8745  -19.3374 C   0  0  0  0  0  0  0  0  0  0  0  0
    1.5037    2.6152  -19.9608 S   0  0  0  0  0  0  0  0  0  0  0  0
    2.0712    1.1470  -20.6848 C   0  0  0  0  0  0  0  0  0  0  0  0
    4.2571    2.0488  -21.7564 C   0  0  0  0  0  0  0  0  0  0  0  0
    4.8051    2.0818  -24.8673 C   0  0  2  0  0  0  0  0  0  0  0  0
    3.5398    2.5022  -24.0799 C   0  0  0  0  0  0  0  0  0  0  0  0
    3.7433    3.0437  -22.7172 N   0  0  0  0  0  0  0  0  0  0  0  0
    4.5467    4.2925  -22.7508 C   0  0  1  0  0  0  0  0  0  0  0  0
    4.2747    5.1317  -21.4902 C   0  0  0  0  0  0  0  0  0  0  0  0
    6.0357    4.0943  -23.0243 C   0  0  0  0  0  0  0  0  0  0  0  0
    6.9273    4.4021  -22.0425 N   0  0  0  0  0  0  0  0  0  0  0  0
    8.2418    4.2614  -22.3250 C   0  0  0  0  0  0  0  0  0  0  0  0
    8.7272    3.8227  -23.5452 C   0  0  0  0  0  0  0  0  0  0  0  0
    7.8101    3.4902  -24.5343 C   0  0  0  0  0  0  0  0  0  0  0  0
    6.4506    3.6014  -24.2630 C   0  0  0  0  0  0  0  0  0  0  0  0
    5.5728    3.2465  -25.2480 O   0  0  0  0  0  0  0  0  0  0  0  0
    5.6197    0.7059  -26.8740 C   0  0  0  0  0  0  0  0  0  0  0  0
    4.4420    1.3837  -26.1908 C   0  0  0  0  0  0  0  0  0  0  0  0
    2.8876   -2.8416  -22.2212 C   0  0  1  0  0  0  0  0  0  0  0  0
    3.5678   -2.8335  -23.6008 C   0  0  0  0  0  0  0  0  0  0  0  0
    4.8894   -3.3195  -23.7144 C   0  0  0  0  0  0  0  0  0  0  0  0
    5.6015   -3.3635  -24.9286 C   0  0  0  0  0  0  0  0  0  0  0  0
    7.0089   -3.8802  -24.9529 C   0  0  0  0  0  0  0  0  0  0  0  0
    4.9061   -2.8770  -26.0460 C   0  0  0  0  0  0  0  0  0  0  0  0
    3.5996   -2.4007  -25.9823 C   0  0  0  0  0  0  0  0  0  0  0  0
    3.1922   -2.0082  -27.2332 N   0  0  0  0  0  0  0  0  0  0  0  0
    4.1894   -2.2118  -28.0786 N   0  0  0  0  0  0  0  0  0  0  0  0
    5.2150   -2.7223  -27.3754 N   0  0  0  0  0  0  0  0  0  0  0  0
    6.4457   -3.0297  -28.0537 C   0  0  0  0  0  0  0  0  0  0  0  0
    2.8902   -2.3723  -24.7608 C   0  0  0  0  0  0  0  0  0  0  0  0
    1.4760   -1.8643  -24.7125 C   0  0  0  0  0  0  0  0  0  0  0  0
    3.6479   -3.7879  -21.2757 C   0  0  0  0  0  0  0  0  0  0  0  0
    2.9598   -5.1148  -21.1334 C   0  0  0  0  0  0  0  0  0  0  0  0
    1.8120   -5.2955  -20.7628 O   0  0  0  0  0  0  0  0  0  0  0  0
    3.7608   -6.1617  -21.4073 O   0  0  0  0  0  0  0  0  0  0  0  0
    3.1881   -6.9425  -21.2506 H   0  0  0  0  0  0  0  0  0  0  0  0
    4.3461   -0.5203  -22.4982 H   0  0  0  0  0  0  0  0  0  0  0  0
    0.8083   -1.9555  -20.7833 H   0  0  0  0  0  0  0  0  0  0  0  0
   -0.7259   -0.0804  -19.3756 H   0  0  0  0  0  0  0  0  0  0  0  0
   -0.6119    2.3675  -18.7831 H   0  0  0  0  0  0  0  0  0  0  0  0
    4.5085    2.5534  -20.8470 H   0  0  0  0  0  0  0  0  0  0  0  0
    5.1079    1.5827  -22.2078 H   0  0  0  0  0  0  0  0  0  0  0  0
    5.3531    1.4271  -24.2224 H   0  0  0  0  0  0  0  0  0  0  0  0
    2.9122    1.6399  -23.9938 H   0  0  0  0  0  0  0  0  0  0  0  0
    3.1210    3.3119  -24.6402 H   0  0  0  0  0  0  0  0  0  0  0  0
    4.2141    4.8416  -23.6068 H   0  0  0  0  0  0  0  0  0  0  0  0
    4.6031    4.5934  -20.6257 H   0  0  0  0  0  0  0  0  0  0  0  0
    3.2257    5.3273  -21.4114 H   0  0  0  0  0  0  0  0  0  0  0  0
    4.8062    6.0580  -21.5568 H   0  0  0  0  0  0  0  0  0  0  0  0
    8.9243    4.4950  -21.5870 H   0  0  0  0  0  0  0  0  0  0  0  0
    9.7421    3.7449  -23.7152 H   0  0  0  0  0  0  0  0  0  0  0  0
    8.1335    3.1648  -25.4587 H   0  0  0  0  0  0  0  0  0  0  0  0
    5.2890    0.2461  -27.7818 H   0  0  0  0  0  0  0  0  0  0  0  0
    6.0278   -0.0400  -26.2244 H   0  0  0  0  0  0  0  0  0  0  0  0
    6.3708    1.4348  -27.0964 H   0  0  0  0  0  0  0  0  0  0  0  0
    3.6982    0.6419  -25.9873 H   0  0  0  0  0  0  0  0  0  0  0  0
    4.0924    2.1444  -26.8572 H   0  0  0  0  0  0  0  0  0  0  0  0
    1.8996   -3.2451  -22.2988 H   0  0  0  0  0  0  0  0  0  0  0  0
    5.3586   -3.6609  -22.8610 H   0  0  0  0  0  0  0  0  0  0  0  0
    7.2932   -4.1872  -23.9681 H   0  0  0  0  0  0  0  0  0  0  0  0
    7.6671   -3.1066  -25.2893 H   0  0  0  0  0  0  0  0  0  0  0  0
    7.0707   -4.7156  -25.6187 H   0  0  0  0  0  0  0  0  0  0  0  0
    6.3509   -2.7879  -29.0917 H   0  0  0  0  0  0  0  0  0  0  0  0
    6.6600   -4.0727  -27.9486 H   0  0  0  0  0  0  0  0  0  0  0  0
    7.2417   -2.4571  -27.6254 H   0  0  0  0  0  0  0  0  0  0  0  0
    1.1686   -1.5712  -25.6946 H   0  0  0  0  0  0  0  0  0  0  0  0
    1.4220   -1.0215  -24.0554 H   0  0  0  0  0  0  0  0  0  0  0  0
    0.8309   -2.6387  -24.3531 H   0  0  0  0  0  0  0  0  0  0  0  0
    3.7174   -3.3298  -20.3112 H   0  0  0  0  0  0  0  0  0  0  0  0
    4.6177   -3.9621  -21.6928 H   0  0  0  0  0  0  0  0  0  0  0  0
  1  2  2  0
  2  3  1  0
  2 43  1  0
  3 25  1  0
  3  4  2  0
  4  5  1  0
  4 44  1  0
  5  6  1  0
  6  7  2  0
  6 45  1  0
  7  8  1  0
  7 46  1  0
  8  9  1  0
  9  1  1  0
  9  5  2  0
 10  1  1  0
 10 47  1  0
 10 48  1  0
 11 12  1  0
 11 49  1  1
 12 13  1  0
 12 50  1  0
 12 51  1  0
 13 10  1  0
 13 14  1  0
 14 15  1  0
 14 16  1  0
 14 52  1  6
 15 53  1  0
 15 54  1  0
 15 55  1  0
 16 17  2  0
 17 18  1  0
 18 19  2  0
 18 56  1  0
 19 20  1  0
 19 57  1  0
 20 21  2  0
 20 58  1  0
 21 22  1  0
 21 16  1  0
 22 11  1  0
 23 24  1  0
 23 59  1  0
 23 60  1  0
 23 61  1  0
 24 11  1  0
 24 62  1  0
 24 63  1  0
 25 38  1  0
 25 26  1  0
 25 64  1  6
 26 27  2  0
 27 28  1  0
 27 65  1  0
 28 29  1  0
 28 30  2  0
 29 66  1  0
 29 67  1  0
 29 68  1  0
 30 31  1  0
 31 32  1  0
 31 36  2  0
 32 33  2  0
 33 34  1  0
 34 35  1  0
 34 30  1  0
 35 69  1  0
 35 70  1  0
 35 71  1  0
 36 37  1  0
 36 26  1  0
 37 72  1  0
 37 73  1  0
 37 74  1  0
 38 39  1  0
 38 75  1  0
 38 76  1  0
 39 40  2  0
 39 41  1  0
 41 42  1  0
M  END
>  <minimizedAffinity>  (7) 
-9.86229

>  <mol_id>  (7) 
77634

>  <source_index>  (7) 
6

>  <layer>  (7) 
L2

>  <uniprot>  (7) 
Q14145

>  <paff>  (7) 
8

>  <smiles>  (7) 
CC[C@@H]1CN(Cc2cc([C@H](CC(=O)O)c3cc(C)c4c(nnn4C)c3C)cc3ccsc23)[C@@H](C)c2ncccc2O1

$$$$
L2:Q14145:83648
     RDKit          3D

 70 75  0  0  0  0  0  0  0  0999 V2000
    2.0502    1.7721  -20.3508 C   0  0  0  0  0  0  0  0  0  0  0  0
    2.5126    0.5368  -20.8482 C   0  0  0  0  0  0  0  0  0  0  0  0
    1.7353   -0.6232  -20.8312 C   0  0  0  0  0  0  0  0  0  0  0  0
    0.4267   -0.5426  -20.3365 C   0  0  0  0  0  0  0  0  0  0  0  0
   -0.1046    0.6824  -19.8653 C   0  0  0  0  0  0  0  0  0  0  0  0
   -1.4082    0.9706  -19.3359 C   0  0  0  0  0  0  0  0  0  0  0  0
   -1.5537    2.2816  -18.9552 C   0  0  0  0  0  0  0  0  0  0  0  0
   -0.1323    3.1776  -19.2162 S   0  0  0  0  0  0  0  0  0  0  0  0
    0.7154    1.8167  -19.8725 C   0  0  0  0  0  0  0  0  0  0  0  0
    3.0071    2.9469  -20.3124 C   0  0  0  0  0  0  0  0  0  0  0  0
    3.9322    2.3488  -23.6973 C   0  0  2  0  0  0  0  0  0  0  0  0
    3.7644    3.4896  -22.6767 C   0  0  0  0  0  0  0  0  0  0  0  0
    4.0712    2.9397  -21.3395 N   0  0  0  0  0  0  0  0  0  0  0  0
    5.6603    3.0439  -20.8050 S   0  0  0  0  0  0  0  0  0  0  0  0
    5.8932    1.9745  -19.8600 O   0  0  0  0  0  0  0  0  0  0  0  0
    5.8798    4.4250  -20.4217 O   0  0  0  0  0  0  0  0  0  0  0  0
    6.6892    2.7548  -22.1952 C   0  0  0  0  0  0  0  0  0  0  0  0
    7.9845    3.2875  -22.1785 C   0  0  0  0  0  0  0  0  0  0  0  0
    8.8052    3.1004  -23.2815 C   0  0  0  0  0  0  0  0  0  0  0  0
   10.4000    3.7295  -23.3037 Cl  0  0  0  0  0  0  0  0  0  0  0  0
    8.3009    2.3966  -24.3617 C   0  0  0  0  0  0  0  0  0  0  0  0
    7.0465    1.8855  -24.4044 N   0  0  0  0  0  0  0  0  0  0  0  0
    6.2548    2.0860  -23.3229 C   0  0  0  0  0  0  0  0  0  0  0  0
    5.0461    1.4755  -23.4213 O   0  0  0  0  0  0  0  0  0  0  0  0
    3.4481    1.6701  -26.1607 C   0  0  0  0  0  0  0  0  0  0  0  0
    3.8500    2.7619  -25.1781 C   0  0  0  0  0  0  0  0  0  0  0  0
    2.3711   -1.9438  -21.2643 C   0  0  2  0  0  0  0  0  0  0  0  0
    3.0439   -1.9040  -22.6509 C   0  0  0  0  0  0  0  0  0  0  0  0
    4.4460   -1.9544  -22.7752 C   0  0  0  0  0  0  0  0  0  0  0  0
    5.0980   -1.9370  -24.0153 C   0  0  0  0  0  0  0  0  0  0  0  0
    6.8129   -2.0053  -24.0663 Cl  0  0  0  0  0  0  0  0  0  0  0  0
    4.3063   -1.8676  -25.1569 C   0  0  0  0  0  0  0  0  0  0  0  0
    2.9190   -1.8171  -25.0857 C   0  0  0  0  0  0  0  0  0  0  0  0
    2.4016   -1.7560  -26.3547 N   0  0  0  0  0  0  0  0  0  0  0  0
    3.4072   -1.7654  -27.2156 N   0  0  0  0  0  0  0  0  0  0  0  0
    4.5472   -1.8303  -26.5053 N   0  0  0  0  0  0  0  0  0  0  0  0
    5.8072   -1.8507  -27.2009 C   0  0  0  0  0  0  0  0  0  0  0  0
    2.2501   -1.8327  -23.8384 C   0  0  0  0  0  0  0  0  0  0  0  0
    0.7450   -1.7758  -23.7937 C   0  0  0  0  0  0  0  0  0  0  0  0
    1.4425   -3.1437  -20.9560 C   0  0  0  0  0  0  0  0  0  0  0  0
    2.1389   -4.4300  -20.5932 C   0  0  0  0  0  0  0  0  0  0  0  0
    3.3415   -4.5764  -20.4363 O   0  0  0  0  0  0  0  0  0  0  0  0
    1.3090   -5.4797  -20.4685 O   0  0  0  0  0  0  0  0  0  0  0  0
    1.9030   -6.2251  -20.2355 H   0  0  0  0  0  0  0  0  0  0  0  0
    3.4655    0.4877  -21.2414 H   0  0  0  0  0  0  0  0  0  0  0  0
   -0.1602   -1.3912  -20.3152 H   0  0  0  0  0  0  0  0  0  0  0  0
   -2.1573    0.2659  -19.2506 H   0  0  0  0  0  0  0  0  0  0  0  0
   -2.4211    2.6757  -18.5585 H   0  0  0  0  0  0  0  0  0  0  0  0
    2.4344    3.8419  -20.4383 H   0  0  0  0  0  0  0  0  0  0  0  0
    3.5101    2.8833  -19.3701 H   0  0  0  0  0  0  0  0  0  0  0  0
    3.0493    1.7647  -23.5415 H   0  0  0  0  0  0  0  0  0  0  0  0
    2.7589    3.8548  -22.6994 H   0  0  0  0  0  0  0  0  0  0  0  0
    4.4207    4.3021  -22.9091 H   0  0  0  0  0  0  0  0  0  0  0  0
    8.3238    3.8120  -21.3570 H   0  0  0  0  0  0  0  0  0  0  0  0
    8.9139    2.2533  -25.1794 H   0  0  0  0  0  0  0  0  0  0  0  0
    3.4252    2.0729  -27.1517 H   0  0  0  0  0  0  0  0  0  0  0  0
    2.4779    1.2988  -25.9041 H   0  0  0  0  0  0  0  0  0  0  0  0
    4.1588    0.8714  -26.1167 H   0  0  0  0  0  0  0  0  0  0  0  0
    3.1327    3.5520  -25.2570 H   0  0  0  0  0  0  0  0  0  0  0  0
    4.8458    3.0410  -25.4526 H   0  0  0  0  0  0  0  0  0  0  0  0
    3.2286   -2.1138  -20.6473 H   0  0  0  0  0  0  0  0  0  0  0  0
    5.0169   -2.0063  -21.9171 H   0  0  0  0  0  0  0  0  0  0  0  0
    5.6330   -1.8089  -28.2558 H   0  0  0  0  0  0  0  0  0  0  0  0
    6.3322   -2.7518  -26.9616 H   0  0  0  0  0  0  0  0  0  0  0  0
    6.3931   -1.0066  -26.9024 H   0  0  0  0  0  0  0  0  0  0  0  0
    0.3602   -1.7269  -24.7909 H   0  0  0  0  0  0  0  0  0  0  0  0
    0.4369   -0.9076  -23.2495 H   0  0  0  0  0  0  0  0  0  0  0  0
    0.3692   -2.6526  -23.3090 H   0  0  0  0  0  0  0  0  0  0  0  0
    0.8430   -3.3272  -21.8231 H   0  0  0  0  0  0  0  0  0  0  0  0
    0.8784   -2.8625  -20.0914 H   0  0  0  0  0  0  0  0  0  0  0  0
  1  2  2  0
  2  3  1  0
  2 45  1  0
  3 27  1  0
  3  4  2  0
  4  5  1  0
  4 46  1  0
  5  6  1  0
  6  7  2  0
  6 47  1  0
  7  8  1  0
  7 48  1  0
  8  9  1  0
  9  1  1  0
  9  5  2  0
 10  1  1  0
 10 49  1  0
 10 50  1  0
 11 12  1  0
 11 51  1  1
 12 13  1  0
 12 52  1  0
 12 53  1  0
 13 10  1  0
 13 14  1  0
 14 15  2  0
 14 16  2  0
 14 17  1  0
 17 18  2  0
 18 19  1  0
 18 54  1  0
 19 20  1  0
 19 21  2  0
 21 22  1  0
 21 55  1  0
 22 23  2  0
 23 24  1  0
 23 17  1  0
 24 11  1  0
 25 26  1  0
 25 56  1  0
 25 57  1  0
 25 58  1  0
 26 11  1  0
 26 59  1  0
 26 60  1  0
 27 40  1  0
 27 28  1  0
 27 61  1  1
 28 29  2  0
 29 30  1  0
 29 62  1  0
 30 31  1  0
 30 32  2  0
 32 33  1  0
 33 34  1  0
 33 38  2  0
 34 35  2  0
 35 36  1  0
 36 37  1  0
 36 32  1  0
 37 63  1  0
 37 64  1  0
 37 65  1  0
 38 39  1  0
 38 28  1  0
 39 66  1  0
 39 67  1  0
 39 68  1  0
 40 41  1  0
 40 69  1  0
 40 70  1  0
 41 42  2  0
 41 43  1  0
 43 44  1  0
M  END
>  <minimizedAffinity>  (8) 
-10.88000

>  <mol_id>  (8) 
83648

>  <source_index>  (8) 
7

>  <layer>  (8) 
L2

>  <uniprot>  (8) 
Q14145

>  <paff>  (8) 
8

>  <smiles>  (8) 
CC[C@@H]1CN(Cc2cc([C@@H](CC(=O)O)c3cc(Cl)c4c(nnn4C)c3C)cc3ccsc23)S(=O)(=O)c2cc(Cl)cnc2O1

$$$$
L2:Q14145:122553
     RDKit          3D

 75 80  0  0  0  0  0  0  0  0999 V2000
    5.7798    1.5314  -26.1450 C   0  0  0  0  0  0  0  0  0  0  0  0
    5.2050    0.2566  -26.3481 C   0  0  0  0  0  0  0  0  0  0  0  0
    5.7308   -0.6866  -27.2390 C   0  0  0  0  0  0  0  0  0  0  0  0
    6.8792   -0.3339  -27.9601 C   0  0  0  0  0  0  0  0  0  0  0  0
    7.5021    0.9292  -27.7930 C   0  0  0  0  0  0  0  0  0  0  0  0
    8.6741    1.4616  -28.4312 C   0  0  0  0  0  0  0  0  0  0  0  0
    8.9825    2.7317  -28.0111 C   0  0  0  0  0  0  0  0  0  0  0  0
    7.8773    3.2991  -26.8502 S   0  0  0  0  0  0  0  0  0  0  0  0
    6.9461    1.8395  -26.8876 C   0  0  0  0  0  0  0  0  0  0  0  0
    5.1239    2.4720  -25.1484 C   0  0  0  0  0  0  0  0  0  0  0  0
    3.3006    1.1268  -22.9084 C   0  0  2  0  0  0  0  0  0  0  0  0
    4.8225    1.0033  -23.2067 C   0  0  0  0  0  0  0  0  0  0  0  0
    5.5088    2.1947  -23.7490 N   0  0  0  0  0  0  0  0  0  0  0  0
    5.3490    3.4157  -22.9082 C   0  0  2  0  0  0  0  0  0  0  0  0
    6.6142    4.2799  -23.0538 C   0  0  0  0  0  0  0  0  0  0  0  0
    5.0344    3.1504  -21.4317 C   0  0  0  0  0  0  0  0  0  0  0  0
    5.9372    3.4963  -20.4771 N   0  0  0  0  0  0  0  0  0  0  0  0
    5.5933    3.2914  -19.1946 C   0  0  0  0  0  0  0  0  0  0  0  0
    6.5387    3.6632  -18.2856 O   0  0  0  0  0  0  0  0  0  0  0  0
    4.3815    2.7594  -18.7871 C   0  0  0  0  0  0  0  0  0  0  0  0
    3.4653    2.3995  -19.7692 C   0  0  0  0  0  0  0  0  0  0  0  0
    3.8056    2.5726  -21.1052 C   0  0  0  0  0  0  0  0  0  0  0  0
    2.8949    2.2254  -22.0576 O   0  0  0  0  0  0  0  0  0  0  0  0
    6.1998    3.4671  -17.4015 H   0  0  0  0  0  0  0  0  0  0  0  0
    1.2008   -0.1609  -22.1753 C   0  0  0  0  0  0  0  0  0  0  0  0
    2.7163   -0.1627  -22.2986 C   0  0  0  0  0  0  0  0  0  0  0  0
    5.0172   -2.0329  -27.3845 C   0  0  2  0  0  0  0  0  0  0  0  0
    4.6824   -2.6934  -26.0416 C   0  0  0  0  0  0  0  0  0  0  0  0
    5.7221   -3.4223  -25.4137 C   0  0  0  0  0  0  0  0  0  0  0  0
    5.6392   -4.0632  -24.2247 N   0  0  0  0  0  0  0  0  0  0  0  0
    4.4406   -3.9772  -23.6403 C   0  0  0  0  0  0  0  0  0  0  0  0
    3.3319   -3.3129  -24.1835 C   0  0  0  0  0  0  0  0  0  0  0  0
    3.4351   -2.6142  -25.3783 C   0  0  0  0  0  0  0  0  0  0  0  0
    2.2382   -1.8961  -25.9216 C   0  0  0  0  0  0  0  0  0  0  0  0
    2.2490   -3.4438  -23.3018 N   0  0  0  0  0  0  0  0  0  0  0  0
    2.6255   -4.3018  -22.2291 N   0  0  0  0  0  0  0  0  0  0  0  0
    4.0223   -4.5301  -22.4092 N   0  0  0  0  0  0  0  0  0  0  0  0
    4.7531   -5.6351  -21.8460 C   0  0  0  0  0  0  0  0  0  0  0  0
    1.2942   -3.3929  -23.6333 H   0  0  0  0  0  0  0  0  0  0  0  0
    2.4899   -3.8093  -21.3391 H   0  0  0  0  0  0  0  0  0  0  0  0
    5.6497   -3.0733  -28.3264 C   0  0  0  0  0  0  0  0  0  0  0  0
    5.1544   -2.8999  -29.7342 C   0  0  0  0  0  0  0  0  0  0  0  0
    4.4557   -1.9930  -30.1529 O   0  0  0  0  0  0  0  0  0  0  0  0
    5.5398   -3.9002  -30.5495 O   0  0  0  0  0  0  0  0  0  0  0  0
    5.1357   -3.6693  -31.4132 H   0  0  0  0  0  0  0  0  0  0  0  0
    4.3572    0.0091  -25.8142 H   0  0  0  0  0  0  0  0  0  0  0  0
    7.2814   -1.0093  -28.6287 H   0  0  0  0  0  0  0  0  0  0  0  0
    9.2264    0.9434  -29.1322 H   0  0  0  0  0  0  0  0  0  0  0  0
    9.7877    3.2762  -28.3579 H   0  0  0  0  0  0  0  0  0  0  0  0
    5.4098    3.4749  -25.3878 H   0  0  0  0  0  0  0  0  0  0  0  0
    4.0662    2.3281  -25.2227 H   0  0  0  0  0  0  0  0  0  0  0  0
    2.9074    1.3204  -23.8845 H   0  0  0  0  0  0  0  0  0  0  0  0
    4.9474    0.2110  -23.9149 H   0  0  0  0  0  0  0  0  0  0  0  0
    5.2757    0.8379  -22.2516 H   0  0  0  0  0  0  0  0  0  0  0  0
    4.4842    3.9299  -23.2723 H   0  0  0  0  0  0  0  0  0  0  0  0
    7.4598    3.7398  -22.6821 H   0  0  0  0  0  0  0  0  0  0  0  0
    6.4947    5.1842  -22.4945 H   0  0  0  0  0  0  0  0  0  0  0  0
    6.7677    4.5165  -24.0860 H   0  0  0  0  0  0  0  0  0  0  0  0
    4.1652    2.6340  -17.7859 H   0  0  0  0  0  0  0  0  0  0  0  0
    2.5458    2.0094  -19.5096 H   0  0  0  0  0  0  0  0  0  0  0  0
    0.8768   -1.0858  -21.7457 H   0  0  0  0  0  0  0  0  0  0  0  0
    0.7642   -0.0459  -23.1454 H   0  0  0  0  0  0  0  0  0  0  0  0
    0.8949    0.6502  -21.5481 H   0  0  0  0  0  0  0  0  0  0  0  0
    3.0018   -0.9867  -22.9186 H   0  0  0  0  0  0  0  0  0  0  0  0
    3.1062   -0.2379  -21.3050 H   0  0  0  0  0  0  0  0  0  0  0  0
    4.1179   -1.7230  -27.8744 H   0  0  0  0  0  0  0  0  0  0  0  0
    6.6264   -3.4689  -25.9088 H   0  0  0  0  0  0  0  0  0  0  0  0
    1.4254   -1.9848  -25.2314 H   0  0  0  0  0  0  0  0  0  0  0  0
    1.9584   -2.3282  -26.8596 H   0  0  0  0  0  0  0  0  0  0  0  0
    2.4758   -0.8623  -26.0618 H   0  0  0  0  0  0  0  0  0  0  0  0
    4.3027   -5.9256  -20.9199 H   0  0  0  0  0  0  0  0  0  0  0  0
    5.7671   -5.3408  -21.6726 H   0  0  0  0  0  0  0  0  0  0  0  0
    4.7327   -6.4603  -22.5269 H   0  0  0  0  0  0  0  0  0  0  0  0
    5.3949   -4.0547  -27.9846 H   0  0  0  0  0  0  0  0  0  0  0  0
    6.7109   -2.9367  -28.3202 H   0  0  0  0  0  0  0  0  0  0  0  0
  1  2  2  0
  2  3  1  0
  2 46  1  0
  3 27  1  0
  3  4  2  0
  4  5  1  0
  4 47  1  0
  5  6  1  0
  6  7  2  0
  6 48  1  0
  7  8  1  0
  7 49  1  0
  8  9  1  0
  9  1  1  0
  9  5  2  0
 10  1  1  0
 10 50  1  0
 10 51  1  0
 11 12  1  0
 11 52  1  6
 12 13  1  0
 12 53  1  0
 12 54  1  0
 13 10  1  0
 13 14  1  0
 14 15  1  0
 14 16  1  0
 14 55  1  6
 15 56  1  0
 15 57  1  0
 15 58  1  0
 16 17  2  0
 17 18  1  0
 18 19  1  0
 18 20  2  0
 19 24  1  0
 20 21  1  0
 20 59  1  0
 21 22  2  0
 21 60  1  0
 22 23  1  0
 22 16  1  0
 23 11  1  0
 25 26  1  0
 25 61  1  0
 25 62  1  0
 25 63  1  0
 26 11  1  0
 26 64  1  0
 26 65  1  0
 27 41  1  0
 27 28  1  0
 27 66  1  6
 28 29  2  0
 29 30  1  0
 29 67  1  0
 30 31  2  0
 31 32  1  0
 32 33  2  0
 32 35  1  0
 33 34  1  0
 33 28  1  0
 34 68  1  0
 34 69  1  0
 34 70  1  0
 35 36  1  0
 35 39  1  0
 36 37  1  0
 36 40  1  0
 37 38  1  0
 37 31  1  0
 38 71  1  0
 38 72  1  0
 38 73  1  0
 41 42  1  0
 41 74  1  0
 41 75  1  0
 42 43  2  0
 42 44  1  0
 44 45  1  0
M  END
>  <minimizedAffinity>  (9) 
-10.13918

>  <mol_id>  (9) 
122553

>  <source_index>  (9) 
8

>  <layer>  (9) 
L2

>  <uniprot>  (9) 
Q14145

>  <paff>  (9) 
7.6989999999999998

>  <smiles>  (9) 
CC[C@@H]1CN(Cc2cc([C@@H](CC(=O)O)c3cnc4c(c3C)NNN4C)cc3ccsc23)C(C)c2nc(O)ccc2O1

$$$$
L2:Q14145:143441
     RDKit          3D

 74 79  0  0  0  0  0  0  0  0999 V2000
    2.1146    1.8272  -20.6414 C   0  0  0  0  0  0  0  0  0  0  0  0
    2.5599    0.5164  -20.9271 C   0  0  0  0  0  0  0  0  0  0  0  0
    1.7430   -0.6146  -20.8130 C   0  0  0  0  0  0  0  0  0  0  0  0
    0.4370   -0.4327  -20.3428 C   0  0  0  0  0  0  0  0  0  0  0  0
   -0.0510    0.8522  -19.9951 C   0  0  0  0  0  0  0  0  0  0  0  0
   -1.3432    1.2314  -19.4942 C   0  0  0  0  0  0  0  0  0  0  0  0
   -1.4529    2.5800  -19.2651 C   0  0  0  0  0  0  0  0  0  0  0  0
   -0.0147    3.4031  -19.6415 S   0  0  0  0  0  0  0  0  0  0  0  0
    0.7932    1.9588  -20.1476 C   0  0  0  0  0  0  0  0  0  0  0  0
    3.0624    2.9875  -20.8818 C   0  0  0  0  0  0  0  0  0  0  0  0
    4.6102    2.5693  -24.3944 C   0  0  2  0  0  0  0  0  0  0  0  0
    3.7421    3.1914  -23.2887 C   0  0  0  0  0  0  0  0  0  0  0  0
    4.1234    2.7791  -21.9093 N   0  0  0  0  0  0  0  0  0  0  0  0
    5.7022    3.0922  -21.4170 S   0  0  0  0  0  0  0  0  0  0  0  0
    6.0369    4.4410  -21.8193 O   0  0  0  0  0  0  0  0  0  0  0  0
    5.8361    2.6621  -20.0404 O   0  0  0  0  0  0  0  0  0  0  0  0
    6.7508    2.0243  -22.3280 C   0  0  0  0  0  0  0  0  0  0  0  0
    8.0726    1.8955  -21.8731 C   0  0  0  0  0  0  0  0  0  0  0  0
    8.9351    1.0277  -22.5247 C   0  0  0  0  0  0  0  0  0  0  0  0
   10.5568    0.8424  -22.0015 Cl  0  0  0  0  0  0  0  0  0  0  0  0
    8.4464    0.3138  -23.6026 C   0  0  0  0  0  0  0  0  0  0  0  0
    7.1747    0.4218  -24.0568 N   0  0  0  0  0  0  0  0  0  0  0  0
    6.3429    1.2829  -23.4178 C   0  0  0  0  0  0  0  0  0  0  0  0
    5.1064    1.2908  -23.9748 O   0  0  0  0  0  0  0  0  0  0  0  0
    6.0495    3.0405  -26.4606 C   0  0  0  0  0  0  0  0  0  0  0  0
    5.6455    3.4973  -25.0660 C   0  0  0  0  0  0  0  0  0  0  0  0
    2.3164   -1.9794  -21.2077 C   0  0  2  0  0  0  0  0  0  0  0  0
    2.9129   -1.9855  -22.6349 C   0  0  0  0  0  0  0  0  0  0  0  0
    4.3002   -2.2721  -22.7366 C   0  0  0  0  0  0  0  0  0  0  0  0
    4.9953   -2.2983  -23.9531 C   0  0  0  0  0  0  0  0  0  0  0  0
    4.2267   -2.0121  -25.0827 C   0  0  0  0  0  0  0  0  0  0  0  0
    2.8674   -1.7336  -25.0377 C   0  0  0  0  0  0  0  0  0  0  0  0
    2.4116   -1.4875  -26.3092 N   0  0  0  0  0  0  0  0  0  0  0  0
    3.4296   -1.6026  -27.1478 N   0  0  0  0  0  0  0  0  0  0  0  0
    4.5129   -1.9248  -26.4216 N   0  0  0  0  0  0  0  0  0  0  0  0
    5.7799   -2.1233  -27.0753 C   0  0  0  0  0  0  0  0  0  0  0  0
    2.1611   -1.7219  -23.8134 C   0  0  0  0  0  0  0  0  0  0  0  0
    0.6981   -1.3784  -23.8123 C   0  0  0  0  0  0  0  0  0  0  0  0
    6.3199   -2.5571  -24.1290 O   0  0  0  0  0  0  0  0  0  0  0  0
    6.7748   -3.8875  -23.9313 C   0  0  0  0  0  0  0  0  0  0  0  0
    7.8758   -4.0773  -24.6910 F   0  0  0  0  0  0  0  0  0  0  0  0
    5.8402   -4.7805  -24.3125 F   0  0  0  0  0  0  0  0  0  0  0  0
    7.1126   -4.0954  -22.6417 F   0  0  0  0  0  0  0  0  0  0  0  0
    1.3984   -3.1944  -20.9686 C   0  0  0  0  0  0  0  0  0  0  0  0
    2.1789   -4.4148  -20.5643 C   0  0  0  0  0  0  0  0  0  0  0  0
    3.3707   -4.4717  -20.3131 O   0  0  0  0  0  0  0  0  0  0  0  0
    1.3979   -5.5044  -20.4394 O   0  0  0  0  0  0  0  0  0  0  0  0
    2.0106   -6.2160  -20.1568 H   0  0  0  0  0  0  0  0  0  0  0  0
    3.5362    0.3867  -21.2353 H   0  0  0  0  0  0  0  0  0  0  0  0
   -0.1839   -1.2515  -20.2472 H   0  0  0  0  0  0  0  0  0  0  0  0
   -2.1084    0.5601  -19.3245 H   0  0  0  0  0  0  0  0  0  0  0  0
   -2.3054    3.0387  -18.9076 H   0  0  0  0  0  0  0  0  0  0  0  0
    2.4755    3.8287  -21.1867 H   0  0  0  0  0  0  0  0  0  0  0  0
    3.5856    3.1215  -19.9581 H   0  0  0  0  0  0  0  0  0  0  0  0
    3.9583    2.4045  -25.2267 H   0  0  0  0  0  0  0  0  0  0  0  0
    2.7259    2.9016  -23.4568 H   0  0  0  0  0  0  0  0  0  0  0  0
    3.8855    4.2503  -23.3441 H   0  0  0  0  0  0  0  0  0  0  0  0
    8.3993    2.4420  -21.0609 H   0  0  0  0  0  0  0  0  0  0  0  0
    9.0845   -0.3364  -24.0874 H   0  0  0  0  0  0  0  0  0  0  0  0
    6.7653    3.7244  -26.8665 H   0  0  0  0  0  0  0  0  0  0  0  0
    5.1854    3.0127  -27.0911 H   0  0  0  0  0  0  0  0  0  0  0  0
    6.4817    2.0633  -26.4046 H   0  0  0  0  0  0  0  0  0  0  0  0
    5.2250    4.4785  -25.1387 H   0  0  0  0  0  0  0  0  0  0  0  0
    6.5268    3.4797  -24.4595 H   0  0  0  0  0  0  0  0  0  0  0  0
    3.1161   -2.1145  -20.5097 H   0  0  0  0  0  0  0  0  0  0  0  0
    4.8235   -2.4714  -21.8697 H   0  0  0  0  0  0  0  0  0  0  0  0
    5.6635   -1.9815  -28.1294 H   0  0  0  0  0  0  0  0  0  0  0  0
    6.1274   -3.1173  -26.8854 H   0  0  0  0  0  0  0  0  0  0  0  0
    6.4907   -1.4187  -26.6970 H   0  0  0  0  0  0  0  0  0  0  0  0
    0.3667   -1.2263  -24.8182 H   0  0  0  0  0  0  0  0  0  0  0  0
    0.5422   -0.4839  -23.2463 H   0  0  0  0  0  0  0  0  0  0  0  0
    0.1437   -2.1805  -23.3716 H   0  0  0  0  0  0  0  0  0  0  0  0
    0.8649   -3.4081  -21.8712 H   0  0  0  0  0  0  0  0  0  0  0  0
    0.7264   -2.9512  -20.1723 H   0  0  0  0  0  0  0  0  0  0  0  0
  1  2  2  0
  2  3  1  0
  2 49  1  0
  3 27  1  0
  3  4  2  0
  4  5  1  0
  4 50  1  0
  5  6  1  0
  6  7  2  0
  6 51  1  0
  7  8  1  0
  7 52  1  0
  8  9  1  0
  9  1  1  0
  9  5  2  0
 10  1  1  0
 10 53  1  0
 10 54  1  0
 11 12  1  0
 11 55  1  6
 12 13  1  0
 12 56  1  0
 12 57  1  0
 13 10  1  0
 13 14  1  0
 14 15  2  0
 14 16  2  0
 14 17  1  0
 17 18  2  0
 18 19  1  0
 18 58  1  0
 19 20  1  0
 19 21  2  0
 21 22  1  0
 21 59  1  0
 22 23  2  0
 23 24  1  0
 23 17  1  0
 24 11  1  0
 25 26  1  0
 25 60  1  0
 25 61  1  0
 25 62  1  0
 26 11  1  0
 26 63  1  0
 26 64  1  0
 27 44  1  0
 27 28  1  0
 27 65  1  1
 28 29  2  0
 29 30  1  0
 29 66  1  0
 30 39  1  0
 30 31  2  0
 31 32  1  0
 32 33  1  0
 32 37  2  0
 33 34  2  0
 34 35  1  0
 35 36  1  0
 35 31  1  0
 36 67  1  0
 36 68  1  0
 36 69  1  0
 37 38  1  0
 37 28  1  0
 38 70  1  0
 38 71  1  0
 38 72  1  0
 39 40  1  0
 40 41  1  0
 40 42  1  0
 40 43  1  0
 44 45  1  0
 44 73  1  0
 44 74  1  0
 45 46  2  0
 45 47  1  0
 47 48  1  0
M  END
>  <minimizedAffinity>  (10) 
-10.00789

>  <mol_id>  (10) 
143441

>  <source_index>  (10) 
9

>  <layer>  (10) 
L2

>  <uniprot>  (10) 
Q14145

>  <paff>  (10) 
8

>  <smiles>  (10) 
CC[C@@H]1CN(Cc2cc([C@@H](CC(=O)O)c3cc(OC(F)(F)F)c4c(nnn4C)c3C)cc3ccsc23)S(=O)(=O)c2cc(Cl)cnc2O1

$$$$
