L4:Q9Y4K0:8598
     RDKit          3D

 32 33  0  0  0  0  0  0  0  0999 V2000
  -22.2441   -8.2990    4.2099 S   0  0  0  0  0  0  0  0  0  0  0  0
  -21.4121   -8.3891    3.0221 O   0  0  0  0  0  0  0  0  0  0  0  0
  -22.6835   -7.0088    4.7167 O   0  0  0  0  0  0  0  0  0  0  0  0
  -21.3034   -9.0488    5.5256 C   0  0  0  0  0  0  0  0  0  0  0  0
  -20.6280  -10.2315    5.2890 C   0  0  0  0  0  0  0  0  0  0  0  0
  -19.9033  -10.7650    6.3460 C   0  0  0  0  0  0  0  0  0  0  0  0
  -19.8834  -10.1043    7.5841 C   0  0  0  0  0  0  0  0  0  0  0  0
  -19.1623  -10.6155    8.6765 C   0  0  0  0  0  0  0  0  0  0  0  0
  -19.1593   -9.9420    9.8960 C   0  0  0  0  0  0  0  0  0  0  0  0
  -19.8707   -8.7545   10.0276 C   0  0  0  0  0  0  0  0  0  0  0  0
  -20.5879   -8.2465    8.9400 C   0  0  0  0  0  0  0  0  0  0  0  0
  -20.6117   -8.8977    7.7142 C   0  0  0  0  0  0  0  0  0  0  0  0
  -21.3152   -8.3668    6.6998 N   0  0  0  0  0  0  0  0  0  0  0  0
  -23.6643   -9.3664    4.0250 C   0  0  0  0  0  0  0  0  0  0  0  0
  -25.8688   -8.2299    4.3807 C   0  0  0  0  0  0  0  0  0  0  0  0
  -24.7713   -8.8245    4.8733 C   0  0  0  0  0  0  0  0  0  0  0  0
  -24.6308   -8.8875    6.2175 F   0  0  0  0  0  0  0  0  0  0  0  0
  -27.8387   -8.7598    5.6514 N   0  0  0  0  0  0  0  0  0  0  0  0
  -26.9688   -7.6746    5.2215 C   0  0  0  0  0  0  0  0  0  0  0  0
  -28.5795   -8.3755    6.2360 H   0  0  0  0  0  0  0  0  0  0  0  0
  -27.3074   -9.3851    6.2595 H   0  0  0  0  0  0  0  0  0  0  0  0
  -20.6610  -10.6967    4.3684 H   0  0  0  0  0  0  0  0  0  0  0  0
  -19.3801  -11.6458    6.2216 H   0  0  0  0  0  0  0  0  0  0  0  0
  -18.6319  -11.4949    8.5748 H   0  0  0  0  0  0  0  0  0  0  0  0
  -18.6319  -10.3224   10.6974 H   0  0  0  0  0  0  0  0  0  0  0  0
  -19.8694   -8.2486   10.9271 H   0  0  0  0  0  0  0  0  0  0  0  0
  -21.1129   -7.3650    9.0514 H   0  0  0  0  0  0  0  0  0  0  0  0
  -23.9706   -9.3871    3.0000 H   0  0  0  0  0  0  0  0  0  0  0  0
  -23.4196  -10.3625    4.3295 H   0  0  0  0  0  0  0  0  0  0  0  0
  -25.9574   -8.1519    3.3555 H   0  0  0  0  0  0  0  0  0  0  0  0
  -26.5529   -7.1885    6.0792 H   0  0  0  0  0  0  0  0  0  0  0  0
  -27.5333   -6.9661    4.6520 H   0  0  0  0  0  0  0  0  0  0  0  0
  1  2  2  0
  1  3  2  0
  1  4  1  0
  4  5  2  0
  5  6  1  0
  5 22  1  0
  6  7  2  0
  6 23  1  0
  7  8  1  0
  8  9  2  0
  8 24  1  0
  9 10  1  0
  9 25  1  0
 10 11  2  0
 10 26  1  0
 11 12  1  0
 11 27  1  0
 12 13  2  0
 12  7  1  0
 13  4  1  0
 14  1  1  0
 14 28  1  0
 14 29  1  0
 15 16  2  0
 15 30  1  0
 16 17  1  0
 16 14  1  0
 18 19  1  0
 18 20  1  0
 18 21  1  0
 19 15  1  0
 19 31  1  0
 19 32  1  0
M  END
>  <minimizedAffinity>  (1) 
-4.72274

>  <mol_id>  (1) 
8598

>  <source_index>  (1) 
0

>  <layer>  (1) 
L4

>  <uniprot>  (1) 
Q9Y4K0

>  <paff>  (1) 
6

>  <smiles>  (1) 
NC/C=C(F)CS(=O)(=O)c1ccc2ccccc2n1

$$$$
L4:Q9Y4K0:25837
     RDKit          3D

 27 27  0  0  0  0  0  0  0  0999 V2000
  -28.1850  -20.0205    5.5412 S   0  0  0  0  0  0  0  0  0  0  0  0
  -28.0116  -21.2262    6.3264 O   0  0  0  0  0  0  0  0  0  0  0  0
  -27.7904  -19.9970    4.1423 O   0  0  0  0  0  0  0  0  0  0  0  0
  -29.9316  -19.6437    5.5616 C   0  0  0  0  0  0  0  0  0  0  0  0
  -30.6039  -19.5746    4.3294 C   0  0  0  0  0  0  0  0  0  0  0  0
  -31.9723  -19.3019    4.2894 C   0  0  0  0  0  0  0  0  0  0  0  0
  -32.6705  -19.1053    5.4766 C   0  0  0  0  0  0  0  0  0  0  0  0
  -34.3556  -18.7662    5.4304 Cl  0  0  0  0  0  0  0  0  0  0  0  0
  -32.0126  -19.1806    6.7029 C   0  0  0  0  0  0  0  0  0  0  0  0
  -30.6393  -19.4538    6.7527 C   0  0  0  0  0  0  0  0  0  0  0  0
  -29.9313  -19.5140    8.3242 Cl  0  0  0  0  0  0  0  0  0  0  0  0
  -27.4319  -18.6141    6.3510 C   0  0  0  0  0  0  0  0  0  0  0  0
  -25.5288  -17.2780    5.4134 C   0  0  0  0  0  0  0  0  0  0  0  0
  -26.0411  -18.4489    5.8260 C   0  0  0  0  0  0  0  0  0  0  0  0
  -25.2292  -19.5310    5.8344 F   0  0  0  0  0  0  0  0  0  0  0  0
  -24.1413  -17.0907    3.4515 N   0  0  0  0  0  0  0  0  0  0  0  0
  -24.1343  -17.1119    4.9066 C   0  0  0  0  0  0  0  0  0  0  0  0
  -23.1833  -17.1817    3.1159 H   0  0  0  0  0  0  0  0  0  0  0  0
  -24.4651  -16.1826    3.1247 H   0  0  0  0  0  0  0  0  0  0  0  0
  -30.0840  -19.7260    3.4509 H   0  0  0  0  0  0  0  0  0  0  0  0
  -32.4637  -19.2464    3.3836 H   0  0  0  0  0  0  0  0  0  0  0  0
  -32.5393  -19.0345    7.5782 H   0  0  0  0  0  0  0  0  0  0  0  0
  -28.0018  -17.7321    6.1455 H   0  0  0  0  0  0  0  0  0  0  0  0
  -27.4067  -18.7720    7.4090 H   0  0  0  0  0  0  0  0  0  0  0  0
  -26.1350  -16.4436    5.4488 H   0  0  0  0  0  0  0  0  0  0  0  0
  -23.7294  -16.1921    5.2739 H   0  0  0  0  0  0  0  0  0  0  0  0
  -23.5337  -17.9296    5.2465 H   0  0  0  0  0  0  0  0  0  0  0  0
  1  2  2  0
  1  3  2  0
  1  4  1  0
  4  5  2  0
  5  6  1  0
  5 20  1  0
  6  7  2  0
  6 21  1  0
  7  8  1  0
  7  9  1  0
  9 10  2  0
  9 22  1  0
 10 11  1  0
 10  4  1  0
 12  1  1  0
 12 23  1  0
 12 24  1  0
 13 14  2  0
 13 25  1  0
 14 15  1  0
 14 12  1  0
 16 17  1  0
 16 18  1  0
 16 19  1  0
 17 13  1  0
 17 26  1  0
 17 27  1  0
M  END
>  <minimizedAffinity>  (2) 
-4.62457

>  <mol_id>  (2) 
25837

>  <source_index>  (2) 
1

>  <layer>  (2) 
L4

>  <uniprot>  (2) 
Q9Y4K0

>  <paff>  (2) 
6

>  <smiles>  (2) 
NC/C=C(F)CS(=O)(=O)c1ccc(Cl)cc1Cl

$$$$
L4:Q9Y4K0:45467
     RDKit          3D

 29 29  0  0  0  0  0  0  0  0999 V2000
  -26.5881  -21.2256    4.8552 S   0  0  0  0  0  0  0  0  0  0  0  0
  -27.4569  -21.9524    5.7678 O   0  0  0  0  0  0  0  0  0  0  0  0
  -25.2961  -21.7628    4.4622 O   0  0  0  0  0  0  0  0  0  0  0  0
  -28.7361  -19.2711    6.1157 C   0  0  0  0  0  0  0  0  0  0  0  0
  -27.2964  -18.8597    6.1442 C   0  0  0  0  0  0  0  0  0  0  0  0
  -26.9186  -17.6464    6.7279 C   0  0  0  0  0  0  0  0  0  0  0  0
  -25.5763  -17.2717    6.7598 C   0  0  0  0  0  0  0  0  0  0  0  0
  -24.6362  -18.1248    6.2063 C   0  0  0  0  0  0  0  0  0  0  0  0
  -24.9439  -19.3067    5.6344 N   0  0  0  0  0  0  0  0  0  0  0  0
  -26.2651  -19.6398    5.6216 C   0  0  0  0  0  0  0  0  0  0  0  0
  -27.5223  -20.8238    3.3884 C   0  0  0  0  0  0  0  0  0  0  0  0
  -26.6369  -20.0449    2.4661 C   0  0  0  0  0  0  0  0  0  0  0  0
  -25.7443  -20.7346    1.7190 F   0  0  0  0  0  0  0  0  0  0  0  0
  -26.6292  -18.7045    2.3843 C   0  0  0  0  0  0  0  0  0  0  0  0
  -25.7399  -17.9236    1.4725 C   0  0  0  0  0  0  0  0  0  0  0  0
  -24.5372  -17.5026    2.1744 N   0  0  0  0  0  0  0  0  0  0  0  0
  -24.7843  -16.9642    3.0011 H   0  0  0  0  0  0  0  0  0  0  0  0
  -24.0287  -18.3258    2.4919 H   0  0  0  0  0  0  0  0  0  0  0  0
  -29.3334  -18.5109    6.5742 H   0  0  0  0  0  0  0  0  0  0  0  0
  -28.8552  -20.1897    6.6513 H   0  0  0  0  0  0  0  0  0  0  0  0
  -29.0483  -19.4066    5.1013 H   0  0  0  0  0  0  0  0  0  0  0  0
  -27.6356  -17.0266    7.1362 H   0  0  0  0  0  0  0  0  0  0  0  0
  -25.2891  -16.3772    7.1870 H   0  0  0  0  0  0  0  0  0  0  0  0
  -23.6446  -17.8401    6.2330 H   0  0  0  0  0  0  0  0  0  0  0  0
  -28.3760  -20.2355    3.6530 H   0  0  0  0  0  0  0  0  0  0  0  0
  -27.8582  -21.7192    2.9084 H   0  0  0  0  0  0  0  0  0  0  0  0
  -27.2794  -18.1801    2.9903 H   0  0  0  0  0  0  0  0  0  0  0  0
  -26.2650  -17.0592    1.1232 H   0  0  0  0  0  0  0  0  0  0  0  0
  -25.4603  -18.5432    0.6461 H   0  0  0  0  0  0  0  0  0  0  0  0
  1  2  2  0
  1  3  2  0
  1 11  1  0
  4  5  1  0
  4 19  1  0
  4 20  1  0
  4 21  1  0
  5  6  2  0
  6  7  1  0
  6 22  1  0
  7  8  2  0
  7 23  1  0
  8  9  1  0
  8 24  1  0
  9 10  2  0
 10  1  1  0
 10  5  1  0
 11 12  1  0
 11 25  1  0
 11 26  1  0
 12 13  1  0
 12 14  2  0
 14 15  1  0
 14 27  1  0
 15 16  1  0
 15 28  1  0
 15 29  1  0
 16 17  1  0
 16 18  1  0
M  END
>  <minimizedAffinity>  (3) 
-4.48522

>  <mol_id>  (3) 
45467

>  <source_index>  (3) 
2

>  <layer>  (3) 
L4

>  <uniprot>  (3) 
Q9Y4K0

>  <paff>  (3) 
6

>  <smiles>  (3) 
Cc1cccnc1S(=O)(=O)C/C(F)=C/CN

$$$$
L4:Q9Y4K0:49858
     RDKit          3D

 27 27  0  0  0  0  0  0  0  0999 V2000
  -28.2050  -20.0354    5.3585 S   0  0  0  0  0  0  0  0  0  0  0  0
  -28.0108  -21.2803    6.0760 O   0  0  0  0  0  0  0  0  0  0  0  0
  -27.8351  -19.9092    3.9609 O   0  0  0  0  0  0  0  0  0  0  0  0
  -29.9484  -19.6755    5.4506 C   0  0  0  0  0  0  0  0  0  0  0  0
  -30.7032  -19.6349    4.2749 C   0  0  0  0  0  0  0  0  0  0  0  0
  -32.0609  -19.3328    4.3536 C   0  0  0  0  0  0  0  0  0  0  0  0
  -33.0077  -19.2943    2.9183 Cl  0  0  0  0  0  0  0  0  0  0  0  0
  -32.6614  -19.0651    5.5832 C   0  0  0  0  0  0  0  0  0  0  0  0
  -31.8898  -19.0926    6.7442 C   0  0  0  0  0  0  0  0  0  0  0  0
  -32.6250  -18.7579    8.2628 Cl  0  0  0  0  0  0  0  0  0  0  0  0
  -30.5303  -19.3923    6.6891 C   0  0  0  0  0  0  0  0  0  0  0  0
  -27.4862  -18.6814    6.2771 C   0  0  0  0  0  0  0  0  0  0  0  0
  -25.5927  -17.3009    5.3828 C   0  0  0  0  0  0  0  0  0  0  0  0
  -26.0852  -18.4793    5.7973 C   0  0  0  0  0  0  0  0  0  0  0  0
  -25.2460  -19.5391    5.8494 F   0  0  0  0  0  0  0  0  0  0  0  0
  -24.1369  -17.0870    3.4594 N   0  0  0  0  0  0  0  0  0  0  0  0
  -24.1888  -17.0969    4.9123 C   0  0  0  0  0  0  0  0  0  0  0  0
  -24.7058  -16.3211    3.1041 H   0  0  0  0  0  0  0  0  0  0  0  0
  -24.5211  -17.9509    3.0853 H   0  0  0  0  0  0  0  0  0  0  0  0
  -30.2613  -19.8259    3.3621 H   0  0  0  0  0  0  0  0  0  0  0  0
  -33.6691  -18.8483    5.6336 H   0  0  0  0  0  0  0  0  0  0  0  0
  -29.9615  -19.4050    7.5501 H   0  0  0  0  0  0  0  0  0  0  0  0
  -28.0564  -17.7908    6.1141 H   0  0  0  0  0  0  0  0  0  0  0  0
  -27.4886  -18.9040    7.3237 H   0  0  0  0  0  0  0  0  0  0  0  0
  -26.2236  -16.4842    5.3895 H   0  0  0  0  0  0  0  0  0  0  0  0
  -23.8247  -16.1621    5.2843 H   0  0  0  0  0  0  0  0  0  0  0  0
  -23.5812  -17.8993    5.2756 H   0  0  0  0  0  0  0  0  0  0  0  0
  1  2  2  0
  1  3  2  0
  1  4  1  0
  4  5  2  0
  5  6  1  0
  5 20  1  0
  6  7  1  0
  6  8  2  0
  8  9  1  0
  8 21  1  0
  9 10  1  0
  9 11  2  0
 11  4  1  0
 11 22  1  0
 12  1  1  0
 12 23  1  0
 12 24  1  0
 13 14  2  0
 13 25  1  0
 14 15  1  0
 14 12  1  0
 16 17  1  0
 16 18  1  0
 16 19  1  0
 17 13  1  0
 17 26  1  0
 17 27  1  0
M  END
>  <minimizedAffinity>  (4) 
-4.53892

>  <mol_id>  (4) 
49858

>  <source_index>  (4) 
3

>  <layer>  (4) 
L4

>  <uniprot>  (4) 
Q9Y4K0

>  <paff>  (4) 
6

>  <smiles>  (4) 
NC/C=C(F)CS(=O)(=O)c1cc(Cl)cc(Cl)c1

$$$$
L4:Q9Y4K0:54489
     RDKit          3D

 55 56  0  0  0  0  0  0  0  0999 V2000
  -26.8095  -18.6117    4.9583 C   0  0  0  0  0  0  0  0  0  0  0  0
  -26.3579  -18.2276    6.2256 C   0  0  0  0  0  0  0  0  0  0  0  0
  -25.2329  -17.4083    6.3651 C   0  0  0  0  0  0  0  0  0  0  0  0
  -24.5400  -16.9693    5.2412 C   0  0  0  0  0  0  0  0  0  0  0  0
  -24.9648  -17.3571    3.9733 C   0  0  0  0  0  0  0  0  0  0  0  0
  -26.0891  -18.1844    3.8349 C   0  0  0  0  0  0  0  0  0  0  0  0
  -26.5916  -18.6624    2.1895 S   0  0  0  0  0  0  0  0  0  0  0  0
  -27.8625  -17.9968    1.9420 O   0  0  0  0  0  0  0  0  0  0  0  0
  -26.5052  -20.1093    2.1213 O   0  0  0  0  0  0  0  0  0  0  0  0
  -25.3719  -17.9054    1.1248 C   0  0  0  0  0  0  0  0  0  0  0  0
  -25.1207  -18.8269   -0.0272 C   0  0  0  0  0  0  0  0  0  0  0  0
  -26.1643  -19.0995   -0.8451 F   0  0  0  0  0  0  0  0  0  0  0  0
  -23.9401  -19.4227   -0.2678 C   0  0  0  0  0  0  0  0  0  0  0  0
  -23.6243  -20.3866   -1.3691 C   0  0  0  0  0  0  0  0  0  0  0  0
  -23.4515  -19.7557   -2.6654 N   0  0  0  0  0  0  0  0  0  0  0  0
  -23.1132  -20.4468   -3.3321 H   0  0  0  0  0  0  0  0  0  0  0  0
  -22.7114  -19.0555   -2.5908 H   0  0  0  0  0  0  0  0  0  0  0  0
  -27.8957  -19.4142    4.7517 O   0  0  0  0  0  0  0  0  0  0  0  0
  -28.3107  -20.2982    5.8023 C   0  0  0  0  0  0  0  0  0  0  0  0
  -31.9774  -19.0950    7.7161 C   0  0  0  0  0  0  0  0  0  0  0  0
  -31.9248  -19.1856    6.3235 C   0  0  0  0  0  0  0  0  0  0  0  0
  -30.7340  -19.5697    5.7044 C   0  0  0  0  0  0  0  0  0  0  0  0
  -29.5973  -19.8701    6.4713 C   0  0  0  0  0  0  0  0  0  0  0  0
  -29.6627  -19.7489    7.8683 C   0  0  0  0  0  0  0  0  0  0  0  0
  -30.8486  -19.3630    8.4926 C   0  0  0  0  0  0  0  0  0  0  0  0
  -33.4903  -18.6399    8.5213 S   0  0  0  0  0  0  0  0  0  0  0  0
  -33.1494  -17.8293    9.6685 O   0  0  0  0  0  0  0  0  0  0  0  0
  -34.4337  -18.1904    7.5213 O   0  0  0  0  0  0  0  0  0  0  0  0
  -34.0254  -20.1064    9.1128 N   0  0  0  0  0  0  0  0  0  0  0  0
  -34.1798  -20.1543   10.1176 H   0  0  0  0  0  0  0  0  0  0  0  0
  -33.5778  -22.3133    8.2187 C   0  0  0  0  0  0  0  0  0  0  0  0
  -34.5486  -21.1381    8.2196 C   0  0  0  0  0  0  0  0  0  0  0  0
  -35.9270  -21.5652    8.7082 C   0  0  0  0  0  0  0  0  0  0  0  0
  -26.8603  -18.5523    7.0665 H   0  0  0  0  0  0  0  0  0  0  0  0
  -24.9152  -17.1281    7.3062 H   0  0  0  0  0  0  0  0  0  0  0  0
  -23.7147  -16.3588    5.3470 H   0  0  0  0  0  0  0  0  0  0  0  0
  -24.4532  -17.0363    3.1364 H   0  0  0  0  0  0  0  0  0  0  0  0
  -24.4636  -17.7491    1.6684 H   0  0  0  0  0  0  0  0  0  0  0  0
  -25.7259  -16.9596    0.7712 H   0  0  0  0  0  0  0  0  0  0  0  0
  -23.1678  -19.1907    0.3762 H   0  0  0  0  0  0  0  0  0  0  0  0
  -24.4257  -21.0919   -1.4408 H   0  0  0  0  0  0  0  0  0  0  0  0
  -22.6928  -20.8509   -1.1207 H   0  0  0  0  0  0  0  0  0  0  0  0
  -28.4518  -21.2748    5.3884 H   0  0  0  0  0  0  0  0  0  0  0  0
  -27.5450  -20.2836    6.5496 H   0  0  0  0  0  0  0  0  0  0  0  0
  -32.7598  -18.9703    5.7565 H   0  0  0  0  0  0  0  0  0  0  0  0
  -30.6890  -19.6333    4.6753 H   0  0  0  0  0  0  0  0  0  0  0  0
  -28.8257  -19.9471    8.4385 H   0  0  0  0  0  0  0  0  0  0  0  0
  -30.8913  -19.2763    9.5201 H   0  0  0  0  0  0  0  0  0  0  0  0
  -33.9458  -23.0794    7.5687 H   0  0  0  0  0  0  0  0  0  0  0  0
  -33.4866  -22.7014    9.2117 H   0  0  0  0  0  0  0  0  0  0  0  0
  -32.6195  -21.9840    7.8751 H   0  0  0  0  0  0  0  0  0  0  0  0
  -34.6453  -20.7676    7.2205 H   0  0  0  0  0  0  0  0  0  0  0  0
  -35.8509  -21.9395    9.7077 H   0  0  0  0  0  0  0  0  0  0  0  0
  -36.3103  -22.3323    8.0683 H   0  0  0  0  0  0  0  0  0  0  0  0
  -36.5878  -20.7238    8.6917 H   0  0  0  0  0  0  0  0  0  0  0  0
  1  2  2  0
  2  3  1  0
  2 34  1  0
  3  4  2  0
  3 35  1  0
  4  5  1  0
  4 36  1  0
  5  6  2  0
  5 37  1  0
  6  7  1  0
  6  1  1  0
  7  8  2  0
  7  9  2  0
  7 10  1  0
 10 11  1  0
 10 38  1  0
 10 39  1  0
 11 12  1  0
 11 13  2  0
 13 14  1  0
 13 40  1  0
 14 15  1  0
 14 41  1  0
 14 42  1  0
 15 16  1  0
 15 17  1  0
 18  1  1  0
 19 18  1  0
 19 43  1  0
 19 44  1  0
 20 21  2  0
 21 22  1  0
 21 45  1  0
 22 23  2  0
 22 46  1  0
 23 19  1  0
 23 24  1  0
 24 25  2  0
 24 47  1  0
 25 20  1  0
 25 48  1  0
 26 27  2  0
 26 28  2  0
 26 20  1  0
 29 26  1  0
 29 30  1  0
 31 32  1  0
 31 49  1  0
 31 50  1  0
 31 51  1  0
 32 33  1  0
 32 29  1  0
 32 52  1  0
 33 53  1  0
 33 54  1  0
 33 55  1  0
M  END
>  <minimizedAffinity>  (5) 
-5.02923

>  <mol_id>  (5) 
54489

>  <source_index>  (5) 
4

>  <layer>  (5) 
L4

>  <uniprot>  (5) 
Q9Y4K0

>  <paff>  (5) 
6

>  <smiles>  (5) 
CC(C)NS(=O)(=O)c1ccc(COc2ccccc2S(=O)(=O)C/C(F)=C/CN)cc1

$$$$
L4:Q9Y4K0:82563
     RDKit          3D

 52 53  0  0  0  0  0  0  0  0999 V2000
  -27.0923  -18.8762    5.0991 C   0  0  0  0  0  0  0  0  0  0  0  0
  -26.8000  -18.3483    6.3629 C   0  0  0  0  0  0  0  0  0  0  0  0
  -25.8063  -17.3778    6.5230 C   0  0  0  0  0  0  0  0  0  0  0  0
  -25.0821  -16.9283    5.4237 C   0  0  0  0  0  0  0  0  0  0  0  0
  -25.3481  -17.4544    4.1623 C   0  0  0  0  0  0  0  0  0  0  0  0
  -26.3410  -18.4355    4.0011 C   0  0  0  0  0  0  0  0  0  0  0  0
  -26.6463  -19.0310    2.3467 S   0  0  0  0  0  0  0  0  0  0  0  0
  -26.3821  -20.4573    2.2786 O   0  0  0  0  0  0  0  0  0  0  0  0
  -27.9754  -18.5554    1.9839 O   0  0  0  0  0  0  0  0  0  0  0  0
  -25.5033  -18.1601    1.2978 C   0  0  0  0  0  0  0  0  0  0  0  0
  -26.1939  -17.5798    0.1100 C   0  0  0  0  0  0  0  0  0  0  0  0
  -26.7219  -16.3394    0.2318 F   0  0  0  0  0  0  0  0  0  0  0  0
  -26.3962  -18.2425   -1.0389 C   0  0  0  0  0  0  0  0  0  0  0  0
  -27.0976  -17.6721   -2.2248 C   0  0  0  0  0  0  0  0  0  0  0  0
  -28.4816  -18.1213   -2.2263 N   0  0  0  0  0  0  0  0  0  0  0  0
  -28.9497  -17.7607   -3.0557 H   0  0  0  0  0  0  0  0  0  0  0  0
  -28.4984  -19.1374   -2.3117 H   0  0  0  0  0  0  0  0  0  0  0  0
  -28.0305  -19.8472    4.8937 O   0  0  0  0  0  0  0  0  0  0  0  0
  -29.0967  -19.9911    5.8382 C   0  0  0  0  0  0  0  0  0  0  0  0
  -32.9481  -18.9364    4.2227 C   0  0  0  0  0  0  0  0  0  0  0  0
  -32.7845  -19.0293    5.6066 C   0  0  0  0  0  0  0  0  0  0  0  0
  -31.5370  -19.3760    6.1285 C   0  0  0  0  0  0  0  0  0  0  0  0
  -30.4517  -19.6251    5.2742 C   0  0  0  0  0  0  0  0  0  0  0  0
  -30.6428  -19.5495    3.8856 C   0  0  0  0  0  0  0  0  0  0  0  0
  -31.8866  -19.2052    3.3569 C   0  0  0  0  0  0  0  0  0  0  0  0
  -34.5176  -18.4708    3.5391 S   0  0  0  0  0  0  0  0  0  0  0  0
  -34.3679  -18.4380    2.1000 O   0  0  0  0  0  0  0  0  0  0  0  0
  -35.5483  -19.2735    4.1668 O   0  0  0  0  0  0  0  0  0  0  0  0
  -35.7288  -16.6893    5.1622 C   0  0  0  0  0  0  0  0  0  0  0  0
  -34.7154  -16.8639    4.0980 N   0  0  0  0  0  0  0  0  0  0  0  0
  -34.9067  -15.8907    2.9993 C   0  0  0  0  0  0  0  0  0  0  0  0
  -27.3251  -18.6801    7.1871 H   0  0  0  0  0  0  0  0  0  0  0  0
  -25.6094  -16.9935    7.4603 H   0  0  0  0  0  0  0  0  0  0  0  0
  -24.3518  -16.2089    5.5424 H   0  0  0  0  0  0  0  0  0  0  0  0
  -24.8145  -17.1229    3.3435 H   0  0  0  0  0  0  0  0  0  0  0  0
  -24.7481  -18.8407    0.9641 H   0  0  0  0  0  0  0  0  0  0  0  0
  -25.0694  -17.3604    1.8609 H   0  0  0  0  0  0  0  0  0  0  0  0
  -26.0434  -19.2100   -1.1063 H   0  0  0  0  0  0  0  0  0  0  0  0
  -26.6134  -18.0028   -3.1198 H   0  0  0  0  0  0  0  0  0  0  0  0
  -27.0674  -16.6035   -2.1797 H   0  0  0  0  0  0  0  0  0  0  0  0
  -29.1280  -21.0105    6.1618 H   0  0  0  0  0  0  0  0  0  0  0  0
  -28.8975  -19.3169    6.6449 H   0  0  0  0  0  0  0  0  0  0  0  0
  -33.5792  -18.8432    6.2381 H   0  0  0  0  0  0  0  0  0  0  0  0
  -31.4119  -19.4497    7.1502 H   0  0  0  0  0  0  0  0  0  0  0  0
  -29.8552  -19.7507    3.2497 H   0  0  0  0  0  0  0  0  0  0  0  0
  -32.0209  -19.1497    2.3352 H   0  0  0  0  0  0  0  0  0  0  0  0
  -35.7779  -15.6577    5.4422 H   0  0  0  0  0  0  0  0  0  0  0  0
  -35.4568  -17.2774    6.0137 H   0  0  0  0  0  0  0  0  0  0  0  0
  -36.6844  -17.0065    4.8002 H   0  0  0  0  0  0  0  0  0  0  0  0
  -35.0241  -14.9091    3.4087 H   0  0  0  0  0  0  0  0  0  0  0  0
  -35.7812  -16.1510    2.4405 H   0  0  0  0  0  0  0  0  0  0  0  0
  -34.0530  -15.9084    2.3545 H   0  0  0  0  0  0  0  0  0  0  0  0
  1  2  2  0
  2  3  1  0
  2 32  1  0
  3  4  2  0
  3 33  1  0
  4  5  1  0
  4 34  1  0
  5  6  2  0
  5 35  1  0
  6  7  1  0
  6  1  1  0
  7  8  2  0
  7  9  2  0
  7 10  1  0
 10 11  1  0
 10 36  1  0
 10 37  1  0
 11 12  1  0
 11 13  2  0
 13 14  1  0
 13 38  1  0
 14 15  1  0
 14 39  1  0
 14 40  1  0
 15 16  1  0
 15 17  1  0
 18  1  1  0
 19 18  1  0
 19 41  1  0
 19 42  1  0
 20 21  2  0
 21 22  1  0
 21 43  1  0
 22 23  2  0
 22 44  1  0
 23 19  1  0
 23 24  1  0
 24 25  2  0
 24 45  1  0
 25 20  1  0
 25 46  1  0
 26 27  2  0
 26 28  2  0
 26 20  1  0
 29 30  1  0
 29 47  1  0
 29 48  1  0
 29 49  1  0
 30 31  1  0
 30 26  1  0
 31 50  1  0
 31 51  1  0
 31 52  1  0
M  END
>  <minimizedAffinity>  (6) 
-5.15010

>  <mol_id>  (6) 
82563

>  <source_index>  (6) 
5

>  <layer>  (6) 
L4

>  <uniprot>  (6) 
Q9Y4K0

>  <paff>  (6) 
6

>  <smiles>  (6) 
CN(C)S(=O)(=O)c1ccc(COc2ccccc2S(=O)(=O)C/C(F)=C/CN)cc1

$$$$
L4:Q9Y4K0:99310
     RDKit          3D

 32 33  0  0  0  0  0  0  0  0999 V2000
  -28.7741  -20.2258    4.2643 S   0  0  0  0  0  0  0  0  0  0  0  0
  -29.2602  -21.4746    3.7077 O   0  0  0  0  0  0  0  0  0  0  0  0
  -28.8545  -19.0269    3.4392 O   0  0  0  0  0  0  0  0  0  0  0  0
  -34.2254  -19.0657    3.9998 C   0  0  0  0  0  0  0  0  0  0  0  0
  -33.0916  -19.1811    4.9551 C   0  0  0  0  0  0  0  0  0  0  0  0
  -31.8574  -19.4609    4.6068 N   0  0  0  0  0  0  0  0  0  0  0  0
  -31.0376  -19.5362    5.7198 C   0  0  0  0  0  0  0  0  0  0  0  0
  -29.6666  -19.8607    5.7525 C   0  0  0  0  0  0  0  0  0  0  0  0
  -28.9758  -19.8695    6.9779 C   0  0  0  0  0  0  0  0  0  0  0  0
  -29.6413  -19.5856    8.1654 C   0  0  0  0  0  0  0  0  0  0  0  0
  -31.0043  -19.2852    8.1621 C   0  0  0  0  0  0  0  0  0  0  0  0
  -31.6824  -19.2668    6.9312 C   0  0  0  0  0  0  0  0  0  0  0  0
  -33.3479  -18.9410    6.6311 S   0  0  0  0  0  0  0  0  0  0  0  0
  -27.0631  -20.3915    4.7060 C   0  0  0  0  0  0  0  0  0  0  0  0
  -26.2811  -19.1442    4.4617 C   0  0  0  0  0  0  0  0  0  0  0  0
  -25.9177  -18.8910    3.1823 F   0  0  0  0  0  0  0  0  0  0  0  0
  -25.8203  -18.3467    5.4407 C   0  0  0  0  0  0  0  0  0  0  0  0
  -24.9831  -17.1072    5.3367 C   0  0  0  0  0  0  0  0  0  0  0  0
  -23.5771  -17.3138    5.0419 N   0  0  0  0  0  0  0  0  0  0  0  0
  -23.0543  -16.4730    5.2748 H   0  0  0  0  0  0  0  0  0  0  0  0
  -23.2151  -18.0559    5.6401 H   0  0  0  0  0  0  0  0  0  0  0  0
  -33.8740  -19.2474    3.0056 H   0  0  0  0  0  0  0  0  0  0  0  0
  -34.6411  -18.0814    4.0568 H   0  0  0  0  0  0  0  0  0  0  0  0
  -34.9769  -19.7853    4.2496 H   0  0  0  0  0  0  0  0  0  0  0  0
  -27.9674  -20.0883    6.9957 H   0  0  0  0  0  0  0  0  0  0  0  0
  -29.1225  -19.5971    9.0575 H   0  0  0  0  0  0  0  0  0  0  0  0
  -31.5024  -19.0814    9.0427 H   0  0  0  0  0  0  0  0  0  0  0  0
  -26.6352  -21.1827    4.1265 H   0  0  0  0  0  0  0  0  0  0  0  0
  -27.0191  -20.6000    5.7546 H   0  0  0  0  0  0  0  0  0  0  0  0
  -26.0794  -18.6272    6.3995 H   0  0  0  0  0  0  0  0  0  0  0  0
  -25.0494  -16.5878    6.2698 H   0  0  0  0  0  0  0  0  0  0  0  0
  -25.3760  -16.5619    4.5042 H   0  0  0  0  0  0  0  0  0  0  0  0
  1  2  2  0
  1  3  2  0
  1 14  1  0
  4  5  1  0
  4 22  1  0
  4 23  1  0
  4 24  1  0
  5  6  2  0
  6  7  1  0
  7  8  2  0
  8  1  1  0
  8  9  1  0
  9 10  2  0
  9 25  1  0
 10 11  1  0
 10 26  1  0
 11 12  2  0
 11 27  1  0
 12 13  1  0
 12  7  1  0
 13  5  1  0
 14 15  1  0
 14 28  1  0
 14 29  1  0
 15 16  1  0
 15 17  2  0
 17 18  1  0
 17 30  1  0
 18 19  1  0
 18 31  1  0
 18 32  1  0
 19 20  1  0
 19 21  1  0
M  END
>  <minimizedAffinity>  (7) 
-4.34376

>  <mol_id>  (7) 
99310

>  <source_index>  (7) 
6

>  <layer>  (7) 
L4

>  <uniprot>  (7) 
Q9Y4K0

>  <paff>  (7) 
6

>  <smiles>  (7) 
Cc1nc2c(S(=O)(=O)C/C(F)=C/CN)cccc2s1

$$$$
L4:Q9Y4K0:99356
     RDKit          3D

 41 42  0  0  0  0  0  0  0  0999 V2000
  -26.1948  -18.2748    3.9958 C   0  0  0  0  0  0  0  0  0  0  0  0
  -25.0799  -17.4372    4.1469 C   0  0  0  0  0  0  0  0  0  0  0  0
  -24.7066  -17.0040    5.4157 C   0  0  0  0  0  0  0  0  0  0  0  0
  -25.4467  -17.4018    6.5249 C   0  0  0  0  0  0  0  0  0  0  0  0
  -26.5620  -18.2329    6.3712 C   0  0  0  0  0  0  0  0  0  0  0  0
  -26.9524  -18.6785    5.1042 C   0  0  0  0  0  0  0  0  0  0  0  0
  -26.6456  -18.7896    2.3535 S   0  0  0  0  0  0  0  0  0  0  0  0
  -27.9704  -18.2526    2.0760 O   0  0  0  0  0  0  0  0  0  0  0  0
  -26.4430  -20.2271    2.2830 O   0  0  0  0  0  0  0  0  0  0  0  0
  -25.5128  -18.0059    1.2261 C   0  0  0  0  0  0  0  0  0  0  0  0
  -26.5247  -18.0949   -1.0665 C   0  0  0  0  0  0  0  0  0  0  0  0
  -26.2639  -17.4279    0.0692 C   0  0  0  0  0  0  0  0  0  0  0  0
  -26.6497  -16.1337    0.1508 F   0  0  0  0  0  0  0  0  0  0  0  0
  -26.6004  -17.9090   -3.4786 N   0  0  0  0  0  0  0  0  0  0  0  0
  -27.2462  -17.5133   -2.2378 C   0  0  0  0  0  0  0  0  0  0  0  0
  -25.6234  -17.6234   -3.4722 H   0  0  0  0  0  0  0  0  0  0  0  0
  -26.6029  -18.9262   -3.5483 H   0  0  0  0  0  0  0  0  0  0  0  0
  -28.0195  -19.4975    4.8658 O   0  0  0  0  0  0  0  0  0  0  0  0
  -28.4831  -20.3763    5.8966 C   0  0  0  0  0  0  0  0  0  0  0  0
  -29.7760  -19.9305    6.5401 C   0  0  0  0  0  0  0  0  0  0  0  0
  -29.8760  -19.7705    7.9299 C   0  0  0  0  0  0  0  0  0  0  0  0
  -31.0676  -19.3331    8.5099 C   0  0  0  0  0  0  0  0  0  0  0  0
  -32.1677  -19.0383    7.7075 C   0  0  0  0  0  0  0  0  0  0  0  0
  -32.0765  -19.1769    6.3241 C   0  0  0  0  0  0  0  0  0  0  0  0
  -30.8858  -19.6157    5.7419 C   0  0  0  0  0  0  0  0  0  0  0  0
  -24.5379  -17.1430    3.3195 H   0  0  0  0  0  0  0  0  0  0  0  0
  -23.8849  -16.3908    5.5334 H   0  0  0  0  0  0  0  0  0  0  0  0
  -25.1714  -17.0819    7.4667 H   0  0  0  0  0  0  0  0  0  0  0  0
  -27.1025  -18.5203    7.2020 H   0  0  0  0  0  0  0  0  0  0  0  0
  -24.9894  -17.2240    1.7355 H   0  0  0  0  0  0  0  0  0  0  0  0
  -24.8154  -18.7329    0.8654 H   0  0  0  0  0  0  0  0  0  0  0  0
  -26.2056  -19.0740   -1.1346 H   0  0  0  0  0  0  0  0  0  0  0  0
  -28.2570  -17.8643   -2.2390 H   0  0  0  0  0  0  0  0  0  0  0  0
  -27.2275  -16.4462   -2.1619 H   0  0  0  0  0  0  0  0  0  0  0  0
  -27.7306  -20.4336    6.6551 H   0  0  0  0  0  0  0  0  0  0  0  0
  -28.6733  -21.3237    5.4372 H   0  0  0  0  0  0  0  0  0  0  0  0
  -29.0615  -19.9780    8.5287 H   0  0  0  0  0  0  0  0  0  0  0  0
  -31.1339  -19.2279    9.5344 H   0  0  0  0  0  0  0  0  0  0  0  0
  -33.0494  -18.7176    8.1374 H   0  0  0  0  0  0  0  0  0  0  0  0
  -32.8900  -18.9550    5.7291 H   0  0  0  0  0  0  0  0  0  0  0  0
  -30.8216  -19.7092    4.7162 H   0  0  0  0  0  0  0  0  0  0  0  0
  1  2  2  0
  2  3  1  0
  2 26  1  0
  3  4  2  0
  3 27  1  0
  4  5  1  0
  4 28  1  0
  5  6  2  0
  5 29  1  0
  6 18  1  0
  6  1  1  0
  7  8  2  0
  7  9  2  0
  7  1  1  0
 10  7  1  0
 10 30  1  0
 10 31  1  0
 11 12  2  0
 11 32  1  0
 12 13  1  0
 12 10  1  0
 14 15  1  0
 14 16  1  0
 14 17  1  0
 15 11  1  0
 15 33  1  0
 15 34  1  0
 18 19  1  0
 19 20  1  0
 19 35  1  0
 19 36  1  0
 20 21  2  0
 21 22  1  0
 21 37  1  0
 22 23  2  0
 22 38  1  0
 23 24  1  0
 23 39  1  0
 24 25  2  0
 24 40  1  0
 25 20  1  0
 25 41  1  0
M  END
>  <minimizedAffinity>  (8) 
-5.25032

>  <mol_id>  (8) 
99356

>  <source_index>  (8) 
7

>  <layer>  (8) 
L4

>  <uniprot>  (8) 
Q9Y4K0

>  <paff>  (8) 
6

>  <smiles>  (8) 
NC/C=C(F)CS(=O)(=O)c1ccccc1OCc1ccccc1

$$$$
L4:Q9Y4K0:143994
     RDKit          3D

 29 29  0  0  0  0  0  0  0  0999 V2000
  -28.3065  -19.7252    5.8096 S   0  0  0  0  0  0  0  0  0  0  0  0
  -27.8227  -21.0279    6.2301 O   0  0  0  0  0  0  0  0  0  0  0  0
  -28.4793  -19.4095    4.4041 O   0  0  0  0  0  0  0  0  0  0  0  0
  -33.4863  -18.9119    5.5877 C   0  0  0  0  0  0  0  0  0  0  0  0
  -32.2456  -19.1414    6.3979 C   0  0  0  0  0  0  0  0  0  0  0  0
  -31.0189  -19.2981    5.7691 C   0  0  0  0  0  0  0  0  0  0  0  0
  -29.8986  -19.5081    6.5711 C   0  0  0  0  0  0  0  0  0  0  0  0
  -30.0173  -19.5903    7.9545 C   0  0  0  0  0  0  0  0  0  0  0  0
  -31.2779  -19.4207    8.4891 C   0  0  0  0  0  0  0  0  0  0  0  0
  -32.3816  -19.1859    7.7449 N   0  0  0  0  0  0  0  0  0  0  0  0
  -27.3321  -18.4532    6.6018 C   0  0  0  0  0  0  0  0  0  0  0  0
  -26.0167  -18.3618    5.8986 C   0  0  0  0  0  0  0  0  0  0  0  0
  -25.4578  -19.5099    5.4514 F   0  0  0  0  0  0  0  0  0  0  0  0
  -25.3904  -17.2060    5.6289 C   0  0  0  0  0  0  0  0  0  0  0  0
  -24.0872  -17.1010    4.9115 C   0  0  0  0  0  0  0  0  0  0  0  0
  -24.3334  -17.0959    3.4766 N   0  0  0  0  0  0  0  0  0  0  0  0
  -23.4504  -16.9281    2.9956 H   0  0  0  0  0  0  0  0  0  0  0  0
  -24.6238  -18.0311    3.1929 H   0  0  0  0  0  0  0  0  0  0  0  0
  -33.2358  -18.8998    4.5475 H   0  0  0  0  0  0  0  0  0  0  0  0
  -33.9220  -17.9735    5.8606 H   0  0  0  0  0  0  0  0  0  0  0  0
  -34.1864  -19.6986    5.7769 H   0  0  0  0  0  0  0  0  0  0  0  0
  -30.9386  -19.2604    4.7409 H   0  0  0  0  0  0  0  0  0  0  0  0
  -29.1977  -19.7704    8.5552 H   0  0  0  0  0  0  0  0  0  0  0  0
  -31.3840  -19.4762    9.5141 H   0  0  0  0  0  0  0  0  0  0  0  0
  -27.1758  -18.7051    7.6299 H   0  0  0  0  0  0  0  0  0  0  0  0
  -27.8423  -17.5140    6.5519 H   0  0  0  0  0  0  0  0  0  0  0  0
  -25.8410  -16.3308    5.9388 H   0  0  0  0  0  0  0  0  0  0  0  0
  -23.4694  -17.9367    5.1662 H   0  0  0  0  0  0  0  0  0  0  0  0
  -23.5907  -16.1968    5.1957 H   0  0  0  0  0  0  0  0  0  0  0  0
  1  2  2  0
  1  3  2  0
  1 11  1  0
  4  5  1  0
  4 19  1  0
  4 20  1  0
  4 21  1  0
  5  6  2  0
  6  7  1  0
  6 22  1  0
  7  1  1  0
  7  8  2  0
  8  9  1  0
  8 23  1  0
  9 10  2  0
  9 24  1  0
 10  5  1  0
 11 12  1  0
 11 25  1  0
 11 26  1  0
 12 13  1  0
 12 14  2  0
 14 15  1  0
 14 27  1  0
 15 16  1  0
 15 28  1  0
 15 29  1  0
 16 17  1  0
 16 18  1  0
M  END
>  <minimizedAffinity>  (9) 
-4.36461

>  <mol_id>  (9) 
143994

>  <source_index>  (9) 
8

>  <layer>  (9) 
L4

>  <uniprot>  (9) 
Q9Y4K0

>  <paff>  (9) 
6

>  <smiles>  (9) 
Cc1cc(S(=O)(=O)C/C(F)=C/CN)ccn1

$$$$
L4:Q9Y4K0:146616
     RDKit          3D

 29 29  0  0  0  0  0  0  0  0999 V2000
  -28.2232  -20.0060    5.4724 S   0  0  0  0  0  0  0  0  0  0  0  0
  -27.8693  -19.9293    4.0665 O   0  0  0  0  0  0  0  0  0  0  0  0
  -27.9750  -21.2236    6.2214 O   0  0  0  0  0  0  0  0  0  0  0  0
  -30.0093  -19.5751    8.1477 C   0  0  0  0  0  0  0  0  0  0  0  0
  -30.6481  -19.4711    6.7927 C   0  0  0  0  0  0  0  0  0  0  0  0
  -32.0253  -19.2153    6.7224 C   0  0  0  0  0  0  0  0  0  0  0  0
  -32.6415  -19.1391    5.4822 C   0  0  0  0  0  0  0  0  0  0  0  0
  -31.9908  -19.3071    4.3137 N   0  0  0  0  0  0  0  0  0  0  0  0
  -30.6673  -19.5798    4.3875 C   0  0  0  0  0  0  0  0  0  0  0  0
  -29.9617  -19.6563    5.5824 C   0  0  0  0  0  0  0  0  0  0  0  0
  -27.4987  -18.6160    6.3325 C   0  0  0  0  0  0  0  0  0  0  0  0
  -26.0959  -18.4424    5.8463 C   0  0  0  0  0  0  0  0  0  0  0  0
  -25.3247  -19.5480    5.7327 F   0  0  0  0  0  0  0  0  0  0  0  0
  -25.5781  -17.2668    5.4578 C   0  0  0  0  0  0  0  0  0  0  0  0
  -24.1856  -17.0846    4.9560 C   0  0  0  0  0  0  0  0  0  0  0  0
  -24.1875  -17.1815    3.5030 N   0  0  0  0  0  0  0  0  0  0  0  0
  -24.3494  -18.1542    3.2430 H   0  0  0  0  0  0  0  0  0  0  0  0
  -23.2523  -16.9617    3.1617 H   0  0  0  0  0  0  0  0  0  0  0  0
  -30.7442  -19.3917    8.9035 H   0  0  0  0  0  0  0  0  0  0  0  0
  -29.2256  -18.8511    8.2291 H   0  0  0  0  0  0  0  0  0  0  0  0
  -29.6029  -20.5566    8.2761 H   0  0  0  0  0  0  0  0  0  0  0  0
  -32.5753  -19.0849    7.5858 H   0  0  0  0  0  0  0  0  0  0  0  0
  -33.6542  -18.9429    5.4523 H   0  0  0  0  0  0  0  0  0  0  0  0
  -30.1532  -19.7399    3.5071 H   0  0  0  0  0  0  0  0  0  0  0  0
  -27.4959  -18.8039    7.3859 H   0  0  0  0  0  0  0  0  0  0  0  0
  -28.0667  -17.7290    6.1437 H   0  0  0  0  0  0  0  0  0  0  0  0
  -26.1841  -16.4331    5.5098 H   0  0  0  0  0  0  0  0  0  0  0  0
  -23.5546  -17.8457    5.3652 H   0  0  0  0  0  0  0  0  0  0  0  0
  -23.8174  -16.1249    5.2533 H   0  0  0  0  0  0  0  0  0  0  0  0
  1  2  2  0
  1  3  2  0
  1 11  1  0
  4  5  1  0
  4 19  1  0
  4 20  1  0
  4 21  1  0
  5  6  2  0
  6  7  1  0
  6 22  1  0
  7  8  2  0
  7 23  1  0
  8  9  1  0
  9 10  2  0
  9 24  1  0
 10  1  1  0
 10  5  1  0
 11 12  1  0
 11 25  1  0
 11 26  1  0
 12 13  1  0
 12 14  2  0
 14 15  1  0
 14 27  1  0
 15 16  1  0
 15 28  1  0
 15 29  1  0
 16 17  1  0
 16 18  1  0
M  END
>  <minimizedAffinity>  (10) 
-4.50043

>  <mol_id>  (10) 
146616

>  <source_index>  (10) 
9

>  <layer>  (10) 
L4

>  <uniprot>  (10) 
Q9Y4K0

>  <paff>  (10) 
6

>  <smiles>  (10) 
Cc1ccncc1S(=O)(=O)C/C(F)=C/CN

$$$$
