L1:Q6GI75:8816
     RDKit          3D

 39 42  0  0  0  0  0  0  0  0999 V2000
  109.9659   66.8392   35.5825 C   0  0  2  0  0  0  0  0  0  0  0  0
  111.0843   65.8413   35.8373 C   0  0  0  0  0  0  0  0  0  0  0  0
  110.8915   64.7723   34.7877 C   0  0  0  0  0  0  0  0  0  0  0  0
  111.6096   63.7884   34.7009 O   0  0  0  0  0  0  0  0  0  0  0  0
  109.7502   65.0801   34.0368 N   0  0  0  0  0  0  0  0  0  0  0  0
  108.9773   66.1108   34.6885 C   0  0  0  0  0  0  0  0  0  0  0  0
  111.0514   69.3538   37.2227 C   0  0  0  0  0  0  0  0  0  0  0  0
  110.8707   69.2668   35.7940 N   0  0  0  0  0  0  0  0  0  0  0  0
  110.4019   68.1845   35.0703 C   0  0  0  0  0  0  0  0  0  0  0  0
  110.3904   68.4705   33.7809 N   0  0  0  0  0  0  0  0  0  0  0  0
  110.8510   69.7528   33.6619 C   0  0  0  0  0  0  0  0  0  0  0  0
  111.0302   70.5297   32.5080 C   0  0  0  0  0  0  0  0  0  0  0  0
  111.5266   71.8310   32.6407 C   0  0  0  0  0  0  0  0  0  0  0  0
  111.8387   72.3466   33.8985 C   0  0  0  0  0  0  0  0  0  0  0  0
  111.6656   71.5837   35.0600 C   0  0  0  0  0  0  0  0  0  0  0  0
  111.1654   70.2826   34.9072 C   0  0  0  0  0  0  0  0  0  0  0  0
  109.2135   64.2312   33.0233 C   0  0  0  0  0  0  0  0  0  0  0  0
  109.6063   64.4485   31.6892 C   0  0  0  0  0  0  0  0  0  0  0  0
  109.0736   63.6945   30.6423 C   0  0  0  0  0  0  0  0  0  0  0  0
  108.1487   62.6930   30.9090 C   0  0  0  0  0  0  0  0  0  0  0  0
  107.7788   62.4189   32.2281 C   0  0  0  0  0  0  0  0  0  0  0  0
  106.5532   60.9818   32.4800 Br  0  0  0  0  0  0  0  0  0  0  0  0
  108.3179   63.1663   33.2937 C   0  0  0  0  0  0  0  0  0  0  0  0
  108.0335   62.6287   34.9262 Cl  0  0  0  0  0  0  0  0  0  0  0  0
  109.5116   67.1320   36.5060 H   0  0  0  0  0  0  0  0  0  0  0  0
  111.0018   65.4249   36.8195 H   0  0  0  0  0  0  0  0  0  0  0  0
  112.0519   66.2946   35.7802 H   0  0  0  0  0  0  0  0  0  0  0  0
  108.1908   65.6789   35.2715 H   0  0  0  0  0  0  0  0  0  0  0  0
  108.5118   66.7690   33.9849 H   0  0  0  0  0  0  0  0  0  0  0  0
  110.7484   68.4337   37.6772 H   0  0  0  0  0  0  0  0  0  0  0  0
  110.4571   70.1552   37.6092 H   0  0  0  0  0  0  0  0  0  0  0  0
  112.0827   69.5370   37.4413 H   0  0  0  0  0  0  0  0  0  0  0  0
  110.7999   70.1481   31.5772 H   0  0  0  0  0  0  0  0  0  0  0  0
  111.6630   72.4145   31.8005 H   0  0  0  0  0  0  0  0  0  0  0  0
  112.2042   73.3087   33.9747 H   0  0  0  0  0  0  0  0  0  0  0  0
  111.8969   71.9638   35.9912 H   0  0  0  0  0  0  0  0  0  0  0  0
  110.3029   65.1808   31.4807 H   0  0  0  0  0  0  0  0  0  0  0  0
  109.3668   63.8810   29.6705 H   0  0  0  0  0  0  0  0  0  0  0  0
  107.7352   62.1520   30.1336 H   0  0  0  0  0  0  0  0  0  0  0  0
  1  2  1  0
  1 25  1  1
  2  3  1  0
  2 26  1  0
  2 27  1  0
  3  4  2  0
  3  5  1  0
  5 17  1  0
  5  6  1  0
  6  1  1  0
  6 28  1  0
  6 29  1  0
  7  8  1  0
  7 30  1  0
  7 31  1  0
  7 32  1  0
  8  9  1  0
  9  1  1  0
  9 10  2  0
 10 11  1  0
 11 12  2  0
 12 13  1  0
 12 33  1  0
 13 14  2  0
 13 34  1  0
 14 15  1  0
 14 35  1  0
 15 16  2  0
 15 36  1  0
 16  8  1  0
 16 11  1  0
 17 18  2  0
 18 19  1  0
 18 37  1  0
 19 20  2  0
 19 38  1  0
 20 21  1  0
 20 39  1  0
 21 22  1  0
 21 23  2  0
 23 24  1  0
 23 17  1  0
M  END
>  <minimizedAffinity>  (1) 
-8.31623

>  <mol_id>  (1) 
8816

>  <source_index>  (1) 
0

>  <layer>  (1) 
L1

>  <uniprot>  (1) 
Q6GI75

>  <paff>  (1) 
6.4802

>  <smiles>  (1) 
Cn1c(C2CC(=O)N(c3cccc(Br)c3Cl)C2)nc2ccccc21

$$$$
L1:Q6GI75:17359
     RDKit          3D

 42 45  0  0  0  0  0  0  0  0999 V2000
  109.6321   64.9964   33.5838 N   0  0  0  0  0  0  0  0  0  0  0  0
  110.5705   66.0597   33.8736 C   0  0  0  0  0  0  0  0  0  0  0  0
  109.8424   66.9106   34.9085 C   0  0  2  0  0  0  0  0  0  0  0  0
  108.4003   66.8187   34.4340 C   0  0  0  0  0  0  0  0  0  0  0  0
  108.3279   65.4058   33.9085 C   0  0  0  0  0  0  0  0  0  0  0  0
  107.2770   64.7949   33.7843 O   0  0  0  0  0  0  0  0  0  0  0  0
  110.3399   68.3141   34.9841 C   0  0  0  0  0  0  0  0  0  0  0  0
  110.4310   69.1444   33.9650 N   0  0  0  0  0  0  0  0  0  0  0  0
  110.9359   70.3136   34.4728 C   0  0  0  0  0  0  0  0  0  0  0  0
  111.2309   71.5156   33.8130 C   0  0  0  0  0  0  0  0  0  0  0  0
  111.7499   72.5826   34.5549 C   0  0  0  0  0  0  0  0  0  0  0  0
  111.9710   72.4543   35.9266 C   0  0  0  0  0  0  0  0  0  0  0  0
  111.6815   71.2622   36.6016 C   0  0  0  0  0  0  0  0  0  0  0  0
  111.1608   70.2061   35.8419 C   0  0  0  0  0  0  0  0  0  0  0  0
  110.7645   68.9247   36.1470 N   0  0  0  0  0  0  0  0  0  0  0  0
  110.7930   68.3194   37.4572 C   0  0  0  0  0  0  0  0  0  0  0  0
  109.9754   62.8005   35.6251 C   0  0  0  0  0  0  0  0  0  0  0  0
  110.0866   62.5911   34.1358 C   0  0  0  0  0  0  0  0  0  0  0  0
  110.3136   61.2881   33.6291 C   0  0  0  0  0  0  0  0  0  0  0  0
  110.2798   59.7305   34.7288 Br  0  0  0  0  0  0  0  0  0  0  0  0
  110.5679   61.0683   32.2736 C   0  0  0  0  0  0  0  0  0  0  0  0
  110.5939   62.1389   31.3953 C   0  0  0  0  0  0  0  0  0  0  0  0
  110.3202   63.4227   31.8644 C   0  0  0  0  0  0  0  0  0  0  0  0
  110.0263   63.6746   33.2186 C   0  0  0  0  0  0  0  0  0  0  0  0
  110.7854   66.6295   32.9938 H   0  0  0  0  0  0  0  0  0  0  0  0
  111.5140   65.6966   34.2242 H   0  0  0  0  0  0  0  0  0  0  0  0
  109.9885   66.5662   35.9110 H   0  0  0  0  0  0  0  0  0  0  0  0
  108.1999   67.5310   33.6611 H   0  0  0  0  0  0  0  0  0  0  0  0
  107.6820   67.0304   35.1983 H   0  0  0  0  0  0  0  0  0  0  0  0
  111.0681   71.6114   32.7984 H   0  0  0  0  0  0  0  0  0  0  0  0
  111.9713   73.4732   34.0828 H   0  0  0  0  0  0  0  0  0  0  0  0
  112.3555   73.2537   36.4540 H   0  0  0  0  0  0  0  0  0  0  0  0
  111.8447   71.1654   37.6160 H   0  0  0  0  0  0  0  0  0  0  0  0
  111.1683   69.0255   38.1682 H   0  0  0  0  0  0  0  0  0  0  0  0
  111.4291   67.4592   37.4389 H   0  0  0  0  0  0  0  0  0  0  0  0
  109.8027   68.0249   37.7357 H   0  0  0  0  0  0  0  0  0  0  0  0
  110.0458   61.8567   36.1242 H   0  0  0  0  0  0  0  0  0  0  0  0
  109.0335   63.2546   35.8521 H   0  0  0  0  0  0  0  0  0  0  0  0
  110.7680   63.4388   35.9557 H   0  0  0  0  0  0  0  0  0  0  0  0
  110.7360   60.1108   31.9273 H   0  0  0  0  0  0  0  0  0  0  0  0
  110.8148   61.9870   30.3987 H   0  0  0  0  0  0  0  0  0  0  0  0
  110.3333   64.2120   31.1997 H   0  0  0  0  0  0  0  0  0  0  0  0
  1  2  1  0
  2  3  1  0
  2 25  1  0
  2 26  1  0
  3  7  1  0
  3  4  1  0
  3 27  1  1
  4  5  1  0
  4 28  1  0
  4 29  1  0
  5  6  2  0
  5  1  1  0
  7  8  2  0
  8  9  1  0
  9 10  2  0
 10 11  1  0
 10 30  1  0
 11 12  2  0
 11 31  1  0
 12 13  1  0
 12 32  1  0
 13 14  2  0
 13 33  1  0
 14 15  1  0
 14  9  1  0
 15 16  1  0
 15  7  1  0
 16 34  1  0
 16 35  1  0
 16 36  1  0
 17 18  1  0
 17 37  1  0
 17 38  1  0
 17 39  1  0
 18 19  2  0
 19 20  1  0
 19 21  1  0
 21 22  2  0
 21 40  1  0
 22 23  1  0
 22 41  1  0
 23 24  2  0
 23 42  1  0
 24  1  1  0
 24 18  1  0
M  END
>  <minimizedAffinity>  (2) 
-8.37366

>  <mol_id>  (2) 
17359

>  <source_index>  (2) 
1

>  <layer>  (2) 
L1

>  <uniprot>  (2) 
Q6GI75

>  <paff>  (2) 
6.7595000000000001

>  <smiles>  (2) 
Cc1c(Br)cccc1N1CC(c2nc3ccccc3n2C)CC1=O

$$$$
L1:Q6GI75:19802
     RDKit          3D

 39 42  0  0  0  0  0  0  0  0999 V2000
  110.8812   67.4539   37.7686 C   0  0  1  0  0  0  0  0  0  0  0  0
  112.1902   66.9863   38.3758 C   0  0  0  0  0  0  0  0  0  0  0  0
  111.7838   66.4691   39.7336 C   0  0  0  0  0  0  0  0  0  0  0  0
  112.5405   65.8114   40.4325 O   0  0  0  0  0  0  0  0  0  0  0  0
  110.4928   66.9274   40.0259 N   0  0  0  0  0  0  0  0  0  0  0  0
  109.9686   67.7395   38.9474 C   0  0  0  0  0  0  0  0  0  0  0  0
  109.7473   67.6000   34.7770 C   0  0  0  0  0  0  0  0  0  0  0  0
  110.4949   68.6083   35.4906 N   0  0  0  0  0  0  0  0  0  0  0  0
  110.9939   68.5700   36.7791 C   0  0  0  0  0  0  0  0  0  0  0  0
  111.6245   69.6961   37.0575 N   0  0  0  0  0  0  0  0  0  0  0  0
  111.5258   70.4837   35.9428 C   0  0  0  0  0  0  0  0  0  0  0  0
  112.0186   71.7769   35.7160 C   0  0  0  0  0  0  0  0  0  0  0  0
  111.7809   72.3806   34.4758 C   0  0  0  0  0  0  0  0  0  0  0  0
  111.0665   71.7093   33.4823 C   0  0  0  0  0  0  0  0  0  0  0  0
  110.5685   70.4179   33.6927 C   0  0  0  0  0  0  0  0  0  0  0  0
  110.8196   69.8320   34.9406 C   0  0  0  0  0  0  0  0  0  0  0  0
  109.7730   66.7160   41.2425 C   0  0  0  0  0  0  0  0  0  0  0  0
  109.1059   65.5056   41.4966 C   0  0  0  0  0  0  0  0  0  0  0  0
  108.3919   65.2932   42.6855 C   0  0  0  0  0  0  0  0  0  0  0  0
  108.3291   66.2904   43.6513 C   0  0  0  0  0  0  0  0  0  0  0  0
  108.9816   67.4916   43.4192 C   0  0  0  0  0  0  0  0  0  0  0  0
  108.9297   68.4535   44.3517 F   0  0  0  0  0  0  0  0  0  0  0  0
  109.6917   67.7067   42.2381 C   0  0  0  0  0  0  0  0  0  0  0  0
  110.3190   68.8855   42.0964 F   0  0  0  0  0  0  0  0  0  0  0  0
  110.4705   66.6911   37.1406 H   0  0  0  0  0  0  0  0  0  0  0  0
  112.8811   67.7982   38.4669 H   0  0  0  0  0  0  0  0  0  0  0  0
  112.6859   66.2485   37.7801 H   0  0  0  0  0  0  0  0  0  0  0  0
  110.0012   68.7771   39.2066 H   0  0  0  0  0  0  0  0  0  0  0  0
  108.9457   67.5122   38.7308 H   0  0  0  0  0  0  0  0  0  0  0  0
  109.6184   66.7418   35.4029 H   0  0  0  0  0  0  0  0  0  0  0  0
  110.2806   67.3197   33.8927 H   0  0  0  0  0  0  0  0  0  0  0  0
  108.7889   67.9913   34.5065 H   0  0  0  0  0  0  0  0  0  0  0  0
  112.5468   72.2743   36.4500 H   0  0  0  0  0  0  0  0  0  0  0  0
  112.1375   73.3318   34.2941 H   0  0  0  0  0  0  0  0  0  0  0  0
  110.9023   72.1737   32.5754 H   0  0  0  0  0  0  0  0  0  0  0  0
  110.0394   69.9190   32.9604 H   0  0  0  0  0  0  0  0  0  0  0  0
  109.1421   64.7537   40.7907 H   0  0  0  0  0  0  0  0  0  0  0  0
  107.9118   64.3934   42.8433 H   0  0  0  0  0  0  0  0  0  0  0  0
  107.8051   66.1393   44.5274 H   0  0  0  0  0  0  0  0  0  0  0  0
  1  2  1  0
  1 25  1  6
  2  3  1  0
  2 26  1  0
  2 27  1  0
  3  4  2  0
  3  5  1  0
  5 17  1  0
  5  6  1  0
  6  1  1  0
  6 28  1  0
  6 29  1  0
  7  8  1  0
  7 30  1  0
  7 31  1  0
  7 32  1  0
  8  9  1  0
  9  1  1  0
  9 10  2  0
 10 11  1  0
 11 12  2  0
 12 13  1  0
 12 33  1  0
 13 14  2  0
 13 34  1  0
 14 15  1  0
 14 35  1  0
 15 16  2  0
 15 36  1  0
 16  8  1  0
 16 11  1  0
 17 18  2  0
 18 19  1  0
 18 37  1  0
 19 20  2  0
 19 38  1  0
 20 21  1  0
 20 39  1  0
 21 22  1  0
 21 23  2  0
 23 24  1  0
 23 17  1  0
M  END
>  <minimizedAffinity>  (3) 
-8.44092

>  <mol_id>  (3) 
19802

>  <source_index>  (3) 
2

>  <layer>  (3) 
L1

>  <uniprot>  (3) 
Q6GI75

>  <paff>  (3) 
6.6440000000000001

>  <smiles>  (3) 
Cn1c(C2CC(=O)N(c3cccc(F)c3F)C2)nc2ccccc21

$$$$
L1:Q6GI75:23754
     RDKit          3D

 43 46  0  0  0  0  0  0  0  0999 V2000
  109.8411   64.7754   34.0864 N   0  0  0  0  0  0  0  0  0  0  0  0
  110.7163   65.9257   34.0965 C   0  0  0  0  0  0  0  0  0  0  0  0
  109.7881   67.0912   33.7725 C   0  0  1  0  0  0  0  0  0  0  0  0
  108.5037   66.6794   34.4740 C   0  0  0  0  0  0  0  0  0  0  0  0
  108.5130   65.1800   34.3042 C   0  0  0  0  0  0  0  0  0  0  0  0
  107.5043   64.4960   34.3922 O   0  0  0  0  0  0  0  0  0  0  0  0
  110.3045   68.4112   34.2358 C   0  0  0  0  0  0  0  0  0  0  0  0
  110.6400   68.7039   35.4760 N   0  0  0  0  0  0  0  0  0  0  0  0
  111.0624   70.0081   35.4563 C   0  0  0  0  0  0  0  0  0  0  0  0
  111.5321   70.8068   36.5093 C   0  0  0  0  0  0  0  0  0  0  0  0
  111.9147   72.1251   36.2373 C   0  0  0  0  0  0  0  0  0  0  0  0
  111.8314   72.6373   34.9420 C   0  0  0  0  0  0  0  0  0  0  0  0
  111.3641   71.8545   33.8793 C   0  0  0  0  0  0  0  0  0  0  0  0
  110.9840   70.5380   34.1720 C   0  0  0  0  0  0  0  0  0  0  0  0
  110.4890   69.5036   33.4124 N   0  0  0  0  0  0  0  0  0  0  0  0
  110.2143   69.5498   31.9959 C   0  0  0  0  0  0  0  0  0  0  0  0
  110.9387   62.8531   36.1571 C   0  0  0  0  0  0  0  0  0  0  0  0
  110.8402   62.5480   34.6855 C   0  0  0  0  0  0  0  0  0  0  0  0
  111.3166   61.3093   34.2031 C   0  0  0  0  0  0  0  0  0  0  0  0
  111.8945   60.3709   35.0152 O   0  0  0  0  0  0  0  0  0  0  0  0
  111.2262   60.9491   32.8629 C   0  0  0  0  0  0  0  0  0  0  0  0
  110.6189   61.8101   31.9660 C   0  0  0  0  0  0  0  0  0  0  0  0
  110.1401   63.0426   32.4105 C   0  0  0  0  0  0  0  0  0  0  0  0
  110.2648   63.4538   33.7538 C   0  0  0  0  0  0  0  0  0  0  0  0
  111.3444   60.2870   35.8105 H   0  0  0  0  0  0  0  0  0  0  0  0
  111.4809   65.8295   33.3542 H   0  0  0  0  0  0  0  0  0  0  0  0
  111.2264   66.0496   35.0289 H   0  0  0  0  0  0  0  0  0  0  0  0
  109.6704   67.2514   32.7211 H   0  0  0  0  0  0  0  0  0  0  0  0
  107.6478   67.1175   34.0045 H   0  0  0  0  0  0  0  0  0  0  0  0
  108.4522   66.9953   35.4950 H   0  0  0  0  0  0  0  0  0  0  0  0
  111.5944   70.4290   37.4676 H   0  0  0  0  0  0  0  0  0  0  0  0
  112.2619   72.7245   37.0023 H   0  0  0  0  0  0  0  0  0  0  0  0
  112.1198   73.6120   34.7638 H   0  0  0  0  0  0  0  0  0  0  0  0
  111.3022   72.2314   32.9206 H   0  0  0  0  0  0  0  0  0  0  0  0
  110.4513   70.5225   31.6182 H   0  0  0  0  0  0  0  0  0  0  0  0
  109.1780   69.3442   31.8267 H   0  0  0  0  0  0  0  0  0  0  0  0
  110.8101   68.8170   31.4930 H   0  0  0  0  0  0  0  0  0  0  0  0
  111.4045   62.0322   36.6612 H   0  0  0  0  0  0  0  0  0  0  0  0
  109.9577   63.0064   36.5560 H   0  0  0  0  0  0  0  0  0  0  0  0
  111.5239   63.7375   36.2996 H   0  0  0  0  0  0  0  0  0  0  0  0
  111.6090   60.0468   32.5399 H   0  0  0  0  0  0  0  0  0  0  0  0
  110.5208   61.5421   30.9743 H   0  0  0  0  0  0  0  0  0  0  0  0
  109.6803   63.6732   31.7353 H   0  0  0  0  0  0  0  0  0  0  0  0
  1  2  1  0
  2  3  1  0
  2 26  1  0
  2 27  1  0
  3  7  1  0
  3  4  1  0
  3 28  1  6
  4  5  1  0
  4 29  1  0
  4 30  1  0
  5  6  2  0
  5  1  1  0
  7  8  2  0
  8  9  1  0
  9 10  2  0
 10 11  1  0
 10 31  1  0
 11 12  2  0
 11 32  1  0
 12 13  1  0
 12 33  1  0
 13 14  2  0
 13 34  1  0
 14 15  1  0
 14  9  1  0
 15 16  1  0
 15  7  1  0
 16 35  1  0
 16 36  1  0
 16 37  1  0
 17 18  1  0
 17 38  1  0
 17 39  1  0
 17 40  1  0
 18 19  2  0
 19 20  1  0
 19 21  1  0
 20 25  1  0
 21 22  2  0
 21 41  1  0
 22 23  1  0
 22 42  1  0
 23 24  2  0
 23 43  1  0
 24  1  1  0
 24 18  1  0
M  END
>  <minimizedAffinity>  (4) 
-8.55052

>  <mol_id>  (4) 
23754

>  <source_index>  (4) 
3

>  <layer>  (4) 
L1

>  <uniprot>  (4) 
Q6GI75

>  <paff>  (4) 
6.1871

>  <smiles>  (4) 
Cc1c(O)cccc1N1CC(c2nc3ccccc3n2C)CC1=O

$$$$
L1:Q6GI75:36324
     RDKit          3D

 48 51  0  0  0  0  0  0  0  0999 V2000
  109.9232   66.2856   35.6233 C   0  0  2  0  0  0  0  0  0  0  0  0
  111.1065   65.3214   35.6632 C   0  0  0  0  0  0  0  0  0  0  0  0
  111.0047   64.5507   34.3661 C   0  0  0  0  0  0  0  0  0  0  0  0
  111.8742   63.7889   33.9670 O   0  0  0  0  0  0  0  0  0  0  0  0
  109.7533   64.8162   33.7908 N   0  0  0  0  0  0  0  0  0  0  0  0
  108.9320   65.5659   34.7173 C   0  0  0  0  0  0  0  0  0  0  0  0
  110.7102   68.7079   35.8206 N   0  0  0  0  0  0  0  0  0  0  0  0
  110.2947   67.6307   35.0627 C   0  0  0  0  0  0  0  0  0  0  0  0
  110.2513   67.9555   33.7863 N   0  0  0  0  0  0  0  0  0  0  0  0
  110.6505   69.2632   33.7098 C   0  0  0  0  0  0  0  0  0  0  0  0
  110.7820   70.0900   32.5848 C   0  0  0  0  0  0  0  0  0  0  0  0
  111.2152   71.4086   32.7645 C   0  0  0  0  0  0  0  0  0  0  0  0
  111.5121   71.8932   34.0392 C   0  0  0  0  0  0  0  0  0  0  0  0
  111.3854   71.0816   35.1731 C   0  0  0  0  0  0  0  0  0  0  0  0
  110.9482   69.7660   34.9713 C   0  0  0  0  0  0  0  0  0  0  0  0
  110.8572   68.7516   37.2646 C   0  0  0  0  0  0  0  0  0  0  0  0
  111.8418   66.9705   38.7430 C   0  0  0  0  0  0  0  0  0  0  0  0
  112.1383   68.0674   37.7340 C   0  0  0  0  0  0  0  0  0  0  0  0
  109.1604   64.0441   32.7558 C   0  0  0  0  0  0  0  0  0  0  0  0
  109.3560   64.4351   31.4201 C   0  0  0  0  0  0  0  0  0  0  0  0
  108.8920   63.6556   30.3622 C   0  0  0  0  0  0  0  0  0  0  0  0
  108.2256   62.4666   30.6243 C   0  0  0  0  0  0  0  0  0  0  0  0
  107.9844   62.0794   31.9451 C   0  0  0  0  0  0  0  0  0  0  0  0
  107.0632   60.4299   32.1898 Br  0  0  0  0  0  0  0  0  0  0  0  0
  108.4078   62.8768   33.0313 C   0  0  0  0  0  0  0  0  0  0  0  0
  107.9906   62.5164   34.4352 C   0  0  0  0  0  0  0  0  0  0  0  0
  109.5386   66.5024   36.5980 H   0  0  0  0  0  0  0  0  0  0  0  0
  111.0302   64.6623   36.5027 H   0  0  0  0  0  0  0  0  0  0  0  0
  112.0434   65.8281   35.7651 H   0  0  0  0  0  0  0  0  0  0  0  0
  108.3100   64.9076   35.2871 H   0  0  0  0  0  0  0  0  0  0  0  0
  108.2762   66.2465   34.2156 H   0  0  0  0  0  0  0  0  0  0  0  0
  110.5633   69.7327   31.6417 H   0  0  0  0  0  0  0  0  0  0  0  0
  111.3161   72.0290   31.9460 H   0  0  0  0  0  0  0  0  0  0  0  0
  111.8312   72.8686   34.1481 H   0  0  0  0  0  0  0  0  0  0  0  0
  111.6046   71.4372   36.1168 H   0  0  0  0  0  0  0  0  0  0  0  0
  110.8779   69.7744   37.5782 H   0  0  0  0  0  0  0  0  0  0  0  0
  110.0287   68.2292   37.6954 H   0  0  0  0  0  0  0  0  0  0  0  0
  112.7582   66.5121   39.0511 H   0  0  0  0  0  0  0  0  0  0  0  0
  111.2082   66.2345   38.2938 H   0  0  0  0  0  0  0  0  0  0  0  0
  111.3502   67.3926   39.5945 H   0  0  0  0  0  0  0  0  0  0  0  0
  112.6340   67.6382   36.8884 H   0  0  0  0  0  0  0  0  0  0  0  0
  112.7590   68.8005   38.2054 H   0  0  0  0  0  0  0  0  0  0  0  0
  109.8530   65.3168   31.2188 H   0  0  0  0  0  0  0  0  0  0  0  0
  109.0432   63.9611   29.3881 H   0  0  0  0  0  0  0  0  0  0  0  0
  107.9087   61.8693   29.8447 H   0  0  0  0  0  0  0  0  0  0  0  0
  107.4341   61.6027   34.4184 H   0  0  0  0  0  0  0  0  0  0  0  0
  107.3809   63.2981   34.8378 H   0  0  0  0  0  0  0  0  0  0  0  0
  108.8609   62.3928   35.0453 H   0  0  0  0  0  0  0  0  0  0  0  0
  1  2  1  0
  1 27  1  1
  2  3  1  0
  2 28  1  0
  2 29  1  0
  3  4  2  0
  3  5  1  0
  5 19  1  0
  5  6  1  0
  6  1  1  0
  6 30  1  0
  6 31  1  0
  7  8  1  0
  8  1  1  0
  8  9  2  0
  9 10  1  0
 10 11  2  0
 11 12  1  0
 11 32  1  0
 12 13  2  0
 12 33  1  0
 13 14  1  0
 13 34  1  0
 14 15  2  0
 14 35  1  0
 15  7  1  0
 15 10  1  0
 16  7  1  0
 16 36  1  0
 16 37  1  0
 17 18  1  0
 17 38  1  0
 17 39  1  0
 17 40  1  0
 18 16  1  0
 18 41  1  0
 18 42  1  0
 19 20  2  0
 20 21  1  0
 20 43  1  0
 21 22  2  0
 21 44  1  0
 22 23  1  0
 22 45  1  0
 23 24  1  0
 23 25  2  0
 25 26  1  0
 25 19  1  0
 26 46  1  0
 26 47  1  0
 26 48  1  0
M  END
>  <minimizedAffinity>  (5) 
-7.98423

>  <mol_id>  (5) 
36324

>  <source_index>  (5) 
4

>  <layer>  (5) 
L1

>  <uniprot>  (5) 
Q6GI75

>  <paff>  (5) 
6.1277999999999997

>  <smiles>  (5) 
CCCn1c(C2CC(=O)N(c3cccc(Br)c3C)C2)nc2ccccc21

$$$$
L1:Q6GI75:37901
     RDKit          3D

 49 52  0  0  0  0  0  0  0  0999 V2000
  109.8602   65.7004   35.8012 C   0  0  0  0  0  0  0  0  0  0  0  0
  109.6462   66.0661   34.4027 N   0  0  0  0  0  0  0  0  0  0  0  0
  109.9540   65.2773   33.3116 C   0  0  0  0  0  0  0  0  0  0  0  0
  109.5801   65.5252   32.1657 O   0  0  0  0  0  0  0  0  0  0  0  0
  110.7665   64.0593   33.5618 C   0  0  0  0  0  0  0  0  0  0  0  0
  110.1424   62.8731   33.6277 C   0  0  0  0  0  0  0  0  0  0  0  0
  110.8248   61.6063   33.9014 C   0  0  0  0  0  0  0  0  0  0  0  0
  111.4577   60.8477   32.9194 C   0  0  0  0  0  0  0  0  0  0  0  0
  112.0822   59.6655   33.1448 N   0  0  0  0  0  0  0  0  0  0  0  0
  112.0807   59.2151   34.4115 C   0  0  0  0  0  0  0  0  0  0  0  0
  112.7171   58.0046   34.6475 N   0  0  0  0  0  0  0  0  0  0  0  0
  112.9478   57.4773   35.8863 C   0  0  0  0  0  0  0  0  0  0  0  0
  113.4631   56.3720   36.0289 O   0  0  0  0  0  0  0  0  0  0  0  0
  112.6460   58.3767   37.0619 C   0  0  0  0  0  0  0  0  0  0  0  0
  111.4126   59.2315   36.8210 C   0  0  0  0  0  0  0  0  0  0  0  0
  111.4603   59.8759   35.4666 C   0  0  0  0  0  0  0  0  0  0  0  0
  110.8106   61.0833   35.1960 C   0  0  0  0  0  0  0  0  0  0  0  0
  113.0358   57.4915   33.8376 H   0  0  0  0  0  0  0  0  0  0  0  0
  108.8027   67.2404   34.1722 C   0  0  0  0  0  0  0  0  0  0  0  0
  109.6287   68.4784   34.2065 C   0  0  0  0  0  0  0  0  0  0  0  0
  110.0478   68.8819   35.4423 O   0  0  0  0  0  0  0  0  0  0  0  0
  110.7819   70.0128   35.2652 C   0  0  0  0  0  0  0  0  0  0  0  0
  111.3969   70.7386   36.2840 C   0  0  0  0  0  0  0  0  0  0  0  0
  112.1125   71.8759   35.8956 C   0  0  0  0  0  0  0  0  0  0  0  0
  112.1954   72.2523   34.5504 C   0  0  0  0  0  0  0  0  0  0  0  0
  111.5622   71.5011   33.5482 C   0  0  0  0  0  0  0  0  0  0  0  0
  110.8367   70.3502   33.9185 C   0  0  0  0  0  0  0  0  0  0  0  0
  110.0841   69.3495   33.2288 C   0  0  0  0  0  0  0  0  0  0  0  0
  109.8480   69.2467   31.7675 C   0  0  0  0  0  0  0  0  0  0  0  0
  109.5310   66.4987   36.4330 H   0  0  0  0  0  0  0  0  0  0  0  0
  110.9018   65.5203   35.9674 H   0  0  0  0  0  0  0  0  0  0  0  0
  109.3045   64.8144   36.0272 H   0  0  0  0  0  0  0  0  0  0  0  0
  111.7894   64.1239   33.6824 H   0  0  0  0  0  0  0  0  0  0  0  0
  109.1217   62.8522   33.4767 H   0  0  0  0  0  0  0  0  0  0  0  0
  111.4508   61.2106   31.9534 H   0  0  0  0  0  0  0  0  0  0  0  0
  113.4848   59.0195   37.2297 H   0  0  0  0  0  0  0  0  0  0  0  0
  112.4580   57.7567   37.9135 H   0  0  0  0  0  0  0  0  0  0  0  0
  111.3640   59.9943   37.5698 H   0  0  0  0  0  0  0  0  0  0  0  0
  110.5479   58.6030   36.8690 H   0  0  0  0  0  0  0  0  0  0  0  0
  110.3211   61.5875   35.9518 H   0  0  0  0  0  0  0  0  0  0  0  0
  108.0539   67.2934   34.9347 H   0  0  0  0  0  0  0  0  0  0  0  0
  108.3390   67.1553   33.2117 H   0  0  0  0  0  0  0  0  0  0  0  0
  111.3279   70.4519   37.2730 H   0  0  0  0  0  0  0  0  0  0  0  0
  112.5870   72.4466   36.6127 H   0  0  0  0  0  0  0  0  0  0  0  0
  112.7307   73.0957   34.2911 H   0  0  0  0  0  0  0  0  0  0  0  0
  111.6264   71.7859   32.5583 H   0  0  0  0  0  0  0  0  0  0  0  0
  110.3249   70.0656   31.2707 H   0  0  0  0  0  0  0  0  0  0  0  0
  108.7962   69.2754   31.5733 H   0  0  0  0  0  0  0  0  0  0  0  0
  110.2526   68.3249   31.4048 H   0  0  0  0  0  0  0  0  0  0  0  0
  1  2  1  0
  1 30  1  0
  1 31  1  0
  1 32  1  0
  2 19  1  0
  2  3  1  0
  3  4  2  0
  3  5  1  0
  5  6  2  0
  5 33  1  0
  6  7  1  0
  6 34  1  0
  7  8  2  0
  8  9  1  0
  8 35  1  0
  9 10  2  0
 10 11  1  0
 11 12  1  0
 11 18  1  0
 12 13  2  0
 12 14  1  0
 14 15  1  0
 14 36  1  0
 14 37  1  0
 15 16  1  0
 15 38  1  0
 15 39  1  0
 16 17  2  0
 16 10  1  0
 17  7  1  0
 17 40  1  0
 19 20  1  0
 19 41  1  0
 19 42  1  0
 20 21  1  0
 21 22  1  0
 22 23  2  0
 23 24  1  0
 23 43  1  0
 24 25  2  0
 24 44  1  0
 25 26  1  0
 25 45  1  0
 26 27  2  0
 26 46  1  0
 27 28  1  0
 27 22  1  0
 28 29  1  0
 28 20  2  0
 29 47  1  0
 29 48  1  0
 29 49  1  0
M  END
>  <minimizedAffinity>  (6) 
-8.21186

>  <mol_id>  (6) 
37901

>  <source_index>  (6) 
5

>  <layer>  (6) 
L1

>  <uniprot>  (6) 
Q6GI75

>  <paff>  (6) 
7.3768000000000002

>  <smiles>  (6) 
CN(Cc1oc2ccccc2c1C)C(=O)\C=C\c1cnc2NC(=O)CCc2c1

$$$$
L1:Q6GI75:90964
     RDKit          3D

 42 45  0  0  0  0  0  0  0  0999 V2000
  109.6168   64.9194   33.9279 N   0  0  0  0  0  0  0  0  0  0  0  0
  110.5437   66.0085   34.1403 C   0  0  0  0  0  0  0  0  0  0  0  0
  109.7655   66.9467   35.0524 C   0  0  2  0  0  0  0  0  0  0  0  0
  108.3530   66.8292   34.4944 C   0  0  0  0  0  0  0  0  0  0  0  0
  108.3004   65.4035   33.9931 C   0  0  0  0  0  0  0  0  0  0  0  0
  107.2607   64.8537   33.6644 O   0  0  0  0  0  0  0  0  0  0  0  0
  110.2803   68.3459   35.0437 C   0  0  0  0  0  0  0  0  0  0  0  0
  110.3635   69.1186   33.9796 N   0  0  0  0  0  0  0  0  0  0  0  0
  110.8894   70.3075   34.4154 C   0  0  0  0  0  0  0  0  0  0  0  0
  111.1851   71.4690   33.6869 C   0  0  0  0  0  0  0  0  0  0  0  0
  111.7282   72.5684   34.3613 C   0  0  0  0  0  0  0  0  0  0  0  0
  111.9723   72.5113   35.7339 C   0  0  0  0  0  0  0  0  0  0  0  0
  111.6826   71.3603   36.4768 C   0  0  0  0  0  0  0  0  0  0  0  0
  111.1376   70.2710   35.7840 C   0  0  0  0  0  0  0  0  0  0  0  0
  110.7338   69.0122   36.1643 N   0  0  0  0  0  0  0  0  0  0  0  0
  110.7813   68.4760   37.5038 C   0  0  0  0  0  0  0  0  0  0  0  0
  109.9089   62.4391   35.6022 C   0  0  0  0  0  0  0  0  0  0  0  0
  110.0683   62.4702   34.1022 C   0  0  0  0  0  0  0  0  0  0  0  0
  110.3536   61.2684   33.4131 C   0  0  0  0  0  0  0  0  0  0  0  0
  110.3633   59.5698   34.2784 Br  0  0  0  0  0  0  0  0  0  0  0  0
  110.6526   61.2658   32.0485 C   0  0  0  0  0  0  0  0  0  0  0  0
  110.6742   62.4599   31.3440 C   0  0  0  0  0  0  0  0  0  0  0  0
  110.3557   63.6505   31.9949 C   0  0  0  0  0  0  0  0  0  0  0  0
  110.0045   63.6749   33.3591 C   0  0  0  0  0  0  0  0  0  0  0  0
  110.7918   66.4881   33.2166 H   0  0  0  0  0  0  0  0  0  0  0  0
  111.4772   65.6928   34.5573 H   0  0  0  0  0  0  0  0  0  0  0  0
  109.8410   66.6856   36.0873 H   0  0  0  0  0  0  0  0  0  0  0  0
  108.1966   67.5234   33.6954 H   0  0  0  0  0  0  0  0  0  0  0  0
  107.5954   67.0493   35.2172 H   0  0  0  0  0  0  0  0  0  0  0  0
  111.0054   71.5121   32.6716 H   0  0  0  0  0  0  0  0  0  0  0  0
  111.9503   73.4299   33.8383 H   0  0  0  0  0  0  0  0  0  0  0  0
  112.3742   73.3335   36.2109 H   0  0  0  0  0  0  0  0  0  0  0  0
  111.8629   71.3161   37.4920 H   0  0  0  0  0  0  0  0  0  0  0  0
  111.1777   69.2140   38.1695 H   0  0  0  0  0  0  0  0  0  0  0  0
  111.4078   67.6088   37.5188 H   0  0  0  0  0  0  0  0  0  0  0  0
  109.7936   68.2079   37.8159 H   0  0  0  0  0  0  0  0  0  0  0  0
  109.9923   61.4303   35.9489 H   0  0  0  0  0  0  0  0  0  0  0  0
  108.9483   62.8290   35.8670 H   0  0  0  0  0  0  0  0  0  0  0  0
  110.6731   63.0360   36.0545 H   0  0  0  0  0  0  0  0  0  0  0  0
  110.8570   60.3769   31.5657 H   0  0  0  0  0  0  0  0  0  0  0  0
  110.9248   62.4670   30.3429 H   0  0  0  0  0  0  0  0  0  0  0  0
  110.3777   64.5356   31.4647 H   0  0  0  0  0  0  0  0  0  0  0  0
  1  2  1  0
  2  3  1  0
  2 25  1  0
  2 26  1  0
  3  7  1  0
  3  4  1  0
  3 27  1  1
  4  5  1  0
  4 28  1  0
  4 29  1  0
  5  6  2  0
  5  1  1  0
  7  8  2  0
  8  9  1  0
  9 10  2  0
 10 11  1  0
 10 30  1  0
 11 12  2  0
 11 31  1  0
 12 13  1  0
 12 32  1  0
 13 14  2  0
 13 33  1  0
 14 15  1  0
 14  9  1  0
 15 16  1  0
 15  7  1  0
 16 34  1  0
 16 35  1  0
 16 36  1  0
 17 18  1  0
 17 37  1  0
 17 38  1  0
 17 39  1  0
 18 19  2  0
 19 20  1  0
 19 21  1  0
 21 22  2  0
 21 40  1  0
 22 23  1  0
 22 41  1  0
 23 24  2  0
 23 42  1  0
 24  1  1  0
 24 18  1  0
M  END
>  <minimizedAffinity>  (7) 
-8.37849

>  <mol_id>  (7) 
90964

>  <source_index>  (7) 
6

>  <layer>  (7) 
L1

>  <uniprot>  (7) 
Q6GI75

>  <paff>  (7) 
7.0269000000000004

>  <smiles>  (7) 
Cc1c(Br)cccc1N1C[C@@H](c2nc3ccccc3n2C)CC1=O

$$$$
L1:Q6GI75:104905
     RDKit          3D

 39 42  0  0  0  0  0  0  0  0999 V2000
  109.9378   66.5748   35.5726 C   0  0  2  0  0  0  0  0  0  0  0  0
  111.0720   65.5784   35.7495 C   0  0  0  0  0  0  0  0  0  0  0  0
  110.8579   64.5520   34.6623 C   0  0  0  0  0  0  0  0  0  0  0  0
  111.5652   63.5646   34.5326 O   0  0  0  0  0  0  0  0  0  0  0  0
  109.7157   64.9001   33.9293 N   0  0  0  0  0  0  0  0  0  0  0  0
  108.9482   65.8961   34.6416 C   0  0  0  0  0  0  0  0  0  0  0  0
  110.9528   68.9891   37.3868 C   0  0  0  0  0  0  0  0  0  0  0  0
  110.7895   68.9984   35.9538 N   0  0  0  0  0  0  0  0  0  0  0  0
  110.3495   67.9588   35.1543 C   0  0  0  0  0  0  0  0  0  0  0  0
  110.3430   68.3312   33.8873 N   0  0  0  0  0  0  0  0  0  0  0  0
  110.7784   69.6277   33.8601 C   0  0  0  0  0  0  0  0  0  0  0  0
  110.9515   70.4848   32.7634 C   0  0  0  0  0  0  0  0  0  0  0  0
  111.4198   71.7838   32.9894 C   0  0  0  0  0  0  0  0  0  0  0  0
  111.7102   72.2186   34.2825 C   0  0  0  0  0  0  0  0  0  0  0  0
  111.5427   71.3750   35.3877 C   0  0  0  0  0  0  0  0  0  0  0  0
  111.0710   70.0777   35.1416 C   0  0  0  0  0  0  0  0  0  0  0  0
  109.1526   64.0727   32.9103 C   0  0  0  0  0  0  0  0  0  0  0  0
  109.5311   64.3085   31.5742 C   0  0  0  0  0  0  0  0  0  0  0  0
  108.9726   63.5875   30.5180 C   0  0  0  0  0  0  0  0  0  0  0  0
  108.0328   62.5991   30.7767 C   0  0  0  0  0  0  0  0  0  0  0  0
  107.6746   62.3036   32.0939 C   0  0  0  0  0  0  0  0  0  0  0  0
  106.5394   61.0105   32.3057 Cl  0  0  0  0  0  0  0  0  0  0  0  0
  108.2418   63.0179   33.1695 C   0  0  0  0  0  0  0  0  0  0  0  0
  107.9346   62.3764   34.9510 Br  0  0  0  0  0  0  0  0  0  0  0  0
  109.4883   66.7965   36.5179 H   0  0  0  0  0  0  0  0  0  0  0  0
  111.0237   65.1201   36.7152 H   0  0  0  0  0  0  0  0  0  0  0  0
  112.0328   66.0443   35.6812 H   0  0  0  0  0  0  0  0  0  0  0  0
  108.1628   65.4337   35.2022 H   0  0  0  0  0  0  0  0  0  0  0  0
  108.4843   66.5935   33.9757 H   0  0  0  0  0  0  0  0  0  0  0  0
  110.6648   68.0335   37.7724 H   0  0  0  0  0  0  0  0  0  0  0  0
  110.3373   69.7491   37.8209 H   0  0  0  0  0  0  0  0  0  0  0  0
  111.9775   69.1778   37.6302 H   0  0  0  0  0  0  0  0  0  0  0  0
  110.7372   70.1630   31.8066 H   0  0  0  0  0  0  0  0  0  0  0  0
  111.5515   72.4259   32.1923 H   0  0  0  0  0  0  0  0  0  0  0  0
  112.0551   73.1804   34.4276 H   0  0  0  0  0  0  0  0  0  0  0  0
  111.7578   71.6953   36.3449 H   0  0  0  0  0  0  0  0  0  0  0  0
  110.2386   65.0320   31.3715 H   0  0  0  0  0  0  0  0  0  0  0  0
  109.2576   63.7886   29.5467 H   0  0  0  0  0  0  0  0  0  0  0  0
  107.5988   62.0826   29.9957 H   0  0  0  0  0  0  0  0  0  0  0  0
  1  2  1  0
  1 25  1  1
  2  3  1  0
  2 26  1  0
  2 27  1  0
  3  4  2  0
  3  5  1  0
  5 17  1  0
  5  6  1  0
  6  1  1  0
  6 28  1  0
  6 29  1  0
  7  8  1  0
  7 30  1  0
  7 31  1  0
  7 32  1  0
  8  9  1  0
  9  1  1  0
  9 10  2  0
 10 11  1  0
 11 12  2  0
 12 13  1  0
 12 33  1  0
 13 14  2  0
 13 34  1  0
 14 15  1  0
 14 35  1  0
 15 16  2  0
 15 36  1  0
 16  8  1  0
 16 11  1  0
 17 18  2  0
 18 19  1  0
 18 37  1  0
 19 20  2  0
 19 38  1  0
 20 21  1  0
 20 39  1  0
 21 22  1  0
 21 23  2  0
 23 24  1  0
 23 17  1  0
M  END
>  <minimizedAffinity>  (8) 
-8.37163

>  <mol_id>  (8) 
104905

>  <source_index>  (8) 
7

>  <layer>  (8) 
L1

>  <uniprot>  (8) 
Q6GI75

>  <paff>  (8) 
6.6383000000000001

>  <smiles>  (8) 
Cn1c(C2CC(=O)N(c3cccc(Cl)c3Br)C2)nc2ccccc21

$$$$
L1:Q6GI75:125406
     RDKit          3D

 43 46  0  0  0  0  0  0  0  0999 V2000
  110.1736   65.1788   34.6163 N   0  0  0  0  0  0  0  0  0  0  0  0
  109.0524   66.0884   34.5432 C   0  0  0  0  0  0  0  0  0  0  0  0
  109.4470   67.1160   33.4850 C   0  0  2  0  0  0  0  0  0  0  0  0
  110.4235   66.3468   32.5991 C   0  0  0  0  0  0  0  0  0  0  0  0
  111.0239   65.3157   33.5238 C   0  0  0  0  0  0  0  0  0  0  0  0
  112.0777   64.7435   33.2905 O   0  0  0  0  0  0  0  0  0  0  0  0
  110.0862   68.3373   34.0883 C   0  0  0  0  0  0  0  0  0  0  0  0
  110.4327   68.4745   35.3524 N   0  0  0  0  0  0  0  0  0  0  0  0
  110.9645   69.7323   35.4667 C   0  0  0  0  0  0  0  0  0  0  0  0
  111.4867   70.3778   36.5970 C   0  0  0  0  0  0  0  0  0  0  0  0
  111.9699   71.6844   36.4646 C   0  0  0  0  0  0  0  0  0  0  0  0
  111.9327   72.3352   35.2309 C   0  0  0  0  0  0  0  0  0  0  0  0
  111.4160   71.7055   34.0919 C   0  0  0  0  0  0  0  0  0  0  0  0
  110.9401   70.3964   34.2445 C   0  0  0  0  0  0  0  0  0  0  0  0
  110.3831   69.4842   33.3785 N   0  0  0  0  0  0  0  0  0  0  0  0
  110.1421   69.6964   31.9713 C   0  0  0  0  0  0  0  0  0  0  0  0
  109.6791   62.9086   35.4959 C   0  0  0  0  0  0  0  0  0  0  0  0
  109.7461   62.0130   36.5798 C   0  0  0  0  0  0  0  0  0  0  0  0
  108.8369   60.3427   36.6027 Br  0  0  0  0  0  0  0  0  0  0  0  0
  110.4382   62.3586   37.7456 C   0  0  0  0  0  0  0  0  0  0  0  0
  111.0313   63.6113   37.8598 C   0  0  0  0  0  0  0  0  0  0  0  0
  110.9261   64.5246   36.8124 C   0  0  0  0  0  0  0  0  0  0  0  0
  110.2599   64.1889   35.6220 C   0  0  0  0  0  0  0  0  0  0  0  0
  109.6061   61.9099   33.3946 C   0  0  0  0  0  0  0  0  0  0  0  0
  108.8945   62.6411   34.3980 O   0  0  0  0  0  0  0  0  0  0  0  0
  108.8916   66.5641   35.4881 H   0  0  0  0  0  0  0  0  0  0  0  0
  108.1414   65.5850   34.2952 H   0  0  0  0  0  0  0  0  0  0  0  0
  108.6041   67.4979   32.9479 H   0  0  0  0  0  0  0  0  0  0  0  0
  111.1801   66.9976   32.2132 H   0  0  0  0  0  0  0  0  0  0  0  0
  109.9475   65.9077   31.7473 H   0  0  0  0  0  0  0  0  0  0  0  0
  111.5141   69.8977   37.5101 H   0  0  0  0  0  0  0  0  0  0  0  0
  112.3576   72.1715   37.2876 H   0  0  0  0  0  0  0  0  0  0  0  0
  112.2930   73.2994   35.1564 H   0  0  0  0  0  0  0  0  0  0  0  0
  111.3869   72.1853   33.1787 H   0  0  0  0  0  0  0  0  0  0  0  0
  110.4727   70.6763   31.6966 H   0  0  0  0  0  0  0  0  0  0  0  0
  109.0951   69.6040   31.7708 H   0  0  0  0  0  0  0  0  0  0  0  0
  110.6798   68.9663   31.4033 H   0  0  0  0  0  0  0  0  0  0  0  0
  110.5087   61.6827   38.5222 H   0  0  0  0  0  0  0  0  0  0  0  0
  111.5475   63.8637   38.7171 H   0  0  0  0  0  0  0  0  0  0  0  0
  111.3444   65.4627   36.9129 H   0  0  0  0  0  0  0  0  0  0  0  0
  108.9596   61.7248   32.5624 H   0  0  0  0  0  0  0  0  0  0  0  0
  109.9395   60.9781   33.8014 H   0  0  0  0  0  0  0  0  0  0  0  0
  110.4512   62.4801   33.0698 H   0  0  0  0  0  0  0  0  0  0  0  0
  1  2  1  0
  2  3  1  0
  2 26  1  0
  2 27  1  0
  3  7  1  0
  3  4  1  0
  3 28  1  6
  4  5  1  0
  4 29  1  0
  4 30  1  0
  5  6  2  0
  5  1  1  0
  7  8  2  0
  8  9  1  0
  9 10  2  0
 10 11  1  0
 10 31  1  0
 11 12  2  0
 11 32  1  0
 12 13  1  0
 12 33  1  0
 13 14  2  0
 13 34  1  0
 14 15  1  0
 14  9  1  0
 15 16  1  0
 15  7  1  0
 16 35  1  0
 16 36  1  0
 16 37  1  0
 17 18  2  0
 18 19  1  0
 18 20  1  0
 20 21  2  0
 20 38  1  0
 21 22  1  0
 21 39  1  0
 22 23  2  0
 22 40  1  0
 23  1  1  0
 23 17  1  0
 24 25  1  0
 24 41  1  0
 24 42  1  0
 24 43  1  0
 25 17  1  0
M  END
>  <minimizedAffinity>  (9) 
-8.24629

>  <mol_id>  (9) 
125406

>  <source_index>  (9) 
8

>  <layer>  (9) 
L1

>  <uniprot>  (9) 
Q6GI75

>  <paff>  (9) 
6.7011000000000003

>  <smiles>  (9) 
COc1c(Br)cccc1N1CC(c2nc3ccccc3n2C)CC1=O

$$$$
L1:Q6GI75:134127
     RDKit          3D

 42 45  0  0  0  0  0  0  0  0999 V2000
  109.7720   65.2823   33.8728 N   0  0  0  0  0  0  0  0  0  0  0  0
  108.9345   66.1297   34.6992 C   0  0  0  0  0  0  0  0  0  0  0  0
  109.8960   66.8495   35.6422 C   0  0  1  0  0  0  0  0  0  0  0  0
  111.0520   65.8665   35.7742 C   0  0  0  0  0  0  0  0  0  0  0  0
  110.9914   65.0363   34.5145 C   0  0  0  0  0  0  0  0  0  0  0  0
  111.8758   64.2548   34.1935 O   0  0  0  0  0  0  0  0  0  0  0  0
  110.3525   68.1772   35.1042 C   0  0  0  0  0  0  0  0  0  0  0  0
  110.3405   68.5354   33.8369 N   0  0  0  0  0  0  0  0  0  0  0  0
  110.8262   69.8160   33.7972 C   0  0  0  0  0  0  0  0  0  0  0  0
  111.0188   70.6603   32.6941 C   0  0  0  0  0  0  0  0  0  0  0  0
  111.5274   71.9460   32.9099 C   0  0  0  0  0  0  0  0  0  0  0  0
  111.8369   72.3817   34.1990 C   0  0  0  0  0  0  0  0  0  0  0  0
  111.6520   71.5514   35.3113 C   0  0  0  0  0  0  0  0  0  0  0  0
  111.1447   70.2670   35.0740 C   0  0  0  0  0  0  0  0  0  0  0  0
  110.8432   69.2016   35.8904 N   0  0  0  0  0  0  0  0  0  0  0  0
  111.0056   69.1668   37.3242 C   0  0  0  0  0  0  0  0  0  0  0  0
  107.9009   63.0716   34.6036 C   0  0  0  0  0  0  0  0  0  0  0  0
  108.3990   63.3194   33.2024 C   0  0  0  0  0  0  0  0  0  0  0  0
  108.0033   62.4486   32.1627 C   0  0  0  0  0  0  0  0  0  0  0  0
  107.1033   61.0003   32.4712 Cl  0  0  0  0  0  0  0  0  0  0  0  0
  108.3213   62.7174   30.8300 C   0  0  0  0  0  0  0  0  0  0  0  0
  109.0401   63.8594   30.5080 C   0  0  0  0  0  0  0  0  0  0  0  0
  109.4766   64.7087   31.5237 C   0  0  0  0  0  0  0  0  0  0  0  0
  109.2024   64.4387   32.8772 C   0  0  0  0  0  0  0  0  0  0  0  0
  108.2363   65.5392   35.2549 H   0  0  0  0  0  0  0  0  0  0  0  0
  108.3610   66.8171   34.1132 H   0  0  0  0  0  0  0  0  0  0  0  0
  109.4400   67.0957   36.5783 H   0  0  0  0  0  0  0  0  0  0  0  0
  110.9265   65.2497   36.6395 H   0  0  0  0  0  0  0  0  0  0  0  0
  111.9939   66.3608   35.8896 H   0  0  0  0  0  0  0  0  0  0  0  0
  110.7896   70.3392   31.7405 H   0  0  0  0  0  0  0  0  0  0  0  0
  111.6751   72.5783   32.1077 H   0  0  0  0  0  0  0  0  0  0  0  0
  112.2093   73.3345   34.3352 H   0  0  0  0  0  0  0  0  0  0  0  0
  111.8797   71.8719   36.2655 H   0  0  0  0  0  0  0  0  0  0  0  0
  111.4061   70.1003   37.6605 H   0  0  0  0  0  0  0  0  0  0  0  0
  111.6756   68.3754   37.5882 H   0  0  0  0  0  0  0  0  0  0  0  0
  110.0555   68.9990   37.7868 H   0  0  0  0  0  0  0  0  0  0  0  0
  107.3163   62.1756   34.6211 H   0  0  0  0  0  0  0  0  0  0  0  0
  107.2977   63.8972   34.9190 H   0  0  0  0  0  0  0  0  0  0  0  0
  108.7352   62.9661   35.2653 H   0  0  0  0  0  0  0  0  0  0  0  0
  108.0222   62.0678   30.0860 H   0  0  0  0  0  0  0  0  0  0  0  0
  109.2506   64.0791   29.5219 H   0  0  0  0  0  0  0  0  0  0  0  0
  110.0133   65.5550   31.2772 H   0  0  0  0  0  0  0  0  0  0  0  0
  1  2  1  0
  2  3  1  0
  2 25  1  0
  2 26  1  0
  3  7  1  0
  3  4  1  0
  3 27  1  1
  4  5  1  0
  4 28  1  0
  4 29  1  0
  5  6  2  0
  5  1  1  0
  7  8  2  0
  8  9  1  0
  9 10  2  0
 10 11  1  0
 10 30  1  0
 11 12  2  0
 11 31  1  0
 12 13  1  0
 12 32  1  0
 13 14  2  0
 13 33  1  0
 14 15  1  0
 14  9  1  0
 15 16  1  0
 15  7  1  0
 16 34  1  0
 16 35  1  0
 16 36  1  0
 17 18  1  0
 17 37  1  0
 17 38  1  0
 17 39  1  0
 18 19  2  0
 19 20  1  0
 19 21  1  0
 21 22  2  0
 21 40  1  0
 22 23  1  0
 22 41  1  0
 23 24  2  0
 23 42  1  0
 24  1  1  0
 24 18  1  0
M  END
>  <minimizedAffinity>  (10) 
-8.48952

>  <mol_id>  (10) 
134127

>  <source_index>  (10) 
9

>  <layer>  (10) 
L1

>  <uniprot>  (10) 
Q6GI75

>  <paff>  (10) 
6.3674999999999997

>  <smiles>  (10) 
Cc1c(Cl)cccc1N1CC(c2nc3ccccc3n2C)CC1=O

$$$$
