L2:Q8NER1:27152
     RDKit          3D

 61 64  0  0  0  0  0  0  0  0999 V2000
  141.0747  151.6858  171.0684 N   0  0  0  0  0  0  0  0  0  0  0  0
  141.8409  152.4780  170.2903 C   0  0  0  0  0  0  0  0  0  0  0  0
  142.0162  152.3006  169.0887 O   0  0  0  0  0  0  0  0  0  0  0  0
  141.2189  151.7803  172.0609 H   0  0  0  0  0  0  0  0  0  0  0  0
  142.4176  153.6615  171.0778 C   0  0  0  0  0  0  0  0  0  0  0  0
  143.5183  154.3455  170.2770 C   0  0  0  0  0  0  0  0  0  0  0  0
  142.9935  155.5205  169.4843 C   0  0  0  0  0  0  0  0  0  0  0  0
  142.5040  156.6190  170.4270 C   0  0  0  0  0  0  0  0  0  0  0  0
  141.8385  156.0312  171.6738 C   0  0  0  0  0  0  0  0  0  0  0  0
  141.2892  154.6553  171.3724 C   0  0  0  0  0  0  0  0  0  0  0  0
  142.9572  153.1422  172.3569 N   0  0  0  0  0  0  0  0  0  0  0  0
  143.9973  152.2903  172.3062 C   0  0  0  0  0  0  0  0  0  0  0  0
  144.3720  151.6813  171.3285 O   0  0  0  0  0  0  0  0  0  0  0  0
  142.8146  153.6416  173.2247 H   0  0  0  0  0  0  0  0  0  0  0  0
  144.6168  152.1555  173.5412 O   0  0  0  0  0  0  0  0  0  0  0  0
  145.9823  151.9543  173.5325 C   0  0  0  0  0  0  0  0  0  0  0  0
  146.5109  150.9728  174.3569 C   0  0  0  0  0  0  0  0  0  0  0  0
  147.8887  150.9148  174.5140 C   0  0  0  0  0  0  0  0  0  0  0  0
  148.7271  151.7771  173.8293 C   0  0  0  0  0  0  0  0  0  0  0  0
  148.1849  152.6846  172.9345 C   0  0  0  0  0  0  0  0  0  0  0  0
  146.8145  152.7593  172.7702 C   0  0  0  0  0  0  0  0  0  0  0  0
  140.3540  150.5405  170.5840 C   0  0  0  0  0  0  0  0  0  0  0  0
  139.6309  149.8736  171.7426 C   0  0  0  0  0  0  0  0  0  0  0  0
  144.1000  148.4847  172.5099 C   0  0  0  0  0  0  0  0  0  0  0  0
  144.3820  148.3776  173.8787 C   0  0  0  0  0  0  0  0  0  0  0  0
  143.4335  148.6960  174.8309 C   0  0  0  0  0  0  0  0  0  0  0  0
  142.1689  149.0830  174.4050 C   0  0  0  0  0  0  0  0  0  0  0  0
  141.0351  149.4385  175.1099 N   0  0  0  0  0  0  0  0  0  0  0  0
  140.0345  149.7652  174.2292 C   0  0  0  0  0  0  0  0  0  0  0  0
  140.4814  149.6185  172.9415 C   0  0  0  0  0  0  0  0  0  0  0  0
  141.8563  149.1946  173.0233 C   0  0  0  0  0  0  0  0  0  0  0  0
  142.8563  148.9211  172.0784 C   0  0  0  0  0  0  0  0  0  0  0  0
  140.8835  149.3927  176.1026 H   0  0  0  0  0  0  0  0  0  0  0  0
  145.2842  148.8388  170.4640 C   0  0  0  0  0  0  0  0  0  0  0  0
  145.1109  148.0927  171.6682 O   0  0  0  0  0  0  0  0  0  0  0  0
  143.9467  153.5883  169.6343 H   0  0  0  0  0  0  0  0  0  0  0  0
  144.3046  154.6944  170.9471 H   0  0  0  0  0  0  0  0  0  0  0  0
  142.1938  155.1876  168.8220 H   0  0  0  0  0  0  0  0  0  0  0  0
  143.7766  155.8949  168.8318 H   0  0  0  0  0  0  0  0  0  0  0  0
  141.8114  157.2657  169.8893 H   0  0  0  0  0  0  0  0  0  0  0  0
  143.3471  157.2385  170.7302 H   0  0  0  0  0  0  0  0  0  0  0  0
  141.0489  156.6838  172.0461 H   0  0  0  0  0  0  0  0  0  0  0  0
  142.5708  155.9513  172.4821 H   0  0  0  0  0  0  0  0  0  0  0  0
  140.6374  154.7089  170.4992 H   0  0  0  0  0  0  0  0  0  0  0  0
  140.6639  154.2701  172.1690 H   0  0  0  0  0  0  0  0  0  0  0  0
  145.8633  150.2622  174.8461 H   0  0  0  0  0  0  0  0  0  0  0  0
  148.3260  150.1712  175.1659 H   0  0  0  0  0  0  0  0  0  0  0  0
  149.7966  151.7503  174.0027 H   0  0  0  0  0  0  0  0  0  0  0  0
  148.8254  153.3266  172.3486 H   0  0  0  0  0  0  0  0  0  0  0  0
  146.3880  153.4123  172.0248 H   0  0  0  0  0  0  0  0  0  0  0  0
  139.6427  150.8767  169.8283 H   0  0  0  0  0  0  0  0  0  0  0  0
  141.0264  149.8553  170.0674 H   0  0  0  0  0  0  0  0  0  0  0  0
  138.8033  150.5206  172.0422 H   0  0  0  0  0  0  0  0  0  0  0  0
  139.1639  148.9536  171.4023 H   0  0  0  0  0  0  0  0  0  0  0  0
  145.3745  148.0513  174.1642 H   0  0  0  0  0  0  0  0  0  0  0  0
  143.6829  148.6495  175.8760 H   0  0  0  0  0  0  0  0  0  0  0  0
  139.0749  150.0797  174.5911 H   0  0  0  0  0  0  0  0  0  0  0  0
  142.6919  149.1015  171.0310 H   0  0  0  0  0  0  0  0  0  0  0  0
  146.0091  148.2885  169.8730 H   0  0  0  0  0  0  0  0  0  0  0  0
  145.6403  149.8404  170.6726 H   0  0  0  0  0  0  0  0  0  0  0  0
  144.3653  148.9152  169.8896 H   0  0  0  0  0  0  0  0  0  0  0  0
  1  2  1  0
  1  4  1  0
  2  3  2  0
  2  5  1  0
  5 11  1  0
  5  6  1  0
  6  7  1  0
  6 36  1  0
  6 37  1  0
  7  8  1  0
  7 38  1  0
  7 39  1  0
  8  9  1  0
  8 40  1  0
  8 41  1  0
  9 10  1  0
  9 42  1  0
  9 43  1  0
 10  5  1  0
 10 44  1  0
 10 45  1  0
 11 12  1  0
 11 14  1  0
 12 13  2  0
 12 15  1  0
 15 16  1  0
 16 17  2  0
 17 18  1  0
 17 46  1  0
 18 19  2  0
 18 47  1  0
 19 20  1  0
 19 48  1  0
 20 21  2  0
 20 49  1  0
 21 16  1  0
 21 50  1  0
 22  1  1  0
 22 51  1  0
 22 52  1  0
 23 22  1  0
 23 53  1  0
 23 54  1  0
 24 25  2  0
 25 26  1  0
 25 55  1  0
 26 27  2  0
 26 56  1  0
 27 28  1  0
 28 29  1  0
 28 33  1  0
 29 30  2  0
 29 57  1  0
 30 23  1  0
 30 31  1  0
 31 32  2  0
 31 27  1  0
 32 24  1  0
 32 58  1  0
 34 35  1  0
 34 59  1  0
 34 60  1  0
 34 61  1  0
 35 24  1  0
M  END
>  <minimizedAffinity>  (1) 
-9.63657

>  <mol_id>  (1) 
27152

>  <source_index>  (1) 
0

>  <layer>  (1) 
L2

>  <uniprot>  (1) 
Q8NER1

>  <paff>  (1) 
7.0223000000000004

>  <smiles>  (1) 
COc1ccc2[nH]cc(CCNC(=O)C3(NC(=O)Oc4ccccc4)CCCCC3)c2c1

>  <aimnet_interaction_kcal_mol>  (1) 
-55.595901400619105

$$$$
L2:Q8NER1:35078
     RDKit          3D

 57 60  0  0  0  0  0  0  0  0999 V2000
  143.0110  154.2673  170.8586 C   0  0  0  0  0  0  0  0  0  0  0  0
  143.4182  155.6319  170.3110 C   0  0  0  0  0  0  0  0  0  0  0  0
  142.2252  156.4695  169.8686 C   0  0  0  0  0  0  0  0  0  0  0  0
  141.1862  156.5984  170.9655 C   0  0  0  0  0  0  0  0  0  0  0  0
  140.7702  155.2286  171.4609 C   0  0  0  0  0  0  0  0  0  0  0  0
  141.9764  154.4546  171.9670 C   0  0  0  0  0  0  0  0  0  0  0  0
  143.3811  151.7966  172.4564 O   0  0  0  0  0  0  0  0  0  0  0  0
  144.3082  152.4949  172.1009 C   0  0  0  0  0  0  0  0  0  0  0  0
  144.2430  153.6239  171.3832 N   0  0  0  0  0  0  0  0  0  0  0  0
  145.1234  154.0514  171.1392 H   0  0  0  0  0  0  0  0  0  0  0  0
  145.6168  152.1768  172.4247 O   0  0  0  0  0  0  0  0  0  0  0  0
  145.8806  150.8167  172.5015 C   0  0  0  0  0  0  0  0  0  0  0  0
  146.0016  150.2138  173.7393 C   0  0  0  0  0  0  0  0  0  0  0  0
  146.1737  148.8367  173.8056 C   0  0  0  0  0  0  0  0  0  0  0  0
  146.2780  148.0737  172.6528 C   0  0  0  0  0  0  0  0  0  0  0  0
  146.2544  148.7069  171.4193 C   0  0  0  0  0  0  0  0  0  0  0  0
  146.0748  150.0794  171.3415 C   0  0  0  0  0  0  0  0  0  0  0  0
  142.4591  153.3910  169.7162 C   0  0  0  0  0  0  0  0  0  0  0  0
  142.5018  153.7604  168.5424 O   0  0  0  0  0  0  0  0  0  0  0  0
  141.9640  152.2040  170.1099 N   0  0  0  0  0  0  0  0  0  0  0  0
  142.1482  151.9226  171.0635 H   0  0  0  0  0  0  0  0  0  0  0  0
  141.5323  151.1677  169.2050 C   0  0  0  0  0  0  0  0  0  0  0  0
  141.5877  149.8152  169.9192 C   0  0  0  0  0  0  0  0  0  0  0  0
  140.8126  149.8049  171.1892 C   0  0  0  0  0  0  0  0  0  0  0  0
  139.5366  150.2855  171.3873 C   0  0  0  0  0  0  0  0  0  0  0  0
  139.2673  150.3371  172.7363 N   0  0  0  0  0  0  0  0  0  0  0  0
  140.3401  149.8406  173.4353 C   0  0  0  0  0  0  0  0  0  0  0  0
  140.5812  149.7968  174.8026 C   0  0  0  0  0  0  0  0  0  0  0  0
  141.8069  149.3059  175.2140 C   0  0  0  0  0  0  0  0  0  0  0  0
  142.7592  148.8466  174.2959 C   0  0  0  0  0  0  0  0  0  0  0  0
  142.5137  148.8963  172.9350 C   0  0  0  0  0  0  0  0  0  0  0  0
  141.3170  149.4557  172.4814 C   0  0  0  0  0  0  0  0  0  0  0  0
  138.3587  150.4677  173.1406 H   0  0  0  0  0  0  0  0  0  0  0  0
  144.0993  155.4826  169.4769 H   0  0  0  0  0  0  0  0  0  0  0  0
  143.9650  156.1647  171.0889 H   0  0  0  0  0  0  0  0  0  0  0  0
  141.7848  156.0186  168.9819 H   0  0  0  0  0  0  0  0  0  0  0  0
  142.5750  157.4539  169.5699 H   0  0  0  0  0  0  0  0  0  0  0  0
  140.3215  157.1622  170.6105 H   0  0  0  0  0  0  0  0  0  0  0  0
  141.6110  157.1672  171.7988 H   0  0  0  0  0  0  0  0  0  0  0  0
  140.2884  154.6710  170.6530 H   0  0  0  0  0  0  0  0  0  0  0  0
  140.0325  155.3174  172.2545 H   0  0  0  0  0  0  0  0  0  0  0  0
  141.6932  153.4970  172.3878 H   0  0  0  0  0  0  0  0  0  0  0  0
  142.4542  154.9990  172.7827 H   0  0  0  0  0  0  0  0  0  0  0  0
  145.9706  150.8289  174.6262 H   0  0  0  0  0  0  0  0  0  0  0  0
  146.1969  148.3355  174.7587 H   0  0  0  0  0  0  0  0  0  0  0  0
  146.4094  147.0027  172.7175 H   0  0  0  0  0  0  0  0  0  0  0  0
  146.3967  148.1385  170.5073 H   0  0  0  0  0  0  0  0  0  0  0  0
  146.1570  150.5912  170.3980 H   0  0  0  0  0  0  0  0  0  0  0  0
  142.1857  151.1641  168.3361 H   0  0  0  0  0  0  0  0  0  0  0  0
  140.5257  151.3846  168.8393 H   0  0  0  0  0  0  0  0  0  0  0  0
  142.6377  149.6053  170.1336 H   0  0  0  0  0  0  0  0  0  0  0  0
  141.2584  149.0381  169.2289 H   0  0  0  0  0  0  0  0  0  0  0  0
  138.8034  150.6272  170.6747 H   0  0  0  0  0  0  0  0  0  0  0  0
  139.8612  150.1637  175.5156 H   0  0  0  0  0  0  0  0  0  0  0  0
  142.0336  149.2974  176.2731 H   0  0  0  0  0  0  0  0  0  0  0  0
  143.7181  148.5002  174.6519 H   0  0  0  0  0  0  0  0  0  0  0  0
  143.2535  148.5509  172.2265 H   0  0  0  0  0  0  0  0  0  0  0  0
  1 18  1  0
  1  2  1  0
  2  3  1  0
  2 34  1  0
  2 35  1  0
  3  4  1  0
  3 36  1  0
  3 37  1  0
  4  5  1  0
  4 38  1  0
  4 39  1  0
  5  6  1  0
  5 40  1  0
  5 41  1  0
  6  1  1  0
  6 42  1  0
  6 43  1  0
  7  8  2  0
  8  9  1  0
  8 11  1  0
  9  1  1  0
  9 10  1  0
 11 12  1  0
 12 13  2  0
 13 14  1  0
 13 44  1  0
 14 15  2  0
 14 45  1  0
 15 16  1  0
 15 46  1  0
 16 17  2  0
 16 47  1  0
 17 12  1  0
 17 48  1  0
 18 19  2  0
 18 20  1  0
 20 22  1  0
 20 21  1  0
 22 23  1  0
 22 49  1  0
 22 50  1  0
 23 24  1  0
 23 51  1  0
 23 52  1  0
 24 25  2  0
 25 26  1  0
 25 53  1  0
 26 27  1  0
 26 33  1  0
 27 28  2  0
 28 29  1  0
 28 54  1  0
 29 30  2  0
 29 55  1  0
 30 31  1  0
 30 56  1  0
 31 32  2  0
 31 57  1  0
 32 24  1  0
 32 27  1  0
M  END
>  <minimizedAffinity>  (2) 
-9.75623

>  <mol_id>  (2) 
35078

>  <source_index>  (2) 
1

>  <layer>  (2) 
L2

>  <uniprot>  (2) 
Q8NER1

>  <paff>  (2) 
6.6497999999999999

>  <smiles>  (2) 
O=C(NC1(C(=O)NCCc2c[nH]c3ccccc23)CCCCC1)Oc1ccccc1

>  <aimnet_interaction_kcal_mol>  (2) 
-49.084520563819325

$$$$
L2:Q8NER1:38542
     RDKit          3D

 65 68  0  0  0  0  0  0  0  0999 V2000
  138.5354  151.0672  172.4419 N   0  0  0  0  0  0  0  0  0  0  0  0
  138.0298  151.9584  171.5440 C   0  0  0  0  0  0  0  0  0  0  0  0
  138.4769  152.0948  170.4102 O   0  0  0  0  0  0  0  0  0  0  0  0
  136.9879  152.7553  172.0320 N   0  0  0  0  0  0  0  0  0  0  0  0
  138.1279  150.9856  173.3575 H   0  0  0  0  0  0  0  0  0  0  0  0
  136.3281  152.2798  172.6284 H   0  0  0  0  0  0  0  0  0  0  0  0
  136.3600  153.7406  171.1268 C   0  0  0  0  0  0  0  0  0  0  0  0
  135.3959  154.5980  171.9725 C   0  0  0  0  0  0  0  0  0  0  0  0
  134.4132  155.3377  171.0903 C   0  0  0  0  0  0  0  0  0  0  0  0
  133.4687  154.3515  170.3997 C   0  0  0  0  0  0  0  0  0  0  0  0
  134.1057  152.9681  170.2747 C   0  0  0  0  0  0  0  0  0  0  0  0
  135.5879  153.0887  169.9744 C   0  0  0  0  0  0  0  0  0  0  0  0
  137.4820  154.6652  170.6010 C   0  0  0  0  0  0  0  0  0  0  0  0
  137.5595  155.0872  169.4638 O   0  0  0  0  0  0  0  0  0  0  0  0
  138.3498  155.0226  171.5996 N   0  0  0  0  0  0  0  0  0  0  0  0
  138.1508  154.5830  172.4862 H   0  0  0  0  0  0  0  0  0  0  0  0
  139.6013  155.6208  171.3917 C   0  0  0  0  0  0  0  0  0  0  0  0
  140.0038  156.6856  172.1924 C   0  0  0  0  0  0  0  0  0  0  0  0
  141.3049  157.1559  172.1285 C   0  0  0  0  0  0  0  0  0  0  0  0
  142.2173  156.5621  171.2720 C   0  0  0  0  0  0  0  0  0  0  0  0
  141.7996  155.5127  170.4639 C   0  0  0  0  0  0  0  0  0  0  0  0
  140.4802  155.1000  170.4443 C   0  0  0  0  0  0  0  0  0  0  0  0
  142.8287  154.7735  169.6800 C   0  0  0  0  0  0  0  0  0  0  0  0
  143.8784  154.4173  170.4864 F   0  0  0  0  0  0  0  0  0  0  0  0
  142.3658  153.6216  169.1458 F   0  0  0  0  0  0  0  0  0  0  0  0
  143.3434  155.4996  168.6670 F   0  0  0  0  0  0  0  0  0  0  0  0
  139.4100  149.9860  172.0381 C   0  0  0  0  0  0  0  0  0  0  0  0
  140.4750  149.6947  173.0891 C   0  0  0  0  0  0  0  0  0  0  0  0
  144.8694  148.6171  173.8521 C   0  0  0  0  0  0  0  0  0  0  0  0
  145.7645  149.6416  173.5152 C   0  0  0  0  0  0  0  0  0  0  0  0
  145.3140  150.8707  173.0623 C   0  0  0  0  0  0  0  0  0  0  0  0
  143.9418  151.0489  172.9297 C   0  0  0  0  0  0  0  0  0  0  0  0
  143.2096  152.0842  172.4152 N   0  0  0  0  0  0  0  0  0  0  0  0
  141.8760  151.7520  172.4131 C   0  0  0  0  0  0  0  0  0  0  0  0
  141.7168  150.4926  172.9421 C   0  0  0  0  0  0  0  0  0  0  0  0
  143.0203  150.0287  173.2849 C   0  0  0  0  0  0  0  0  0  0  0  0
  143.5028  148.8214  173.7992 C   0  0  0  0  0  0  0  0  0  0  0  0
  143.5814  152.9507  172.0717 H   0  0  0  0  0  0  0  0  0  0  0  0
  145.6835  146.5226  173.1168 C   0  0  0  0  0  0  0  0  0  0  0  0
  145.3684  147.3690  174.2305 O   0  0  0  0  0  0  0  0  0  0  0  0
  135.9579  155.2858  172.6031 H   0  0  0  0  0  0  0  0  0  0  0  0
  134.8515  153.9461  172.6569 H   0  0  0  0  0  0  0  0  0  0  0  0
  134.9716  155.9068  170.3481 H   0  0  0  0  0  0  0  0  0  0  0  0
  133.8509  156.0623  171.6784 H   0  0  0  0  0  0  0  0  0  0  0  0
  133.2224  154.7279  169.4062 H   0  0  0  0  0  0  0  0  0  0  0  0
  132.5292  154.2717  170.9497 H   0  0  0  0  0  0  0  0  0  0  0  0
  133.6116  152.4043  169.4870 H   0  0  0  0  0  0  0  0  0  0  0  0
  133.9525  152.3924  171.1890 H   0  0  0  0  0  0  0  0  0  0  0  0
  135.7238  153.7197  169.1010 H   0  0  0  0  0  0  0  0  0  0  0  0
  136.0206  152.1216  169.7370 H   0  0  0  0  0  0  0  0  0  0  0  0
  139.2939  157.1609  172.8555 H   0  0  0  0  0  0  0  0  0  0  0  0
  141.5988  157.9891  172.7495 H   0  0  0  0  0  0  0  0  0  0  0  0
  143.2431  156.9014  171.2312 H   0  0  0  0  0  0  0  0  0  0  0  0
  140.1413  154.3664  169.7296 H   0  0  0  0  0  0  0  0  0  0  0  0
  138.8055  149.0984  171.8540 H   0  0  0  0  0  0  0  0  0  0  0  0
  139.8743  150.2646  171.0984 H   0  0  0  0  0  0  0  0  0  0  0  0
  140.0565  149.8292  174.0902 H   0  0  0  0  0  0  0  0  0  0  0  0
  140.7423  148.6402  173.0294 H   0  0  0  0  0  0  0  0  0  0  0  0
  146.8291  149.4489  173.5870 H   0  0  0  0  0  0  0  0  0  0  0  0
  146.0115  151.6489  172.7861 H   0  0  0  0  0  0  0  0  0  0  0  0
  141.1391  152.4250  172.0101 H   0  0  0  0  0  0  0  0  0  0  0  0
  142.8148  148.0620  174.1446 H   0  0  0  0  0  0  0  0  0  0  0  0
  145.2212  145.5515  173.2727 H   0  0  0  0  0  0  0  0  0  0  0  0
  146.7632  146.4182  173.0335 H   0  0  0  0  0  0  0  0  0  0  0  0
  145.2922  146.9459  172.1876 H   0  0  0  0  0  0  0  0  0  0  0  0
  1  2  1  0
  1  5  1  0
  2  3  2  0
  2  4  1  0
  4  7  1  0
  4  6  1  0
  7 13  1  0
  7  8  1  0
  8  9  1  0
  8 41  1  0
  8 42  1  0
  9 10  1  0
  9 43  1  0
  9 44  1  0
 10 11  1  0
 10 45  1  0
 10 46  1  0
 11 12  1  0
 11 47  1  0
 11 48  1  0
 12  7  1  0
 12 49  1  0
 12 50  1  0
 13 14  2  0
 13 15  1  0
 15 17  1  0
 15 16  1  0
 17 18  2  0
 18 19  1  0
 18 51  1  0
 19 20  2  0
 19 52  1  0
 20 21  1  0
 20 53  1  0
 21 23  1  0
 21 22  2  0
 22 17  1  0
 22 54  1  0
 23 24  1  0
 23 25  1  0
 23 26  1  0
 27  1  1  0
 27 55  1  0
 27 56  1  0
 28 27  1  0
 28 57  1  0
 28 58  1  0
 29 30  2  0
 30 31  1  0
 30 59  1  0
 31 32  2  0
 31 60  1  0
 32 33  1  0
 33 34  1  0
 33 38  1  0
 34 35  2  0
 34 61  1  0
 35 28  1  0
 35 36  1  0
 36 37  2  0
 36 32  1  0
 37 29  1  0
 37 62  1  0
 39 40  1  0
 39 63  1  0
 39 64  1  0
 39 65  1  0
 40 29  1  0
M  END
>  <minimizedAffinity>  (3) 
-10.16139

>  <mol_id>  (3) 
38542

>  <source_index>  (3) 
2

>  <layer>  (3) 
L2

>  <uniprot>  (3) 
Q8NER1

>  <paff>  (3) 
6.1593

>  <smiles>  (3) 
COc1ccc2[nH]cc(CCNC(=O)NC3(C(=O)Nc4cccc(C(F)(F)F)c4)CCCCC3)c2c1

>  <aimnet_interaction_kcal_mol>  (3) 
-52.75258326300775

$$$$
L2:Q8NER1:52263
     RDKit          3D

 58 61  0  0  0  0  0  0  0  0999 V2000
  143.2415  151.7178  170.4040 O   0  0  0  0  0  0  0  0  0  0  0  0
  142.1765  151.6449  169.8032 C   0  0  0  0  0  0  0  0  0  0  0  0
  141.8122  150.5329  169.0764 N   0  0  0  0  0  0  0  0  0  0  0  0
  141.2213  152.6374  169.7395 N   0  0  0  0  0  0  0  0  0  0  0  0
  140.8287  150.3941  168.9077 H   0  0  0  0  0  0  0  0  0  0  0  0
  140.6923  152.6063  168.8797 H   0  0  0  0  0  0  0  0  0  0  0  0
  141.4730  154.0251  170.1563 C   0  0  0  0  0  0  0  0  0  0  0  0
  141.9219  154.1067  171.6187 C   0  0  0  0  0  0  0  0  0  0  0  0
  141.9696  155.5592  172.0743 C   0  0  0  0  0  0  0  0  0  0  0  0
  142.6032  156.4682  171.0188 C   0  0  0  0  0  0  0  0  0  0  0  0
  143.4129  155.6496  170.0331 C   0  0  0  0  0  0  0  0  0  0  0  0
  142.5306  154.6799  169.2607 C   0  0  0  0  0  0  0  0  0  0  0  0
  140.0979  154.7240  170.0415 C   0  0  0  0  0  0  0  0  0  0  0  0
  139.9225  155.8265  169.5556 O   0  0  0  0  0  0  0  0  0  0  0  0
  139.0607  153.9662  170.5428 N   0  0  0  0  0  0  0  0  0  0  0  0
  139.2802  152.9995  170.7359 H   0  0  0  0  0  0  0  0  0  0  0  0
  137.7718  154.4326  170.8255 C   0  0  0  0  0  0  0  0  0  0  0  0
  137.5476  155.7350  171.2745 C   0  0  0  0  0  0  0  0  0  0  0  0
  136.2632  156.1394  171.5934 C   0  0  0  0  0  0  0  0  0  0  0  0
  135.1785  155.2847  171.4404 C   0  0  0  0  0  0  0  0  0  0  0  0
  135.4184  154.0034  170.9746 C   0  0  0  0  0  0  0  0  0  0  0  0
  133.9224  152.8354  170.7012 Br  0  0  0  0  0  0  0  0  0  0  0  0
  136.6942  153.5529  170.6837 C   0  0  0  0  0  0  0  0  0  0  0  0
  142.5821  149.3184  169.1870 C   0  0  0  0  0  0  0  0  0  0  0  0
  142.1169  148.4377  170.3312 C   0  0  0  0  0  0  0  0  0  0  0  0
  142.6591  148.7707  171.6630 C   0  0  0  0  0  0  0  0  0  0  0  0
  143.9513  148.6875  172.1017 C   0  0  0  0  0  0  0  0  0  0  0  0
  143.9931  148.8986  173.4733 N   0  0  0  0  0  0  0  0  0  0  0  0
  142.7166  149.2007  173.9166 C   0  0  0  0  0  0  0  0  0  0  0  0
  142.2153  149.4388  175.1906 C   0  0  0  0  0  0  0  0  0  0  0  0
  140.8614  149.6916  175.3225 C   0  0  0  0  0  0  0  0  0  0  0  0
  140.0212  149.7315  174.2050 C   0  0  0  0  0  0  0  0  0  0  0  0
  140.5109  149.4653  172.9419 C   0  0  0  0  0  0  0  0  0  0  0  0
  141.8631  149.1512  172.7896 C   0  0  0  0  0  0  0  0  0  0  0  0
  144.8307  149.2210  173.9264 H   0  0  0  0  0  0  0  0  0  0  0  0
  142.8979  153.6428  171.7048 H   0  0  0  0  0  0  0  0  0  0  0  0
  141.2538  153.5151  172.2383 H   0  0  0  0  0  0  0  0  0  0  0  0
  142.5196  155.6036  173.0117 H   0  0  0  0  0  0  0  0  0  0  0  0
  140.9613  155.9050  172.3037 H   0  0  0  0  0  0  0  0  0  0  0  0
  143.2375  157.2098  171.4887 H   0  0  0  0  0  0  0  0  0  0  0  0
  141.8335  157.0063  170.4729 H   0  0  0  0  0  0  0  0  0  0  0  0
  144.2030  155.1104  170.5598 H   0  0  0  0  0  0  0  0  0  0  0  0
  143.9342  156.2908  169.3301 H   0  0  0  0  0  0  0  0  0  0  0  0
  143.1624  153.8977  168.8406 H   0  0  0  0  0  0  0  0  0  0  0  0
  142.0416  155.1785  168.4276 H   0  0  0  0  0  0  0  0  0  0  0  0
  138.3831  156.4113  171.3598 H   0  0  0  0  0  0  0  0  0  0  0  0
  136.0948  157.1438  171.9583 H   0  0  0  0  0  0  0  0  0  0  0  0
  134.1765  155.6098  171.6716 H   0  0  0  0  0  0  0  0  0  0  0  0
  136.8504  152.5391  170.3408 H   0  0  0  0  0  0  0  0  0  0  0  0
  143.6246  149.5866  169.3040 H   0  0  0  0  0  0  0  0  0  0  0  0
  142.5010  148.7833  168.2455 H   0  0  0  0  0  0  0  0  0  0  0  0
  142.3401  147.4015  170.0932 H   0  0  0  0  0  0  0  0  0  0  0  0
  141.0326  148.4972  170.3785 H   0  0  0  0  0  0  0  0  0  0  0  0
  144.8622  148.5161  171.5540 H   0  0  0  0  0  0  0  0  0  0  0  0
  142.8566  149.3863  176.0535 H   0  0  0  0  0  0  0  0  0  0  0  0
  140.4272  149.8629  176.2992 H   0  0  0  0  0  0  0  0  0  0  0  0
  138.9777  149.9698  174.3497 H   0  0  0  0  0  0  0  0  0  0  0  0
  139.8569  149.5164  172.0810 H   0  0  0  0  0  0  0  0  0  0  0  0
  1  2  2  0
  2  3  1  0
  2  4  1  0
  3 24  1  0
  3  5  1  0
  4  7  1  0
  4  6  1  0
  7 13  1  0
  7  8  1  0
  8  9  1  0
  8 36  1  0
  8 37  1  0
  9 10  1  0
  9 38  1  0
  9 39  1  0
 10 11  1  0
 10 40  1  0
 10 41  1  0
 11 12  1  0
 11 42  1  0
 11 43  1  0
 12  7  1  0
 12 44  1  0
 12 45  1  0
 13 14  2  0
 13 15  1  0
 15 17  1  0
 15 16  1  0
 17 18  2  0
 18 19  1  0
 18 46  1  0
 19 20  2  0
 19 47  1  0
 20 21  1  0
 20 48  1  0
 21 22  1  0
 21 23  2  0
 23 17  1  0
 23 49  1  0
 24 25  1  0
 24 50  1  0
 24 51  1  0
 25 26  1  0
 25 52  1  0
 25 53  1  0
 26 27  2  0
 27 28  1  0
 27 54  1  0
 28 29  1  0
 28 35  1  0
 29 30  2  0
 30 31  1  0
 30 55  1  0
 31 32  2  0
 31 56  1  0
 32 33  1  0
 32 57  1  0
 33 34  2  0
 33 58  1  0
 34 26  1  0
 34 29  1  0
M  END
>  <minimizedAffinity>  (4) 
-9.54419

>  <mol_id>  (4) 
52263

>  <source_index>  (4) 
3

>  <layer>  (4) 
L2

>  <uniprot>  (4) 
Q8NER1

>  <paff>  (4) 
6.1661999999999999

>  <smiles>  (4) 
O=C(NCCc1c[nH]c2ccccc12)NC1(C(=O)Nc2cccc(Br)c2)CCCCC1

>  <aimnet_interaction_kcal_mol>  (4) 
-40.859975240215448

$$$$
L2:Q8NER1:62450
     RDKit          3D

 62 65  0  0  0  0  0  0  0  0999 V2000
  141.9116  153.5938  170.5701 C   0  0  0  0  0  0  0  0  0  0  0  0
  142.8136  154.2868  169.5389 C   0  0  0  0  0  0  0  0  0  0  0  0
  143.5410  155.4874  170.1170 C   0  0  0  0  0  0  0  0  0  0  0  0
  142.6107  156.3745  170.9245 C   0  0  0  0  0  0  0  0  0  0  0  0
  141.9895  155.6004  172.0930 C   0  0  0  0  0  0  0  0  0  0  0  0
  142.2113  154.0980  171.9781 C   0  0  0  0  0  0  0  0  0  0  0  0
  142.0624  152.1196  170.4849 N   0  0  0  0  0  0  0  0  0  0  0  0
  143.2187  151.4531  170.8513 C   0  0  0  0  0  0  0  0  0  0  0  0
  144.0681  151.8781  171.6204 O   0  0  0  0  0  0  0  0  0  0  0  0
  143.3591  150.2250  170.2203 N   0  0  0  0  0  0  0  0  0  0  0  0
  141.6812  151.7686  169.6155 H   0  0  0  0  0  0  0  0  0  0  0  0
  142.5132  149.7248  170.0027 H   0  0  0  0  0  0  0  0  0  0  0  0
  144.5154  149.3918  170.4717 C   0  0  0  0  0  0  0  0  0  0  0  0
  144.2207  148.1654  171.3264 C   0  0  0  0  0  0  0  0  0  0  0  0
  143.9037  148.4715  172.7371 C   0  0  0  0  0  0  0  0  0  0  0  0
  144.7675  148.4587  173.7949 C   0  0  0  0  0  0  0  0  0  0  0  0
  144.0880  148.8215  174.9534 N   0  0  0  0  0  0  0  0  0  0  0  0
  142.7771  149.1404  174.6177 C   0  0  0  0  0  0  0  0  0  0  0  0
  141.7270  149.6196  175.3910 C   0  0  0  0  0  0  0  0  0  0  0  0
  140.5303  149.8986  174.7563 C   0  0  0  0  0  0  0  0  0  0  0  0
  140.3603  149.6562  173.3901 C   0  0  0  0  0  0  0  0  0  0  0  0
  141.3901  149.1332  172.6327 C   0  0  0  0  0  0  0  0  0  0  0  0
  142.6290  148.8991  173.2330 C   0  0  0  0  0  0  0  0  0  0  0  0
  144.5749  149.2710  175.7107 H   0  0  0  0  0  0  0  0  0  0  0  0
  139.5594  152.9993  170.8450 N   0  0  0  0  0  0  0  0  0  0  0  0
  140.4265  153.9005  170.2909 C   0  0  0  0  0  0  0  0  0  0  0  0
  140.0503  154.8747  169.6594 O   0  0  0  0  0  0  0  0  0  0  0  0
  139.9939  152.1872  171.2640 H   0  0  0  0  0  0  0  0  0  0  0  0
  135.3801  153.4126  170.8556 C   0  0  0  0  0  0  0  0  0  0  0  0
  135.9689  152.1881  170.5570 C   0  0  0  0  0  0  0  0  0  0  0  0
  137.3426  152.0583  170.5605 C   0  0  0  0  0  0  0  0  0  0  0  0
  138.1605  153.1526  170.8419 C   0  0  0  0  0  0  0  0  0  0  0  0
  137.5673  154.3800  171.1204 C   0  0  0  0  0  0  0  0  0  0  0  0
  136.1870  154.5075  171.1445 C   0  0  0  0  0  0  0  0  0  0  0  0
  133.3781  154.6734  171.1222 C   0  0  0  0  0  0  0  0  0  0  0  0
  134.0064  153.4372  170.8403 O   0  0  0  0  0  0  0  0  0  0  0  0
  142.2169  154.5828  168.6800 H   0  0  0  0  0  0  0  0  0  0  0  0
  143.5540  153.5723  169.1827 H   0  0  0  0  0  0  0  0  0  0  0  0
  144.0046  156.0448  169.3081 H   0  0  0  0  0  0  0  0  0  0  0  0
  144.3690  155.1499  170.7415 H   0  0  0  0  0  0  0  0  0  0  0  0
  141.8324  156.7496  170.2614 H   0  0  0  0  0  0  0  0  0  0  0  0
  143.1625  157.2370  171.2888 H   0  0  0  0  0  0  0  0  0  0  0  0
  140.9205  155.8060  172.1576 H   0  0  0  0  0  0  0  0  0  0  0  0
  142.4175  155.9254  173.0427 H   0  0  0  0  0  0  0  0  0  0  0  0
  141.6031  153.5515  172.6900 H   0  0  0  0  0  0  0  0  0  0  0  0
  143.2332  153.8460  172.2260 H   0  0  0  0  0  0  0  0  0  0  0  0
  145.2620  150.0052  170.9677 H   0  0  0  0  0  0  0  0  0  0  0  0
  144.9293  149.0835  169.5136 H   0  0  0  0  0  0  0  0  0  0  0  0
  145.0771  147.4880  171.2752 H   0  0  0  0  0  0  0  0  0  0  0  0
  143.3821  147.6270  170.8821 H   0  0  0  0  0  0  0  0  0  0  0  0
  145.8220  148.2327  173.8158 H   0  0  0  0  0  0  0  0  0  0  0  0
  141.8130  149.7689  176.4556 H   0  0  0  0  0  0  0  0  0  0  0  0
  139.7102  150.3039  175.3321 H   0  0  0  0  0  0  0  0  0  0  0  0
  139.4024  149.8718  172.9356 H   0  0  0  0  0  0  0  0  0  0  0  0
  141.2274  148.8765  171.5948 H   0  0  0  0  0  0  0  0  0  0  0  0
  135.3440  151.3346  170.3451 H   0  0  0  0  0  0  0  0  0  0  0  0
  137.7833  151.0989  170.3214 H   0  0  0  0  0  0  0  0  0  0  0  0
  138.1885  155.2439  171.3022 H   0  0  0  0  0  0  0  0  0  0  0  0
  135.7604  155.4712  171.3799 H   0  0  0  0  0  0  0  0  0  0  0  0
  132.3093  154.4880  171.0598 H   0  0  0  0  0  0  0  0  0  0  0  0
  133.6520  155.4403  170.3933 H   0  0  0  0  0  0  0  0  0  0  0  0
  133.6188  155.0251  172.1294 H   0  0  0  0  0  0  0  0  0  0  0  0
  1  7  1  0
  1  2  1  0
  2  3  1  0
  2 37  1  0
  2 38  1  0
  3  4  1  0
  3 39  1  0
  3 40  1  0
  4  5  1  0
  4 41  1  0
  4 42  1  0
  5  6  1  0
  5 43  1  0
  5 44  1  0
  6  1  1  0
  6 45  1  0
  6 46  1  0
  7  8  1  0
  7 11  1  0
  8  9  2  0
  8 10  1  0
 10 13  1  0
 10 12  1  0
 13 14  1  0
 13 47  1  0
 13 48  1  0
 14 15  1  0
 14 49  1  0
 14 50  1  0
 15 16  2  0
 16 17  1  0
 16 51  1  0
 17 18  1  0
 17 24  1  0
 18 19  2  0
 19 20  1  0
 19 52  1  0
 20 21  2  0
 20 53  1  0
 21 22  1  0
 21 54  1  0
 22 23  2  0
 22 55  1  0
 23 15  1  0
 23 18  1  0
 25 26  1  0
 25 28  1  0
 26 27  2  0
 26  1  1  0
 29 30  2  0
 30 31  1  0
 30 56  1  0
 31 32  2  0
 31 57  1  0
 32 25  1  0
 32 33  1  0
 33 34  2  0
 33 58  1  0
 34 29  1  0
 34 59  1  0
 35 36  1  0
 35 60  1  0
 35 61  1  0
 35 62  1  0
 36 29  1  0
M  END
>  <minimizedAffinity>  (5) 
-9.50760

>  <mol_id>  (5) 
62450

>  <source_index>  (5) 
4

>  <layer>  (5) 
L2

>  <uniprot>  (5) 
Q8NER1

>  <paff>  (5) 
6.0297000000000001

>  <smiles>  (5) 
COc1ccc(NC(=O)C2(NC(=O)NCCc3c[nH]c4ccccc34)CCCCC2)cc1

>  <aimnet_interaction_kcal_mol>  (5) 
-39.72305360014127

$$$$
L2:Q8NER1:119254
     RDKit          3D

 50 52  0  0  0  0  0  0  0  0999 V2000
  144.7670  150.1892  172.7503 C   0  0  0  0  0  0  0  0  0  0  0  0
  143.8045  150.6424  173.8579 C   0  0  0  0  0  0  0  0  0  0  0  0
  142.3528  150.3525  173.5414 C   0  0  0  0  0  0  0  0  0  0  0  0
  142.1474  148.8690  173.2906 C   0  0  0  0  0  0  0  0  0  0  0  0
  143.0828  148.3467  172.2105 C   0  0  0  0  0  0  0  0  0  0  0  0
  144.5412  148.6963  172.4834 C   0  0  0  0  0  0  0  0  0  0  0  0
  144.9801  153.0853  172.0730 O   0  0  0  0  0  0  0  0  0  0  0  0
  144.2955  152.2690  171.5023 C   0  0  0  0  0  0  0  0  0  0  0  0
  144.5357  150.9206  171.4970 N   0  0  0  0  0  0  0  0  0  0  0  0
  143.9483  150.4176  170.8509 H   0  0  0  0  0  0  0  0  0  0  0  0
  143.2112  152.5865  170.7469 O   0  0  0  0  0  0  0  0  0  0  0  0
  142.7957  153.9286  170.8073 C   0  0  0  0  0  0  0  0  0  0  0  0
  142.3455  154.4669  171.9986 C   0  0  0  0  0  0  0  0  0  0  0  0
  141.8762  155.7712  172.0050 C   0  0  0  0  0  0  0  0  0  0  0  0
  141.8700  156.5243  170.8398 C   0  0  0  0  0  0  0  0  0  0  0  0
  142.3298  155.9619  169.6575 C   0  0  0  0  0  0  0  0  0  0  0  0
  142.7975  154.6557  169.6389 C   0  0  0  0  0  0  0  0  0  0  0  0
  146.1849  150.3834  173.2979 C   0  0  0  0  0  0  0  0  0  0  0  0
  146.5529  149.7079  174.2645 O   0  0  0  0  0  0  0  0  0  0  0  0
  146.9677  151.2928  172.6798 N   0  0  0  0  0  0  0  0  0  0  0  0
  146.6287  151.6727  171.8060 H   0  0  0  0  0  0  0  0  0  0  0  0
  148.2050  151.7897  173.1299 C   0  0  0  0  0  0  0  0  0  0  0  0
  149.0841  152.3075  172.1796 C   0  0  0  0  0  0  0  0  0  0  0  0
  150.3632  152.6804  172.5631 C   0  0  0  0  0  0  0  0  0  0  0  0
  150.7732  152.5601  173.8776 C   0  0  0  0  0  0  0  0  0  0  0  0
  149.8692  152.1037  174.8273 C   0  0  0  0  0  0  0  0  0  0  0  0
  148.5710  151.7610  174.4726 C   0  0  0  0  0  0  0  0  0  0  0  0
  150.2926  151.9586  176.2532 C   0  0  0  0  0  0  0  0  0  0  0  0
  151.5669  152.3906  176.4728 F   0  0  0  0  0  0  0  0  0  0  0  0
  150.2966  150.6153  176.6286 F   0  0  0  0  0  0  0  0  0  0  0  0
  149.4992  152.5803  177.1293 F   0  0  0  0  0  0  0  0  0  0  0  0
  143.9558  151.6965  174.0617 H   0  0  0  0  0  0  0  0  0  0  0  0
  144.0847  150.0872  174.7523 H   0  0  0  0  0  0  0  0  0  0  0  0
  142.0283  150.9261  172.6741 H   0  0  0  0  0  0  0  0  0  0  0  0
  141.7350  150.6815  174.3745 H   0  0  0  0  0  0  0  0  0  0  0  0
  141.1081  148.6704  173.0325 H   0  0  0  0  0  0  0  0  0  0  0  0
  142.3430  148.3329  174.2211 H   0  0  0  0  0  0  0  0  0  0  0  0
  142.7700  148.7503  171.2440 H   0  0  0  0  0  0  0  0  0  0  0  0
  142.9970  147.2654  172.1194 H   0  0  0  0  0  0  0  0  0  0  0  0
  145.1715  148.3770  171.6502 H   0  0  0  0  0  0  0  0  0  0  0  0
  144.8857  148.1520  173.3618 H   0  0  0  0  0  0  0  0  0  0  0  0
  142.3915  153.8900  172.9103 H   0  0  0  0  0  0  0  0  0  0  0  0
  141.5217  156.1974  172.9347 H   0  0  0  0  0  0  0  0  0  0  0  0
  141.5150  157.5455  170.8526 H   0  0  0  0  0  0  0  0  0  0  0  0
  142.3302  156.5403  168.7450 H   0  0  0  0  0  0  0  0  0  0  0  0
  143.1701  154.2095  168.7283 H   0  0  0  0  0  0  0  0  0  0  0  0
  148.7636  152.4156  171.1490 H   0  0  0  0  0  0  0  0  0  0  0  0
  151.0349  153.0885  171.8215 H   0  0  0  0  0  0  0  0  0  0  0  0
  151.7662  152.8573  174.1700 H   0  0  0  0  0  0  0  0  0  0  0  0
  147.8394  151.4997  175.2190 H   0  0  0  0  0  0  0  0  0  0  0  0
  1 18  1  0
  1  2  1  0
  2  3  1  0
  2 32  1  0
  2 33  1  0
  3  4  1  0
  3 34  1  0
  3 35  1  0
  4  5  1  0
  4 36  1  0
  4 37  1  0
  5  6  1  0
  5 38  1  0
  5 39  1  0
  6  1  1  0
  6 40  1  0
  6 41  1  0
  7  8  2  0
  8  9  1  0
  8 11  1  0
  9  1  1  0
  9 10  1  0
 11 12  1  0
 12 13  2  0
 13 14  1  0
 13 42  1  0
 14 15  2  0
 14 43  1  0
 15 16  1  0
 15 44  1  0
 16 17  2  0
 16 45  1  0
 17 12  1  0
 17 46  1  0
 18 19  2  0
 18 20  1  0
 20 22  1  0
 20 21  1  0
 22 23  2  0
 23 24  1  0
 23 47  1  0
 24 25  2  0
 24 48  1  0
 25 26  1  0
 25 49  1  0
 26 28  1  0
 26 27  2  0
 27 22  1  0
 27 50  1  0
 28 29  1  0
 28 30  1  0
 28 31  1  0
M  END
>  <minimizedAffinity>  (6) 
-9.23689

>  <mol_id>  (6) 
119254

>  <source_index>  (6) 
5

>  <layer>  (6) 
L2

>  <uniprot>  (6) 
Q8NER1

>  <paff>  (6) 
6.4044999999999996

>  <smiles>  (6) 
O=C(NC1(C(=O)Nc2cccc(C(F)(F)F)c2)CCCCC1)Oc1ccccc1

>  <aimnet_interaction_kcal_mol>  (6) 
-63.386546192162783

$$$$
L2:Q8NER1:125391
     RDKit          3D

 47 49  0  0  0  0  0  0  0  0999 V2000
  142.7611  150.9682  172.5673 C   0  0  0  0  0  0  0  0  0  0  0  0
  141.4447  150.4014  172.0277 C   0  0  0  0  0  0  0  0  0  0  0  0
  141.0258  149.1168  172.7089 C   0  0  0  0  0  0  0  0  0  0  0  0
  140.9621  149.2774  174.2117 C   0  0  0  0  0  0  0  0  0  0  0  0
  142.2718  149.8145  174.7620 C   0  0  0  0  0  0  0  0  0  0  0  0
  142.6641  151.1149  174.0784 C   0  0  0  0  0  0  0  0  0  0  0  0
  145.4454  151.5278  173.0667 O   0  0  0  0  0  0  0  0  0  0  0  0
  145.1400  150.5085  172.4984 C   0  0  0  0  0  0  0  0  0  0  0  0
  143.8699  150.0567  172.2526 N   0  0  0  0  0  0  0  0  0  0  0  0
  143.7877  149.6449  171.3302 H   0  0  0  0  0  0  0  0  0  0  0  0
  146.1330  149.6707  172.0218 O   0  0  0  0  0  0  0  0  0  0  0  0
  145.9532  148.3078  172.0056 C   0  0  0  0  0  0  0  0  0  0  0  0
  145.4489  147.6144  173.0934 C   0  0  0  0  0  0  0  0  0  0  0  0
  145.4891  146.2316  173.0979 C   0  0  0  0  0  0  0  0  0  0  0  0
  146.0567  145.5395  172.0375 C   0  0  0  0  0  0  0  0  0  0  0  0
  146.5501  146.2493  170.9604 C   0  0  0  0  0  0  0  0  0  0  0  0
  146.4408  147.6306  170.9070 C   0  0  0  0  0  0  0  0  0  0  0  0
  142.9919  152.2504  171.7415 C   0  0  0  0  0  0  0  0  0  0  0  0
  143.3332  152.1262  170.5703 O   0  0  0  0  0  0  0  0  0  0  0  0
  142.7167  153.4200  172.3677 N   0  0  0  0  0  0  0  0  0  0  0  0
  142.7711  153.4162  173.3795 H   0  0  0  0  0  0  0  0  0  0  0  0
  142.4819  154.6776  171.7805 C   0  0  0  0  0  0  0  0  0  0  0  0
  142.7464  154.9547  170.4396 C   0  0  0  0  0  0  0  0  0  0  0  0
  142.4358  156.1943  169.9115 C   0  0  0  0  0  0  0  0  0  0  0  0
  141.8963  157.1754  170.7257 C   0  0  0  0  0  0  0  0  0  0  0  0
  141.4494  158.8800  169.9933 Br  0  0  0  0  0  0  0  0  0  0  0  0
  141.6714  156.9338  172.0680 C   0  0  0  0  0  0  0  0  0  0  0  0
  141.9649  155.6890  172.5918 C   0  0  0  0  0  0  0  0  0  0  0  0
  141.5368  150.2642  170.9523 H   0  0  0  0  0  0  0  0  0  0  0  0
  140.6712  151.1573  172.1782 H   0  0  0  0  0  0  0  0  0  0  0  0
  141.7323  148.3259  172.4537 H   0  0  0  0  0  0  0  0  0  0  0  0
  140.0551  148.8200  172.3216 H   0  0  0  0  0  0  0  0  0  0  0  0
  140.7227  148.3305  174.6862 H   0  0  0  0  0  0  0  0  0  0  0  0
  140.1604  149.9645  174.4757 H   0  0  0  0  0  0  0  0  0  0  0  0
  143.0623  149.0728  174.6431 H   0  0  0  0  0  0  0  0  0  0  0  0
  142.1649  149.9910  175.8311 H   0  0  0  0  0  0  0  0  0  0  0  0
  143.5978  151.4980  174.4681 H   0  0  0  0  0  0  0  0  0  0  0  0
  141.9065  151.8502  174.3102 H   0  0  0  0  0  0  0  0  0  0  0  0
  145.0336  148.1818  173.9129 H   0  0  0  0  0  0  0  0  0  0  0  0
  145.0468  145.6853  173.9128 H   0  0  0  0  0  0  0  0  0  0  0  0
  146.0897  144.4574  172.0515 H   0  0  0  0  0  0  0  0  0  0  0  0
  147.0452  145.7225  170.1550 H   0  0  0  0  0  0  0  0  0  0  0  0
  146.7314  148.2146  170.0474 H   0  0  0  0  0  0  0  0  0  0  0  0
  143.1972  154.1969  169.8203 H   0  0  0  0  0  0  0  0  0  0  0  0
  142.6103  156.3868  168.8638 H   0  0  0  0  0  0  0  0  0  0  0  0
  141.2783  157.7168  172.7003 H   0  0  0  0  0  0  0  0  0  0  0  0
  141.8121  155.5115  173.6463 H   0  0  0  0  0  0  0  0  0  0  0  0
  1 18  1  0
  1  2  1  0
  2  3  1  0
  2 29  1  0
  2 30  1  0
  3  4  1  0
  3 31  1  0
  3 32  1  0
  4  5  1  0
  4 33  1  0
  4 34  1  0
  5  6  1  0
  5 35  1  0
  5 36  1  0
  6  1  1  0
  6 37  1  0
  6 38  1  0
  7  8  2  0
  8  9  1  0
  8 11  1  0
  9  1  1  0
  9 10  1  0
 11 12  1  0
 12 13  2  0
 13 14  1  0
 13 39  1  0
 14 15  2  0
 14 40  1  0
 15 16  1  0
 15 41  1  0
 16 17  2  0
 16 42  1  0
 17 12  1  0
 17 43  1  0
 18 19  2  0
 18 20  1  0
 20 22  1  0
 20 21  1  0
 22 23  2  0
 23 24  1  0
 23 44  1  0
 24 25  2  0
 24 45  1  0
 25 26  1  0
 25 27  1  0
 27 28  2  0
 27 46  1  0
 28 22  1  0
 28 47  1  0
M  END
>  <minimizedAffinity>  (7) 
-9.07439

>  <mol_id>  (7) 
125391

>  <source_index>  (7) 
6

>  <layer>  (7) 
L2

>  <uniprot>  (7) 
Q8NER1

>  <paff>  (7) 
6.3497000000000003

>  <smiles>  (7) 
O=C(NC1(C(=O)Nc2ccc(Br)cc2)CCCCC1)Oc1ccccc1

>  <aimnet_interaction_kcal_mol>  (7) 
-39.110437733590452

$$$$
L2:Q8NER1:131041
     RDKit          3D

 47 50  0  0  0  0  0  0  0  0999 V2000
  145.2852  148.5393  173.6773 C   0  0  0  0  0  0  0  0  0  0  0  0
  145.7511  149.9316  173.4625 C   0  0  0  0  0  0  0  0  0  0  0  0
  146.9693  150.3977  173.9583 N   0  0  0  0  0  0  0  0  0  0  0  0
  147.0516  151.6271  173.5171 C   0  0  0  0  0  0  0  0  0  0  0  0
  145.9451  152.0513  172.8442 O   0  0  0  0  0  0  0  0  0  0  0  0
  145.1292  150.9255  172.7744 C   0  0  0  0  0  0  0  0  0  0  0  0
  143.9006  151.0360  172.0276 C   0  0  0  0  0  0  0  0  0  0  0  0
  143.4585  149.9892  171.2072 C   0  0  0  0  0  0  0  0  0  0  0  0
  142.2479  150.0731  170.5475 C   0  0  0  0  0  0  0  0  0  0  0  0
  141.4470  151.1994  170.6979 C   0  0  0  0  0  0  0  0  0  0  0  0
  141.9053  152.2685  171.4602 C   0  0  0  0  0  0  0  0  0  0  0  0
  143.1161  152.1899  172.1212 C   0  0  0  0  0  0  0  0  0  0  0  0
  140.0651  151.2266  170.1129 C   0  0  0  0  0  0  0  0  0  0  0  0
  139.9923  150.5166  168.9547 F   0  0  0  0  0  0  0  0  0  0  0  0
  139.6404  152.4785  169.8414 F   0  0  0  0  0  0  0  0  0  0  0  0
  139.1524  150.6702  170.9576 F   0  0  0  0  0  0  0  0  0  0  0  0
  148.0590  152.5320  173.5620 N   0  0  0  0  0  0  0  0  0  0  0  0
  147.8620  153.3841  173.0603 H   0  0  0  0  0  0  0  0  0  0  0  0
  149.4043  152.3331  173.8838 C   0  0  0  0  0  0  0  0  0  0  0  0
  149.7761  151.4270  174.8693 C   0  0  0  0  0  0  0  0  0  0  0  0
  151.0956  151.3970  175.2909 C   0  0  0  0  0  0  0  0  0  0  0  0
  152.0441  152.2169  174.7021 C   0  0  0  0  0  0  0  0  0  0  0  0
  151.6857  153.0735  173.6666 C   0  0  0  0  0  0  0  0  0  0  0  0
  150.3711  153.1070  173.2213 C   0  0  0  0  0  0  0  0  0  0  0  0
  149.9424  153.9447  172.0578 C   0  0  0  0  0  0  0  0  0  0  0  0
  151.0418  154.5805  171.1865 C   0  0  2  0  0  0  0  0  0  0  0  0
  150.7520  154.4135  169.7823 O   0  0  0  0  0  0  0  0  0  0  0  0
  152.4067  153.9836  171.4759 C   0  0  0  0  0  0  0  0  0  0  0  0
  152.6759  153.9671  172.9751 C   0  0  0  0  0  0  0  0  0  0  0  0
  149.7783  154.1752  169.7191 H   0  0  0  0  0  0  0  0  0  0  0  0
  145.7953  147.8434  173.0116 H   0  0  0  0  0  0  0  0  0  0  0  0
  144.2165  148.4533  173.4971 H   0  0  0  0  0  0  0  0  0  0  0  0
  145.4828  148.2143  174.6950 H   0  0  0  0  0  0  0  0  0  0  0  0
  144.0799  149.1149  171.0708 H   0  0  0  0  0  0  0  0  0  0  0  0
  141.9248  149.2640  169.9104 H   0  0  0  0  0  0  0  0  0  0  0  0
  141.3016  153.1597  171.5444 H   0  0  0  0  0  0  0  0  0  0  0  0
  143.4492  153.0063  172.7452 H   0  0  0  0  0  0  0  0  0  0  0  0
  149.0184  150.7771  175.2818 H   0  0  0  0  0  0  0  0  0  0  0  0
  151.3953  150.7353  176.0923 H   0  0  0  0  0  0  0  0  0  0  0  0
  153.0709  152.1655  175.0385 H   0  0  0  0  0  0  0  0  0  0  0  0
  149.2879  154.7376  172.4169 H   0  0  0  0  0  0  0  0  0  0  0  0
  149.3318  153.3203  171.4086 H   0  0  0  0  0  0  0  0  0  0  0  0
  151.0702  155.6580  171.3761 H   0  0  0  0  0  0  0  0  0  0  0  0
  153.1708  154.5429  170.9372 H   0  0  0  0  0  0  0  0  0  0  0  0
  152.4252  152.9605  171.1022 H   0  0  0  0  0  0  0  0  0  0  0  0
  152.6020  154.9896  173.3630 H   0  0  0  0  0  0  0  0  0  0  0  0
  153.6911  153.6214  173.1799 H   0  0  0  0  0  0  0  0  0  0  0  0
  1  2  1  0
  1 31  1  0
  1 32  1  0
  1 33  1  0
  2  3  1  0
  3  4  2  0
  4 17  1  0
  4  5  1  0
  5  6  1  0
  6  7  1  0
  6  2  2  0
  7  8  2  0
  8  9  1  0
  8 34  1  0
  9 10  2  0
  9 35  1  0
 10 13  1  0
 10 11  1  0
 11 12  2  0
 11 36  1  0
 12  7  1  0
 12 37  1  0
 13 14  1  0
 13 15  1  0
 13 16  1  0
 17 19  1  0
 17 18  1  0
 19 20  2  0
 20 21  1  0
 20 38  1  0
 21 22  2  0
 21 39  1  0
 22 23  1  0
 22 40  1  0
 23 24  2  0
 24 25  1  0
 24 19  1  0
 25 26  1  0
 25 41  1  0
 25 42  1  0
 26 27  1  0
 26 28  1  0
 26 43  1  1
 27 30  1  0
 28 29  1  0
 28 44  1  0
 28 45  1  0
 29 23  1  0
 29 46  1  0
 29 47  1  0
M  END
>  <minimizedAffinity>  (8) 
-9.98308

>  <mol_id>  (8) 
131041

>  <source_index>  (8) 
7

>  <layer>  (8) 
L2

>  <uniprot>  (8) 
Q8NER1

>  <paff>  (8) 
7.8239000000000001

>  <smiles>  (8) 
Cc1nc(Nc2cccc3CC[C@@H](O)Cc23)oc1-c1ccc(cc1)C(F)(F)F |r|

>  <aimnet_interaction_kcal_mol>  (8) 
-78.800878353120126

$$$$
L2:Q8NER1:132261
     RDKit          3D

 61 64  0  0  0  0  0  0  0  0999 V2000
  143.1106  154.2917  170.8652 C   0  0  0  0  0  0  0  0  0  0  0  0
  142.4514  155.0140  172.0423 C   0  0  0  0  0  0  0  0  0  0  0  0
  141.4619  156.1020  171.6134 C   0  0  0  0  0  0  0  0  0  0  0  0
  140.9591  155.9600  170.1870 C   0  0  0  0  0  0  0  0  0  0  0  0
  142.1040  155.8596  169.1843 C   0  0  0  0  0  0  0  0  0  0  0  0
  143.3965  155.3636  169.8124 C   0  0  0  0  0  0  0  0  0  0  0  0
  143.4417  152.0591  172.5391 O   0  0  0  0  0  0  0  0  0  0  0  0
  144.4138  152.4741  171.9111 C   0  0  0  0  0  0  0  0  0  0  0  0
  145.6268  151.8267  171.8663 N   0  0  0  0  0  0  0  0  0  0  0  0
  144.3745  153.6712  171.2592 N   0  0  0  0  0  0  0  0  0  0  0  0
  146.1797  151.8744  171.0214 H   0  0  0  0  0  0  0  0  0  0  0  0
  145.2205  154.0465  170.8690 H   0  0  0  0  0  0  0  0  0  0  0  0
  145.8493  150.6501  172.6717 C   0  0  0  0  0  0  0  0  0  0  0  0
  145.4917  149.3271  171.9779 C   0  0  0  0  0  0  0  0  0  0  0  0
  144.0299  149.1600  171.7829 C   0  0  0  0  0  0  0  0  0  0  0  0
  143.3232  149.1891  170.6088 C   0  0  0  0  0  0  0  0  0  0  0  0
  141.9683  149.1190  170.8777 N   0  0  0  0  0  0  0  0  0  0  0  0
  141.7802  149.1536  172.2433 C   0  0  0  0  0  0  0  0  0  0  0  0
  140.6268  149.3417  173.0013 C   0  0  0  0  0  0  0  0  0  0  0  0
  140.7672  149.4260  174.3773 C   0  0  0  0  0  0  0  0  0  0  0  0
  142.0170  149.2472  174.9841 C   0  0  0  0  0  0  0  0  0  0  0  0
  143.1566  149.0283  174.2300 C   0  0  0  0  0  0  0  0  0  0  0  0
  143.0629  149.0774  172.8381 C   0  0  0  0  0  0  0  0  0  0  0  0
  141.2547  149.3808  170.2151 H   0  0  0  0  0  0  0  0  0  0  0  0
  142.2762  153.1756  170.2171 C   0  0  0  0  0  0  0  0  0  0  0  0
  142.6167  152.6821  169.1481 O   0  0  0  0  0  0  0  0  0  0  0  0
  141.1674  152.7762  170.8970 N   0  0  0  0  0  0  0  0  0  0  0  0
  141.1915  152.9098  171.8955 H   0  0  0  0  0  0  0  0  0  0  0  0
  140.0009  152.2587  170.3351 C   0  0  0  0  0  0  0  0  0  0  0  0
  140.0217  151.3857  169.2534 C   0  0  0  0  0  0  0  0  0  0  0  0
  138.8358  150.8719  168.7627 C   0  0  0  0  0  0  0  0  0  0  0  0
  137.6160  151.2520  169.2988 C   0  0  0  0  0  0  0  0  0  0  0  0
  137.5943  152.1867  170.3209 C   0  0  0  0  0  0  0  0  0  0  0  0
  138.7769  152.6409  170.8809 C   0  0  0  0  0  0  0  0  0  0  0  0
  136.3075  152.8375  170.7379 C   0  0  0  0  0  0  0  0  0  0  0  0
  135.2135  152.1152  170.4073 F   0  0  0  0  0  0  0  0  0  0  0  0
  136.1634  154.0585  170.1521 F   0  0  0  0  0  0  0  0  0  0  0  0
  136.2652  153.0435  172.0816 F   0  0  0  0  0  0  0  0  0  0  0  0
  143.2540  155.5019  172.5840 H   0  0  0  0  0  0  0  0  0  0  0  0
  142.0417  154.3044  172.7520 H   0  0  0  0  0  0  0  0  0  0  0  0
  141.9503  157.0745  171.7002 H   0  0  0  0  0  0  0  0  0  0  0  0
  140.6196  156.1214  172.3052 H   0  0  0  0  0  0  0  0  0  0  0  0
  140.3166  156.8042  169.9373 H   0  0  0  0  0  0  0  0  0  0  0  0
  140.3256  155.0806  170.1101 H   0  0  0  0  0  0  0  0  0  0  0  0
  142.2771  156.8166  168.7019 H   0  0  0  0  0  0  0  0  0  0  0  0
  141.8328  155.1666  168.3976 H   0  0  0  0  0  0  0  0  0  0  0  0
  143.9418  156.1764  170.2991 H   0  0  0  0  0  0  0  0  0  0  0  0
  144.0445  154.9671  169.0379 H   0  0  0  0  0  0  0  0  0  0  0  0
  145.2652  150.7479  173.5817 H   0  0  0  0  0  0  0  0  0  0  0  0
  146.9032  150.6433  172.9566 H   0  0  0  0  0  0  0  0  0  0  0  0
  145.8896  148.5017  172.5798 H   0  0  0  0  0  0  0  0  0  0  0  0
  146.0164  149.2850  171.0190 H   0  0  0  0  0  0  0  0  0  0  0  0
  143.6775  149.2996  169.6001 H   0  0  0  0  0  0  0  0  0  0  0  0
  139.6572  149.4511  172.5342 H   0  0  0  0  0  0  0  0  0  0  0  0
  139.9092  149.6536  174.9988 H   0  0  0  0  0  0  0  0  0  0  0  0
  142.0860  149.3060  176.0634 H   0  0  0  0  0  0  0  0  0  0  0  0
  144.1122  148.8327  174.7034 H   0  0  0  0  0  0  0  0  0  0  0  0
  140.9667  151.1584  168.7864 H   0  0  0  0  0  0  0  0  0  0  0  0
  138.8726  150.2019  167.9174 H   0  0  0  0  0  0  0  0  0  0  0  0
  136.6923  150.8548  168.9134 H   0  0  0  0  0  0  0  0  0  0  0  0
  138.7540  153.3215  171.7197 H   0  0  0  0  0  0  0  0  0  0  0  0
  1 25  1  0
  1  2  1  0
  2  3  1  0
  2 39  1  0
  2 40  1  0
  3  4  1  0
  3 41  1  0
  3 42  1  0
  4  5  1  0
  4 43  1  0
  4 44  1  0
  5  6  1  0
  5 45  1  0
  5 46  1  0
  6  1  1  0
  6 47  1  0
  6 48  1  0
  7  8  2  0
  8  9  1  0
  8 10  1  0
  9 13  1  0
  9 11  1  0
 10  1  1  0
 10 12  1  0
 13 14  1  0
 13 49  1  0
 13 50  1  0
 14 15  1  0
 14 51  1  0
 14 52  1  0
 15 16  2  0
 16 17  1  0
 16 53  1  0
 17 18  1  0
 17 24  1  0
 18 19  2  0
 19 20  1  0
 19 54  1  0
 20 21  2  0
 20 55  1  0
 21 22  1  0
 21 56  1  0
 22 23  2  0
 22 57  1  0
 23 15  1  0
 23 18  1  0
 25 26  2  0
 25 27  1  0
 27 29  1  0
 27 28  1  0
 29 30  2  0
 30 31  1  0
 30 58  1  0
 31 32  2  0
 31 59  1  0
 32 33  1  0
 32 60  1  0
 33 35  1  0
 33 34  2  0
 34 29  1  0
 34 61  1  0
 35 36  1  0
 35 37  1  0
 35 38  1  0
M  END
>  <minimizedAffinity>  (9) 
-10.15633

>  <mol_id>  (9) 
132261

>  <source_index>  (9) 
8

>  <layer>  (9) 
L2

>  <uniprot>  (9) 
Q8NER1

>  <paff>  (9) 
6.202

>  <smiles>  (9) 
O=C(NCCc1c[nH]c2ccccc12)NC1(C(=O)Nc2cccc(C(F)(F)F)c2)CCCCC1

>  <aimnet_interaction_kcal_mol>  (9) 
-55.21072163411192

$$$$
L2:Q8NER1:140296
     RDKit          3D

 62 65  0  0  0  0  0  0  0  0999 V2000
  140.2108  149.7953  174.0869 N   0  0  0  0  0  0  0  0  0  0  0  0
  139.9175  150.2058  172.8144 C   0  0  0  0  0  0  0  0  0  0  0  0
  140.5396  149.8104  171.8179 O   0  0  0  0  0  0  0  0  0  0  0  0
  138.8738  151.0801  172.7789 N   0  0  0  0  0  0  0  0  0  0  0  0
  139.5119  149.9454  174.7974 H   0  0  0  0  0  0  0  0  0  0  0  0
  138.5174  151.3641  173.6763 H   0  0  0  0  0  0  0  0  0  0  0  0
  138.4643  151.9685  171.6810 C   0  0  0  0  0  0  0  0  0  0  0  0
  137.1407  152.5912  172.1368 C   0  0  0  0  0  0  0  0  0  0  0  0
  136.4094  153.3640  171.0578 C   0  0  0  0  0  0  0  0  0  0  0  0
  136.2361  152.5185  169.8100 C   0  0  0  0  0  0  0  0  0  0  0  0
  137.5752  151.9918  169.3228 C   0  0  0  0  0  0  0  0  0  0  0  0
  138.2543  151.1669  170.3949 C   0  0  0  0  0  0  0  0  0  0  0  0
  139.5038  153.0946  171.4689 C   0  0  0  0  0  0  0  0  0  0  0  0
  139.2232  154.2762  171.6110 O   0  0  0  0  0  0  0  0  0  0  0  0
  140.7420  152.6569  171.1166 N   0  0  0  0  0  0  0  0  0  0  0  0
  140.8761  151.6481  171.0948 H   0  0  0  0  0  0  0  0  0  0  0  0
  141.7561  153.5623  170.7231 C   0  0  0  0  0  0  0  0  0  0  0  0
  142.2763  153.4857  169.4368 C   0  0  0  0  0  0  0  0  0  0  0  0
  143.0662  154.5160  168.9496 C   0  0  0  0  0  0  0  0  0  0  0  0
  143.4524  155.5487  169.7870 C   0  0  0  0  0  0  0  0  0  0  0  0
  143.0204  155.5651  171.1030 C   0  0  0  0  0  0  0  0  0  0  0  0
  142.1903  154.5674  171.5811 C   0  0  0  0  0  0  0  0  0  0  0  0
  141.2824  148.8800  174.3708 C   0  0  0  0  0  0  0  0  0  0  0  0
  142.5553  149.6019  174.8363 C   0  0  0  0  0  0  0  0  0  0  0  0
  145.4057  147.2143  172.1681 C   0  0  0  0  0  0  0  0  0  0  0  0
  146.1249  148.0163  171.2670 C   0  0  0  0  0  0  0  0  0  0  0  0
  145.9059  149.3897  171.1821 C   0  0  0  0  0  0  0  0  0  0  0  0
  144.9814  149.9604  172.0446 C   0  0  0  0  0  0  0  0  0  0  0  0
  144.5987  151.2706  172.2508 N   0  0  0  0  0  0  0  0  0  0  0  0
  143.6461  151.3179  173.2449 C   0  0  0  0  0  0  0  0  0  0  0  0
  143.4210  150.0490  173.7200 C   0  0  0  0  0  0  0  0  0  0  0  0
  144.2467  149.1681  172.9510 C   0  0  0  0  0  0  0  0  0  0  0  0
  144.4174  147.7849  172.9573 C   0  0  0  0  0  0  0  0  0  0  0  0
  144.8357  152.0414  171.6506 H   0  0  0  0  0  0  0  0  0  0  0  0
  146.6725  145.2022  171.7397 C   0  0  0  0  0  0  0  0  0  0  0  0
  145.5729  145.8597  172.3362 O   0  0  0  0  0  0  0  0  0  0  0  0
  137.3353  153.2353  172.9910 H   0  0  0  0  0  0  0  0  0  0  0  0
  136.5155  151.7676  172.4811 H   0  0  0  0  0  0  0  0  0  0  0  0
  136.9629  154.2691  170.8228 H   0  0  0  0  0  0  0  0  0  0  0  0
  135.4345  153.6738  171.4427 H   0  0  0  0  0  0  0  0  0  0  0  0
  135.7506  153.1017  169.0319 H   0  0  0  0  0  0  0  0  0  0  0  0
  135.5835  151.6712  170.0270 H   0  0  0  0  0  0  0  0  0  0  0  0
  138.2119  152.8287  169.0273 H   0  0  0  0  0  0  0  0  0  0  0  0
  137.4482  151.3735  168.4388 H   0  0  0  0  0  0  0  0  0  0  0  0
  139.2032  150.7761  170.0455 H   0  0  0  0  0  0  0  0  0  0  0  0
  137.6473  150.2979  170.6316 H   0  0  0  0  0  0  0  0  0  0  0  0
  142.0262  152.6399  168.8105 H   0  0  0  0  0  0  0  0  0  0  0  0
  143.3660  154.5345  167.9135 H   0  0  0  0  0  0  0  0  0  0  0  0
  144.0879  156.3393  169.4210 H   0  0  0  0  0  0  0  0  0  0  0  0
  143.3183  156.3739  171.7510 H   0  0  0  0  0  0  0  0  0  0  0  0
  141.8668  154.5724  172.6139 H   0  0  0  0  0  0  0  0  0  0  0  0
  140.9350  148.2021  175.1454 H   0  0  0  0  0  0  0  0  0  0  0  0
  141.4993  148.2962  173.4816 H   0  0  0  0  0  0  0  0  0  0  0  0
  142.2626  150.4374  175.4723 H   0  0  0  0  0  0  0  0  0  0  0  0
  143.1281  148.9229  175.4803 H   0  0  0  0  0  0  0  0  0  0  0  0
  146.8277  147.5578  170.5879 H   0  0  0  0  0  0  0  0  0  0  0  0
  146.4347  149.9878  170.4546 H   0  0  0  0  0  0  0  0  0  0  0  0
  143.2099  152.2501  173.5433 H   0  0  0  0  0  0  0  0  0  0  0  0
  143.7587  147.1444  173.5225 H   0  0  0  0  0  0  0  0  0  0  0  0
  146.4350  144.1412  171.7191 H   0  0  0  0  0  0  0  0  0  0  0  0
  147.5863  145.3792  172.2993 H   0  0  0  0  0  0  0  0  0  0  0  0
  146.8435  145.5298  170.7129 H   0  0  0  0  0  0  0  0  0  0  0  0
  1  2  1  0
  1  5  1  0
  2  3  2  0
  2  4  1  0
  4  7  1  0
  4  6  1  0
  7 13  1  0
  7  8  1  0
  8  9  1  0
  8 37  1  0
  8 38  1  0
  9 10  1  0
  9 39  1  0
  9 40  1  0
 10 11  1  0
 10 41  1  0
 10 42  1  0
 11 12  1  0
 11 43  1  0
 11 44  1  0
 12  7  1  0
 12 45  1  0
 12 46  1  0
 13 14  2  0
 13 15  1  0
 15 17  1  0
 15 16  1  0
 17 18  2  0
 18 19  1  0
 18 47  1  0
 19 20  2  0
 19 48  1  0
 20 21  1  0
 20 49  1  0
 21 22  2  0
 21 50  1  0
 22 17  1  0
 22 51  1  0
 23  1  1  0
 23 52  1  0
 23 53  1  0
 24 23  1  0
 24 54  1  0
 24 55  1  0
 25 26  2  0
 26 27  1  0
 26 56  1  0
 27 28  2  0
 27 57  1  0
 28 29  1  0
 29 30  1  0
 29 34  1  0
 30 31  2  0
 30 58  1  0
 31 24  1  0
 31 32  1  0
 32 33  2  0
 32 28  1  0
 33 25  1  0
 33 59  1  0
 35 36  1  0
 35 60  1  0
 35 61  1  0
 35 62  1  0
 36 25  1  0
M  END
>  <minimizedAffinity>  (10) 
-9.71959

>  <mol_id>  (10) 
140296

>  <source_index>  (10) 
9

>  <layer>  (10) 
L2

>  <uniprot>  (10) 
Q8NER1

>  <paff>  (10) 
6.9393000000000002

>  <smiles>  (10) 
COc1ccc2[nH]cc(CCNC(=O)NC3(C(=O)Nc4ccccc4)CCCCC3)c2c1

>  <aimnet_interaction_kcal_mol>  (10) 
-52.719865419696063

$$$$
