L2:Q8NER1:27152
     RDKit          3D

 61 64  0  0  0  0  0  0  0  0999 V2000
  141.2454  151.6339  171.3092 N   0  0  0  0  0  0  0  0  0  0  0  0
  141.9471  152.4626  170.4649 C   0  0  0  0  0  0  0  0  0  0  0  0
  142.1002  152.1856  169.2723 O   0  0  0  0  0  0  0  0  0  0  0  0
  141.1805  151.8341  172.2967 H   0  0  0  0  0  0  0  0  0  0  0  0
  142.6659  153.6888  171.1222 C   0  0  0  0  0  0  0  0  0  0  0  0
  143.5605  154.5097  170.1533 C   0  0  0  0  0  0  0  0  0  0  0  0
  142.8917  155.7851  169.6408 C   0  0  0  0  0  0  0  0  0  0  0  0
  142.5017  156.7209  170.7830 C   0  0  0  0  0  0  0  0  0  0  0  0
  142.0378  155.9839  172.0383 C   0  0  0  0  0  0  0  0  0  0  0  0
  141.5442  154.5757  171.7239 C   0  0  0  0  0  0  0  0  0  0  0  0
  143.4694  153.1296  172.2246 N   0  0  0  0  0  0  0  0  0  0  0  0
  144.3085  152.0581  172.0876 C   0  0  0  0  0  0  0  0  0  0  0  0
  144.6051  151.5356  171.0223 O   0  0  0  0  0  0  0  0  0  0  0  0
  143.1987  153.3255  173.1783 H   0  0  0  0  0  0  0  0  0  0  0  0
  144.7505  151.6725  173.3428 O   0  0  0  0  0  0  0  0  0  0  0  0
  146.1315  151.7855  173.5264 C   0  0  0  0  0  0  0  0  0  0  0  0
  146.7721  151.0407  174.5160 C   0  0  0  0  0  0  0  0  0  0  0  0
  148.1411  151.2118  174.7164 C   0  0  0  0  0  0  0  0  0  0  0  0
  148.8512  152.1318  173.9411 C   0  0  0  0  0  0  0  0  0  0  0  0
  148.1941  152.8863  172.9659 C   0  0  0  0  0  0  0  0  0  0  0  0
  146.8252  152.7194  172.7600 C   0  0  0  0  0  0  0  0  0  0  0  0
  140.6179  150.4085  170.8482 C   0  0  0  0  0  0  0  0  0  0  0  0
  140.0614  149.5637  171.9989 C   0  0  0  0  0  0  0  0  0  0  0  0
  144.4793  147.9924  172.4489 C   0  0  0  0  0  0  0  0  0  0  0  0
  144.9410  148.0815  173.7611 C   0  0  0  0  0  0  0  0  0  0  0  0
  144.1316  148.6005  174.7806 C   0  0  0  0  0  0  0  0  0  0  0  0
  142.8426  149.0235  174.4394 C   0  0  0  0  0  0  0  0  0  0  0  0
  141.8531  149.5711  175.2209 N   0  0  0  0  0  0  0  0  0  0  0  0
  140.7440  149.8323  174.4641 C   0  0  0  0  0  0  0  0  0  0  0  0
  141.0056  149.4540  173.1609 C   0  0  0  0  0  0  0  0  0  0  0  0
  142.3448  148.9463  173.1395 C   0  0  0  0  0  0  0  0  0  0  0  0
  143.1836  148.4243  172.1334 C   0  0  0  0  0  0  0  0  0  0  0  0
  141.9418  149.7585  176.2100 H   0  0  0  0  0  0  0  0  0  0  0  0
  146.2421  148.3148  170.8827 C   0  0  0  0  0  0  0  0  0  0  0  0
  145.1851  147.5049  171.3810 O   0  0  0  0  0  0  0  0  0  0  0  0
  143.8042  153.8937  169.3131 H   0  0  0  0  0  0  0  0  0  0  0  0
  144.4290  154.8080  170.7025 H   0  0  0  0  0  0  0  0  0  0  0  0
  142.0105  155.5187  169.0954 H   0  0  0  0  0  0  0  0  0  0  0  0
  143.5915  156.2986  169.0151 H   0  0  0  0  0  0  0  0  0  0  0  0
  141.7064  157.3531  170.4472 H   0  0  0  0  0  0  0  0  0  0  0  0
  143.3760  157.2779  171.0481 H   0  0  0  0  0  0  0  0  0  0  0  0
  141.2403  156.5370  172.4889 H   0  0  0  0  0  0  0  0  0  0  0  0
  142.8738  155.9010  172.7010 H   0  0  0  0  0  0  0  0  0  0  0  0
  140.7401  154.6402  171.0210 H   0  0  0  0  0  0  0  0  0  0  0  0
  141.2219  154.1258  172.6396 H   0  0  0  0  0  0  0  0  0  0  0  0
  146.2394  150.3711  175.0929 H   0  0  0  0  0  0  0  0  0  0  0  0
  148.6300  150.6588  175.4376 H   0  0  0  0  0  0  0  0  0  0  0  0
  149.8651  152.2546  174.0893 H   0  0  0  0  0  0  0  0  0  0  0  0
  148.7220  153.5672  172.3979 H   0  0  0  0  0  0  0  0  0  0  0  0
  146.3318  153.2809  172.0484 H   0  0  0  0  0  0  0  0  0  0  0  0
  139.8141  150.6619  170.1890 H   0  0  0  0  0  0  0  0  0  0  0  0
  141.3667  149.8274  170.3516 H   0  0  0  0  0  0  0  0  0  0  0  0
  139.1517  150.0114  172.3407 H   0  0  0  0  0  0  0  0  0  0  0  0
  139.9049  148.5749  171.6213 H   0  0  0  0  0  0  0  0  0  0  0  0
  145.8955  147.7597  173.9857 H   0  0  0  0  0  0  0  0  0  0  0  0
  144.4752  148.6684  175.7513 H   0  0  0  0  0  0  0  0  0  0  0  0
  139.8616  150.2423  174.8080 H   0  0  0  0  0  0  0  0  0  0  0  0
  142.8424  148.3600  171.1615 H   0  0  0  0  0  0  0  0  0  0  0  0
  146.7088  147.8226  170.0551 H   0  0  0  0  0  0  0  0  0  0  0  0
  146.9641  148.4745  171.6561 H   0  0  0  0  0  0  0  0  0  0  0  0
  145.8488  149.2568  170.5619 H   0  0  0  0  0  0  0  0  0  0  0  0
  1  2  1  0
  1  4  1  0
  2  3  2  0
  2  5  1  0
  5 11  1  0
  5  6  1  0
  6  7  1  0
  6 36  1  0
  6 37  1  0
  7  8  1  0
  7 38  1  0
  7 39  1  0
  8  9  1  0
  8 40  1  0
  8 41  1  0
  9 10  1  0
  9 42  1  0
  9 43  1  0
 10  5  1  0
 10 44  1  0
 10 45  1  0
 11 12  1  0
 11 14  1  0
 12 13  2  0
 12 15  1  0
 15 16  1  0
 16 17  2  0
 17 18  1  0
 17 46  1  0
 18 19  2  0
 18 47  1  0
 19 20  1  0
 19 48  1  0
 20 21  2  0
 20 49  1  0
 21 16  1  0
 21 50  1  0
 22  1  1  0
 22 51  1  0
 22 52  1  0
 23 22  1  0
 23 53  1  0
 23 54  1  0
 24 25  2  0
 25 26  1  0
 25 55  1  0
 26 27  2  0
 26 56  1  0
 27 28  1  0
 28 29  1  0
 28 33  1  0
 29 30  2  0
 29 57  1  0
 30 23  1  0
 30 31  1  0
 31 32  2  0
 31 27  1  0
 32 24  1  0
 32 58  1  0
 34 35  1  0
 34 59  1  0
 34 60  1  0
 34 61  1  0
 35 24  1  0
M  END
>  <minimizedAffinity>  (1) 
-9.63657

>  <mol_id>  (1) 
27152

>  <source_index>  (1) 
0

>  <layer>  (1) 
L2

>  <uniprot>  (1) 
Q8NER1

>  <paff>  (1) 
7.0223000000000004

>  <smiles>  (1) 
COc1ccc2[nH]cc(CCNC(=O)C3(NC(=O)Oc4ccccc4)CCCCC3)c2c1

$$$$
L2:Q8NER1:35078
     RDKit          3D

 57 60  0  0  0  0  0  0  0  0999 V2000
  143.3381  154.0412  170.8188 C   0  0  0  0  0  0  0  0  0  0  0  0
  143.9281  155.3497  170.2355 C   0  0  0  0  0  0  0  0  0  0  0  0
  142.8953  156.4546  170.0291 C   0  0  0  0  0  0  0  0  0  0  0  0
  142.1397  156.7504  171.3163 C   0  0  0  0  0  0  0  0  0  0  0  0
  141.4645  155.5000  171.8599 C   0  0  0  0  0  0  0  0  0  0  0  0
  142.4456  154.3409  172.0439 C   0  0  0  0  0  0  0  0  0  0  0  0
  143.4484  151.9789  172.8644 O   0  0  0  0  0  0  0  0  0  0  0  0
  144.4519  152.2855  172.2403 C   0  0  0  0  0  0  0  0  0  0  0  0
  144.4870  153.1904  171.2144 N   0  0  0  0  0  0  0  0  0  0  0  0
  145.4065  153.3861  170.8430 H   0  0  0  0  0  0  0  0  0  0  0  0
  145.7254  151.7725  172.4243 O   0  0  0  0  0  0  0  0  0  0  0  0
  145.8265  150.3805  172.3200 C   0  0  0  0  0  0  0  0  0  0  0  0
  146.0303  149.6544  173.4920 C   0  0  0  0  0  0  0  0  0  0  0  0
  146.0835  148.2625  173.4309 C   0  0  0  0  0  0  0  0  0  0  0  0
  145.9191  147.6102  172.2068 C   0  0  0  0  0  0  0  0  0  0  0  0
  145.6958  148.3472  171.0415 C   0  0  0  0  0  0  0  0  0  0  0  0
  145.6402  149.7393  171.0958 C   0  0  0  0  0  0  0  0  0  0  0  0
  142.5398  153.3285  169.6754 C   0  0  0  0  0  0  0  0  0  0  0  0
  142.1786  153.8962  168.6476 O   0  0  0  0  0  0  0  0  0  0  0  0
  142.4308  151.9583  169.8285 N   0  0  0  0  0  0  0  0  0  0  0  0
  142.7347  151.5534  170.7036 H   0  0  0  0  0  0  0  0  0  0  0  0
  141.7543  151.1218  168.8568 C   0  0  0  0  0  0  0  0  0  0  0  0
  141.2883  149.7935  169.4590 C   0  0  0  0  0  0  0  0  0  0  0  0
  140.6154  149.9839  170.7818 C   0  0  0  0  0  0  0  0  0  0  0  0
  139.3817  150.5680  170.9932 C   0  0  0  0  0  0  0  0  0  0  0  0
  139.1194  150.5476  172.3356 N   0  0  0  0  0  0  0  0  0  0  0  0
  140.1582  149.9552  173.0147 C   0  0  0  0  0  0  0  0  0  0  0  0
  140.3206  149.7167  174.3849 C   0  0  0  0  0  0  0  0  0  0  0  0
  141.5000  149.0906  174.7982 C   0  0  0  0  0  0  0  0  0  0  0  0
  142.4763  148.7201  173.8769 C   0  0  0  0  0  0  0  0  0  0  0  0
  142.2974  148.9661  172.5105 C   0  0  0  0  0  0  0  0  0  0  0  0
  141.1158  149.5950  172.0662 C   0  0  0  0  0  0  0  0  0  0  0  0
  138.2848  150.9139  172.7712 H   0  0  0  0  0  0  0  0  0  0  0  0
  144.3755  155.1255  169.2897 H   0  0  0  0  0  0  0  0  0  0  0  0
  144.6371  155.7160  170.9482 H   0  0  0  0  0  0  0  0  0  0  0  0
  142.1982  156.1448  169.2788 H   0  0  0  0  0  0  0  0  0  0  0  0
  143.4071  157.3437  169.7252 H   0  0  0  0  0  0  0  0  0  0  0  0
  141.3939  157.4922  171.1202 H   0  0  0  0  0  0  0  0  0  0  0  0
  142.8393  157.1012  172.0460 H   0  0  0  0  0  0  0  0  0  0  0  0
  140.6996  155.1974  171.1756 H   0  0  0  0  0  0  0  0  0  0  0  0
  141.0587  155.7397  172.8205 H   0  0  0  0  0  0  0  0  0  0  0  0
  141.8807  153.4599  172.2667 H   0  0  0  0  0  0  0  0  0  0  0  0
  143.1076  154.6314  172.8327 H   0  0  0  0  0  0  0  0  0  0  0  0
  146.1406  150.1416  174.3951 H   0  0  0  0  0  0  0  0  0  0  0  0
  146.2444  147.7141  174.2902 H   0  0  0  0  0  0  0  0  0  0  0  0
  145.9628  146.5800  172.1632 H   0  0  0  0  0  0  0  0  0  0  0  0
  145.5719  147.8610  170.1397 H   0  0  0  0  0  0  0  0  0  0  0  0
  145.4633  150.2886  170.2402 H   0  0  0  0  0  0  0  0  0  0  0  0
  142.4276  150.9170  168.0508 H   0  0  0  0  0  0  0  0  0  0  0  0
  140.8877  151.6495  168.5170 H   0  0  0  0  0  0  0  0  0  0  0  0
  142.1383  149.1573  169.5921 H   0  0  0  0  0  0  0  0  0  0  0  0
  140.5794  149.3564  168.7872 H   0  0  0  0  0  0  0  0  0  0  0  0
  138.7632  150.9540  170.2628 H   0  0  0  0  0  0  0  0  0  0  0  0
  139.5955  149.9933  175.0652 H   0  0  0  0  0  0  0  0  0  0  0  0
  141.6495  148.9000  175.8014 H   0  0  0  0  0  0  0  0  0  0  0  0
  143.3399  148.2598  174.2046 H   0  0  0  0  0  0  0  0  0  0  0  0
  143.0250  148.6892  171.8330 H   0  0  0  0  0  0  0  0  0  0  0  0
  1 18  1  0
  1  2  1  0
  2  3  1  0
  2 34  1  0
  2 35  1  0
  3  4  1  0
  3 36  1  0
  3 37  1  0
  4  5  1  0
  4 38  1  0
  4 39  1  0
  5  6  1  0
  5 40  1  0
  5 41  1  0
  6  1  1  0
  6 42  1  0
  6 43  1  0
  7  8  2  0
  8  9  1  0
  8 11  1  0
  9  1  1  0
  9 10  1  0
 11 12  1  0
 12 13  2  0
 13 14  1  0
 13 44  1  0
 14 15  2  0
 14 45  1  0
 15 16  1  0
 15 46  1  0
 16 17  2  0
 16 47  1  0
 17 12  1  0
 17 48  1  0
 18 19  2  0
 18 20  1  0
 20 22  1  0
 20 21  1  0
 22 23  1  0
 22 49  1  0
 22 50  1  0
 23 24  1  0
 23 51  1  0
 23 52  1  0
 24 25  2  0
 25 26  1  0
 25 53  1  0
 26 27  1  0
 26 33  1  0
 27 28  2  0
 28 29  1  0
 28 54  1  0
 29 30  2  0
 29 55  1  0
 30 31  1  0
 30 56  1  0
 31 32  2  0
 31 57  1  0
 32 24  1  0
 32 27  1  0
M  END
>  <minimizedAffinity>  (2) 
-9.75623

>  <mol_id>  (2) 
35078

>  <source_index>  (2) 
1

>  <layer>  (2) 
L2

>  <uniprot>  (2) 
Q8NER1

>  <paff>  (2) 
6.6497999999999999

>  <smiles>  (2) 
O=C(NC1(C(=O)NCCc2c[nH]c3ccccc23)CCCCC1)Oc1ccccc1

$$$$
L2:Q8NER1:38542
     RDKit          3D

 65 68  0  0  0  0  0  0  0  0999 V2000
  138.8967  150.3820  172.1382 N   0  0  0  0  0  0  0  0  0  0  0  0
  138.3619  151.2747  171.2514 C   0  0  0  0  0  0  0  0  0  0  0  0
  138.7889  151.4542  170.1208 O   0  0  0  0  0  0  0  0  0  0  0  0
  137.2638  151.9154  171.7618 N   0  0  0  0  0  0  0  0  0  0  0  0
  138.6258  150.4256  173.1092 H   0  0  0  0  0  0  0  0  0  0  0  0
  137.0723  151.7812  172.7450 H   0  0  0  0  0  0  0  0  0  0  0  0
  136.6125  153.0574  171.0732 C   0  0  0  0  0  0  0  0  0  0  0  0
  135.5735  153.7246  172.0139 C   0  0  0  0  0  0  0  0  0  0  0  0
  134.3295  154.2131  171.2767 C   0  0  0  0  0  0  0  0  0  0  0  0
  133.5986  153.0689  170.5772 C   0  0  0  0  0  0  0  0  0  0  0  0
  134.5332  151.9800  170.0483 C   0  0  0  0  0  0  0  0  0  0  0  0
  135.9377  152.5109  169.7813 C   0  0  0  0  0  0  0  0  0  0  0  0
  137.6607  154.1104  170.5755 C   0  0  0  0  0  0  0  0  0  0  0  0
  137.6995  154.4707  169.3999 O   0  0  0  0  0  0  0  0  0  0  0  0
  138.6230  154.4010  171.5344 N   0  0  0  0  0  0  0  0  0  0  0  0
  138.4235  154.0208  172.4530 H   0  0  0  0  0  0  0  0  0  0  0  0
  139.7752  155.1953  171.4028 C   0  0  0  0  0  0  0  0  0  0  0  0
  139.9250  156.4522  171.9869 C   0  0  0  0  0  0  0  0  0  0  0  0
  141.0994  157.1848  171.8020 C   0  0  0  0  0  0  0  0  0  0  0  0
  142.1354  156.6689  171.0264 C   0  0  0  0  0  0  0  0  0  0  0  0
  142.0089  155.4078  170.4300 C   0  0  0  0  0  0  0  0  0  0  0  0
  140.8233  154.6789  170.6283 C   0  0  0  0  0  0  0  0  0  0  0  0
  143.1331  154.8600  169.5877 C   0  0  0  0  0  0  0  0  0  0  0  0
  144.3558  155.0353  170.1662 F   0  0  0  0  0  0  0  0  0  0  0  0
  143.0255  153.5213  169.3447 F   0  0  0  0  0  0  0  0  0  0  0  0
  143.2079  155.4549  168.3618 F   0  0  0  0  0  0  0  0  0  0  0  0
  140.0793  149.6168  171.7928 C   0  0  0  0  0  0  0  0  0  0  0  0
  141.2368  149.8228  172.7724 C   0  0  0  0  0  0  0  0  0  0  0  0
  144.9981  147.0600  172.1166 C   0  0  0  0  0  0  0  0  0  0  0  0
  146.0147  147.7186  171.4240 C   0  0  0  0  0  0  0  0  0  0  0  0
  145.8751  149.0439  170.9992 C   0  0  0  0  0  0  0  0  0  0  0  0
  144.6686  149.6872  171.2876 C   0  0  0  0  0  0  0  0  0  0  0  0
  144.2503  150.9571  170.9749 N   0  0  0  0  0  0  0  0  0  0  0  0
  142.9880  151.1728  171.4558 C   0  0  0  0  0  0  0  0  0  0  0  0
  142.5657  150.0249  172.1017 C   0  0  0  0  0  0  0  0  0  0  0  0
  143.6299  149.0701  171.9862 C   0  0  0  0  0  0  0  0  0  0  0  0
  143.8035  147.7302  172.4084 C   0  0  0  0  0  0  0  0  0  0  0  0
  144.8041  151.6341  170.4664 H   0  0  0  0  0  0  0  0  0  0  0  0
  146.4151  145.1718  171.8087 C   0  0  0  0  0  0  0  0  0  0  0  0
  145.2906  145.7627  172.4434 O   0  0  0  0  0  0  0  0  0  0  0  0
  136.0361  154.5615  172.4940 H   0  0  0  0  0  0  0  0  0  0  0  0
  135.2579  152.9842  172.7190 H   0  0  0  0  0  0  0  0  0  0  0  0
  134.6225  154.9360  170.5442 H   0  0  0  0  0  0  0  0  0  0  0  0
  133.6638  154.6424  171.9960 H   0  0  0  0  0  0  0  0  0  0  0  0
  133.0483  153.4724  169.7530 H   0  0  0  0  0  0  0  0  0  0  0  0
  132.9622  152.6107  171.3052 H   0  0  0  0  0  0  0  0  0  0  0  0
  134.1309  151.5934  169.1353 H   0  0  0  0  0  0  0  0  0  0  0  0
  134.6054  151.2163  170.7942 H   0  0  0  0  0  0  0  0  0  0  0  0
  135.8769  153.3015  169.0629 H   0  0  0  0  0  0  0  0  0  0  0  0
  136.5327  151.6998  169.4166 H   0  0  0  0  0  0  0  0  0  0  0  0
  139.1620  156.8444  172.5605 H   0  0  0  0  0  0  0  0  0  0  0  0
  141.2004  158.1128  172.2420 H   0  0  0  0  0  0  0  0  0  0  0  0
  142.9988  157.2177  170.8908 H   0  0  0  0  0  0  0  0  0  0  0  0
  140.7228  153.7472  170.1961 H   0  0  0  0  0  0  0  0  0  0  0  0
  139.8219  148.5783  171.7838 H   0  0  0  0  0  0  0  0  0  0  0  0
  140.4096  149.9569  170.8336 H   0  0  0  0  0  0  0  0  0  0  0  0
  141.0249  150.6851  173.3694 H   0  0  0  0  0  0  0  0  0  0  0  0
  141.3141  148.9305  173.3578 H   0  0  0  0  0  0  0  0  0  0  0  0
  146.8921  147.2150  171.2199 H   0  0  0  0  0  0  0  0  0  0  0  0
  146.6332  149.5275  170.4928 H   0  0  0  0  0  0  0  0  0  0  0  0
  142.4436  152.0436  171.3540 H   0  0  0  0  0  0  0  0  0  0  0  0
  143.0532  147.2494  172.9289 H   0  0  0  0  0  0  0  0  0  0  0  0
  146.5297  144.1646  172.1514 H   0  0  0  0  0  0  0  0  0  0  0  0
  147.2948  145.7321  172.0477 H   0  0  0  0  0  0  0  0  0  0  0  0
  146.2681  145.1734  170.7488 H   0  0  0  0  0  0  0  0  0  0  0  0
  1  2  1  0
  1  5  1  0
  2  3  2  0
  2  4  1  0
  4  7  1  0
  4  6  1  0
  7 13  1  0
  7  8  1  0
  8  9  1  0
  8 41  1  0
  8 42  1  0
  9 10  1  0
  9 43  1  0
  9 44  1  0
 10 11  1  0
 10 45  1  0
 10 46  1  0
 11 12  1  0
 11 47  1  0
 11 48  1  0
 12  7  1  0
 12 49  1  0
 12 50  1  0
 13 14  2  0
 13 15  1  0
 15 17  1  0
 15 16  1  0
 17 18  2  0
 18 19  1  0
 18 51  1  0
 19 20  2  0
 19 52  1  0
 20 21  1  0
 20 53  1  0
 21 23  1  0
 21 22  2  0
 22 17  1  0
 22 54  1  0
 23 24  1  0
 23 25  1  0
 23 26  1  0
 27  1  1  0
 27 55  1  0
 27 56  1  0
 28 27  1  0
 28 57  1  0
 28 58  1  0
 29 30  2  0
 30 31  1  0
 30 59  1  0
 31 32  2  0
 31 60  1  0
 32 33  1  0
 33 34  1  0
 33 38  1  0
 34 35  2  0
 34 61  1  0
 35 28  1  0
 35 36  1  0
 36 37  2  0
 36 32  1  0
 37 29  1  0
 37 62  1  0
 39 40  1  0
 39 63  1  0
 39 64  1  0
 39 65  1  0
 40 29  1  0
M  END
>  <minimizedAffinity>  (3) 
-10.16139

>  <mol_id>  (3) 
38542

>  <source_index>  (3) 
2

>  <layer>  (3) 
L2

>  <uniprot>  (3) 
Q8NER1

>  <paff>  (3) 
6.1593

>  <smiles>  (3) 
COc1ccc2[nH]cc(CCNC(=O)NC3(C(=O)Nc4cccc(C(F)(F)F)c4)CCCCC3)c2c1

$$$$
L2:Q8NER1:52263
     RDKit          3D

 58 61  0  0  0  0  0  0  0  0999 V2000
  143.4977  151.7658  170.6806 O   0  0  0  0  0  0  0  0  0  0  0  0
  142.4132  151.4148  170.2304 C   0  0  0  0  0  0  0  0  0  0  0  0
  142.1284  150.1443  169.8310 N   0  0  0  0  0  0  0  0  0  0  0  0
  141.3735  152.2729  170.0193 N   0  0  0  0  0  0  0  0  0  0  0  0
  141.2378  149.9417  169.4042 H   0  0  0  0  0  0  0  0  0  0  0  0
  140.6048  151.9239  169.4671 H   0  0  0  0  0  0  0  0  0  0  0  0
  141.4135  153.7389  170.2571 C   0  0  0  0  0  0  0  0  0  0  0  0
  141.9952  153.9493  171.6770 C   0  0  0  0  0  0  0  0  0  0  0  0
  142.1709  155.4165  172.0827 C   0  0  0  0  0  0  0  0  0  0  0  0
  142.4154  156.3509  170.9033 C   0  0  0  0  0  0  0  0  0  0  0  0
  143.1353  155.6314  169.7777 C   0  0  0  0  0  0  0  0  0  0  0  0
  142.3059  154.4717  169.2156 C   0  0  0  0  0  0  0  0  0  0  0  0
  139.9161  154.2301  170.2191 C   0  0  0  0  0  0  0  0  0  0  0  0
  139.5654  155.1641  169.4997 O   0  0  0  0  0  0  0  0  0  0  0  0
  139.0770  153.5465  171.0841 N   0  0  0  0  0  0  0  0  0  0  0  0
  139.5327  152.8617  171.6911 H   0  0  0  0  0  0  0  0  0  0  0  0
  137.6978  153.7308  171.2959 C   0  0  0  0  0  0  0  0  0  0  0  0
  137.3277  154.7556  172.1784 C   0  0  0  0  0  0  0  0  0  0  0  0
  135.9823  155.0203  172.4439 C   0  0  0  0  0  0  0  0  0  0  0  0
  134.9918  154.2587  171.8299 C   0  0  0  0  0  0  0  0  0  0  0  0
  135.3562  153.2371  170.9554 C   0  0  0  0  0  0  0  0  0  0  0  0
  134.0088  152.2023  170.1218 Br  0  0  0  0  0  0  0  0  0  0  0  0
  136.7006  152.9684  170.6861 C   0  0  0  0  0  0  0  0  0  0  0  0
  143.1317  149.0959  169.8220 C   0  0  0  0  0  0  0  0  0  0  0  0
  142.8164  147.9485  170.7905 C   0  0  0  0  0  0  0  0  0  0  0  0
  143.1441  148.2709  172.2173 C   0  0  0  0  0  0  0  0  0  0  0  0
  144.3788  148.1217  172.8197 C   0  0  0  0  0  0  0  0  0  0  0  0
  144.2733  148.5158  174.1251 N   0  0  0  0  0  0  0  0  0  0  0  0
  142.9865  148.9178  174.3967 C   0  0  0  0  0  0  0  0  0  0  0  0
  142.4230  149.3908  175.5879 C   0  0  0  0  0  0  0  0  0  0  0  0
  141.0692  149.7380  175.5715 C   0  0  0  0  0  0  0  0  0  0  0  0
  140.3123  149.6181  174.4088 C   0  0  0  0  0  0  0  0  0  0  0  0
  140.8916  149.1435  173.2261 C   0  0  0  0  0  0  0  0  0  0  0  0
  142.2550  148.7832  173.2158 C   0  0  0  0  0  0  0  0  0  0  0  0
  145.0297  148.5151  174.7956 H   0  0  0  0  0  0  0  0  0  0  0  0
  142.9530  153.4742  171.7192 H   0  0  0  0  0  0  0  0  0  0  0  0
  141.2877  153.5281  172.3603 H   0  0  0  0  0  0  0  0  0  0  0  0
  143.0061  155.4858  172.7479 H   0  0  0  0  0  0  0  0  0  0  0  0
  141.2564  155.7261  172.5439 H   0  0  0  0  0  0  0  0  0  0  0  0
  143.0131  157.1764  171.2293 H   0  0  0  0  0  0  0  0  0  0  0  0
  141.4695  156.6930  170.5384 H   0  0  0  0  0  0  0  0  0  0  0  0
  144.0610  155.2454  170.1506 H   0  0  0  0  0  0  0  0  0  0  0  0
  143.2996  156.3340  168.9876 H   0  0  0  0  0  0  0  0  0  0  0  0
  142.9795  153.7558  168.7930 H   0  0  0  0  0  0  0  0  0  0  0  0
  141.6383  154.9009  168.4980 H   0  0  0  0  0  0  0  0  0  0  0  0
  138.0586  155.3214  172.6375 H   0  0  0  0  0  0  0  0  0  0  0  0
  135.7230  155.7788  173.0938 H   0  0  0  0  0  0  0  0  0  0  0  0
  133.9957  154.4493  172.0209 H   0  0  0  0  0  0  0  0  0  0  0  0
  136.9557  152.2074  170.0374 H   0  0  0  0  0  0  0  0  0  0  0  0
  144.0731  149.5238  170.0969 H   0  0  0  0  0  0  0  0  0  0  0  0
  143.1506  148.6826  168.8352 H   0  0  0  0  0  0  0  0  0  0  0  0
  143.3843  147.0904  170.4970 H   0  0  0  0  0  0  0  0  0  0  0  0
  141.7625  147.7708  170.7394 H   0  0  0  0  0  0  0  0  0  0  0  0
  145.2352  147.7722  172.3621 H   0  0  0  0  0  0  0  0  0  0  0  0
  142.9871  149.4799  176.4474 H   0  0  0  0  0  0  0  0  0  0  0  0
  140.6239  150.0885  176.4340 H   0  0  0  0  0  0  0  0  0  0  0  0
  139.3146  149.8817  174.4191 H   0  0  0  0  0  0  0  0  0  0  0  0
  140.3250  149.0579  172.3678 H   0  0  0  0  0  0  0  0  0  0  0  0
  1  2  2  0
  2  3  1  0
  2  4  1  0
  3 24  1  0
  3  5  1  0
  4  7  1  0
  4  6  1  0
  7 13  1  0
  7  8  1  0
  8  9  1  0
  8 36  1  0
  8 37  1  0
  9 10  1  0
  9 38  1  0
  9 39  1  0
 10 11  1  0
 10 40  1  0
 10 41  1  0
 11 12  1  0
 11 42  1  0
 11 43  1  0
 12  7  1  0
 12 44  1  0
 12 45  1  0
 13 14  2  0
 13 15  1  0
 15 17  1  0
 15 16  1  0
 17 18  2  0
 18 19  1  0
 18 46  1  0
 19 20  2  0
 19 47  1  0
 20 21  1  0
 20 48  1  0
 21 22  1  0
 21 23  2  0
 23 17  1  0
 23 49  1  0
 24 25  1  0
 24 50  1  0
 24 51  1  0
 25 26  1  0
 25 52  1  0
 25 53  1  0
 26 27  2  0
 27 28  1  0
 27 54  1  0
 28 29  1  0
 28 35  1  0
 29 30  2  0
 30 31  1  0
 30 55  1  0
 31 32  2  0
 31 56  1  0
 32 33  1  0
 32 57  1  0
 33 34  2  0
 33 58  1  0
 34 26  1  0
 34 29  1  0
M  END
>  <minimizedAffinity>  (4) 
-9.54419

>  <mol_id>  (4) 
52263

>  <source_index>  (4) 
3

>  <layer>  (4) 
L2

>  <uniprot>  (4) 
Q8NER1

>  <paff>  (4) 
6.1661999999999999

>  <smiles>  (4) 
O=C(NCCc1c[nH]c2ccccc12)NC1(C(=O)Nc2cccc(Br)c2)CCCCC1

$$$$
L2:Q8NER1:62450
     RDKit          3D

 62 65  0  0  0  0  0  0  0  0999 V2000
  141.8828  153.6005  170.3549 C   0  0  0  0  0  0  0  0  0  0  0  0
  142.7716  154.3969  169.3686 C   0  0  0  0  0  0  0  0  0  0  0  0
  143.4594  155.6130  169.9966 C   0  0  0  0  0  0  0  0  0  0  0  0
  142.5463  156.3605  170.9570 C   0  0  0  0  0  0  0  0  0  0  0  0
  142.0412  155.4756  172.0966 C   0  0  0  0  0  0  0  0  0  0  0  0
  142.1868  153.9752  171.8240 C   0  0  0  0  0  0  0  0  0  0  0  0
  142.0223  152.1416  170.1093 N   0  0  0  0  0  0  0  0  0  0  0  0
  143.0942  151.3861  170.4943 C   0  0  0  0  0  0  0  0  0  0  0  0
  144.0494  151.8074  171.1288 O   0  0  0  0  0  0  0  0  0  0  0  0
  142.9625  150.0818  170.0994 N   0  0  0  0  0  0  0  0  0  0  0  0
  141.4388  151.7499  169.3835 H   0  0  0  0  0  0  0  0  0  0  0  0
  142.1403  149.7847  169.5993 H   0  0  0  0  0  0  0  0  0  0  0  0
  143.9904  149.0969  170.3869 C   0  0  0  0  0  0  0  0  0  0  0  0
  143.4796  147.9697  171.2879 C   0  0  0  0  0  0  0  0  0  0  0  0
  143.5336  148.3357  172.7366 C   0  0  0  0  0  0  0  0  0  0  0  0
  144.6313  148.2507  173.5707 C   0  0  0  0  0  0  0  0  0  0  0  0
  144.2582  148.6809  174.8161 N   0  0  0  0  0  0  0  0  0  0  0  0
  142.9341  149.0512  174.8163 C   0  0  0  0  0  0  0  0  0  0  0  0
  142.1352  149.5484  175.8531 C   0  0  0  0  0  0  0  0  0  0  0  0
  140.8004  149.8418  175.5584 C   0  0  0  0  0  0  0  0  0  0  0  0
  140.2879  149.6442  174.2785 C   0  0  0  0  0  0  0  0  0  0  0  0
  141.1004  149.1459  173.2539 C   0  0  0  0  0  0  0  0  0  0  0  0
  142.4507  148.8427  173.5249 C   0  0  0  0  0  0  0  0  0  0  0  0
  144.8625  148.7223  175.6248 H   0  0  0  0  0  0  0  0  0  0  0  0
  139.5407  153.0016  170.7983 N   0  0  0  0  0  0  0  0  0  0  0  0
  140.3592  153.8890  170.1038 C   0  0  0  0  0  0  0  0  0  0  0  0
  139.9663  154.8516  169.4528 O   0  0  0  0  0  0  0  0  0  0  0  0
  140.0308  152.3232  171.3715 H   0  0  0  0  0  0  0  0  0  0  0  0
  135.3224  152.9491  171.0330 C   0  0  0  0  0  0  0  0  0  0  0  0
  135.9639  152.2621  170.0016 C   0  0  0  0  0  0  0  0  0  0  0  0
  137.3597  152.2625  169.8945 C   0  0  0  0  0  0  0  0  0  0  0  0
  138.1349  152.9531  170.8234 C   0  0  0  0  0  0  0  0  0  0  0  0
  137.4905  153.6402  171.8595 C   0  0  0  0  0  0  0  0  0  0  0  0
  136.0932  153.6400  171.9648 C   0  0  0  0  0  0  0  0  0  0  0  0
  133.2605  153.8503  170.2671 C   0  0  0  0  0  0  0  0  0  0  0  0
  133.9586  152.8649  171.0175 O   0  0  0  0  0  0  0  0  0  0  0  0
  142.1576  154.7368  168.5609 H   0  0  0  0  0  0  0  0  0  0  0  0
  143.5468  153.7344  169.0445 H   0  0  0  0  0  0  0  0  0  0  0  0
  143.7581  156.2808  169.2157 H   0  0  0  0  0  0  0  0  0  0  0  0
  144.3025  155.2610  170.5535 H   0  0  0  0  0  0  0  0  0  0  0  0
  141.7037  156.7303  170.4110 H   0  0  0  0  0  0  0  0  0  0  0  0
  143.1147  157.1559  171.3918 H   0  0  0  0  0  0  0  0  0  0  0  0
  141.0054  155.6905  172.2572 H   0  0  0  0  0  0  0  0  0  0  0  0
  142.6425  155.6969  172.9536 H   0  0  0  0  0  0  0  0  0  0  0  0
  141.5085  153.4450  172.4594 H   0  0  0  0  0  0  0  0  0  0  0  0
  143.2046  153.7096  172.0201 H   0  0  0  0  0  0  0  0  0  0  0  0
  144.8073  149.5850  170.8761 H   0  0  0  0  0  0  0  0  0  0  0  0
  144.2948  148.6611  169.4583 H   0  0  0  0  0  0  0  0  0  0  0  0
  144.0840  147.1011  171.1292 H   0  0  0  0  0  0  0  0  0  0  0  0
  142.4568  147.7843  171.0340 H   0  0  0  0  0  0  0  0  0  0  0  0
  145.5711  147.9199  173.3016 H   0  0  0  0  0  0  0  0  0  0  0  0
  142.5178  149.6931  176.8006 H   0  0  0  0  0  0  0  0  0  0  0  0
  140.1854  150.2105  176.3006 H   0  0  0  0  0  0  0  0  0  0  0  0
  139.2993  149.8674  174.0839 H   0  0  0  0  0  0  0  0  0  0  0  0
  140.7146  149.0015  172.3077 H   0  0  0  0  0  0  0  0  0  0  0  0
  135.4010  151.7461  169.3075 H   0  0  0  0  0  0  0  0  0  0  0  0
  137.8162  151.7492  169.1244 H   0  0  0  0  0  0  0  0  0  0  0  0
  138.0528  154.1542  172.5556 H   0  0  0  0  0  0  0  0  0  0  0  0
  135.6345  154.1527  172.7341 H   0  0  0  0  0  0  0  0  0  0  0  0
  132.2077  153.6722  170.3368 H   0  0  0  0  0  0  0  0  0  0  0  0
  133.5638  153.7993  169.2422 H   0  0  0  0  0  0  0  0  0  0  0  0
  133.4846  154.8210  170.6575 H   0  0  0  0  0  0  0  0  0  0  0  0
  1  7  1  0
  1  2  1  0
  2  3  1  0
  2 37  1  0
  2 38  1  0
  3  4  1  0
  3 39  1  0
  3 40  1  0
  4  5  1  0
  4 41  1  0
  4 42  1  0
  5  6  1  0
  5 43  1  0
  5 44  1  0
  6  1  1  0
  6 45  1  0
  6 46  1  0
  7  8  1  0
  7 11  1  0
  8  9  2  0
  8 10  1  0
 10 13  1  0
 10 12  1  0
 13 14  1  0
 13 47  1  0
 13 48  1  0
 14 15  1  0
 14 49  1  0
 14 50  1  0
 15 16  2  0
 16 17  1  0
 16 51  1  0
 17 18  1  0
 17 24  1  0
 18 19  2  0
 19 20  1  0
 19 52  1  0
 20 21  2  0
 20 53  1  0
 21 22  1  0
 21 54  1  0
 22 23  2  0
 22 55  1  0
 23 15  1  0
 23 18  1  0
 25 26  1  0
 25 28  1  0
 26 27  2  0
 26  1  1  0
 29 30  2  0
 30 31  1  0
 30 56  1  0
 31 32  2  0
 31 57  1  0
 32 25  1  0
 32 33  1  0
 33 34  2  0
 33 58  1  0
 34 29  1  0
 34 59  1  0
 35 36  1  0
 35 60  1  0
 35 61  1  0
 35 62  1  0
 36 29  1  0
M  END
>  <minimizedAffinity>  (5) 
-9.50760

>  <mol_id>  (5) 
62450

>  <source_index>  (5) 
4

>  <layer>  (5) 
L2

>  <uniprot>  (5) 
Q8NER1

>  <paff>  (5) 
6.0297000000000001

>  <smiles>  (5) 
COc1ccc(NC(=O)C2(NC(=O)NCCc3c[nH]c4ccccc34)CCCCC2)cc1

$$$$
L2:Q8NER1:119254
     RDKit          3D

 50 52  0  0  0  0  0  0  0  0999 V2000
  144.3513  150.4229  172.6147 C   0  0  0  0  0  0  0  0  0  0  0  0
  143.8795  150.6743  174.0680 C   0  0  0  0  0  0  0  0  0  0  0  0
  142.3933  150.3794  174.2726 C   0  0  0  0  0  0  0  0  0  0  0  0
  142.0385  148.9576  173.8555 C   0  0  0  0  0  0  0  0  0  0  0  0
  142.4822  148.6643  172.4281 C   0  0  0  0  0  0  0  0  0  0  0  0
  143.9680  148.9681  172.2273 C   0  0  0  0  0  0  0  0  0  0  0  0
  145.1362  153.1230  171.7708 O   0  0  0  0  0  0  0  0  0  0  0  0
  144.1378  152.5897  171.3032 C   0  0  0  0  0  0  0  0  0  0  0  0
  143.7215  151.3342  171.6344 N   0  0  0  0  0  0  0  0  0  0  0  0
  142.9346  150.9947  171.0966 H   0  0  0  0  0  0  0  0  0  0  0  0
  143.2875  153.1177  170.3505 O   0  0  0  0  0  0  0  0  0  0  0  0
  142.8290  154.3946  170.6779 C   0  0  0  0  0  0  0  0  0  0  0  0
  141.9725  154.5607  171.7655 C   0  0  0  0  0  0  0  0  0  0  0  0
  141.5527  155.8450  172.1085 C   0  0  0  0  0  0  0  0  0  0  0  0
  142.0017  156.9460  171.3751 C   0  0  0  0  0  0  0  0  0  0  0  0
  142.8754  156.7673  170.2995 C   0  0  0  0  0  0  0  0  0  0  0  0
  143.2989  155.4860  169.9501 C   0  0  0  0  0  0  0  0  0  0  0  0
  145.9149  150.5647  172.5299 C   0  0  0  0  0  0  0  0  0  0  0  0
  146.5631  149.9707  171.6701 O   0  0  0  0  0  0  0  0  0  0  0  0
  146.4584  151.3780  173.5112 N   0  0  0  0  0  0  0  0  0  0  0  0
  145.7910  151.8351  174.1348 H   0  0  0  0  0  0  0  0  0  0  0  0
  147.8114  151.6974  173.7322 C   0  0  0  0  0  0  0  0  0  0  0  0
  148.5985  152.4359  172.8493 C   0  0  0  0  0  0  0  0  0  0  0  0
  149.9348  152.7120  173.1528 C   0  0  0  0  0  0  0  0  0  0  0  0
  150.4967  152.2505  174.3418 C   0  0  0  0  0  0  0  0  0  0  0  0
  149.7276  151.4997  175.2398 C   0  0  0  0  0  0  0  0  0  0  0  0
  148.3834  151.2341  174.9250 C   0  0  0  0  0  0  0  0  0  0  0  0
  150.3099  151.0102  176.5410 C   0  0  0  0  0  0  0  0  0  0  0  0
  151.1878  151.8994  177.0824 F   0  0  0  0  0  0  0  0  0  0  0  0
  150.9933  149.8373  176.4215 F   0  0  0  0  0  0  0  0  0  0  0  0
  149.3633  150.7906  177.4959 F   0  0  0  0  0  0  0  0  0  0  0  0
  144.0605  151.7001  174.3127 H   0  0  0  0  0  0  0  0  0  0  0  0
  144.4281  150.0098  174.7023 H   0  0  0  0  0  0  0  0  0  0  0  0
  141.8195  151.0662  173.6862 H   0  0  0  0  0  0  0  0  0  0  0  0
  142.1722  150.4866  175.3140 H   0  0  0  0  0  0  0  0  0  0  0  0
  140.9782  148.8305  173.9225 H   0  0  0  0  0  0  0  0  0  0  0  0
  142.5468  148.2804  174.5096 H   0  0  0  0  0  0  0  0  0  0  0  0
  141.9101  149.2685  171.7554 H   0  0  0  0  0  0  0  0  0  0  0  0
  142.3240  147.6238  172.2353 H   0  0  0  0  0  0  0  0  0  0  0  0
  144.2104  148.8153  171.1964 H   0  0  0  0  0  0  0  0  0  0  0  0
  144.5171  148.3120  172.8699 H   0  0  0  0  0  0  0  0  0  0  0  0
  141.6536  153.7437  172.3094 H   0  0  0  0  0  0  0  0  0  0  0  0
  140.9102  155.9825  172.9043 H   0  0  0  0  0  0  0  0  0  0  0  0
  141.6867  157.8954  171.6289 H   0  0  0  0  0  0  0  0  0  0  0  0
  143.2074  157.5843  169.7635 H   0  0  0  0  0  0  0  0  0  0  0  0
  143.9517  155.3476  169.1629 H   0  0  0  0  0  0  0  0  0  0  0  0
  148.1917  152.7810  171.9658 H   0  0  0  0  0  0  0  0  0  0  0  0
  150.5083  153.2604  172.4930 H   0  0  0  0  0  0  0  0  0  0  0  0
  151.4825  152.4627  174.5612 H   0  0  0  0  0  0  0  0  0  0  0  0
  147.8072  150.6879  175.5843 H   0  0  0  0  0  0  0  0  0  0  0  0
  1 18  1  0
  1  2  1  0
  2  3  1  0
  2 32  1  0
  2 33  1  0
  3  4  1  0
  3 34  1  0
  3 35  1  0
  4  5  1  0
  4 36  1  0
  4 37  1  0
  5  6  1  0
  5 38  1  0
  5 39  1  0
  6  1  1  0
  6 40  1  0
  6 41  1  0
  7  8  2  0
  8  9  1  0
  8 11  1  0
  9  1  1  0
  9 10  1  0
 11 12  1  0
 12 13  2  0
 13 14  1  0
 13 42  1  0
 14 15  2  0
 14 43  1  0
 15 16  1  0
 15 44  1  0
 16 17  2  0
 16 45  1  0
 17 12  1  0
 17 46  1  0
 18 19  2  0
 18 20  1  0
 20 22  1  0
 20 21  1  0
 22 23  2  0
 23 24  1  0
 23 47  1  0
 24 25  2  0
 24 48  1  0
 25 26  1  0
 25 49  1  0
 26 28  1  0
 26 27  2  0
 27 22  1  0
 27 50  1  0
 28 29  1  0
 28 30  1  0
 28 31  1  0
M  END
>  <minimizedAffinity>  (6) 
-9.23689

>  <mol_id>  (6) 
119254

>  <source_index>  (6) 
5

>  <layer>  (6) 
L2

>  <uniprot>  (6) 
Q8NER1

>  <paff>  (6) 
6.4044999999999996

>  <smiles>  (6) 
O=C(NC1(C(=O)Nc2cccc(C(F)(F)F)c2)CCCCC1)Oc1ccccc1

$$$$
L2:Q8NER1:125391
     RDKit          3D

 47 49  0  0  0  0  0  0  0  0999 V2000
  142.2975  150.8222  172.5595 C   0  0  0  0  0  0  0  0  0  0  0  0
  141.2663  149.7678  172.0881 C   0  0  0  0  0  0  0  0  0  0  0  0
  140.9460  148.6619  173.0898 C   0  0  0  0  0  0  0  0  0  0  0  0
  140.6767  149.2113  174.4815 C   0  0  0  0  0  0  0  0  0  0  0  0
  141.8595  150.0162  174.9955 C   0  0  0  0  0  0  0  0  0  0  0  0
  142.2152  151.1725  174.0653 C   0  0  0  0  0  0  0  0  0  0  0  0
  145.0036  151.8321  173.4190 O   0  0  0  0  0  0  0  0  0  0  0  0
  144.8598  150.9459  172.5926 C   0  0  0  0  0  0  0  0  0  0  0  0
  143.6707  150.4488  172.1652 N   0  0  0  0  0  0  0  0  0  0  0  0
  143.7428  149.7096  171.4687 H   0  0  0  0  0  0  0  0  0  0  0  0
  145.8804  150.2790  171.9319 O   0  0  0  0  0  0  0  0  0  0  0  0
  145.9006  148.8975  172.1446 C   0  0  0  0  0  0  0  0  0  0  0  0
  145.6481  148.3786  173.4137 C   0  0  0  0  0  0  0  0  0  0  0  0
  145.6214  146.9957  173.5893 C   0  0  0  0  0  0  0  0  0  0  0  0
  145.8310  146.1484  172.4985 C   0  0  0  0  0  0  0  0  0  0  0  0
  146.0638  146.6808  171.2280 C   0  0  0  0  0  0  0  0  0  0  0  0
  146.0925  148.0628  171.0456 C   0  0  0  0  0  0  0  0  0  0  0  0
  142.0568  152.1485  171.7326 C   0  0  0  0  0  0  0  0  0  0  0  0
  141.4673  152.1017  170.6500 O   0  0  0  0  0  0  0  0  0  0  0  0
  142.5497  153.3050  172.3183 N   0  0  0  0  0  0  0  0  0  0  0  0
  143.0156  153.2063  173.2116 H   0  0  0  0  0  0  0  0  0  0  0  0
  142.4836  154.6232  171.8193 C   0  0  0  0  0  0  0  0  0  0  0  0
  143.2721  155.1093  170.7743 C   0  0  0  0  0  0  0  0  0  0  0  0
  143.1414  156.4343  170.3406 C   0  0  0  0  0  0  0  0  0  0  0  0
  142.2198  157.2784  170.9526 C   0  0  0  0  0  0  0  0  0  0  0  0
  142.0447  159.0659  170.3663 Br  0  0  0  0  0  0  0  0  0  0  0  0
  141.4263  156.8103  171.9952 C   0  0  0  0  0  0  0  0  0  0  0  0
  141.5594  155.4864  172.4257 C   0  0  0  0  0  0  0  0  0  0  0  0
  141.6488  149.3074  171.2012 H   0  0  0  0  0  0  0  0  0  0  0  0
  140.3507  150.3012  171.9396 H   0  0  0  0  0  0  0  0  0  0  0  0
  141.7771  147.9897  173.1391 H   0  0  0  0  0  0  0  0  0  0  0  0
  140.0611  148.1614  172.7562 H   0  0  0  0  0  0  0  0  0  0  0  0
  140.4938  148.3953  175.1491 H   0  0  0  0  0  0  0  0  0  0  0  0
  139.8250  149.8570  174.4309 H   0  0  0  0  0  0  0  0  0  0  0  0
  142.7069  149.3684  175.0802 H   0  0  0  0  0  0  0  0  0  0  0  0
  141.5894  150.4286  175.9452 H   0  0  0  0  0  0  0  0  0  0  0  0
  143.1680  151.5553  174.3663 H   0  0  0  0  0  0  0  0  0  0  0  0
  141.4154  151.8773  174.1574 H   0  0  0  0  0  0  0  0  0  0  0  0
  145.4830  149.0101  174.2131 H   0  0  0  0  0  0  0  0  0  0  0  0
  145.4467  146.5979  174.5254 H   0  0  0  0  0  0  0  0  0  0  0  0
  145.8138  145.1252  172.6317 H   0  0  0  0  0  0  0  0  0  0  0  0
  146.2145  146.0511  170.4244 H   0  0  0  0  0  0  0  0  0  0  0  0
  146.2539  148.4626  170.1080 H   0  0  0  0  0  0  0  0  0  0  0  0
  143.9570  154.4867  170.3178 H   0  0  0  0  0  0  0  0  0  0  0  0
  143.7283  156.7847  169.5674 H   0  0  0  0  0  0  0  0  0  0  0  0
  140.7430  157.4369  172.4485 H   0  0  0  0  0  0  0  0  0  0  0  0
  140.9703  155.1403  173.1991 H   0  0  0  0  0  0  0  0  0  0  0  0
  1 18  1  0
  1  2  1  0
  2  3  1  0
  2 29  1  0
  2 30  1  0
  3  4  1  0
  3 31  1  0
  3 32  1  0
  4  5  1  0
  4 33  1  0
  4 34  1  0
  5  6  1  0
  5 35  1  0
  5 36  1  0
  6  1  1  0
  6 37  1  0
  6 38  1  0
  7  8  2  0
  8  9  1  0
  8 11  1  0
  9  1  1  0
  9 10  1  0
 11 12  1  0
 12 13  2  0
 13 14  1  0
 13 39  1  0
 14 15  2  0
 14 40  1  0
 15 16  1  0
 15 41  1  0
 16 17  2  0
 16 42  1  0
 17 12  1  0
 17 43  1  0
 18 19  2  0
 18 20  1  0
 20 22  1  0
 20 21  1  0
 22 23  2  0
 23 24  1  0
 23 44  1  0
 24 25  2  0
 24 45  1  0
 25 26  1  0
 25 27  1  0
 27 28  2  0
 27 46  1  0
 28 22  1  0
 28 47  1  0
M  END
>  <minimizedAffinity>  (7) 
-9.07439

>  <mol_id>  (7) 
125391

>  <source_index>  (7) 
6

>  <layer>  (7) 
L2

>  <uniprot>  (7) 
Q8NER1

>  <paff>  (7) 
6.3497000000000003

>  <smiles>  (7) 
O=C(NC1(C(=O)Nc2ccc(Br)cc2)CCCCC1)Oc1ccccc1

$$$$
L2:Q8NER1:131041
     RDKit          3D

 47 50  0  0  0  0  0  0  0  0999 V2000
  145.6371  147.5340  173.6637 C   0  0  0  0  0  0  0  0  0  0  0  0
  145.8135  148.9988  173.5793 C   0  0  0  0  0  0  0  0  0  0  0  0
  146.9578  149.5854  174.0773 N   0  0  0  0  0  0  0  0  0  0  0  0
  146.8026  150.8683  173.8352 C   0  0  0  0  0  0  0  0  0  0  0  0
  145.6396  151.1680  173.1886 O   0  0  0  0  0  0  0  0  0  0  0  0
  144.9935  149.9695  173.0347 C   0  0  0  0  0  0  0  0  0  0  0  0
  143.6928  150.0254  172.3800 C   0  0  0  0  0  0  0  0  0  0  0  0
  143.4056  149.2314  171.2623 C   0  0  0  0  0  0  0  0  0  0  0  0
  142.1533  149.2928  170.6386 C   0  0  0  0  0  0  0  0  0  0  0  0
  141.1533  150.1462  171.1243 C   0  0  0  0  0  0  0  0  0  0  0  0
  141.4370  150.9460  172.2385 C   0  0  0  0  0  0  0  0  0  0  0  0
  142.6891  150.8812  172.8594 C   0  0  0  0  0  0  0  0  0  0  0  0
  139.8116  150.2286  170.4383 C   0  0  0  0  0  0  0  0  0  0  0  0
  139.8644  149.9041  169.1161 F   0  0  0  0  0  0  0  0  0  0  0  0
  139.2604  151.4736  170.4924 F   0  0  0  0  0  0  0  0  0  0  0  0
  138.8946  149.3897  170.9936 F   0  0  0  0  0  0  0  0  0  0  0  0
  147.6849  151.8452  174.1060 N   0  0  0  0  0  0  0  0  0  0  0  0
  147.3796  152.7710  173.8388 H   0  0  0  0  0  0  0  0  0  0  0  0
  148.9910  151.7783  174.6333 C   0  0  0  0  0  0  0  0  0  0  0  0
  149.2412  151.3446  175.9445 C   0  0  0  0  0  0  0  0  0  0  0  0
  150.5346  151.2965  176.4629 C   0  0  0  0  0  0  0  0  0  0  0  0
  151.6115  151.6852  175.6773 C   0  0  0  0  0  0  0  0  0  0  0  0
  151.4081  152.1286  174.3644 C   0  0  0  0  0  0  0  0  0  0  0  0
  150.0937  152.2051  173.8454 C   0  0  0  0  0  0  0  0  0  0  0  0
  149.8731  152.7064  172.4307 C   0  0  0  0  0  0  0  0  0  0  0  0
  151.0678  153.4453  171.8246 C   0  0  2  0  0  0  0  0  0  0  0  0
  150.8598  153.5882  170.4208 O   0  0  0  0  0  0  0  0  0  0  0  0
  152.3511  152.6680  172.0740 C   0  0  0  0  0  0  0  0  0  0  0  0
  152.6146  152.5677  173.5696 C   0  0  0  0  0  0  0  0  0  0  0  0
  151.6152  154.0845  170.0614 H   0  0  0  0  0  0  0  0  0  0  0  0
  146.4822  147.1008  174.1567 H   0  0  0  0  0  0  0  0  0  0  0  0
  145.5524  147.1275  172.6775 H   0  0  0  0  0  0  0  0  0  0  0  0
  144.7489  147.3131  174.2180 H   0  0  0  0  0  0  0  0  0  0  0  0
  144.1270  148.5923  170.8933 H   0  0  0  0  0  0  0  0  0  0  0  0
  141.9648  148.7035  169.8127 H   0  0  0  0  0  0  0  0  0  0  0  0
  140.7168  151.5882  172.6044 H   0  0  0  0  0  0  0  0  0  0  0  0
  142.8778  151.4727  173.6838 H   0  0  0  0  0  0  0  0  0  0  0  0
  148.4491  151.0544  176.5390 H   0  0  0  0  0  0  0  0  0  0  0  0
  150.6915  150.9722  177.4300 H   0  0  0  0  0  0  0  0  0  0  0  0
  152.5679  151.6471  176.0632 H   0  0  0  0  0  0  0  0  0  0  0  0
  149.0370  153.3740  172.4395 H   0  0  0  0  0  0  0  0  0  0  0  0
  149.7115  151.8405  171.8233 H   0  0  0  0  0  0  0  0  0  0  0  0
  151.1572  154.4086  172.2816 H   0  0  0  0  0  0  0  0  0  0  0  0
  153.1686  153.1726  171.6029 H   0  0  0  0  0  0  0  0  0  0  0  0
  152.2508  151.6833  171.6675 H   0  0  0  0  0  0  0  0  0  0  0  0
  152.9228  153.5289  173.9246 H   0  0  0  0  0  0  0  0  0  0  0  0
  153.3708  151.8233  173.7073 H   0  0  0  0  0  0  0  0  0  0  0  0
  1  2  1  0
  1 31  1  0
  1 32  1  0
  1 33  1  0
  2  3  1  0
  3  4  2  0
  4 17  1  0
  4  5  1  0
  5  6  1  0
  6  7  1  0
  6  2  2  0
  7  8  2  0
  8  9  1  0
  8 34  1  0
  9 10  2  0
  9 35  1  0
 10 13  1  0
 10 11  1  0
 11 12  2  0
 11 36  1  0
 12  7  1  0
 12 37  1  0
 13 14  1  0
 13 15  1  0
 13 16  1  0
 17 19  1  0
 17 18  1  0
 19 20  2  0
 20 21  1  0
 20 38  1  0
 21 22  2  0
 21 39  1  0
 22 23  1  0
 22 40  1  0
 23 24  2  0
 24 25  1  0
 24 19  1  0
 25 26  1  0
 25 41  1  0
 25 42  1  0
 26 27  1  0
 26 28  1  0
 26 43  1  1
 27 30  1  0
 28 29  1  0
 28 44  1  0
 28 45  1  0
 29 23  1  0
 29 46  1  0
 29 47  1  0
M  END
>  <minimizedAffinity>  (8) 
-9.98308

>  <mol_id>  (8) 
131041

>  <source_index>  (8) 
7

>  <layer>  (8) 
L2

>  <uniprot>  (8) 
Q8NER1

>  <paff>  (8) 
7.8239000000000001

>  <smiles>  (8) 
Cc1nc(Nc2cccc3CC[C@@H](O)Cc23)oc1-c1ccc(cc1)C(F)(F)F |r|

$$$$
L2:Q8NER1:132261
     RDKit          3D

 61 64  0  0  0  0  0  0  0  0999 V2000
  143.1750  154.4475  170.7621 C   0  0  0  0  0  0  0  0  0  0  0  0
  142.5223  154.7168  172.1527 C   0  0  0  0  0  0  0  0  0  0  0  0
  141.8789  156.0984  172.3147 C   0  0  0  0  0  0  0  0  0  0  0  0
  141.3489  156.6588  171.0072 C   0  0  0  0  0  0  0  0  0  0  0  0
  142.4471  156.7769  169.9547 C   0  0  0  0  0  0  0  0  0  0  0  0
  143.6110  155.7998  170.1547 C   0  0  0  0  0  0  0  0  0  0  0  0
  143.4568  152.2571  172.6803 O   0  0  0  0  0  0  0  0  0  0  0  0
  144.3693  152.5161  171.9051 C   0  0  0  0  0  0  0  0  0  0  0  0
  145.5616  151.8523  171.8877 N   0  0  0  0  0  0  0  0  0  0  0  0
  144.3281  153.5382  171.0044 N   0  0  0  0  0  0  0  0  0  0  0  0
  146.2254  152.0332  171.1507 H   0  0  0  0  0  0  0  0  0  0  0  0
  145.2173  153.8333  170.6300 H   0  0  0  0  0  0  0  0  0  0  0  0
  145.8602  150.8167  172.8615 C   0  0  0  0  0  0  0  0  0  0  0  0
  145.5332  149.4223  172.3208 C   0  0  0  0  0  0  0  0  0  0  0  0
  144.0645  149.2021  172.1596 C   0  0  0  0  0  0  0  0  0  0  0  0
  143.3837  148.9756  170.9796 C   0  0  0  0  0  0  0  0  0  0  0  0
  142.0568  148.8095  171.2755 N   0  0  0  0  0  0  0  0  0  0  0  0
  141.8517  148.9241  172.6304 C   0  0  0  0  0  0  0  0  0  0  0  0
  140.6724  148.8226  173.3781 C   0  0  0  0  0  0  0  0  0  0  0  0
  140.7685  148.9802  174.7643 C   0  0  0  0  0  0  0  0  0  0  0  0
  141.9946  149.2333  175.3747 C   0  0  0  0  0  0  0  0  0  0  0  0
  143.1627  149.3363  174.6115 C   0  0  0  0  0  0  0  0  0  0  0  0
  143.0939  149.1744  173.2123 C   0  0  0  0  0  0  0  0  0  0  0  0
  141.3276  148.6216  170.6019 H   0  0  0  0  0  0  0  0  0  0  0  0
  142.1609  153.7040  169.8091 C   0  0  0  0  0  0  0  0  0  0  0  0
  142.2758  153.7484  168.5857 O   0  0  0  0  0  0  0  0  0  0  0  0
  141.1735  153.0062  170.4843 N   0  0  0  0  0  0  0  0  0  0  0  0
  141.1631  153.1294  171.4991 H   0  0  0  0  0  0  0  0  0  0  0  0
  140.1425  152.2076  169.9586 C   0  0  0  0  0  0  0  0  0  0  0  0
  140.3497  151.0414  169.2239 C   0  0  0  0  0  0  0  0  0  0  0  0
  139.2621  150.3105  168.7372 C   0  0  0  0  0  0  0  0  0  0  0  0
  137.9585  150.7392  168.9841 C   0  0  0  0  0  0  0  0  0  0  0  0
  137.7270  151.9034  169.7285 C   0  0  0  0  0  0  0  0  0  0  0  0
  138.8294  152.6319  170.2054 C   0  0  0  0  0  0  0  0  0  0  0  0
  136.3201  152.3826  169.9809 C   0  0  0  0  0  0  0  0  0  0  0  0
  135.3758  151.5196  169.5099 F   0  0  0  0  0  0  0  0  0  0  0  0
  136.0630  153.5778  169.3829 F   0  0  0  0  0  0  0  0  0  0  0  0
  136.0351  152.5535  171.3027 F   0  0  0  0  0  0  0  0  0  0  0  0
  143.2814  154.6154  172.8999 H   0  0  0  0  0  0  0  0  0  0  0  0
  141.7285  154.0061  172.2509 H   0  0  0  0  0  0  0  0  0  0  0  0
  142.6125  156.7735  172.7033 H   0  0  0  0  0  0  0  0  0  0  0  0
  141.0470  155.9899  172.9789 H   0  0  0  0  0  0  0  0  0  0  0  0
  140.9368  157.6295  171.1882 H   0  0  0  0  0  0  0  0  0  0  0  0
  140.6031  155.9875  170.6357 H   0  0  0  0  0  0  0  0  0  0  0  0
  142.8357  157.7734  169.9844 H   0  0  0  0  0  0  0  0  0  0  0  0
  141.9999  156.5365  169.0128 H   0  0  0  0  0  0  0  0  0  0  0  0
  144.3256  156.2521  170.8102 H   0  0  0  0  0  0  0  0  0  0  0  0
  144.0234  155.5956  169.1887 H   0  0  0  0  0  0  0  0  0  0  0  0
  145.2801  150.9918  173.7434 H   0  0  0  0  0  0  0  0  0  0  0  0
  146.9073  150.8540  173.0787 H   0  0  0  0  0  0  0  0  0  0  0  0
  145.9172  148.6914  173.0014 H   0  0  0  0  0  0  0  0  0  0  0  0
  145.9836  149.3342  171.3542 H   0  0  0  0  0  0  0  0  0  0  0  0
  143.8026  148.9380  170.0372 H   0  0  0  0  0  0  0  0  0  0  0  0
  139.7649  148.6381  172.9227 H   0  0  0  0  0  0  0  0  0  0  0  0
  139.9178  148.9079  175.3440 H   0  0  0  0  0  0  0  0  0  0  0  0
  142.0419  149.3459  176.3994 H   0  0  0  0  0  0  0  0  0  0  0  0
  144.0675  149.5292  175.0689 H   0  0  0  0  0  0  0  0  0  0  0  0
  141.3112  150.7158  169.0382 H   0  0  0  0  0  0  0  0  0  0  0  0
  139.4248  149.4493  168.1924 H   0  0  0  0  0  0  0  0  0  0  0  0
  137.1609  150.1968  168.6171 H   0  0  0  0  0  0  0  0  0  0  0  0
  138.6696  153.4954  170.7475 H   0  0  0  0  0  0  0  0  0  0  0  0
  1 25  1  0
  1  2  1  0
  2  3  1  0
  2 39  1  0
  2 40  1  0
  3  4  1  0
  3 41  1  0
  3 42  1  0
  4  5  1  0
  4 43  1  0
  4 44  1  0
  5  6  1  0
  5 45  1  0
  5 46  1  0
  6  1  1  0
  6 47  1  0
  6 48  1  0
  7  8  2  0
  8  9  1  0
  8 10  1  0
  9 13  1  0
  9 11  1  0
 10  1  1  0
 10 12  1  0
 13 14  1  0
 13 49  1  0
 13 50  1  0
 14 15  1  0
 14 51  1  0
 14 52  1  0
 15 16  2  0
 16 17  1  0
 16 53  1  0
 17 18  1  0
 17 24  1  0
 18 19  2  0
 19 20  1  0
 19 54  1  0
 20 21  2  0
 20 55  1  0
 21 22  1  0
 21 56  1  0
 22 23  2  0
 22 57  1  0
 23 15  1  0
 23 18  1  0
 25 26  2  0
 25 27  1  0
 27 29  1  0
 27 28  1  0
 29 30  2  0
 30 31  1  0
 30 58  1  0
 31 32  2  0
 31 59  1  0
 32 33  1  0
 32 60  1  0
 33 35  1  0
 33 34  2  0
 34 29  1  0
 34 61  1  0
 35 36  1  0
 35 37  1  0
 35 38  1  0
M  END
>  <minimizedAffinity>  (9) 
-10.15633

>  <mol_id>  (9) 
132261

>  <source_index>  (9) 
8

>  <layer>  (9) 
L2

>  <uniprot>  (9) 
Q8NER1

>  <paff>  (9) 
6.202

>  <smiles>  (9) 
O=C(NCCc1c[nH]c2ccccc12)NC1(C(=O)Nc2cccc(C(F)(F)F)c2)CCCCC1

$$$$
L2:Q8NER1:140296
     RDKit          3D

 62 65  0  0  0  0  0  0  0  0999 V2000
  140.0178  149.8347  174.0691 N   0  0  0  0  0  0  0  0  0  0  0  0
  139.7986  150.2912  172.8039 C   0  0  0  0  0  0  0  0  0  0  0  0
  140.4359  149.9278  171.8237 O   0  0  0  0  0  0  0  0  0  0  0  0
  138.8006  151.2177  172.7551 N   0  0  0  0  0  0  0  0  0  0  0  0
  139.3591  150.0625  174.7998 H   0  0  0  0  0  0  0  0  0  0  0  0
  138.5355  151.6282  173.6387 H   0  0  0  0  0  0  0  0  0  0  0  0
  138.2919  151.8945  171.5324 C   0  0  0  0  0  0  0  0  0  0  0  0
  136.8560  152.3803  171.8737 C   0  0  0  0  0  0  0  0  0  0  0  0
  136.0555  152.8951  170.6780 C   0  0  0  0  0  0  0  0  0  0  0  0
  136.0335  151.8884  169.5384 C   0  0  0  0  0  0  0  0  0  0  0  0
  137.4451  151.4897  169.1367 C   0  0  0  0  0  0  0  0  0  0  0  0
  138.2313  150.9297  170.3213 C   0  0  0  0  0  0  0  0  0  0  0  0
  139.2270  153.1246  171.2400 C   0  0  0  0  0  0  0  0  0  0  0  0
  138.8273  154.2789  171.3815 O   0  0  0  0  0  0  0  0  0  0  0  0
  140.4981  152.7723  170.8177 N   0  0  0  0  0  0  0  0  0  0  0  0
  140.7156  151.7745  170.8442 H   0  0  0  0  0  0  0  0  0  0  0  0
  141.5505  153.6148  170.4132 C   0  0  0  0  0  0  0  0  0  0  0  0
  141.8728  153.8856  169.0829 C   0  0  0  0  0  0  0  0  0  0  0  0
  142.9417  154.7330  168.7719 C   0  0  0  0  0  0  0  0  0  0  0  0
  143.6967  155.3144  169.7881 C   0  0  0  0  0  0  0  0  0  0  0  0
  143.3845  155.0489  171.1184 C   0  0  0  0  0  0  0  0  0  0  0  0
  142.3170  154.2026  171.4284 C   0  0  0  0  0  0  0  0  0  0  0  0
  141.0346  148.8427  174.3708 C   0  0  0  0  0  0  0  0  0  0  0  0
  142.3466  149.4748  174.8465 C   0  0  0  0  0  0  0  0  0  0  0  0
  145.2632  146.7978  172.2986 C   0  0  0  0  0  0  0  0  0  0  0  0
  145.9671  147.5456  171.3538 C   0  0  0  0  0  0  0  0  0  0  0  0
  145.7736  148.9235  171.2157 C   0  0  0  0  0  0  0  0  0  0  0  0
  144.8462  149.5309  172.0668 C   0  0  0  0  0  0  0  0  0  0  0  0
  144.4521  150.8452  172.1506 N   0  0  0  0  0  0  0  0  0  0  0  0
  143.5195  150.9970  173.1403 C   0  0  0  0  0  0  0  0  0  0  0  0
  143.2895  149.7616  173.7152 C   0  0  0  0  0  0  0  0  0  0  0  0
  144.1266  148.8220  173.0280 C   0  0  0  0  0  0  0  0  0  0  0  0
  144.3409  147.4287  173.1424 C   0  0  0  0  0  0  0  0  0  0  0  0
  144.8046  151.5873  171.5619 H   0  0  0  0  0  0  0  0  0  0  0  0
  146.7258  145.0665  171.5804 C   0  0  0  0  0  0  0  0  0  0  0  0
  145.5660  145.4618  172.3007 O   0  0  0  0  0  0  0  0  0  0  0  0
  136.9332  153.1722  172.5891 H   0  0  0  0  0  0  0  0  0  0  0  0
  136.3285  151.5270  172.2460 H   0  0  0  0  0  0  0  0  0  0  0  0
  136.4997  153.8038  170.3290 H   0  0  0  0  0  0  0  0  0  0  0  0
  135.0475  153.0582  170.9976 H   0  0  0  0  0  0  0  0  0  0  0  0
  135.5398  152.3248  168.6954 H   0  0  0  0  0  0  0  0  0  0  0  0
  135.5122  151.0134  169.8663 H   0  0  0  0  0  0  0  0  0  0  0  0
  137.9546  152.3511  168.7581 H   0  0  0  0  0  0  0  0  0  0  0  0
  137.3771  150.7264  168.3899 H   0  0  0  0  0  0  0  0  0  0  0  0
  139.2313  150.7270  169.9991 H   0  0  0  0  0  0  0  0  0  0  0  0
  137.7238  150.0459  170.6472 H   0  0  0  0  0  0  0  0  0  0  0  0
  141.3194  153.4583  168.3239 H   0  0  0  0  0  0  0  0  0  0  0  0
  143.1719  154.9283  167.7851 H   0  0  0  0  0  0  0  0  0  0  0  0
  144.4843  155.9394  169.5556 H   0  0  0  0  0  0  0  0  0  0  0  0
  143.9410  155.4768  171.8749 H   0  0  0  0  0  0  0  0  0  0  0  0
  142.0904  154.0081  172.4163 H   0  0  0  0  0  0  0  0  0  0  0  0
  140.6662  148.1964  175.1399 H   0  0  0  0  0  0  0  0  0  0  0  0
  141.2409  148.3035  173.4699 H   0  0  0  0  0  0  0  0  0  0  0  0
  142.1230  150.3931  175.3481 H   0  0  0  0  0  0  0  0  0  0  0  0
  142.8259  148.7762  175.5001 H   0  0  0  0  0  0  0  0  0  0  0  0
  146.6478  147.0695  170.7414 H   0  0  0  0  0  0  0  0  0  0  0  0
  146.2951  149.4705  170.5129 H   0  0  0  0  0  0  0  0  0  0  0  0
  143.0653  151.8832  173.4113 H   0  0  0  0  0  0  0  0  0  0  0  0
  143.8202  146.8798  173.8442 H   0  0  0  0  0  0  0  0  0  0  0  0
  146.8509  144.0068  171.6596 H   0  0  0  0  0  0  0  0  0  0  0  0
  147.5840  145.5584  171.9884 H   0  0  0  0  0  0  0  0  0  0  0  0
  146.6157  145.3367  170.5510 H   0  0  0  0  0  0  0  0  0  0  0  0
  1  2  1  0
  1  5  1  0
  2  3  2  0
  2  4  1  0
  4  7  1  0
  4  6  1  0
  7 13  1  0
  7  8  1  0
  8  9  1  0
  8 37  1  0
  8 38  1  0
  9 10  1  0
  9 39  1  0
  9 40  1  0
 10 11  1  0
 10 41  1  0
 10 42  1  0
 11 12  1  0
 11 43  1  0
 11 44  1  0
 12  7  1  0
 12 45  1  0
 12 46  1  0
 13 14  2  0
 13 15  1  0
 15 17  1  0
 15 16  1  0
 17 18  2  0
 18 19  1  0
 18 47  1  0
 19 20  2  0
 19 48  1  0
 20 21  1  0
 20 49  1  0
 21 22  2  0
 21 50  1  0
 22 17  1  0
 22 51  1  0
 23  1  1  0
 23 52  1  0
 23 53  1  0
 24 23  1  0
 24 54  1  0
 24 55  1  0
 25 26  2  0
 26 27  1  0
 26 56  1  0
 27 28  2  0
 27 57  1  0
 28 29  1  0
 29 30  1  0
 29 34  1  0
 30 31  2  0
 30 58  1  0
 31 24  1  0
 31 32  1  0
 32 33  2  0
 32 28  1  0
 33 25  1  0
 33 59  1  0
 35 36  1  0
 35 60  1  0
 35 61  1  0
 35 62  1  0
 36 25  1  0
M  END
>  <minimizedAffinity>  (10) 
-9.71959

>  <mol_id>  (10) 
140296

>  <source_index>  (10) 
9

>  <layer>  (10) 
L2

>  <uniprot>  (10) 
Q8NER1

>  <paff>  (10) 
6.9393000000000002

>  <smiles>  (10) 
COc1ccc2[nH]cc(CCNC(=O)NC3(C(=O)Nc4ccccc4)CCCCC3)c2c1

$$$$
