L2:P43405:458
     RDKit          3D

 50 52  0  0  0  0  0  0  0  0999 V2000
    4.7307    3.3208   12.0999 C   0  0  0  0  0  0  0  0  0  0  0  0
    5.9390    3.8269   11.8152 N   0  0  0  0  0  0  0  0  0  0  0  0
    5.9867    4.9702   11.1099 C   0  0  0  0  0  0  0  0  0  0  0  0
    4.8721    5.6349   10.6757 C   0  0  0  0  0  0  0  0  0  0  0  0
    3.6708    5.0522   11.0102 C   0  0  0  0  0  0  0  0  0  0  0  0
    3.5839    3.9025   11.7181 N   0  0  0  0  0  0  0  0  0  0  0  0
    2.3975    5.6634   10.6101 C   0  0  0  0  0  0  0  0  0  0  0  0
    1.0921    5.1762   10.8813 C   0  0  0  0  0  0  0  0  0  0  0  0
    0.2097    6.0959   10.3477 C   0  0  0  0  0  0  0  0  0  0  0  0
    1.0094    7.0079    9.7117 N   0  0  0  0  0  0  0  0  0  0  0  0
    0.5984    8.0835    8.8375 C   0  0  0  0  0  0  0  0  0  0  0  0
    2.3268    6.8127    9.9141 N   0  0  0  0  0  0  0  0  0  0  0  0
   -1.2291    6.0659   10.3829 C   0  0  0  0  0  0  0  0  0  0  0  0
   -1.8937    6.7507   11.1511 O   0  0  0  0  0  0  0  0  0  0  0  0
   -1.8020    5.2474    9.4327 N   0  0  0  0  0  0  0  0  0  0  0  0
   -1.2255    4.9467    8.6591 H   0  0  0  0  0  0  0  0  0  0  0  0
   -3.2427    5.1857    9.2596 C   0  0  0  0  0  0  0  0  0  0  0  0
   -3.7104    3.8591    8.6410 C   0  0  0  0  0  0  0  0  0  0  0  0
   -3.6750    3.8986    7.1794 N   0  0  0  0  0  0  0  0  0  0  0  0
   -4.3789    4.5475    6.8308 H   0  0  0  0  0  0  0  0  0  0  0  0
   -3.9288    2.9804    6.8151 H   0  0  0  0  0  0  0  0  0  0  0  0
    4.5720    2.1401   12.8190 N   0  0  0  0  0  0  0  0  0  0  0  0
    5.4833    1.7750   13.0513 H   0  0  0  0  0  0  0  0  0  0  0  0
   -0.3336    1.2532   12.9629 C   0  0  0  0  0  0  0  0  0  0  0  0
    1.0730    0.8983   13.3457 C   0  0  0  0  0  0  0  0  0  0  0  0
    1.3242   -0.1690   14.2130 C   0  0  0  0  0  0  0  0  0  0  0  0
    2.6326   -0.4833   14.5884 C   0  0  0  0  0  0  0  0  0  0  0  0
    2.9010   -1.6107   15.5404 C   0  0  0  0  0  0  0  0  0  0  0  0
    3.6873    0.3091   14.1110 C   0  0  0  0  0  0  0  0  0  0  0  0
    3.4670    1.3971   13.2488 C   0  0  0  0  0  0  0  0  0  0  0  0
    2.1469    1.6762   12.8819 C   0  0  0  0  0  0  0  0  0  0  0  0
    6.9121    5.3674   10.8841 H   0  0  0  0  0  0  0  0  0  0  0  0
    4.9283    6.5121   10.1350 H   0  0  0  0  0  0  0  0  0  0  0  0
    0.8496    4.3055   11.3795 H   0  0  0  0  0  0  0  0  0  0  0  0
   -0.4698    8.1081    8.7802 H   0  0  0  0  0  0  0  0  0  0  0  0
    1.0044    7.9239    7.8605 H   0  0  0  0  0  0  0  0  0  0  0  0
    0.9564    9.0145    9.2248 H   0  0  0  0  0  0  0  0  0  0  0  0
   -3.5449    5.9874    8.6187 H   0  0  0  0  0  0  0  0  0  0  0  0
   -3.6880    5.2643   10.2294 H   0  0  0  0  0  0  0  0  0  0  0  0
   -4.7136    3.6639    8.9579 H   0  0  0  0  0  0  0  0  0  0  0  0
   -3.0462    3.0870    8.9689 H   0  0  0  0  0  0  0  0  0  0  0  0
   -1.0111    0.5536   13.4060 H   0  0  0  0  0  0  0  0  0  0  0  0
   -0.4326    1.2200   11.8980 H   0  0  0  0  0  0  0  0  0  0  0  0
   -0.5602    2.2391   13.3116 H   0  0  0  0  0  0  0  0  0  0  0  0
    0.5378   -0.7285   14.5784 H   0  0  0  0  0  0  0  0  0  0  0  0
    1.9796   -2.0945   15.7891 H   0  0  0  0  0  0  0  0  0  0  0  0
    3.3534   -1.2259   16.4304 H   0  0  0  0  0  0  0  0  0  0  0  0
    3.5615   -2.3160   15.0808 H   0  0  0  0  0  0  0  0  0  0  0  0
    4.6524    0.0868   14.4011 H   0  0  0  0  0  0  0  0  0  0  0  0
    1.9568    2.4735   12.2548 H   0  0  0  0  0  0  0  0  0  0  0  0
  1  2  2  0
  2  3  1  0
  3  4  2  0
  3 32  1  0
  4  5  1  0
  4 33  1  0
  5  7  1  0
  5  6  2  0
  6  1  1  0
  7  8  1  0
  8  9  2  0
  8 34  1  0
  9 13  1  0
  9 10  1  0
 10 11  1  0
 10 12  1  0
 11 35  1  0
 11 36  1  0
 11 37  1  0
 12  7  2  0
 13 14  2  0
 13 15  1  0
 15 17  1  0
 15 16  1  0
 17 18  1  0
 17 38  1  0
 17 39  1  0
 18 19  1  0
 18 40  1  0
 18 41  1  0
 19 20  1  0
 19 21  1  0
 22  1  1  0
 22 23  1  0
 24 25  1  0
 24 42  1  0
 24 43  1  0
 24 44  1  0
 25 26  2  0
 26 27  1  0
 26 45  1  0
 27 28  1  0
 27 29  2  0
 28 46  1  0
 28 47  1  0
 28 48  1  0
 29 30  1  0
 29 49  1  0
 30 22  1  0
 30 31  2  0
 31 25  1  0
 31 50  1  0
M  END
>  <minimizedAffinity>  (1) 
-7.60639

>  <mol_id>  (1) 
458

>  <source_index>  (1) 
0

>  <layer>  (1) 
L2

>  <uniprot>  (1) 
P43405

>  <paff>  (1) 
7.1367000000000003

>  <smiles>  (1) 
Cc1cc(C)cc(Nc2nccc(-c3cc(C(=O)NCCN)n(C)n3)n2)c1

$$$$
L2:P43405:7613
     RDKit          3D

 45 49  0  0  0  0  0  0  0  0999 V2000
   -0.9206    4.5328   10.5674 C   0  0  0  0  0  0  0  0  0  0  0  0
   -1.8019    4.2796    9.5888 N   0  0  0  0  0  0  0  0  0  0  0  0
   -2.0990    5.4910    9.0995 N   0  0  0  0  0  0  0  0  0  0  0  0
   -1.4022    6.5048    9.6841 C   0  0  0  0  0  0  0  0  0  0  0  0
   -0.5884    5.9185   10.6217 C   0  0  0  0  0  0  0  0  0  0  0  0
   -2.7827    5.5504    8.3526 H   0  0  0  0  0  0  0  0  0  0  0  0
    0.3423   -0.7530   15.7040 C   0  0  0  0  0  0  0  0  0  0  0  0
    0.5906    0.1711   14.5413 C   0  0  0  0  0  0  0  0  0  0  0  0
   -0.4423    1.0425   14.1403 C   0  0  0  0  0  0  0  0  0  0  0  0
   -0.2296    1.9176   13.0670 C   0  0  0  0  0  0  0  0  0  0  0  0
   -1.0708    2.8471   12.5097 N   0  0  0  0  0  0  0  0  0  0  0  0
   -0.3936    3.3944   11.5184 C   0  0  0  0  0  0  0  0  0  0  0  0
    0.8707    2.8655   11.4513 N   0  0  0  0  0  0  0  0  0  0  0  0
    0.9978    1.9077   12.4220 C   0  0  0  0  0  0  0  0  0  0  0  0
    2.0528    1.0719   12.7915 C   0  0  0  0  0  0  0  0  0  0  0  0
    1.8357    0.1945   13.8729 C   0  0  0  0  0  0  0  0  0  0  0  0
    2.9566   -0.7216   14.2927 C   0  0  0  0  0  0  0  0  0  0  0  0
    1.6050    3.1950   10.8455 H   0  0  0  0  0  0  0  0  0  0  0  0
    0.3661    6.5221   11.3743 N   0  0  0  0  0  0  0  0  0  0  0  0
    0.2657    7.5111   11.5657 H   0  0  0  0  0  0  0  0  0  0  0  0
    1.3262    5.9486   12.2327 C   0  0  0  0  0  0  0  0  0  0  0  0
    1.0034    5.5601   13.4931 N   0  0  0  0  0  0  0  0  0  0  0  0
    1.9456    4.9912   14.2674 C   0  0  0  0  0  0  0  0  0  0  0  0
    3.2248    4.7350   13.9585 N   0  0  0  0  0  0  0  0  0  0  0  0
    3.5164    5.1223   12.7071 C   0  0  0  0  0  0  0  0  0  0  0  0
    2.6493    5.7191   11.8011 C   0  0  0  0  0  0  0  0  0  0  0  0
    3.3991    5.9454   10.6089 C   0  0  0  0  0  0  0  0  0  0  0  0
    4.6821    5.4851   10.8232 C   0  0  0  0  0  0  0  0  0  0  0  0
    4.7396    4.9911   12.1007 N   0  0  0  0  0  0  0  0  0  0  0  0
    5.9047    4.4152   12.7300 C   0  0  0  0  0  0  0  0  0  0  0  0
   -1.4719    7.5111    9.4662 H   0  0  0  0  0  0  0  0  0  0  0  0
   -0.6560   -0.6140   16.0632 H   0  0  0  0  0  0  0  0  0  0  0  0
    1.0371   -0.5346   16.4879 H   0  0  0  0  0  0  0  0  0  0  0  0
    0.4693   -1.7671   15.3871 H   0  0  0  0  0  0  0  0  0  0  0  0
   -1.3487    1.0359   14.6337 H   0  0  0  0  0  0  0  0  0  0  0  0
    2.9559    1.0954   12.2927 H   0  0  0  0  0  0  0  0  0  0  0  0
    3.8086   -0.5521   13.6680 H   0  0  0  0  0  0  0  0  0  0  0  0
    2.6405   -1.7393   14.1964 H   0  0  0  0  0  0  0  0  0  0  0  0
    3.2164   -0.5237   15.3116 H   0  0  0  0  0  0  0  0  0  0  0  0
    1.6464    4.7183   15.2166 H   0  0  0  0  0  0  0  0  0  0  0  0
    3.0450    6.3766    9.7407 H   0  0  0  0  0  0  0  0  0  0  0  0
    5.4587    5.5085   10.1440 H   0  0  0  0  0  0  0  0  0  0  0  0
    6.7255    4.4315   12.0437 H   0  0  0  0  0  0  0  0  0  0  0  0
    5.6951    3.4044   13.0114 H   0  0  0  0  0  0  0  0  0  0  0  0
    6.1568    4.9830   13.6012 H   0  0  0  0  0  0  0  0  0  0  0  0
  1  2  2  0
  2  3  1  0
  3  4  1  0
  3  6  1  0
  4  5  2  0
  4 31  1  0
  5 19  1  0
  5  1  1  0
  7  8  1  0
  7 32  1  0
  7 33  1  0
  7 34  1  0
  8  9  2  0
  9 10  1  0
  9 35  1  0
 10 11  1  0
 11 12  2  0
 12  1  1  0
 12 13  1  0
 13 14  1  0
 13 18  1  0
 14 15  1  0
 14 10  2  0
 15 16  2  0
 15 36  1  0
 16 17  1  0
 16  8  1  0
 17 37  1  0
 17 38  1  0
 17 39  1  0
 19 21  1  0
 19 20  1  0
 21 22  2  0
 22 23  1  0
 23 24  2  0
 23 40  1  0
 24 25  1  0
 25 26  2  0
 26 27  1  0
 26 21  1  0
 27 28  2  0
 27 41  1  0
 28 29  1  0
 28 42  1  0
 29 30  1  0
 29 25  1  0
 30 43  1  0
 30 44  1  0
 30 45  1  0
M  END
>  <minimizedAffinity>  (2) 
-8.45843

>  <mol_id>  (2) 
7613

>  <source_index>  (2) 
1

>  <layer>  (2) 
L2

>  <uniprot>  (2) 
P43405

>  <paff>  (2) 
7.6778000000000004

>  <smiles>  (2) 
Cc1cc2nc(-c3n[nH]cc3Nc3ncnc4c3ccn4C)[nH]c2cc1C

$$$$
L2:P43405:16711
     RDKit          3D

 75 80  0  0  0  0  0  0  0  0999 V2000
   -1.8622    3.5944   13.0727 N   0  0  0  0  0  0  0  0  0  0  0  0
   -2.6908    4.1759   12.9670 H   0  0  0  0  0  0  0  0  0  0  0  0
    1.4070    5.0778   13.8704 C   0  0  1  0  0  0  0  0  0  0  0  0
    1.4378    6.1123   12.7208 C   0  0  0  0  0  0  0  0  0  0  0  0
    0.9953    5.5291   11.4624 N   0  0  0  0  0  0  0  0  0  0  0  0
    1.8410    4.8804   10.5742 C   0  0  0  0  0  0  0  0  0  0  0  0
    1.2452    3.7873   10.0859 C   0  0  0  0  0  0  0  0  0  0  0  0
   -0.0257    3.6273   10.6339 N   0  0  0  0  0  0  0  0  0  0  0  0
   -0.2703    4.7767   11.5423 C   0  0  1  0  0  0  0  0  0  0  0  0
   -0.6547    4.2768   12.9808 C   0  0  0  0  0  0  0  0  0  0  0  0
    0.0667    4.4628   14.0465 N   0  0  0  0  0  0  0  0  0  0  0  0
   -0.0541    2.7457   11.1441 H   0  0  0  0  0  0  0  0  0  0  0  0
    5.4885    1.0787   13.6020 C   0  0  0  0  0  0  0  0  0  0  0  0
    4.4337    2.1419   13.6411 C   0  0  0  0  0  0  0  0  0  0  0  0
    3.1427    1.7223   13.5850 N   0  0  0  0  0  0  0  0  0  0  0  0
    2.2100    2.6973   13.6538 C   0  0  0  0  0  0  0  0  0  0  0  0
    2.5266    4.0470   13.7711 C   0  0  0  0  0  0  0  0  0  0  0  0
    3.8266    4.4575   13.8153 N   0  0  0  0  0  0  0  0  0  0  0  0
    4.7698    3.4996   13.7446 C   0  0  0  0  0  0  0  0  0  0  0  0
    6.0889    3.9526   13.8037 N   0  0  0  0  0  0  0  0  0  0  0  0
    6.6248    3.6246   13.0089 H   0  0  0  0  0  0  0  0  0  0  0  0
    6.0412    4.9671   13.8286 H   0  0  0  0  0  0  0  0  0  0  0  0
   -2.0386    2.2342   12.5792 C   0  0  2  0  0  0  0  0  0  0  0  0
   -3.5008    1.9103   12.6713 C   0  0  0  0  0  0  0  0  0  0  0  0
   -3.9718    0.7973   13.2487 C   0  0  0  0  0  0  0  0  0  0  0  0
   -3.1105   -0.2217   13.8258 C   0  0  0  0  0  0  0  0  0  0  0  0
   -1.7771    0.0049   13.8716 C   0  0  0  0  0  0  0  0  0  0  0  0
   -1.1293    1.2792   13.3885 C   0  0  0  0  0  0  0  0  0  0  0  0
   -3.7234   -1.3701   14.3256 N   0  0  0  0  0  0  0  0  0  0  0  0
   -3.7855   -2.6110   13.5194 C   0  0  0  0  0  0  0  0  0  0  0  0
   -4.7354   -3.6571   14.1463 C   0  0  0  0  0  0  0  0  0  0  0  0
   -4.3217   -4.0546   15.5076 N   0  0  0  0  0  0  0  0  0  0  0  0
   -3.8062   -2.9107   16.2894 C   0  0  0  0  0  0  0  0  0  0  0  0
   -4.1487   -1.5137   15.7287 C   0  0  0  0  0  0  0  0  0  0  0  0
   -5.2869   -4.8494   16.3005 C   0  0  0  0  0  0  0  0  0  0  0  0
   -5.8035   -4.1574   17.5693 C   0  0  0  0  0  0  0  0  0  0  0  0
   -7.0521   -3.8048   16.9122 O   0  0  0  0  0  0  0  0  0  0  0  0
   -6.7355   -4.7038   15.8130 C   0  0  0  0  0  0  0  0  0  0  0  0
   -0.8865   -0.9116   14.4130 O   0  0  0  0  0  0  0  0  0  0  0  0
    0.2445   -0.2438   14.9803 C   0  0  0  0  0  0  0  0  0  0  0  0
    1.3261   -1.2768   15.2757 C   0  0  0  0  0  0  0  0  0  0  0  0
    2.5677   -0.8984   14.6924 O   0  0  0  0  0  0  0  0  0  0  0  0
    2.9081   -0.1429   15.2032 H   0  0  0  0  0  0  0  0  0  0  0  0
    1.6003    5.6263   14.7686 H   0  0  0  0  0  0  0  0  0  0  0  0
    2.4389    6.4716   12.6039 H   0  0  0  0  0  0  0  0  0  0  0  0
    0.7716    6.9111   12.9718 H   0  0  0  0  0  0  0  0  0  0  0  0
    2.7919    5.1957   10.3263 H   0  0  0  0  0  0  0  0  0  0  0  0
    1.6698    3.1481    9.3958 H   0  0  0  0  0  0  0  0  0  0  0  0
   -1.1002    5.3972   11.2756 H   0  0  0  0  0  0  0  0  0  0  0  0
    5.0239    0.1182   13.5216 H   0  0  0  0  0  0  0  0  0  0  0  0
    6.0697    1.1197   14.4994 H   0  0  0  0  0  0  0  0  0  0  0  0
    6.1252    1.2388   12.7571 H   0  0  0  0  0  0  0  0  0  0  0  0
    1.2145    2.4279   13.6176 H   0  0  0  0  0  0  0  0  0  0  0  0
   -1.7441    2.1234   11.5565 H   0  0  0  0  0  0  0  0  0  0  0  0
   -4.1772    2.5783   12.2698 H   0  0  0  0  0  0  0  0  0  0  0  0
   -4.9935    0.6566   13.2856 H   0  0  0  0  0  0  0  0  0  0  0  0
   -0.3005    1.0107   12.7673 H   0  0  0  0  0  0  0  0  0  0  0  0
   -0.8561    1.8182   14.2715 H   0  0  0  0  0  0  0  0  0  0  0  0
   -2.8034   -3.0306   13.4537 H   0  0  0  0  0  0  0  0  0  0  0  0
   -4.1622   -2.3589   12.5501 H   0  0  0  0  0  0  0  0  0  0  0  0
   -4.7464   -4.5271   13.5235 H   0  0  0  0  0  0  0  0  0  0  0  0
   -5.7058   -3.2122   14.2189 H   0  0  0  0  0  0  0  0  0  0  0  0
   -2.7405   -2.9956   16.3342 H   0  0  0  0  0  0  0  0  0  0  0  0
   -4.2843   -2.9689   17.2449 H   0  0  0  0  0  0  0  0  0  0  0  0
   -3.6525   -0.7720   16.3190 H   0  0  0  0  0  0  0  0  0  0  0  0
   -5.2106   -1.3892   15.7696 H   0  0  0  0  0  0  0  0  0  0  0  0
   -4.7500   -5.7747   16.3230 H   0  0  0  0  0  0  0  0  0  0  0  0
   -5.2194   -3.3120   17.8679 H   0  0  0  0  0  0  0  0  0  0  0  0
   -5.8256   -4.6955   18.4939 H   0  0  0  0  0  0  0  0  0  0  0  0
   -6.8224   -4.2518   14.8471 H   0  0  0  0  0  0  0  0  0  0  0  0
   -7.3317   -5.5782   15.6555 H   0  0  0  0  0  0  0  0  0  0  0  0
   -0.0438    0.2448   15.8875 H   0  0  0  0  0  0  0  0  0  0  0  0
    0.6173    0.4877   14.2941 H   0  0  0  0  0  0  0  0  0  0  0  0
    1.0253   -2.2223   14.8751 H   0  0  0  0  0  0  0  0  0  0  0  0
    1.4541   -1.3417   16.3360 H   0  0  0  0  0  0  0  0  0  0  0  0
  1 23  1  0
  1  2  1  0
  3  4  1  0
  3 44  1  1
  4  5  1  0
  4 45  1  0
  4 46  1  0
  5  6  1  0
  6  7  2  0
  6 47  1  0
  7  8  1  0
  7 48  1  0
  8  9  1  0
  8 12  1  0
  9 10  1  0
  9  5  1  0
  9 49  1  6
 10  1  1  0
 10 11  2  0
 11  3  1  0
 13 14  1  0
 13 50  1  0
 13 51  1  0
 13 52  1  0
 14 15  2  0
 15 16  1  0
 16 17  2  0
 16 53  1  0
 17  3  1  0
 17 18  1  0
 18 19  2  0
 19 20  1  0
 19 14  1  0
 20 21  1  0
 20 22  1  0
 23 24  1  0
 23 54  1  6
 24 25  2  0
 24 55  1  0
 25 26  1  0
 25 56  1  0
 26 29  1  0
 26 27  2  0
 27 39  1  0
 27 28  1  0
 28 23  1  0
 28 57  1  0
 28 58  1  0
 29 30  1  0
 30 31  1  0
 30 59  1  0
 30 60  1  0
 31 32  1  0
 31 61  1  0
 31 62  1  0
 32 35  1  0
 32 33  1  0
 33 34  1  0
 33 63  1  0
 33 64  1  0
 34 29  1  0
 34 65  1  0
 34 66  1  0
 35 36  1  0
 35 67  1  0
 36 37  1  0
 36 68  1  0
 36 69  1  0
 37 38  1  0
 38 35  1  0
 38 70  1  0
 38 71  1  0
 39 40  1  0
 40 41  1  0
 40 72  1  0
 40 73  1  0
 41 42  1  0
 41 74  1  0
 41 75  1  0
 42 43  1  0
M  END
>  <minimizedAffinity>  (3) 
-6.90394

>  <mol_id>  (3) 
16711

>  <source_index>  (3) 
2

>  <layer>  (3) 
L2

>  <uniprot>  (3) 
P43405

>  <paff>  (3) 
8.0604999999999993

>  <smiles>  (3) 
Cc1ncc(C2CN3C=CNC3C(NC3C=CC(N4CCN(C5COC5)CC4)=C(OCCO)C3)=N2)nc1N

$$$$
L2:P43405:33947
     RDKit          3D

 63 66  0  0  0  0  0  0  0  0999 V2000
    4.3310    1.9465   13.3219 C   0  0  0  0  0  0  0  0  0  0  0  0
    3.2980    2.8488   12.9502 C   0  0  0  0  0  0  0  0  0  0  0  0
    3.8162    3.6611   11.9575 C   0  0  0  0  0  0  0  0  0  0  0  0
    5.1258    3.2760   11.8522 N   0  0  0  0  0  0  0  0  0  0  0  0
    6.1805    3.9061   11.0908 C   0  0  0  0  0  0  0  0  0  0  0  0
    5.4390    2.2125   12.6086 N   0  0  0  0  0  0  0  0  0  0  0  0
    3.0320   -0.8249   15.2793 C   0  0  0  0  0  0  0  0  0  0  0  0
    4.0347   -1.1527   16.1119 N   0  0  0  0  0  0  0  0  0  0  0  0
    5.1711   -0.4411   16.0209 C   0  0  0  0  0  0  0  0  0  0  0  0
    5.3511    0.5889   15.1344 C   0  0  0  0  0  0  0  0  0  0  0  0
    4.2750    0.8649   14.3206 C   0  0  0  0  0  0  0  0  0  0  0  0
    3.1203    0.1683   14.3911 N   0  0  0  0  0  0  0  0  0  0  0  0
    1.8850   -1.6018   15.4123 N   0  0  0  0  0  0  0  0  0  0  0  0
    2.1474   -2.5150   15.7509 H   0  0  0  0  0  0  0  0  0  0  0  0
   -2.8688   -3.1004   15.3374 C   0  0  0  0  0  0  0  0  0  0  0  0
   -1.8159   -2.0763   15.0350 C   0  0  0  0  0  0  0  0  0  0  0  0
   -2.1446   -0.8933   14.3670 C   0  0  0  0  0  0  0  0  0  0  0  0
   -1.1544    0.0421   14.0563 C   0  0  0  0  0  0  0  0  0  0  0  0
   -1.4998    1.3283   13.3653 C   0  0  0  0  0  0  0  0  0  0  0  0
    0.1723   -0.2197   14.4307 C   0  0  0  0  0  0  0  0  0  0  0  0
    0.5363   -1.4041   15.0941 C   0  0  0  0  0  0  0  0  0  0  0  0
   -0.4764   -2.3267   15.3753 C   0  0  0  0  0  0  0  0  0  0  0  0
    3.1448    4.7211   11.2509 C   0  0  0  0  0  0  0  0  0  0  0  0
    3.6580    5.8173   11.0557 O   0  0  0  0  0  0  0  0  0  0  0  0
    1.8548    4.4307   10.8620 N   0  0  0  0  0  0  0  0  0  0  0  0
    1.3888    3.6616   11.3243 H   0  0  0  0  0  0  0  0  0  0  0  0
    1.0091    5.4467   10.2557 C   0  0  0  0  0  0  0  0  0  0  0  0
    0.4132    6.4189   11.2929 C   0  0  0  0  0  0  0  0  0  0  0  0
   -1.0548    6.3372   11.3716 N   0  0  0  0  0  0  0  0  0  0  0  0
   -1.5275    5.0221   11.8387 C   0  0  0  0  0  0  0  0  0  0  0  0
   -2.2008    5.0406   13.2111 C   0  0  0  0  0  0  0  0  0  0  0  0
   -3.3592    6.0328   13.2589 C   0  0  0  0  0  0  0  0  0  0  0  0
   -3.0852    7.2836   12.4265 C   0  0  0  0  0  0  0  0  0  0  0  0
   -1.5948    7.4628   12.1476 C   0  0  0  0  0  0  0  0  0  0  0  0
    2.3452    2.8901   13.3446 H   0  0  0  0  0  0  0  0  0  0  0  0
    5.7796    4.7329   10.5425 H   0  0  0  0  0  0  0  0  0  0  0  0
    6.6012    3.1966   10.4093 H   0  0  0  0  0  0  0  0  0  0  0  0
    6.9416    4.2553   11.7569 H   0  0  0  0  0  0  0  0  0  0  0  0
    5.9504   -0.6832   16.6526 H   0  0  0  0  0  0  0  0  0  0  0  0
    6.2334    1.1215   15.0805 H   0  0  0  0  0  0  0  0  0  0  0  0
   -3.8216   -2.7398   15.0101 H   0  0  0  0  0  0  0  0  0  0  0  0
   -2.8986   -3.2807   16.3917 H   0  0  0  0  0  0  0  0  0  0  0  0
   -2.6375   -4.0115   14.8261 H   0  0  0  0  0  0  0  0  0  0  0  0
   -3.1248   -0.7097   14.1016 H   0  0  0  0  0  0  0  0  0  0  0  0
   -2.5494    1.3515   13.1587 H   0  0  0  0  0  0  0  0  0  0  0  0
   -0.9540    1.3979   12.4476 H   0  0  0  0  0  0  0  0  0  0  0  0
   -1.2423    2.1528   13.9968 H   0  0  0  0  0  0  0  0  0  0  0  0
    0.9015    0.4772   14.2128 H   0  0  0  0  0  0  0  0  0  0  0  0
   -0.2335   -3.2133   15.8444 H   0  0  0  0  0  0  0  0  0  0  0  0
    0.2067    4.9616    9.7403 H   0  0  0  0  0  0  0  0  0  0  0  0
    1.6185    6.0191    9.5880 H   0  0  0  0  0  0  0  0  0  0  0  0
    0.6863    7.4175   11.0224 H   0  0  0  0  0  0  0  0  0  0  0  0
    0.8035    6.1474   12.2515 H   0  0  0  0  0  0  0  0  0  0  0  0
   -0.6861    4.3629   11.8882 H   0  0  0  0  0  0  0  0  0  0  0  0
   -2.2709    4.7003   11.1396 H   0  0  0  0  0  0  0  0  0  0  0  0
   -1.4767    5.3173   13.9487 H   0  0  0  0  0  0  0  0  0  0  0  0
   -2.5910    4.0632   13.4041 H   0  0  0  0  0  0  0  0  0  0  0  0
   -3.5207    6.3246   14.2756 H   0  0  0  0  0  0  0  0  0  0  0  0
   -4.2216    5.5494   12.8496 H   0  0  0  0  0  0  0  0  0  0  0  0
   -3.4434    8.1397   12.9592 H   0  0  0  0  0  0  0  0  0  0  0  0
   -3.5889    7.1763   11.4886 H   0  0  0  0  0  0  0  0  0  0  0  0
   -1.0716    7.5263   13.0788 H   0  0  0  0  0  0  0  0  0  0  0  0
   -1.4645    8.3584   11.5768 H   0  0  0  0  0  0  0  0  0  0  0  0
  1  2  1  0
  2  3  2  0
  2 35  1  0
  3 23  1  0
  3  4  1  0
  4  5  1  0
  4  6  1  0
  5 36  1  0
  5 37  1  0
  5 38  1  0
  6  1  2  0
  7  8  2  0
  8  9  1  0
  9 10  2  0
  9 39  1  0
 10 11  1  0
 10 40  1  0
 11  1  1  0
 11 12  2  0
 12  7  1  0
 13  7  1  0
 13 14  1  0
 15 16  1  0
 15 41  1  0
 15 42  1  0
 15 43  1  0
 16 17  2  0
 17 18  1  0
 17 44  1  0
 18 19  1  0
 18 20  2  0
 19 45  1  0
 19 46  1  0
 19 47  1  0
 20 21  1  0
 20 48  1  0
 21 13  1  0
 21 22  2  0
 22 16  1  0
 22 49  1  0
 23 24  2  0
 23 25  1  0
 25 27  1  0
 25 26  1  0
 27 28  1  0
 27 50  1  0
 27 51  1  0
 28 29  1  0
 28 52  1  0
 28 53  1  0
 29 30  1  0
 30 31  1  0
 30 54  1  0
 30 55  1  0
 31 32  1  0
 31 56  1  0
 31 57  1  0
 32 33  1  0
 32 58  1  0
 32 59  1  0
 33 34  1  0
 33 60  1  0
 33 61  1  0
 34 29  1  0
 34 62  1  0
 34 63  1  0
M  END
>  <minimizedAffinity>  (4) 
-7.94204

>  <mol_id>  (4) 
33947

>  <source_index>  (4) 
3

>  <layer>  (4) 
L2

>  <uniprot>  (4) 
P43405

>  <paff>  (4) 
6.6180000000000003

>  <smiles>  (4) 
Cc1cc(C)cc(Nc2nccc(-c3cc(C(=O)NCCN4CCCCC4)n(C)n3)n2)c1

$$$$
L2:P43405:40410
     RDKit          3D

 57 60  0  0  0  0  0  0  0  0999 V2000
    2.4688    5.9028   11.0607 C   0  0  0  0  0  0  0  0  0  0  0  0
    1.3001    5.8302   11.8626 C   0  0  0  0  0  0  0  0  0  0  0  0
    0.3820    6.6973   11.3014 C   0  0  0  0  0  0  0  0  0  0  0  0
    1.0642    7.3018   10.2789 N   0  0  0  0  0  0  0  0  0  0  0  0
    0.6351    8.4221    9.4724 C   0  0  0  0  0  0  0  0  0  0  0  0
    2.2945    6.7953   10.0692 N   0  0  0  0  0  0  0  0  0  0  0  0
    4.7250    3.2675   12.1168 C   0  0  0  0  0  0  0  0  0  0  0  0
    5.9181    3.6335   11.6270 N   0  0  0  0  0  0  0  0  0  0  0  0
    5.9817    4.7821   10.9313 C   0  0  0  0  0  0  0  0  0  0  0  0
    4.8977    5.5848   10.7010 C   0  0  0  0  0  0  0  0  0  0  0  0
    3.7102    5.1386   11.2352 C   0  0  0  0  0  0  0  0  0  0  0  0
    3.6080    3.9887   11.9405 N   0  0  0  0  0  0  0  0  0  0  0  0
    4.5519    2.0985   12.8513 N   0  0  0  0  0  0  0  0  0  0  0  0
    5.4586    1.7169   13.0752 H   0  0  0  0  0  0  0  0  0  0  0  0
    2.8405   -1.6338   15.5721 C   0  0  0  0  0  0  0  0  0  0  0  0
    2.5825   -0.4974   14.6279 C   0  0  0  0  0  0  0  0  0  0  0  0
    1.2777   -0.1710   14.2497 C   0  0  0  0  0  0  0  0  0  0  0  0
    1.0368    0.9134   13.4007 C   0  0  0  0  0  0  0  0  0  0  0  0
   -0.3600    1.2393   12.9605 C   0  0  0  0  0  0  0  0  0  0  0  0
    2.1212    1.6643   12.9175 C   0  0  0  0  0  0  0  0  0  0  0  0
    3.4379    1.3721   13.2865 C   0  0  0  0  0  0  0  0  0  0  0  0
    3.6452    0.2868   14.1552 C   0  0  0  0  0  0  0  0  0  0  0  0
   -0.9640    6.9627   11.7383 C   0  0  0  0  0  0  0  0  0  0  0  0
   -1.2523    7.8840   12.4933 O   0  0  0  0  0  0  0  0  0  0  0  0
   -1.8992    6.0543   11.2870 N   0  0  0  0  0  0  0  0  0  0  0  0
   -1.5496    5.1669   10.9532 H   0  0  0  0  0  0  0  0  0  0  0  0
   -3.2934    6.1168   11.7381 C   0  0  2  0  0  0  0  0  0  0  0  0
   -3.5027    5.2481   12.9902 C   0  0  0  0  0  0  0  0  0  0  0  0
   -4.0063    3.8373   12.6669 C   0  0  0  0  0  0  0  0  0  0  0  0
   -3.6082    3.3851   11.2662 C   0  0  0  0  0  0  0  0  0  0  0  0
   -4.1182    4.2643   10.2153 N   0  0  0  0  0  0  0  0  0  0  0  0
   -4.2729    5.6687   10.6300 C   0  0  0  0  0  0  0  0  0  0  0  0
   -3.5023    4.2198    9.4043 H   0  0  0  0  0  0  0  0  0  0  0  0
    1.1627    5.2443   12.7010 H   0  0  0  0  0  0  0  0  0  0  0  0
   -0.3564    8.7070    9.7564 H   0  0  0  0  0  0  0  0  0  0  0  0
    0.6438    8.1422    8.4397 H   0  0  0  0  0  0  0  0  0  0  0  0
    1.3003    9.2464    9.6242 H   0  0  0  0  0  0  0  0  0  0  0  0
    6.8957    5.0736   10.5511 H   0  0  0  0  0  0  0  0  0  0  0  0
    4.9658    6.4635   10.1642 H   0  0  0  0  0  0  0  0  0  0  0  0
    1.9145   -2.1099   15.8186 H   0  0  0  0  0  0  0  0  0  0  0  0
    3.2977   -1.2595   16.4642 H   0  0  0  0  0  0  0  0  0  0  0  0
    3.4933   -2.3427   15.1071 H   0  0  0  0  0  0  0  0  0  0  0  0
    0.4866   -0.7340   14.5993 H   0  0  0  0  0  0  0  0  0  0  0  0
   -1.0477    0.5663   13.4286 H   0  0  0  0  0  0  0  0  0  0  0  0
   -0.4313    1.1398   11.8975 H   0  0  0  0  0  0  0  0  0  0  0  0
   -0.5972    2.2442   13.2414 H   0  0  0  0  0  0  0  0  0  0  0  0
    1.9416    2.4511   12.2743 H   0  0  0  0  0  0  0  0  0  0  0  0
    4.6067    0.0604   14.4538 H   0  0  0  0  0  0  0  0  0  0  0  0
   -3.4992    7.1390   11.9781 H   0  0  0  0  0  0  0  0  0  0  0  0
   -4.2199    5.7290   13.6221 H   0  0  0  0  0  0  0  0  0  0  0  0
   -2.5514    5.1449   13.4691 H   0  0  0  0  0  0  0  0  0  0  0  0
   -5.0737    3.8281   12.7406 H   0  0  0  0  0  0  0  0  0  0  0  0
   -3.5593    3.1628   13.3670 H   0  0  0  0  0  0  0  0  0  0  0  0
   -3.9935    2.4002   11.1035 H   0  0  0  0  0  0  0  0  0  0  0  0
   -2.5398    3.4099   11.2136 H   0  0  0  0  0  0  0  0  0  0  0  0
   -5.2712    5.8034   10.9908 H   0  0  0  0  0  0  0  0  0  0  0  0
   -4.0568    6.2675    9.7699 H   0  0  0  0  0  0  0  0  0  0  0  0
  1  2  1  0
  2  3  2  0
  2 34  1  0
  3 23  1  0
  3  4  1  0
  4  5  1  0
  4  6  1  0
  5 35  1  0
  5 36  1  0
  5 37  1  0
  6  1  2  0
  7  8  2  0
  8  9  1  0
  9 10  2  0
  9 38  1  0
 10 11  1  0
 10 39  1  0
 11  1  1  0
 11 12  2  0
 12  7  1  0
 13  7  1  0
 13 14  1  0
 15 16  1  0
 15 40  1  0
 15 41  1  0
 15 42  1  0
 16 17  2  0
 17 18  1  0
 17 43  1  0
 18 19  1  0
 18 20  2  0
 19 44  1  0
 19 45  1  0
 19 46  1  0
 20 21  1  0
 20 47  1  0
 21 13  1  0
 21 22  2  0
 22 16  1  0
 22 48  1  0
 23 24  2  0
 23 25  1  0
 25 27  1  0
 25 26  1  0
 27 28  1  0
 27 49  1  1
 28 29  1  0
 28 50  1  0
 28 51  1  0
 29 30  1  0
 29 52  1  0
 29 53  1  0
 30 31  1  0
 30 54  1  0
 30 55  1  0
 31 32  1  0
 31 33  1  0
 32 27  1  0
 32 56  1  0
 32 57  1  0
M  END
>  <minimizedAffinity>  (5) 
-7.79444

>  <mol_id>  (5) 
40410

>  <source_index>  (5) 
4

>  <layer>  (5) 
L2

>  <uniprot>  (5) 
P43405

>  <paff>  (5) 
7.2290999999999999

>  <smiles>  (5) 
Cc1cc(C)cc(Nc2nccc(-c3cc(C(=O)N[C@@H]4CCCNC4)n(C)n3)n2)c1

$$$$
L2:P43405:67215
     RDKit          3D

 55 59  0  0  0  0  0  0  0  0999 V2000
    5.3369    1.5234   13.6759 C   0  0  0  0  0  0  0  0  0  0  0  0
    5.0078    2.4400   12.7016 C   0  0  0  0  0  0  0  0  0  0  0  0
    3.7495    2.5610   12.2301 N   0  0  0  0  0  0  0  0  0  0  0  0
    2.8057    1.7396   12.7757 C   0  0  0  0  0  0  0  0  0  0  0  0
    1.4573    1.7608   12.3774 C   0  0  0  0  0  0  0  0  0  0  0  0
    0.5176    0.9387   12.9004 N   0  0  0  0  0  0  0  0  0  0  0  0
    0.8821    0.0439   13.8451 C   0  0  0  0  0  0  0  0  0  0  0  0
    2.1913   -0.0360   14.2932 C   0  0  0  0  0  0  0  0  0  0  0  0
    3.1563    0.8003   13.7655 C   0  0  0  0  0  0  0  0  0  0  0  0
    4.4230    0.6898   14.2183 N   0  0  0  0  0  0  0  0  0  0  0  0
   -0.2010   -0.8112   14.3690 C   0  0  0  0  0  0  0  0  0  0  0  0
   -1.5491   -0.5983   14.0522 C   0  0  0  0  0  0  0  0  0  0  0  0
   -2.5633   -1.4331   14.5544 C   0  0  0  0  0  0  0  0  0  0  0  0
   -2.2893   -2.5068   15.4108 C   0  0  0  0  0  0  0  0  0  0  0  0
   -0.9356   -2.7227   15.7081 C   0  0  0  0  0  0  0  0  0  0  0  0
    0.0822   -1.8933   15.2119 C   0  0  0  0  0  0  0  0  0  0  0  0
   -3.2704   -3.3636   15.9119 N   0  0  0  0  0  0  0  0  0  0  0  0
   -3.7040   -4.5539   15.1489 C   0  0  0  0  0  0  0  0  0  0  0  0
   -4.8580   -4.1998   14.1960 C   0  0  0  0  0  0  0  0  0  0  0  0
   -5.9667   -3.6197   14.9042 O   0  0  0  0  0  0  0  0  0  0  0  0
   -5.5491   -2.4373   15.6073 C   0  0  0  0  0  0  0  0  0  0  0  0
   -4.4220   -2.7415   16.6097 C   0  0  0  0  0  0  0  0  0  0  0  0
    1.0537    2.7532   11.4472 N   0  0  0  0  0  0  0  0  0  0  0  0
    0.9558    2.2981   10.5383 H   0  0  0  0  0  0  0  0  0  0  0  0
   -0.1123    3.5323   11.8445 C   0  0  0  0  0  0  0  0  0  0  0  0
    0.3364    4.8885   12.3867 C   0  0  1  0  0  0  0  0  0  0  0  0
    0.8264    4.8256   13.8375 C   0  0  0  0  0  0  0  0  0  0  0  0
    2.1431    5.5961   13.8491 C   0  0  0  0  0  0  0  0  0  0  0  0
    2.1197    6.3725   12.6132 N   0  0  0  0  0  0  0  0  0  0  0  0
    1.5188    5.4742   11.6239 C   0  0  0  0  0  0  0  0  0  0  0  0
    3.0622    6.6297   12.3303 H   0  0  0  0  0  0  0  0  0  0  0  0
    6.3146    1.4719   14.0023 H   0  0  0  0  0  0  0  0  0  0  0  0
    5.7460    3.0525   12.3209 H   0  0  0  0  0  0  0  0  0  0  0  0
    2.4456   -0.7210   15.0219 H   0  0  0  0  0  0  0  0  0  0  0  0
   -1.8037    0.1894   13.4360 H   0  0  0  0  0  0  0  0  0  0  0  0
   -3.5417   -1.2484   14.2829 H   0  0  0  0  0  0  0  0  0  0  0  0
   -0.6791   -3.5189   16.3125 H   0  0  0  0  0  0  0  0  0  0  0  0
    1.0617   -2.0852   15.4742 H   0  0  0  0  0  0  0  0  0  0  0  0
   -4.0324   -5.3086   15.8326 H   0  0  0  0  0  0  0  0  0  0  0  0
   -2.8778   -4.9105   14.5700 H   0  0  0  0  0  0  0  0  0  0  0  0
   -5.1878   -5.0905   13.7033 H   0  0  0  0  0  0  0  0  0  0  0  0
   -4.5001   -3.4827   13.4871 H   0  0  0  0  0  0  0  0  0  0  0  0
   -6.3866   -2.0353   16.1382 H   0  0  0  0  0  0  0  0  0  0  0  0
   -5.1780   -1.7354   14.8900 H   0  0  0  0  0  0  0  0  0  0  0  0
   -4.7866   -3.4134   17.3584 H   0  0  0  0  0  0  0  0  0  0  0  0
   -4.1025   -1.8270   17.0641 H   0  0  0  0  0  0  0  0  0  0  0  0
   -0.6502    3.0054   12.6047 H   0  0  0  0  0  0  0  0  0  0  0  0
   -0.7455    3.6816   10.9950 H   0  0  0  0  0  0  0  0  0  0  0  0
   -0.5450    5.4869   12.2864 H   0  0  0  0  0  0  0  0  0  0  0  0
    0.9832    3.8104   14.1368 H   0  0  0  0  0  0  0  0  0  0  0  0
    0.1137    5.2417   14.5186 H   0  0  0  0  0  0  0  0  0  0  0  0
    2.9753    4.9236   13.8582 H   0  0  0  0  0  0  0  0  0  0  0  0
    2.2470    6.2134   14.7169 H   0  0  0  0  0  0  0  0  0  0  0  0
    2.2059    4.7090   11.3285 H   0  0  0  0  0  0  0  0  0  0  0  0
    1.2396    5.9654   10.7153 H   0  0  0  0  0  0  0  0  0  0  0  0
  1  2  2  0
  1 32  1  0
  2  3  1  0
  2 33  1  0
  3  4  2  0
  4  5  1  0
  5 23  1  0
  5  6  2  0
  6  7  1  0
  7 11  1  0
  7  8  2  0
  8  9  1  0
  8 34  1  0
  9 10  2  0
  9  4  1  0
 10  1  1  0
 11 12  2  0
 12 13  1  0
 12 35  1  0
 13 14  2  0
 13 36  1  0
 14 17  1  0
 14 15  1  0
 15 16  2  0
 15 37  1  0
 16 11  1  0
 16 38  1  0
 17 18  1  0
 18 19  1  0
 18 39  1  0
 18 40  1  0
 19 20  1  0
 19 41  1  0
 19 42  1  0
 20 21  1  0
 21 22  1  0
 21 43  1  0
 21 44  1  0
 22 17  1  0
 22 45  1  0
 22 46  1  0
 23 25  1  0
 23 24  1  0
 25 26  1  0
 25 47  1  0
 25 48  1  0
 26 27  1  0
 26 49  1  1
 27 28  1  0
 27 50  1  0
 27 51  1  0
 28 29  1  0
 28 52  1  0
 28 53  1  0
 29 30  1  0
 29 31  1  0
 30 26  1  0
 30 54  1  0
 30 55  1  0
M  END
>  <minimizedAffinity>  (6) 
-7.52742

>  <mol_id>  (6) 
67215

>  <source_index>  (6) 
5

>  <layer>  (6) 
L2

>  <uniprot>  (6) 
P43405

>  <paff>  (6) 
6.7234999999999996

>  <smiles>  (6) 
c1cnc2c(NC[C@H]3CCNC3)nc(-c3ccc(N4CCOCC4)cc3)cc2n1

$$$$
L2:P43405:73311
     RDKit          3D

 60 63  0  0  0  0  0  0  0  0999 V2000
    4.0574    3.5182   12.2820 C   0  0  0  0  0  0  0  0  0  0  0  0
    2.7449    3.8741   11.8600 C   0  0  0  0  0  0  0  0  0  0  0  0
    2.8780    4.9296   10.9719 C   0  0  0  0  0  0  0  0  0  0  0  0
    4.2308    5.1562   10.9213 N   0  0  0  0  0  0  0  0  0  0  0  0
    4.9247    6.1637   10.1498 C   0  0  0  0  0  0  0  0  0  0  0  0
    4.9540    4.3174   11.6826 N   0  0  0  0  0  0  0  0  0  0  0  0
    3.8985    0.4654   14.2555 C   0  0  0  0  0  0  0  0  0  0  0  0
    5.0587    0.4334   14.9254 N   0  0  0  0  0  0  0  0  0  0  0  0
    5.9174    1.4460   14.7247 C   0  0  0  0  0  0  0  0  0  0  0  0
    5.6685    2.4950   13.8778 C   0  0  0  0  0  0  0  0  0  0  0  0
    4.4566    2.4557   13.2243 C   0  0  0  0  0  0  0  0  0  0  0  0
    3.5732    1.4491   13.4086 N   0  0  0  0  0  0  0  0  0  0  0  0
    2.9335   -0.5274   14.3876 N   0  0  0  0  0  0  0  0  0  0  0  0
    3.4051   -1.4151   14.4871 H   0  0  0  0  0  0  0  0  0  0  0  0
   -1.4867    1.5116   13.3078 C   0  0  0  0  0  0  0  0  0  0  0  0
   -0.6642    0.3976   13.8854 C   0  0  0  0  0  0  0  0  0  0  0  0
   -1.2823   -0.6918   14.5064 C   0  0  0  0  0  0  0  0  0  0  0  0
   -0.5148   -1.7095   15.0786 C   0  0  0  0  0  0  0  0  0  0  0  0
   -1.1759   -2.8995   15.7080 C   0  0  0  0  0  0  0  0  0  0  0  0
    0.8839   -1.6298   15.0077 C   0  0  0  0  0  0  0  0  0  0  0  0
    1.5354   -0.5406   14.4041 C   0  0  0  0  0  0  0  0  0  0  0  0
    0.7383    0.4681   13.8546 C   0  0  0  0  0  0  0  0  0  0  0  0
    1.8901    5.6886   10.2382 C   0  0  0  0  0  0  0  0  0  0  0  0
    1.2633    5.2410    9.2824 O   0  0  0  0  0  0  0  0  0  0  0  0
    1.6824    6.9651   10.7012 N   0  0  0  0  0  0  0  0  0  0  0  0
    2.0259    7.2296   11.6154 H   0  0  0  0  0  0  0  0  0  0  0  0
    0.6086    7.7978   10.1947 C   0  0  0  0  0  0  0  0  0  0  0  0
   -0.1361    8.4910   11.3476 C   0  0  0  0  0  0  0  0  0  0  0  0
   -1.4086    7.8226   11.6804 N   0  0  0  0  0  0  0  0  0  0  0  0
   -1.9142    7.0351   10.5517 C   0  0  0  0  0  0  0  0  0  0  0  0
   -2.9771    6.1601   11.1963 C   0  0  0  0  0  0  0  0  0  0  0  0
   -2.5436    6.0177   12.6510 C   0  0  0  0  0  0  0  0  0  0  0  0
   -1.2783    6.8545   12.7748 C   0  0  0  0  0  0  0  0  0  0  0  0
    1.8623    3.4304   12.1587 H   0  0  0  0  0  0  0  0  0  0  0  0
    4.2135    6.7461    9.6021 H   0  0  0  0  0  0  0  0  0  0  0  0
    5.5983    5.6891    9.4673 H   0  0  0  0  0  0  0  0  0  0  0  0
    5.4756    6.8013   10.8093 H   0  0  0  0  0  0  0  0  0  0  0  0
    6.8138    1.4340   15.2359 H   0  0  0  0  0  0  0  0  0  0  0  0
    6.3440    3.2628   13.7392 H   0  0  0  0  0  0  0  0  0  0  0  0
   -2.5259    1.2835   13.4213 H   0  0  0  0  0  0  0  0  0  0  0  0
   -1.2573    1.6225   12.2686 H   0  0  0  0  0  0  0  0  0  0  0  0
   -1.2634    2.4232   13.8216 H   0  0  0  0  0  0  0  0  0  0  0  0
   -2.3123   -0.7446   14.5424 H   0  0  0  0  0  0  0  0  0  0  0  0
   -2.2384   -2.7796   15.6685 H   0  0  0  0  0  0  0  0  0  0  0  0
   -0.8640   -2.9827   16.7281 H   0  0  0  0  0  0  0  0  0  0  0  0
   -0.8969   -3.7852   15.1764 H   0  0  0  0  0  0  0  0  0  0  0  0
    1.4506   -2.3926   15.4102 H   0  0  0  0  0  0  0  0  0  0  0  0
    1.1916    1.2846   13.4155 H   0  0  0  0  0  0  0  0  0  0  0  0
   -0.0804    7.1878    9.6487 H   0  0  0  0  0  0  0  0  0  0  0  0
    1.0282    8.5481    9.5576 H   0  0  0  0  0  0  0  0  0  0  0  0
   -0.3432    9.5017   11.0639 H   0  0  0  0  0  0  0  0  0  0  0  0
    0.4910    8.4463   12.2134 H   0  0  0  0  0  0  0  0  0  0  0  0
   -1.1371    6.4406   10.1185 H   0  0  0  0  0  0  0  0  0  0  0  0
   -2.2912    7.6375    9.7518 H   0  0  0  0  0  0  0  0  0  0  0  0
   -3.0154    5.2027   10.7200 H   0  0  0  0  0  0  0  0  0  0  0  0
   -3.9549    6.5857   11.1086 H   0  0  0  0  0  0  0  0  0  0  0  0
   -2.3400    4.9932   12.8832 H   0  0  0  0  0  0  0  0  0  0  0  0
   -3.3054    6.3424   13.3286 H   0  0  0  0  0  0  0  0  0  0  0  0
   -0.4045    6.2497   12.6501 H   0  0  0  0  0  0  0  0  0  0  0  0
   -1.1731    7.3170   13.7340 H   0  0  0  0  0  0  0  0  0  0  0  0
  1  2  1  0
  2  3  2  0
  2 34  1  0
  3 23  1  0
  3  4  1  0
  4  5  1  0
  4  6  1  0
  5 35  1  0
  5 36  1  0
  5 37  1  0
  6  1  2  0
  7  8  2  0
  8  9  1  0
  9 10  2  0
  9 38  1  0
 10 11  1  0
 10 39  1  0
 11  1  1  0
 11 12  2  0
 12  7  1  0
 13  7  1  0
 13 14  1  0
 15 16  1  0
 15 40  1  0
 15 41  1  0
 15 42  1  0
 16 17  2  0
 17 18  1  0
 17 43  1  0
 18 19  1  0
 18 20  2  0
 19 44  1  0
 19 45  1  0
 19 46  1  0
 20 21  1  0
 20 47  1  0
 21 13  1  0
 21 22  2  0
 22 16  1  0
 22 48  1  0
 23 24  2  0
 23 25  1  0
 25 27  1  0
 25 26  1  0
 27 28  1  0
 27 49  1  0
 27 50  1  0
 28 29  1  0
 28 51  1  0
 28 52  1  0
 29 30  1  0
 30 31  1  0
 30 53  1  0
 30 54  1  0
 31 32  1  0
 31 55  1  0
 31 56  1  0
 32 33  1  0
 32 57  1  0
 32 58  1  0
 33 29  1  0
 33 59  1  0
 33 60  1  0
M  END
>  <minimizedAffinity>  (7) 
-7.54891

>  <mol_id>  (7) 
73311

>  <source_index>  (7) 
6

>  <layer>  (7) 
L2

>  <uniprot>  (7) 
P43405

>  <paff>  (7) 
7.0605000000000002

>  <smiles>  (7) 
Cc1cc(C)cc(Nc2nccc(-c3cc(C(=O)NCCN4CCCC4)n(C)n3)n2)c1

$$$$
L2:P43405:91792
     RDKit          3D

 60 63  0  0  0  0  0  0  0  0999 V2000
    1.3593    0.5578   14.0774 C   0  0  0  0  0  0  0  0  0  0  0  0
    1.2374    1.9377   13.7582 C   0  0  0  0  0  0  0  0  0  0  0  0
    2.5211    2.4182   13.5702 C   0  0  0  0  0  0  0  0  0  0  0  0
    3.3170    1.3104   13.6810 N   0  0  0  0  0  0  0  0  0  0  0  0
    4.7253    1.1962   13.3797 C   0  0  0  0  0  0  0  0  0  0  0  0
    2.6563    0.2047   14.0588 N   0  0  0  0  0  0  0  0  0  0  0  0
   -1.9160   -1.0204   14.0852 C   0  0  0  0  0  0  0  0  0  0  0  0
   -1.7760   -2.0840   14.8885 N   0  0  0  0  0  0  0  0  0  0  0  0
   -0.5716   -2.2847   15.4477 C   0  0  0  0  0  0  0  0  0  0  0  0
    0.5080   -1.4677   15.2349 C   0  0  0  0  0  0  0  0  0  0  0  0
    0.2856   -0.3999   14.3942 C   0  0  0  0  0  0  0  0  0  0  0  0
   -0.9159   -0.1719   13.8180 N   0  0  0  0  0  0  0  0  0  0  0  0
   -3.1206   -0.7106   13.4624 N   0  0  0  0  0  0  0  0  0  0  0  0
   -3.3747   -1.4822   12.8625 H   0  0  0  0  0  0  0  0  0  0  0  0
   -7.4553    1.1678   14.8584 C   0  0  0  0  0  0  0  0  0  0  0  0
   -6.1250    1.3427   14.1880 C   0  0  0  0  0  0  0  0  0  0  0  0
   -5.8024    2.5472   13.5572 C   0  0  0  0  0  0  0  0  0  0  0  0
   -4.5721    2.7014   12.9116 C   0  0  0  0  0  0  0  0  0  0  0  0
   -4.2336    3.9859   12.2143 C   0  0  0  0  0  0  0  0  0  0  0  0
   -3.6763    1.6203   12.8694 C   0  0  0  0  0  0  0  0  0  0  0  0
   -3.9752    0.3961   13.4752 C   0  0  0  0  0  0  0  0  0  0  0  0
   -5.2124    0.2787   14.1321 C   0  0  0  0  0  0  0  0  0  0  0  0
    2.9153    3.7672   13.2559 C   0  0  0  0  0  0  0  0  0  0  0  0
    3.2458    4.5775   14.1148 O   0  0  0  0  0  0  0  0  0  0  0  0
    2.9792    4.0539   11.9059 N   0  0  0  0  0  0  0  0  0  0  0  0
    2.9977    3.2664   11.2710 H   0  0  0  0  0  0  0  0  0  0  0  0
    3.5316    5.3254   11.4333 C   0  0  1  0  0  0  0  0  0  0  0  0
    4.9711    5.1426   10.9608 C   0  0  0  0  0  0  0  0  0  0  0  0
    2.6033    6.0622   10.4138 C   0  0  0  0  0  0  0  0  0  0  0  0
    1.1680    6.3133   10.6038 N   0  0  0  0  0  0  0  0  0  0  0  0
    0.3031    5.1564   10.3342 C   0  0  0  0  0  0  0  0  0  0  0  0
   -0.5321    5.5147   11.5876 C   0  0  0  0  0  0  0  0  0  0  0  0
   -0.8102    4.4865   12.4252 F   0  0  0  0  0  0  0  0  0  0  0  0
   -1.6980    6.1682   11.3691 F   0  0  0  0  0  0  0  0  0  0  0  0
    0.6823    6.3923   11.9846 C   0  0  0  0  0  0  0  0  0  0  0  0
    0.3608    2.4768   13.6815 H   0  0  0  0  0  0  0  0  0  0  0  0
    5.1082    2.1542   13.0960 H   0  0  0  0  0  0  0  0  0  0  0  0
    4.8629    0.5046   12.5749 H   0  0  0  0  0  0  0  0  0  0  0  0
    5.2478    0.8452   14.2449 H   0  0  0  0  0  0  0  0  0  0  0  0
   -0.4526   -3.0982   16.0714 H   0  0  0  0  0  0  0  0  0  0  0  0
    1.4253   -1.6409   15.6748 H   0  0  0  0  0  0  0  0  0  0  0  0
   -8.0073    2.0825   14.7997 H   0  0  0  0  0  0  0  0  0  0  0  0
   -7.3057    0.9068   15.8852 H   0  0  0  0  0  0  0  0  0  0  0  0
   -8.0020    0.3893   14.3685 H   0  0  0  0  0  0  0  0  0  0  0  0
   -6.4770    3.3282   13.5680 H   0  0  0  0  0  0  0  0  0  0  0  0
   -5.0284    4.6883   12.3551 H   0  0  0  0  0  0  0  0  0  0  0  0
   -4.1026    3.8003   11.1687 H   0  0  0  0  0  0  0  0  0  0  0  0
   -3.3284    4.3852   12.6218 H   0  0  0  0  0  0  0  0  0  0  0  0
   -2.7752    1.7324   12.3791 H   0  0  0  0  0  0  0  0  0  0  0  0
   -5.4562   -0.6154   14.5861 H   0  0  0  0  0  0  0  0  0  0  0  0
    3.5676    5.9977   12.2650 H   0  0  0  0  0  0  0  0  0  0  0  0
    4.9901    4.4746   10.1251 H   0  0  0  0  0  0  0  0  0  0  0  0
    5.5587    4.7349   11.7567 H   0  0  0  0  0  0  0  0  0  0  0  0
    5.3738    6.0901   10.6693 H   0  0  0  0  0  0  0  0  0  0  0  0
    2.6760    5.5008    9.5058 H   0  0  0  0  0  0  0  0  0  0  0  0
    2.9838    7.0589   10.4949 H   0  0  0  0  0  0  0  0  0  0  0  0
    0.8016    4.2115   10.3934 H   0  0  0  0  0  0  0  0  0  0  0  0
   -0.1655    5.0330    9.3802 H   0  0  0  0  0  0  0  0  0  0  0  0
    1.3325    5.9426   12.7056 H   0  0  0  0  0  0  0  0  0  0  0  0
    0.5407    7.3394   12.4619 H   0  0  0  0  0  0  0  0  0  0  0  0
  1  2  1  0
  2  3  2  0
  2 36  1  0
  3 23  1  0
  3  4  1  0
  4  5  1  0
  4  6  1  0
  5 37  1  0
  5 38  1  0
  5 39  1  0
  6  1  2  0
  7  8  2  0
  8  9  1  0
  9 10  2  0
  9 40  1  0
 10 11  1  0
 10 41  1  0
 11  1  1  0
 11 12  2  0
 12  7  1  0
 13  7  1  0
 13 14  1  0
 15 16  1  0
 15 42  1  0
 15 43  1  0
 15 44  1  0
 16 17  2  0
 17 18  1  0
 17 45  1  0
 18 19  1  0
 18 20  2  0
 19 46  1  0
 19 47  1  0
 19 48  1  0
 20 21  1  0
 20 49  1  0
 21 13  1  0
 21 22  2  0
 22 16  1  0
 22 50  1  0
 23 24  2  0
 23 25  1  0
 25 27  1  0
 25 26  1  0
 27 28  1  0
 27 29  1  0
 27 51  1  1
 28 52  1  0
 28 53  1  0
 28 54  1  0
 29 30  1  0
 29 55  1  0
 29 56  1  0
 30 31  1  0
 31 32  1  0
 31 57  1  0
 31 58  1  0
 32 33  1  0
 32 34  1  0
 32 35  1  0
 35 30  1  0
 35 59  1  0
 35 60  1  0
M  END
>  <minimizedAffinity>  (8) 
-7.32766

>  <mol_id>  (8) 
91792

>  <source_index>  (8) 
7

>  <layer>  (8) 
L2

>  <uniprot>  (8) 
P43405

>  <paff>  (8) 
6.7328000000000001

>  <smiles>  (8) 
Cc1cc(C)cc(Nc2nccc(-c3cc(C(=O)N[C@@H](C)CN4CC(F)(F)C4)n(C)n3)n2)c1

$$$$
L2:P43405:113757
     RDKit          3D

 58 61  0  0  0  0  0  0  0  0999 V2000
    2.6784    5.0197   11.8235 C   0  0  0  0  0  0  0  0  0  0  0  0
    2.8408    6.0020   10.8124 C   0  0  0  0  0  0  0  0  0  0  0  0
    1.5785    6.4864   10.5261 C   0  0  0  0  0  0  0  0  0  0  0  0
    0.7585    5.8544   11.4234 N   0  0  0  0  0  0  0  0  0  0  0  0
   -0.6402    6.1169   11.6791 C   0  0  0  0  0  0  0  0  0  0  0  0
    1.3822    4.9223   12.1698 N   0  0  0  0  0  0  0  0  0  0  0  0
    4.3762    2.1112   13.1681 C   0  0  0  0  0  0  0  0  0  0  0  0
    5.5742    2.5725   13.5556 N   0  0  0  0  0  0  0  0  0  0  0  0
    5.8298    3.8789   13.3669 C   0  0  0  0  0  0  0  0  0  0  0  0
    4.9348    4.7489   12.8056 C   0  0  0  0  0  0  0  0  0  0  0  0
    3.7292    4.1973   12.4358 C   0  0  0  0  0  0  0  0  0  0  0  0
    3.4365    2.8880   12.6100 N   0  0  0  0  0  0  0  0  0  0  0  0
    4.0121    0.7764   13.3195 N   0  0  0  0  0  0  0  0  0  0  0  0
    4.7357    0.1954   12.9224 H   0  0  0  0  0  0  0  0  0  0  0  0
    0.5356   -0.3618   14.1283 C   0  0  0  0  0  0  0  0  0  0  0  0
    0.8153   -1.2826   15.1375 C   0  0  0  0  0  0  0  0  0  0  0  0
    2.1290   -1.5130   15.5329 C   0  0  0  0  0  0  0  0  0  0  0  0
    3.1695   -0.8174   14.9156 C   0  0  0  0  0  0  0  0  0  0  0  0
    2.9198    0.1177   13.8975 C   0  0  0  0  0  0  0  0  0  0  0  0
    1.5876    0.3300   13.5159 C   0  0  0  0  0  0  0  0  0  0  0  0
   -1.6172   -1.3680   14.0532 C   0  0  0  0  0  0  0  0  0  0  0  0
   -0.7948   -0.2287   13.8329 O   0  0  0  0  0  0  0  0  0  0  0  0
    1.2163    7.4860    9.5547 C   0  0  0  0  0  0  0  0  0  0  0  0
    0.7114    7.2126    8.4719 O   0  0  0  0  0  0  0  0  0  0  0  0
    1.4317    8.7858    9.9657 N   0  0  0  0  0  0  0  0  0  0  0  0
    1.5045    8.9336   10.9638 H   0  0  0  0  0  0  0  0  0  0  0  0
    0.9870    9.9222    9.1524 C   0  0  1  0  0  0  0  0  0  0  0  0
    0.0478   10.7993    9.9846 C   0  0  0  0  0  0  0  0  0  0  0  0
    2.1955   10.7378    8.6124 C   0  0  0  0  0  0  0  0  0  0  0  0
    3.1491    9.9108    7.8480 N   0  0  0  0  0  0  0  0  0  0  0  0
    4.5059    9.9804    8.4440 C   0  0  0  0  0  0  0  0  0  0  0  0
    4.8688   11.1074    7.4679 C   0  0  0  0  0  0  0  0  0  0  0  0
    3.6445   10.6517    6.6638 C   0  0  0  0  0  0  0  0  0  0  0  0
    3.7282    6.2971   10.3760 H   0  0  0  0  0  0  0  0  0  0  0  0
   -0.9887    6.8761   11.0104 H   0  0  0  0  0  0  0  0  0  0  0  0
   -0.7621    6.4480   12.6893 H   0  0  0  0  0  0  0  0  0  0  0  0
   -1.2049    5.2209   11.5269 H   0  0  0  0  0  0  0  0  0  0  0  0
    6.7490    4.2448   13.6607 H   0  0  0  0  0  0  0  0  0  0  0  0
    5.1490    5.7492   12.6691 H   0  0  0  0  0  0  0  0  0  0  0  0
    0.0443   -1.7954   15.5931 H   0  0  0  0  0  0  0  0  0  0  0  0
    2.3333   -2.1955   16.2796 H   0  0  0  0  0  0  0  0  0  0  0  0
    4.1419   -0.9935   15.2130 H   0  0  0  0  0  0  0  0  0  0  0  0
    1.3781    1.0100   12.7684 H   0  0  0  0  0  0  0  0  0  0  0  0
   -2.6270   -1.1361   13.7858 H   0  0  0  0  0  0  0  0  0  0  0  0
   -1.5761   -1.6432   15.0864 H   0  0  0  0  0  0  0  0  0  0  0  0
   -1.2673   -2.1819   13.4531 H   0  0  0  0  0  0  0  0  0  0  0  0
    0.4560    9.5555    8.2989 H   0  0  0  0  0  0  0  0  0  0  0  0
    0.5715   11.1703   10.8408 H   0  0  0  0  0  0  0  0  0  0  0  0
   -0.7924   10.2189   10.3043 H   0  0  0  0  0  0  0  0  0  0  0  0
   -0.2921   11.6217    9.3904 H   0  0  0  0  0  0  0  0  0  0  0  0
    2.7108   11.1748    9.4421 H   0  0  0  0  0  0  0  0  0  0  0  0
    1.8099   11.4820    7.9473 H   0  0  0  0  0  0  0  0  0  0  0  0
    5.0852    9.0895    8.3191 H   0  0  0  0  0  0  0  0  0  0  0  0
    4.6307   10.1129    9.4984 H   0  0  0  0  0  0  0  0  0  0  0  0
    5.8078   10.9890    6.9688 H   0  0  0  0  0  0  0  0  0  0  0  0
    5.0081   12.1206    7.7824 H   0  0  0  0  0  0  0  0  0  0  0  0
    3.8785   10.0300    5.8250 H   0  0  0  0  0  0  0  0  0  0  0  0
    3.0208   11.3680    6.1710 H   0  0  0  0  0  0  0  0  0  0  0  0
  1  2  1  0
  2  3  2  0
  2 34  1  0
  3 23  1  0
  3  4  1  0
  4  5  1  0
  4  6  1  0
  5 35  1  0
  5 36  1  0
  5 37  1  0
  6  1  2  0
  7  8  2  0
  8  9  1  0
  9 10  2  0
  9 38  1  0
 10 11  1  0
 10 39  1  0
 11  1  1  0
 11 12  2  0
 12  7  1  0
 13  7  1  0
 13 14  1  0
 15 16  2  0
 16 17  1  0
 16 40  1  0
 17 18  2  0
 17 41  1  0
 18 19  1  0
 18 42  1  0
 19 13  1  0
 19 20  2  0
 20 15  1  0
 20 43  1  0
 21 22  1  0
 21 44  1  0
 21 45  1  0
 21 46  1  0
 22 15  1  0
 23 24  2  0
 23 25  1  0
 25 27  1  0
 25 26  1  0
 27 28  1  0
 27 29  1  0
 27 47  1  6
 28 48  1  0
 28 49  1  0
 28 50  1  0
 29 30  1  0
 29 51  1  0
 29 52  1  0
 30 31  1  0
 31 32  1  0
 31 53  1  0
 31 54  1  0
 32 33  1  0
 32 55  1  0
 32 56  1  0
 33 30  1  0
 33 57  1  0
 33 58  1  0
M  END
>  <minimizedAffinity>  (9) 
-7.08198

>  <mol_id>  (9) 
113757

>  <source_index>  (9) 
8

>  <layer>  (9) 
L2

>  <uniprot>  (9) 
P43405

>  <paff>  (9) 
7.6778000000000004

>  <smiles>  (9) 
COc1cccc(Nc2nccc(-c3cc(C(=O)N[C@@H](C)CN4CCC4)n(C)n3)n2)c1

$$$$
L2:P43405:130651
     RDKit          3D

 57 61  0  0  0  0  0  0  0  0999 V2000
    2.9565    3.3313   11.6477 C   0  0  1  0  0  0  0  0  0  0  0  0
    4.0948    4.0542   12.4297 C   0  0  0  0  0  0  0  0  0  0  0  0
    5.0579    3.0902   12.9841 N   0  0  0  0  0  0  0  0  0  0  0  0
    5.8655    3.3550   14.0769 C   0  0  0  0  0  0  0  0  0  0  0  0
    6.0680    2.2319   14.7752 C   0  0  0  0  0  0  0  0  0  0  0  0
    5.3438    1.1688   14.2324 N   0  0  0  0  0  0  0  0  0  0  0  0
    4.6185    1.6863   13.0361 C   0  0  1  0  0  0  0  0  0  0  0  0
    3.0628    1.6098   13.2488 C   0  0  0  0  0  0  0  0  0  0  0  0
    2.2618    2.3518   12.5391 N   0  0  0  0  0  0  0  0  0  0  0  0
    5.9770    0.4157   13.9795 H   0  0  0  0  0  0  0  0  0  0  0  0
    0.9800    7.7392   11.4953 N   0  0  0  0  0  0  0  0  0  0  0  0
    1.0633    6.4468   10.9672 C   0  0  0  0  0  0  0  0  0  0  0  0
    0.3253    6.0660    9.8449 C   0  0  0  0  0  0  0  0  0  0  0  0
    0.3925    4.8345    9.2919 N   0  0  0  0  0  0  0  0  0  0  0  0
    1.2350    3.9775    9.9175 C   0  0  0  0  0  0  0  0  0  0  0  0
    1.9773    4.3245   11.0414 C   0  0  0  0  0  0  0  0  0  0  0  0
    1.9006    5.5797   11.5649 N   0  0  0  0  0  0  0  0  0  0  0  0
    0.0187    7.9462   11.7644 H   0  0  0  0  0  0  0  0  0  0  0  0
    1.2607    8.4110   10.7889 H   0  0  0  0  0  0  0  0  0  0  0  0
    2.6706    0.7095   14.2263 N   0  0  0  0  0  0  0  0  0  0  0  0
    3.1655    0.8825   15.1033 H   0  0  0  0  0  0  0  0  0  0  0  0
    1.4442    0.0450   14.3775 C   0  0  0  0  0  0  0  0  0  0  0  0
    0.2352    0.5115   13.8653 C   0  0  0  0  0  0  0  0  0  0  0  0
   -0.9594   -0.2080   14.0328 C   0  0  0  0  0  0  0  0  0  0  0  0
   -0.9910   -1.4327   14.7040 C   0  0  0  0  0  0  0  0  0  0  0  0
    0.2314   -1.9119   15.1933 C   0  0  0  0  0  0  0  0  0  0  0  0
    1.4239   -1.1944   15.0280 C   0  0  0  0  0  0  0  0  0  0  0  0
   -2.1545   -2.1834   14.9036 N   0  0  0  0  0  0  0  0  0  0  0  0
   -3.3185   -1.9985   14.0138 C   0  0  0  0  0  0  0  0  0  0  0  0
   -3.4678   -3.1967   13.0677 C   0  0  0  0  0  0  0  0  0  0  0  0
   -3.6715   -4.4475   13.7460 O   0  0  0  0  0  0  0  0  0  0  0  0
   -3.1649   -4.4470   15.1034 C   0  0  2  0  0  0  0  0  0  0  0  0
   -1.8891   -3.5977   15.2648 C   0  0  0  0  0  0  0  0  0  0  0  0
   -2.9027   -5.9035   15.4846 C   0  0  0  0  0  0  0  0  0  0  0  0
   -1.6235   -6.0202   16.1090 O   0  0  0  0  0  0  0  0  0  0  0  0
   -1.5900   -5.2945   16.7621 H   0  0  0  0  0  0  0  0  0  0  0  0
    3.3967    2.7937   10.8340 H   0  0  0  0  0  0  0  0  0  0  0  0
    3.6640    4.6169   13.2314 H   0  0  0  0  0  0  0  0  0  0  0  0
    4.6142    4.6985   11.7514 H   0  0  0  0  0  0  0  0  0  0  0  0
    6.2535    4.2806   14.3171 H   0  0  0  0  0  0  0  0  0  0  0  0
    6.6781    2.1609   15.6045 H   0  0  0  0  0  0  0  0  0  0  0  0
    4.8214    1.1335   12.1427 H   0  0  0  0  0  0  0  0  0  0  0  0
   -0.3046    6.7613    9.4150 H   0  0  0  0  0  0  0  0  0  0  0  0
    1.3306    3.0210    9.5420 H   0  0  0  0  0  0  0  0  0  0  0  0
    0.2171    1.4061   13.3511 H   0  0  0  0  0  0  0  0  0  0  0  0
   -1.8366    0.1781   13.6501 H   0  0  0  0  0  0  0  0  0  0  0  0
    0.2542   -2.8171   15.6885 H   0  0  0  0  0  0  0  0  0  0  0  0
    2.3052   -1.5879   15.3934 H   0  0  0  0  0  0  0  0  0  0  0  0
   -3.1819   -1.1085   13.4358 H   0  0  0  0  0  0  0  0  0  0  0  0
   -4.2019   -1.9181   14.6121 H   0  0  0  0  0  0  0  0  0  0  0  0
   -2.5787   -3.2736   12.4773 H   0  0  0  0  0  0  0  0  0  0  0  0
   -4.3392   -3.0184   12.4729 H   0  0  0  0  0  0  0  0  0  0  0  0
   -3.8883   -3.9991   15.7522 H   0  0  0  0  0  0  0  0  0  0  0  0
   -1.1245   -3.9865   14.6252 H   0  0  0  0  0  0  0  0  0  0  0  0
   -1.5736   -3.6396   16.2864 H   0  0  0  0  0  0  0  0  0  0  0  0
   -2.9240   -6.5101   14.6034 H   0  0  0  0  0  0  0  0  0  0  0  0
   -3.6589   -6.2304   16.1673 H   0  0  0  0  0  0  0  0  0  0  0  0
  1  2  1  0
  1 37  1  6
  2  3  1  0
  2 38  1  0
  2 39  1  0
  3  4  1  0
  4  5  2  0
  4 40  1  0
  5  6  1  0
  5 41  1  0
  6  7  1  0
  6 10  1  0
  7  8  1  0
  7  3  1  0
  7 42  1  6
  8 20  1  0
  8  9  2  0
  9  1  1  0
 11 12  1  0
 11 18  1  0
 11 19  1  0
 12 13  2  0
 13 14  1  0
 13 43  1  0
 14 15  2  0
 15 16  1  0
 15 44  1  0
 16  1  1  0
 16 17  2  0
 17 12  1  0
 20 22  1  0
 20 21  1  0
 22 23  2  0
 23 24  1  0
 23 45  1  0
 24 25  2  0
 24 46  1  0
 25 28  1  0
 25 26  1  0
 26 27  2  0
 26 47  1  0
 27 22  1  0
 27 48  1  0
 28 29  1  0
 29 30  1  0
 29 49  1  0
 29 50  1  0
 30 31  1  0
 30 51  1  0
 30 52  1  0
 31 32  1  0
 32 34  1  0
 32 33  1  0
 32 53  1  1
 33 28  1  0
 33 54  1  0
 33 55  1  0
 34 35  1  0
 34 56  1  0
 34 57  1  0
 35 36  1  0
M  END
>  <minimizedAffinity>  (10) 
-8.19567

>  <mol_id>  (10) 
130651

>  <source_index>  (10) 
9

>  <layer>  (10) 
L2

>  <uniprot>  (10) 
P43405

>  <paff>  (10) 
7.8761000000000001

>  <smiles>  (10) 
Nc1cncc(C2CN3C=CNC3C(Nc3ccc(N4CCO[C@@H](CO)C4)cc3)=N2)n1

$$$$
