L2:P43405:458
     RDKit          3D

 50 52  0  0  0  0  0  0  0  0999 V2000
    3.9625    0.6100   14.1428 C   0  0  0  0  0  0  0  0  0  0  0  0
    5.1027    0.5919   14.8472 N   0  0  0  0  0  0  0  0  0  0  0  0
    5.9103    1.6628   14.7564 C   0  0  0  0  0  0  0  0  0  0  0  0
    5.6259    2.7575   13.9869 C   0  0  0  0  0  0  0  0  0  0  0  0
    4.4375    2.6987   13.2948 C   0  0  0  0  0  0  0  0  0  0  0  0
    3.5984    1.6382   13.3612 N   0  0  0  0  0  0  0  0  0  0  0  0
    4.0123    3.8074   12.4314 C   0  0  0  0  0  0  0  0  0  0  0  0
    2.6889    4.2897   12.2475 C   0  0  0  0  0  0  0  0  0  0  0  0
    2.7658    5.3384   11.3468 C   0  0  0  0  0  0  0  0  0  0  0  0
    4.1042    5.4255   11.0473 N   0  0  0  0  0  0  0  0  0  0  0  0
    4.7426    6.3688   10.1556 C   0  0  0  0  0  0  0  0  0  0  0  0
    4.8717    4.5175   11.6838 N   0  0  0  0  0  0  0  0  0  0  0  0
    1.7438    6.1945   10.7855 C   0  0  0  0  0  0  0  0  0  0  0  0
    1.2936    6.0506    9.6511 O   0  0  0  0  0  0  0  0  0  0  0  0
    1.3013    7.1994   11.6180 N   0  0  0  0  0  0  0  0  0  0  0  0
    1.7501    7.3390   12.5096 H   0  0  0  0  0  0  0  0  0  0  0  0
    0.3170    8.1741   11.1872 C   0  0  0  0  0  0  0  0  0  0  0  0
   -1.0837    7.9156   11.7750 C   0  0  0  0  0  0  0  0  0  0  0  0
   -1.0606    7.3417   13.1203 N   0  0  0  0  0  0  0  0  0  0  0  0
   -0.2948    7.7601   13.6556 H   0  0  0  0  0  0  0  0  0  0  0  0
   -1.9238    7.5652   13.6110 H   0  0  0  0  0  0  0  0  0  0  0  0
    3.0592   -0.4485   14.1696 N   0  0  0  0  0  0  0  0  0  0  0  0
    3.5669   -1.3141   14.0713 H   0  0  0  0  0  0  0  0  0  0  0  0
   -1.3456    1.5635   13.2627 C   0  0  0  0  0  0  0  0  0  0  0  0
   -0.5281    0.4441   13.8355 C   0  0  0  0  0  0  0  0  0  0  0  0
   -1.1454   -0.6057   14.5200 C   0  0  0  0  0  0  0  0  0  0  0  0
   -0.3809   -1.6362   15.0746 C   0  0  0  0  0  0  0  0  0  0  0  0
   -1.0410   -2.7508   15.8317 C   0  0  0  0  0  0  0  0  0  0  0  0
    1.0190   -1.5888   14.9690 C   0  0  0  0  0  0  0  0  0  0  0  0
    1.6695   -0.5453   14.3035 C   0  0  0  0  0  0  0  0  0  0  0  0
    0.8717    0.4678   13.7440 C   0  0  0  0  0  0  0  0  0  0  0  0
    6.7905    1.6588   15.2952 H   0  0  0  0  0  0  0  0  0  0  0  0
    6.2584    3.5709   13.9293 H   0  0  0  0  0  0  0  0  0  0  0  0
    1.8342    3.9279   12.6987 H   0  0  0  0  0  0  0  0  0  0  0  0
    4.0032    7.0163    9.7326 H   0  0  0  0  0  0  0  0  0  0  0  0
    5.2417    5.8375    9.3723 H   0  0  0  0  0  0  0  0  0  0  0  0
    5.4552    6.9504   10.7024 H   0  0  0  0  0  0  0  0  0  0  0  0
    0.2500    8.1421   10.1198 H   0  0  0  0  0  0  0  0  0  0  0  0
    0.6398    9.1318   11.5387 H   0  0  0  0  0  0  0  0  0  0  0  0
   -1.6018    7.2389   11.1280 H   0  0  0  0  0  0  0  0  0  0  0  0
   -1.5718    8.8649   11.8486 H   0  0  0  0  0  0  0  0  0  0  0  0
   -2.3843    1.3679   13.4290 H   0  0  0  0  0  0  0  0  0  0  0  0
   -1.1606    1.6386   12.2115 H   0  0  0  0  0  0  0  0  0  0  0  0
   -1.0751    2.4827   13.7390 H   0  0  0  0  0  0  0  0  0  0  0  0
   -2.1727   -0.6205   14.6169 H   0  0  0  0  0  0  0  0  0  0  0  0
   -2.1027   -2.6208   15.8043 H   0  0  0  0  0  0  0  0  0  0  0  0
   -0.7063   -2.7389   16.8479 H   0  0  0  0  0  0  0  0  0  0  0  0
   -0.7847   -3.6876   15.3828 H   0  0  0  0  0  0  0  0  0  0  0  0
    1.5814   -2.3430   15.3932 H   0  0  0  0  0  0  0  0  0  0  0  0
    1.3287    1.2514   13.2519 H   0  0  0  0  0  0  0  0  0  0  0  0
  1  2  2  0
  2  3  1  0
  3  4  2  0
  3 32  1  0
  4  5  1  0
  4 33  1  0
  5  7  1  0
  5  6  2  0
  6  1  1  0
  7  8  1  0
  8  9  2  0
  8 34  1  0
  9 13  1  0
  9 10  1  0
 10 11  1  0
 10 12  1  0
 11 35  1  0
 11 36  1  0
 11 37  1  0
 12  7  2  0
 13 14  2  0
 13 15  1  0
 15 17  1  0
 15 16  1  0
 17 18  1  0
 17 38  1  0
 17 39  1  0
 18 19  1  0
 18 40  1  0
 18 41  1  0
 19 20  1  0
 19 21  1  0
 22  1  1  0
 22 23  1  0
 24 25  1  0
 24 42  1  0
 24 43  1  0
 24 44  1  0
 25 26  2  0
 26 27  1  0
 26 45  1  0
 27 28  1  0
 27 29  2  0
 28 46  1  0
 28 47  1  0
 28 48  1  0
 29 30  1  0
 29 49  1  0
 30 22  1  0
 30 31  2  0
 31 25  1  0
 31 50  1  0
M  END
>  <minimizedAffinity>  (1) 
-8.23225

>  <mol_id>  (1) 
458

>  <source_index>  (1) 
0

>  <layer>  (1) 
L2

>  <uniprot>  (1) 
P43405

>  <paff>  (1) 
7.1367000000000003

>  <smiles>  (1) 
Cc1cc(C)cc(Nc2nccc(-c3cc(C(=O)NCCN)n(C)n3)n2)c1

$$$$
L2:P43405:7613
     RDKit          3D

 45 49  0  0  0  0  0  0  0  0999 V2000
    3.5284    3.9503   13.4483 C   0  0  0  0  0  0  0  0  0  0  0  0
    4.5575    4.7804   13.6711 N   0  0  0  0  0  0  0  0  0  0  0  0
    5.6088    3.9648   13.8263 N   0  0  0  0  0  0  0  0  0  0  0  0
    5.3027    2.6430   13.6929 C   0  0  0  0  0  0  0  0  0  0  0  0
    3.9554    2.5930   13.4328 C   0  0  0  0  0  0  0  0  0  0  0  0
    6.5151    4.3844   14.0063 H   0  0  0  0  0  0  0  0  0  0  0  0
   -3.8328    5.2353   13.2012 C   0  0  0  0  0  0  0  0  0  0  0  0
   -2.3558    5.4532   13.0066 C   0  0  0  0  0  0  0  0  0  0  0  0
   -1.4612    4.4649   13.4659 C   0  0  0  0  0  0  0  0  0  0  0  0
   -0.0827    4.6482   13.2941 C   0  0  0  0  0  0  0  0  0  0  0  0
    0.9637    3.8341   13.6483 N   0  0  0  0  0  0  0  0  0  0  0  0
    2.0552    4.4726   13.2724 C   0  0  0  0  0  0  0  0  0  0  0  0
    1.7342    5.6613   12.6661 N   0  0  0  0  0  0  0  0  0  0  0  0
    0.3719    5.8026   12.6747 C   0  0  0  0  0  0  0  0  0  0  0  0
   -0.4758    6.8047   12.2002 C   0  0  0  0  0  0  0  0  0  0  0  0
   -1.8616    6.6175   12.3754 C   0  0  0  0  0  0  0  0  0  0  0  0
   -2.8014    7.6840   11.8745 C   0  0  0  0  0  0  0  0  0  0  0  0
    2.3951    6.2920   12.2396 H   0  0  0  0  0  0  0  0  0  0  0  0
    3.2370    1.4945   13.1151 N   0  0  0  0  0  0  0  0  0  0  0  0
    3.1866    1.1941   12.1453 H   0  0  0  0  0  0  0  0  0  0  0  0
    2.7240    0.4539   13.9012 C   0  0  0  0  0  0  0  0  0  0  0  0
    3.6512   -0.2436   14.6061 N   0  0  0  0  0  0  0  0  0  0  0  0
    3.2413   -1.2515   15.3995 C   0  0  0  0  0  0  0  0  0  0  0  0
    1.9940   -1.7045   15.5799 N   0  0  0  0  0  0  0  0  0  0  0  0
    1.1082   -1.0283   14.8303 C   0  0  0  0  0  0  0  0  0  0  0  0
    1.3817    0.0348   13.9768 C   0  0  0  0  0  0  0  0  0  0  0  0
    0.1419    0.3803   13.3625 C   0  0  0  0  0  0  0  0  0  0  0  0
   -0.8382   -0.4401   13.8814 C   0  0  0  0  0  0  0  0  0  0  0  0
   -0.2378   -1.2864   14.7753 N   0  0  0  0  0  0  0  0  0  0  0  0
   -0.9036   -2.3173   15.5359 C   0  0  0  0  0  0  0  0  0  0  0  0
    5.9508    1.8438   13.7713 H   0  0  0  0  0  0  0  0  0  0  0  0
   -3.9933    4.2999   13.6953 H   0  0  0  0  0  0  0  0  0  0  0  0
   -4.3202    5.2238   12.2487 H   0  0  0  0  0  0  0  0  0  0  0  0
   -4.2346    6.0274   13.7979 H   0  0  0  0  0  0  0  0  0  0  0  0
   -1.8190    3.6128   13.9252 H   0  0  0  0  0  0  0  0  0  0  0  0
   -0.1026    7.6493   11.7393 H   0  0  0  0  0  0  0  0  0  0  0  0
   -2.2367    8.4776   11.4316 H   0  0  0  0  0  0  0  0  0  0  0  0
   -3.3744    8.0675   12.6928 H   0  0  0  0  0  0  0  0  0  0  0  0
   -3.4603    7.2641   11.1435 H   0  0  0  0  0  0  0  0  0  0  0  0
    3.9797   -1.7346   15.9347 H   0  0  0  0  0  0  0  0  0  0  0  0
    0.0022    1.1164   12.6528 H   0  0  0  0  0  0  0  0  0  0  0  0
   -1.8414   -0.4198   13.6400 H   0  0  0  0  0  0  0  0  0  0  0  0
   -1.9495   -2.3080   15.3101 H   0  0  0  0  0  0  0  0  0  0  0  0
   -0.7627   -2.1366   16.5811 H   0  0  0  0  0  0  0  0  0  0  0  0
   -0.4920   -3.2713   15.2802 H   0  0  0  0  0  0  0  0  0  0  0  0
  1  2  2  0
  2  3  1  0
  3  4  1  0
  3  6  1  0
  4  5  2  0
  4 31  1  0
  5 19  1  0
  5  1  1  0
  7  8  1  0
  7 32  1  0
  7 33  1  0
  7 34  1  0
  8  9  2  0
  9 10  1  0
  9 35  1  0
 10 11  1  0
 11 12  2  0
 12  1  1  0
 12 13  1  0
 13 14  1  0
 13 18  1  0
 14 15  1  0
 14 10  2  0
 15 16  2  0
 15 36  1  0
 16 17  1  0
 16  8  1  0
 17 37  1  0
 17 38  1  0
 17 39  1  0
 19 21  1  0
 19 20  1  0
 21 22  2  0
 22 23  1  0
 23 24  2  0
 23 40  1  0
 24 25  1  0
 25 26  2  0
 26 27  1  0
 26 21  1  0
 27 28  2  0
 27 41  1  0
 28 29  1  0
 28 42  1  0
 29 30  1  0
 29 25  1  0
 30 43  1  0
 30 44  1  0
 30 45  1  0
M  END
>  <minimizedAffinity>  (2) 
-8.86331

>  <mol_id>  (2) 
7613

>  <source_index>  (2) 
1

>  <layer>  (2) 
L2

>  <uniprot>  (2) 
P43405

>  <paff>  (2) 
7.6778000000000004

>  <smiles>  (2) 
Cc1cc2nc(-c3n[nH]cc3Nc3ncnc4c3ccn4C)[nH]c2cc1C

$$$$
L2:P43405:16711
     RDKit          3D

 75 80  0  0  0  0  0  0  0  0999 V2000
    0.8867    7.6438   11.4497 N   0  0  0  0  0  0  0  0  0  0  0  0
    1.3410    8.1587   12.1962 H   0  0  0  0  0  0  0  0  0  0  0  0
    2.4141    4.3580   10.7985 C   0  0  1  0  0  0  0  0  0  0  0  0
    1.1114    3.5200   10.7981 C   0  0  0  0  0  0  0  0  0  0  0  0
    0.2380    3.9421   11.8711 N   0  0  0  0  0  0  0  0  0  0  0  0
    0.1751    3.4088   13.1481 C   0  0  0  0  0  0  0  0  0  0  0  0
   -0.1258    4.3788   14.0216 C   0  0  0  0  0  0  0  0  0  0  0  0
   -0.2693    5.5777   13.3527 N   0  0  0  0  0  0  0  0  0  0  0  0
   -0.0678    5.3766   11.9143 C   0  0  1  0  0  0  0  0  0  0  0  0
    1.0875    6.2778   11.3542 C   0  0  0  0  0  0  0  0  0  0  0  0
    2.1668    5.8272   10.7826 N   0  0  0  0  0  0  0  0  0  0  0  0
    0.0959    6.4134   13.7881 H   0  0  0  0  0  0  0  0  0  0  0  0
    6.1515    2.8809   14.8690 C   0  0  0  0  0  0  0  0  0  0  0  0
    5.1453    3.2523   13.8228 C   0  0  0  0  0  0  0  0  0  0  0  0
    5.0531    4.5721   13.5096 N   0  0  0  0  0  0  0  0  0  0  0  0
    4.1598    4.8795   12.5441 C   0  0  0  0  0  0  0  0  0  0  0  0
    3.3762    3.9274   11.9010 C   0  0  0  0  0  0  0  0  0  0  0  0
    3.4711    2.6112   12.2347 N   0  0  0  0  0  0  0  0  0  0  0  0
    4.3475    2.2813   13.2016 C   0  0  0  0  0  0  0  0  0  0  0  0
    4.4329    0.9311   13.4827 N   0  0  0  0  0  0  0  0  0  0  0  0
    4.5399    0.6495   14.4446 H   0  0  0  0  0  0  0  0  0  0  0  0
    3.7926    0.3946   12.9096 H   0  0  0  0  0  0  0  0  0  0  0  0
    0.0200    8.4054   10.5713 C   0  0  2  0  0  0  0  0  0  0  0  0
    0.3160    7.9286    9.1832 C   0  0  0  0  0  0  0  0  0  0  0  0
    1.1365    8.5984    8.3606 C   0  0  0  0  0  0  0  0  0  0  0  0
    1.8362    9.8241    8.7524 C   0  0  0  0  0  0  0  0  0  0  0  0
    1.4359   10.4425    9.8960 C   0  0  0  0  0  0  0  0  0  0  0  0
    0.2746    9.9160   10.7262 C   0  0  0  0  0  0  0  0  0  0  0  0
    2.8566   10.2771    7.9006 N   0  0  0  0  0  0  0  0  0  0  0  0
    2.6175   10.7184    6.5104 C   0  0  0  0  0  0  0  0  0  0  0  0
    3.6624   11.7575    6.0458 C   0  0  0  0  0  0  0  0  0  0  0  0
    5.0735   11.3109    6.1034 N   0  0  0  0  0  0  0  0  0  0  0  0
    5.2489   10.3081    7.1842 C   0  0  0  0  0  0  0  0  0  0  0  0
    4.2550   10.4499    8.3581 C   0  0  0  0  0  0  0  0  0  0  0  0
    5.4753   10.7147    4.8126 C   0  0  0  0  0  0  0  0  0  0  0  0
    5.7168   11.8083    3.7544 C   0  0  0  0  0  0  0  0  0  0  0  0
    7.0313   11.2594    3.4562 O   0  0  0  0  0  0  0  0  0  0  0  0
    7.0049   10.5485    4.7264 C   0  0  0  0  0  0  0  0  0  0  0  0
    1.9690   11.6722   10.2636 O   0  0  0  0  0  0  0  0  0  0  0  0
    1.3917   12.2644   11.4314 C   0  0  0  0  0  0  0  0  0  0  0  0
    2.4797   13.0179   12.1992 C   0  0  0  0  0  0  0  0  0  0  0  0
    3.3904   12.1230   12.8398 O   0  0  0  0  0  0  0  0  0  0  0  0
    2.8722   11.5464   13.4263 H   0  0  0  0  0  0  0  0  0  0  0  0
    2.9042    4.1460    9.8713 H   0  0  0  0  0  0  0  0  0  0  0  0
    1.3571    2.4869   10.9296 H   0  0  0  0  0  0  0  0  0  0  0  0
    0.6078    3.6631    9.8649 H   0  0  0  0  0  0  0  0  0  0  0  0
    0.3352    2.4182   13.3890 H   0  0  0  0  0  0  0  0  0  0  0  0
   -0.2339    4.2494   15.0397 H   0  0  0  0  0  0  0  0  0  0  0  0
   -0.9007    5.6509   11.3011 H   0  0  0  0  0  0  0  0  0  0  0  0
    6.6508    3.7627   15.2126 H   0  0  0  0  0  0  0  0  0  0  0  0
    6.8681    2.2053   14.4507 H   0  0  0  0  0  0  0  0  0  0  0  0
    5.6542    2.4095   15.6908 H   0  0  0  0  0  0  0  0  0  0  0  0
    4.0537    5.8689   12.2704 H   0  0  0  0  0  0  0  0  0  0  0  0
   -1.0128    8.2576   10.8086 H   0  0  0  0  0  0  0  0  0  0  0  0
   -0.1251    7.0575    8.8491 H   0  0  0  0  0  0  0  0  0  0  0  0
    1.2818    8.2330    7.4065 H   0  0  0  0  0  0  0  0  0  0  0  0
   -0.6120   10.4374   10.4313 H   0  0  0  0  0  0  0  0  0  0  0  0
    0.5313   10.0804   11.7519 H   0  0  0  0  0  0  0  0  0  0  0  0
    1.6434   11.1570    6.4498 H   0  0  0  0  0  0  0  0  0  0  0  0
    2.6965    9.8623    5.8734 H   0  0  0  0  0  0  0  0  0  0  0  0
    3.5649   12.6236    6.6665 H   0  0  0  0  0  0  0  0  0  0  0  0
    3.4542   11.9424    5.0127 H   0  0  0  0  0  0  0  0  0  0  0  0
    6.2410   10.4059    7.5728 H   0  0  0  0  0  0  0  0  0  0  0  0
    5.0642    9.3507    6.7435 H   0  0  0  0  0  0  0  0  0  0  0  0
    4.3628   11.4224    8.7910 H   0  0  0  0  0  0  0  0  0  0  0  0
    4.4718    9.6895    9.0790 H   0  0  0  0  0  0  0  0  0  0  0  0
    4.7751    9.9124    4.7081 H   0  0  0  0  0  0  0  0  0  0  0  0
    5.7417   12.8005    4.1541 H   0  0  0  0  0  0  0  0  0  0  0  0
    5.0079   11.9553    2.9665 H   0  0  0  0  0  0  0  0  0  0  0  0
    7.5397   11.0420    5.5108 H   0  0  0  0  0  0  0  0  0  0  0  0
    7.4420    9.5749    4.8032 H   0  0  0  0  0  0  0  0  0  0  0  0
    0.9780   11.4991   12.0543 H   0  0  0  0  0  0  0  0  0  0  0  0
    0.6155   12.9433   11.1457 H   0  0  0  0  0  0  0  0  0  0  0  0
    2.0169   13.6327   12.9427 H   0  0  0  0  0  0  0  0  0  0  0  0
    3.0312   13.6112   11.5001 H   0  0  0  0  0  0  0  0  0  0  0  0
  1 23  1  0
  1  2  1  0
  3  4  1  0
  3 44  1  6
  4  5  1  0
  4 45  1  0
  4 46  1  0
  5  6  1  0
  6  7  2  0
  6 47  1  0
  7  8  1  0
  7 48  1  0
  8  9  1  0
  8 12  1  0
  9 10  1  0
  9  5  1  0
  9 49  1  6
 10  1  1  0
 10 11  2  0
 11  3  1  0
 13 14  1  0
 13 50  1  0
 13 51  1  0
 13 52  1  0
 14 15  2  0
 15 16  1  0
 16 17  2  0
 16 53  1  0
 17  3  1  0
 17 18  1  0
 18 19  2  0
 19 20  1  0
 19 14  1  0
 20 21  1  0
 20 22  1  0
 23 24  1  0
 23 54  1  1
 24 25  2  0
 24 55  1  0
 25 26  1  0
 25 56  1  0
 26 29  1  0
 26 27  2  0
 27 39  1  0
 27 28  1  0
 28 23  1  0
 28 57  1  0
 28 58  1  0
 29 30  1  0
 30 31  1  0
 30 59  1  0
 30 60  1  0
 31 32  1  0
 31 61  1  0
 31 62  1  0
 32 35  1  0
 32 33  1  0
 33 34  1  0
 33 63  1  0
 33 64  1  0
 34 29  1  0
 34 65  1  0
 34 66  1  0
 35 36  1  0
 35 67  1  0
 36 37  1  0
 36 68  1  0
 36 69  1  0
 37 38  1  0
 38 35  1  0
 38 70  1  0
 38 71  1  0
 39 40  1  0
 40 41  1  0
 40 72  1  0
 40 73  1  0
 41 42  1  0
 41 74  1  0
 41 75  1  0
 42 43  1  0
M  END
>  <minimizedAffinity>  (3) 
-8.00342

>  <mol_id>  (3) 
16711

>  <source_index>  (3) 
2

>  <layer>  (3) 
L2

>  <uniprot>  (3) 
P43405

>  <paff>  (3) 
8.0604999999999993

>  <smiles>  (3) 
Cc1ncc(C2CN3C=CNC3C(NC3C=CC(N4CCN(C5COC5)CC4)=C(OCCO)C3)=N2)nc1N

$$$$
L2:P43405:33947
     RDKit          3D

 63 66  0  0  0  0  0  0  0  0999 V2000
    1.8833    0.6814   13.9783 C   0  0  0  0  0  0  0  0  0  0  0  0
    1.7639    2.0666   13.6868 C   0  0  0  0  0  0  0  0  0  0  0  0
    3.0333    2.5214   13.3751 C   0  0  0  0  0  0  0  0  0  0  0  0
    3.8416    1.4333   13.5759 N   0  0  0  0  0  0  0  0  0  0  0  0
    5.2862    1.3758   13.5618 C   0  0  0  0  0  0  0  0  0  0  0  0
    3.1712    0.3101   13.8826 N   0  0  0  0  0  0  0  0  0  0  0  0
   -1.3672   -0.9403   14.0020 C   0  0  0  0  0  0  0  0  0  0  0  0
   -1.2488   -1.9272   14.9067 N   0  0  0  0  0  0  0  0  0  0  0  0
   -0.0594   -2.0649   15.5175 C   0  0  0  0  0  0  0  0  0  0  0  0
    1.0186   -1.2549   15.2701 C   0  0  0  0  0  0  0  0  0  0  0  0
    0.8129   -0.2649   14.3353 C   0  0  0  0  0  0  0  0  0  0  0  0
   -0.3700   -0.1044   13.7042 N   0  0  0  0  0  0  0  0  0  0  0  0
   -2.6168   -0.8472   13.3968 N   0  0  0  0  0  0  0  0  0  0  0  0
   -2.6781   -1.5356   12.6628 H   0  0  0  0  0  0  0  0  0  0  0  0
   -5.1381    3.3755   12.5870 C   0  0  0  0  0  0  0  0  0  0  0  0
   -5.0092    2.0372   13.2524 C   0  0  0  0  0  0  0  0  0  0  0  0
   -6.0391    1.5375   14.0546 C   0  0  0  0  0  0  0  0  0  0  0  0
   -5.9235    0.2798   14.6525 C   0  0  0  0  0  0  0  0  0  0  0  0
   -7.0384   -0.2686   15.4922 C   0  0  0  0  0  0  0  0  0  0  0  0
   -4.7755   -0.4889   14.4070 C   0  0  0  0  0  0  0  0  0  0  0  0
   -3.7303   -0.0220   13.5918 C   0  0  0  0  0  0  0  0  0  0  0  0
   -3.8700    1.2481   13.0229 C   0  0  0  0  0  0  0  0  0  0  0  0
    3.4076    3.8590   12.9885 C   0  0  0  0  0  0  0  0  0  0  0  0
    3.9364    4.6499   13.7635 O   0  0  0  0  0  0  0  0  0  0  0  0
    3.0769    4.2085   11.7059 N   0  0  0  0  0  0  0  0  0  0  0  0
    2.4781    3.6179   11.1423 H   0  0  0  0  0  0  0  0  0  0  0  0
    3.3535    5.5166   11.1435 C   0  0  0  0  0  0  0  0  0  0  0  0
    2.0438    6.2103   10.7280 C   0  0  0  0  0  0  0  0  0  0  0  0
    0.8395    5.5053   11.2215 N   0  0  0  0  0  0  0  0  0  0  0  0
    0.1629    6.2626   12.2943 C   0  0  0  0  0  0  0  0  0  0  0  0
   -1.3346    5.9516   12.4317 C   0  0  0  0  0  0  0  0  0  0  0  0
   -1.6430    4.5164   12.0331 C   0  0  0  0  0  0  0  0  0  0  0  0
   -1.1708    4.2325   10.6058 C   0  0  0  0  0  0  0  0  0  0  0  0
   -0.0829    5.1998   10.1247 C   0  0  0  0  0  0  0  0  0  0  0  0
    0.8970    2.6263   13.7041 H   0  0  0  0  0  0  0  0  0  0  0  0
    5.6789    2.3369   13.3030 H   0  0  0  0  0  0  0  0  0  0  0  0
    5.6074    0.6534   12.8408 H   0  0  0  0  0  0  0  0  0  0  0  0
    5.6414    1.0946   14.5311 H   0  0  0  0  0  0  0  0  0  0  0  0
    0.0482   -2.8218   16.2107 H   0  0  0  0  0  0  0  0  0  0  0  0
    1.9229   -1.3787   15.7517 H   0  0  0  0  0  0  0  0  0  0  0  0
   -6.0626    3.8300   12.8761 H   0  0  0  0  0  0  0  0  0  0  0  0
   -5.1198    3.2489   11.5247 H   0  0  0  0  0  0  0  0  0  0  0  0
   -4.3238    4.0022   12.8856 H   0  0  0  0  0  0  0  0  0  0  0  0
   -6.8903    2.1010   14.2063 H   0  0  0  0  0  0  0  0  0  0  0  0
   -7.8205    0.4580   15.5653 H   0  0  0  0  0  0  0  0  0  0  0  0
   -6.6696   -0.4953   16.4707 H   0  0  0  0  0  0  0  0  0  0  0  0
   -7.4206   -1.1597   15.0398 H   0  0  0  0  0  0  0  0  0  0  0  0
   -4.6965   -1.4236   14.8373 H   0  0  0  0  0  0  0  0  0  0  0  0
   -3.1173    1.6146   12.4195 H   0  0  0  0  0  0  0  0  0  0  0  0
    3.9814    5.4053   10.2843 H   0  0  0  0  0  0  0  0  0  0  0  0
    3.8439    6.1153   11.8824 H   0  0  0  0  0  0  0  0  0  0  0  0
    2.0024    6.2507    9.6596 H   0  0  0  0  0  0  0  0  0  0  0  0
    2.0453    7.1881   11.1626 H   0  0  0  0  0  0  0  0  0  0  0  0
    0.2718    7.3070   12.0886 H   0  0  0  0  0  0  0  0  0  0  0  0
    0.6243    5.9728   13.2152 H   0  0  0  0  0  0  0  0  0  0  0  0
   -1.8872    6.6148   11.7994 H   0  0  0  0  0  0  0  0  0  0  0  0
   -1.6130    6.0834   13.4564 H   0  0  0  0  0  0  0  0  0  0  0  0
   -2.6993    4.3560   12.0910 H   0  0  0  0  0  0  0  0  0  0  0  0
   -1.1278    3.8580   12.7009 H   0  0  0  0  0  0  0  0  0  0  0  0
   -2.0109    4.3114    9.9479 H   0  0  0  0  0  0  0  0  0  0  0  0
   -0.7468    3.2501   10.6012 H   0  0  0  0  0  0  0  0  0  0  0  0
   -0.5399    6.1053    9.7839 H   0  0  0  0  0  0  0  0  0  0  0  0
    0.4625    4.7440    9.3249 H   0  0  0  0  0  0  0  0  0  0  0  0
  1  2  1  0
  2  3  2  0
  2 35  1  0
  3 23  1  0
  3  4  1  0
  4  5  1  0
  4  6  1  0
  5 36  1  0
  5 37  1  0
  5 38  1  0
  6  1  2  0
  7  8  2  0
  8  9  1  0
  9 10  2  0
  9 39  1  0
 10 11  1  0
 10 40  1  0
 11  1  1  0
 11 12  2  0
 12  7  1  0
 13  7  1  0
 13 14  1  0
 15 16  1  0
 15 41  1  0
 15 42  1  0
 15 43  1  0
 16 17  2  0
 17 18  1  0
 17 44  1  0
 18 19  1  0
 18 20  2  0
 19 45  1  0
 19 46  1  0
 19 47  1  0
 20 21  1  0
 20 48  1  0
 21 13  1  0
 21 22  2  0
 22 16  1  0
 22 49  1  0
 23 24  2  0
 23 25  1  0
 25 27  1  0
 25 26  1  0
 27 28  1  0
 27 50  1  0
 27 51  1  0
 28 29  1  0
 28 52  1  0
 28 53  1  0
 29 30  1  0
 30 31  1  0
 30 54  1  0
 30 55  1  0
 31 32  1  0
 31 56  1  0
 31 57  1  0
 32 33  1  0
 32 58  1  0
 32 59  1  0
 33 34  1  0
 33 60  1  0
 33 61  1  0
 34 29  1  0
 34 62  1  0
 34 63  1  0
M  END
>  <minimizedAffinity>  (4) 
-7.89350

>  <mol_id>  (4) 
33947

>  <source_index>  (4) 
3

>  <layer>  (4) 
L2

>  <uniprot>  (4) 
P43405

>  <paff>  (4) 
6.6180000000000003

>  <smiles>  (4) 
Cc1cc(C)cc(Nc2nccc(-c3cc(C(=O)NCCN4CCCCC4)n(C)n3)n2)c1

$$$$
L2:P43405:40410
     RDKit          3D

 57 60  0  0  0  0  0  0  0  0999 V2000
    2.5281    5.8877   11.0248 C   0  0  0  0  0  0  0  0  0  0  0  0
    1.3445    5.7700   11.7996 C   0  0  0  0  0  0  0  0  0  0  0  0
    0.4345    6.6614   11.2650 C   0  0  0  0  0  0  0  0  0  0  0  0
    1.0667    7.1787   10.1663 N   0  0  0  0  0  0  0  0  0  0  0  0
    0.5017    8.0287    9.1426 C   0  0  0  0  0  0  0  0  0  0  0  0
    2.3481    6.7847   10.0381 N   0  0  0  0  0  0  0  0  0  0  0  0
    4.8443    3.2975   12.0633 C   0  0  0  0  0  0  0  0  0  0  0  0
    6.0439    3.7433   11.6644 N   0  0  0  0  0  0  0  0  0  0  0  0
    6.0912    4.9294   11.0337 C   0  0  0  0  0  0  0  0  0  0  0  0
    4.9847    5.6947   10.7839 C   0  0  0  0  0  0  0  0  0  0  0  0
    3.7922    5.1683   11.2256 C   0  0  0  0  0  0  0  0  0  0  0  0
    3.7060    3.9784   11.8636 N   0  0  0  0  0  0  0  0  0  0  0  0
    4.6863    2.0819   12.7217 N   0  0  0  0  0  0  0  0  0  0  0  0
    5.5960    1.6736   12.8751 H   0  0  0  0  0  0  0  0  0  0  0  0
   -0.2104    1.1447   12.8607 C   0  0  0  0  0  0  0  0  0  0  0  0
    1.1949    0.8349   13.2850 C   0  0  0  0  0  0  0  0  0  0  0  0
    1.4485   -0.1828   14.2093 C   0  0  0  0  0  0  0  0  0  0  0  0
    2.7536   -0.4446   14.6336 C   0  0  0  0  0  0  0  0  0  0  0  0
    3.0319   -1.5631   15.5933 C   0  0  0  0  0  0  0  0  0  0  0  0
    3.8070    0.3179   14.1073 C   0  0  0  0  0  0  0  0  0  0  0  0
    3.5835    1.3578   13.1884 C   0  0  0  0  0  0  0  0  0  0  0  0
    2.2641    1.6037   12.7964 C   0  0  0  0  0  0  0  0  0  0  0  0
   -0.9073    6.9316   11.7088 C   0  0  0  0  0  0  0  0  0  0  0  0
   -1.2374    7.9868   12.2372 O   0  0  0  0  0  0  0  0  0  0  0  0
   -1.8044    5.9179   11.4509 N   0  0  0  0  0  0  0  0  0  0  0  0
   -1.5021    5.1214   10.9074 H   0  0  0  0  0  0  0  0  0  0  0  0
   -3.2007    6.0028   11.8615 C   0  0  2  0  0  0  0  0  0  0  0  0
   -3.4444    5.1790   13.1290 C   0  0  0  0  0  0  0  0  0  0  0  0
   -4.9134    5.2299   13.5617 C   0  0  0  0  0  0  0  0  0  0  0  0
   -5.8518    5.7257   12.4596 C   0  0  0  0  0  0  0  0  0  0  0  0
   -5.5077    5.1443   11.1638 N   0  0  0  0  0  0  0  0  0  0  0  0
   -4.1552    5.5314   10.7361 C   0  0  0  0  0  0  0  0  0  0  0  0
   -5.5583    4.1277   11.2389 H   0  0  0  0  0  0  0  0  0  0  0  0
    1.1935    5.1418   12.6043 H   0  0  0  0  0  0  0  0  0  0  0  0
   -0.5158    8.2526    9.3865 H   0  0  0  0  0  0  0  0  0  0  0  0
    0.5398    7.5248    8.1995 H   0  0  0  0  0  0  0  0  0  0  0  0
    1.0628    8.9379    9.0841 H   0  0  0  0  0  0  0  0  0  0  0  0
    7.0098    5.2812   10.7216 H   0  0  0  0  0  0  0  0  0  0  0  0
    5.0405    6.6035   10.2981 H   0  0  0  0  0  0  0  0  0  0  0  0
   -0.8842    0.4593   13.3309 H   0  0  0  0  0  0  0  0  0  0  0  0
   -0.2908    1.0514   11.7978 H   0  0  0  0  0  0  0  0  0  0  0  0
   -0.4584    2.1443   13.1508 H   0  0  0  0  0  0  0  0  0  0  0  0
    0.6664   -0.7444   14.5807 H   0  0  0  0  0  0  0  0  0  0  0  0
    2.1100   -2.0234   15.8816 H   0  0  0  0  0  0  0  0  0  0  0  0
    3.5232   -1.1747   16.4609 H   0  0  0  0  0  0  0  0  0  0  0  0
    3.6610   -2.2891   15.1221 H   0  0  0  0  0  0  0  0  0  0  0  0
    4.7734    0.1094   14.4032 H   0  0  0  0  0  0  0  0  0  0  0  0
    2.0710    2.3690   12.1316 H   0  0  0  0  0  0  0  0  0  0  0  0
   -3.4092    7.0319   12.0676 H   0  0  0  0  0  0  0  0  0  0  0  0
   -2.8363    5.5686   13.9185 H   0  0  0  0  0  0  0  0  0  0  0  0
   -3.1926    4.1604   12.9194 H   0  0  0  0  0  0  0  0  0  0  0  0
   -4.9976    5.8881   14.4011 H   0  0  0  0  0  0  0  0  0  0  0  0
   -5.2078    4.2298   13.8026 H   0  0  0  0  0  0  0  0  0  0  0  0
   -5.7786    6.7911   12.3934 H   0  0  0  0  0  0  0  0  0  0  0  0
   -6.8491    5.4279   12.7078 H   0  0  0  0  0  0  0  0  0  0  0  0
   -4.2502    6.3300   10.0304 H   0  0  0  0  0  0  0  0  0  0  0  0
   -3.7131    4.6443   10.3330 H   0  0  0  0  0  0  0  0  0  0  0  0
  1  2  1  0
  2  3  2  0
  2 34  1  0
  3 23  1  0
  3  4  1  0
  4  5  1  0
  4  6  1  0
  5 35  1  0
  5 36  1  0
  5 37  1  0
  6  1  2  0
  7  8  2  0
  8  9  1  0
  9 10  2  0
  9 38  1  0
 10 11  1  0
 10 39  1  0
 11  1  1  0
 11 12  2  0
 12  7  1  0
 13  7  1  0
 13 14  1  0
 15 16  1  0
 15 40  1  0
 15 41  1  0
 15 42  1  0
 16 17  2  0
 17 18  1  0
 17 43  1  0
 18 19  1  0
 18 20  2  0
 19 44  1  0
 19 45  1  0
 19 46  1  0
 20 21  1  0
 20 47  1  0
 21 13  1  0
 21 22  2  0
 22 16  1  0
 22 48  1  0
 23 24  2  0
 23 25  1  0
 25 27  1  0
 25 26  1  0
 27 28  1  0
 27 49  1  1
 28 29  1  0
 28 50  1  0
 28 51  1  0
 29 30  1  0
 29 52  1  0
 29 53  1  0
 30 31  1  0
 30 54  1  0
 30 55  1  0
 31 32  1  0
 31 33  1  0
 32 27  1  0
 32 56  1  0
 32 57  1  0
M  END
>  <minimizedAffinity>  (5) 
-8.63154

>  <mol_id>  (5) 
40410

>  <source_index>  (5) 
4

>  <layer>  (5) 
L2

>  <uniprot>  (5) 
P43405

>  <paff>  (5) 
7.2290999999999999

>  <smiles>  (5) 
Cc1cc(C)cc(Nc2nccc(-c3cc(C(=O)N[C@@H]4CCCNC4)n(C)n3)n2)c1

$$$$
L2:P43405:67215
     RDKit          3D

 55 59  0  0  0  0  0  0  0  0999 V2000
    5.6516    1.5111   13.7395 C   0  0  0  0  0  0  0  0  0  0  0  0
    5.3354    2.5984   12.9550 C   0  0  0  0  0  0  0  0  0  0  0  0
    4.0671    2.8683   12.5839 N   0  0  0  0  0  0  0  0  0  0  0  0
    3.1005    2.0124   13.0309 C   0  0  0  0  0  0  0  0  0  0  0  0
    1.7413    2.1714   12.7158 C   0  0  0  0  0  0  0  0  0  0  0  0
    0.7771    1.3248   13.1466 N   0  0  0  0  0  0  0  0  0  0  0  0
    1.1224    0.2711   13.9197 C   0  0  0  0  0  0  0  0  0  0  0  0
    2.4455    0.0418   14.2651 C   0  0  0  0  0  0  0  0  0  0  0  0
    3.4361    0.9020   13.8302 C   0  0  0  0  0  0  0  0  0  0  0  0
    4.7133    0.6483   14.1857 N   0  0  0  0  0  0  0  0  0  0  0  0
    0.0096   -0.6025   14.3485 C   0  0  0  0  0  0  0  0  0  0  0  0
    0.2307   -1.6699   15.2304 C   0  0  0  0  0  0  0  0  0  0  0  0
   -0.8140   -2.5081   15.6524 C   0  0  0  0  0  0  0  0  0  0  0  0
   -2.1326   -2.3301   15.2161 C   0  0  0  0  0  0  0  0  0  0  0  0
   -2.3475   -1.2678   14.3282 C   0  0  0  0  0  0  0  0  0  0  0  0
   -1.3065   -0.4257   13.9004 C   0  0  0  0  0  0  0  0  0  0  0  0
   -3.1598   -3.1550   15.6327 N   0  0  0  0  0  0  0  0  0  0  0  0
   -4.2675   -2.6622   16.4666 C   0  0  0  0  0  0  0  0  0  0  0  0
   -4.8512   -3.8138   17.3031 C   0  0  0  0  0  0  0  0  0  0  0  0
   -5.3490   -4.9113   16.5251 O   0  0  0  0  0  0  0  0  0  0  0  0
   -4.6725   -5.0686   15.2701 C   0  0  0  0  0  0  0  0  0  0  0  0
   -3.2134   -4.5810   15.2759 C   0  0  0  0  0  0  0  0  0  0  0  0
    1.3581    3.2800   11.9607 N   0  0  0  0  0  0  0  0  0  0  0  0
    1.6169    4.1747   12.3641 H   0  0  0  0  0  0  0  0  0  0  0  0
    1.0871    3.1444   10.5463 C   0  0  0  0  0  0  0  0  0  0  0  0
    1.4814    4.4223    9.8114 C   0  0  1  0  0  0  0  0  0  0  0  0
    0.3211    5.3923    9.6356 C   0  0  0  0  0  0  0  0  0  0  0  0
    1.0386    6.7104    9.4306 C   0  0  0  0  0  0  0  0  0  0  0  0
    2.1230    6.6594   10.4070 N   0  0  0  0  0  0  0  0  0  0  0  0
    2.5346    5.2559   10.5437 C   0  0  0  0  0  0  0  0  0  0  0  0
    2.9055    7.2439   10.1189 H   0  0  0  0  0  0  0  0  0  0  0  0
    6.6385    1.3505   13.9948 H   0  0  0  0  0  0  0  0  0  0  0  0
    6.0924    3.2259   12.6415 H   0  0  0  0  0  0  0  0  0  0  0  0
    2.6913   -0.7733   14.8484 H   0  0  0  0  0  0  0  0  0  0  0  0
    1.1864   -1.8442   15.5786 H   0  0  0  0  0  0  0  0  0  0  0  0
   -0.6033   -3.2796   16.3046 H   0  0  0  0  0  0  0  0  0  0  0  0
   -3.3026   -1.0978   13.9763 H   0  0  0  0  0  0  0  0  0  0  0  0
   -1.5161    0.3402   13.2413 H   0  0  0  0  0  0  0  0  0  0  0  0
   -5.0327   -2.2590   15.8367 H   0  0  0  0  0  0  0  0  0  0  0  0
   -3.9000   -1.9024   17.1243 H   0  0  0  0  0  0  0  0  0  0  0  0
   -5.6568   -3.4266   17.8913 H   0  0  0  0  0  0  0  0  0  0  0  0
   -4.0501   -4.1977   17.8995 H   0  0  0  0  0  0  0  0  0  0  0  0
   -5.2086   -4.5148   14.5280 H   0  0  0  0  0  0  0  0  0  0  0  0
   -4.6455   -6.1183   15.0643 H   0  0  0  0  0  0  0  0  0  0  0  0
   -2.7901   -4.7188   14.3029 H   0  0  0  0  0  0  0  0  0  0  0  0
   -2.6583   -5.1441   15.9968 H   0  0  0  0  0  0  0  0  0  0  0  0
    0.0428    2.9612   10.4021 H   0  0  0  0  0  0  0  0  0  0  0  0
    1.6575    2.3269   10.1575 H   0  0  0  0  0  0  0  0  0  0  0  0
    1.8473    4.0426    8.8804 H   0  0  0  0  0  0  0  0  0  0  0  0
   -0.2986    5.4188   10.5075 H   0  0  0  0  0  0  0  0  0  0  0  0
   -0.3399    5.1327    8.8353 H   0  0  0  0  0  0  0  0  0  0  0  0
    0.3863    7.5360    9.6253 H   0  0  0  0  0  0  0  0  0  0  0  0
    1.3851    6.8463    8.4274 H   0  0  0  0  0  0  0  0  0  0  0  0
    2.5716    4.9803   11.5769 H   0  0  0  0  0  0  0  0  0  0  0  0
    3.5095    5.0963   10.1326 H   0  0  0  0  0  0  0  0  0  0  0  0
  1  2  2  0
  1 32  1  0
  2  3  1  0
  2 33  1  0
  3  4  2  0
  4  5  1  0
  5 23  1  0
  5  6  2  0
  6  7  1  0
  7 11  1  0
  7  8  2  0
  8  9  1  0
  8 34  1  0
  9 10  2  0
  9  4  1  0
 10  1  1  0
 11 12  2  0
 12 13  1  0
 12 35  1  0
 13 14  2  0
 13 36  1  0
 14 17  1  0
 14 15  1  0
 15 16  2  0
 15 37  1  0
 16 11  1  0
 16 38  1  0
 17 18  1  0
 18 19  1  0
 18 39  1  0
 18 40  1  0
 19 20  1  0
 19 41  1  0
 19 42  1  0
 20 21  1  0
 21 22  1  0
 21 43  1  0
 21 44  1  0
 22 17  1  0
 22 45  1  0
 22 46  1  0
 23 25  1  0
 23 24  1  0
 25 26  1  0
 25 47  1  0
 25 48  1  0
 26 27  1  0
 26 49  1  6
 27 28  1  0
 27 50  1  0
 27 51  1  0
 28 29  1  0
 28 52  1  0
 28 53  1  0
 29 30  1  0
 29 31  1  0
 30 26  1  0
 30 54  1  0
 30 55  1  0
M  END
>  <minimizedAffinity>  (6) 
-8.19159

>  <mol_id>  (6) 
67215

>  <source_index>  (6) 
5

>  <layer>  (6) 
L2

>  <uniprot>  (6) 
P43405

>  <paff>  (6) 
6.7234999999999996

>  <smiles>  (6) 
c1cnc2c(NC[C@H]3CCNC3)nc(-c3ccc(N4CCOCC4)cc3)cc2n1

$$$$
L2:P43405:73311
     RDKit          3D

 60 63  0  0  0  0  0  0  0  0999 V2000
    4.1366    1.8723   13.3643 C   0  0  0  0  0  0  0  0  0  0  0  0
    3.0614    2.7099   12.9574 C   0  0  0  0  0  0  0  0  0  0  0  0
    3.5799    3.6058   12.0358 C   0  0  0  0  0  0  0  0  0  0  0  0
    4.9110    3.2725   11.9551 N   0  0  0  0  0  0  0  0  0  0  0  0
    5.9246    3.8924   11.1301 C   0  0  0  0  0  0  0  0  0  0  0  0
    5.2638    2.2381   12.7375 N   0  0  0  0  0  0  0  0  0  0  0  0
    2.8565   -0.9272   15.2812 C   0  0  0  0  0  0  0  0  0  0  0  0
    3.8803   -1.2880   16.0746 N   0  0  0  0  0  0  0  0  0  0  0  0
    5.0266   -0.5949   15.9605 C   0  0  0  0  0  0  0  0  0  0  0  0
    5.1942    0.4540   15.0948 C   0  0  0  0  0  0  0  0  0  0  0  0
    4.0953    0.7622   14.3249 C   0  0  0  0  0  0  0  0  0  0  0  0
    2.9315    0.0856   14.4142 N   0  0  0  0  0  0  0  0  0  0  0  0
    1.6971   -1.6794   15.4418 N   0  0  0  0  0  0  0  0  0  0  0  0
    1.9310   -2.5544   15.8847 H   0  0  0  0  0  0  0  0  0  0  0  0
   -1.9466    1.0438   13.4014 C   0  0  0  0  0  0  0  0  0  0  0  0
   -1.4767   -0.1946   14.1062 C   0  0  0  0  0  0  0  0  0  0  0  0
   -2.3875   -1.1813   14.4949 C   0  0  0  0  0  0  0  0  0  0  0  0
   -1.9508   -2.3155   15.1844 C   0  0  0  0  0  0  0  0  0  0  0  0
   -2.9206   -3.3938   15.5663 C   0  0  0  0  0  0  0  0  0  0  0  0
   -0.5838   -2.4575   15.4669 C   0  0  0  0  0  0  0  0  0  0  0  0
    0.3548   -1.4777   15.1005 C   0  0  0  0  0  0  0  0  0  0  0  0
   -0.1181   -0.3458   14.4282 C   0  0  0  0  0  0  0  0  0  0  0  0
    2.9604    4.6787   11.2903 C   0  0  0  0  0  0  0  0  0  0  0  0
    3.3090    5.8517   11.3811 O   0  0  0  0  0  0  0  0  0  0  0  0
    1.9444    4.2893   10.4452 N   0  0  0  0  0  0  0  0  0  0  0  0
    1.7692    3.3060   10.3041 H   0  0  0  0  0  0  0  0  0  0  0  0
    1.2438    5.2471    9.6054 C   0  0  0  0  0  0  0  0  0  0  0  0
   -0.2812    5.0423    9.6564 C   0  0  0  0  0  0  0  0  0  0  0  0
   -1.0265    5.6531   10.7551 N   0  0  0  0  0  0  0  0  0  0  0  0
   -0.3931    6.8158   11.3685 C   0  0  0  0  0  0  0  0  0  0  0  0
   -1.2676    7.0621   12.5898 C   0  0  0  0  0  0  0  0  0  0  0  0
   -1.8864    5.7060   12.9185 C   0  0  0  0  0  0  0  0  0  0  0  0
   -1.3487    4.7538   11.8591 C   0  0  0  0  0  0  0  0  0  0  0  0
    2.0841    2.6601   13.2851 H   0  0  0  0  0  0  0  0  0  0  0  0
    5.4885    4.6939   10.5712 H   0  0  0  0  0  0  0  0  0  0  0  0
    6.3291    3.1664   10.4562 H   0  0  0  0  0  0  0  0  0  0  0  0
    6.7060    4.2755   11.7526 H   0  0  0  0  0  0  0  0  0  0  0  0
    5.8233   -0.8675   16.5571 H   0  0  0  0  0  0  0  0  0  0  0  0
    6.0816    0.9761   15.0249 H   0  0  0  0  0  0  0  0  0  0  0  0
   -3.0027    0.9834   13.2401 H   0  0  0  0  0  0  0  0  0  0  0  0
   -1.4463    1.1297   12.4595 H   0  0  0  0  0  0  0  0  0  0  0  0
   -1.7260    1.9014   14.0020 H   0  0  0  0  0  0  0  0  0  0  0  0
   -3.3889   -1.0713   14.2712 H   0  0  0  0  0  0  0  0  0  0  0  0
   -3.9080   -3.1064   15.2709 H   0  0  0  0  0  0  0  0  0  0  0  0
   -2.8934   -3.5390   16.6261 H   0  0  0  0  0  0  0  0  0  0  0  0
   -2.6523   -4.3054   15.0744 H   0  0  0  0  0  0  0  0  0  0  0  0
   -0.2584   -3.3051   15.9575 H   0  0  0  0  0  0  0  0  0  0  0  0
    0.5478    0.3964   14.1623 H   0  0  0  0  0  0  0  0  0  0  0  0
    1.5756    5.1298    8.5949 H   0  0  0  0  0  0  0  0  0  0  0  0
    1.4602    6.2299    9.9691 H   0  0  0  0  0  0  0  0  0  0  0  0
   -0.4578    3.9879    9.7016 H   0  0  0  0  0  0  0  0  0  0  0  0
   -0.6438    5.5414    8.7821 H   0  0  0  0  0  0  0  0  0  0  0  0
   -0.4065    7.6570   10.7074 H   0  0  0  0  0  0  0  0  0  0  0  0
    0.6388    6.6630   11.6068 H   0  0  0  0  0  0  0  0  0  0  0  0
   -2.0304    7.7786   12.3668 H   0  0  0  0  0  0  0  0  0  0  0  0
   -0.7059    7.4552   13.4113 H   0  0  0  0  0  0  0  0  0  0  0  0
   -2.9539    5.7587   12.8684 H   0  0  0  0  0  0  0  0  0  0  0  0
   -1.6393    5.3833   13.9083 H   0  0  0  0  0  0  0  0  0  0  0  0
   -2.0904    4.0386   11.5706 H   0  0  0  0  0  0  0  0  0  0  0  0
   -0.5135    4.1742   12.1929 H   0  0  0  0  0  0  0  0  0  0  0  0
  1  2  1  0
  2  3  2  0
  2 34  1  0
  3 23  1  0
  3  4  1  0
  4  5  1  0
  4  6  1  0
  5 35  1  0
  5 36  1  0
  5 37  1  0
  6  1  2  0
  7  8  2  0
  8  9  1  0
  9 10  2  0
  9 38  1  0
 10 11  1  0
 10 39  1  0
 11  1  1  0
 11 12  2  0
 12  7  1  0
 13  7  1  0
 13 14  1  0
 15 16  1  0
 15 40  1  0
 15 41  1  0
 15 42  1  0
 16 17  2  0
 17 18  1  0
 17 43  1  0
 18 19  1  0
 18 20  2  0
 19 44  1  0
 19 45  1  0
 19 46  1  0
 20 21  1  0
 20 47  1  0
 21 13  1  0
 21 22  2  0
 22 16  1  0
 22 48  1  0
 23 24  2  0
 23 25  1  0
 25 27  1  0
 25 26  1  0
 27 28  1  0
 27 49  1  0
 27 50  1  0
 28 29  1  0
 28 51  1  0
 28 52  1  0
 29 30  1  0
 30 31  1  0
 30 53  1  0
 30 54  1  0
 31 32  1  0
 31 55  1  0
 31 56  1  0
 32 33  1  0
 32 57  1  0
 32 58  1  0
 33 29  1  0
 33 59  1  0
 33 60  1  0
M  END
>  <minimizedAffinity>  (7) 
-8.24537

>  <mol_id>  (7) 
73311

>  <source_index>  (7) 
6

>  <layer>  (7) 
L2

>  <uniprot>  (7) 
P43405

>  <paff>  (7) 
7.0605000000000002

>  <smiles>  (7) 
Cc1cc(C)cc(Nc2nccc(-c3cc(C(=O)NCCN4CCCC4)n(C)n3)n2)c1

$$$$
L2:P43405:91792
     RDKit          3D

 60 63  0  0  0  0  0  0  0  0999 V2000
    1.6549    0.4389   14.0536 C   0  0  0  0  0  0  0  0  0  0  0  0
    1.5344    1.8352   13.8216 C   0  0  0  0  0  0  0  0  0  0  0  0
    2.8075    2.3086   13.5519 C   0  0  0  0  0  0  0  0  0  0  0  0
    3.6038    1.1904   13.6289 N   0  0  0  0  0  0  0  0  0  0  0  0
    5.0342    1.1161   13.4235 C   0  0  0  0  0  0  0  0  0  0  0  0
    2.9366    0.0595   13.9338 N   0  0  0  0  0  0  0  0  0  0  0  0
   -1.6130   -1.1331   14.0309 C   0  0  0  0  0  0  0  0  0  0  0  0
   -1.4972   -2.1529   14.8930 N   0  0  0  0  0  0  0  0  0  0  0  0
   -0.3099   -2.3289   15.4983 C   0  0  0  0  0  0  0  0  0  0  0  0
    0.7740   -1.5237   15.2780 C   0  0  0  0  0  0  0  0  0  0  0  0
    0.5742   -0.4994   14.3805 C   0  0  0  0  0  0  0  0  0  0  0  0
   -0.6064   -0.2905   13.7514 N   0  0  0  0  0  0  0  0  0  0  0  0
   -2.7994   -0.8679   13.3537 N   0  0  0  0  0  0  0  0  0  0  0  0
   -2.8080   -1.3882   12.4903 H   0  0  0  0  0  0  0  0  0  0  0  0
   -7.1717   -0.4836   15.5921 C   0  0  0  0  0  0  0  0  0  0  0  0
   -6.0909    0.1280   14.7511 C   0  0  0  0  0  0  0  0  0  0  0  0
   -6.2472    1.4106   14.2198 C   0  0  0  0  0  0  0  0  0  0  0  0
   -5.2498    1.9706   13.4163 C   0  0  0  0  0  0  0  0  0  0  0  0
   -5.4279    3.3380   12.8246 C   0  0  0  0  0  0  0  0  0  0  0  0
   -4.1025    1.2176   13.1171 C   0  0  0  0  0  0  0  0  0  0  0  0
   -3.9212   -0.0744   13.6203 C   0  0  0  0  0  0  0  0  0  0  0  0
   -4.9356   -0.6033   14.4372 C   0  0  0  0  0  0  0  0  0  0  0  0
    3.2897    3.6369   13.2468 C   0  0  0  0  0  0  0  0  0  0  0  0
    3.5969    4.4577   14.1065 O   0  0  0  0  0  0  0  0  0  0  0  0
    3.3727    3.9384   11.9048 N   0  0  0  0  0  0  0  0  0  0  0  0
    3.0716    3.2587   11.2221 H   0  0  0  0  0  0  0  0  0  0  0  0
    3.8397    5.2403   11.4316 C   0  0  1  0  0  0  0  0  0  0  0  0
    5.0407    5.0460   10.5056 C   0  0  0  0  0  0  0  0  0  0  0  0
    2.6900    6.0211   10.7408 C   0  0  0  0  0  0  0  0  0  0  0  0
    1.5391    5.1687   10.4053 N   0  0  0  0  0  0  0  0  0  0  0  0
    0.8586    5.6576    9.1774 C   0  0  0  0  0  0  0  0  0  0  0  0
   -0.5003    5.5253    9.9031 C   0  0  0  0  0  0  0  0  0  0  0  0
   -1.3713    6.5472    9.7279 F   0  0  0  0  0  0  0  0  0  0  0  0
   -1.1906    4.3807    9.6800 F   0  0  0  0  0  0  0  0  0  0  0  0
    0.3480    5.5716   11.1952 C   0  0  0  0  0  0  0  0  0  0  0  0
    0.6648    2.3903   13.8488 H   0  0  0  0  0  0  0  0  0  0  0  0
    5.4122    2.0897   13.1910 H   0  0  0  0  0  0  0  0  0  0  0  0
    5.2440    0.4493   12.6134 H   0  0  0  0  0  0  0  0  0  0  0  0
    5.5041    0.7544   14.3141 H   0  0  0  0  0  0  0  0  0  0  0  0
   -0.2109   -3.1117   16.1634 H   0  0  0  0  0  0  0  0  0  0  0  0
    1.6785   -1.6738   15.7517 H   0  0  0  0  0  0  0  0  0  0  0  0
   -7.9653    0.2223   15.7217 H   0  0  0  0  0  0  0  0  0  0  0  0
   -6.7719   -0.7503   16.5481 H   0  0  0  0  0  0  0  0  0  0  0  0
   -7.5490   -1.3592   15.1065 H   0  0  0  0  0  0  0  0  0  0  0  0
   -7.1047    1.9482   14.4219 H   0  0  0  0  0  0  0  0  0  0  0  0
   -6.3533    3.7553   13.1629 H   0  0  0  0  0  0  0  0  0  0  0  0
   -5.4382    3.2661   11.7571 H   0  0  0  0  0  0  0  0  0  0  0  0
   -4.6192    3.9677   13.1319 H   0  0  0  0  0  0  0  0  0  0  0  0
   -3.3752    1.6281   12.5108 H   0  0  0  0  0  0  0  0  0  0  0  0
   -4.8273   -1.5568   14.8169 H   0  0  0  0  0  0  0  0  0  0  0  0
    4.1551    5.8310   12.2662 H   0  0  0  0  0  0  0  0  0  0  0  0
    4.7487    4.4567    9.6616 H   0  0  0  0  0  0  0  0  0  0  0  0
    5.8232    4.5454   11.0366 H   0  0  0  0  0  0  0  0  0  0  0  0
    5.3907    6.0000   10.1705 H   0  0  0  0  0  0  0  0  0  0  0  0
    3.0668    6.4563    9.8388 H   0  0  0  0  0  0  0  0  0  0  0  0
    2.3482    6.7650   11.4298 H   0  0  0  0  0  0  0  0  0  0  0  0
    0.9682    5.0154    8.3286 H   0  0  0  0  0  0  0  0  0  0  0  0
    1.1485    6.5807    8.7206 H   0  0  0  0  0  0  0  0  0  0  0  0
    0.0538    4.8618   11.9399 H   0  0  0  0  0  0  0  0  0  0  0  0
    0.3675    6.4496   11.8065 H   0  0  0  0  0  0  0  0  0  0  0  0
  1  2  1  0
  2  3  2  0
  2 36  1  0
  3 23  1  0
  3  4  1  0
  4  5  1  0
  4  6  1  0
  5 37  1  0
  5 38  1  0
  5 39  1  0
  6  1  2  0
  7  8  2  0
  8  9  1  0
  9 10  2  0
  9 40  1  0
 10 11  1  0
 10 41  1  0
 11  1  1  0
 11 12  2  0
 12  7  1  0
 13  7  1  0
 13 14  1  0
 15 16  1  0
 15 42  1  0
 15 43  1  0
 15 44  1  0
 16 17  2  0
 17 18  1  0
 17 45  1  0
 18 19  1  0
 18 20  2  0
 19 46  1  0
 19 47  1  0
 19 48  1  0
 20 21  1  0
 20 49  1  0
 21 13  1  0
 21 22  2  0
 22 16  1  0
 22 50  1  0
 23 24  2  0
 23 25  1  0
 25 27  1  0
 25 26  1  0
 27 28  1  0
 27 29  1  0
 27 51  1  1
 28 52  1  0
 28 53  1  0
 28 54  1  0
 29 30  1  0
 29 55  1  0
 29 56  1  0
 30 31  1  0
 31 32  1  0
 31 57  1  0
 31 58  1  0
 32 33  1  0
 32 34  1  0
 32 35  1  0
 35 30  1  0
 35 59  1  0
 35 60  1  0
M  END
>  <minimizedAffinity>  (8) 
-8.37726

>  <mol_id>  (8) 
91792

>  <source_index>  (8) 
7

>  <layer>  (8) 
L2

>  <uniprot>  (8) 
P43405

>  <paff>  (8) 
6.7328000000000001

>  <smiles>  (8) 
Cc1cc(C)cc(Nc2nccc(-c3cc(C(=O)N[C@@H](C)CN4CC(F)(F)C4)n(C)n3)n2)c1

$$$$
L2:P43405:113757
     RDKit          3D

 58 61  0  0  0  0  0  0  0  0999 V2000
    1.5981    0.5558   14.0583 C   0  0  0  0  0  0  0  0  0  0  0  0
    1.5056    1.9416   13.7660 C   0  0  0  0  0  0  0  0  0  0  0  0
    2.7987    2.3938   13.5853 C   0  0  0  0  0  0  0  0  0  0  0  0
    3.5705    1.2663   13.6769 N   0  0  0  0  0  0  0  0  0  0  0  0
    4.9814    1.1364   13.3911 C   0  0  0  0  0  0  0  0  0  0  0  0
    2.8843    0.1618   14.0275 N   0  0  0  0  0  0  0  0  0  0  0  0
   -1.7139   -0.9196   14.0026 C   0  0  0  0  0  0  0  0  0  0  0  0
   -1.6270   -1.9653   14.8357 N   0  0  0  0  0  0  0  0  0  0  0  0
   -0.4441   -2.1933   15.4316 C   0  0  0  0  0  0  0  0  0  0  0  0
    0.6630   -1.4147   15.2301 C   0  0  0  0  0  0  0  0  0  0  0  0
    0.4917   -0.3602   14.3619 C   0  0  0  0  0  0  0  0  0  0  0  0
   -0.6837   -0.1006   13.7443 N   0  0  0  0  0  0  0  0  0  0  0  0
   -2.8921   -0.6012   13.3340 N   0  0  0  0  0  0  0  0  0  0  0  0
   -3.1444   -1.3730   12.7351 H   0  0  0  0  0  0  0  0  0  0  0  0
   -4.3374    2.8088   12.7387 C   0  0  0  0  0  0  0  0  0  0  0  0
   -5.5558    2.6767   13.4008 C   0  0  0  0  0  0  0  0  0  0  0  0
   -5.8759    1.4735   14.0270 C   0  0  0  0  0  0  0  0  0  0  0  0
   -4.9784    0.4039   13.9907 C   0  0  0  0  0  0  0  0  0  0  0  0
   -3.7441    0.5086   13.3309 C   0  0  0  0  0  0  0  0  0  0  0  0
   -3.4455    1.7266   12.7101 C   0  0  0  0  0  0  0  0  0  0  0  0
   -3.0216    4.7901   12.7988 C   0  0  0  0  0  0  0  0  0  0  0  0
   -3.8985    3.9289   12.0848 O   0  0  0  0  0  0  0  0  0  0  0  0
    3.2328    3.7338   13.2887 C   0  0  0  0  0  0  0  0  0  0  0  0
    3.5090    4.5531   14.1567 O   0  0  0  0  0  0  0  0  0  0  0  0
    3.3553    4.0080   11.9441 N   0  0  0  0  0  0  0  0  0  0  0  0
    3.2576    3.2522   11.2807 H   0  0  0  0  0  0  0  0  0  0  0  0
    3.7933    5.3180   11.4506 C   0  0  1  0  0  0  0  0  0  0  0  0
    5.1003    5.1423   10.6785 C   0  0  0  0  0  0  0  0  0  0  0  0
    2.6716    5.9898   10.6122 C   0  0  0  0  0  0  0  0  0  0  0  0
    1.4065    5.2399   10.6013 N   0  0  0  0  0  0  0  0  0  0  0  0
    0.2727    6.0565   11.1206 C   0  0  0  0  0  0  0  0  0  0  0  0
   -0.5724    5.4952    9.9628 C   0  0  0  0  0  0  0  0  0  0  0  0
    0.7805    5.3269    9.2506 C   0  0  0  0  0  0  0  0  0  0  0  0
    0.6414    2.5020   13.7011 H   0  0  0  0  0  0  0  0  0  0  0  0
    5.3820    2.0936   13.1298 H   0  0  0  0  0  0  0  0  0  0  0  0
    5.1191    0.4575   12.5756 H   0  0  0  0  0  0  0  0  0  0  0  0
    5.4876    0.7620   14.2563 H   0  0  0  0  0  0  0  0  0  0  0  0
   -0.3668   -2.9970   16.0743 H   0  0  0  0  0  0  0  0  0  0  0  0
    1.5637   -1.6048   15.6966 H   0  0  0  0  0  0  0  0  0  0  0  0
   -6.2190    3.4669   13.4275 H   0  0  0  0  0  0  0  0  0  0  0  0
   -6.7778    1.3726   14.5184 H   0  0  0  0  0  0  0  0  0  0  0  0
   -5.2280   -0.4814   14.4586 H   0  0  0  0  0  0  0  0  0  0  0  0
   -2.5446    1.8315   12.2178 H   0  0  0  0  0  0  0  0  0  0  0  0
   -2.7554    5.6211   12.1796 H   0  0  0  0  0  0  0  0  0  0  0  0
   -2.1382    4.2521   13.0728 H   0  0  0  0  0  0  0  0  0  0  0  0
   -3.5111    5.1454   13.6815 H   0  0  0  0  0  0  0  0  0  0  0  0
    3.9842    5.9818   12.2678 H   0  0  0  0  0  0  0  0  0  0  0  0
    4.9404    4.4813    9.8524 H   0  0  0  0  0  0  0  0  0  0  0  0
    5.8448    4.7294   11.3267 H   0  0  0  0  0  0  0  0  0  0  0  0
    5.4309    6.0931   10.3158 H   0  0  0  0  0  0  0  0  0  0  0  0
    3.0158    6.0849    9.6035 H   0  0  0  0  0  0  0  0  0  0  0  0
    2.4679    6.9365   11.0673 H   0  0  0  0  0  0  0  0  0  0  0  0
    0.4315    7.1141   11.0855 H   0  0  0  0  0  0  0  0  0  0  0  0
   -0.0506    5.9883   12.1383 H   0  0  0  0  0  0  0  0  0  0  0  0
   -1.2448    6.1923    9.5079 H   0  0  0  0  0  0  0  0  0  0  0  0
   -1.2760    4.6980   10.0824 H   0  0  0  0  0  0  0  0  0  0  0  0
    1.0874    6.1717    8.6701 H   0  0  0  0  0  0  0  0  0  0  0  0
    0.9359    4.5719    8.5085 H   0  0  0  0  0  0  0  0  0  0  0  0
  1  2  1  0
  2  3  2  0
  2 34  1  0
  3 23  1  0
  3  4  1  0
  4  5  1  0
  4  6  1  0
  5 35  1  0
  5 36  1  0
  5 37  1  0
  6  1  2  0
  7  8  2  0
  8  9  1  0
  9 10  2  0
  9 38  1  0
 10 11  1  0
 10 39  1  0
 11  1  1  0
 11 12  2  0
 12  7  1  0
 13  7  1  0
 13 14  1  0
 15 16  2  0
 16 17  1  0
 16 40  1  0
 17 18  2  0
 17 41  1  0
 18 19  1  0
 18 42  1  0
 19 13  1  0
 19 20  2  0
 20 15  1  0
 20 43  1  0
 21 22  1  0
 21 44  1  0
 21 45  1  0
 21 46  1  0
 22 15  1  0
 23 24  2  0
 23 25  1  0
 25 27  1  0
 25 26  1  0
 27 28  1  0
 27 29  1  0
 27 47  1  1
 28 48  1  0
 28 49  1  0
 28 50  1  0
 29 30  1  0
 29 51  1  0
 29 52  1  0
 30 31  1  0
 31 32  1  0
 31 53  1  0
 31 54  1  0
 32 33  1  0
 32 55  1  0
 32 56  1  0
 33 30  1  0
 33 57  1  0
 33 58  1  0
M  END
>  <minimizedAffinity>  (9) 
-7.58488

>  <mol_id>  (9) 
113757

>  <source_index>  (9) 
8

>  <layer>  (9) 
L2

>  <uniprot>  (9) 
P43405

>  <paff>  (9) 
7.6778000000000004

>  <smiles>  (9) 
COc1cccc(Nc2nccc(-c3cc(C(=O)N[C@@H](C)CN4CCC4)n(C)n3)n2)c1

$$$$
L2:P43405:130651
     RDKit          3D

 57 61  0  0  0  0  0  0  0  0999 V2000
    2.9154    3.1559   11.6150 C   0  0  1  0  0  0  0  0  0  0  0  0
    4.0523    3.8661   12.4101 C   0  0  0  0  0  0  0  0  0  0  0  0
    4.8782    2.8970   13.1211 N   0  0  0  0  0  0  0  0  0  0  0  0
    5.7292    3.1224   14.1851 C   0  0  0  0  0  0  0  0  0  0  0  0
    5.9082    1.9755   14.8553 C   0  0  0  0  0  0  0  0  0  0  0  0
    5.1499    0.9731   14.2788 N   0  0  0  0  0  0  0  0  0  0  0  0
    4.4567    1.4929   13.0884 C   0  0  1  0  0  0  0  0  0  0  0  0
    2.8955    1.4368   13.2225 C   0  0  0  0  0  0  0  0  0  0  0  0
    2.1484    2.2076   12.4818 N   0  0  0  0  0  0  0  0  0  0  0  0
    5.5218    0.0328   14.2701 H   0  0  0  0  0  0  0  0  0  0  0  0
    1.1719    7.6028   11.5858 N   0  0  0  0  0  0  0  0  0  0  0  0
    1.2120    6.3631   10.9820 C   0  0  0  0  0  0  0  0  0  0  0  0
    0.4177    6.0404    9.8847 C   0  0  0  0  0  0  0  0  0  0  0  0
    0.4152    4.8207    9.2964 N   0  0  0  0  0  0  0  0  0  0  0  0
    1.2421    3.9138    9.8654 C   0  0  0  0  0  0  0  0  0  0  0  0
    2.0333    4.2065   10.9723 C   0  0  0  0  0  0  0  0  0  0  0  0
    2.0141    5.4423   11.5479 N   0  0  0  0  0  0  0  0  0  0  0  0
    1.7922    7.6736   12.3827 H   0  0  0  0  0  0  0  0  0  0  0  0
    1.0685    8.4197   11.0029 H   0  0  0  0  0  0  0  0  0  0  0  0
    2.4255    0.5511   14.1736 N   0  0  0  0  0  0  0  0  0  0  0  0
    3.0436    0.4582   14.9758 H   0  0  0  0  0  0  0  0  0  0  0  0
    1.1957   -0.1107   14.2708 C   0  0  0  0  0  0  0  0  0  0  0  0
    1.1282   -1.3038   14.9979 C   0  0  0  0  0  0  0  0  0  0  0  0
   -0.0753   -2.0149   15.1313 C   0  0  0  0  0  0  0  0  0  0  0  0
   -1.2674   -1.5734   14.5443 C   0  0  0  0  0  0  0  0  0  0  0  0
   -1.1852   -0.3805   13.8149 C   0  0  0  0  0  0  0  0  0  0  0  0
    0.0167    0.3356   13.6797 C   0  0  0  0  0  0  0  0  0  0  0  0
   -2.4517   -2.2734   14.6755 N   0  0  0  0  0  0  0  0  0  0  0  0
   -3.2016   -2.7629   13.5085 C   0  0  0  0  0  0  0  0  0  0  0  0
   -4.0325   -3.9969   13.8985 C   0  0  0  0  0  0  0  0  0  0  0  0
   -4.9756   -3.7687   14.9559 O   0  0  0  0  0  0  0  0  0  0  0  0
   -4.5858   -2.6977   15.8469 C   0  0  2  0  0  0  0  0  0  0  0  0
   -3.0581   -2.5413   15.9897 C   0  0  0  0  0  0  0  0  0  0  0  0
   -5.2342   -2.9826   17.2035 C   0  0  0  0  0  0  0  0  0  0  0  0
   -4.4741   -3.9645   17.9086 O   0  0  0  0  0  0  0  0  0  0  0  0
   -3.5407   -3.6944   17.7985 H   0  0  0  0  0  0  0  0  0  0  0  0
    3.3416    2.5548   10.8392 H   0  0  0  0  0  0  0  0  0  0  0  0
    3.6160    4.5398   13.1177 H   0  0  0  0  0  0  0  0  0  0  0  0
    4.6710    4.3979   11.7178 H   0  0  0  0  0  0  0  0  0  0  0  0
    6.1588    4.0293   14.4258 H   0  0  0  0  0  0  0  0  0  0  0  0
    6.5201    1.8582   15.6780 H   0  0  0  0  0  0  0  0  0  0  0  0
    4.6868    0.9419   12.2005 H   0  0  0  0  0  0  0  0  0  0  0  0
   -0.2022    6.7698    9.4992 H   0  0  0  0  0  0  0  0  0  0  0  0
    1.2882    2.9651    9.4618 H   0  0  0  0  0  0  0  0  0  0  0  0
    1.9825   -1.6698   15.4466 H   0  0  0  0  0  0  0  0  0  0  0  0
   -0.0813   -2.8897   15.6788 H   0  0  0  0  0  0  0  0  0  0  0  0
   -2.0367   -0.0146   13.3609 H   0  0  0  0  0  0  0  0  0  0  0  0
    0.0255    1.2098   13.1313 H   0  0  0  0  0  0  0  0  0  0  0  0
   -2.5151   -3.0287   12.7320 H   0  0  0  0  0  0  0  0  0  0  0  0
   -3.8581   -1.9916   13.1635 H   0  0  0  0  0  0  0  0  0  0  0  0
   -3.3596   -4.7678   14.2113 H   0  0  0  0  0  0  0  0  0  0  0  0
   -4.6031   -4.2654   13.0341 H   0  0  0  0  0  0  0  0  0  0  0  0
   -4.9210   -1.7677   15.4375 H   0  0  0  0  0  0  0  0  0  0  0  0
   -2.6462   -3.4431   16.3923 H   0  0  0  0  0  0  0  0  0  0  0  0
   -2.8499   -1.7215   16.6450 H   0  0  0  0  0  0  0  0  0  0  0  0
   -6.2292   -3.3457   17.0519 H   0  0  0  0  0  0  0  0  0  0  0  0
   -5.2622   -2.0798   17.7772 H   0  0  0  0  0  0  0  0  0  0  0  0
  1  2  1  0
  1 37  1  6
  2  3  1  0
  2 38  1  0
  2 39  1  0
  3  4  1  0
  4  5  2  0
  4 40  1  0
  5  6  1  0
  5 41  1  0
  6  7  1  0
  6 10  1  0
  7  8  1  0
  7  3  1  0
  7 42  1  6
  8 20  1  0
  8  9  2  0
  9  1  1  0
 11 12  1  0
 11 18  1  0
 11 19  1  0
 12 13  2  0
 13 14  1  0
 13 43  1  0
 14 15  2  0
 15 16  1  0
 15 44  1  0
 16  1  1  0
 16 17  2  0
 17 12  1  0
 20 22  1  0
 20 21  1  0
 22 23  2  0
 23 24  1  0
 23 45  1  0
 24 25  2  0
 24 46  1  0
 25 28  1  0
 25 26  1  0
 26 27  2  0
 26 47  1  0
 27 22  1  0
 27 48  1  0
 28 29  1  0
 29 30  1  0
 29 49  1  0
 29 50  1  0
 30 31  1  0
 30 51  1  0
 30 52  1  0
 31 32  1  0
 32 34  1  0
 32 33  1  0
 32 53  1  6
 33 28  1  0
 33 54  1  0
 33 55  1  0
 34 35  1  0
 34 56  1  0
 34 57  1  0
 35 36  1  0
M  END
>  <minimizedAffinity>  (10) 
-8.63796

>  <mol_id>  (10) 
130651

>  <source_index>  (10) 
9

>  <layer>  (10) 
L2

>  <uniprot>  (10) 
P43405

>  <paff>  (10) 
7.8761000000000001

>  <smiles>  (10) 
Nc1cncc(C2CN3C=CNC3C(Nc3ccc(N4CCO[C@@H](CO)C4)cc3)=N2)n1

$$$$
