L4:Q6SZW1:121886
     RDKit          3D

 28 30  0  0  0  0  0  0  0  0999 V2000
   -1.6244   -1.6212   -1.2494 C   0  0  0  0  0  0  0  0  0  0  0  0
   -2.1574   -0.4257   -0.5136 C   0  0  0  0  0  0  0  0  0  0  0  0
   -3.4579   -0.0916   -0.5597 C   0  0  0  0  0  0  0  0  0  0  0  0
   -3.9273    1.0014    0.1189 N   0  0  0  0  0  0  0  0  0  0  0  0
   -3.1413    1.8262    0.8809 C   0  0  0  0  0  0  0  0  0  0  0  0
   -3.5838    2.7975    1.4822 O   0  0  0  0  0  0  0  0  0  0  0  0
   -1.7034    1.4731    0.9412 C   0  0  0  0  0  0  0  0  0  0  0  0
   -1.2373    0.3986    0.2762 C   0  0  0  0  0  0  0  0  0  0  0  0
    0.2084    0.1317    0.4017 C   0  0  0  0  0  0  0  0  0  0  0  0
    0.6864   -0.6666    1.4713 C   0  0  0  0  0  0  0  0  0  0  0  0
    2.0505   -0.9427    1.6129 C   0  0  0  0  0  0  0  0  0  0  0  0
    2.8879   -0.4036    0.6662 C   0  0  0  0  0  0  0  0  0  0  0  0
    4.2418   -0.4872    0.5259 N   0  0  0  0  0  0  0  0  0  0  0  0
    4.5935    0.2316   -0.5925 C   0  0  0  0  0  0  0  0  0  0  0  0
    5.7357    0.3620   -1.0073 O   0  0  0  0  0  0  0  0  0  0  0  0
    3.4687    0.8004   -1.2048 O   0  0  0  0  0  0  0  0  0  0  0  0
    2.4396    0.3735   -0.3810 C   0  0  0  0  0  0  0  0  0  0  0  0
    1.1022    0.6615   -0.5429 C   0  0  0  0  0  0  0  0  0  0  0  0
   -0.8728   -1.3216   -1.9872 H   0  0  0  0  0  0  0  0  0  0  0  0
   -2.4168   -2.1507   -1.7901 H   0  0  0  0  0  0  0  0  0  0  0  0
   -1.1721   -2.3367   -0.5547 H   0  0  0  0  0  0  0  0  0  0  0  0
   -4.1933   -0.6563   -1.1244 H   0  0  0  0  0  0  0  0  0  0  0  0
   -4.9093    1.2459    0.0783 H   0  0  0  0  0  0  0  0  0  0  0  0
   -1.0828    2.1269    1.5418 H   0  0  0  0  0  0  0  0  0  0  0  0
   -0.0163   -1.0745    2.1965 H   0  0  0  0  0  0  0  0  0  0  0  0
    2.4186   -1.5516    2.4297 H   0  0  0  0  0  0  0  0  0  0  0  0
    4.9020   -0.9736    1.1093 H   0  0  0  0  0  0  0  0  0  0  0  0
    0.7609    1.2733   -1.3711 H   0  0  0  0  0  0  0  0  0  0  0  0
  1  2  1  0
  2  3  2  0
  3  4  1  0
  4  5  1  0
  5  6  2  0
  5  7  1  0
  7  8  2  0
  8  9  1  0
  9 10  2  0
 10 11  1  0
 11 12  2  0
 12 13  1  0
 13 14  1  0
 14 15  2  0
 14 16  1  0
 16 17  1  0
 17 18  2  0
  8  2  1  0
 18  9  1  0
 17 12  1  0
  1 19  1  0
  1 20  1  0
  1 21  1  0
  3 22  1  0
  4 23  1  0
  7 24  1  0
 10 25  1  0
 11 26  1  0
 13 27  1  0
 18 28  1  0
M  END
>  <mol_id>  (1) 
121886

>  <source_index>  (1) 
7

>  <layer>  (1) 
L4

>  <uniprot>  (1) 
Q6SZW1

>  <paff>  (1) 
7.2967000000000004

>  <smiles>  (1) 
Cc1c[nH]c(=O)cc1-c1ccc2[nH]c(=O)oc2c1

$$$$
