L4:Q6SZW1:121886


 20 22  0  0  0  0  0  0  0  0999 V2000
   -2.7088  -31.5822   11.6892 C   0  0  0  0  0  0  0  0  0  0  0  0
   -2.3429  -32.5818   10.7528 C   0  0  0  0  0  0  0  0  0  0  0  0
   -2.8532  -33.8810   10.8468 C   0  0  0  0  0  0  0  0  0  0  0  0
   -3.7164  -34.1282   11.8869 C   0  0  0  0  0  0  0  0  0  0  0  0
   -4.3705  -35.2693   12.2473 N   0  0  0  0  0  0  0  0  0  0  0  0
   -5.1151  -34.9903   13.3693 C   0  0  0  0  0  0  0  0  0  0  0  0
   -5.8227  -35.7963   13.9552 O   0  0  0  0  0  0  0  0  0  0  0  0
   -4.9592  -33.6544   13.7627 O   0  0  0  0  0  0  0  0  0  0  0  0
   -4.0814  -33.1683   12.8071 C   0  0  0  0  0  0  0  0  0  0  0  0
   -3.5947  -31.8814   12.7368 C   0  0  0  0  0  0  0  0  0  0  0  0
   -4.3436  -36.1721   11.8034 H   0  0  0  0  0  0  0  0  0  0  0  0
   -0.0064  -30.8377   12.8296 C   0  0  0  0  0  0  0  0  0  0  0  0
   -0.8437  -29.8233   12.1053 C   0  0  0  0  0  0  0  0  0  0  0  0
   -0.4282  -28.5568   11.9371 C   0  0  0  0  0  0  0  0  0  0  0  0
   -1.2042  -27.6449   11.2724 N   0  0  0  0  0  0  0  0  0  0  0  0
   -2.4330  -27.9302   10.7363 C   0  0  0  0  0  0  0  0  0  0  0  0
   -3.1089  -27.0986   10.1427 O   0  0  0  0  0  0  0  0  0  0  0  0
   -2.9075  -29.3227   10.9145 C   0  0  0  0  0  0  0  0  0  0  0  0
   -2.1475  -30.2232   11.5666 C   0  0  0  0  0  0  0  0  0  0  0  0
   -0.8831  -26.6921   11.1504 H   0  0  0  0  0  0  0  0  0  0  0  0
 12 13  1  0  0  0
 13 14  2  0  0  0
 14 15  1  0  0  0
 15 16  1  0  0  0
 16 17  2  0  0  0
 16 18  1  0  0  0
 18 19  2  0  0  0
 19  1  1  0  0  0
  1  2  2  0  0  0
  2  3  1  0  0  0
  3  4  2  0  0  0
  4  5  1  0  0  0
  5  6  1  0  0  0
  6  7  2  0  0  0
  6  8  1  0  0  0
  8  9  1  0  0  0
  9 10  2  0  0  0
 19 13  1  0  0  0
 10  1  1  0  0  0
  9  4  1  0  0  0
 15 20  1  0  0  0
  5 11  1  0  0  0
M  END
> <minimizedAffinity>
-5.20958

$$$$
