L4:Q6SZW1:12531
 OpenBabel09212617503D

 49 52  0  0  0  0  0  0  0  0999 V2000
  -13.3925  -32.3681   -0.9016 C   0  0  0  0  0  0  0  0  0  0  0  0
  -13.6601  -30.8929   -0.7573 C   0  0  0  0  0  0  0  0  0  0  0  0
  -13.5817  -30.3356    0.5313 C   0  0  0  0  0  0  0  0  0  0  0  0
  -13.8043  -28.9768    0.7452 C   0  0  0  0  0  0  0  0  0  0  0  0
  -14.1049  -28.1495   -0.3258 C   0  0  0  0  0  0  0  0  0  0  0  0
  -14.1846  -28.7107   -1.6110 C   0  0  0  0  0  0  0  0  0  0  0  0
  -14.0025  -30.0908   -1.8758 C   0  0  0  0  0  0  0  0  0  0  0  0
  -14.3560  -26.7687   -0.2106 N   0  0  0  0  0  0  0  0  0  0  0  0
  -13.7812  -25.7361   -0.9157 C   0  0  0  0  0  0  0  0  0  0  0  0
  -12.9579  -25.8471   -1.8187 O   0  0  0  0  0  0  0  0  0  0  0  0
  -14.2128  -24.5055   -0.5113 N   0  0  0  0  0  0  0  0  0  0  0  0
  -13.8406  -23.1702   -0.9587 C   0  0  2  0  0  0  0  0  0  0  0  0
  -12.7955  -22.5537   -0.0308 C   0  0  0  0  0  0  0  0  0  0  0  0
  -12.9751  -23.0239    1.4336 C   0  0  2  0  0  0  0  0  0  0  0  0
  -11.9275  -24.0866    1.7946 C   0  0  0  0  0  0  0  0  0  0  0  0
  -14.4031  -23.5385    1.7387 C   0  0  0  0  0  0  0  0  0  0  0  0
  -15.1366  -23.9651    0.4692 C   0  0  1  0  0  0  0  0  0  0  0  0
  -15.2902  -22.8109   -0.5527 C   0  0  0  0  0  0  0  0  0  0  0  0
  -15.0268  -26.4887    0.4865 H   0  0  0  0  0  0  0  0  0  0  0  0
  -14.1204  -30.6824   -3.3627 C   0  0  1  0  0  0  0  0  0  0  0  0
  -14.9418  -29.9033   -4.4346 C   0  0  0  0  0  0  0  0  0  0  0  0
  -14.0065  -30.5065   -5.4980 C   0  0  0  0  0  0  0  0  0  0  0  0
  -12.9325  -30.6417   -4.3874 C   0  0  1  0  0  0  0  0  0  0  0  0
  -12.0039  -29.5275   -4.3269 C   0  0  0  0  0  0  0  0  0  0  0  0
  -11.2349  -28.6604   -4.2682 N   0  0  0  0  0  0  0  0  0  0  0  0
  -13.1532  -32.7825    0.0555 H   0  0  0  0  0  0  0  0  0  0  0  0
  -12.5709  -32.5178   -1.5706 H   0  0  0  0  0  0  0  0  0  0  0  0
  -14.2632  -32.8520   -1.2922 H   0  0  0  0  0  0  0  0  0  0  0  0
  -13.3551  -30.9441    1.3334 H   0  0  0  0  0  0  0  0  0  0  0  0
  -13.7455  -28.5871    1.6990 H   0  0  0  0  0  0  0  0  0  0  0  0
  -14.3867  -28.0839   -2.4055 H   0  0  0  0  0  0  0  0  0  0  0  0
  -13.4264  -22.9411   -1.9183 H   0  0  0  0  0  0  0  0  0  0  0  0
  -12.8872  -21.4882   -0.0658 H   0  0  0  0  0  0  0  0  0  0  0  0
  -11.8288  -22.8686   -0.3642 H   0  0  0  0  0  0  0  0  0  0  0  0
  -12.8266  -22.1608    2.0484 H   0  0  0  0  0  0  0  0  0  0  0  0
  -12.0718  -24.9521    1.1823 H   0  0  0  0  0  0  0  0  0  0  0  0
  -12.0336  -24.3566    2.8245 H   0  0  0  0  0  0  0  0  0  0  0  0
  -10.9470  -23.6917    1.6286 H   0  0  0  0  0  0  0  0  0  0  0  0
  -14.9586  -22.7569    2.2134 H   0  0  0  0  0  0  0  0  0  0  0  0
  -14.3188  -24.3933    2.3767 H   0  0  0  0  0  0  0  0  0  0  0  0
  -15.9682  -24.4980    0.8808 H   0  0  0  0  0  0  0  0  0  0  0  0
  -15.4172  -21.8376   -0.1266 H   0  0  0  0  0  0  0  0  0  0  0  0
  -16.0973  -22.7514   -1.2527 H   0  0  0  0  0  0  0  0  0  0  0  0
  -14.4354  -31.6104   -2.9333 H   0  0  0  0  0  0  0  0  0  0  0  0
  -14.8901  -28.8380   -4.3482 H   0  0  0  0  0  0  0  0  0  0  0  0
  -16.0054  -29.9968   -4.5042 H   0  0  0  0  0  0  0  0  0  0  0  0
  -13.7449  -29.8383   -6.2917 H   0  0  0  0  0  0  0  0  0  0  0  0
  -14.3029  -31.3425   -6.0965 H   0  0  0  0  0  0  0  0  0  0  0  0
  -12.1848  -31.4069   -4.3676 H   0  0  0  0  0  0  0  0  0  0  0  0
  1  2  1  0  0  0  0
  1 26  1  0  0  0  0
  1 27  1  0  0  0  0
  1 28  1  0  0  0  0
  2  3  2  0  0  0  0
  3  4  1  0  0  0  0
  3 29  1  0  0  0  0
  4  5  2  0  0  0  0
  4 30  1  0  0  0  0
  5  8  1  0  0  0  0
  5  6  1  0  0  0  0
  6  7  2  0  0  0  0
  6 31  1  0  0  0  0
  7 20  1  0  0  0  0
  7  2  1  0  0  0  0
  8  9  1  0  0  0  0
  8 19  1  0  0  0  0
  9 10  2  0  0  0  0
  9 11  1  0  0  0  0
 11 12  1  0  0  0  0
 12 13  1  0  0  0  0
 12 32  1  6  0  0  0
 13 14  1  0  0  0  0
 13 33  1  0  0  0  0
 13 34  1  0  0  0  0
 14 15  1  0  0  0  0
 14 16  1  0  0  0  0
 14 35  1  1  0  0  0
 15 36  1  0  0  0  0
 15 37  1  0  0  0  0
 15 38  1  0  0  0  0
 16 17  1  0  0  0  0
 16 39  1  0  0  0  0
 16 40  1  0  0  0  0
 17 18  1  0  0  0  0
 17 11  1  0  0  0  0
 17 41  1  1  0  0  0
 18 12  1  0  0  0  0
 18 42  1  0  0  0  0
 18 43  1  0  0  0  0
 20 21  1  0  0  0  0
 20 44  1  1  0  0  0
 21 22  1  0  0  0  0
 21 45  1  0  0  0  0
 21 46  1  0  0  0  0
 22 23  1  0  0  0  0
 22 47  1  0  0  0  0
 22 48  1  0  0  0  0
 23 24  1  0  0  0  0
 23 20  1  0  0  0  0
 23 49  1  6  0  0  0
 24 25  3  0  0  0  0
M  END
>  <minimizedAffinity>
-5.88213

$$$$
