L4:Q6SZW1:12531
     RDKit          3D

 49 52  0  0  0  0  0  0  0  0999 V2000
   -4.5767   -1.7965    1.6321 C   0  0  0  0  0  0  0  0  0  0  0  0
   -3.1952   -1.5213    1.0988 C   0  0  0  0  0  0  0  0  0  0  0  0
   -2.1320   -2.2892    1.6058 C   0  0  0  0  0  0  0  0  0  0  0  0
   -0.8270   -2.1027    1.1545 C   0  0  0  0  0  0  0  0  0  0  0  0
   -0.5616   -1.1481    0.1848 C   0  0  0  0  0  0  0  0  0  0  0  0
    0.7222   -0.8783   -0.3270 N   0  0  0  0  0  0  0  0  0  0  0  0
    1.9097   -1.5039   -0.0231 C   0  0  0  0  0  0  0  0  0  0  0  0
    2.0514   -2.4570    0.7366 O   0  0  0  0  0  0  0  0  0  0  0  0
    2.9842   -0.9525   -0.6600 N   0  0  0  0  0  0  0  0  0  0  0  0
    4.4020   -1.2800   -0.5953 C   0  0  2  0  0  0  0  0  0  0  0  0
    5.1345   -0.3520    0.3719 C   0  0  0  0  0  0  0  0  0  0  0  0
    4.5083    1.0640    0.3985 C   0  0  2  0  0  0  0  0  0  0  0  0
    3.6555    1.2565    1.6605 C   0  0  0  0  0  0  0  0  0  0  0  0
    3.6862    1.3919   -0.8718 C   0  0  0  0  0  0  0  0  0  0  0  0
    3.2334    0.1271   -1.5977 C   0  0  1  0  0  0  0  0  0  0  0  0
    4.4181   -0.7611   -2.0533 C   0  0  0  0  0  0  0  0  0  0  0  0
   -1.6262   -0.3816   -0.3173 C   0  0  0  0  0  0  0  0  0  0  0  0
   -2.9635   -0.5077    0.1341 C   0  0  0  0  0  0  0  0  0  0  0  0
   -4.1401    0.4054   -0.4630 C   0  0  1  0  0  0  0  0  0  0  0  0
   -5.1030    1.1489    0.5120 C   0  0  0  0  0  0  0  0  0  0  0  0
   -5.2687    2.2268   -0.5744 C   0  0  0  0  0  0  0  0  0  0  0  0
   -3.8762    1.8087   -1.1141 C   0  0  1  0  0  0  0  0  0  0  0  0
   -2.7807    2.6133   -0.6044 C   0  0  0  0  0  0  0  0  0  0  0  0
   -1.8930    3.2612   -0.2318 N   0  0  0  0  0  0  0  0  0  0  0  0
   -4.8528   -1.0397    2.3722 H   0  0  0  0  0  0  0  0  0  0  0  0
   -4.6282   -2.7779    2.1162 H   0  0  0  0  0  0  0  0  0  0  0  0
   -5.3117   -1.8093    0.8214 H   0  0  0  0  0  0  0  0  0  0  0  0
   -2.3143   -3.0496    2.3631 H   0  0  0  0  0  0  0  0  0  0  0  0
   -0.0440   -2.7191    1.5838 H   0  0  0  0  0  0  0  0  0  0  0  0
    0.7949   -0.1207   -0.9865 H   0  0  0  0  0  0  0  0  0  0  0  0
    4.6341   -2.3434   -0.4928 H   0  0  0  0  0  0  0  0  0  0  0  0
    6.1839   -0.2750    0.0607 H   0  0  0  0  0  0  0  0  0  0  0  0
    5.1457   -0.7915    1.3763 H   0  0  0  0  0  0  0  0  0  0  0  0
    5.3217    1.7973    0.4796 H   0  0  0  0  0  0  0  0  0  0  0  0
    2.8038    0.5718    1.6918 H   0  0  0  0  0  0  0  0  0  0  0  0
    3.2670    2.2794    1.7115 H   0  0  0  0  0  0  0  0  0  0  0  0
    4.2558    1.0888    2.5613 H   0  0  0  0  0  0  0  0  0  0  0  0
    2.8170    2.0127   -0.6237 H   0  0  0  0  0  0  0  0  0  0  0  0
    4.3032    1.9894   -1.5546 H   0  0  0  0  0  0  0  0  0  0  0  0
    2.4735    0.2768   -2.3691 H   0  0  0  0  0  0  0  0  0  0  0  0
    5.3238   -0.2428   -2.3816 H   0  0  0  0  0  0  0  0  0  0  0  0
    4.1561   -1.5155   -2.8062 H   0  0  0  0  0  0  0  0  0  0  0  0
   -1.4072    0.3451   -1.0960 H   0  0  0  0  0  0  0  0  0  0  0  0
   -4.7197   -0.2189   -1.1653 H   0  0  0  0  0  0  0  0  0  0  0  0
   -6.0240    0.6220    0.7751 H   0  0  0  0  0  0  0  0  0  0  0  0
   -4.6285    1.5126    1.4311 H   0  0  0  0  0  0  0  0  0  0  0  0
   -6.0878    2.0230   -1.2749 H   0  0  0  0  0  0  0  0  0  0  0  0
   -5.3754    3.2520   -0.2078 H   0  0  0  0  0  0  0  0  0  0  0  0
   -3.8483    1.7607   -2.2101 H   0  0  0  0  0  0  0  0  0  0  0  0
  1  2  1  0
  2  3  2  0
  3  4  1  0
  4  5  2  0
  5  6  1  0
  6  7  1  0
  7  8  2  0
  7  9  1  0
  9 10  1  0
 10 11  1  0
 11 12  1  0
 12 13  1  0
 12 14  1  0
 14 15  1  0
 15 16  1  0
  5 17  1  0
 17 18  2  0
 18 19  1  0
 19 20  1  0
 20 21  1  0
 21 22  1  0
 22 23  1  0
 23 24  3  0
 18  2  1  0
 22 19  1  0
 15  9  1  0
 16 10  1  0
  1 25  1  0
  1 26  1  0
  1 27  1  0
  3 28  1  0
  4 29  1  0
  6 30  1  0
 10 31  1  6
 11 32  1  0
 11 33  1  0
 12 34  1  1
 13 35  1  0
 13 36  1  0
 13 37  1  0
 14 38  1  0
 14 39  1  0
 15 40  1  6
 16 41  1  0
 16 42  1  0
 17 43  1  0
 19 44  1  6
 20 45  1  0
 20 46  1  0
 21 47  1  0
 21 48  1  0
 22 49  1  6
M  END
>  <mol_id>  (1) 
12531

>  <source_index>  (1) 
1

>  <layer>  (1) 
L4

>  <uniprot>  (1) 
Q6SZW1

>  <paff>  (1) 
6

>  <smiles>  (1) 
Cc1ccc(NC(=O)N2C3CC(C)CC2C3)cc1C1CCC1C#N

$$$$
