L4:Q6SZW1:129162
 OpenBabel09212617503D

 29 31  0  0  0  0  0  0  0  0999 V2000
   -5.6477  -28.8794    4.4972 C   0  0  0  0  0  0  0  0  0  0  0  0
   -5.5153  -28.3611    5.7957 C   0  0  0  0  0  0  0  0  0  0  0  0
   -4.3059  -27.8310    6.2625 C   0  0  0  0  0  0  0  0  0  0  0  0
   -3.2269  -27.8405    5.3758 C   0  0  0  0  0  0  0  0  0  0  0  0
   -1.9340  -27.4094    5.5070 N   0  0  0  0  0  0  0  0  0  0  0  0
   -1.1767  -27.5900    4.4130 N   0  0  0  0  0  0  0  0  0  0  0  0
   -2.0066  -28.1604    3.5447 C   0  0  0  0  0  0  0  0  0  0  0  0
   -1.6375  -28.5125    2.3100 N   0  0  0  0  0  0  0  0  0  0  0  0
   -3.3079  -28.3446    4.0833 C   0  0  0  0  0  0  0  0  0  0  0  0
   -4.5342  -28.8737    3.6351 C   0  0  0  0  0  0  0  0  0  0  0  0
   -1.5055  -26.9820    6.3193 H   0  0  0  0  0  0  0  0  0  0  0  0
   -0.6847  -28.3449    2.0119 H   0  0  0  0  0  0  0  0  0  0  0  0
   -2.2517  -28.9531    1.6403 H   0  0  0  0  0  0  0  0  0  0  0  0
   -6.3922  -31.7538    4.9223 C   0  0  0  0  0  0  0  0  0  0  0  0
   -7.2998  -30.7730    4.2322 C   0  0  0  0  0  0  0  0  0  0  0  0
   -8.5528  -31.2003    3.7731 C   0  0  0  0  0  0  0  0  0  0  0  0
   -9.3842  -30.2901    3.1399 C   0  0  0  0  0  0  0  0  0  0  0  0
   -9.0626  -28.9980    2.9360 N   0  0  0  0  0  0  0  0  0  0  0  0
   -7.8508  -28.6016    3.3920 C   0  0  0  0  0  0  0  0  0  0  0  0
   -6.9305  -29.4274    4.0439 C   0  0  0  0  0  0  0  0  0  0  0  0
   -6.3335  -28.3711    6.4246 H   0  0  0  0  0  0  0  0  0  0  0  0
   -4.2162  -27.4509    7.2177 H   0  0  0  0  0  0  0  0  0  0  0  0
   -4.6161  -29.2552    2.6797 H   0  0  0  0  0  0  0  0  0  0  0  0
   -6.8650  -32.7130    4.9581 H   0  0  0  0  0  0  0  0  0  0  0  0
   -6.1939  -31.4165    5.9182 H   0  0  0  0  0  0  0  0  0  0  0  0
   -5.4720  -31.8297    4.3816 H   0  0  0  0  0  0  0  0  0  0  0  0
   -8.8523  -32.1791    3.9046 H   0  0  0  0  0  0  0  0  0  0  0  0
  -10.3026  -30.6213    2.8053 H   0  0  0  0  0  0  0  0  0  0  0  0
   -7.5866  -27.6146    3.2472 H   0  0  0  0  0  0  0  0  0  0  0  0
  1  2  2  0  0  0  0
  2  3  1  0  0  0  0
  2 21  1  0  0  0  0
  3  4  2  0  0  0  0
  3 22  1  0  0  0  0
  4  5  1  0  0  0  0
  5  6  1  0  0  0  0
  5 11  1  0  0  0  0
  6  7  2  0  0  0  0
  7  8  1  0  0  0  0
  7  9  1  0  0  0  0
  8 12  1  0  0  0  0
  8 13  1  0  0  0  0
  9 10  2  0  0  0  0
  9  4  1  0  0  0  0
 10  1  1  0  0  0  0
 10 23  1  0  0  0  0
 14 15  1  0  0  0  0
 14 24  1  0  0  0  0
 14 25  1  0  0  0  0
 14 26  1  0  0  0  0
 15 16  2  0  0  0  0
 16 17  1  0  0  0  0
 16 27  1  0  0  0  0
 17 18  2  0  0  0  0
 17 28  1  0  0  0  0
 18 19  1  0  0  0  0
 19 20  2  0  0  0  0
 19 29  1  0  0  0  0
 20  1  1  0  0  0  0
 20 15  1  0  0  0  0
M  END
>  <minimizedAffinity>
-5.60635

$$$$
