L4:Q6SZW1:129162
     RDKit          3D

 29 31  0  0  0  0  0  0  0  0999 V2000
   -1.9439   -1.6037    1.0862 C   0  0  0  0  0  0  0  0  0  0  0  0
   -2.3824   -0.2310    0.6556 C   0  0  0  0  0  0  0  0  0  0  0  0
   -3.6492    0.2359    1.0305 C   0  0  0  0  0  0  0  0  0  0  0  0
   -4.0452    1.5027    0.6315 C   0  0  0  0  0  0  0  0  0  0  0  0
   -3.2775    2.3305   -0.1033 N   0  0  0  0  0  0  0  0  0  0  0  0
   -2.0544    1.8650   -0.4507 C   0  0  0  0  0  0  0  0  0  0  0  0
   -1.5478    0.6084   -0.1068 C   0  0  0  0  0  0  0  0  0  0  0  0
   -0.2017    0.2182   -0.5395 C   0  0  0  0  0  0  0  0  0  0  0  0
    0.0127   -0.2754   -1.8367 C   0  0  0  0  0  0  0  0  0  0  0  0
    1.2840   -0.6564   -2.2841 C   0  0  0  0  0  0  0  0  0  0  0  0
    2.3395   -0.5226   -1.3793 C   0  0  0  0  0  0  0  0  0  0  0  0
    3.6764   -0.7967   -1.4896 N   0  0  0  0  0  0  0  0  0  0  0  0
    4.3887   -0.5320   -0.3826 N   0  0  0  0  0  0  0  0  0  0  0  0
    3.4828   -0.0676    0.4728 C   0  0  0  0  0  0  0  0  0  0  0  0
    3.7871    0.3208    1.7142 N   0  0  0  0  0  0  0  0  0  0  0  0
    2.1779   -0.0369   -0.0873 C   0  0  0  0  0  0  0  0  0  0  0  0
    0.8902    0.3412    0.3412 C   0  0  0  0  0  0  0  0  0  0  0  0
   -1.1223   -1.5322    1.8057 H   0  0  0  0  0  0  0  0  0  0  0  0
   -1.6248   -2.1957    0.2224 H   0  0  0  0  0  0  0  0  0  0  0  0
   -2.7614   -2.1509    1.5680 H   0  0  0  0  0  0  0  0  0  0  0  0
   -4.3232   -0.3745    1.6229 H   0  0  0  0  0  0  0  0  0  0  0  0
   -5.0214    1.8945    0.9027 H   0  0  0  0  0  0  0  0  0  0  0  0
   -1.4602    2.5617   -1.0382 H   0  0  0  0  0  0  0  0  0  0  0  0
   -0.8302   -0.3724   -2.5207 H   0  0  0  0  0  0  0  0  0  0  0  0
    1.4329   -1.0377   -3.2890 H   0  0  0  0  0  0  0  0  0  0  0  0
    4.1659   -1.1670   -2.2954 H   0  0  0  0  0  0  0  0  0  0  0  0
    4.7480    0.2662    2.0280 H   0  0  0  0  0  0  0  0  0  0  0  0
    3.1140    0.6827    2.3744 H   0  0  0  0  0  0  0  0  0  0  0  0
    0.7455    0.7247    1.3472 H   0  0  0  0  0  0  0  0  0  0  0  0
  1  2  1  0
  2  3  2  0
  3  4  1  0
  4  5  2  0
  5  6  1  0
  6  7  2  0
  7  8  1  0
  8  9  2  0
  9 10  1  0
 10 11  2  0
 11 12  1  0
 12 13  1  0
 13 14  2  0
 14 15  1  0
 14 16  1  0
 16 17  2  0
  7  2  1  0
 17  8  1  0
 16 11  1  0
  1 18  1  0
  1 19  1  0
  1 20  1  0
  3 21  1  0
  4 22  1  0
  6 23  1  0
  9 24  1  0
 10 25  1  0
 12 26  1  0
 15 27  1  0
 15 28  1  0
 17 29  1  0
M  END
>  <mol_id>  (1) 
129162

>  <source_index>  (1) 
8

>  <layer>  (1) 
L4

>  <uniprot>  (1) 
Q6SZW1

>  <paff>  (1) 
6.6818999999999997

>  <smiles>  (1) 
Cc1ccncc1-c1ccc2[nH]nc(N)c2c1

$$$$
