L4:Q6SZW1:129698
 OpenBabel09212617503D

 48 51  0  0  0  0  0  0  0  0999 V2000
  -12.6517  -26.4033   -2.9857 C   0  0  0  0  0  0  0  0  0  0  0  0
  -12.0509  -25.7476   -4.0616 C   0  0  0  0  0  0  0  0  0  0  0  0
  -11.5608  -24.4519   -3.9091 C   0  0  0  0  0  0  0  0  0  0  0  0
  -11.6711  -23.7963   -2.6780 C   0  0  0  0  0  0  0  0  0  0  0  0
  -10.9491  -22.2235   -2.5724 Cl  0  0  0  0  0  0  0  0  0  0  0  0
  -12.2805  -24.4200   -1.5697 C   0  0  0  0  0  0  0  0  0  0  0  0
  -12.7608  -25.7329   -1.7609 C   0  0  0  0  0  0  0  0  0  0  0  0
  -13.4526  -32.3864   -0.4284 C   0  0  0  0  0  0  0  0  0  0  0  0
  -13.7918  -32.1304   -1.8930 C   0  0  1  0  0  0  0  0  0  0  0  0
  -14.6662  -30.8663   -2.0591 C   0  0  0  0  0  0  0  0  0  0  0  0
  -14.5513  -30.3289   -3.4865 C   0  0  2  0  0  0  0  0  0  0  0  0
  -14.2647  -31.3944   -4.5845 C   0  0  0  0  0  0  0  0  0  0  0  0
  -12.8013  -31.3149   -4.0647 C   0  0  2  0  0  0  0  0  0  0  0  0
  -12.5183  -32.0753   -2.7679 C   0  0  0  0  0  0  0  0  0  0  0  0
  -13.1710  -29.9426   -3.7307 N   0  0  0  0  0  0  0  0  0  0  0  0
  -12.4068  -28.8152   -3.6277 C   0  0  0  0  0  0  0  0  0  0  0  0
  -11.2082  -28.8450   -3.8876 O   0  0  0  0  0  0  0  0  0  0  0  0
  -13.1203  -27.7122   -3.2161 N   0  0  0  0  0  0  0  0  0  0  0  0
  -14.1045  -27.8703   -3.0748 H   0  0  0  0  0  0  0  0  0  0  0  0
  -12.4340  -23.8017   -0.3462 N   0  0  0  0  0  0  0  0  0  0  0  0
  -11.4102  -23.7940    0.6978 C   0  0  0  0  0  0  0  0  0  0  0  0
  -12.1994  -23.6370    1.9953 C   0  0  0  0  0  0  0  0  0  0  0  0
  -13.4426  -22.8720    1.5646 C   0  0  2  0  0  0  0  0  0  0  0  0
  -14.4844  -23.0374    2.5136 O   0  0  0  0  0  0  0  0  0  0  0  0
  -13.7550  -23.4976    0.1966 C   0  0  0  0  0  0  0  0  0  0  0  0
  -15.2629  -22.5631    2.1747 H   0  0  0  0  0  0  0  0  0  0  0  0
  -11.9693  -26.2241   -4.9734 H   0  0  0  0  0  0  0  0  0  0  0  0
  -11.1146  -23.9740   -4.7076 H   0  0  0  0  0  0  0  0  0  0  0  0
  -13.2096  -26.2176   -0.9680 H   0  0  0  0  0  0  0  0  0  0  0  0
  -14.3546  -32.4183    0.1463 H   0  0  0  0  0  0  0  0  0  0  0  0
  -12.8256  -31.5994   -0.0647 H   0  0  0  0  0  0  0  0  0  0  0  0
  -12.9397  -33.3212   -0.3392 H   0  0  0  0  0  0  0  0  0  0  0  0
  -14.3728  -32.9592   -2.2401 H   0  0  0  0  0  0  0  0  0  0  0  0
  -14.3369  -30.1158   -1.3712 H   0  0  0  0  0  0  0  0  0  0  0  0
  -15.6870  -31.1194   -1.8622 H   0  0  0  0  0  0  0  0  0  0  0  0
  -15.4156  -29.7000   -3.5354 H   0  0  0  0  0  0  0  0  0  0  0  0
  -14.4111  -31.0644   -5.5917 H   0  0  0  0  0  0  0  0  0  0  0  0
  -14.8093  -32.3114   -4.6708 H   0  0  0  0  0  0  0  0  0  0  0  0
  -11.9786  -31.6342   -4.6697 H   0  0  0  0  0  0  0  0  0  0  0  0
  -11.7401  -31.5769   -2.2285 H   0  0  0  0  0  0  0  0  0  0  0  0
  -12.2154  -33.0733   -3.0071 H   0  0  0  0  0  0  0  0  0  0  0  0
  -10.7361  -22.9742    0.5621 H   0  0  0  0  0  0  0  0  0  0  0  0
  -10.8088  -24.6789    0.6885 H   0  0  0  0  0  0  0  0  0  0  0  0
  -11.6398  -23.0813    2.7185 H   0  0  0  0  0  0  0  0  0  0  0  0
  -12.4266  -24.5733    2.4608 H   0  0  0  0  0  0  0  0  0  0  0  0
  -13.3178  -21.8112    1.5011 H   0  0  0  0  0  0  0  0  0  0  0  0
  -14.2766  -22.8054   -0.4308 H   0  0  0  0  0  0  0  0  0  0  0  0
  -14.3866  -24.3586    0.2655 H   0  0  0  0  0  0  0  0  0  0  0  0
  1  2  2  0  0  0  0
  2  3  1  0  0  0  0
  2 27  1  0  0  0  0
  3  4  2  0  0  0  0
  3 28  1  0  0  0  0
  4  5  1  0  0  0  0
  4  6  1  0  0  0  0
  6 20  1  0  0  0  0
  6  7  2  0  0  0  0
  7  1  1  0  0  0  0
  7 29  1  0  0  0  0
  8  9  1  0  0  0  0
  8 30  1  0  0  0  0
  8 31  1  0  0  0  0
  8 32  1  0  0  0  0
  9 10  1  0  0  0  0
  9 33  1  6  0  0  0
 10 11  1  0  0  0  0
 10 34  1  0  0  0  0
 10 35  1  0  0  0  0
 11 12  1  0  0  0  0
 11 36  1  6  0  0  0
 12 13  1  0  0  0  0
 12 37  1  0  0  0  0
 12 38  1  0  0  0  0
 13 14  1  0  0  0  0
 13 15  1  0  0  0  0
 13 39  1  6  0  0  0
 14  9  1  0  0  0  0
 14 40  1  0  0  0  0
 14 41  1  0  0  0  0
 15 16  1  0  0  0  0
 15 11  1  0  0  0  0
 16 17  2  0  0  0  0
 16 18  1  0  0  0  0
 18  1  1  0  0  0  0
 18 19  1  0  0  0  0
 20 21  1  0  0  0  0
 21 22  1  0  0  0  0
 21 42  1  0  0  0  0
 21 43  1  0  0  0  0
 22 23  1  0  0  0  0
 22 44  1  0  0  0  0
 22 45  1  0  0  0  0
 23 24  1  0  0  0  0
 23 25  1  0  0  0  0
 23 46  1  6  0  0  0
 24 26  1  0  0  0  0
 25 20  1  0  0  0  0
 25 47  1  0  0  0  0
 25 48  1  0  0  0  0
M  END
>  <minimizedAffinity>
-5.83494

$$$$
