L4:Q6SZW1:129698


 26 29  0  0  0  0  0  0  0  0999 V2000
  -12.6517  -26.4033   -2.9857 C   0  0  0  0  0  0  0  0  0  0  0  0
  -12.0509  -25.7476   -4.0616 C   0  0  0  0  0  0  0  0  0  0  0  0
  -11.5608  -24.4519   -3.9091 C   0  0  0  0  0  0  0  0  0  0  0  0
  -11.6711  -23.7963   -2.6780 C   0  0  0  0  0  0  0  0  0  0  0  0
  -10.9491  -22.2235   -2.5724 Cl  0  0  0  0  0  0  0  0  0  0  0  0
  -12.2805  -24.4200   -1.5697 C   0  0  0  0  0  0  0  0  0  0  0  0
  -12.7608  -25.7329   -1.7609 C   0  0  0  0  0  0  0  0  0  0  0  0
  -13.4526  -32.3864   -0.4284 C   0  0  0  0  0  0  0  0  0  0  0  0
  -13.7918  -32.1304   -1.8930 C   0  0  0  0  0  0  0  0  0  0  0  0
  -14.6662  -30.8663   -2.0591 C   0  0  0  0  0  0  0  0  0  0  0  0
  -14.5513  -30.3289   -3.4865 C   0  0  0  0  0  0  0  0  0  0  0  0
  -14.2647  -31.3944   -4.5845 C   0  0  0  0  0  0  0  0  0  0  0  0
  -12.8013  -31.3149   -4.0647 C   0  0  0  0  0  0  0  0  0  0  0  0
  -12.5183  -32.0753   -2.7679 C   0  0  0  0  0  0  0  0  0  0  0  0
  -13.1710  -29.9426   -3.7307 N   0  0  0  0  0  0  0  0  0  0  0  0
  -12.4068  -28.8152   -3.6277 C   0  0  0  0  0  0  0  0  0  0  0  0
  -11.2082  -28.8450   -3.8876 O   0  0  0  0  0  0  0  0  0  0  0  0
  -13.1203  -27.7122   -3.2161 N   0  0  0  0  0  0  0  0  0  0  0  0
  -14.1045  -27.8703   -3.0748 H   0  0  0  0  0  0  0  0  0  0  0  0
  -12.4340  -23.8017   -0.3462 N   0  0  0  0  0  0  0  0  0  0  0  0
  -11.4102  -23.7940    0.6978 C   0  0  0  0  0  0  0  0  0  0  0  0
  -12.1994  -23.6370    1.9953 C   0  0  0  0  0  0  0  0  0  0  0  0
  -13.4426  -22.8720    1.5646 C   0  0  0  0  0  0  0  0  0  0  0  0
  -14.4844  -23.0374    2.5136 O   0  0  0  0  0  0  0  0  0  0  0  0
  -13.7550  -23.4976    0.1966 C   0  0  0  0  0  0  0  0  0  0  0  0
  -15.2629  -22.5631    2.1747 H   0  0  0  0  0  0  0  0  0  0  0  0
  8  9  1  0  0  0
  9 10  1  0  0  0
 10 11  1  0  0  0
 11 12  1  0  0  0
 12 13  1  0  0  0
 13 14  1  0  0  0
 13 15  1  0  0  0
 15 16  1  0  0  0
 16 17  2  0  0  0
 16 18  1  0  0  0
 18  1  1  0  0  0
  1  2  2  0  0  0
  2  3  1  0  0  0
  3  4  2  0  0  0
  4  5  1  0  0  0
  4  6  1  0  0  0
  6 20  1  0  0  0
 20 21  1  0  0  0
 21 22  1  0  0  0
 22 23  1  0  0  0
 23 24  1  0  0  0
 23 25  1  0  0  0
  6  7  2  0  0  0
 14  9  1  0  0  0
  7  1  1  0  0  0
 15 11  1  0  0  0
 25 20  1  0  0  0
 18 19  1  0  0  0
 24 26  1  0  0  0
M  END
> <minimizedAffinity>
-5.83494

$$$$
