L4:Q6SZW1:20829
 OpenBabel09212617503D

 25 26  0  0  0  0  0  0  0  0999 V2000
  -12.9632  -23.8512    1.0239 C   0  0  0  0  0  0  0  0  0  0  0  0
  -11.7591  -24.1348    1.6894 C   0  0  0  0  0  0  0  0  0  0  0  0
  -10.5435  -24.0074    1.0200 C   0  0  0  0  0  0  0  0  0  0  0  0
   -9.3603  -24.2792    1.6414 O   0  0  0  0  0  0  0  0  0  0  0  0
  -10.4965  -23.5992   -0.3067 C   0  0  0  0  0  0  0  0  0  0  0  0
  -11.6849  -23.3138   -0.9712 C   0  0  0  0  0  0  0  0  0  0  0  0
  -11.6450  -22.8072   -2.6154 Cl  0  0  0  0  0  0  0  0  0  0  0  0
  -12.9115  -23.4353   -0.3161 C   0  0  0  0  0  0  0  0  0  0  0  0
   -9.5364  -24.5466    2.5589 H   0  0  0  0  0  0  0  0  0  0  0  0
  -14.7284  -26.2584    0.6842 C   0  0  0  0  0  0  0  0  0  0  0  0
  -15.0891  -25.1021    1.5762 C   0  0  0  0  0  0  0  0  0  0  0  0
  -16.3045  -25.1281    2.2735 C   0  0  0  0  0  0  0  0  0  0  0  0
  -16.6343  -24.0602    3.0929 C   0  0  0  0  0  0  0  0  0  0  0  0
  -15.8509  -22.9778    3.2623 N   0  0  0  0  0  0  0  0  0  0  0  0
  -14.6866  -22.9643    2.5723 C   0  0  0  0  0  0  0  0  0  0  0  0
  -14.2483  -23.9815    1.7189 C   0  0  0  0  0  0  0  0  0  0  0  0
  -11.7747  -24.4380    2.6757 H   0  0  0  0  0  0  0  0  0  0  0  0
   -9.5911  -23.5087   -0.7936 H   0  0  0  0  0  0  0  0  0  0  0  0
  -13.7857  -23.2181   -0.8198 H   0  0  0  0  0  0  0  0  0  0  0  0
  -15.5031  -26.9954    0.7248 H   0  0  0  0  0  0  0  0  0  0  0  0
  -13.8073  -26.6906    1.0154 H   0  0  0  0  0  0  0  0  0  0  0  0
  -14.6183  -25.9118   -0.3221 H   0  0  0  0  0  0  0  0  0  0  0  0
  -16.9452  -25.9315    2.1781 H   0  0  0  0  0  0  0  0  0  0  0  0
  -17.5311  -24.0964    3.6022 H   0  0  0  0  0  0  0  0  0  0  0  0
  -14.0756  -22.1402    2.6846 H   0  0  0  0  0  0  0  0  0  0  0  0
  1  2  2  0  0  0  0
  2  3  1  0  0  0  0
  2 17  1  0  0  0  0
  3  4  1  0  0  0  0
  3  5  2  0  0  0  0
  4  9  1  0  0  0  0
  5  6  1  0  0  0  0
  5 18  1  0  0  0  0
  6  7  1  0  0  0  0
  6  8  2  0  0  0  0
  8  1  1  0  0  0  0
  8 19  1  0  0  0  0
 10 11  1  0  0  0  0
 10 20  1  0  0  0  0
 10 21  1  0  0  0  0
 10 22  1  0  0  0  0
 11 12  2  0  0  0  0
 12 13  1  0  0  0  0
 12 23  1  0  0  0  0
 13 14  2  0  0  0  0
 13 24  1  0  0  0  0
 14 15  1  0  0  0  0
 15 16  2  0  0  0  0
 15 25  1  0  0  0  0
 16  1  1  0  0  0  0
 16 11  1  0  0  0  0
M  END
>  <minimizedAffinity>
-4.73201

$$$$
