L4:Q6SZW1:20829


 16 17  0  0  0  0  0  0  0  0999 V2000
  -12.9632  -23.8512    1.0239 C   0  0  0  0  0  0  0  0  0  0  0  0
  -11.7591  -24.1348    1.6894 C   0  0  0  0  0  0  0  0  0  0  0  0
  -10.5435  -24.0074    1.0200 C   0  0  0  0  0  0  0  0  0  0  0  0
   -9.3603  -24.2792    1.6414 O   0  0  0  0  0  0  0  0  0  0  0  0
  -10.4965  -23.5992   -0.3067 C   0  0  0  0  0  0  0  0  0  0  0  0
  -11.6849  -23.3138   -0.9712 C   0  0  0  0  0  0  0  0  0  0  0  0
  -11.6450  -22.8072   -2.6154 Cl  0  0  0  0  0  0  0  0  0  0  0  0
  -12.9115  -23.4353   -0.3161 C   0  0  0  0  0  0  0  0  0  0  0  0
   -9.5364  -24.5466    2.5589 H   0  0  0  0  0  0  0  0  0  0  0  0
  -14.7284  -26.2584    0.6842 C   0  0  0  0  0  0  0  0  0  0  0  0
  -15.0891  -25.1021    1.5762 C   0  0  0  0  0  0  0  0  0  0  0  0
  -16.3045  -25.1281    2.2735 C   0  0  0  0  0  0  0  0  0  0  0  0
  -16.6343  -24.0602    3.0929 C   0  0  0  0  0  0  0  0  0  0  0  0
  -15.8509  -22.9778    3.2623 N   0  0  0  0  0  0  0  0  0  0  0  0
  -14.6866  -22.9643    2.5723 C   0  0  0  0  0  0  0  0  0  0  0  0
  -14.2483  -23.9815    1.7189 C   0  0  0  0  0  0  0  0  0  0  0  0
 10 11  1  0  0  0
 11 12  2  0  0  0
 12 13  1  0  0  0
 13 14  2  0  0  0
 14 15  1  0  0  0
 15 16  2  0  0  0
 16  1  1  0  0  0
  1  2  2  0  0  0
  2  3  1  0  0  0
  3  4  1  0  0  0
  3  5  2  0  0  0
  5  6  1  0  0  0
  6  7  1  0  0  0
  6  8  2  0  0  0
 16 11  1  0  0  0
  8  1  1  0  0  0
  4  9  1  0  0  0
M  END
> <minimizedAffinity>
-4.73201

$$$$
