L4:Q6SZW1:20829
     RDKit          3D

 25 26  0  0  0  0  0  0  0  0999 V2000
   -1.2864   -1.2492    1.6016 C   0  0  0  0  0  0  0  0  0  0  0  0
   -1.7552   -0.5386    0.3614 C   0  0  0  0  0  0  0  0  0  0  0  0
   -3.1234   -0.5203    0.0584 C   0  0  0  0  0  0  0  0  0  0  0  0
   -3.5514    0.1337   -1.0860 C   0  0  0  0  0  0  0  0  0  0  0  0
   -2.7230    0.7602   -1.9435 N   0  0  0  0  0  0  0  0  0  0  0  0
   -1.4042    0.7223   -1.6414 C   0  0  0  0  0  0  0  0  0  0  0  0
   -0.8565    0.0958   -0.5177 C   0  0  0  0  0  0  0  0  0  0  0  0
    0.5935    0.1228   -0.2983 C   0  0  0  0  0  0  0  0  0  0  0  0
    1.2190    1.2766    0.2025 C   0  0  0  0  0  0  0  0  0  0  0  0
    2.5973    1.2919    0.4069 C   0  0  0  0  0  0  0  0  0  0  0  0
    3.2293    2.3976    0.8947 O   0  0  0  0  0  0  0  0  0  0  0  0
    3.3756    0.1777    0.1208 C   0  0  0  0  0  0  0  0  0  0  0  0
    2.7633   -0.9675   -0.3782 C   0  0  0  0  0  0  0  0  0  0  0  0
    3.7126   -2.3573   -0.7376 Cl  0  0  0  0  0  0  0  0  0  0  0  0
    1.3840   -1.0004   -0.5898 C   0  0  0  0  0  0  0  0  0  0  0  0
   -0.7461   -2.1625    1.3342 H   0  0  0  0  0  0  0  0  0  0  0  0
   -0.6373   -0.6002    2.1981 H   0  0  0  0  0  0  0  0  0  0  0  0
   -2.1295   -1.5338    2.2404 H   0  0  0  0  0  0  0  0  0  0  0  0
   -3.8508   -1.0046    0.7021 H   0  0  0  0  0  0  0  0  0  0  0  0
   -4.6049    0.1695   -1.3486 H   0  0  0  0  0  0  0  0  0  0  0  0
   -0.7666    1.2291   -2.3627 H   0  0  0  0  0  0  0  0  0  0  0  0
    0.6181    2.1527    0.4343 H   0  0  0  0  0  0  0  0  0  0  0  0
    2.5736    3.0988    1.0453 H   0  0  0  0  0  0  0  0  0  0  0  0
    4.4483    0.2084    0.2869 H   0  0  0  0  0  0  0  0  0  0  0  0
    0.9207   -1.9029   -0.9837 H   0  0  0  0  0  0  0  0  0  0  0  0
  1  2  1  0
  2  3  2  0
  3  4  1  0
  4  5  2  0
  5  6  1  0
  6  7  2  0
  7  8  1  0
  8  9  2  0
  9 10  1  0
 10 11  1  0
 10 12  2  0
 12 13  1  0
 13 14  1  0
 13 15  2  0
  7  2  1  0
 15  8  1  0
  1 16  1  0
  1 17  1  0
  1 18  1  0
  3 19  1  0
  4 20  1  0
  6 21  1  0
  9 22  1  0
 11 23  1  0
 12 24  1  0
 15 25  1  0
M  END
>  <mol_id>  (1) 
20829

>  <source_index>  (1) 
2

>  <layer>  (1) 
L4

>  <uniprot>  (1) 
Q6SZW1

>  <paff>  (1) 
10

>  <smiles>  (1) 
Cc1ccncc1-c1cc(O)cc(Cl)c1

$$$$
