L4:Q6SZW1:22712
     RDKit          3D

 42 45  0  0  0  0  0  0  0  0999 V2000
   -1.4115    2.5497    1.9085 O   0  0  0  0  0  0  0  0  0  0  0  0
   -0.9977    1.7305    1.0910 C   0  0  0  0  0  0  0  0  0  0  0  0
   -1.9034    1.0283    0.2182 C   0  0  0  0  0  0  0  0  0  0  0  0
   -3.1937    0.6035    0.4715 C   0  0  0  0  0  0  0  0  0  0  0  0
   -3.6595   -0.0070   -0.7237 C   0  0  0  0  0  0  0  0  0  0  0  0
   -4.9517   -0.6391   -0.9808 C   0  0  0  0  0  0  0  0  0  0  0  0
   -5.9711   -0.6575   -0.0323 C   0  0  0  0  0  0  0  0  0  0  0  0
   -7.1616   -1.2800   -0.3593 C   0  0  0  0  0  0  0  0  0  0  0  0
   -7.3768   -1.8692   -1.5521 N   0  0  0  0  0  0  0  0  0  0  0  0
   -6.3922   -1.8565   -2.4853 N   0  0  0  0  0  0  0  0  0  0  0  0
   -5.2154   -1.2534   -2.1971 C   0  0  0  0  0  0  0  0  0  0  0  0
   -2.7111    0.0622   -1.6721 N   0  0  0  0  0  0  0  0  0  0  0  0
   -1.7027    0.7327   -1.0969 N   0  0  0  0  0  0  0  0  0  0  0  0
    0.3538    1.4438    1.0014 N   0  0  0  0  0  0  0  0  0  0  0  0
    1.3046    2.1556    1.8451 C   0  0  0  0  0  0  0  0  0  0  0  0
    2.6819    1.6215    1.4457 C   0  0  1  0  0  0  0  0  0  0  0  0
    3.5855    1.6400    2.5416 O   0  0  0  0  0  0  0  0  0  0  0  0
    2.3603    0.1816    1.0043 C   0  0  2  0  0  0  0  0  0  0  0  0
    3.4224   -0.4742    0.1488 C   0  0  0  0  0  0  0  0  0  0  0  0
    3.9683   -1.7042    0.5505 C   0  0  0  0  0  0  0  0  0  0  0  0
    4.9500   -2.3363   -0.2172 C   0  0  0  0  0  0  0  0  0  0  0  0
    5.3948   -1.7446   -1.3954 C   0  0  0  0  0  0  0  0  0  0  0  0
    6.6034   -2.5206   -2.3411 Cl  0  0  0  0  0  0  0  0  0  0  0  0
    4.8653   -0.5264   -1.8118 C   0  0  0  0  0  0  0  0  0  0  0  0
    3.8832    0.1059   -1.0440 C   0  0  0  0  0  0  0  0  0  0  0  0
    1.0036    0.3392    0.3066 C   0  0  0  0  0  0  0  0  0  0  0  0
   -3.7130    0.7192    1.4131 H   0  0  0  0  0  0  0  0  0  0  0  0
   -5.8629   -0.2002    0.9437 H   0  0  0  0  0  0  0  0  0  0  0  0
   -7.9924   -1.3257    0.3359 H   0  0  0  0  0  0  0  0  0  0  0  0
   -4.4832   -1.2872   -2.9973 H   0  0  0  0  0  0  0  0  0  0  0  0
   -0.9023    0.9695   -1.6718 H   0  0  0  0  0  0  0  0  0  0  0  0
    1.0721    1.9481    2.8964 H   0  0  0  0  0  0  0  0  0  0  0  0
    1.2161    3.2356    1.6873 H   0  0  0  0  0  0  0  0  0  0  0  0
    3.0962    2.2301    0.6342 H   0  0  0  0  0  0  0  0  0  0  0  0
    4.4181    1.2337    2.2398 H   0  0  0  0  0  0  0  0  0  0  0  0
    2.2172   -0.4220    1.9128 H   0  0  0  0  0  0  0  0  0  0  0  0
    3.6351   -2.1856    1.4689 H   0  0  0  0  0  0  0  0  0  0  0  0
    5.3611   -3.2880    0.1098 H   0  0  0  0  0  0  0  0  0  0  0  0
    5.2122   -0.0640   -2.7326 H   0  0  0  0  0  0  0  0  0  0  0  0
    3.4875    1.0564   -1.3959 H   0  0  0  0  0  0  0  0  0  0  0  0
    0.4013   -0.5729    0.3654 H   0  0  0  0  0  0  0  0  0  0  0  0
    1.1081    0.6274   -0.7445 H   0  0  0  0  0  0  0  0  0  0  0  0
  1  2  2  0
  2  3  1  0
  3  4  2  0
  4  5  1  0
  5  6  1  0
  6  7  2  0
  7  8  1  0
  8  9  2  0
  9 10  1  0
 10 11  2  0
  5 12  2  0
 12 13  1  0
  2 14  1  0
 14 15  1  0
 15 16  1  0
 16 17  1  0
 16 18  1  0
 18 19  1  0
 19 20  2  0
 20 21  1  0
 21 22  2  0
 22 23  1  0
 22 24  1  0
 24 25  2  0
 18 26  1  0
 13  3  1  0
 26 14  1  0
 11  6  1  0
 25 19  1  0
  4 27  1  0
  7 28  1  0
  8 29  1  0
 11 30  1  0
 13 31  1  0
 15 32  1  0
 15 33  1  0
 16 34  1  6
 17 35  1  0
 18 36  1  1
 20 37  1  0
 21 38  1  0
 24 39  1  0
 25 40  1  0
 26 41  1  0
 26 42  1  0
M  END
>  <mol_id>  (1) 
22712

>  <source_index>  (1) 
3

>  <layer>  (1) 
L4

>  <uniprot>  (1) 
Q6SZW1

>  <paff>  (1) 
6.4546999999999999

>  <smiles>  (1) 
ClC1=CC=C(C=C1)[C@@H]1CN(C[C@H]1O)C(=O)C1=CC(=NN1)C1=CN=NC=C1

$$$$
