L4:Q6SZW1:22712


 28 31  0  0  0  0  0  0  0  0999 V2000
    1.7703  -26.3427    2.2013 O   0  0  0  0  0  0  0  0  0  0  0  0
    0.7483  -26.9642    1.9186 C   0  0  0  0  0  0  0  0  0  0  0  0
   -0.1604  -27.3134    2.9031 N   0  0  0  0  0  0  0  0  0  0  0  0
    0.1181  -26.9899    4.2960 C   0  0  0  0  0  0  0  0  0  0  0  0
   -1.0604  -27.5591    5.0891 C   0  0  0  0  0  0  0  0  0  0  0  0
   -1.3250  -26.7893    6.2532 O   0  0  0  0  0  0  0  0  0  0  0  0
   -2.2155  -27.4630    4.0750 C   0  0  0  0  0  0  0  0  0  0  0  0
   -1.5257  -27.7999    2.7472 C   0  0  0  0  0  0  0  0  0  0  0  0
   -2.1182  -27.1646    6.6768 H   0  0  0  0  0  0  0  0  0  0  0  0
   -3.4119  -28.3350    4.3883 C   0  0  0  0  0  0  0  0  0  0  0  0
   -3.7139  -29.4185    3.5475 C   0  0  0  0  0  0  0  0  0  0  0  0
   -4.8111  -30.2434    3.8093 C   0  0  0  0  0  0  0  0  0  0  0  0
   -5.6166  -29.9932    4.9159 C   0  0  0  0  0  0  0  0  0  0  0  0
   -6.9677  -31.0067    5.2393 Cl  0  0  0  0  0  0  0  0  0  0  0  0
   -5.3333  -28.9252    5.7625 C   0  0  0  0  0  0  0  0  0  0  0  0
   -4.2358  -28.1001    5.5008 C   0  0  0  0  0  0  0  0  0  0  0  0
    0.4525  -27.3289    0.5568 C   0  0  0  0  0  0  0  0  0  0  0  0
    0.1170  -28.5686    0.0468 C   0  0  0  0  0  0  0  0  0  0  0  0
   -0.1060  -28.3859   -1.3442 C   0  0  0  0  0  0  0  0  0  0  0  0
    0.0595  -27.0930   -1.6678 N   0  0  0  0  0  0  0  0  0  0  0  0
    0.3355  -26.4838   -0.5059 N   0  0  0  0  0  0  0  0  0  0  0  0
    0.4199  -25.4738   -0.5088 H   0  0  0  0  0  0  0  0  0  0  0  0
   -0.4637  -29.3847   -2.3491 C   0  0  0  0  0  0  0  0  0  0  0  0
   -1.3210  -30.4457   -2.0691 C   0  0  0  0  0  0  0  0  0  0  0  0
   -1.6037  -31.3463   -3.0795 C   0  0  0  0  0  0  0  0  0  0  0  0
   -1.0858  -31.2426   -4.3194 N   0  0  0  0  0  0  0  0  0  0  0  0
   -0.2507  -30.2124   -4.6053 N   0  0  0  0  0  0  0  0  0  0  0  0
    0.0445  -29.3124   -3.6386 C   0  0  0  0  0  0  0  0  0  0  0  0
  1  2  2  0  0  0
  2 17  1  0  0  0
 17 18  2  0  0  0
 18 19  1  0  0  0
 19 23  1  0  0  0
 23 24  2  0  0  0
 24 25  1  0  0  0
 25 26  2  0  0  0
 26 27  1  0  0  0
 27 28  2  0  0  0
 19 20  2  0  0  0
 20 21  1  0  0  0
  2  3  1  0  0  0
  3  4  1  0  0  0
  4  5  1  0  0  0
  5  6  1  0  0  0
  5  7  1  0  0  0
  7 10  1  0  0  0
 10 11  2  0  0  0
 11 12  1  0  0  0
 12 13  2  0  0  0
 13 14  1  0  0  0
 13 15  1  0  0  0
 15 16  2  0  0  0
  7  8  1  0  0  0
 21 17  1  0  0  0
  8  3  1  0  0  0
 28 23  1  0  0  0
 16 10  1  0  0  0
 21 22  1  0  0  0
  6  9  1  0  0  0
M  END
> <minimizedAffinity>
-6.97251

$$$$
