L4:Q6SZW1:37606
     RDKit          3D

 41 44  0  0  0  0  0  0  0  0999 V2000
    0.7745   -3.8053    0.8857 O   0  0  0  0  0  0  0  0  0  0  0  0
    0.6480   -2.6128    0.6005 C   0  0  0  0  0  0  0  0  0  0  0  0
    1.7208   -1.9379   -0.0782 C   0  0  0  0  0  0  0  0  0  0  0  0
    2.7111   -2.6686   -0.6837 N   0  0  0  0  0  0  0  0  0  0  0  0
    3.6556   -1.9398   -1.3025 N   0  0  0  0  0  0  0  0  0  0  0  0
    3.3152   -0.6636   -1.0498 C   0  0  0  0  0  0  0  0  0  0  0  0
    4.1285    0.4503   -1.5361 C   0  0  0  0  0  0  0  0  0  0  0  0
    5.2972    0.2231   -2.2624 C   0  0  0  0  0  0  0  0  0  0  0  0
    6.0279    1.3102   -2.7000 C   0  0  0  0  0  0  0  0  0  0  0  0
    5.6577    2.5822   -2.4546 N   0  0  0  0  0  0  0  0  0  0  0  0
    4.5226    2.8192   -1.7492 N   0  0  0  0  0  0  0  0  0  0  0  0
    3.7857    1.7740   -1.3065 C   0  0  0  0  0  0  0  0  0  0  0  0
    2.1232   -0.6420   -0.2819 C   0  0  0  0  0  0  0  0  0  0  0  0
    1.5242    0.4578    0.1824 F   0  0  0  0  0  0  0  0  0  0  0  0
   -0.5310   -1.9576    0.9008 N   0  0  0  0  0  0  0  0  0  0  0  0
   -1.5897   -2.6593    1.6121 C   0  0  0  0  0  0  0  0  0  0  0  0
   -2.6435   -1.6003    1.9017 C   0  0  0  0  0  0  0  0  0  0  0  0
   -2.4956   -0.6516    0.7065 C   0  0  1  0  0  0  0  0  0  0  0  0
   -3.1326    0.7049    0.8859 C   0  0  0  0  0  0  0  0  0  0  0  0
   -4.1063    1.1388   -0.0279 C   0  0  0  0  0  0  0  0  0  0  0  0
   -4.7109    2.3911    0.1114 C   0  0  0  0  0  0  0  0  0  0  0  0
   -4.3467    3.2220    1.1667 C   0  0  0  0  0  0  0  0  0  0  0  0
   -5.0907    4.7632    1.3395 Cl  0  0  0  0  0  0  0  0  0  0  0  0
   -3.3831    2.8109    2.0831 C   0  0  0  0  0  0  0  0  0  0  0  0
   -2.7791    1.5583    1.9431 C   0  0  0  0  0  0  0  0  0  0  0  0
   -0.9741   -0.6279    0.5006 C   0  0  0  0  0  0  0  0  0  0  0  0
    2.7789   -3.6827   -0.7062 H   0  0  0  0  0  0  0  0  0  0  0  0
    5.6382   -0.7826   -2.4866 H   0  0  0  0  0  0  0  0  0  0  0  0
    6.9436    1.1921   -3.2678 H   0  0  0  0  0  0  0  0  0  0  0  0
    2.9008    2.0693   -0.7560 H   0  0  0  0  0  0  0  0  0  0  0  0
   -1.2015   -3.1304    2.5205 H   0  0  0  0  0  0  0  0  0  0  0  0
   -1.9816   -3.4405    0.9506 H   0  0  0  0  0  0  0  0  0  0  0  0
   -3.6490   -2.0237    1.9878 H   0  0  0  0  0  0  0  0  0  0  0  0
   -2.4097   -1.0989    2.8483 H   0  0  0  0  0  0  0  0  0  0  0  0
   -2.9441   -1.1504   -0.1653 H   0  0  0  0  0  0  0  0  0  0  0  0
   -4.4064    0.5044   -0.8600 H   0  0  0  0  0  0  0  0  0  0  0  0
   -5.4631    2.7097   -0.6054 H   0  0  0  0  0  0  0  0  0  0  0  0
   -3.0972    3.4584    2.9079 H   0  0  0  0  0  0  0  0  0  0  0  0
   -2.0289    1.2603    2.6729 H   0  0  0  0  0  0  0  0  0  0  0  0
   -0.4850    0.0925    1.1631 H   0  0  0  0  0  0  0  0  0  0  0  0
   -0.7039   -0.4166   -0.5380 H   0  0  0  0  0  0  0  0  0  0  0  0
  1  2  2  0
  2  3  1  0
  3  4  1  0
  4  5  1  0
  5  6  2  0
  6  7  1  0
  7  8  2  0
  8  9  1  0
  9 10  2  0
 10 11  1  0
 11 12  2  0
  6 13  1  0
 13 14  1  0
  2 15  1  0
 15 16  1  0
 16 17  1  0
 17 18  1  0
 18 19  1  0
 19 20  2  0
 20 21  1  0
 21 22  2  0
 22 23  1  0
 22 24  1  0
 24 25  2  0
 18 26  1  0
 13  3  2  0
 26 15  1  0
 12  7  1  0
 25 19  1  0
  4 27  1  0
  8 28  1  0
  9 29  1  0
 12 30  1  0
 16 31  1  0
 16 32  1  0
 17 33  1  0
 17 34  1  0
 18 35  1  6
 20 36  1  0
 21 37  1  0
 24 38  1  0
 25 39  1  0
 26 40  1  0
 26 41  1  0
M  END
>  <mol_id>  (1) 
37606

>  <source_index>  (1) 
4

>  <layer>  (1) 
L4

>  <uniprot>  (1) 
Q6SZW1

>  <paff>  (1) 
6.3079999999999998

>  <smiles>  (1) 
ClC1=CC=C(C=C1)[C@H]1CN(CC1)C(=O)C1=C(C(=NN1)C1=CN=NC=C1)F

$$$$
