L4:Q6SZW1:37606
 OpenBabel09212617503D

 41 44  0  0  0  0  0  0  0  0999 V2000
   -0.3935  -26.9172    4.4650 O   0  0  0  0  0  0  0  0  0  0  0  0
   -1.1758  -27.5261    3.7324 C   0  0  0  0  0  0  0  0  0  0  0  0
   -2.4159  -27.8997    4.2141 N   0  0  0  0  0  0  0  0  0  0  0  0
   -2.8179  -27.5138    5.5589 C   0  0  0  0  0  0  0  0  0  0  0  0
   -4.2704  -27.9511    5.6804 C   0  0  0  0  0  0  0  0  0  0  0  0
   -4.3193  -29.1892    4.7775 C   0  0  2  0  0  0  0  0  0  0  0  0
   -3.4153  -28.7712    3.6088 C   0  0  0  0  0  0  0  0  0  0  0  0
   -0.7619  -27.8708    2.3994 C   0  0  0  0  0  0  0  0  0  0  0  0
   -0.7249  -26.9053    1.4259 N   0  0  0  0  0  0  0  0  0  0  0  0
   -0.3088  -27.3309    0.2210 N   0  0  0  0  0  0  0  0  0  0  0  0
   -0.1153  -28.6523    0.3792 C   0  0  0  0  0  0  0  0  0  0  0  0
   -0.4019  -29.0083    1.7217 C   0  0  0  0  0  0  0  0  0  0  0  0
   -0.3550  -30.2473    2.2183 F   0  0  0  0  0  0  0  0  0  0  0  0
   -0.9716  -25.9261    1.5435 H   0  0  0  0  0  0  0  0  0  0  0  0
    0.3178  -29.4955   -0.7343 C   0  0  0  0  0  0  0  0  0  0  0  0
   -0.6081  -30.0525   -1.6161 C   0  0  0  0  0  0  0  0  0  0  0  0
   -0.1463  -30.8402   -2.6522 C   0  0  0  0  0  0  0  0  0  0  0  0
    1.1628  -31.0924   -2.8469 N   0  0  0  0  0  0  0  0  0  0  0  0
    2.0758  -30.5571   -1.9972 N   0  0  0  0  0  0  0  0  0  0  0  0
    1.6536  -29.7814   -0.9718 C   0  0  0  0  0  0  0  0  0  0  0  0
   -5.7054  -29.6344    4.3795 C   0  0  0  0  0  0  0  0  0  0  0  0
   -6.2063  -30.8539    4.8627 C   0  0  0  0  0  0  0  0  0  0  0  0
   -7.4849  -31.2930    4.5085 C   0  0  0  0  0  0  0  0  0  0  0  0
   -8.2751  -30.5160    3.6667 C   0  0  0  0  0  0  0  0  0  0  0  0
   -9.8493  -31.0552    3.2307 Cl  0  0  0  0  0  0  0  0  0  0  0  0
   -7.7970  -29.3043    3.1764 C   0  0  0  0  0  0  0  0  0  0  0  0
   -6.5182  -28.8658    3.5313 C   0  0  0  0  0  0  0  0  0  0  0  0
   -2.7326  -26.4549    5.6870 H   0  0  0  0  0  0  0  0  0  0  0  0
   -2.1999  -27.9651    6.3067 H   0  0  0  0  0  0  0  0  0  0  0  0
   -4.9345  -27.1894    5.3288 H   0  0  0  0  0  0  0  0  0  0  0  0
   -4.5753  -28.1447    6.6876 H   0  0  0  0  0  0  0  0  0  0  0  0
   -3.9824  -30.0770    5.2706 H   0  0  0  0  0  0  0  0  0  0  0  0
   -3.9768  -28.2440    2.8661 H   0  0  0  0  0  0  0  0  0  0  0  0
   -2.9758  -29.6117    3.1135 H   0  0  0  0  0  0  0  0  0  0  0  0
   -1.6185  -29.8794   -1.4967 H   0  0  0  0  0  0  0  0  0  0  0  0
   -0.8320  -31.2525   -3.3040 H   0  0  0  0  0  0  0  0  0  0  0  0
    2.3611  -29.3828   -0.3349 H   0  0  0  0  0  0  0  0  0  0  0  0
   -5.6232  -31.4330    5.4870 H   0  0  0  0  0  0  0  0  0  0  0  0
   -7.8422  -32.1911    4.8702 H   0  0  0  0  0  0  0  0  0  0  0  0
   -8.3855  -28.7308    2.5521 H   0  0  0  0  0  0  0  0  0  0  0  0
   -6.1675  -27.9667    3.1656 H   0  0  0  0  0  0  0  0  0  0  0  0
  1  2  2  0  0  0  0
  2  8  1  0  0  0  0
  2  3  1  0  0  0  0
  3  4  1  0  0  0  0
  4  5  1  0  0  0  0
  4 28  1  0  0  0  0
  4 29  1  0  0  0  0
  5  6  1  0  0  0  0
  5 30  1  0  0  0  0
  5 31  1  0  0  0  0
  6 21  1  0  0  0  0
  6  7  1  0  0  0  0
  6 32  1  1  0  0  0
  7  3  1  0  0  0  0
  7 33  1  0  0  0  0
  7 34  1  0  0  0  0
  8  9  1  0  0  0  0
  9 10  1  0  0  0  0
  9 14  1  0  0  0  0
 10 11  2  0  0  0  0
 11 15  1  0  0  0  0
 11 12  1  0  0  0  0
 12 13  1  0  0  0  0
 12  8  2  0  0  0  0
 15 16  2  0  0  0  0
 16 17  1  0  0  0  0
 16 35  1  0  0  0  0
 17 18  2  0  0  0  0
 17 36  1  0  0  0  0
 18 19  1  0  0  0  0
 19 20  2  0  0  0  0
 20 15  1  0  0  0  0
 20 37  1  0  0  0  0
 21 22  2  0  0  0  0
 22 23  1  0  0  0  0
 22 38  1  0  0  0  0
 23 24  2  0  0  0  0
 23 39  1  0  0  0  0
 24 25  1  0  0  0  0
 24 26  1  0  0  0  0
 26 27  2  0  0  0  0
 26 40  1  0  0  0  0
 27 21  1  0  0  0  0
 27 41  1  0  0  0  0
M  END
>  <minimizedAffinity>
-6.79244

$$$$
