L4:Q6SZW1:5536


 18 20  0  0  0  0  0  0  0  0999 V2000
   -5.8058  -28.9739    4.3877 C   0  0  0  0  0  0  0  0  0  0  0  0
   -5.6255  -28.4057    5.6779 C   0  0  0  0  0  0  0  0  0  0  0  0
   -4.3929  -27.8809    6.0835 C   0  0  0  0  0  0  0  0  0  0  0  0
   -3.3700  -27.9430    5.1702 C   0  0  0  0  0  0  0  0  0  0  0  0
   -2.0711  -27.5266    5.2567 N   0  0  0  0  0  0  0  0  0  0  0  0
   -1.4780  -27.8284    4.0581 C   0  0  0  0  0  0  0  0  0  0  0  0
    0.0894  -27.5399    3.6281 S   0  0  0  0  0  0  0  0  0  0  0  0
   -2.3498  -28.4402    3.1627 O   0  0  0  0  0  0  0  0  0  0  0  0
   -3.5186  -28.4872    3.9101 C   0  0  0  0  0  0  0  0  0  0  0  0
   -4.7230  -29.0083    3.4894 C   0  0  0  0  0  0  0  0  0  0  0  0
   -1.6172  -27.0817    6.0394 H   0  0  0  0  0  0  0  0  0  0  0  0
   -6.5534  -31.8508    4.8349 C   0  0  0  0  0  0  0  0  0  0  0  0
   -7.4846  -30.8557    4.1987 C   0  0  0  0  0  0  0  0  0  0  0  0
   -8.7526  -31.2777    3.7760 C   0  0  0  0  0  0  0  0  0  0  0  0
   -9.6076  -30.3588    3.1885 C   0  0  0  0  0  0  0  0  0  0  0  0
   -9.2924  -29.0646    2.9896 N   0  0  0  0  0  0  0  0  0  0  0  0
   -8.0597  -28.6775    3.3936 C   0  0  0  0  0  0  0  0  0  0  0  0
   -7.1137  -29.5124    3.9964 C   0  0  0  0  0  0  0  0  0  0  0  0
 12 13  1  0  0  0
 13 14  2  0  0  0
 14 15  1  0  0  0
 15 16  2  0  0  0
 16 17  1  0  0  0
 17 18  2  0  0  0
 18  1  1  0  0  0
  1  2  2  0  0  0
  2  3  1  0  0  0
  3  4  2  0  0  0
  4  5  1  0  0  0
  5  6  1  0  0  0
  6  7  2  0  0  0
  6  8  1  0  0  0
  8  9  1  0  0  0
  9 10  2  0  0  0
 18 13  1  0  0  0
 10  1  1  0  0  0
  9  4  1  0  0  0
  5 11  1  0  0  0
M  END
> <minimizedAffinity>
-5.55439

$$$$
