L4:Q6SZW1:5536
     RDKit          3D

 27 29  0  0  0  0  0  0  0  0999 V2000
   -1.9088    1.3095    1.2531 C   0  0  0  0  0  0  0  0  0  0  0  0
   -2.2783    0.1078    0.4275 C   0  0  0  0  0  0  0  0  0  0  0  0
   -3.6060   -0.3412    0.4281 C   0  0  0  0  0  0  0  0  0  0  0  0
   -3.9429   -1.4498   -0.3323 C   0  0  0  0  0  0  0  0  0  0  0  0
   -3.0611   -2.1388   -1.0817 N   0  0  0  0  0  0  0  0  0  0  0  0
   -1.7814   -1.6978   -1.0612 C   0  0  0  0  0  0  0  0  0  0  0  0
   -1.3244   -0.5943   -0.3341 C   0  0  0  0  0  0  0  0  0  0  0  0
    0.0926   -0.2164   -0.3905 C   0  0  0  0  0  0  0  0  0  0  0  0
    0.6055    0.4600   -1.5304 C   0  0  0  0  0  0  0  0  0  0  0  0
    1.9516    0.8331   -1.6189 C   0  0  0  0  0  0  0  0  0  0  0  0
    2.7487    0.5105   -0.5489 C   0  0  0  0  0  0  0  0  0  0  0  0
    4.0794    0.7318   -0.3297 N   0  0  0  0  0  0  0  0  0  0  0  0
    4.3705    0.2059    0.9025 C   0  0  0  0  0  0  0  0  0  0  0  0
    5.8388    0.2034    1.6566 S   0  0  0  0  0  0  0  0  0  0  0  0
    3.2633   -0.3668    1.5208 O   0  0  0  0  0  0  0  0  0  0  0  0
    2.2768   -0.1480    0.5691 C   0  0  0  0  0  0  0  0  0  0  0  0
    0.9559   -0.5257    0.6770 C   0  0  0  0  0  0  0  0  0  0  0  0
   -1.3099    1.0063    2.1174 H   0  0  0  0  0  0  0  0  0  0  0  0
   -1.3480    2.0342    0.6543 H   0  0  0  0  0  0  0  0  0  0  0  0
   -2.8001    1.8249    1.6271 H   0  0  0  0  0  0  0  0  0  0  0  0
   -4.3721    0.1630    1.0084 H   0  0  0  0  0  0  0  0  0  0  0  0
   -4.9632   -1.8219   -0.3568 H   0  0  0  0  0  0  0  0  0  0  0  0
   -1.0973   -2.2853   -1.6698 H   0  0  0  0  0  0  0  0  0  0  0  0
   -0.0629    0.7015   -2.3566 H   0  0  0  0  0  0  0  0  0  0  0  0
    2.3352    1.3503   -2.4898 H   0  0  0  0  0  0  0  0  0  0  0  0
    4.7371    1.1899   -0.9414 H   0  0  0  0  0  0  0  0  0  0  0  0
    0.6010   -1.0462    1.5608 H   0  0  0  0  0  0  0  0  0  0  0  0
  1  2  1  0
  2  3  2  0
  3  4  1  0
  4  5  2  0
  5  6  1  0
  6  7  2  0
  7  8  1  0
  8  9  2  0
  9 10  1  0
 10 11  2  0
 11 12  1  0
 12 13  1  0
 13 14  2  0
 13 15  1  0
 15 16  1  0
 16 17  2  0
  7  2  1  0
 17  8  1  0
 16 11  1  0
  1 18  1  0
  1 19  1  0
  1 20  1  0
  3 21  1  0
  4 22  1  0
  6 23  1  0
  9 24  1  0
 10 25  1  0
 12 26  1  0
 17 27  1  0
M  END
>  <mol_id>  (1) 
5536

>  <source_index>  (1) 
0

>  <layer>  (1) 
L4

>  <uniprot>  (1) 
Q6SZW1

>  <paff>  (1) 
10

>  <smiles>  (1) 
Cc1ccncc1-c1ccc2[nH]c(=S)oc2c1

$$$$
