L4:Q6SZW1:80793


 27 30  0  0  0  0  0  0  0  0999 V2000
   -1.4547  -34.2932   12.3261 C   0  0  0  0  0  0  0  0  0  0  0  0
   -0.4737  -34.6962   12.9470 O   0  0  0  0  0  0  0  0  0  0  0  0
   -2.2315  -35.1632   11.5806 N   0  0  0  0  0  0  0  0  0  0  0  0
   -1.9329  -36.5856   11.5719 C   0  0  0  0  0  0  0  0  0  0  0  0
   -3.0183  -37.2078   10.7045 C   0  0  0  0  0  0  0  0  0  0  0  0
   -3.3728  -36.0956    9.7074 C   0  0  0  0  0  0  0  0  0  0  0  0
   -3.2368  -34.8324   10.5733 C   0  0  0  0  0  0  0  0  0  0  0  0
   -0.6096  -32.0154   10.2492 C   0  0  0  0  0  0  0  0  0  0  0  0
   -1.4592  -31.8798   11.4618 C   0  0  0  0  0  0  0  0  0  0  0  0
   -2.0880  -30.7035   11.9835 C   0  0  0  0  0  0  0  0  0  0  0  0
   -2.8127  -30.9983   13.0735 N   0  0  0  0  0  0  0  0  0  0  0  0
   -2.5793  -32.2971   13.2908 N   0  0  0  0  0  0  0  0  0  0  0  0
   -1.8291  -32.9009   12.3269 C   0  0  0  0  0  0  0  0  0  0  0  0
   -2.9644  -32.7188   14.1288 H   0  0  0  0  0  0  0  0  0  0  0  0
   -2.0395  -29.3334   11.4863 C   0  0  0  0  0  0  0  0  0  0  0  0
   -3.0238  -28.8116   10.6534 C   0  0  0  0  0  0  0  0  0  0  0  0
   -2.8944  -27.5021   10.2315 C   0  0  0  0  0  0  0  0  0  0  0  0
   -1.8602  -26.7157   10.5920 N   0  0  0  0  0  0  0  0  0  0  0  0
   -0.8859  -27.2221   11.3913 N   0  0  0  0  0  0  0  0  0  0  0  0
   -0.9792  -28.5029   11.8155 C   0  0  0  0  0  0  0  0  0  0  0  0
   -2.5026  -36.1587    8.4619 C   0  0  0  0  0  0  0  0  0  0  0  0
   -2.6869  -37.2307    7.5702 C   0  0  0  0  0  0  0  0  0  0  0  0
   -1.9086  -37.3480    6.4158 C   0  0  0  0  0  0  0  0  0  0  0  0
   -0.9315  -36.3964    6.1422 C   0  0  0  0  0  0  0  0  0  0  0  0
    0.0295  -36.5389    4.7228 Cl  0  0  0  0  0  0  0  0  0  0  0  0
   -0.7260  -35.3321    7.0149 C   0  0  0  0  0  0  0  0  0  0  0  0
   -1.5057  -35.2150    8.1698 C   0  0  0  0  0  0  0  0  0  0  0  0
  8  9  1  0  0  0
  9 10  1  0  0  0
 10 15  1  0  0  0
 15 16  2  0  0  0
 16 17  1  0  0  0
 17 18  2  0  0  0
 18 19  1  0  0  0
 19 20  2  0  0  0
 10 11  2  0  0  0
 11 12  1  0  0  0
 12 13  1  0  0  0
 13  1  1  0  0  0
  1  2  2  0  0  0
  1  3  1  0  0  0
  3  4  1  0  0  0
  4  5  1  0  0  0
  5  6  1  0  0  0
  6 21  1  0  0  0
 21 22  2  0  0  0
 22 23  1  0  0  0
 23 24  2  0  0  0
 24 25  1  0  0  0
 24 26  1  0  0  0
 26 27  2  0  0  0
  6  7  1  0  0  0
 13  9  2  0  0  0
  7  3  1  0  0  0
 20 15  1  0  0  0
 27 21  1  0  0  0
 12 14  1  0  0  0
M  END
> <minimizedAffinity>
-5.94457

$$$$
