L4:Q6SZW1:80793
     RDKit          3D

 44 47  0  0  0  0  0  0  0  0999 V2000
    2.1922   -1.0607    2.0409 C   0  0  0  0  0  0  0  0  0  0  0  0
    2.3204   -0.1676    0.8591 C   0  0  0  0  0  0  0  0  0  0  0  0
    3.2876   -0.2174   -0.1960 C   0  0  0  0  0  0  0  0  0  0  0  0
    4.4110   -1.1297   -0.3758 C   0  0  0  0  0  0  0  0  0  0  0  0
    5.2084   -1.5424    0.6865 C   0  0  0  0  0  0  0  0  0  0  0  0
    6.2515   -2.4090    0.4210 C   0  0  0  0  0  0  0  0  0  0  0  0
    6.5254   -2.8672   -0.8171 N   0  0  0  0  0  0  0  0  0  0  0  0
    5.7624   -2.4563   -1.8628 N   0  0  0  0  0  0  0  0  0  0  0  0
    4.7382   -1.6023   -1.6375 C   0  0  0  0  0  0  0  0  0  0  0  0
    3.0418    0.7351   -1.1084 N   0  0  0  0  0  0  0  0  0  0  0  0
    2.0116    1.4240   -0.6057 N   0  0  0  0  0  0  0  0  0  0  0  0
    1.4901    0.8980    0.5379 C   0  0  0  0  0  0  0  0  0  0  0  0
    0.3705    1.4473    1.2614 C   0  0  0  0  0  0  0  0  0  0  0  0
    0.4009    1.5917    2.4814 O   0  0  0  0  0  0  0  0  0  0  0  0
   -0.7551    1.7901    0.5322 N   0  0  0  0  0  0  0  0  0  0  0  0
   -1.9017    2.3881    1.1956 C   0  0  0  0  0  0  0  0  0  0  0  0
   -2.8961    2.6715    0.0782 C   0  0  0  0  0  0  0  0  0  0  0  0
   -2.6018    1.5793   -0.9598 C   0  0  2  0  0  0  0  0  0  0  0  0
   -3.4225    0.3249   -0.7042 C   0  0  0  0  0  0  0  0  0  0  0  0
   -4.6973    0.2281   -1.2904 C   0  0  0  0  0  0  0  0  0  0  0  0
   -5.5018   -0.8950   -1.0813 C   0  0  0  0  0  0  0  0  0  0  0  0
   -5.0424   -1.9334   -0.2777 C   0  0  0  0  0  0  0  0  0  0  0  0
   -6.0310   -3.3166   -0.0169 Cl  0  0  0  0  0  0  0  0  0  0  0  0
   -3.7878   -1.8552    0.3193 C   0  0  0  0  0  0  0  0  0  0  0  0
   -2.9830   -0.7311    0.1091 C   0  0  0  0  0  0  0  0  0  0  0  0
   -1.0754    1.4325   -0.8477 C   0  0  0  0  0  0  0  0  0  0  0  0
    1.1548   -1.1172    2.3862 H   0  0  0  0  0  0  0  0  0  0  0  0
    2.5061   -2.0814    1.8014 H   0  0  0  0  0  0  0  0  0  0  0  0
    2.8079   -0.6894    2.8660 H   0  0  0  0  0  0  0  0  0  0  0  0
    5.0454   -1.1896    1.6977 H   0  0  0  0  0  0  0  0  0  0  0  0
    6.9122   -2.7653    1.2033 H   0  0  0  0  0  0  0  0  0  0  0  0
    4.1809   -1.3125   -2.5221 H   0  0  0  0  0  0  0  0  0  0  0  0
    1.7083    2.2577   -1.0968 H   0  0  0  0  0  0  0  0  0  0  0  0
   -2.2991    1.6672    1.9188 H   0  0  0  0  0  0  0  0  0  0  0  0
   -1.6019    3.2918    1.7353 H   0  0  0  0  0  0  0  0  0  0  0  0
   -3.9298    2.6922    0.4368 H   0  0  0  0  0  0  0  0  0  0  0  0
   -2.6728    3.6527   -0.3601 H   0  0  0  0  0  0  0  0  0  0  0  0
   -2.8437    1.9311   -1.9710 H   0  0  0  0  0  0  0  0  0  0  0  0
   -5.0766    1.0326   -1.9183 H   0  0  0  0  0  0  0  0  0  0  0  0
   -6.4826   -0.9508   -1.5458 H   0  0  0  0  0  0  0  0  0  0  0  0
   -3.4294   -2.6624    0.9529 H   0  0  0  0  0  0  0  0  0  0  0  0
   -2.0142   -0.6995    0.6023 H   0  0  0  0  0  0  0  0  0  0  0  0
   -0.6964    0.4401   -1.1089 H   0  0  0  0  0  0  0  0  0  0  0  0
   -0.5853    2.1756   -1.4874 H   0  0  0  0  0  0  0  0  0  0  0  0
  1  2  1  0
  2  3  1  0
  3  4  1  0
  4  5  2  0
  5  6  1  0
  6  7  2  0
  7  8  1  0
  8  9  2  0
  3 10  2  0
 10 11  1  0
 11 12  1  0
 12 13  1  0
 13 14  2  0
 13 15  1  0
 15 16  1  0
 16 17  1  0
 17 18  1  0
 18 19  1  0
 19 20  2  0
 20 21  1  0
 21 22  2  0
 22 23  1  0
 22 24  1  0
 24 25  2  0
 18 26  1  0
 12  2  2  0
 26 15  1  0
  9  4  1  0
 25 19  1  0
  1 27  1  0
  1 28  1  0
  1 29  1  0
  5 30  1  0
  6 31  1  0
  9 32  1  0
 11 33  1  0
 16 34  1  0
 16 35  1  0
 17 36  1  0
 17 37  1  0
 18 38  1  6
 20 39  1  0
 21 40  1  0
 24 41  1  0
 25 42  1  0
 26 43  1  0
 26 44  1  0
M  END
>  <mol_id>  (1) 
80793

>  <source_index>  (1) 
5

>  <layer>  (1) 
L4

>  <uniprot>  (1) 
Q6SZW1

>  <paff>  (1) 
6.3696000000000002

>  <smiles>  (1) 
ClC1=CC=C(C=C1)C1CN(CC1)C(=O)C1=C(C(=NN1)C1=CN=NC=C1)C

$$$$
