L4:Q6SZW1:94916


 28 31  0  0  0  0  0  0  0  0999 V2000
  -11.8983  -26.4542   -3.6582 N   0  0  0  0  0  0  0  0  0  0  0  0
  -13.1426  -27.0078   -3.8577 C   0  0  0  0  0  0  0  0  0  0  0  0
  -14.2187  -26.4385   -3.7052 O   0  0  0  0  0  0  0  0  0  0  0  0
  -13.0949  -28.3128   -4.2547 N   0  0  0  0  0  0  0  0  0  0  0  0
  -12.0803  -29.3373   -4.4351 C   0  0  0  0  0  0  0  0  0  0  0  0
  -13.1162  -29.9577   -5.4065 C   0  0  0  0  0  0  0  0  0  0  0  0
  -14.1679  -29.2708   -4.5010 C   0  0  0  0  0  0  0  0  0  0  0  0
  -14.4739  -30.0748   -3.2381 C   0  0  0  0  0  0  0  0  0  0  0  0
  -13.2218  -30.1716   -2.3355 C   0  0  0  0  0  0  0  0  0  0  0  0
  -11.9092  -30.1557   -3.1557 C   0  0  0  0  0  0  0  0  0  0  0  0
  -11.1215  -27.0242   -3.9525 H   0  0  0  0  0  0  0  0  0  0  0  0
  -10.9576  -23.6496   -1.2930 C   0  0  0  0  0  0  0  0  0  0  0  0
  -11.2972  -24.9331   -1.7972 C   0  0  0  0  0  0  0  0  0  0  0  0
  -11.5885  -25.1809   -3.1437 C   0  0  0  0  0  0  0  0  0  0  0  0
  -11.5575  -24.1163   -4.0411 C   0  0  0  0  0  0  0  0  0  0  0  0
  -11.2723  -22.8303   -3.5875 C   0  0  0  0  0  0  0  0  0  0  0  0
  -10.9899  -22.6012   -2.2354 C   0  0  0  0  0  0  0  0  0  0  0  0
  -10.7247  -20.9586   -1.7699 Cl  0  0  0  0  0  0  0  0  0  0  0  0
  -11.7759  -23.6238    1.3328 C   0  0  0  0  0  0  0  0  0  0  0  0
  -10.6854  -24.1386    2.3071 C   0  0  0  0  0  0  0  0  0  0  0  0
   -9.8844  -24.5893    1.0707 C   0  0  0  0  0  0  0  0  0  0  0  0
  -10.6254  -23.4808    0.2658 C   0  0  0  0  0  0  0  0  0  0  0  0
  -13.6721  -25.3573    0.8481 N   0  0  0  0  0  0  0  0  0  0  0  0
  -12.8267  -24.5899    1.0561 C   0  0  0  0  0  0  0  0  0  0  0  0
  -13.2883  -31.3805   -1.4222 C   0  0  0  0  0  0  0  0  0  0  0  0
  -14.5015  -31.9730   -1.4849 F   0  0  0  0  0  0  0  0  0  0  0  0
  -13.0631  -31.0384   -0.1366 F   0  0  0  0  0  0  0  0  0  0  0  0
  -12.3648  -32.3022   -1.7720 F   0  0  0  0  0  0  0  0  0  0  0  0
 23 24  3  0  0  0
 24 19  1  0  0  0
 19 20  1  0  0  0
 20 21  1  0  0  0
 21 22  1  0  0  0
 22 12  1  0  0  0
 12 13  2  0  0  0
 13 14  1  0  0  0
 14  1  1  0  0  0
  1  2  1  0  0  0
  2  3  2  0  0  0
  2  4  1  0  0  0
  4  5  1  0  0  0
  5  6  1  0  0  0
  6  7  1  0  0  0
  7  8  1  0  0  0
  8  9  1  0  0  0
  9 25  1  0  0  0
 25 26  1  0  0  0
 25 27  1  0  0  0
 25 28  1  0  0  0
  9 10  1  0  0  0
 14 15  2  0  0  0
 15 16  1  0  0  0
 16 17  2  0  0  0
 17 18  1  0  0  0
 22 19  1  0  0  0
 17 12  1  0  0  0
  7  4  1  0  0  0
 10  5  1  0  0  0
  1 11  1  0  0  0
M  END
> <minimizedAffinity>
-6.21242

$$$$
