L4:Q6SZW1:94916
     RDKit          3D

 46 49  0  0  0  0  0  0  0  0999 V2000
    2.4246   -2.3580    1.9127 N   0  0  0  0  0  0  0  0  0  0  0  0
    3.0719   -1.3968    1.9756 C   0  0  0  0  0  0  0  0  0  0  0  0
    3.8962   -0.2022    2.0637 C   0  0  1  0  0  0  0  0  0  0  0  0
    5.4018   -0.4897    2.2956 C   0  0  0  0  0  0  0  0  0  0  0  0
    5.5800   -0.4462    0.7660 C   0  0  0  0  0  0  0  0  0  0  0  0
    4.3287    0.4795    0.7106 C   0  0  1  0  0  0  0  0  0  0  0  0
    3.3287    0.4720   -0.5418 C   0  0  0  0  0  0  0  0  0  0  0  0
    1.9402    0.6770   -0.3250 C   0  0  0  0  0  0  0  0  0  0  0  0
    0.9899    0.6732   -1.3527 C   0  0  0  0  0  0  0  0  0  0  0  0
   -0.3916    0.8470   -1.1448 N   0  0  0  0  0  0  0  0  0  0  0  0
   -1.0392    1.1594    0.0289 C   0  0  0  0  0  0  0  0  0  0  0  0
   -0.5032    1.4373    1.0971 O   0  0  0  0  0  0  0  0  0  0  0  0
   -2.3993    1.1315   -0.0817 N   0  0  0  0  0  0  0  0  0  0  0  0
   -3.3812    0.7597   -1.0862 C   0  0  2  0  0  0  0  0  0  0  0  0
   -4.3076    1.7189   -0.2967 C   0  0  0  0  0  0  0  0  0  0  0  0
   -3.4385    1.3280    0.9239 C   0  0  1  0  0  0  0  0  0  0  0  0
   -3.8532   -0.0077    1.5395 C   0  0  0  0  0  0  0  0  0  0  0  0
   -3.6215   -1.1650    0.5402 C   0  0  1  0  0  0  0  0  0  0  0  0
   -4.5133   -2.3520    0.8495 C   0  0  0  0  0  0  0  0  0  0  0  0
   -5.8190   -2.0291    0.7157 F   0  0  0  0  0  0  0  0  0  0  0  0
   -4.3254   -2.7927    2.1109 F   0  0  0  0  0  0  0  0  0  0  0  0
   -4.2586   -3.3798    0.0108 F   0  0  0  0  0  0  0  0  0  0  0  0
   -3.7816   -0.7070   -0.9296 C   0  0  0  0  0  0  0  0  0  0  0  0
    1.4214    0.4701   -2.6612 C   0  0  0  0  0  0  0  0  0  0  0  0
    2.7786    0.3076   -2.9304 C   0  0  0  0  0  0  0  0  0  0  0  0
    3.7150    0.3210   -1.8895 C   0  0  0  0  0  0  0  0  0  0  0  0
    5.3764    0.1862   -2.3442 Cl  0  0  0  0  0  0  0  0  0  0  0  0
    3.4846    0.5132    2.7863 H   0  0  0  0  0  0  0  0  0  0  0  0
    5.9248    0.3173    2.8232 H   0  0  0  0  0  0  0  0  0  0  0  0
    5.6608   -1.4390    2.7736 H   0  0  0  0  0  0  0  0  0  0  0  0
    6.5218   -0.0020    0.4321 H   0  0  0  0  0  0  0  0  0  0  0  0
    5.4544   -1.4221    0.2825 H   0  0  0  0  0  0  0  0  0  0  0  0
    4.6274    1.5260    0.8947 H   0  0  0  0  0  0  0  0  0  0  0  0
    1.6159    0.8336    0.7008 H   0  0  0  0  0  0  0  0  0  0  0  0
   -0.9841    0.7703   -1.9559 H   0  0  0  0  0  0  0  0  0  0  0  0
   -3.1727    1.0868   -2.1078 H   0  0  0  0  0  0  0  0  0  0  0  0
   -4.2265    2.7728   -0.5920 H   0  0  0  0  0  0  0  0  0  0  0  0
   -5.3675    1.4519   -0.2514 H   0  0  0  0  0  0  0  0  0  0  0  0
   -3.2607    2.1420    1.6313 H   0  0  0  0  0  0  0  0  0  0  0  0
   -4.9046    0.0447    1.8466 H   0  0  0  0  0  0  0  0  0  0  0  0
   -3.2705   -0.1991    2.4487 H   0  0  0  0  0  0  0  0  0  0  0  0
   -2.5793   -1.4926    0.6630 H   0  0  0  0  0  0  0  0  0  0  0  0
   -3.1537   -1.3379   -1.5705 H   0  0  0  0  0  0  0  0  0  0  0  0
   -4.8141   -0.8400   -1.2743 H   0  0  0  0  0  0  0  0  0  0  0  0
    0.7182    0.4539   -3.4893 H   0  0  0  0  0  0  0  0  0  0  0  0
    3.1059    0.1777   -3.9594 H   0  0  0  0  0  0  0  0  0  0  0  0
  1  2  3  0
  2  3  1  0
  3  4  1  0
  4  5  1  0
  5  6  1  0
  6  7  1  0
  7  8  2  0
  8  9  1  0
  9 10  1  0
 10 11  1  0
 11 12  2  0
 11 13  1  0
 13 14  1  0
 14 15  1  0
 15 16  1  0
 16 17  1  0
 17 18  1  0
 18 19  1  0
 19 20  1  0
 19 21  1  0
 19 22  1  0
 18 23  1  0
  9 24  2  0
 24 25  1  0
 25 26  2  0
 26 27  1  0
  6  3  1  0
 26  7  1  0
 16 13  1  0
 23 14  1  0
  3 28  1  1
  4 29  1  0
  4 30  1  0
  5 31  1  0
  5 32  1  0
  6 33  1  1
  8 34  1  0
 10 35  1  0
 14 36  1  6
 15 37  1  0
 15 38  1  0
 16 39  1  1
 17 40  1  0
 17 41  1  0
 18 42  1  6
 23 43  1  0
 23 44  1  0
 24 45  1  0
 25 46  1  0
M  END
>  <mol_id>  (1) 
94916

>  <source_index>  (1) 
6

>  <layer>  (1) 
L4

>  <uniprot>  (1) 
Q6SZW1

>  <paff>  (1) 
6

>  <smiles>  (1) 
N#C[C@H]1CC[C@H]1c1cc(NC(=O)N2C3CC2CC(C(F)(F)F)C3)ccc1Cl

$$$$
