L1:P51532:13433
     RDKit          3D

 33 35  0  0  0  0  0  0  0  0999 V2000
  -10.9564   -3.8083   25.0483 N   0  0  0  0  0  0  0  0  0  0  0  0
   -9.9762   -3.0097   24.4454 C   0  0  0  0  0  0  0  0  0  0  0  0
   -8.7436   -3.5440   24.3399 N   0  0  0  0  0  0  0  0  0  0  0  0
   -7.7201   -2.8350   23.7571 N   0  0  0  0  0  0  0  0  0  0  0  0
   -7.9341   -1.5926   23.2703 C   0  0  0  0  0  0  0  0  0  0  0  0
   -9.2028   -1.0330   23.3423 C   0  0  0  0  0  0  0  0  0  0  0  0
  -10.2609   -1.7369   23.9397 C   0  0  0  0  0  0  0  0  0  0  0  0
  -11.4616   -3.2937   25.7620 H   0  0  0  0  0  0  0  0  0  0  0  0
  -10.5034   -4.6427   25.4108 H   0  0  0  0  0  0  0  0  0  0  0  0
   -6.7746   -0.9307   22.6442 C   0  0  0  0  0  0  0  0  0  0  0  0
   -6.9742    0.2247   21.8601 C   0  0  0  0  0  0  0  0  0  0  0  0
   -5.9087    0.8930   21.2502 C   0  0  0  0  0  0  0  0  0  0  0  0
   -4.6112    0.4180   21.4059 C   0  0  0  0  0  0  0  0  0  0  0  0
   -4.3796   -0.7266   22.1652 C   0  0  0  0  0  0  0  0  0  0  0  0
   -5.4511   -1.3924   22.7724 C   0  0  0  0  0  0  0  0  0  0  0  0
   -5.1911   -2.5327   23.4885 O   0  0  0  0  0  0  0  0  0  0  0  0
   -4.2539   -2.7646   23.3805 H   0  0  0  0  0  0  0  0  0  0  0  0
  -11.5967   -1.1168   24.0149 C   0  0  0  0  0  0  0  0  0  0  0  0
  -12.2195   -0.8760   25.2506 C   0  0  0  0  0  0  0  0  0  0  0  0
  -13.4876   -0.2932   25.3168 C   0  0  0  0  0  0  0  0  0  0  0  0
  -14.1560    0.0567   24.1464 C   0  0  0  0  0  0  0  0  0  0  0  0
  -13.5582   -0.1761   22.9104 C   0  0  0  0  0  0  0  0  0  0  0  0
  -12.2899   -0.7591   22.8456 C   0  0  0  0  0  0  0  0  0  0  0  0
   -9.3696   -0.0917   22.9535 H   0  0  0  0  0  0  0  0  0  0  0  0
   -7.9324    0.5863   21.7333 H   0  0  0  0  0  0  0  0  0  0  0  0
   -6.0849    1.7382   20.6849 H   0  0  0  0  0  0  0  0  0  0  0  0
   -3.8222    0.9119   20.9603 H   0  0  0  0  0  0  0  0  0  0  0  0
   -3.4182   -1.0838   22.2802 H   0  0  0  0  0  0  0  0  0  0  0  0
  -11.7328   -1.1336   26.1234 H   0  0  0  0  0  0  0  0  0  0  0  0
  -13.9292   -0.1219   26.2337 H   0  0  0  0  0  0  0  0  0  0  0  0
  -15.0925    0.4877   24.1949 H   0  0  0  0  0  0  0  0  0  0  0  0
  -14.0521    0.0821   22.0418 H   0  0  0  0  0  0  0  0  0  0  0  0
  -11.8555   -0.9296   21.9251 H   0  0  0  0  0  0  0  0  0  0  0  0
  1  2  1  0
  1  8  1  0
  1  9  1  0
  2  3  2  0
  3  4  1  0
  4  5  2  0
  5  6  1  0
  5 10  1  0
  6  7  2  0
  6 24  1  0
  7 18  1  0
  7  2  1  0
 10 11  2  0
 11 12  1  0
 11 25  1  0
 12 13  2  0
 12 26  1  0
 13 14  1  0
 13 27  1  0
 14 15  2  0
 14 28  1  0
 15 16  1  0
 15 10  1  0
 16 17  1  0
 18 19  2  0
 19 20  1  0
 19 29  1  0
 20 21  2  0
 20 30  1  0
 21 22  1  0
 21 31  1  0
 22 23  2  0
 22 32  1  0
 23 18  1  0
 23 33  1  0
M  END
>  <minimizedAffinity>  (1) 
-9.09200

>  <mol_id>  (1) 
13433

>  <source_index>  (1) 
0

>  <layer>  (1) 
L1

>  <uniprot>  (1) 
P51532

>  <paff>  (1) 
7.1426999999999996

>  <smiles>  (1) 
Nc1nnc(cc1-c1ccccc1)-c1ccccc1O

$$$$
L1:P51532:20704
     RDKit          3D

 54 58  0  0  0  0  0  0  0  0999 V2000
  -10.1492   -1.9945   23.3806 C   0  0  0  0  0  0  0  0  0  0  0  0
   -9.0572   -1.3293   22.7996 C   0  0  0  0  0  0  0  0  0  0  0  0
   -7.7496   -1.6511   23.1442 C   0  0  0  0  0  0  0  0  0  0  0  0
   -7.5132   -2.6344   24.0400 N   0  0  0  0  0  0  0  0  0  0  0  0
   -8.5558   -3.3059   24.6233 N   0  0  0  0  0  0  0  0  0  0  0  0
   -9.8323   -3.0084   24.3009 C   0  0  0  0  0  0  0  0  0  0  0  0
  -10.8124   -3.8068   24.9093 N   0  0  0  0  0  0  0  0  0  0  0  0
  -10.3241   -4.5024   25.4670 H   0  0  0  0  0  0  0  0  0  0  0  0
  -11.3815   -4.2378   24.1875 H   0  0  0  0  0  0  0  0  0  0  0  0
  -13.7990   -0.0413   22.2525 N   0  0  0  0  0  0  0  0  0  0  0  0
  -13.2881   -1.1270   21.3769 C   0  0  2  0  0  0  0  0  0  0  0  0
  -14.0453   -2.3486   21.9327 C   0  0  0  0  0  0  0  0  0  0  0  0
  -14.3093   -2.0107   23.4071 C   0  0  0  0  0  0  0  0  0  0  0  0
  -13.6792   -0.6187   23.6119 C   0  0  1  0  0  0  0  0  0  0  0  0
  -12.1718   -0.7558   24.0026 C   0  0  0  0  0  0  0  0  0  0  0  0
  -11.4356   -1.5802   23.0099 N   0  0  0  0  0  0  0  0  0  0  0  0
  -11.7465   -1.2887   21.5879 C   0  0  0  0  0  0  0  0  0  0  0  0
  -12.6967    3.0937   20.6279 C   0  0  0  0  0  0  0  0  0  0  0  0
  -12.8825    1.7349   20.8568 C   0  0  0  0  0  0  0  0  0  0  0  0
  -13.5767    1.2997   21.9909 C   0  0  0  0  0  0  0  0  0  0  0  0
  -14.0946    2.3089   22.8102 C   0  0  0  0  0  0  0  0  0  0  0  0
  -13.8643    3.6450   22.5044 C   0  0  0  0  0  0  0  0  0  0  0  0
  -13.1638    4.0631   21.4356 N   0  0  0  0  0  0  0  0  0  0  0  0
  -11.3800    2.2983   18.8644 C   0  0  0  0  0  0  0  0  0  0  0  0
  -11.9801    3.4258   19.4934 O   0  0  0  0  0  0  0  0  0  0  0  0
   -6.5559   -1.0077   22.5606 C   0  0  0  0  0  0  0  0  0  0  0  0
   -6.7088    0.1581   21.7800 C   0  0  0  0  0  0  0  0  0  0  0  0
   -5.6135    0.8099   21.2055 C   0  0  0  0  0  0  0  0  0  0  0  0
   -4.3308    0.3080   21.3936 C   0  0  0  0  0  0  0  0  0  0  0  0
   -4.1441   -0.8465   22.1504 C   0  0  0  0  0  0  0  0  0  0  0  0
   -5.2456   -1.4960   22.7210 C   0  0  0  0  0  0  0  0  0  0  0  0
   -5.0253   -2.6452   23.4347 O   0  0  0  0  0  0  0  0  0  0  0  0
   -4.1103   -2.9367   23.2893 H   0  0  0  0  0  0  0  0  0  0  0  0
   -9.2289   -0.5872   22.1033 H   0  0  0  0  0  0  0  0  0  0  0  0
  -13.4331   -0.9674   20.3289 H   0  0  0  0  0  0  0  0  0  0  0  0
  -13.4474   -3.2321   21.8499 H   0  0  0  0  0  0  0  0  0  0  0  0
  -14.9500   -2.5414   21.3948 H   0  0  0  0  0  0  0  0  0  0  0  0
  -13.8462   -2.7319   24.0477 H   0  0  0  0  0  0  0  0  0  0  0  0
  -15.3530   -2.0199   23.6426 H   0  0  0  0  0  0  0  0  0  0  0  0
  -14.1377   -0.0382   24.3850 H   0  0  0  0  0  0  0  0  0  0  0  0
  -12.1007   -1.2200   24.9640 H   0  0  0  0  0  0  0  0  0  0  0  0
  -11.7357    0.2211   24.0238 H   0  0  0  0  0  0  0  0  0  0  0  0
  -11.3919   -2.0942   20.9793 H   0  0  0  0  0  0  0  0  0  0  0  0
  -11.2653   -0.3734   21.3128 H   0  0  0  0  0  0  0  0  0  0  0  0
  -12.5069    1.0448   20.1877 H   0  0  0  0  0  0  0  0  0  0  0  0
  -14.6493    2.0603   23.6442 H   0  0  0  0  0  0  0  0  0  0  0  0
  -14.2552    4.3606   23.1370 H   0  0  0  0  0  0  0  0  0  0  0  0
  -10.8421    2.6184   17.9966 H   0  0  0  0  0  0  0  0  0  0  0  0
  -12.1411    1.6036   18.5762 H   0  0  0  0  0  0  0  0  0  0  0  0
  -10.7058    1.8255   19.5477 H   0  0  0  0  0  0  0  0  0  0  0  0
   -7.6555    0.5401   21.6291 H   0  0  0  0  0  0  0  0  0  0  0  0
   -5.7570    1.6627   20.6424 H   0  0  0  0  0  0  0  0  0  0  0  0
   -3.5198    0.7890   20.9741 H   0  0  0  0  0  0  0  0  0  0  0  0
   -3.1936   -1.2233   22.2906 H   0  0  0  0  0  0  0  0  0  0  0  0
  1  2  2  0
  2  3  1  0
  2 34  1  0
  3 26  1  0
  3  4  2  0
  4  5  1  0
  5  6  2  0
  6  7  1  0
  6  1  1  0
  7  8  1  0
  7  9  1  0
 10 11  1  0
 11 12  1  0
 11 35  1  6
 12 13  1  0
 12 36  1  0
 12 37  1  0
 13 14  1  0
 13 38  1  0
 13 39  1  0
 14 15  1  0
 14 10  1  0
 14 40  1  1
 15 16  1  0
 15 41  1  0
 15 42  1  0
 16  1  1  0
 16 17  1  0
 17 11  1  0
 17 43  1  0
 17 44  1  0
 18 19  2  0
 19 20  1  0
 19 45  1  0
 20 10  1  0
 20 21  2  0
 21 22  1  0
 21 46  1  0
 22 23  2  0
 22 47  1  0
 23 18  1  0
 24 25  1  0
 24 48  1  0
 24 49  1  0
 24 50  1  0
 25 18  1  0
 26 27  2  0
 27 28  1  0
 27 51  1  0
 28 29  2  0
 28 52  1  0
 29 30  1  0
 29 53  1  0
 30 31  2  0
 30 54  1  0
 31 32  1  0
 31 26  1  0
 32 33  1  0
M  END
>  <minimizedAffinity>  (2) 
-9.03725

>  <mol_id>  (2) 
20704

>  <source_index>  (2) 
1

>  <layer>  (2) 
L1

>  <uniprot>  (2) 
P51532

>  <paff>  (2) 
8.4815000000000005

>  <smiles>  (2) 
COc1cc(N2C3CCC2CN(c2cc(-c4ccccc4O)nnc2N)C3)ccn1

$$$$
L1:P51532:31548
     RDKit          3D

 37 39  0  0  0  0  0  0  0  0999 V2000
  -11.0302   -3.8402   24.9912 N   0  0  0  0  0  0  0  0  0  0  0  0
  -10.0469   -3.0129   24.4211 C   0  0  0  0  0  0  0  0  0  0  0  0
   -8.7857   -3.4947   24.4240 N   0  0  0  0  0  0  0  0  0  0  0  0
   -7.7762   -2.7835   23.8460 N   0  0  0  0  0  0  0  0  0  0  0  0
   -8.0276   -1.5901   23.2641 C   0  0  0  0  0  0  0  0  0  0  0  0
   -9.3207   -1.0722   23.2518 C   0  0  0  0  0  0  0  0  0  0  0  0
  -10.3792   -1.7606   23.8601 C   0  0  0  0  0  0  0  0  0  0  0  0
  -11.8001   -3.9307   24.3344 H   0  0  0  0  0  0  0  0  0  0  0  0
  -10.5958   -4.7297   25.2181 H   0  0  0  0  0  0  0  0  0  0  0  0
   -6.8652   -0.9228   22.6428 C   0  0  0  0  0  0  0  0  0  0  0  0
   -7.0224    0.2531   21.8797 C   0  0  0  0  0  0  0  0  0  0  0  0
   -5.9333    0.8815   21.2643 C   0  0  0  0  0  0  0  0  0  0  0  0
   -4.6548    0.3507   21.3980 C   0  0  0  0  0  0  0  0  0  0  0  0
   -4.4635   -0.8001   22.1556 C   0  0  0  0  0  0  0  0  0  0  0  0
   -5.5515   -1.4186   22.7750 C   0  0  0  0  0  0  0  0  0  0  0  0
   -5.2480   -2.5382   23.5079 O   0  0  0  0  0  0  0  0  0  0  0  0
   -6.0251   -2.7575   24.0621 H   0  0  0  0  0  0  0  0  0  0  0  0
  -11.6833   -1.2464   23.8635 N   0  0  0  0  0  0  0  0  0  0  0  0
  -12.5632   -1.5965   22.7210 C   0  0  0  0  0  0  0  0  0  0  0  0
  -13.9939   -1.9521   23.1910 C   0  0  0  0  0  0  0  0  0  0  0  0
  -14.6612   -0.9148   23.9990 N   0  0  0  0  0  0  0  0  0  0  0  0
  -13.6975   -0.1820   24.8400 C   0  0  0  0  0  0  0  0  0  0  0  0
  -12.3731   -0.9268   25.1234 C   0  0  0  0  0  0  0  0  0  0  0  0
  -15.3665   -1.3605   24.5844 H   0  0  0  0  0  0  0  0  0  0  0  0
   -9.5020   -0.1683   22.7879 H   0  0  0  0  0  0  0  0  0  0  0  0
   -7.9644    0.6606   21.7723 H   0  0  0  0  0  0  0  0  0  0  0  0
   -6.0794    1.7400   20.7105 H   0  0  0  0  0  0  0  0  0  0  0  0
   -3.8524    0.8081   20.9376 H   0  0  0  0  0  0  0  0  0  0  0  0
   -3.5167   -1.1971   22.2600 H   0  0  0  0  0  0  0  0  0  0  0  0
  -12.1472   -2.4382   22.2077 H   0  0  0  0  0  0  0  0  0  0  0  0
  -12.6254   -0.7465   22.0741 H   0  0  0  0  0  0  0  0  0  0  0  0
  -13.9379   -2.8449   23.7780 H   0  0  0  0  0  0  0  0  0  0  0  0
  -14.5810   -2.0628   22.3033 H   0  0  0  0  0  0  0  0  0  0  0  0
  -14.1679    0.0259   25.7783 H   0  0  0  0  0  0  0  0  0  0  0  0
  -13.4325    0.6974   24.2911 H   0  0  0  0  0  0  0  0  0  0  0  0
  -12.5848   -1.8343   25.6493 H   0  0  0  0  0  0  0  0  0  0  0  0
  -11.7412   -0.2975   25.7146 H   0  0  0  0  0  0  0  0  0  0  0  0
  1  2  1  0
  1  8  1  0
  1  9  1  0
  2  3  2  0
  3  4  1  0
  4  5  2  0
  5  6  1  0
  5 10  1  0
  6  7  2  0
  6 25  1  0
  7 18  1  0
  7  2  1  0
 10 11  2  0
 11 12  1  0
 11 26  1  0
 12 13  2  0
 12 27  1  0
 13 14  1  0
 13 28  1  0
 14 15  2  0
 14 29  1  0
 15 16  1  0
 15 10  1  0
 16 17  1  0
 18 19  1  0
 19 20  1  0
 19 30  1  0
 19 31  1  0
 20 21  1  0
 20 32  1  0
 20 33  1  0
 21 22  1  0
 21 24  1  0
 22 23  1  0
 22 34  1  0
 22 35  1  0
 23 18  1  0
 23 36  1  0
 23 37  1  0
M  END
>  <minimizedAffinity>  (3) 
-8.36004

>  <mol_id>  (3) 
31548

>  <source_index>  (3) 
2

>  <layer>  (3) 
L1

>  <uniprot>  (3) 
P51532

>  <paff>  (3) 
6.5934999999999997

>  <smiles>  (3) 
Nc1nnc(cc1N1CCNCC1)-c1ccccc1O

$$$$
L1:P51532:35235
     RDKit          3D

 61 65  0  0  0  0  0  0  0  0999 V2000
  -13.3600    0.4123   22.4375 N   0  0  0  0  0  0  0  0  0  0  0  0
  -13.4478   -0.2746   23.7565 C   0  0  1  0  0  0  0  0  0  0  0  0
  -14.3365   -1.4944   23.4447 C   0  0  0  0  0  0  0  0  0  0  0  0
  -14.1010   -1.7840   21.9537 C   0  0  0  0  0  0  0  0  0  0  0  0
  -13.1005   -0.7069   21.5000 C   0  0  2  0  0  0  0  0  0  0  0  0
  -11.6278   -1.1818   21.7354 C   0  0  0  0  0  0  0  0  0  0  0  0
  -11.4314   -1.6525   23.1401 N   0  0  0  0  0  0  0  0  0  0  0  0
  -12.0041   -0.7180   24.1552 C   0  0  0  0  0  0  0  0  0  0  0  0
  -10.0838   -2.0054   23.4125 C   0  0  0  0  0  0  0  0  0  0  0  0
   -8.9960   -1.3288   22.8523 C   0  0  0  0  0  0  0  0  0  0  0  0
   -7.7005   -1.7330   23.1544 C   0  0  0  0  0  0  0  0  0  0  0  0
   -7.4922   -2.7849   23.9806 N   0  0  0  0  0  0  0  0  0  0  0  0
   -8.5468   -3.4646   24.5383 N   0  0  0  0  0  0  0  0  0  0  0  0
   -9.8086   -3.0888   24.2674 C   0  0  0  0  0  0  0  0  0  0  0  0
  -10.8930   -3.7905   24.8520 N   0  0  0  0  0  0  0  0  0  0  0  0
  -11.4901   -4.0739   24.0784 H   0  0  0  0  0  0  0  0  0  0  0  0
  -11.4402   -3.0929   25.3514 H   0  0  0  0  0  0  0  0  0  0  0  0
   -6.4866   -1.1028   22.5962 C   0  0  0  0  0  0  0  0  0  0  0  0
   -6.5699    0.0548   21.7941 C   0  0  0  0  0  0  0  0  0  0  0  0
   -5.4305    0.6475   21.2368 C   0  0  0  0  0  0  0  0  0  0  0  0
   -4.1744    0.0987   21.4690 C   0  0  0  0  0  0  0  0  0  0  0  0
   -4.0562   -1.0351   22.2658 C   0  0  0  0  0  0  0  0  0  0  0  0
   -5.1942   -1.6186   22.8266 C   0  0  0  0  0  0  0  0  0  0  0  0
   -4.9600   -2.7259   23.6021 O   0  0  0  0  0  0  0  0  0  0  0  0
   -5.7747   -2.9213   24.1102 H   0  0  0  0  0  0  0  0  0  0  0  0
  -15.1453    3.1459   20.7286 C   0  0  0  0  0  0  0  0  0  0  0  0
  -14.2033    2.1639   21.0025 C   0  0  0  0  0  0  0  0  0  0  0  0
  -14.2947    1.4107   22.1793 C   0  0  0  0  0  0  0  0  0  0  0  0
  -15.3851    1.6865   23.0062 C   0  0  0  0  0  0  0  0  0  0  0  0
  -16.2820    2.6880   22.6529 C   0  0  0  0  0  0  0  0  0  0  0  0
  -16.1859    3.4299   21.5336 N   0  0  0  0  0  0  0  0  0  0  0  0
  -14.9701    3.8413   19.5490 O   0  0  0  0  0  0  0  0  0  0  0  0
  -14.1034    4.9781   19.6472 C   0  0  0  0  0  0  0  0  0  0  0  0
  -12.8673    4.8290   18.7589 C   0  0  0  0  0  0  0  0  0  0  0  0
  -11.9734    5.4453   20.8551 C   0  0  0  0  0  0  0  0  0  0  0  0
  -11.6875    4.9093   19.5702 O   0  0  0  0  0  0  0  0  0  0  0  0
  -13.8391    0.3167   24.5578 H   0  0  0  0  0  0  0  0  0  0  0  0
  -15.3661   -1.2663   23.6259 H   0  0  0  0  0  0  0  0  0  0  0  0
  -14.0971   -2.3355   24.0613 H   0  0  0  0  0  0  0  0  0  0  0  0
  -15.0160   -1.7043   21.4047 H   0  0  0  0  0  0  0  0  0  0  0  0
  -13.7327   -2.7747   21.7869 H   0  0  0  0  0  0  0  0  0  0  0  0
  -13.2118   -0.4675   20.4631 H   0  0  0  0  0  0  0  0  0  0  0  0
  -10.9628   -0.3656   21.5443 H   0  0  0  0  0  0  0  0  0  0  0  0
  -11.4239   -1.9967   21.0727 H   0  0  0  0  0  0  0  0  0  0  0  0
  -11.3792    0.1477   24.2258 H   0  0  0  0  0  0  0  0  0  0  0  0
  -12.0509   -1.2244   25.0966 H   0  0  0  0  0  0  0  0  0  0  0  0
   -9.1543   -0.5316   22.2163 H   0  0  0  0  0  0  0  0  0  0  0  0
   -7.4947    0.4756   21.6135 H   0  0  0  0  0  0  0  0  0  0  0  0
   -5.5232    1.4932   20.6527 H   0  0  0  0  0  0  0  0  0  0  0  0
   -3.3345    0.5302   21.0525 H   0  0  0  0  0  0  0  0  0  0  0  0
   -3.1261   -1.4458   22.4428 H   0  0  0  0  0  0  0  0  0  0  0  0
  -13.4339    1.9886   20.3374 H   0  0  0  0  0  0  0  0  0  0  0  0
  -15.5247    1.1491   23.8761 H   0  0  0  0  0  0  0  0  0  0  0  0
  -17.0724    2.8748   23.2896 H   0  0  0  0  0  0  0  0  0  0  0  0
  -14.6428    5.8518   19.3461 H   0  0  0  0  0  0  0  0  0  0  0  0
  -13.7753    5.0592   20.6624 H   0  0  0  0  0  0  0  0  0  0  0  0
  -12.8960    3.8814   18.2628 H   0  0  0  0  0  0  0  0  0  0  0  0
  -12.8541    5.6114   18.0291 H   0  0  0  0  0  0  0  0  0  0  0  0
  -11.0728    5.4904   21.4312 H   0  0  0  0  0  0  0  0  0  0  0  0
  -12.6841    4.8191   21.3527 H   0  0  0  0  0  0  0  0  0  0  0  0
  -12.3785    6.4299   20.7487 H   0  0  0  0  0  0  0  0  0  0  0  0
  1  2  1  0
  2  3  1  0
  2 37  1  1
  3  4  1  0
  3 38  1  0
  3 39  1  0
  4  5  1  0
  4 40  1  0
  4 41  1  0
  5  6  1  0
  5  1  1  0
  5 42  1  6
  6  7  1  0
  6 43  1  0
  6 44  1  0
  7  9  1  0
  7  8  1  0
  8  2  1  0
  8 45  1  0
  8 46  1  0
  9 10  2  0
 10 11  1  0
 10 47  1  0
 11 18  1  0
 11 12  2  0
 12 13  1  0
 13 14  2  0
 14 15  1  0
 14  9  1  0
 15 16  1  0
 15 17  1  0
 18 19  2  0
 19 20  1  0
 19 48  1  0
 20 21  2  0
 20 49  1  0
 21 22  1  0
 21 50  1  0
 22 23  2  0
 22 51  1  0
 23 24  1  0
 23 18  1  0
 24 25  1  0
 26 27  2  0
 27 28  1  0
 27 52  1  0
 28  1  1  0
 28 29  2  0
 29 30  1  0
 29 53  1  0
 30 31  2  0
 30 54  1  0
 31 26  1  0
 32 26  1  0
 33 32  1  0
 33 55  1  0
 33 56  1  0
 34 33  1  0
 34 57  1  0
 34 58  1  0
 35 36  1  0
 35 59  1  0
 35 60  1  0
 35 61  1  0
 36 34  1  0
M  END
>  <minimizedAffinity>  (4) 
-7.87434

>  <mol_id>  (4) 
35235

>  <source_index>  (4) 
3

>  <layer>  (4) 
L1

>  <uniprot>  (4) 
P51532

>  <paff>  (4) 
8.5527999999999995

>  <smiles>  (4) 
COCCOc1cc(N2C3CCC2CN(c2cc(-c4ccccc4O)nnc2N)C3)ccn1

$$$$
L1:P51532:35615
     RDKit          3D

 45 47  0  0  0  0  0  0  0  0999 V2000
  -11.1613    0.9561   20.6091 N   0  0  0  0  0  0  0  0  0  0  0  0
  -11.8238   -0.2358   20.4177 C   0  0  0  0  0  0  0  0  0  0  0  0
  -12.7177   -0.4715   19.6076 O   0  0  0  0  0  0  0  0  0  0  0  0
  -10.4312    1.0217   21.3057 H   0  0  0  0  0  0  0  0  0  0  0  0
  -11.3110    3.5483   18.2397 C   0  0  0  0  0  0  0  0  0  0  0  0
  -11.9185    4.3547   19.1837 C   0  0  0  0  0  0  0  0  0  0  0  0
  -12.1077    3.4933   20.6543 S   0  0  0  0  0  0  0  0  0  0  0  0
  -11.3682    2.1369   19.9455 C   0  0  0  0  0  0  0  0  0  0  0  0
  -10.9894    2.2760   18.6978 N   0  0  0  0  0  0  0  0  0  0  0  0
  -10.3703    4.8190   14.2537 C   0  0  0  0  0  0  0  0  0  0  0  0
  -10.5777    3.4666   14.5199 C   0  0  0  0  0  0  0  0  0  0  0  0
  -10.8854    3.0400   15.8203 C   0  0  0  0  0  0  0  0  0  0  0  0
  -10.9931    3.9588   16.8738 C   0  0  0  0  0  0  0  0  0  0  0  0
  -10.7749    5.3143   16.5955 C   0  0  0  0  0  0  0  0  0  0  0  0
  -10.4695    5.7383   15.2982 C   0  0  0  0  0  0  0  0  0  0  0  0
   -9.5028    6.6695   13.0396 C   0  0  0  0  0  0  0  0  0  0  0  0
  -10.0665    5.3641   13.0376 O   0  0  0  0  0  0  0  0  0  0  0  0
  -11.3029   -1.3325   21.3499 C   0  0  0  0  0  0  0  0  0  0  0  0
   -9.8585   -1.2770   21.4332 N   0  0  0  0  0  0  0  0  0  0  0  0
   -9.1947   -1.8052   22.5146 C   0  0  0  0  0  0  0  0  0  0  0  0
   -9.7794   -2.3709   23.4324 O   0  0  0  0  0  0  0  0  0  0  0  0
   -9.3912   -0.6626   20.7745 H   0  0  0  0  0  0  0  0  0  0  0  0
   -7.7147   -1.6333   22.5459 C   0  0  0  0  0  0  0  0  0  0  0  0
   -7.1734   -0.4441   22.0452 C   0  0  0  0  0  0  0  0  0  0  0  0
   -5.7900   -0.2376   22.0577 C   0  0  0  0  0  0  0  0  0  0  0  0
   -4.9258   -1.2249   22.5358 C   0  0  0  0  0  0  0  0  0  0  0  0
   -3.5568   -0.9653   22.6550 N   0  0  0  0  0  0  0  0  0  0  0  0
   -5.4753   -2.3782   23.1019 C   0  0  0  0  0  0  0  0  0  0  0  0
   -6.8587   -2.5942   23.0947 C   0  0  0  0  0  0  0  0  0  0  0  0
   -3.2038   -0.2939   21.9801 H   0  0  0  0  0  0  0  0  0  0  0  0
   -2.9802   -1.7990   22.7069 H   0  0  0  0  0  0  0  0  0  0  0  0
  -12.2144    5.3308   19.0267 H   0  0  0  0  0  0  0  0  0  0  0  0
  -10.5045    2.7759   13.7567 H   0  0  0  0  0  0  0  0  0  0  0  0
  -11.0346    2.0355   16.0042 H   0  0  0  0  0  0  0  0  0  0  0  0
  -10.8403    6.0081   17.3567 H   0  0  0  0  0  0  0  0  0  0  0  0
  -10.3160    6.7416   15.1117 H   0  0  0  0  0  0  0  0  0  0  0  0
   -9.3131    6.9776   12.0326 H   0  0  0  0  0  0  0  0  0  0  0  0
   -8.5846    6.6607   13.5889 H   0  0  0  0  0  0  0  0  0  0  0  0
  -10.1865    7.3525   13.4988 H   0  0  0  0  0  0  0  0  0  0  0  0
  -11.5981   -2.2883   20.9700 H   0  0  0  0  0  0  0  0  0  0  0  0
  -11.7138   -1.1834   22.3265 H   0  0  0  0  0  0  0  0  0  0  0  0
   -7.7979    0.2842   21.6648 H   0  0  0  0  0  0  0  0  0  0  0  0
   -5.4038    0.6540   21.7099 H   0  0  0  0  0  0  0  0  0  0  0  0
   -4.8529   -3.0805   23.5313 H   0  0  0  0  0  0  0  0  0  0  0  0
   -7.2471   -3.4627   23.4945 H   0  0  0  0  0  0  0  0  0  0  0  0
  1  2  1  0
  1  4  1  0
  2  3  2  0
  2 18  1  0
  5  6  2  0
  6  7  1  0
  6 32  1  0
  7  8  1  0
  8  1  1  0
  8  9  2  0
  9  5  1  0
 10 11  2  0
 11 12  1  0
 11 33  1  0
 12 13  2  0
 12 34  1  0
 13  5  1  0
 13 14  1  0
 14 15  2  0
 14 35  1  0
 15 10  1  0
 15 36  1  0
 16 17  1  0
 16 37  1  0
 16 38  1  0
 16 39  1  0
 17 10  1  0
 18 19  1  0
 18 40  1  0
 18 41  1  0
 19 20  1  0
 19 22  1  0
 20 21  2  0
 20 23  1  0
 23 24  2  0
 24 25  1  0
 24 42  1  0
 25 26  2  0
 25 43  1  0
 26 27  1  0
 26 28  1  0
 27 30  1  0
 27 31  1  0
 28 29  2  0
 28 44  1  0
 29 23  1  0
 29 45  1  0
M  END
>  <minimizedAffinity>  (5) 
-7.32863

>  <mol_id>  (5) 
35615

>  <source_index>  (5) 
4

>  <layer>  (5) 
L1

>  <uniprot>  (5) 
P51532

>  <paff>  (5) 
6.6904000000000003

>  <smiles>  (5) 
COc1ccc(-c2csc(NC(=O)CNC(=O)c3ccc(N)cc3)n2)cc1

$$$$
L1:P51532:57296
     RDKit          3D

 52 55  0  0  0  0  0  0  0  0999 V2000
  -11.9651    1.0084   20.9367 C   0  0  2  0  0  0  0  0  0  0  0  0
  -10.6936    0.4174   21.3322 N   0  0  0  0  0  0  0  0  0  0  0  0
  -10.5960   -0.5494   22.1732 C   0  0  0  0  0  0  0  0  0  0  0  0
  -11.7516   -1.1716   22.8851 C   0  0  0  0  0  0  0  0  0  0  0  0
  -11.5860   -1.4418   24.2571 C   0  0  0  0  0  0  0  0  0  0  0  0
  -12.5577   -2.1341   24.9779 C   0  0  0  0  0  0  0  0  0  0  0  0
  -13.7276   -2.5404   24.3306 C   0  0  0  0  0  0  0  0  0  0  0  0
  -13.9259   -2.2453   22.9749 C   0  0  0  0  0  0  0  0  0  0  0  0
  -12.9463   -1.5536   22.2416 C   0  0  0  0  0  0  0  0  0  0  0  0
  -13.2294   -1.1851   20.9007 N   0  0  0  0  0  0  0  0  0  0  0  0
  -14.0209   -1.8268   19.9546 C   0  0  0  0  0  0  0  0  0  0  0  0
  -14.5155   -3.2268   20.0193 C   0  0  0  0  0  0  0  0  0  0  0  0
  -14.1967   -1.0291   18.9222 N   0  0  0  0  0  0  0  0  0  0  0  0
  -13.4811    0.1151   19.1366 N   0  0  0  0  0  0  0  0  0  0  0  0
  -12.8479   -0.0042   20.2882 C   0  0  0  0  0  0  0  0  0  0  0  0
   -9.2094   -1.0643   22.4349 C   0  0  0  0  0  0  0  0  0  0  0  0
   -8.1373   -0.1674   22.3486 C   0  0  0  0  0  0  0  0  0  0  0  0
   -6.8335   -0.6007   22.5779 C   0  0  0  0  0  0  0  0  0  0  0  0
   -6.5970   -1.9352   22.8767 C   0  0  0  0  0  0  0  0  0  0  0  0
   -4.9926   -2.4738   23.1549 Cl  0  0  0  0  0  0  0  0  0  0  0  0
   -7.6519   -2.8443   22.9416 C   0  0  0  0  0  0  0  0  0  0  0  0
   -8.9589   -2.4109   22.7147 C   0  0  0  0  0  0  0  0  0  0  0  0
  -12.2443   -2.3453   26.2917 O   0  0  0  0  0  0  0  0  0  0  0  0
  -13.2070   -3.0255   27.0897 C   0  0  0  0  0  0  0  0  0  0  0  0
  -11.6796    2.2113   20.0274 C   0  0  0  0  0  0  0  0  0  0  0  0
  -11.7355    4.6263   20.4448 N   0  0  0  0  0  0  0  0  0  0  0  0
  -12.4955    3.4496   20.3738 C   0  0  0  0  0  0  0  0  0  0  0  0
  -13.7089    3.4196   20.5499 O   0  0  0  0  0  0  0  0  0  0  0  0
  -10.7498    4.5112   20.6728 H   0  0  0  0  0  0  0  0  0  0  0  0
  -12.2363    6.0577   22.3805 C   0  0  0  0  0  0  0  0  0  0  0  0
  -12.3325    5.8711   20.8836 C   0  0  0  0  0  0  0  0  0  0  0  0
  -12.4979    1.3514   21.7989 H   0  0  0  0  0  0  0  0  0  0  0  0
  -10.7304   -1.1217   24.7373 H   0  0  0  0  0  0  0  0  0  0  0  0
  -14.4494   -3.0605   24.8536 H   0  0  0  0  0  0  0  0  0  0  0  0
  -14.7996   -2.5387   22.5105 H   0  0  0  0  0  0  0  0  0  0  0  0
  -14.2443   -3.6577   20.9604 H   0  0  0  0  0  0  0  0  0  0  0  0
  -14.0777   -3.7967   19.2266 H   0  0  0  0  0  0  0  0  0  0  0  0
  -15.5806   -3.2338   19.9175 H   0  0  0  0  0  0  0  0  0  0  0  0
   -8.3145    0.8217   22.1134 H   0  0  0  0  0  0  0  0  0  0  0  0
   -6.0480    0.0667   22.5259 H   0  0  0  0  0  0  0  0  0  0  0  0
   -7.4666   -3.8364   23.1571 H   0  0  0  0  0  0  0  0  0  0  0  0
   -9.7401   -3.0841   22.7534 H   0  0  0  0  0  0  0  0  0  0  0  0
  -12.8371   -3.1232   28.0890 H   0  0  0  0  0  0  0  0  0  0  0  0
  -13.3877   -3.9972   26.6797 H   0  0  0  0  0  0  0  0  0  0  0  0
  -14.1199   -2.4675   27.1003 H   0  0  0  0  0  0  0  0  0  0  0  0
  -10.6415    2.4573   20.1091 H   0  0  0  0  0  0  0  0  0  0  0  0
  -11.9549    1.9240   19.0341 H   0  0  0  0  0  0  0  0  0  0  0  0
  -12.6894    6.9877   22.6538 H   0  0  0  0  0  0  0  0  0  0  0  0
  -11.2073    6.0624   22.6739 H   0  0  0  0  0  0  0  0  0  0  0  0
  -12.7441    5.2551   22.8733 H   0  0  0  0  0  0  0  0  0  0  0  0
  -11.8280    6.6829   20.4026 H   0  0  0  0  0  0  0  0  0  0  0  0
  -13.3700    5.8461   20.6231 H   0  0  0  0  0  0  0  0  0  0  0  0
  1  2  1  0
  1 32  1  1
  2  3  2  0
  3 16  1  0
  3  4  1  0
  4  5  2  0
  5  6  1  0
  5 33  1  0
  6 23  1  0
  6  7  2  0
  7  8  1  0
  7 34  1  0
  8  9  2  0
  8 35  1  0
  9 10  1  0
  9  4  1  0
 10 11  1  0
 11 12  1  0
 11 13  2  0
 12 36  1  0
 12 37  1  0
 12 38  1  0
 13 14  1  0
 14 15  2  0
 15  1  1  0
 15 10  1  0
 16 17  2  0
 17 18  1  0
 17 39  1  0
 18 19  2  0
 18 40  1  0
 19 20  1  0
 19 21  1  0
 21 22  2  0
 21 41  1  0
 22 16  1  0
 22 42  1  0
 23 24  1  0
 24 43  1  0
 24 44  1  0
 24 45  1  0
 25  1  1  0
 25 46  1  0
 25 47  1  0
 26 27  1  0
 26 29  1  0
 27 28  2  0
 27 25  1  0
 30 31  1  0
 30 48  1  0
 30 49  1  0
 30 50  1  0
 31 26  1  0
 31 51  1  0
 31 52  1  0
M  END
>  <minimizedAffinity>  (6) 
-6.62717

>  <mol_id>  (6) 
57296

>  <source_index>  (6) 
5

>  <layer>  (6) 
L1

>  <uniprot>  (6) 
P51532

>  <paff>  (6) 
7.5228999999999999

>  <smiles>  (6) 
CCNC(=O)C[C@@H]1N=C(c2ccc(Cl)cc2)c2cc(OC)ccc2-n2c(C)nnc21

$$$$
L1:P51532:78268
     RDKit          3D

 33 35  0  0  0  0  0  0  0  0999 V2000
  -10.2296   -1.7412   23.9239 C   0  0  0  0  0  0  0  0  0  0  0  0
   -9.1898   -1.0175   23.3247 C   0  0  0  0  0  0  0  0  0  0  0  0
   -7.9214   -1.5748   23.2370 C   0  0  0  0  0  0  0  0  0  0  0  0
   -7.7026   -2.8200   23.7156 N   0  0  0  0  0  0  0  0  0  0  0  0
   -8.7177   -3.5413   24.2990 N   0  0  0  0  0  0  0  0  0  0  0  0
   -9.9582   -3.0263   24.3977 C   0  0  0  0  0  0  0  0  0  0  0  0
  -10.9240   -3.8302   25.0122 N   0  0  0  0  0  0  0  0  0  0  0  0
  -11.7701   -3.8869   24.4548 H   0  0  0  0  0  0  0  0  0  0  0  0
  -10.5143   -4.7420   25.1963 H   0  0  0  0  0  0  0  0  0  0  0  0
   -6.7593   -0.9053   22.6179 C   0  0  0  0  0  0  0  0  0  0  0  0
   -6.9181    0.2685   21.8513 C   0  0  0  0  0  0  0  0  0  0  0  0
   -5.8297    0.8998   21.2374 C   0  0  0  0  0  0  0  0  0  0  0  0
   -4.5496    0.3748   21.3756 C   0  0  0  0  0  0  0  0  0  0  0  0
   -4.3561   -0.7738   22.1357 C   0  0  0  0  0  0  0  0  0  0  0  0
   -5.4435   -1.3956   22.7533 C   0  0  0  0  0  0  0  0  0  0  0  0
   -5.1351   -2.5135   23.4869 O   0  0  0  0  0  0  0  0  0  0  0  0
   -5.9128   -2.7412   24.0361 H   0  0  0  0  0  0  0  0  0  0  0  0
  -14.5076    0.4494   22.6928 C   0  0  0  0  0  0  0  0  0  0  0  0
  -13.4345   -0.1733   23.4290 N   0  0  0  0  0  0  0  0  0  0  0  0
  -12.2446   -0.6163   22.9305 C   0  0  0  0  0  0  0  0  0  0  0  0
  -11.5440   -1.1298   24.0015 C   0  0  0  0  0  0  0  0  0  0  0  0
  -12.4183   -0.9610   25.0985 C   0  0  0  0  0  0  0  0  0  0  0  0
  -13.5659   -0.3717   24.7536 N   0  0  0  0  0  0  0  0  0  0  0  0
   -9.3666   -0.0725   22.9495 H   0  0  0  0  0  0  0  0  0  0  0  0
   -7.8613    0.6723   21.7402 H   0  0  0  0  0  0  0  0  0  0  0  0
   -5.9778    1.7564   20.6813 H   0  0  0  0  0  0  0  0  0  0  0  0
   -3.7477    0.8347   20.9168 H   0  0  0  0  0  0  0  0  0  0  0  0
   -3.4080   -1.1670   22.2434 H   0  0  0  0  0  0  0  0  0  0  0  0
  -14.2342    0.5274   21.6613 H   0  0  0  0  0  0  0  0  0  0  0  0
  -14.6912    1.4267   23.0880 H   0  0  0  0  0  0  0  0  0  0  0  0
  -15.3934   -0.1440   22.7831 H   0  0  0  0  0  0  0  0  0  0  0  0
  -11.9313   -0.5753   21.9481 H   0  0  0  0  0  0  0  0  0  0  0  0
  -12.1946   -1.2602   26.0605 H   0  0  0  0  0  0  0  0  0  0  0  0
  1  2  2  0
  2  3  1  0
  2 24  1  0
  3 10  1  0
  3  4  2  0
  4  5  1  0
  5  6  2  0
  6  7  1  0
  6  1  1  0
  7  8  1  0
  7  9  1  0
 10 11  2  0
 11 12  1  0
 11 25  1  0
 12 13  2  0
 12 26  1  0
 13 14  1  0
 13 27  1  0
 14 15  2  0
 14 28  1  0
 15 16  1  0
 15 10  1  0
 16 17  1  0
 18 19  1  0
 18 29  1  0
 18 30  1  0
 18 31  1  0
 19 20  1  0
 20 21  2  0
 20 32  1  0
 21  1  1  0
 21 22  1  0
 22 23  2  0
 22 33  1  0
 23 19  1  0
M  END
>  <minimizedAffinity>  (7) 
-8.73620

>  <mol_id>  (7) 
78268

>  <source_index>  (7) 
6

>  <layer>  (7) 
L1

>  <uniprot>  (7) 
P51532

>  <paff>  (7) 
7.8928000000000003

>  <smiles>  (7) 
Cn1cc(-c2cc(-c3ccccc3O)nnc2N)cn1

$$$$
L1:P51532:93381
     RDKit          3D

 51 53  0  0  0  0  0  0  0  0999 V2000
  -11.3813   -1.7990   23.7200 C   0  0  2  0  0  0  0  0  0  0  0  0
   -9.9849   -1.4695   23.4608 N   0  0  0  0  0  0  0  0  0  0  0  0
   -8.9899   -2.4152   23.5559 C   0  0  0  0  0  0  0  0  0  0  0  0
   -9.2090   -3.5724   23.8962 O   0  0  0  0  0  0  0  0  0  0  0  0
   -9.8147   -0.5927   22.9764 H   0  0  0  0  0  0  0  0  0  0  0  0
   -7.6145   -1.9792   23.1853 C   0  0  0  0  0  0  0  0  0  0  0  0
   -7.4602   -0.7593   22.5185 C   0  0  0  0  0  0  0  0  0  0  0  0
   -6.1870   -0.3130   22.1498 C   0  0  0  0  0  0  0  0  0  0  0  0
   -5.0497   -1.0575   22.4698 C   0  0  0  0  0  0  0  0  0  0  0  0
   -3.7944   -0.6655   21.9948 N   0  0  0  0  0  0  0  0  0  0  0  0
   -5.2158   -2.3089   23.0689 C   0  0  0  0  0  0  0  0  0  0  0  0
   -6.4857   -2.7650   23.4417 C   0  0  0  0  0  0  0  0  0  0  0  0
   -3.6982    0.3360   21.8579 H   0  0  0  0  0  0  0  0  0  0  0  0
   -3.0137   -1.0609   22.5091 H   0  0  0  0  0  0  0  0  0  0  0  0
  -12.2583   -1.1141   22.6486 C   0  0  0  0  0  0  0  0  0  0  0  0
  -13.3176   -1.6296   22.2956 O   0  0  0  0  0  0  0  0  0  0  0  0
  -11.7006    0.0497   22.1697 N   0  0  0  0  0  0  0  0  0  0  0  0
  -10.8565    0.4172   22.5885 H   0  0  0  0  0  0  0  0  0  0  0  0
  -12.1893    0.8576   21.1770 C   0  0  0  0  0  0  0  0  0  0  0  0
  -11.6122    0.8886   20.0003 N   0  0  0  0  0  0  0  0  0  0  0  0
  -12.2801    1.7763   19.1638 C   0  0  0  0  0  0  0  0  0  0  0  0
  -13.3799    2.3817   19.7427 C   0  0  0  0  0  0  0  0  0  0  0  0
  -13.5614    1.8429   21.3604 S   0  0  0  0  0  0  0  0  0  0  0  0
  -11.8313    1.9993   17.7902 C   0  0  0  0  0  0  0  0  0  0  0  0
  -12.5699    1.4546   16.7283 C   0  0  0  0  0  0  0  0  0  0  0  0
  -12.1719    1.6477   15.4026 C   0  0  0  0  0  0  0  0  0  0  0  0
  -11.0259    2.3858   15.1204 C   0  0  0  0  0  0  0  0  0  0  0  0
  -10.2768    2.9276   16.1622 C   0  0  0  0  0  0  0  0  0  0  0  0
  -10.6751    2.7349   17.4892 C   0  0  0  0  0  0  0  0  0  0  0  0
  -11.8193   -1.4088   25.1418 C   0  0  0  0  0  0  0  0  0  0  0  0
  -12.8057   -2.4057   25.7551 C   0  0  0  0  0  0  0  0  0  0  0  0
  -13.9516    0.1219   25.8463 C   0  0  0  0  0  0  0  0  0  0  0  0
  -14.3646   -1.5949   26.2464 S   0  0  0  0  0  0  0  0  0  0  0  0
  -11.5023   -2.8604   23.6590 H   0  0  0  0  0  0  0  0  0  0  0  0
   -8.2894   -0.1861   22.2976 H   0  0  0  0  0  0  0  0  0  0  0  0
   -6.0869    0.5762   21.6357 H   0  0  0  0  0  0  0  0  0  0  0  0
   -4.3908   -2.9052   23.2389 H   0  0  0  0  0  0  0  0  0  0  0  0
   -6.5893   -3.6810   23.9057 H   0  0  0  0  0  0  0  0  0  0  0  0
  -14.0002    3.0582   19.2708 H   0  0  0  0  0  0  0  0  0  0  0  0
  -13.4190    0.9036   16.9293 H   0  0  0  0  0  0  0  0  0  0  0  0
  -12.7276    1.2431   14.6329 H   0  0  0  0  0  0  0  0  0  0  0  0
  -10.7321    2.5312   14.1418 H   0  0  0  0  0  0  0  0  0  0  0  0
   -9.4255    3.4727   15.9545 H   0  0  0  0  0  0  0  0  0  0  0  0
  -10.1126    3.1380   18.2548 H   0  0  0  0  0  0  0  0  0  0  0  0
  -10.9511   -1.3599   25.7653 H   0  0  0  0  0  0  0  0  0  0  0  0
  -12.3163   -0.4635   25.0769 H   0  0  0  0  0  0  0  0  0  0  0  0
  -13.0225   -3.1669   25.0351 H   0  0  0  0  0  0  0  0  0  0  0  0
  -12.3563   -2.8243   26.6313 H   0  0  0  0  0  0  0  0  0  0  0  0
  -14.7834    0.7528   26.0808 H   0  0  0  0  0  0  0  0  0  0  0  0
  -13.7269    0.2009   24.8031 H   0  0  0  0  0  0  0  0  0  0  0  0
  -13.1004    0.4266   26.4186 H   0  0  0  0  0  0  0  0  0  0  0  0
  1  2  1  0
  1 15  1  0
  1 34  1  1
  2  3  1  0
  2  5  1  0
  3  4  2  0
  3  6  1  0
  6  7  2  0
  7  8  1  0
  7 35  1  0
  8  9  2  0
  8 36  1  0
  9 10  1  0
  9 11  1  0
 10 13  1  0
 10 14  1  0
 11 12  2  0
 11 37  1  0
 12  6  1  0
 12 38  1  0
 15 16  2  0
 15 17  1  0
 17 19  1  0
 17 18  1  0
 19 20  2  0
 20 21  1  0
 21 24  1  0
 21 22  2  0
 22 23  1  0
 22 39  1  0
 23 19  1  0
 24 25  2  0
 25 26  1  0
 25 40  1  0
 26 27  2  0
 26 41  1  0
 27 28  1  0
 27 42  1  0
 28 29  2  0
 28 43  1  0
 29 24  1  0
 29 44  1  0
 30  1  1  0
 30 45  1  0
 30 46  1  0
 31 30  1  0
 31 47  1  0
 31 48  1  0
 32 33  1  0
 32 49  1  0
 32 50  1  0
 32 51  1  0
 33 31  1  0
M  END
>  <minimizedAffinity>  (8) 
-6.96350

>  <mol_id>  (8) 
93381

>  <source_index>  (8) 
7

>  <layer>  (8) 
L1

>  <uniprot>  (8) 
P51532

>  <paff>  (8) 
6.2789999999999999

>  <smiles>  (8) 
CSCC[C@H](NC(=O)c1ccc(N)cc1)C(=O)Nc1nc(-c2ccccc2)cs1

$$$$
L1:P51532:130236
     RDKit          3D

 45 47  0  0  0  0  0  0  0  0999 V2000
  -10.8914    1.7613   20.8192 N   0  0  0  0  0  0  0  0  0  0  0  0
  -11.3090    0.4599   20.9806 C   0  0  0  0  0  0  0  0  0  0  0  0
  -12.0330   -0.1866   20.2274 O   0  0  0  0  0  0  0  0  0  0  0  0
  -10.2497    2.1553   21.5063 H   0  0  0  0  0  0  0  0  0  0  0  0
  -11.3190    3.4693   17.7707 C   0  0  0  0  0  0  0  0  0  0  0  0
  -12.0858    4.4113   18.4298 C   0  0  0  0  0  0  0  0  0  0  0  0
  -12.1955    4.0171   20.0948 S   0  0  0  0  0  0  0  0  0  0  0  0
  -11.2411    2.6347   19.8245 C   0  0  0  0  0  0  0  0  0  0  0  0
  -10.8454    2.4497   18.5877 N   0  0  0  0  0  0  0  0  0  0  0  0
  -10.4273    2.3648   14.2503 C   0  0  0  0  0  0  0  0  0  0  0  0
  -10.4403    3.5898   13.5849 C   0  0  0  0  0  0  0  0  0  0  0  0
  -10.7422    4.7586   14.2844 C   0  0  0  0  0  0  0  0  0  0  0  0
  -11.0285    4.7058   15.6499 C   0  0  0  0  0  0  0  0  0  0  0  0
  -11.0153    3.4857   16.3402 C   0  0  0  0  0  0  0  0  0  0  0  0
  -10.7155    2.3195   15.6205 C   0  0  0  0  0  0  0  0  0  0  0  0
  -10.9273    0.7747   12.5538 C   0  0  0  0  0  0  0  0  0  0  0  0
  -10.1533    1.1476   13.6871 O   0  0  0  0  0  0  0  0  0  0  0  0
  -10.7036   -0.2105   22.2214 C   0  0  0  0  0  0  0  0  0  0  0  0
   -9.2479   -0.2273   22.2128 N   0  0  0  0  0  0  0  0  0  0  0  0
   -8.5461   -1.4092   22.1396 C   0  0  0  0  0  0  0  0  0  0  0  0
   -9.1063   -2.4846   21.9500 O   0  0  0  0  0  0  0  0  0  0  0  0
   -8.7751    0.6181   22.5026 H   0  0  0  0  0  0  0  0  0  0  0  0
   -7.0698   -1.3341   22.2972 C   0  0  0  0  0  0  0  0  0  0  0  0
   -6.4154   -2.4006   22.9216 C   0  0  0  0  0  0  0  0  0  0  0  0
   -5.0283   -2.3700   23.0940 C   0  0  0  0  0  0  0  0  0  0  0  0
   -4.2714   -1.3052   22.5996 C   0  0  0  0  0  0  0  0  0  0  0  0
   -2.9041   -1.2224   22.8807 N   0  0  0  0  0  0  0  0  0  0  0  0
   -4.9357   -0.2245   22.0130 C   0  0  0  0  0  0  0  0  0  0  0  0
   -6.3241   -0.2436   21.8379 C   0  0  0  0  0  0  0  0  0  0  0  0
   -2.3855   -0.6248   22.2445 H   0  0  0  0  0  0  0  0  0  0  0  0
   -2.4546   -2.1237   23.0107 H   0  0  0  0  0  0  0  0  0  0  0  0
  -12.5274    5.2313   17.9853 H   0  0  0  0  0  0  0  0  0  0  0  0
  -10.2269    3.6320   12.5761 H   0  0  0  0  0  0  0  0  0  0  0  0
  -10.7539    5.6649   13.7910 H   0  0  0  0  0  0  0  0  0  0  0  0
  -11.2527    5.5759   16.1575 H   0  0  0  0  0  0  0  0  0  0  0  0
  -10.7071    1.4109   16.1097 H   0  0  0  0  0  0  0  0  0  0  0  0
  -10.6168   -0.1904   12.2117 H   0  0  0  0  0  0  0  0  0  0  0  0
  -10.7854    1.4925   11.7731 H   0  0  0  0  0  0  0  0  0  0  0  0
  -11.9621    0.7414   12.8239 H   0  0  0  0  0  0  0  0  0  0  0  0
  -11.0549   -1.2201   22.2677 H   0  0  0  0  0  0  0  0  0  0  0  0
  -11.0095    0.3615   23.0724 H   0  0  0  0  0  0  0  0  0  0  0  0
   -6.9578   -3.2124   23.2560 H   0  0  0  0  0  0  0  0  0  0  0  0
   -4.5586   -3.1424   23.5919 H   0  0  0  0  0  0  0  0  0  0  0  0
   -4.3951    0.5988   21.7048 H   0  0  0  0  0  0  0  0  0  0  0  0
   -6.7970    0.5457   21.3706 H   0  0  0  0  0  0  0  0  0  0  0  0
  1  2  1  0
  1  4  1  0
  2  3  2  0
  2 18  1  0
  5  6  2  0
  6  7  1  0
  6 32  1  0
  7  8  1  0
  8  1  1  0
  8  9  2  0
  9  5  1  0
 10 11  2  0
 11 12  1  0
 11 33  1  0
 12 13  2  0
 12 34  1  0
 13 14  1  0
 13 35  1  0
 14  5  1  0
 14 15  2  0
 15 10  1  0
 15 36  1  0
 16 17  1  0
 16 37  1  0
 16 38  1  0
 16 39  1  0
 17 10  1  0
 18 19  1  0
 18 40  1  0
 18 41  1  0
 19 20  1  0
 19 22  1  0
 20 21  2  0
 20 23  1  0
 23 24  2  0
 24 25  1  0
 24 42  1  0
 25 26  2  0
 25 43  1  0
 26 27  1  0
 26 28  1  0
 27 30  1  0
 27 31  1  0
 28 29  2  0
 28 44  1  0
 29 23  1  0
 29 45  1  0
M  END
>  <minimizedAffinity>  (9) 
-7.42264

>  <mol_id>  (9) 
130236

>  <source_index>  (9) 
8

>  <layer>  (9) 
L1

>  <uniprot>  (9) 
P51532

>  <paff>  (9) 
6.4908000000000001

>  <smiles>  (9) 
COc1cccc(-c2csc(NC(=O)CNC(=O)c3ccc(N)cc3)n2)c1

$$$$
L1:P51532:143316
     RDKit          3D

 42 44  0  0  0  0  0  0  0  0999 V2000
  -11.0466    0.9968   20.7692 N   0  0  0  0  0  0  0  0  0  0  0  0
  -11.6435   -0.2409   20.6567 C   0  0  0  0  0  0  0  0  0  0  0  0
  -12.5719   -0.5579   19.9210 O   0  0  0  0  0  0  0  0  0  0  0  0
  -10.3553    1.1342   21.5036 H   0  0  0  0  0  0  0  0  0  0  0  0
  -11.3181    3.4738   18.2913 C   0  0  0  0  0  0  0  0  0  0  0  0
  -12.0551    4.2470   19.1655 C   0  0  0  0  0  0  0  0  0  0  0  0
  -12.2255    3.4277   20.6624 S   0  0  0  0  0  0  0  0  0  0  0  0
  -11.3217    2.1249   20.0458 C   0  0  0  0  0  0  0  0  0  0  0  0
  -10.9107    2.2529   18.8065 N   0  0  0  0  0  0  0  0  0  0  0  0
  -10.6210    3.1643   14.6106 C   0  0  0  0  0  0  0  0  0  0  0  0
  -10.4093    4.4979   14.2496 C   0  0  0  0  0  0  0  0  0  0  0  0
  -10.4824    5.5020   15.2136 C   0  0  0  0  0  0  0  0  0  0  0  0
  -10.7807    5.1791   16.5418 C   0  0  0  0  0  0  0  0  0  0  0  0
  -11.0029    3.8466   16.9180 C   0  0  0  0  0  0  0  0  0  0  0  0
  -10.9109    2.8429   15.9418 C   0  0  0  0  0  0  0  0  0  0  0  0
  -10.5032    1.2893   12.8205 N   0  0  0  0  0  0  0  0  0  0  0  0
  -10.5463    2.1306   13.6173 C   0  0  0  0  0  0  0  0  0  0  0  0
  -11.0283   -1.2682   21.6135 C   0  0  0  0  0  0  0  0  0  0  0  0
   -9.5868   -1.1153   21.7002 N   0  0  0  0  0  0  0  0  0  0  0  0
   -8.8537   -1.8851   22.5767 C   0  0  0  0  0  0  0  0  0  0  0  0
   -9.3801   -2.7310   23.2944 O   0  0  0  0  0  0  0  0  0  0  0  0
   -9.1183   -0.6461   20.9354 H   0  0  0  0  0  0  0  0  0  0  0  0
   -7.3802   -1.6960   22.5655 C   0  0  0  0  0  0  0  0  0  0  0  0
   -6.5735   -2.6957   23.1180 C   0  0  0  0  0  0  0  0  0  0  0  0
   -5.1855   -2.5407   23.1434 C   0  0  0  0  0  0  0  0  0  0  0  0
   -4.5829   -1.4047   22.5968 C   0  0  0  0  0  0  0  0  0  0  0  0
   -3.2115   -1.1992   22.7534 N   0  0  0  0  0  0  0  0  0  0  0  0
   -5.3995   -0.3809   22.1073 C   0  0  0  0  0  0  0  0  0  0  0  0
   -6.7908   -0.5280   22.0718 C   0  0  0  0  0  0  0  0  0  0  0  0
   -2.6676   -2.0553   22.8162 H   0  0  0  0  0  0  0  0  0  0  0  0
   -2.8060   -0.5324   22.1023 H   0  0  0  0  0  0  0  0  0  0  0  0
  -12.4449    5.1781   18.9506 H   0  0  0  0  0  0  0  0  0  0  0  0
  -10.1987    4.7393   13.2686 H   0  0  0  0  0  0  0  0  0  0  0  0
  -10.3162    6.4851   14.9472 H   0  0  0  0  0  0  0  0  0  0  0  0
  -10.8377    5.9274   17.2502 H   0  0  0  0  0  0  0  0  0  0  0  0
  -11.0586    1.8569   16.2082 H   0  0  0  0  0  0  0  0  0  0  0  0
  -11.2532   -2.2524   21.2590 H   0  0  0  0  0  0  0  0  0  0  0  0
  -11.4426   -1.1113   22.5875 H   0  0  0  0  0  0  0  0  0  0  0  0
   -7.0041   -3.5489   23.5074 H   0  0  0  0  0  0  0  0  0  0  0  0
   -4.5982   -3.2738   23.5709 H   0  0  0  0  0  0  0  0  0  0  0  0
   -4.9709    0.4944   21.7679 H   0  0  0  0  0  0  0  0  0  0  0  0
   -7.3805    0.2239   21.6821 H   0  0  0  0  0  0  0  0  0  0  0  0
  1  2  1  0
  1  4  1  0
  2  3  2  0
  2 18  1  0
  5  6  2  0
  6  7  1  0
  6 32  1  0
  7  8  1  0
  8  1  1  0
  8  9  2  0
  9  5  1  0
 10 11  2  0
 11 12  1  0
 11 33  1  0
 12 13  2  0
 12 34  1  0
 13 14  1  0
 13 35  1  0
 14  5  1  0
 14 15  2  0
 15 10  1  0
 15 36  1  0
 16 17  3  0
 17 10  1  0
 18 19  1  0
 18 37  1  0
 18 38  1  0
 19 20  1  0
 19 22  1  0
 20 21  2  0
 20 23  1  0
 23 24  2  0
 24 25  1  0
 24 39  1  0
 25 26  2  0
 25 40  1  0
 26 27  1  0
 26 28  1  0
 27 30  1  0
 27 31  1  0
 28 29  2  0
 28 41  1  0
 29 23  1  0
 29 42  1  0
M  END
>  <minimizedAffinity>  (10) 
-7.54174

>  <mol_id>  (10) 
143316

>  <source_index>  (10) 
9

>  <layer>  (10) 
L1

>  <uniprot>  (10) 
P51532

>  <paff>  (10) 
6.4814999999999996

>  <smiles>  (10) 
N#Cc1cccc(-c2csc(NC(=O)CNC(=O)c3ccc(N)cc3)n2)c1

$$$$
