L2:Q06187:9210
     RDKit          3D

 77 82  0  0  0  0  0  0  0  0999 V2000
   -2.1419  -26.3853   19.9461 C   0  0  0  0  0  0  0  0  0  0  0  0
   -2.4215  -26.0150   18.6279 C   0  0  0  0  0  0  0  0  0  0  0  0
   -2.0829  -24.7587   18.1720 C   0  0  0  0  0  0  0  0  0  0  0  0
   -1.4631  -23.8205   18.9914 C   0  0  0  0  0  0  0  0  0  0  0  0
   -1.1773  -24.1765   20.3127 C   0  0  0  0  0  0  0  0  0  0  0  0
   -1.5081  -25.4480   20.7597 C   0  0  0  0  0  0  0  0  0  0  0  0
   -0.5124  -23.2289   21.2727 C   0  0  0  0  0  0  0  0  0  0  0  0
    0.8847  -22.7834   20.8467 C   0  0  0  0  0  0  0  0  0  0  0  0
    0.8954  -21.6764   19.8056 C   0  0  0  0  0  0  0  0  0  0  0  0
    0.3075  -22.0522   18.4577 C   0  0  0  0  0  0  0  0  0  0  0  0
   -1.1590  -22.4722   18.3843 C   0  0  2  0  0  0  0  0  0  0  0  0
   -5.0622  -29.3690   18.6603 C   0  0  0  0  0  0  0  0  0  0  0  0
   -4.4696  -28.2139   18.9392 N   0  0  0  0  0  0  0  0  0  0  0  0
   -3.4941  -28.5034   19.8685 C   0  0  0  0  0  0  0  0  0  0  0  0
   -2.4747  -27.7203   20.4423 C   0  0  0  0  0  0  0  0  0  0  0  0
   -1.7667  -28.3599   21.4699 C   0  0  0  0  0  0  0  0  0  0  0  0
   -1.9922  -29.6982   21.7878 C   0  0  0  0  0  0  0  0  0  0  0  0
   -2.8703  -30.4919   21.1598 N   0  0  0  0  0  0  0  0  0  0  0  0
   -3.5651  -29.8679   20.2240 C   0  0  0  0  0  0  0  0  0  0  0  0
   -4.5437  -30.4007   19.4132 N   0  0  0  0  0  0  0  0  0  0  0  0
   -4.7921  -31.3741   19.3686 H   0  0  0  0  0  0  0  0  0  0  0  0
   -6.4614  -32.1288   17.6476 C   0  0  0  0  0  0  0  0  0  0  0  0
   -6.7574  -30.7318   17.2676 C   0  0  0  0  0  0  0  0  0  0  0  0
   -7.7344  -30.4500   16.4111 N   0  0  0  0  0  0  0  0  0  0  0  0
   -7.7219  -29.0987   16.2729 N   0  0  0  0  0  0  0  0  0  0  0  0
   -6.7556  -28.5254   17.0215 C   0  0  0  0  0  0  0  0  0  0  0  0
   -6.1158  -29.5474   17.7043 C   0  0  0  0  0  0  0  0  0  0  0  0
   -8.8268  -28.4890   15.5428 C   0  0  0  0  0  0  0  0  0  0  0  0
  -10.1324  -28.9479   16.1832 C   0  0  0  0  0  0  0  0  0  0  0  0
   -8.6069  -26.9977   15.3474 C   0  0  0  0  0  0  0  0  0  0  0  0
   -2.0408  -21.4153   18.8717 N   0  0  0  0  0  0  0  0  0  0  0  0
   -3.3385  -21.3853   18.4872 C   0  0  0  0  0  0  0  0  0  0  0  0
   -3.7887  -22.0708   17.5688 O   0  0  0  0  0  0  0  0  0  0  0  0
   -1.8447  -20.9735   19.7573 H   0  0  0  0  0  0  0  0  0  0  0  0
   -4.1611  -20.4441   19.2891 C   0  0  0  0  0  0  0  0  0  0  0  0
   -3.6198  -19.8550   20.3389 N   0  0  0  0  0  0  0  0  0  0  0  0
   -4.6361  -19.0467   20.8194 O   0  0  0  0  0  0  0  0  0  0  0  0
   -5.7052  -19.2179   19.9938 C   0  0  0  0  0  0  0  0  0  0  0  0
   -5.4618  -20.0790   19.0534 N   0  0  0  0  0  0  0  0  0  0  0  0
   -6.9200  -18.3890   20.2656 C   0  0  0  0  0  0  0  0  0  0  0  0
   -6.5243  -16.9061   20.2549 C   0  0  0  0  0  0  0  0  0  0  0  0
   -7.9585  -18.6644   19.1825 C   0  0  0  0  0  0  0  0  0  0  0  0
   -7.4785  -18.7834   21.6395 C   0  0  0  0  0  0  0  0  0  0  0  0
   -2.9152  -26.7107   17.9678 H   0  0  0  0  0  0  0  0  0  0  0  0
   -2.3087  -24.4853   17.1503 H   0  0  0  0  0  0  0  0  0  0  0  0
   -1.3041  -25.6931   21.7921 H   0  0  0  0  0  0  0  0  0  0  0  0
   -0.4565  -23.7194   22.2427 H   0  0  0  0  0  0  0  0  0  0  0  0
   -1.1502  -22.3568   21.4333 H   0  0  0  0  0  0  0  0  0  0  0  0
    1.4343  -23.6487   20.4634 H   0  0  0  0  0  0  0  0  0  0  0  0
    1.4304  -22.4392   21.7266 H   0  0  0  0  0  0  0  0  0  0  0  0
    1.9275  -21.3540   19.6398 H   0  0  0  0  0  0  0  0  0  0  0  0
    0.3789  -20.7991   20.2082 H   0  0  0  0  0  0  0  0  0  0  0  0
    0.8777  -22.8830   18.0369 H   0  0  0  0  0  0  0  0  0  0  0  0
    0.4287  -21.2016   17.7793 H   0  0  0  0  0  0  0  0  0  0  0  0
   -1.4039  -22.5607   17.3293 H   0  0  0  0  0  0  0  0  0  0  0  0
   -1.0045  -27.8336   22.0266 H   0  0  0  0  0  0  0  0  0  0  0  0
   -1.4256  -30.1573   22.5889 H   0  0  0  0  0  0  0  0  0  0  0  0
   -7.0659  -32.8021   17.0565 H   0  0  0  0  0  0  0  0  0  0  0  0
   -6.6960  -32.3178   18.6951 H   0  0  0  0  0  0  0  0  0  0  0  0
   -5.4129  -32.3744   17.4983 H   0  0  0  0  0  0  0  0  0  0  0  0
   -6.5147  -27.4782   17.0024 H   0  0  0  0  0  0  0  0  0  0  0  0
   -8.8093  -28.9244   14.5515 H   0  0  0  0  0  0  0  0  0  0  0  0
  -10.0244  -29.0649   17.2549 H   0  0  0  0  0  0  0  0  0  0  0  0
  -10.4222  -29.9220   15.8035 H   0  0  0  0  0  0  0  0  0  0  0  0
  -10.9403  -28.2551   15.9794 H   0  0  0  0  0  0  0  0  0  0  0  0
   -8.7925  -26.4103   16.2445 H   0  0  0  0  0  0  0  0  0  0  0  0
   -9.2746  -26.6283   14.5773 H   0  0  0  0  0  0  0  0  0  0  0  0
   -7.5990  -26.7892   14.9950 H   0  0  0  0  0  0  0  0  0  0  0  0
   -6.1207  -16.6133   19.2872 H   0  0  0  0  0  0  0  0  0  0  0  0
   -5.7797  -16.6893   21.0160 H   0  0  0  0  0  0  0  0  0  0  0  0
   -7.4017  -16.2935   20.4563 H   0  0  0  0  0  0  0  0  0  0  0  0
   -7.5565  -18.5269   18.1815 H   0  0  0  0  0  0  0  0  0  0  0  0
   -8.8079  -17.9958   19.3112 H   0  0  0  0  0  0  0  0  0  0  0  0
   -8.3182  -19.6867   19.2601 H   0  0  0  0  0  0  0  0  0  0  0  0
   -6.7632  -18.5672   22.4301 H   0  0  0  0  0  0  0  0  0  0  0  0
   -7.7202  -19.8428   21.6653 H   0  0  0  0  0  0  0  0  0  0  0  0
   -8.3828  -18.2107   21.8400 H   0  0  0  0  0  0  0  0  0  0  0  0
  1  2  2  0
  2  3  1  0
  2 44  1  0
  3  4  2  0
  3 45  1  0
  4  5  1  0
  5  6  2  0
  5  7  1  0
  6  1  1  0
  6 46  1  0
  7  8  1  0
  7 47  1  0
  7 48  1  0
  8  9  1  0
  8 49  1  0
  8 50  1  0
  9 10  1  0
  9 51  1  0
  9 52  1  0
 10 11  1  0
 10 53  1  0
 10 54  1  0
 11 31  1  0
 11  4  1  0
 11 55  1  6
 12 13  2  0
 13 14  1  0
 14 15  2  0
 15  1  1  0
 15 16  1  0
 16 17  2  0
 16 56  1  0
 17 18  1  0
 17 57  1  0
 18 19  2  0
 19 20  1  0
 19 14  1  0
 20 12  1  0
 20 21  1  0
 22 23  1  0
 22 58  1  0
 22 59  1  0
 22 60  1  0
 23 24  2  0
 24 25  1  0
 25 28  1  0
 25 26  1  0
 26 27  2  0
 26 61  1  0
 27 12  1  0
 27 23  1  0
 28 29  1  0
 28 30  1  0
 28 62  1  0
 29 63  1  0
 29 64  1  0
 29 65  1  0
 30 66  1  0
 30 67  1  0
 30 68  1  0
 31 32  1  0
 31 34  1  0
 32 33  2  0
 32 35  1  0
 35 36  2  0
 36 37  1  0
 37 38  1  0
 38 40  1  0
 38 39  2  0
 39 35  1  0
 40 41  1  0
 40 42  1  0
 40 43  1  0
 41 69  1  0
 41 70  1  0
 41 71  1  0
 42 72  1  0
 42 73  1  0
 42 74  1  0
 43 75  1  0
 43 76  1  0
 43 77  1  0
M  END
>  <minimizedAffinity>  (1) 
-10.63622

>  <mol_id>  (1) 
9210

>  <source_index>  (1) 
0

>  <layer>  (1) 
L2

>  <uniprot>  (1) 
Q06187

>  <paff>  (1) 
8.2596000000000007

>  <smiles>  (1) 
Cc1nn(C(C)C)cc1-c1nc2c(-c3ccc4c(c3)CCCC[C@@H]4NC(=O)c3noc(C(C)(C)C)n3)ccnc2[nH]1

>  <aimnet_interaction_kcal_mol>  (1) 
-64.251607744355141

$$$$
L2:Q06187:21421
     RDKit          3D

 63 67  0  0  0  0  0  0  0  0999 V2000
   -2.1089  -28.6989   21.7825 C   0  0  0  0  0  0  0  0  0  0  0  0
   -2.1603  -30.0735   21.9624 C   0  0  0  0  0  0  0  0  0  0  0  0
   -2.9760  -30.8680   21.1909 C   0  0  0  0  0  0  0  0  0  0  0  0
   -3.7364  -30.3391   20.1434 C   0  0  0  0  0  0  0  0  0  0  0  0
   -3.6443  -28.9609   19.9675 C   0  0  0  0  0  0  0  0  0  0  0  0
   -4.4044  -28.3709   19.0068 F   0  0  0  0  0  0  0  0  0  0  0  0
   -2.8186  -28.1308   20.7178 C   0  0  0  0  0  0  0  0  0  0  0  0
   -4.5036  -31.2577   19.2873 C   0  0  0  0  0  0  0  0  0  0  0  0
   -4.0582  -32.5779   19.1501 C   0  0  0  0  0  0  0  0  0  0  0  0
   -4.8180  -33.4799   18.4300 C   0  0  0  0  0  0  0  0  0  0  0  0
   -5.9651  -33.1575   17.8519 N   0  0  0  0  0  0  0  0  0  0  0  0
   -6.4020  -31.9066   17.9800 C   0  0  0  0  0  0  0  0  0  0  0  0
   -5.6905  -30.9077   18.6437 C   0  0  0  0  0  0  0  0  0  0  0  0
   -7.6900  -31.7366   17.4589 N   0  0  0  0  0  0  0  0  0  0  0  0
   -8.2437  -30.5763   17.0248 C   0  0  0  0  0  0  0  0  0  0  0  0
   -7.6155  -29.5182   16.9150 O   0  0  0  0  0  0  0  0  0  0  0  0
   -8.1422  -32.6397   17.2856 H   0  0  0  0  0  0  0  0  0  0  0  0
   -9.6953  -30.6541   16.6772 C   0  0  0  0  0  0  0  0  0  0  0  0
  -10.3710  -29.4327   16.1422 C   0  0  0  0  0  0  0  0  0  0  0  0
  -10.1388  -30.5799   15.2432 C   0  0  0  0  0  0  0  0  0  0  0  0
   -2.6931  -26.6855   20.4027 C   0  0  0  0  0  0  0  0  0  0  0  0
   -2.4384  -26.2306   18.9953 C   0  0  0  0  0  0  0  0  0  0  0  0
   -1.3520  -26.1511   20.0024 C   0  0  0  0  0  0  0  0  0  0  0  0
   -1.3688  -27.8412   22.7824 C   0  0  0  0  0  0  0  0  0  0  0  0
    0.9000  -28.7224   22.7574 C   0  0  0  0  0  0  0  0  0  0  0  0
    1.1567  -28.2887   21.6328 O   0  0  0  0  0  0  0  0  0  0  0  0
   -0.2528  -28.5106   23.4055 N   0  0  0  0  0  0  0  0  0  0  0  0
   -0.3359  -28.8465   24.3564 H   0  0  0  0  0  0  0  0  0  0  0  0
    3.6008  -30.6432   23.9990 C   0  0  0  0  0  0  0  0  0  0  0  0
    3.1936  -29.7339   23.1631 N   0  0  0  0  0  0  0  0  0  0  0  0
    1.8686  -29.5783   23.5000 C   0  0  0  0  0  0  0  0  0  0  0  0
    1.4809  -30.3106   24.5087 N   0  0  0  0  0  0  0  0  0  0  0  0
    2.6110  -31.0277   24.8504 O   0  0  0  0  0  0  0  0  0  0  0  0
    4.7375  -32.8011   24.2329 C   0  0  0  0  0  0  0  0  0  0  0  0
    4.9361  -31.2857   24.1601 C   0  0  0  0  0  0  0  0  0  0  0  0
    5.8246  -30.9186   22.9785 C   0  0  0  0  0  0  0  0  0  0  0  0
    5.5550  -30.7730   25.4668 C   0  0  0  0  0  0  0  0  0  0  0  0
   -1.5396  -30.5315   22.7159 H   0  0  0  0  0  0  0  0  0  0  0  0
   -3.0494  -31.9226   21.4131 H   0  0  0  0  0  0  0  0  0  0  0  0
   -3.1103  -32.8912   19.5594 H   0  0  0  0  0  0  0  0  0  0  0  0
   -4.5197  -34.5139   18.3173 H   0  0  0  0  0  0  0  0  0  0  0  0
   -6.0631  -29.9012   18.6327 H   0  0  0  0  0  0  0  0  0  0  0  0
  -10.2668  -31.3108   17.3173 H   0  0  0  0  0  0  0  0  0  0  0  0
   -9.7559  -28.5601   15.9907 H   0  0  0  0  0  0  0  0  0  0  0  0
  -11.3745  -29.2037   16.4605 H   0  0  0  0  0  0  0  0  0  0  0  0
   -9.3827  -30.5327   14.4768 H   0  0  0  0  0  0  0  0  0  0  0  0
  -10.9924  -31.1617   14.9357 H   0  0  0  0  0  0  0  0  0  0  0  0
   -3.2905  -26.0440   21.0481 H   0  0  0  0  0  0  0  0  0  0  0  0
   -2.9216  -25.3233   18.6521 H   0  0  0  0  0  0  0  0  0  0  0  0
   -2.3507  -26.9911   18.2348 H   0  0  0  0  0  0  0  0  0  0  0  0
   -1.0336  -25.1893   20.3772 H   0  0  0  0  0  0  0  0  0  0  0  0
   -0.5574  -26.8744   19.9193 H   0  0  0  0  0  0  0  0  0  0  0  0
   -1.0072  -26.9355   22.3087 H   0  0  0  0  0  0  0  0  0  0  0  0
   -2.0559  -27.5427   23.5724 H   0  0  0  0  0  0  0  0  0  0  0  0
    5.7061  -33.2846   24.3326 H   0  0  0  0  0  0  0  0  0  0  0  0
    4.2638  -33.1808   23.3329 H   0  0  0  0  0  0  0  0  0  0  0  0
    4.1218  -33.0830   25.0826 H   0  0  0  0  0  0  0  0  0  0  0  0
    6.8006  -31.3811   23.1137 H   0  0  0  0  0  0  0  0  0  0  0  0
    5.9660  -29.8448   22.9016 H   0  0  0  0  0  0  0  0  0  0  0  0
    5.4076  -31.2742   22.0409 H   0  0  0  0  0  0  0  0  0  0  0  0
    6.5233  -31.2488   25.6100 H   0  0  0  0  0  0  0  0  0  0  0  0
    4.9284  -31.0088   26.3253 H   0  0  0  0  0  0  0  0  0  0  0  0
    5.7115  -29.6960   25.4359 H   0  0  0  0  0  0  0  0  0  0  0  0
  1  2  2  0
  2  3  1  0
  2 38  1  0
  3  4  2  0
  3 39  1  0
  4  8  1  0
  4  5  1  0
  5  6  1  0
  5  7  2  0
  7 21  1  0
  7  1  1  0
  8  9  2  0
  9 10  1  0
  9 40  1  0
 10 11  2  0
 10 41  1  0
 11 12  1  0
 12 14  1  0
 12 13  2  0
 13  8  1  0
 13 42  1  0
 14 15  1  0
 14 17  1  0
 15 16  2  0
 15 18  1  0
 18 19  1  0
 18 43  1  0
 19 20  1  0
 19 44  1  0
 19 45  1  0
 20 18  1  0
 20 46  1  0
 20 47  1  0
 21 22  1  0
 21 48  1  0
 22 23  1  0
 22 49  1  0
 22 50  1  0
 23 21  1  0
 23 51  1  0
 23 52  1  0
 24  1  1  0
 24 53  1  0
 24 54  1  0
 25 26  2  0
 25 27  1  0
 27 24  1  0
 27 28  1  0
 29 30  2  0
 30 31  1  0
 31 25  1  0
 31 32  2  0
 32 33  1  0
 33 29  1  0
 34 35  1  0
 34 55  1  0
 34 56  1  0
 34 57  1  0
 35 36  1  0
 35 37  1  0
 35 29  1  0
 36 58  1  0
 36 59  1  0
 36 60  1  0
 37 61  1  0
 37 62  1  0
 37 63  1  0
M  END
>  <minimizedAffinity>  (2) 
-10.04717

>  <mol_id>  (2) 
21421

>  <source_index>  (2) 
1

>  <layer>  (2) 
L2

>  <uniprot>  (2) 
Q06187

>  <paff>  (2) 
9

>  <smiles>  (2) 
CC(C)(C)c1nc(C(=O)NCc2ccc(-c3ccnc(NC(=O)C4CC4)c3)c(F)c2C2CC2)no1

>  <aimnet_interaction_kcal_mol>  (2) 
-79.196138983327103

$$$$
L2:Q06187:89453
     RDKit          3D

 61 65  0  0  0  0  0  0  0  0999 V2000
   -1.6780  -29.7328   22.3011 C   0  0  0  0  0  0  0  0  0  0  0  0
   -2.7386  -29.0838   21.6709 C   0  0  0  0  0  0  0  0  0  0  0  0
   -3.5973  -29.7495   20.8304 C   0  0  0  0  0  0  0  0  0  0  0  0
   -3.4296  -31.1019   20.5191 C   0  0  0  0  0  0  0  0  0  0  0  0
   -2.4792  -31.7943   21.2852 C   0  0  0  0  0  0  0  0  0  0  0  0
   -2.3854  -33.1125   21.2188 F   0  0  0  0  0  0  0  0  0  0  0  0
   -1.6292  -31.1193   22.1666 C   0  0  0  0  0  0  0  0  0  0  0  0
   -0.5420  -32.0607   23.1462 Cl  0  0  0  0  0  0  0  0  0  0  0  0
   -4.2329  -31.7344   19.4756 C   0  0  0  0  0  0  0  0  0  0  0  0
   -4.2506  -33.0585   19.3951 N   0  0  0  0  0  0  0  0  0  0  0  0
   -5.1157  -33.6359   18.5241 C   0  0  0  0  0  0  0  0  0  0  0  0
   -5.9659  -33.0363   17.7240 N   0  0  0  0  0  0  0  0  0  0  0  0
   -5.9138  -31.6987   17.7895 N   0  0  0  0  0  0  0  0  0  0  0  0
   -6.7051  -30.8596   17.0663 C   0  0  0  0  0  0  0  0  0  0  0  0
   -6.2693  -29.5571   17.3148 C   0  0  0  0  0  0  0  0  0  0  0  0
   -5.1831  -29.6253   18.2048 C   0  0  0  0  0  0  0  0  0  0  0  0
   -5.0034  -30.9595   18.5698 C   0  0  0  0  0  0  0  0  0  0  0  0
   -6.8301  -28.3742   16.8300 N   0  0  0  0  0  0  0  0  0  0  0  0
   -5.8958  -27.3610   16.3709 C   0  0  0  0  0  0  0  0  0  0  0  0
   -6.5930  -26.0227   16.2020 C   0  0  0  0  0  0  0  0  0  0  0  0
   -7.9051  -26.1319   15.6622 O   0  0  0  0  0  0  0  0  0  0  0  0
   -8.1048  -27.3586   14.9750 C   0  0  0  0  0  0  0  0  0  0  0  0
   -7.9831  -28.5211   15.9458 C   0  0  0  0  0  0  0  0  0  0  0  0
   -0.6641  -28.9619   23.1044 C   0  0  0  0  0  0  0  0  0  0  0  0
    0.6591  -27.2213   21.9655 C   0  0  0  0  0  0  0  0  0  0  0  0
    1.7042  -27.8639   21.9030 O   0  0  0  0  0  0  0  0  0  0  0  0
   -0.4540  -27.6214   22.5996 N   0  0  0  0  0  0  0  0  0  0  0  0
   -1.2208  -26.9721   22.5729 H   0  0  0  0  0  0  0  0  0  0  0  0
   -0.1835  -24.2718   20.1311 C   0  0  0  0  0  0  0  0  0  0  0  0
    1.0656  -23.9716   20.4196 N   0  0  0  0  0  0  0  0  0  0  0  0
    1.4998  -25.0464   21.2022 O   0  0  0  0  0  0  0  0  0  0  0  0
    0.4664  -25.8996   21.2927 C   0  0  0  0  0  0  0  0  0  0  0  0
   -0.6016  -25.4542   20.6866 N   0  0  0  0  0  0  0  0  0  0  0  0
   -1.5916  -22.2516   20.1750 C   0  0  0  0  0  0  0  0  0  0  0  0
   -1.0385  -23.3671   19.2816 C   0  0  0  0  0  0  0  0  0  0  0  0
   -0.1927  -22.7617   18.1626 C   0  0  0  0  0  0  0  0  0  0  0  0
   -2.1793  -24.1839   18.6748 C   0  0  0  0  0  0  0  0  0  0  0  0
   -2.9115  -28.0311   21.8410 H   0  0  0  0  0  0  0  0  0  0  0  0
   -4.4423  -29.2175   20.4314 H   0  0  0  0  0  0  0  0  0  0  0  0
   -5.1489  -34.7167   18.4622 H   0  0  0  0  0  0  0  0  0  0  0  0
   -7.4909  -31.2732   16.4712 H   0  0  0  0  0  0  0  0  0  0  0  0
   -4.5474  -28.8103   18.4786 H   0  0  0  0  0  0  0  0  0  0  0  0
   -5.4067  -27.6505   15.4311 H   0  0  0  0  0  0  0  0  0  0  0  0
   -5.1002  -27.2416   17.1002 H   0  0  0  0  0  0  0  0  0  0  0  0
   -5.9880  -25.3777   15.5638 H   0  0  0  0  0  0  0  0  0  0  0  0
   -6.7056  -25.5505   17.1825 H   0  0  0  0  0  0  0  0  0  0  0  0
   -7.3992  -27.4577   14.1421 H   0  0  0  0  0  0  0  0  0  0  0  0
   -9.1003  -27.3230   14.5474 H   0  0  0  0  0  0  0  0  0  0  0  0
   -7.9175  -29.4592   15.4022 H   0  0  0  0  0  0  0  0  0  0  0  0
   -8.9003  -28.6078   16.5294 H   0  0  0  0  0  0  0  0  0  0  0  0
   -0.9759  -28.8940   24.1478 H   0  0  0  0  0  0  0  0  0  0  0  0
    0.2943  -29.4691   23.0799 H   0  0  0  0  0  0  0  0  0  0  0  0
   -2.2132  -21.5780   19.5834 H   0  0  0  0  0  0  0  0  0  0  0  0
   -0.7793  -21.6721   20.6098 H   0  0  0  0  0  0  0  0  0  0  0  0
   -2.1944  -22.6547   20.9831 H   0  0  0  0  0  0  0  0  0  0  0  0
   -0.8089  -22.0904   17.5631 H   0  0  0  0  0  0  0  0  0  0  0  0
    0.1973  -23.5364   17.5082 H   0  0  0  0  0  0  0  0  0  0  0  0
    0.6456  -22.1983   18.5665 H   0  0  0  0  0  0  0  0  0  0  0  0
   -2.8556  -23.5144   18.1406 H   0  0  0  0  0  0  0  0  0  0  0  0
   -2.7397  -24.7113   19.4422 H   0  0  0  0  0  0  0  0  0  0  0  0
   -1.8029  -24.9213   17.9692 H   0  0  0  0  0  0  0  0  0  0  0  0
  1  2  2  0
  2  3  1  0
  2 38  1  0
  3  4  2  0
  3 39  1  0
  4  9  1  0
  4  5  1  0
  5  6  1  0
  5  7  2  0
  7  8  1  0
  7  1  1  0
  9 10  2  0
 10 11  1  0
 11 12  2  0
 11 40  1  0
 12 13  1  0
 13 14  1  0
 14 15  2  0
 14 41  1  0
 15 18  1  0
 15 16  1  0
 16 17  2  0
 16 42  1  0
 17  9  1  0
 17 13  1  0
 18 19  1  0
 19 20  1  0
 19 43  1  0
 19 44  1  0
 20 21  1  0
 20 45  1  0
 20 46  1  0
 21 22  1  0
 22 23  1  0
 22 47  1  0
 22 48  1  0
 23 18  1  0
 23 49  1  0
 23 50  1  0
 24  1  1  0
 24 51  1  0
 24 52  1  0
 25 26  2  0
 25 27  1  0
 27 24  1  0
 27 28  1  0
 29 30  2  0
 30 31  1  0
 31 32  1  0
 32 25  1  0
 32 33  2  0
 33 29  1  0
 34 35  1  0
 34 53  1  0
 34 54  1  0
 34 55  1  0
 35 36  1  0
 35 37  1  0
 35 29  1  0
 36 56  1  0
 36 57  1  0
 36 58  1  0
 37 59  1  0
 37 60  1  0
 37 61  1  0
M  END
>  <minimizedAffinity>  (3) 
-10.18600

>  <mol_id>  (3) 
89453

>  <source_index>  (3) 
2

>  <layer>  (3) 
L2

>  <uniprot>  (3) 
Q06187

>  <paff>  (3) 
9

>  <smiles>  (3) 
CC(C)(C)c1noc(C(=O)NCc2ccc(-c3ncnn4cc(N5CCOCC5)cc34)c(F)c2Cl)n1

>  <aimnet_interaction_kcal_mol>  (3) 
-59.766049058232063

$$$$
L2:Q06187:108091
     RDKit          3D

 63 67  0  0  0  0  0  0  0  0999 V2000
   -3.0895  -33.2029   20.8612 C   0  0  0  0  0  0  0  0  0  0  0  0
   -3.1098  -31.7320   20.6265 C   0  0  0  0  0  0  0  0  0  0  0  0
   -2.1128  -30.9248   21.1498 C   0  0  0  0  0  0  0  0  0  0  0  0
   -2.0796  -29.5512   20.8935 C   0  0  0  0  0  0  0  0  0  0  0  0
   -3.1727  -28.9772   20.2445 C   0  0  0  0  0  0  0  0  0  0  0  0
   -4.1336  -29.7803   19.6640 C   0  0  0  0  0  0  0  0  0  0  0  0
   -4.1282  -31.1573   19.8615 C   0  0  0  0  0  0  0  0  0  0  0  0
   -0.9158  -28.7811   21.2978 C   0  0  0  0  0  0  0  0  0  0  0  0
   -0.0500  -29.3728   22.1257 N   0  0  0  0  0  0  0  0  0  0  0  0
    0.9436  -28.6342   22.6436 C   0  0  0  0  0  0  0  0  0  0  0  0
    1.2510  -27.3812   22.3732 N   0  0  0  0  0  0  0  0  0  0  0  0
    0.4087  -26.8032   21.4889 N   0  0  0  0  0  0  0  0  0  0  0  0
    0.5145  -25.5312   21.0256 C   0  0  0  0  0  0  0  0  0  0  0  0
   -0.4778  -25.3470   20.0564 C   0  0  0  0  0  0  0  0  0  0  0  0
   -1.2028  -26.5468   19.9391 C   0  0  0  0  0  0  0  0  0  0  0  0
   -0.6773  -27.4589   20.8630 C   0  0  0  0  0  0  0  0  0  0  0  0
   -0.6976  -24.1589   19.3859 N   0  0  0  0  0  0  0  0  0  0  0  0
    0.4398  -23.3441   18.9578 C   0  0  0  0  0  0  0  0  0  0  0  0
   -0.2279  -22.1449   18.2935 C   0  0  0  0  0  0  0  0  0  0  0  0
   -1.6390  -22.6262   17.9627 C   0  0  0  0  0  0  0  0  0  0  0  0
   -2.5780  -21.9275   18.7047 F   0  0  0  0  0  0  0  0  0  0  0  0
   -1.9844  -22.3864   16.6610 F   0  0  0  0  0  0  0  0  0  0  0  0
   -1.6833  -24.0972   18.3286 C   0  0  0  0  0  0  0  0  0  0  0  0
   -5.1987  -32.0499   19.2999 C   0  0  0  0  0  0  0  0  0  0  0  0
   -6.3645  -31.3268   18.8141 N   0  0  0  0  0  0  0  0  0  0  0  0
   -6.6227  -31.2120   17.4999 C   0  0  0  0  0  0  0  0  0  0  0  0
   -6.1716  -31.9282   16.6329 O   0  0  0  0  0  0  0  0  0  0  0  0
   -6.9391  -30.8421   19.4794 H   0  0  0  0  0  0  0  0  0  0  0  0
   -7.4170  -29.9970   17.1131 C   0  0  0  0  0  0  0  0  0  0  0  0
   -8.6677  -30.0366   16.7380 N   0  0  0  0  0  0  0  0  0  0  0  0
   -8.8357  -28.8110   16.0564 O   0  0  0  0  0  0  0  0  0  0  0  0
   -7.6539  -28.1529   16.1340 C   0  0  0  0  0  0  0  0  0  0  0  0
   -6.7744  -28.8087   16.8277 N   0  0  0  0  0  0  0  0  0  0  0  0
   -7.4839  -26.8876   15.3623 C   0  0  0  0  0  0  0  0  0  0  0  0
   -7.4163  -27.2477   13.8782 C   0  0  0  0  0  0  0  0  0  0  0  0
   -8.6982  -25.9910   15.5838 C   0  0  0  0  0  0  0  0  0  0  0  0
   -6.1902  -26.2257   15.8220 C   0  0  0  0  0  0  0  0  0  0  0  0
   -2.1696  -33.5064   21.3447 H   0  0  0  0  0  0  0  0  0  0  0  0
   -3.1458  -33.7475   19.9203 H   0  0  0  0  0  0  0  0  0  0  0  0
   -3.9252  -33.5260   21.4786 H   0  0  0  0  0  0  0  0  0  0  0  0
   -1.3392  -31.3537   21.7703 H   0  0  0  0  0  0  0  0  0  0  0  0
   -3.2875  -27.9040   20.2096 H   0  0  0  0  0  0  0  0  0  0  0  0
   -4.8810  -29.3235   19.0279 H   0  0  0  0  0  0  0  0  0  0  0  0
    1.5891  -29.1157   23.3657 H   0  0  0  0  0  0  0  0  0  0  0  0
    1.2487  -24.8575   21.4230 H   0  0  0  0  0  0  0  0  0  0  0  0
   -1.9518  -26.7369   19.1973 H   0  0  0  0  0  0  0  0  0  0  0  0
    1.0805  -23.8868   18.2558 H   0  0  0  0  0  0  0  0  0  0  0  0
    1.0488  -23.0690   19.8140 H   0  0  0  0  0  0  0  0  0  0  0  0
    0.2807  -21.8332   17.3878 H   0  0  0  0  0  0  0  0  0  0  0  0
   -0.2915  -21.2932   18.9639 H   0  0  0  0  0  0  0  0  0  0  0  0
   -1.4241  -24.7020   17.4550 H   0  0  0  0  0  0  0  0  0  0  0  0
   -2.6722  -24.3860   18.6810 H   0  0  0  0  0  0  0  0  0  0  0  0
   -5.5326  -32.7484   20.0621 H   0  0  0  0  0  0  0  0  0  0  0  0
   -4.8028  -32.6471   18.4793 H   0  0  0  0  0  0  0  0  0  0  0  0
   -8.2300  -27.9078   13.5971 H   0  0  0  0  0  0  0  0  0  0  0  0
   -6.4737  -27.7240   13.6289 H   0  0  0  0  0  0  0  0  0  0  0  0
   -7.5046  -26.3631   13.2632 H   0  0  0  0  0  0  0  0  0  0  0  0
   -9.5923  -26.5362   15.3119 H   0  0  0  0  0  0  0  0  0  0  0  0
   -8.6409  -25.1298   14.9281 H   0  0  0  0  0  0  0  0  0  0  0  0
   -8.7872  -25.6352   16.6029 H   0  0  0  0  0  0  0  0  0  0  0  0
   -5.3463  -26.8912   15.6791 H   0  0  0  0  0  0  0  0  0  0  0  0
   -6.2325  -25.9799   16.8845 H   0  0  0  0  0  0  0  0  0  0  0  0
   -6.0157  -25.3172   15.2538 H   0  0  0  0  0  0  0  0  0  0  0  0
  1  2  1  0
  1 38  1  0
  1 39  1  0
  1 40  1  0
  2  3  2  0
  3  4  1  0
  3 41  1  0
  4  8  1  0
  4  5  2  0
  5  6  1  0
  5 42  1  0
  6  7  2  0
  6 43  1  0
  7 24  1  0
  7  2  1  0
  8  9  2  0
  9 10  1  0
 10 11  2  0
 10 44  1  0
 11 12  1  0
 12 13  1  0
 13 14  2  0
 13 45  1  0
 14 17  1  0
 14 15  1  0
 15 16  2  0
 15 46  1  0
 16  8  1  0
 16 12  1  0
 17 18  1  0
 18 19  1  0
 18 47  1  0
 18 48  1  0
 19 20  1  0
 19 49  1  0
 19 50  1  0
 20 21  1  0
 20 22  1  0
 20 23  1  0
 23 17  1  0
 23 51  1  0
 23 52  1  0
 24 25  1  0
 24 53  1  0
 24 54  1  0
 25 26  1  0
 25 28  1  0
 26 27  2  0
 26 29  1  0
 29 30  2  0
 30 31  1  0
 31 32  1  0
 32 34  1  0
 32 33  2  0
 33 29  1  0
 34 35  1  0
 34 36  1  0
 34 37  1  0
 35 55  1  0
 35 56  1  0
 35 57  1  0
 36 58  1  0
 36 59  1  0
 36 60  1  0
 37 61  1  0
 37 62  1  0
 37 63  1  0
M  END
>  <minimizedAffinity>  (4) 
-10.58025

>  <mol_id>  (4) 
108091

>  <source_index>  (4) 
3

>  <layer>  (4) 
L2

>  <uniprot>  (4) 
Q06187

>  <paff>  (4) 
9

>  <smiles>  (4) 
Cc1cc(-c2ncnn3cc(N4CCC(F)(F)C4)cc23)ccc1CNC(=O)c1noc(C(C)(C)C)n1

>  <aimnet_interaction_kcal_mol>  (4) 
-40.157538830266638

$$$$
L2:Q06187:114484
     RDKit          3D

 73 78  0  0  0  0  0  0  0  0999 V2000
   -0.3655  -28.1248   21.4217 N   0  0  0  0  0  0  0  0  0  0  0  0
    0.3597  -28.5902   22.4980 C   0  0  0  0  0  0  0  0  0  0  0  0
    1.3196  -27.7866   22.9450 N   0  0  0  0  0  0  0  0  0  0  0  0
    1.9886  -28.1405   24.0513 C   0  0  0  0  0  0  0  0  0  0  0  0
    1.8527  -29.3397   24.7358 C   0  0  0  0  0  0  0  0  0  0  0  0
    1.0175  -30.2849   24.0849 C   0  0  0  0  0  0  0  0  0  0  0  0
    0.1099  -29.8327   23.0981 C   0  0  0  0  0  0  0  0  0  0  0  0
   -0.7456  -30.9418   22.8319 C   0  0  0  0  0  0  0  0  0  0  0  0
   -0.3113  -32.0094   23.4847 N   0  0  0  0  0  0  0  0  0  0  0  0
    0.7849  -31.6345   24.2095 N   0  0  0  0  0  0  0  0  0  0  0  0
    1.6796  -32.7583   24.5401 C   0  0  2  0  0  0  0  0  0  0  0  0
    1.6966  -33.0716   26.0273 C   0  0  0  0  0  0  0  0  0  0  0  0
    2.8474  -34.0201   26.3161 C   0  0  0  0  0  0  0  0  0  0  0  0
    4.2054  -33.3728   26.0241 C   0  0  0  0  0  0  0  0  0  0  0  0
    4.0685  -32.2255   25.0295 C   0  0  2  0  0  0  0  0  0  0  0  0
    3.0819  -32.5886   23.9454 C   0  0  0  0  0  0  0  0  0  0  0  0
    5.3708  -31.8495   24.5264 N   0  0  0  0  0  0  0  0  0  0  0  0
    5.6286  -30.6843   23.8721 C   0  0  0  0  0  0  0  0  0  0  0  0
    4.7618  -30.0666   23.2517 O   0  0  0  0  0  0  0  0  0  0  0  0
    7.0224  -30.1391   24.0713 C   0  0  0  0  0  0  0  0  0  0  0  0
    6.9986  -28.8639   24.9351 C   0  0  0  0  0  0  0  0  0  0  0  0
    6.0247  -28.9319   26.1195 C   0  0  0  0  0  0  0  0  0  0  0  0
    4.6341  -28.3745   25.7746 C   0  0  0  0  0  0  0  0  0  0  0  0
    3.5358  -28.9975   26.5522 C   0  0  0  0  0  0  0  0  0  0  0  0
    2.3814  -29.4867   26.0805 C   0  0  0  0  0  0  0  0  0  0  0  0
   -0.8481  -28.7765   20.8307 H   0  0  0  0  0  0  0  0  0  0  0  0
   -0.0096  -27.2945   20.9861 H   0  0  0  0  0  0  0  0  0  0  0  0
    6.1644  -32.3663   24.8596 H   0  0  0  0  0  0  0  0  0  0  0  0
   -1.9009  -31.0136   21.9571 C   0  0  0  0  0  0  0  0  0  0  0  0
   -2.1954  -32.1847   21.2448 C   0  0  0  0  0  0  0  0  0  0  0  0
   -3.1892  -32.1819   20.2887 C   0  0  0  0  0  0  0  0  0  0  0  0
   -3.9140  -31.0200   20.0073 C   0  0  0  0  0  0  0  0  0  0  0  0
   -3.6754  -29.8820   20.7800 C   0  0  0  0  0  0  0  0  0  0  0  0
   -2.7289  -29.8995   21.7820 C   0  0  0  0  0  0  0  0  0  0  0  0
   -4.9588  -31.0833   18.9640 C   0  0  0  0  0  0  0  0  0  0  0  0
   -5.4244  -32.1332   18.5533 O   0  0  0  0  0  0  0  0  0  0  0  0
   -5.3706  -29.8409   18.4847 N   0  0  0  0  0  0  0  0  0  0  0  0
   -4.7497  -29.0550   18.6128 H   0  0  0  0  0  0  0  0  0  0  0  0
   -6.3963  -29.5716   17.5837 C   0  0  0  0  0  0  0  0  0  0  0  0
   -7.3374  -30.5216   17.1596 C   0  0  0  0  0  0  0  0  0  0  0  0
   -8.2947  -30.1246   16.2446 C   0  0  0  0  0  0  0  0  0  0  0  0
   -8.2880  -28.8173   15.7569 C   0  0  0  0  0  0  0  0  0  0  0  0
   -7.3217  -27.9513   16.2439 C   0  0  0  0  0  0  0  0  0  0  0  0
   -6.4160  -28.2947   17.1643 N   0  0  0  0  0  0  0  0  0  0  0  0
    2.6582  -27.3866   24.4482 H   0  0  0  0  0  0  0  0  0  0  0  0
    1.2171  -33.5957   24.0289 H   0  0  0  0  0  0  0  0  0  0  0  0
    0.7444  -33.5177   26.3098 H   0  0  0  0  0  0  0  0  0  0  0  0
    1.7996  -32.1641   26.6194 H   0  0  0  0  0  0  0  0  0  0  0  0
    2.7236  -34.9030   25.6897 H   0  0  0  0  0  0  0  0  0  0  0  0
    2.8098  -34.3634   27.3485 H   0  0  0  0  0  0  0  0  0  0  0  0
    4.8801  -34.1222   25.6060 H   0  0  0  0  0  0  0  0  0  0  0  0
    4.6708  -33.0003   26.9383 H   0  0  0  0  0  0  0  0  0  0  0  0
    3.6560  -31.3626   25.5523 H   0  0  0  0  0  0  0  0  0  0  0  0
    3.3872  -33.5281   23.4887 H   0  0  0  0  0  0  0  0  0  0  0  0
    3.1108  -31.8440   23.1572 H   0  0  0  0  0  0  0  0  0  0  0  0
    7.4635  -29.9227   23.1018 H   0  0  0  0  0  0  0  0  0  0  0  0
    7.6562  -30.8900   24.5437 H   0  0  0  0  0  0  0  0  0  0  0  0
    6.7502  -27.9996   24.3176 H   0  0  0  0  0  0  0  0  0  0  0  0
    8.0123  -28.6909   25.2948 H   0  0  0  0  0  0  0  0  0  0  0  0
    6.4246  -28.3888   26.9768 H   0  0  0  0  0  0  0  0  0  0  0  0
    5.9359  -29.9688   26.4479 H   0  0  0  0  0  0  0  0  0  0  0  0
    4.4579  -28.5236   24.7155 H   0  0  0  0  0  0  0  0  0  0  0  0
    4.6233  -27.2905   25.9406 H   0  0  0  0  0  0  0  0  0  0  0  0
    3.7172  -29.0910   27.6179 H   0  0  0  0  0  0  0  0  0  0  0  0
    1.7369  -30.0191   26.7735 H   0  0  0  0  0  0  0  0  0  0  0  0
   -1.6479  -33.0898   21.4680 H   0  0  0  0  0  0  0  0  0  0  0  0
   -3.4320  -33.0773   19.7342 H   0  0  0  0  0  0  0  0  0  0  0  0
   -4.2560  -28.9809   20.6436 H   0  0  0  0  0  0  0  0  0  0  0  0
   -2.6263  -29.0520   22.4457 H   0  0  0  0  0  0  0  0  0  0  0  0
   -7.2870  -31.5302   17.5343 H   0  0  0  0  0  0  0  0  0  0  0  0
   -9.0373  -30.8347   15.9127 H   0  0  0  0  0  0  0  0  0  0  0  0
   -9.0401  -28.4662   15.0658 H   0  0  0  0  0  0  0  0  0  0  0  0
   -7.2640  -26.9299   15.8748 H   0  0  0  0  0  0  0  0  0  0  0  0
  1  2  1  0
  1 26  1  0
  1 27  1  0
  2  3  2  0
  3  4  1  0
  4  5  2  0
  4 45  1  0
  5  6  1  0
  6  7  2  0
  7  8  1  0
  7  2  1  0
  8 29  1  0
  8  9  2  0
  9 10  1  0
 10 11  1  0
 10  6  1  0
 11 12  1  0
 11 46  1  6
 12 13  1  0
 12 47  1  0
 12 48  1  0
 13 14  1  0
 13 49  1  0
 13 50  1  0
 14 15  1  0
 14 51  1  0
 14 52  1  0
 15 16  1  0
 15 17  1  0
 15 53  1  1
 16 11  1  0
 16 54  1  0
 16 55  1  0
 17 18  1  0
 17 28  1  0
 18 19  2  0
 18 20  1  0
 20 21  1  0
 20 56  1  0
 20 57  1  0
 21 22  1  0
 21 58  1  0
 21 59  1  0
 22 23  1  0
 22 60  1  0
 22 61  1  0
 23 24  1  0
 23 62  1  0
 23 63  1  0
 24 25  2  0
 24 64  1  0
 25  5  1  0
 25 65  1  0
 29 30  2  0
 30 31  1  0
 30 66  1  0
 31 32  2  0
 31 67  1  0
 32 35  1  0
 32 33  1  0
 33 34  2  0
 33 68  1  0
 34 29  1  0
 34 69  1  0
 35 36  2  0
 35 37  1  0
 37 39  1  0
 37 38  1  0
 39 40  2  0
 40 41  1  0
 40 70  1  0
 41 42  2  0
 41 71  1  0
 42 43  1  0
 42 72  1  0
 43 44  2  0
 43 73  1  0
 44 39  1  0
M  END
>  <minimizedAffinity>  (5) 
-11.20516

>  <mol_id>  (5) 
114484

>  <source_index>  (5) 
4

>  <layer>  (5) 
L2

>  <uniprot>  (5) 
Q06187

>  <paff>  (5) 
8.3010000000000002

>  <smiles>  (5) 
Nc1ncc2c3c1c(-c1ccc(C(=O)Nc4ccccn4)cc1)nn3[C@@H]1CCC[C@H](C1)NC(=O)CCCC/C=C/2

>  <aimnet_interaction_kcal_mol>  (5) 
-67.739307378081762

$$$$
L2:Q06187:118980
     RDKit          3D

 63 67  0  0  0  0  0  0  0  0999 V2000
   -5.5434  -26.2560   17.8476 C   0  0  0  0  0  0  0  0  0  0  0  0
   -4.5830  -26.7457   16.8258 C   0  0  0  0  0  0  0  0  0  0  0  0
   -3.3578  -26.1038   16.6069 C   0  0  0  0  0  0  0  0  0  0  0  0
   -2.4576  -26.6605   15.7038 C   0  0  0  0  0  0  0  0  0  0  0  0
   -2.8300  -27.7237   14.8979 C   0  0  0  0  0  0  0  0  0  0  0  0
   -4.0398  -28.3574   15.1211 C   0  0  0  0  0  0  0  0  0  0  0  0
   -4.8813  -27.8904   16.1022 C   0  0  0  0  0  0  0  0  0  0  0  0
   -6.0877  -28.5946   16.4140 N   0  0  0  0  0  0  0  0  0  0  0  0
   -7.2402  -28.1898   15.7212 C   0  0  0  0  0  0  0  0  0  0  0  0
   -7.2862  -27.2191   14.9914 O   0  0  0  0  0  0  0  0  0  0  0  0
   -8.3343  -29.0125   15.9138 N   0  0  0  0  0  0  0  0  0  0  0  0
   -8.4380  -29.9051   16.9694 C   0  0  0  0  0  0  0  0  0  0  0  0
   -9.6407  -30.5338   17.2482 C   0  0  0  0  0  0  0  0  0  0  0  0
  -10.6867  -30.2235   16.4383 F   0  0  0  0  0  0  0  0  0  0  0  0
   -9.7780  -31.4116   18.2954 C   0  0  0  0  0  0  0  0  0  0  0  0
   -8.6717  -31.6553   19.1086 C   0  0  0  0  0  0  0  0  0  0  0  0
   -7.4616  -31.0471   18.8629 C   0  0  0  0  0  0  0  0  0  0  0  0
   -7.3408  -30.1431   17.8005 C   0  0  0  0  0  0  0  0  0  0  0  0
   -6.0974  -29.4043   17.5774 C   0  0  0  0  0  0  0  0  0  0  0  0
   -5.1376  -29.4311   18.3323 O   0  0  0  0  0  0  0  0  0  0  0  0
   -9.1765  -28.7820   15.4054 H   0  0  0  0  0  0  0  0  0  0  0  0
   -3.0160  -24.8446   17.2806 C   0  0  0  0  0  0  0  0  0  0  0  0
   -3.2915  -23.5497   16.8877 C   0  0  0  0  0  0  0  0  0  0  0  0
   -2.7103  -22.6752   17.8319 C   0  0  0  0  0  0  0  0  0  0  0  0
   -2.0470  -23.4438   18.7708 C   0  0  0  0  0  0  0  0  0  0  0  0
   -2.2864  -24.7752   18.4520 N   0  0  0  0  0  0  0  0  0  0  0  0
   -2.1606  -25.8552   19.3635 C   0  0  0  0  0  0  0  0  0  0  0  0
   -2.7101  -25.7382   20.6341 C   0  0  0  0  0  0  0  0  0  0  0  0
   -2.6598  -26.8015   21.5146 C   0  0  0  0  0  0  0  0  0  0  0  0
   -1.9828  -27.9710   21.1942 C   0  0  0  0  0  0  0  0  0  0  0  0
   -1.4376  -28.0749   19.9197 C   0  0  0  0  0  0  0  0  0  0  0  0
   -1.5473  -27.0418   18.9966 C   0  0  0  0  0  0  0  0  0  0  0  0
   -1.8227  -29.0819   22.2105 C   0  0  0  0  0  0  0  0  0  0  0  0
   -2.4391  -30.3711   21.6836 C   0  0  0  0  0  0  0  0  0  0  0  0
   -0.3414  -29.2954   22.5251 C   0  0  0  0  0  0  0  0  0  0  0  0
   -2.5381  -28.6962   23.3928 O   0  0  0  0  0  0  0  0  0  0  0  0
   -1.9210  -28.6737   24.1454 H   0  0  0  0  0  0  0  0  0  0  0  0
   -1.0684  -23.0825   19.8069 C   0  0  0  0  0  0  0  0  0  0  0  0
   -1.2849  -21.8631   20.4154 N   0  0  0  0  0  0  0  0  0  0  0  0
   -0.0944  -23.7733   20.0818 O   0  0  0  0  0  0  0  0  0  0  0  0
   -2.2461  -21.5853   20.5235 H   0  0  0  0  0  0  0  0  0  0  0  0
   -0.7436  -21.7491   21.2583 H   0  0  0  0  0  0  0  0  0  0  0  0
   -5.1307  -25.3684   18.3006 H   0  0  0  0  0  0  0  0  0  0  0  0
   -5.6903  -27.0037   18.6268 H   0  0  0  0  0  0  0  0  0  0  0  0
   -6.5211  -26.0051   17.4263 H   0  0  0  0  0  0  0  0  0  0  0  0
   -1.4564  -26.2603   15.6559 H   0  0  0  0  0  0  0  0  0  0  0  0
   -2.1748  -28.0673   14.1105 H   0  0  0  0  0  0  0  0  0  0  0  0
   -4.3019  -29.2427   14.5675 H   0  0  0  0  0  0  0  0  0  0  0  0
  -10.7059  -31.9312   18.4727 H   0  0  0  0  0  0  0  0  0  0  0  0
   -8.7928  -32.3486   19.9241 H   0  0  0  0  0  0  0  0  0  0  0  0
   -6.5899  -31.2521   19.4641 H   0  0  0  0  0  0  0  0  0  0  0  0
   -3.7349  -23.3083   15.9406 H   0  0  0  0  0  0  0  0  0  0  0  0
   -2.6983  -21.5988   17.7966 H   0  0  0  0  0  0  0  0  0  0  0  0
   -3.1460  -24.8021   20.9443 H   0  0  0  0  0  0  0  0  0  0  0  0
   -3.1372  -26.7211   22.4764 H   0  0  0  0  0  0  0  0  0  0  0  0
   -0.9238  -28.9822   19.6327 H   0  0  0  0  0  0  0  0  0  0  0  0
   -1.1621  -27.1551   17.9944 H   0  0  0  0  0  0  0  0  0  0  0  0
   -1.9125  -30.7246   20.8003 H   0  0  0  0  0  0  0  0  0  0  0  0
   -3.4787  -30.2095   21.4149 H   0  0  0  0  0  0  0  0  0  0  0  0
   -2.3892  -31.1445   22.4456 H   0  0  0  0  0  0  0  0  0  0  0  0
    0.1955  -29.6545   21.6475 H   0  0  0  0  0  0  0  0  0  0  0  0
   -0.2326  -30.0422   23.3106 H   0  0  0  0  0  0  0  0  0  0  0  0
    0.1255  -28.3679   22.8542 H   0  0  0  0  0  0  0  0  0  0  0  0
  1  2  1  0
  1 43  1  0
  1 44  1  0
  1 45  1  0
  2  3  2  0
  3 22  1  0
  3  4  1  0
  4  5  2  0
  4 46  1  0
  5  6  1  0
  5 47  1  0
  6  7  2  0
  6 48  1  0
  7  8  1  0
  7  2  1  0
  8  9  1  0
  9 10  2  0
  9 11  1  0
 11 12  1  0
 11 21  1  0
 12 13  2  0
 13 14  1  0
 13 15  1  0
 15 16  2  0
 15 49  1  0
 16 17  1  0
 16 50  1  0
 17 18  2  0
 17 51  1  0
 18 19  1  0
 18 12  1  0
 19 20  2  0
 19  8  1  0
 22 23  2  0
 23 24  1  0
 23 52  1  0
 24 25  2  0
 24 53  1  0
 25 38  1  0
 25 26  1  0
 26 27  1  0
 26 22  1  0
 27 28  2  0
 28 29  1  0
 28 54  1  0
 29 30  2  0
 29 55  1  0
 30 33  1  0
 30 31  1  0
 31 32  2  0
 31 56  1  0
 32 27  1  0
 32 57  1  0
 33 34  1  0
 33 35  1  0
 33 36  1  0
 34 58  1  0
 34 59  1  0
 34 60  1  0
 35 61  1  0
 35 62  1  0
 35 63  1  0
 36 37  1  0
 38 39  1  0
 38 40  2  0
 39 41  1  0
 39 42  1  0
M  END
>  <minimizedAffinity>  (6) 
-10.94813

>  <mol_id>  (6) 
118980

>  <source_index>  (6) 
5

>  <layer>  (6) 
L2

>  <uniprot>  (6) 
Q06187

>  <paff>  (6) 
6

>  <smiles>  (6) 
Cc1c(-c2ccc(C(N)=O)n2-c2ccc(C(C)(C)O)cc2)cccc1-n1c(=O)[nH]c2c(F)cccc2c1=O

>  <aimnet_interaction_kcal_mol>  (6) 
-60.597352727143964

$$$$
L2:Q06187:133412
     RDKit          3D

 53 58  0  0  0  0  0  0  0  0999 V2000
   -7.4213  -30.7731   17.1750 C   0  0  0  0  0  0  0  0  0  0  0  0
   -8.6804  -31.3266   17.2021 C   0  0  0  0  0  0  0  0  0  0  0  0
   -9.5803  -30.4201   16.7018 N   0  0  0  0  0  0  0  0  0  0  0  0
   -8.9277  -29.2626   16.3350 C   0  0  0  0  0  0  0  0  0  0  0  0
   -9.4887  -28.1935   15.7821 N   0  0  0  0  0  0  0  0  0  0  0  0
   -8.6308  -27.2470   15.4022 C   0  0  0  0  0  0  0  0  0  0  0  0
   -7.2612  -27.2833   15.6583 C   0  0  0  0  0  0  0  0  0  0  0  0
   -6.6918  -28.3940   16.3047 C   0  0  0  0  0  0  0  0  0  0  0  0
   -7.5596  -29.4499   16.6323 C   0  0  0  0  0  0  0  0  0  0  0  0
   -5.3675  -28.3543   16.6397 N   0  0  0  0  0  0  0  0  0  0  0  0
   -4.4754  -27.2752   16.2408 C   0  0  1  0  0  0  0  0  0  0  0  0
   -3.3801  -27.0932   17.2814 C   0  0  0  0  0  0  0  0  0  0  0  0
   -2.1360  -26.8152   16.4579 C   0  0  0  0  0  0  0  0  0  0  0  0
   -2.3064  -27.6290   15.2927 O   0  0  0  0  0  0  0  0  0  0  0  0
   -3.6700  -27.6216   14.9494 C   0  0  0  0  0  0  0  0  0  0  0  0
   -5.2364  -25.9756   15.9789 C   0  0  0  0  0  0  0  0  0  0  0  0
   -4.7690  -24.8665   16.2448 O   0  0  0  0  0  0  0  0  0  0  0  0
   -6.4458  -26.1673   15.3896 N   0  0  0  0  0  0  0  0  0  0  0  0
  -10.5479  -30.6084   16.5209 H   0  0  0  0  0  0  0  0  0  0  0  0
   -4.9135  -29.2433   16.7884 H   0  0  0  0  0  0  0  0  0  0  0  0
   -6.7974  -25.4678   14.7531 H   0  0  0  0  0  0  0  0  0  0  0  0
   -5.8560  -32.4049   16.5806 O   0  0  0  0  0  0  0  0  0  0  0  0
   -6.1773  -31.5451   17.3840 C   0  0  0  0  0  0  0  0  0  0  0  0
   -5.3216  -31.2224   18.5558 C   0  0  0  0  0  0  0  0  0  0  0  0
   -5.2945  -29.9320   19.0716 C   0  0  0  0  0  0  0  0  0  0  0  0
   -4.2445  -29.4915   19.8526 C   0  0  0  0  0  0  0  0  0  0  0  0
   -3.2603  -30.3965   20.2392 C   0  0  0  0  0  0  0  0  0  0  0  0
   -3.4001  -31.7480   19.9503 C   0  0  0  0  0  0  0  0  0  0  0  0
   -4.4216  -32.1478   19.1031 C   0  0  0  0  0  0  0  0  0  0  0  0
   -4.5982  -33.8434   18.7711 Cl  0  0  0  0  0  0  0  0  0  0  0  0
   -2.1253  -30.0134   20.9102 O   0  0  0  0  0  0  0  0  0  0  0  0
   -1.9151  -28.6491   21.0738 C   0  0  0  0  0  0  0  0  0  0  0  0
   -1.3624  -27.9160   20.0344 C   0  0  0  0  0  0  0  0  0  0  0  0
   -1.2243  -26.5408   20.1624 C   0  0  0  0  0  0  0  0  0  0  0  0
   -1.5927  -25.9056   21.3384 C   0  0  0  0  0  0  0  0  0  0  0  0
   -2.0783  -26.6632   22.3936 C   0  0  0  0  0  0  0  0  0  0  0  0
   -2.2219  -28.0389   22.2786 C   0  0  0  0  0  0  0  0  0  0  0  0
   -8.9686  -32.3145   17.5127 H   0  0  0  0  0  0  0  0  0  0  0  0
   -9.0413  -26.4088   14.8541 H   0  0  0  0  0  0  0  0  0  0  0  0
   -3.2619  -28.0189   17.8387 H   0  0  0  0  0  0  0  0  0  0  0  0
   -3.6074  -26.2988   17.9897 H   0  0  0  0  0  0  0  0  0  0  0  0
   -1.2098  -27.1412   16.9231 H   0  0  0  0  0  0  0  0  0  0  0  0
   -2.0580  -25.7587   16.2041 H   0  0  0  0  0  0  0  0  0  0  0  0
   -3.9522  -28.6040   14.5721 H   0  0  0  0  0  0  0  0  0  0  0  0
   -3.8410  -26.8813   14.1644 H   0  0  0  0  0  0  0  0  0  0  0  0
   -6.1168  -29.2643   18.8519 H   0  0  0  0  0  0  0  0  0  0  0  0
   -4.1786  -28.4572   20.1546 H   0  0  0  0  0  0  0  0  0  0  0  0
   -2.7129  -32.4673   20.3691 H   0  0  0  0  0  0  0  0  0  0  0  0
   -1.0470  -28.4270   19.1395 H   0  0  0  0  0  0  0  0  0  0  0  0
   -0.8414  -25.9624   19.3318 H   0  0  0  0  0  0  0  0  0  0  0  0
   -1.5209  -24.8315   21.4300 H   0  0  0  0  0  0  0  0  0  0  0  0
   -2.3621  -26.1815   23.3179 H   0  0  0  0  0  0  0  0  0  0  0  0
   -2.5437  -28.6336   23.1210 H   0  0  0  0  0  0  0  0  0  0  0  0
  1  2  2  0
  2  3  1  0
  2 38  1  0
  3  4  1  0
  3 19  1  0
  4  5  2  0
  5  6  1  0
  6  7  2  0
  6 39  1  0
  7  8  1  0
  8  9  2  0
  8 10  1  0
  9  1  1  0
  9  4  1  0
 10 20  1  0
 11 10  1  1
 11 12  1  0
 11 16  1  0
 12 13  1  0
 12 40  1  0
 12 41  1  0
 13 14  1  0
 13 42  1  0
 13 43  1  0
 14 15  1  0
 15 11  1  0
 15 44  1  0
 15 45  1  0
 16 17  2  0
 16 18  1  0
 18  7  1  0
 18 21  1  0
 22 23  2  0
 23 24  1  0
 23  1  1  0
 24 25  2  0
 25 26  1  0
 25 46  1  0
 26 27  2  0
 26 47  1  0
 27 31  1  0
 27 28  1  0
 28 29  2  0
 28 48  1  0
 29 30  1  0
 29 24  1  0
 31 32  1  0
 32 33  2  0
 33 34  1  0
 33 49  1  0
 34 35  2  0
 34 50  1  0
 35 36  1  0
 35 51  1  0
 36 37  2  0
 36 52  1  0
 37 32  1  0
 37 53  1  0
M  END
>  <minimizedAffinity>  (7) 
-11.44346

>  <mol_id>  (7) 
133412

>  <source_index>  (7) 
6

>  <layer>  (7) 
L2

>  <uniprot>  (7) 
Q06187

>  <paff>  (7) 
7.3851000000000004

>  <smiles>  (7) 
O=C(c1ccc(Oc2ccccc2)cc1Cl)c1c[nH]c2ncc3c(c12)NC1(CCOC1)C(=O)N3

>  <aimnet_interaction_kcal_mol>  (7) 
-64.970268999094984

$$$$
L2:Q06187:133702
     RDKit          3D

 77 82  0  0  0  0  0  0  0  0999 V2000
   -0.3142  -28.4186   22.4614 C   0  0  0  0  0  0  0  0  0  0  0  0
    0.7742  -29.0916   22.8303 N   0  0  0  0  0  0  0  0  0  0  0  0
    1.3798  -28.3638   23.8021 N   0  0  0  0  0  0  0  0  0  0  0  0
    0.7142  -27.1887   24.0605 C   0  0  0  0  0  0  0  0  0  0  0  0
    0.9215  -26.1140   24.9550 C   0  0  0  0  0  0  0  0  0  0  0  0
    0.0565  -25.0524   24.7568 C   0  0  0  0  0  0  0  0  0  0  0  0
   -0.9817  -25.0063   23.9101 N   0  0  0  0  0  0  0  0  0  0  0  0
   -1.2382  -26.0663   23.1503 C   0  0  0  0  0  0  0  0  0  0  0  0
   -2.4106  -26.0243   22.4406 N   0  0  0  0  0  0  0  0  0  0  0  0
   -0.3795  -27.1794   23.1614 C   0  0  0  0  0  0  0  0  0  0  0  0
    1.7886  -26.1040   26.1865 C   0  0  0  0  0  0  0  0  0  0  0  0
    1.0054  -26.6176   27.4109 C   0  0  0  0  0  0  0  0  0  0  0  0
    1.8438  -27.2280   28.5343 C   0  0  0  0  0  0  0  0  0  0  0  0
    1.1012  -28.3663   29.2449 C   0  0  0  0  0  0  0  0  0  0  0  0
    2.0030  -29.4372   29.7034 N   0  0  0  0  0  0  0  0  0  0  0  0
    1.3875  -30.7630   29.7119 C   0  0  0  0  0  0  0  0  0  0  0  0
    1.2855  -31.3028   28.2760 C   0  0  0  0  0  0  0  0  0  0  0  0
    0.3481  -31.9859   27.8933 O   0  0  0  0  0  0  0  0  0  0  0  0
    2.3180  -30.9024   27.4965 N   0  0  0  0  0  0  0  0  0  0  0  0
    2.2087  -30.6962   26.0593 C   0  0  2  0  0  0  0  0  0  0  0  0
    3.0964  -31.6229   25.2513 C   0  0  0  0  0  0  0  0  0  0  0  0
    2.9966  -31.2636   23.7801 C   0  0  0  0  0  0  0  0  0  0  0  0
    3.4211  -29.8196   23.5194 C   0  0  0  0  0  0  0  0  0  0  0  0
    2.6751  -28.7830   24.3511 C   0  0  2  0  0  0  0  0  0  0  0  0
    2.5715  -29.2399   25.7964 C   0  0  0  0  0  0  0  0  0  0  0  0
   -2.5455  -26.6987   21.7116 H   0  0  0  0  0  0  0  0  0  0  0  0
   -2.7379  -25.0909   22.2435 H   0  0  0  0  0  0  0  0  0  0  0  0
    2.3920  -29.2119   30.6072 H   0  0  0  0  0  0  0  0  0  0  0  0
    2.9195  -30.2695   28.0117 H   0  0  0  0  0  0  0  0  0  0  0  0
   -3.4422  -30.1852   20.1534 C   0  0  0  0  0  0  0  0  0  0  0  0
   -2.7449  -30.9196   21.1186 C   0  0  0  0  0  0  0  0  0  0  0  0
   -1.6948  -30.3642   21.8183 C   0  0  0  0  0  0  0  0  0  0  0  0
   -1.2799  -29.0507   21.5705 C   0  0  0  0  0  0  0  0  0  0  0  0
   -1.8665  -28.3836   20.4858 C   0  0  0  0  0  0  0  0  0  0  0  0
   -2.9668  -28.9111   19.8333 C   0  0  0  0  0  0  0  0  0  0  0  0
   -5.3920  -30.0607   18.6909 N   0  0  0  0  0  0  0  0  0  0  0  0
   -4.6422  -30.8345   19.5617 C   0  0  0  0  0  0  0  0  0  0  0  0
   -4.9607  -31.9776   19.8575 O   0  0  0  0  0  0  0  0  0  0  0  0
   -4.9424  -29.3248   18.1703 H   0  0  0  0  0  0  0  0  0  0  0  0
   -9.7396  -32.3128   19.2281 C   0  0  0  0  0  0  0  0  0  0  0  0
   -8.8607  -31.3340   18.5427 C   0  0  0  0  0  0  0  0  0  0  0  0
   -9.2927  -30.5382   17.4788 C   0  0  0  0  0  0  0  0  0  0  0  0
   -8.4113  -29.6321   16.9220 C   0  0  0  0  0  0  0  0  0  0  0  0
   -7.1498  -29.4610   17.3331 N   0  0  0  0  0  0  0  0  0  0  0  0
   -6.7224  -30.2701   18.3138 C   0  0  0  0  0  0  0  0  0  0  0  0
   -7.5397  -31.2024   18.9467 C   0  0  0  0  0  0  0  0  0  0  0  0
    0.1907  -24.1630   25.3667 H   0  0  0  0  0  0  0  0  0  0  0  0
    2.1265  -25.0836   26.3682 H   0  0  0  0  0  0  0  0  0  0  0  0
    2.6906  -26.6830   26.0286 H   0  0  0  0  0  0  0  0  0  0  0  0
    0.3001  -27.3648   27.0475 H   0  0  0  0  0  0  0  0  0  0  0  0
    0.3836  -25.8037   27.7926 H   0  0  0  0  0  0  0  0  0  0  0  0
    2.1594  -26.4707   29.2539 H   0  0  0  0  0  0  0  0  0  0  0  0
    2.7655  -27.6373   28.1250 H   0  0  0  0  0  0  0  0  0  0  0  0
    0.3993  -28.8145   28.5449 H   0  0  0  0  0  0  0  0  0  0  0  0
    0.4928  -27.9743   30.0695 H   0  0  0  0  0  0  0  0  0  0  0  0
    0.3729  -30.7757   30.1184 H   0  0  0  0  0  0  0  0  0  0  0  0
    1.9918  -31.4498   30.3072 H   0  0  0  0  0  0  0  0  0  0  0  0
    1.1692  -30.8846   25.7933 H   0  0  0  0  0  0  0  0  0  0  0  0
    2.8086  -32.6603   25.4142 H   0  0  0  0  0  0  0  0  0  0  0  0
    4.1277  -31.5195   25.5957 H   0  0  0  0  0  0  0  0  0  0  0  0
    1.9735  -31.4151   23.4436 H   0  0  0  0  0  0  0  0  0  0  0  0
    3.6218  -31.9258   23.1890 H   0  0  0  0  0  0  0  0  0  0  0  0
    3.3504  -29.5791   22.4595 H   0  0  0  0  0  0  0  0  0  0  0  0
    4.4772  -29.7258   23.7863 H   0  0  0  0  0  0  0  0  0  0  0  0
    3.2630  -27.8601   24.3486 H   0  0  0  0  0  0  0  0  0  0  0  0
    1.8494  -28.6228   26.3137 H   0  0  0  0  0  0  0  0  0  0  0  0
    3.5465  -29.0533   26.2492 H   0  0  0  0  0  0  0  0  0  0  0  0
   -3.0589  -31.9349   21.3088 H   0  0  0  0  0  0  0  0  0  0  0  0
   -1.1840  -30.9399   22.5766 H   0  0  0  0  0  0  0  0  0  0  0  0
   -1.4266  -27.4605   20.1239 H   0  0  0  0  0  0  0  0  0  0  0  0
   -3.4224  -28.3149   19.0523 H   0  0  0  0  0  0  0  0  0  0  0  0
  -10.7910  -32.1065   19.0698 H   0  0  0  0  0  0  0  0  0  0  0  0
   -9.5775  -32.3103   20.3029 H   0  0  0  0  0  0  0  0  0  0  0  0
   -9.5195  -33.3195   18.8861 H   0  0  0  0  0  0  0  0  0  0  0  0
  -10.2915  -30.6314   17.0776 H   0  0  0  0  0  0  0  0  0  0  0  0
   -8.7310  -28.9972   16.0991 H   0  0  0  0  0  0  0  0  0  0  0  0
   -7.1142  -31.8258   19.7119 H   0  0  0  0  0  0  0  0  0  0  0  0
  1  2  2  0
  2  3  1  0
  3  4  1  0
  4  5  2  0
  5  6  1  0
  5 11  1  0
  6  7  2  0
  6 47  1  0
  7  8  1  0
  8  9  1  0
  8 10  2  0
  9 26  1  0
  9 27  1  0
 10  1  1  0
 10  4  1  0
 11 12  1  0
 11 48  1  0
 11 49  1  0
 12 13  1  0
 12 50  1  0
 12 51  1  0
 13 14  1  0
 13 52  1  0
 13 53  1  0
 14 15  1  0
 14 54  1  0
 14 55  1  0
 15 16  1  0
 15 28  1  0
 16 17  1  0
 16 56  1  0
 16 57  1  0
 17 18  2  0
 17 19  1  0
 19 20  1  0
 19 29  1  0
 20 21  1  0
 20 58  1  6
 21 22  1  0
 21 59  1  0
 21 60  1  0
 22 23  1  0
 22 61  1  0
 22 62  1  0
 23 24  1  0
 23 63  1  0
 23 64  1  0
 24 25  1  0
 24  3  1  0
 24 65  1  1
 25 20  1  0
 25 66  1  0
 25 67  1  0
 30 31  2  0
 31 32  1  0
 31 68  1  0
 32 33  2  0
 32 69  1  0
 33  1  1  0
 33 34  1  0
 34 35  2  0
 34 70  1  0
 35 30  1  0
 35 71  1  0
 36 37  1  0
 36 39  1  0
 37 38  2  0
 37 30  1  0
 40 41  1  0
 40 72  1  0
 40 73  1  0
 40 74  1  0
 41 42  2  0
 42 43  1  0
 42 75  1  0
 43 44  2  0
 43 76  1  0
 44 45  1  0
 45 36  1  0
 45 46  2  0
 46 41  1  0
 46 77  1  0
M  END
>  <minimizedAffinity>  (8) 
-10.01742

>  <mol_id>  (8) 
133702

>  <source_index>  (8) 
7

>  <layer>  (8) 
L2

>  <uniprot>  (8) 
Q06187

>  <paff>  (8) 
8.3010000000000002

>  <smiles>  (8) 
Cc1ccnc(NC(=O)c2ccc(-c3nn4c5c(cnc(N)c35)CCCCNCC(=O)N[C@@H]3CCC[C@@H]4C3)cc2)c1

>  <aimnet_interaction_kcal_mol>  (8) 
-61.212764095327742

$$$$
L2:Q06187:140872
     RDKit          3D

 82 88  0  0  0  0  0  0  0  0999 V2000
   -2.4443  -28.0296   21.0676 C   0  0  0  0  0  0  0  0  0  0  0  0
   -3.1833  -27.7385   19.9181 C   0  0  0  0  0  0  0  0  0  0  0  0
   -4.0201  -28.6919   19.3597 C   0  0  0  0  0  0  0  0  0  0  0  0
   -4.1678  -29.9633   19.9115 C   0  0  0  0  0  0  0  0  0  0  0  0
   -3.4331  -30.2514   21.0652 C   0  0  0  0  0  0  0  0  0  0  0  0
   -2.7044  -29.2487   21.6870 C   0  0  0  0  0  0  0  0  0  0  0  0
   -3.3810  -31.6241   21.6448 C   0  0  0  0  0  0  0  0  0  0  0  0
   -2.8439  -32.7195   20.7317 C   0  0  0  0  0  0  0  0  0  0  0  0
   -3.8967  -33.2311   19.7749 C   0  0  0  0  0  0  0  0  0  0  0  0
   -4.3500  -32.2164   18.7509 C   0  0  0  0  0  0  0  0  0  0  0  0
   -5.0922  -31.0059   19.3107 C   0  0  2  0  0  0  0  0  0  0  0  0
    1.5065  -28.7102   23.1116 C   0  0  0  0  0  0  0  0  0  0  0  0
    1.9147  -27.4590   22.9966 N   0  0  0  0  0  0  0  0  0  0  0  0
    0.8623  -26.7555   22.4637 C   0  0  0  0  0  0  0  0  0  0  0  0
    0.8479  -25.4420   22.2306 N   0  0  0  0  0  0  0  0  0  0  0  0
   -0.2953  -24.9826   21.7214 C   0  0  0  0  0  0  0  0  0  0  0  0
   -1.3980  -25.7649   21.3864 C   0  0  0  0  0  0  0  0  0  0  0  0
   -1.3817  -27.1555   21.5638 C   0  0  0  0  0  0  0  0  0  0  0  0
   -0.2244  -27.6294   22.1958 C   0  0  0  0  0  0  0  0  0  0  0  0
    0.2153  -28.8590   22.6343 N   0  0  0  0  0  0  0  0  0  0  0  0
   -0.3433  -29.6858   22.7295 H   0  0  0  0  0  0  0  0  0  0  0  0
    0.6887  -31.7789   23.9686 C   0  0  0  0  0  0  0  0  0  0  0  0
    2.0122  -31.1096   23.8937 C   0  0  0  0  0  0  0  0  0  0  0  0
    2.3326  -29.7837   23.5796 C   0  0  0  0  0  0  0  0  0  0  0  0
    3.7286  -29.6938   23.7714 C   0  0  0  0  0  0  0  0  0  0  0  0
    4.2364  -30.8481   24.1480 N   0  0  0  0  0  0  0  0  0  0  0  0
    3.1891  -31.7050   24.2005 N   0  0  0  0  0  0  0  0  0  0  0  0
    3.4021  -33.1080   24.5682 C   0  0  0  0  0  0  0  0  0  0  0  0
    4.7889  -33.5991   24.1884 C   0  0  0  0  0  0  0  0  0  0  0  0
    5.8774  -33.2121   25.1765 C   0  0  0  0  0  0  0  0  0  0  0  0
    5.5072  -33.5282   26.5177 O   0  0  0  0  0  0  0  0  0  0  0  0
    4.3124  -32.8684   26.8965 C   0  0  0  0  0  0  0  0  0  0  0  0
    3.1422  -33.3336   26.0510 C   0  0  0  0  0  0  0  0  0  0  0  0
   -5.9275  -30.4459   18.2698 N   0  0  0  0  0  0  0  0  0  0  0  0
   -7.2580  -30.2755   18.4031 C   0  0  0  0  0  0  0  0  0  0  0  0
   -7.9174  -30.5702   19.3917 O   0  0  0  0  0  0  0  0  0  0  0  0
   -5.5266  -30.3557   17.3516 H   0  0  0  0  0  0  0  0  0  0  0  0
   -7.8678  -29.5944   17.2322 C   0  0  0  0  0  0  0  0  0  0  0  0
   -9.0917  -29.5832   16.7990 N   0  0  0  0  0  0  0  0  0  0  0  0
   -9.1498  -28.6185   15.7919 N   0  0  0  0  0  0  0  0  0  0  0  0
   -7.9583  -28.0986   15.6938 C   0  0  0  0  0  0  0  0  0  0  0  0
   -7.0776  -28.7032   16.5392 O   0  0  0  0  0  0  0  0  0  0  0  0
   -7.5450  -26.8934   14.9158 C   0  0  0  0  0  0  0  0  0  0  0  0
   -6.2181  -26.3581   15.4428 C   0  0  0  0  0  0  0  0  0  0  0  0
   -8.6573  -25.8702   15.1307 C   0  0  0  0  0  0  0  0  0  0  0  0
   -7.4984  -27.2555   13.4333 C   0  0  0  0  0  0  0  0  0  0  0  0
   -3.0787  -26.7780   19.4295 H   0  0  0  0  0  0  0  0  0  0  0  0
   -4.5589  -28.4342   18.4573 H   0  0  0  0  0  0  0  0  0  0  0  0
   -2.3414  -29.4093   22.6919 H   0  0  0  0  0  0  0  0  0  0  0  0
   -4.3757  -31.9167   21.9653 H   0  0  0  0  0  0  0  0  0  0  0  0
   -2.7808  -31.5829   22.5457 H   0  0  0  0  0  0  0  0  0  0  0  0
   -2.4842  -33.5490   21.3393 H   0  0  0  0  0  0  0  0  0  0  0  0
   -1.9825  -32.3554   20.1724 H   0  0  0  0  0  0  0  0  0  0  0  0
   -4.7542  -33.5906   20.3339 H   0  0  0  0  0  0  0  0  0  0  0  0
   -3.5109  -34.0897   19.2349 H   0  0  0  0  0  0  0  0  0  0  0  0
   -5.0264  -32.7128   18.0535 H   0  0  0  0  0  0  0  0  0  0  0  0
   -3.4878  -31.8685   18.1998 H   0  0  0  0  0  0  0  0  0  0  0  0
   -5.7829  -31.3632   20.0646 H   0  0  0  0  0  0  0  0  0  0  0  0
   -0.3460  -23.9105   21.5665 H   0  0  0  0  0  0  0  0  0  0  0  0
   -2.2845  -25.2739   21.0119 H   0  0  0  0  0  0  0  0  0  0  0  0
   -0.0250  -31.1728   24.5263 H   0  0  0  0  0  0  0  0  0  0  0  0
    0.7616  -32.7368   24.4732 H   0  0  0  0  0  0  0  0  0  0  0  0
    0.2674  -31.9665   22.9821 H   0  0  0  0  0  0  0  0  0  0  0  0
    4.3645  -28.8325   23.6677 H   0  0  0  0  0  0  0  0  0  0  0  0
    2.6825  -33.6762   23.9819 H   0  0  0  0  0  0  0  0  0  0  0  0
    5.0441  -33.2382   23.1955 H   0  0  0  0  0  0  0  0  0  0  0  0
    4.7351  -34.6844   24.1408 H   0  0  0  0  0  0  0  0  0  0  0  0
    6.1103  -32.1501   25.0857 H   0  0  0  0  0  0  0  0  0  0  0  0
    6.7815  -33.7840   24.9689 H   0  0  0  0  0  0  0  0  0  0  0  0
    4.4273  -31.7804   26.8099 H   0  0  0  0  0  0  0  0  0  0  0  0
    4.1477  -33.1031   27.9471 H   0  0  0  0  0  0  0  0  0  0  0  0
    2.2287  -32.8262   26.3647 H   0  0  0  0  0  0  0  0  0  0  0  0
    2.9985  -34.4043   26.1980 H   0  0  0  0  0  0  0  0  0  0  0  0
   -6.2761  -26.1374   16.5095 H   0  0  0  0  0  0  0  0  0  0  0  0
   -5.9693  -25.4478   14.9124 H   0  0  0  0  0  0  0  0  0  0  0  0
   -5.4027  -27.0594   15.2898 H   0  0  0  0  0  0  0  0  0  0  0  0
   -8.8283  -25.6666   16.1841 H   0  0  0  0  0  0  0  0  0  0  0  0
   -9.5705  -26.2413   14.6833 H   0  0  0  0  0  0  0  0  0  0  0  0
   -8.4139  -24.9402   14.6319 H   0  0  0  0  0  0  0  0  0  0  0  0
   -6.5335  -27.6511   13.1358 H   0  0  0  0  0  0  0  0  0  0  0  0
   -7.7177  -26.3880   12.8247 H   0  0  0  0  0  0  0  0  0  0  0  0
   -8.2629  -27.9836   13.1909 H   0  0  0  0  0  0  0  0  0  0  0  0
  1  2  2  0
  2  3  1  0
  2 47  1  0
  3  4  2  0
  3 48  1  0
  4  5  1  0
  5  6  2  0
  5  7  1  0
  6  1  1  0
  6 49  1  0
  7  8  1  0
  7 50  1  0
  7 51  1  0
  8  9  1  0
  8 52  1  0
  8 53  1  0
  9 10  1  0
  9 54  1  0
  9 55  1  0
 10 11  1  0
 10 56  1  0
 10 57  1  0
 11 34  1  0
 11  4  1  0
 11 58  1  1
 12 13  2  0
 13 14  1  0
 14 15  2  0
 15 16  1  0
 16 17  2  0
 16 59  1  0
 17 18  1  0
 17 60  1  0
 18  1  1  0
 18 19  2  0
 19 20  1  0
 19 14  1  0
 20 12  1  0
 20 21  1  0
 22 23  1  0
 22 61  1  0
 22 62  1  0
 22 63  1  0
 23 24  2  0
 24 12  1  0
 24 25  1  0
 25 26  2  0
 25 64  1  0
 26 27  1  0
 27 28  1  0
 27 23  1  0
 28 29  1  0
 28 65  1  0
 29 30  1  0
 29 66  1  0
 29 67  1  0
 30 31  1  0
 30 68  1  0
 30 69  1  0
 31 32  1  0
 32 33  1  0
 32 70  1  0
 32 71  1  0
 33 28  1  0
 33 72  1  0
 33 73  1  0
 34 35  1  0
 34 37  1  0
 35 36  2  0
 35 38  1  0
 38 39  2  0
 39 40  1  0
 40 41  2  0
 41 43  1  0
 41 42  1  0
 42 38  1  0
 43 44  1  0
 43 45  1  0
 43 46  1  0
 44 74  1  0
 44 75  1  0
 44 76  1  0
 45 77  1  0
 45 78  1  0
 45 79  1  0
 46 80  1  0
 46 81  1  0
 46 82  1  0
M  END
>  <minimizedAffinity>  (9) 
-11.36658

>  <mol_id>  (9) 
140872

>  <source_index>  (9) 
8

>  <layer>  (9) 
L2

>  <uniprot>  (9) 
Q06187

>  <paff>  (9) 
8.2596000000000007

>  <smiles>  (9) 
Cc1c(-c2nc3nccc(-c4ccc5c(c4)CCCC[C@@H]5NC(=O)c4nnc(C(C)(C)C)o4)c3[nH]2)cnn1C1CCOCC1

>  <aimnet_interaction_kcal_mol>  (9) 
-60.77240025458056

$$$$
L2:Q06187:146414
     RDKit          3D

 76 81  0  0  0  0  0  0  0  0999 V2000
    0.7208  -28.5046   21.5807 N   0  0  0  0  0  0  0  0  0  0  0  0
    1.3469  -28.9663   22.7400 C   0  0  0  0  0  0  0  0  0  0  0  0
    2.4130  -28.2830   23.1318 N   0  0  0  0  0  0  0  0  0  0  0  0
    3.1247  -28.7483   24.1700 C   0  0  0  0  0  0  0  0  0  0  0  0
    2.9090  -29.9341   24.8382 C   0  0  0  0  0  0  0  0  0  0  0  0
    1.8426  -30.7081   24.3411 C   0  0  0  0  0  0  0  0  0  0  0  0
    0.9565  -30.1446   23.3873 C   0  0  0  0  0  0  0  0  0  0  0  0
   -0.0921  -31.0933   23.2308 C   0  0  0  0  0  0  0  0  0  0  0  0
    0.1856  -32.1817   23.9335 N   0  0  0  0  0  0  0  0  0  0  0  0
    1.3603  -31.9677   24.5891 N   0  0  0  0  0  0  0  0  0  0  0  0
    2.0179  -33.1966   25.0720 C   0  0  2  0  0  0  0  0  0  0  0  0
    1.7161  -33.5034   26.5239 C   0  0  0  0  0  0  0  0  0  0  0  0
    2.3718  -34.8350   26.8844 C   0  0  0  0  0  0  0  0  0  0  0  0
    3.8859  -34.8673   26.5752 C   0  0  0  0  0  0  0  0  0  0  0  0
    4.3469  -33.5520   25.9596 C   0  0  2  0  0  0  0  0  0  0  0  0
    3.5082  -33.2196   24.7364 C   0  0  0  0  0  0  0  0  0  0  0  0
    5.8458  -33.4668   25.7593 C   0  0  0  0  0  0  0  0  0  0  0  0
    6.5858  -33.1867   26.7026 O   0  0  0  0  0  0  0  0  0  0  0  0
    6.3148  -33.6624   24.5015 N   0  0  0  0  0  0  0  0  0  0  0  0
    7.6353  -33.2321   24.0903 C   0  0  0  0  0  0  0  0  0  0  0  0
    7.6561  -31.8556   23.4367 C   0  0  0  0  0  0  0  0  0  0  0  0
    7.2914  -30.7111   24.3845 C   0  0  0  0  0  0  0  0  0  0  0  0
    5.8229  -30.5335   24.5821 C   0  0  0  0  0  0  0  0  0  0  0  0
    5.1997  -30.5566   25.7556 C   0  0  0  0  0  0  0  0  0  0  0  0
    3.7600  -30.2321   26.0301 C   0  0  0  0  0  0  0  0  0  0  0  0
    0.8195  -27.5060   21.4751 H   0  0  0  0  0  0  0  0  0  0  0  0
   -0.2396  -28.7956   21.4696 H   0  0  0  0  0  0  0  0  0  0  0  0
    5.7299  -34.0707   23.7937 H   0  0  0  0  0  0  0  0  0  0  0  0
   -1.2910  -31.0202   22.4118 C   0  0  0  0  0  0  0  0  0  0  0  0
   -2.0342  -29.8361   22.2958 C   0  0  0  0  0  0  0  0  0  0  0  0
   -3.0483  -29.7277   21.3611 C   0  0  0  0  0  0  0  0  0  0  0  0
   -3.3871  -30.8222   20.5590 C   0  0  0  0  0  0  0  0  0  0  0  0
   -2.7462  -32.0449   20.7875 C   0  0  0  0  0  0  0  0  0  0  0  0
   -1.7190  -32.1477   21.6998 C   0  0  0  0  0  0  0  0  0  0  0  0
   -4.4341  -30.7869   19.5192 C   0  0  0  0  0  0  0  0  0  0  0  0
   -5.0427  -31.7820   19.1543 O   0  0  0  0  0  0  0  0  0  0  0  0
   -4.6734  -29.5274   18.9764 N   0  0  0  0  0  0  0  0  0  0  0  0
   -3.9584  -28.8204   19.0637 H   0  0  0  0  0  0  0  0  0  0  0  0
   -5.6612  -29.1879   18.0639 C   0  0  0  0  0  0  0  0  0  0  0  0
   -6.8112  -29.9618   17.8579 C   0  0  0  0  0  0  0  0  0  0  0  0
   -7.7380  -29.5047   16.9400 C   0  0  0  0  0  0  0  0  0  0  0  0
   -7.4760  -28.3493   16.2017 C   0  0  0  0  0  0  0  0  0  0  0  0
   -6.3174  -27.6528   16.4865 C   0  0  0  0  0  0  0  0  0  0  0  0
   -5.4456  -28.0226   17.4300 N   0  0  0  0  0  0  0  0  0  0  0  0
   -9.0481  -30.2234   16.7433 C   0  0  0  0  0  0  0  0  0  0  0  0
  -10.0864  -29.3306   16.7110 F   0  0  0  0  0  0  0  0  0  0  0  0
   -9.3078  -31.0901   17.7331 F   0  0  0  0  0  0  0  0  0  0  0  0
   -9.0824  -30.8843   15.5685 F   0  0  0  0  0  0  0  0  0  0  0  0
    3.9496  -28.1218   24.4972 H   0  0  0  0  0  0  0  0  0  0  0  0
    1.5372  -33.9644   24.4748 H   0  0  0  0  0  0  0  0  0  0  0  0
    0.6403  -33.5591   26.6723 H   0  0  0  0  0  0  0  0  0  0  0  0
    2.0841  -32.7063   27.1714 H   0  0  0  0  0  0  0  0  0  0  0  0
    1.8679  -35.6230   26.3246 H   0  0  0  0  0  0  0  0  0  0  0  0
    2.2004  -35.0482   27.9381 H   0  0  0  0  0  0  0  0  0  0  0  0
    4.1130  -35.6782   25.8841 H   0  0  0  0  0  0  0  0  0  0  0  0
    4.4662  -35.0553   27.4770 H   0  0  0  0  0  0  0  0  0  0  0  0
    4.1675  -32.7950   26.7171 H   0  0  0  0  0  0  0  0  0  0  0  0
    3.6465  -33.9742   23.9645 H   0  0  0  0  0  0  0  0  0  0  0  0
    3.8341  -32.2709   24.3246 H   0  0  0  0  0  0  0  0  0  0  0  0
    8.0397  -33.9763   23.4023 H   0  0  0  0  0  0  0  0  0  0  0  0
    8.2638  -33.2242   24.9772 H   0  0  0  0  0  0  0  0  0  0  0  0
    6.9864  -31.8456   22.5727 H   0  0  0  0  0  0  0  0  0  0  0  0
    8.6627  -31.6843   23.0482 H   0  0  0  0  0  0  0  0  0  0  0  0
    7.6941  -29.7799   23.9775 H   0  0  0  0  0  0  0  0  0  0  0  0
    7.7751  -30.8760   25.3456 H   0  0  0  0  0  0  0  0  0  0  0  0
    5.2460  -30.3911   23.6714 H   0  0  0  0  0  0  0  0  0  0  0  0
    5.7620  -30.8631   26.6302 H   0  0  0  0  0  0  0  0  0  0  0  0
    3.7491  -29.3565   26.6882 H   0  0  0  0  0  0  0  0  0  0  0  0
    3.3087  -31.0275   26.6142 H   0  0  0  0  0  0  0  0  0  0  0  0
   -1.8506  -29.0282   22.9960 H   0  0  0  0  0  0  0  0  0  0  0  0
   -3.6087  -28.8020   21.3052 H   0  0  0  0  0  0  0  0  0  0  0  0
   -3.0836  -32.9037   20.2241 H   0  0  0  0  0  0  0  0  0  0  0  0
   -1.2418  -33.0980   21.8908 H   0  0  0  0  0  0  0  0  0  0  0  0
   -6.9506  -30.8796   18.4020 H   0  0  0  0  0  0  0  0  0  0  0  0
   -8.1642  -27.9883   15.4512 H   0  0  0  0  0  0  0  0  0  0  0  0
   -6.0730  -26.7497   15.9362 H   0  0  0  0  0  0  0  0  0  0  0  0
  1  2  1  0
  1 26  1  0
  1 27  1  0
  2  3  2  0
  3  4  1  0
  4  5  2  0
  4 49  1  0
  5  6  1  0
  6  7  2  0
  7  8  1  0
  7  2  1  0
  8 29  1  0
  8  9  2  0
  9 10  1  0
 10 11  1  0
 10  6  1  0
 11 12  1  0
 11 50  1  6
 12 13  1  0
 12 51  1  0
 12 52  1  0
 13 14  1  0
 13 53  1  0
 13 54  1  0
 14 15  1  0
 14 55  1  0
 14 56  1  0
 15 16  1  0
 15 17  1  0
 15 57  1  1
 16 11  1  0
 16 58  1  0
 16 59  1  0
 17 18  2  0
 17 19  1  0
 19 20  1  0
 19 28  1  0
 20 21  1  0
 20 60  1  0
 20 61  1  0
 21 22  1  0
 21 62  1  0
 21 63  1  0
 22 23  1  0
 22 64  1  0
 22 65  1  0
 23 24  2  0
 23 66  1  0
 24 25  1  0
 24 67  1  0
 25  5  1  0
 25 68  1  0
 25 69  1  0
 29 30  2  0
 30 31  1  0
 30 70  1  0
 31 32  2  0
 31 71  1  0
 32 35  1  0
 32 33  1  0
 33 34  2  0
 33 72  1  0
 34 29  1  0
 34 73  1  0
 35 36  2  0
 35 37  1  0
 37 39  1  0
 37 38  1  0
 39 40  2  0
 40 41  1  0
 40 74  1  0
 41 45  1  0
 41 42  2  0
 42 43  1  0
 42 75  1  0
 43 44  2  0
 43 76  1  0
 44 39  1  0
 45 46  1  0
 45 47  1  0
 45 48  1  0
M  END
>  <minimizedAffinity>  (10) 
-12.34466

>  <mol_id>  (10) 
146414

>  <source_index>  (10) 
9

>  <layer>  (10) 
L2

>  <uniprot>  (10) 
Q06187

>  <paff>  (10) 
7.5606999999999998

>  <smiles>  (10) 
Nc1ncc2c3c1c(-c1ccc(C(=O)Nc4cc(C(F)(F)F)ccn4)cc1)nn3[C@@H]1CCC[C@H](C1)C(=O)NCCC/C=C/C2

>  <aimnet_interaction_kcal_mol>  (10) 
-69.394734205632631

$$$$
