L2:Q06187:9210
     RDKit          3D

 77 82  0  0  0  0  0  0  0  0999 V2000
   -1.8125  -28.8749   21.2098 C   0  0  0  0  0  0  0  0  0  0  0  0
   -2.4678  -28.4272   20.0556 C   0  0  0  0  0  0  0  0  0  0  0  0
   -3.5113  -29.1605   19.4787 C   0  0  0  0  0  0  0  0  0  0  0  0
   -3.9326  -30.3757   20.0367 C   0  0  0  0  0  0  0  0  0  0  0  0
   -3.2711  -30.8435   21.1978 C   0  0  0  0  0  0  0  0  0  0  0  0
   -2.2337  -30.0877   21.7723 C   0  0  0  0  0  0  0  0  0  0  0  0
   -3.6599  -32.1675   21.8154 C   0  0  0  0  0  0  0  0  0  0  0  0
   -3.3528  -33.3911   20.9410 C   0  0  0  0  0  0  0  0  0  0  0  0
   -3.2780  -33.1765   19.4271 C   0  0  0  0  0  0  0  0  0  0  0  0
   -4.4855  -32.5060   18.7607 C   0  0  0  0  0  0  0  0  0  0  0  0
   -5.0394  -31.2370   19.4374 C   0  0  2  0  0  0  0  0  0  0  0  0
   -0.1194  -24.9817   20.2303 C   0  0  0  0  0  0  0  0  0  0  0  0
   -0.8680  -26.0695   20.2661 N   0  0  0  0  0  0  0  0  0  0  0  0
   -0.3539  -26.8422   21.2853 C   0  0  0  0  0  0  0  0  0  0  0  0
   -0.7031  -28.1124   21.7850 C   0  0  0  0  0  0  0  0  0  0  0  0
    0.0741  -28.5955   22.8536 C   0  0  0  0  0  0  0  0  0  0  0  0
    1.1169  -27.8231   23.3572 C   0  0  0  0  0  0  0  0  0  0  0  0
    1.4872  -26.6026   22.9041 N   0  0  0  0  0  0  0  0  0  0  0  0
    0.7167  -26.1898   21.8828 C   0  0  0  0  0  0  0  0  0  0  0  0
    0.8407  -25.0137   21.2065 N   0  0  0  0  0  0  0  0  0  0  0  0
    1.5372  -24.3136   21.3992 H   0  0  0  0  0  0  0  0  0  0  0  0
    2.0771  -22.7978   18.8900 C   0  0  0  0  0  0  0  0  0  0  0  0
    0.6221  -22.9298   18.6385 C   0  0  0  0  0  0  0  0  0  0  0  0
    0.0309  -22.1034   17.7638 N   0  0  0  0  0  0  0  0  0  0  0  0
   -1.2656  -22.4769   17.7784 N   0  0  0  0  0  0  0  0  0  0  0  0
   -1.5158  -23.5162   18.6252 C   0  0  0  0  0  0  0  0  0  0  0  0
   -0.3085  -23.8365   19.1995 C   0  0  0  0  0  0  0  0  0  0  0  0
   -2.2400  -21.7886   16.9358 C   0  0  0  0  0  0  0  0  0  0  0  0
   -1.5876  -20.6459   16.1600 C   0  0  0  0  0  0  0  0  0  0  0  0
   -3.4390  -21.2983   17.7489 C   0  0  0  0  0  0  0  0  0  0  0  0
   -5.9055  -30.5169   18.5222 N   0  0  0  0  0  0  0  0  0  0  0  0
   -6.8814  -31.1430   17.7662 C   0  0  0  0  0  0  0  0  0  0  0  0
   -7.1397  -32.3393   17.8565 O   0  0  0  0  0  0  0  0  0  0  0  0
   -5.6844  -29.5685   18.2443 H   0  0  0  0  0  0  0  0  0  0  0  0
   -7.5554  -30.2188   16.8409 C   0  0  0  0  0  0  0  0  0  0  0  0
   -8.5750  -30.5716   16.0422 N   0  0  0  0  0  0  0  0  0  0  0  0
   -8.8803  -29.3994   15.3585 O   0  0  0  0  0  0  0  0  0  0  0  0
   -8.0204  -28.4397   15.8106 C   0  0  0  0  0  0  0  0  0  0  0  0
   -7.1707  -28.8906   16.7080 N   0  0  0  0  0  0  0  0  0  0  0  0
   -8.1387  -27.0640   15.2164 C   0  0  0  0  0  0  0  0  0  0  0  0
   -8.0245  -27.1111   13.6817 C   0  0  0  0  0  0  0  0  0  0  0  0
   -7.0219  -26.1728   15.7845 C   0  0  0  0  0  0  0  0  0  0  0  0
   -9.5074  -26.4575   15.5805 C   0  0  0  0  0  0  0  0  0  0  0  0
   -2.1751  -27.5379   19.6214 H   0  0  0  0  0  0  0  0  0  0  0  0
   -3.9771  -28.8015   18.6306 H   0  0  0  0  0  0  0  0  0  0  0  0
   -1.7718  -30.4340   22.6278 H   0  0  0  0  0  0  0  0  0  0  0  0
   -4.7122  -32.1502   22.0086 H   0  0  0  0  0  0  0  0  0  0  0  0
   -3.0735  -32.2731   22.7042 H   0  0  0  0  0  0  0  0  0  0  0  0
   -4.1177  -34.1164   21.1246 H   0  0  0  0  0  0  0  0  0  0  0  0
   -2.3642  -33.6873   21.2237 H   0  0  0  0  0  0  0  0  0  0  0  0
   -3.1482  -34.1356   18.9707 H   0  0  0  0  0  0  0  0  0  0  0  0
   -2.4656  -32.4955   19.2818 H   0  0  0  0  0  0  0  0  0  0  0  0
   -5.2766  -33.2256   18.7262 H   0  0  0  0  0  0  0  0  0  0  0  0
   -4.1317  -32.1807   17.8047 H   0  0  0  0  0  0  0  0  0  0  0  0
   -5.6416  -31.5299   20.2719 H   0  0  0  0  0  0  0  0  0  0  0  0
   -0.1285  -29.5208   23.2633 H   0  0  0  0  0  0  0  0  0  0  0  0
    1.6551  -28.2156   24.1454 H   0  0  0  0  0  0  0  0  0  0  0  0
    2.4718  -22.0031   18.2920 H   0  0  0  0  0  0  0  0  0  0  0  0
    2.5677  -23.7138   18.6347 H   0  0  0  0  0  0  0  0  0  0  0  0
    2.2420  -22.5812   19.9248 H   0  0  0  0  0  0  0  0  0  0  0  0
   -2.4262  -23.9699   18.7994 H   0  0  0  0  0  0  0  0  0  0  0  0
   -2.6080  -22.4971   16.2234 H   0  0  0  0  0  0  0  0  0  0  0  0
   -1.2086  -19.9188   16.8474 H   0  0  0  0  0  0  0  0  0  0  0  0
   -2.3138  -20.1883   15.5212 H   0  0  0  0  0  0  0  0  0  0  0  0
   -0.7834  -21.0302   15.5680 H   0  0  0  0  0  0  0  0  0  0  0  0
   -3.1097  -20.5849   18.4752 H   0  0  0  0  0  0  0  0  0  0  0  0
   -3.8963  -22.1282   18.2459 H   0  0  0  0  0  0  0  0  0  0  0  0
   -4.1499  -20.8387   17.0944 H   0  0  0  0  0  0  0  0  0  0  0  0
   -7.0790  -27.5300   13.4071 H   0  0  0  0  0  0  0  0  0  0  0  0
   -8.1032  -26.1194   13.2876 H   0  0  0  0  0  0  0  0  0  0  0  0
   -8.8119  -27.7166   13.2839 H   0  0  0  0  0  0  0  0  0  0  0  0
   -6.0695  -26.5910   15.5336 H   0  0  0  0  0  0  0  0  0  0  0  0
   -7.1174  -26.1162   16.8487 H   0  0  0  0  0  0  0  0  0  0  0  0
   -7.1017  -25.1910   15.3666 H   0  0  0  0  0  0  0  0  0  0  0  0
  -10.2873  -27.0752   15.1867 H   0  0  0  0  0  0  0  0  0  0  0  0
   -9.5849  -25.4755   15.1627 H   0  0  0  0  0  0  0  0  0  0  0  0
   -9.6005  -26.4006   16.6449 H   0  0  0  0  0  0  0  0  0  0  0  0
  1  2  2  0
  2  3  1  0
  2 44  1  0
  3  4  2  0
  3 45  1  0
  4  5  1  0
  5  6  2  0
  5  7  1  0
  6  1  1  0
  6 46  1  0
  7  8  1  0
  7 47  1  0
  7 48  1  0
  8  9  1  0
  8 49  1  0
  8 50  1  0
  9 10  1  0
  9 51  1  0
  9 52  1  0
 10 11  1  0
 10 53  1  0
 10 54  1  0
 11 31  1  0
 11  4  1  0
 11 55  1  1
 12 13  2  0
 13 14  1  0
 14 15  2  0
 15  1  1  0
 15 16  1  0
 16 17  2  0
 16 56  1  0
 17 18  1  0
 17 57  1  0
 18 19  2  0
 19 20  1  0
 19 14  1  0
 20 12  1  0
 20 21  1  0
 22 23  1  0
 22 58  1  0
 22 59  1  0
 22 60  1  0
 23 24  2  0
 24 25  1  0
 25 28  1  0
 25 26  1  0
 26 27  2  0
 26 61  1  0
 27 12  1  0
 27 23  1  0
 28 29  1  0
 28 30  1  0
 28 62  1  0
 29 63  1  0
 29 64  1  0
 29 65  1  0
 30 66  1  0
 30 67  1  0
 30 68  1  0
 31 32  1  0
 31 34  1  0
 32 33  2  0
 32 35  1  0
 35 36  2  0
 36 37  1  0
 37 38  1  0
 38 40  1  0
 38 39  2  0
 39 35  1  0
 40 41  1  0
 40 42  1  0
 40 43  1  0
 41 69  1  0
 41 70  1  0
 41 71  1  0
 42 72  1  0
 42 73  1  0
 42 74  1  0
 43 75  1  0
 43 76  1  0
 43 77  1  0
M  END
>  <minimizedAffinity>  (1) 
-10.64883

>  <mol_id>  (1) 
9210

>  <source_index>  (1) 
0

>  <layer>  (1) 
L2

>  <uniprot>  (1) 
Q06187

>  <paff>  (1) 
8.2596000000000007

>  <smiles>  (1) 
Cc1nn(C(C)C)cc1-c1nc2c(-c3ccc4c(c3)CCCC[C@@H]4NC(=O)c3noc(C(C)(C)C)n3)ccnc2[nH]1

$$$$
L2:Q06187:21421
     RDKit          3D

 63 67  0  0  0  0  0  0  0  0999 V2000
   -1.8626  -29.3072   21.9572 C   0  0  0  0  0  0  0  0  0  0  0  0
   -2.0574  -30.6876   22.1467 C   0  0  0  0  0  0  0  0  0  0  0  0
   -2.9119  -31.4160   21.3193 C   0  0  0  0  0  0  0  0  0  0  0  0
   -3.6043  -30.7902   20.2769 C   0  0  0  0  0  0  0  0  0  0  0  0
   -3.3913  -29.4112   20.0938 C   0  0  0  0  0  0  0  0  0  0  0  0
   -4.0700  -28.7838   19.1156 F   0  0  0  0  0  0  0  0  0  0  0  0
   -2.5155  -28.6416   20.8931 C   0  0  0  0  0  0  0  0  0  0  0  0
   -4.5201  -31.5570   19.4117 C   0  0  0  0  0  0  0  0  0  0  0  0
   -4.1285  -32.7679   18.8337 C   0  0  0  0  0  0  0  0  0  0  0  0
   -5.0299  -33.4503   18.0366 C   0  0  0  0  0  0  0  0  0  0  0  0
   -6.2814  -33.0180   17.7764 N   0  0  0  0  0  0  0  0  0  0  0  0
   -6.6599  -31.8471   18.3297 C   0  0  0  0  0  0  0  0  0  0  0  0
   -5.8202  -31.0983   19.1433 C   0  0  0  0  0  0  0  0  0  0  0  0
   -7.9622  -31.4812   17.9940 N   0  0  0  0  0  0  0  0  0  0  0  0
   -8.3823  -30.6278   17.0078 C   0  0  0  0  0  0  0  0  0  0  0  0
   -7.6706  -30.0076   16.2307 O   0  0  0  0  0  0  0  0  0  0  0  0
   -8.6438  -31.9266   18.5891 H   0  0  0  0  0  0  0  0  0  0  0  0
   -9.8643  -30.4477   16.8929 C   0  0  0  0  0  0  0  0  0  0  0  0
  -10.5901  -30.5512   15.5693 C   0  0  0  0  0  0  0  0  0  0  0  0
  -10.4996  -29.2235   16.2714 C   0  0  0  0  0  0  0  0  0  0  0  0
   -2.3448  -27.1533   20.6413 C   0  0  0  0  0  0  0  0  0  0  0  0
   -1.1254  -26.6494   19.8977 C   0  0  0  0  0  0  0  0  0  0  0  0
   -2.4720  -26.5645   19.2536 C   0  0  0  0  0  0  0  0  0  0  0  0
   -0.9401  -28.5864   22.9134 C   0  0  0  0  0  0  0  0  0  0  0  0
    1.5111  -28.5146   22.5449 C   0  0  0  0  0  0  0  0  0  0  0  0
    1.4943  -27.3843   22.0674 O   0  0  0  0  0  0  0  0  0  0  0  0
    0.3676  -29.1894   22.9270 N   0  0  0  0  0  0  0  0  0  0  0  0
    0.4991  -30.0838   23.3871 H   0  0  0  0  0  0  0  0  0  0  0  0
    4.1204  -30.5681   23.7284 C   0  0  0  0  0  0  0  0  0  0  0  0
    2.9250  -30.0561   23.9252 N   0  0  0  0  0  0  0  0  0  0  0  0
    2.7357  -29.2946   22.7794 C   0  0  0  0  0  0  0  0  0  0  0  0
    3.7651  -29.3419   21.9189 N   0  0  0  0  0  0  0  0  0  0  0  0
    4.6781  -30.1880   22.5408 O   0  0  0  0  0  0  0  0  0  0  0  0
    4.2381  -31.6798   25.9579 C   0  0  0  0  0  0  0  0  0  0  0  0
    4.9215  -31.5002   24.5910 C   0  0  0  0  0  0  0  0  0  0  0  0
    6.3336  -30.9262   24.7938 C   0  0  0  0  0  0  0  0  0  0  0  0
    5.0350  -32.8782   23.9124 C   0  0  0  0  0  0  0  0  0  0  0  0
   -1.5593  -31.1696   22.9113 H   0  0  0  0  0  0  0  0  0  0  0  0
   -3.0349  -32.4283   21.4778 H   0  0  0  0  0  0  0  0  0  0  0  0
   -3.1828  -33.1465   18.9988 H   0  0  0  0  0  0  0  0  0  0  0  0
   -4.7273  -34.3428   17.6160 H   0  0  0  0  0  0  0  0  0  0  0  0
   -6.1499  -30.2085   19.5491 H   0  0  0  0  0  0  0  0  0  0  0  0
   -9.9351  -30.9353   17.8427 H   0  0  0  0  0  0  0  0  0  0  0  0
  -11.5280  -31.0630   15.5126 H   0  0  0  0  0  0  0  0  0  0  0  0
  -10.3351  -30.9090   14.5937 H   0  0  0  0  0  0  0  0  0  0  0  0
  -11.3733  -28.7920   16.7134 H   0  0  0  0  0  0  0  0  0  0  0  0
  -10.1537  -28.2478   16.0008 H   0  0  0  0  0  0  0  0  0  0  0  0
   -2.8076  -26.9573   21.5859 H   0  0  0  0  0  0  0  0  0  0  0  0
   -0.3999  -27.3441   19.5290 H   0  0  0  0  0  0  0  0  0  0  0  0
   -0.3465  -25.9482   20.1133 H   0  0  0  0  0  0  0  0  0  0  0  0
   -2.7080  -27.1983   18.4244 H   0  0  0  0  0  0  0  0  0  0  0  0
   -3.0515  -25.7771   18.8189 H   0  0  0  0  0  0  0  0  0  0  0  0
   -0.8504  -27.5646   22.6089 H   0  0  0  0  0  0  0  0  0  0  0  0
   -1.3540  -28.6508   23.8980 H   0  0  0  0  0  0  0  0  0  0  0  0
    4.8184  -32.3454   26.5621 H   0  0  0  0  0  0  0  0  0  0  0  0
    3.2593  -32.0883   25.8164 H   0  0  0  0  0  0  0  0  0  0  0  0
    4.1613  -30.7306   26.4457 H   0  0  0  0  0  0  0  0  0  0  0  0
    6.9039  -31.5909   25.4085 H   0  0  0  0  0  0  0  0  0  0  0  0
    6.2651  -29.9704   25.2699 H   0  0  0  0  0  0  0  0  0  0  0  0
    6.8144  -30.8179   23.8441 H   0  0  0  0  0  0  0  0  0  0  0  0
    5.6069  -33.5356   24.5334 H   0  0  0  0  0  0  0  0  0  0  0  0
    5.5205  -32.7703   22.9650 H   0  0  0  0  0  0  0  0  0  0  0  0
    4.0565  -33.2860   23.7674 H   0  0  0  0  0  0  0  0  0  0  0  0
  1  2  2  0
  2  3  1  0
  2 38  1  0
  3  4  2  0
  3 39  1  0
  4  8  1  0
  4  5  1  0
  5  6  1  0
  5  7  2  0
  7 21  1  0
  7  1  1  0
  8  9  2  0
  9 10  1  0
  9 40  1  0
 10 11  2  0
 10 41  1  0
 11 12  1  0
 12 14  1  0
 12 13  2  0
 13  8  1  0
 13 42  1  0
 14 15  1  0
 14 17  1  0
 15 16  2  0
 15 18  1  0
 18 19  1  0
 18 43  1  0
 19 20  1  0
 19 44  1  0
 19 45  1  0
 20 18  1  0
 20 46  1  0
 20 47  1  0
 21 22  1  0
 21 48  1  0
 22 23  1  0
 22 49  1  0
 22 50  1  0
 23 21  1  0
 23 51  1  0
 23 52  1  0
 24  1  1  0
 24 53  1  0
 24 54  1  0
 25 26  2  0
 25 27  1  0
 27 24  1  0
 27 28  1  0
 29 30  2  0
 30 31  1  0
 31 25  1  0
 31 32  2  0
 32 33  1  0
 33 29  1  0
 34 35  1  0
 34 55  1  0
 34 56  1  0
 34 57  1  0
 35 36  1  0
 35 37  1  0
 35 29  1  0
 36 58  1  0
 36 59  1  0
 36 60  1  0
 37 61  1  0
 37 62  1  0
 37 63  1  0
M  END
>  <minimizedAffinity>  (2) 
-9.33132

>  <mol_id>  (2) 
21421

>  <source_index>  (2) 
1

>  <layer>  (2) 
L2

>  <uniprot>  (2) 
Q06187

>  <paff>  (2) 
9

>  <smiles>  (2) 
CC(C)(C)c1nc(C(=O)NCc2ccc(-c3ccnc(NC(=O)C4CC4)c3)c(F)c2C2CC2)no1

$$$$
L2:Q06187:89453
     RDKit          3D

 61 65  0  0  0  0  0  0  0  0999 V2000
   -3.3580  -25.1133   16.6638 C   0  0  0  0  0  0  0  0  0  0  0  0
   -3.3221  -24.2467   17.7730 C   0  0  0  0  0  0  0  0  0  0  0  0
   -2.4176  -24.4518   18.8192 C   0  0  0  0  0  0  0  0  0  0  0  0
   -1.5401  -25.5405   18.7887 C   0  0  0  0  0  0  0  0  0  0  0  0
   -1.5536  -26.4006   17.6957 C   0  0  0  0  0  0  0  0  0  0  0  0
   -0.6787  -27.4172   17.6270 F   0  0  0  0  0  0  0  0  0  0  0  0
   -2.4605  -26.2011   16.6477 C   0  0  0  0  0  0  0  0  0  0  0  0
   -2.4551  -27.3373   15.3389 Cl  0  0  0  0  0  0  0  0  0  0  0  0
   -0.5900  -25.7116   19.9079 C   0  0  0  0  0  0  0  0  0  0  0  0
    0.1575  -24.7087   20.2552 N   0  0  0  0  0  0  0  0  0  0  0  0
    1.0385  -24.8742   21.2970 C   0  0  0  0  0  0  0  0  0  0  0  0
    1.2032  -25.9384   22.0185 N   0  0  0  0  0  0  0  0  0  0  0  0
    0.4052  -26.9623   21.6701 N   0  0  0  0  0  0  0  0  0  0  0  0
    0.3629  -28.1839   22.2826 C   0  0  0  0  0  0  0  0  0  0  0  0
   -0.5976  -28.9479   21.6604 C   0  0  0  0  0  0  0  0  0  0  0  0
   -1.1563  -28.1447   20.6312 C   0  0  0  0  0  0  0  0  0  0  0  0
   -0.5024  -26.9282   20.6525 C   0  0  0  0  0  0  0  0  0  0  0  0
   -0.9401  -30.2209   21.9836 N   0  0  0  0  0  0  0  0  0  0  0  0
   -1.5708  -31.1369   21.0210 C   0  0  0  0  0  0  0  0  0  0  0  0
   -2.3730  -32.2183   21.7623 C   0  0  0  0  0  0  0  0  0  0  0  0
   -1.5878  -33.0201   22.6551 O   0  0  0  0  0  0  0  0  0  0  0  0
   -0.4506  -32.3250   23.1850 C   0  0  0  0  0  0  0  0  0  0  0  0
   -0.6437  -30.8043   23.3031 C   0  0  0  0  0  0  0  0  0  0  0  0
   -4.3327  -24.9095   15.5211 C   0  0  0  0  0  0  0  0  0  0  0  0
   -6.2561  -26.2199   16.3865 C   0  0  0  0  0  0  0  0  0  0  0  0
   -6.2893  -25.5832   17.4372 O   0  0  0  0  0  0  0  0  0  0  0  0
   -5.3318  -25.9456   15.3912 N   0  0  0  0  0  0  0  0  0  0  0  0
   -5.3559  -26.5243   14.5574 H   0  0  0  0  0  0  0  0  0  0  0  0
   -8.2447  -29.0988   16.0119 C   0  0  0  0  0  0  0  0  0  0  0  0
   -8.6544  -28.4436   14.9144 N   0  0  0  0  0  0  0  0  0  0  0  0
   -7.9234  -27.2551   14.9505 O   0  0  0  0  0  0  0  0  0  0  0  0
   -7.1419  -27.3193   16.0640 C   0  0  0  0  0  0  0  0  0  0  0  0
   -7.2993  -28.4316   16.7576 N   0  0  0  0  0  0  0  0  0  0  0  0
  -10.1199  -30.7138   15.6835 C   0  0  0  0  0  0  0  0  0  0  0  0
   -8.7683  -30.4654   16.3795 C   0  0  0  0  0  0  0  0  0  0  0  0
   -8.9588  -30.5782   17.9048 C   0  0  0  0  0  0  0  0  0  0  0  0
   -7.7881  -31.5715   15.9375 C   0  0  0  0  0  0  0  0  0  0  0  0
   -3.9737  -23.4475   17.8144 H   0  0  0  0  0  0  0  0  0  0  0  0
   -2.3973  -23.7974   19.6169 H   0  0  0  0  0  0  0  0  0  0  0  0
    1.6332  -24.0636   21.5300 H   0  0  0  0  0  0  0  0  0  0  0  0
    0.9511  -28.4822   23.0764 H   0  0  0  0  0  0  0  0  0  0  0  0
   -1.9127  -28.4197   19.9853 H   0  0  0  0  0  0  0  0  0  0  0  0
   -0.8120  -31.6039   20.4286 H   0  0  0  0  0  0  0  0  0  0  0  0
   -2.2343  -30.5798   20.3930 H   0  0  0  0  0  0  0  0  0  0  0  0
   -2.8190  -32.8639   21.0348 H   0  0  0  0  0  0  0  0  0  0  0  0
   -3.0980  -31.7085   22.3617 H   0  0  0  0  0  0  0  0  0  0  0  0
    0.3850  -32.5088   22.5424 H   0  0  0  0  0  0  0  0  0  0  0  0
   -0.2978  -32.6947   24.1774 H   0  0  0  0  0  0  0  0  0  0  0  0
    0.2514  -30.3642   23.6903 H   0  0  0  0  0  0  0  0  0  0  0  0
   -1.4640  -30.6085   23.9616 H   0  0  0  0  0  0  0  0  0  0  0  0
   -4.8360  -23.9777   15.6738 H   0  0  0  0  0  0  0  0  0  0  0  0
   -3.7542  -24.9312   14.6212 H   0  0  0  0  0  0  0  0  0  0  0  0
  -10.4847  -31.6841   15.9488 H   0  0  0  0  0  0  0  0  0  0  0  0
   -9.9902  -30.6592   14.6228 H   0  0  0  0  0  0  0  0  0  0  0  0
  -10.8236  -29.9706   15.9955 H   0  0  0  0  0  0  0  0  0  0  0  0
   -9.3300  -31.5521   18.1468 H   0  0  0  0  0  0  0  0  0  0  0  0
   -9.6587  -29.8382   18.2325 H   0  0  0  0  0  0  0  0  0  0  0  0
   -8.0200  -30.4226   18.3940 H   0  0  0  0  0  0  0  0  0  0  0  0
   -8.1832  -32.5279   16.2099 H   0  0  0  0  0  0  0  0  0  0  0  0
   -6.8442  -31.4251   16.4196 H   0  0  0  0  0  0  0  0  0  0  0  0
   -7.6570  -31.5288   14.8764 H   0  0  0  0  0  0  0  0  0  0  0  0
  1  2  2  0
  2  3  1  0
  2 38  1  0
  3  4  2  0
  3 39  1  0
  4  9  1  0
  4  5  1  0
  5  6  1  0
  5  7  2  0
  7  8  1  0
  7  1  1  0
  9 10  2  0
 10 11  1  0
 11 12  2  0
 11 40  1  0
 12 13  1  0
 13 14  1  0
 14 15  2  0
 14 41  1  0
 15 18  1  0
 15 16  1  0
 16 17  2  0
 16 42  1  0
 17  9  1  0
 17 13  1  0
 18 19  1  0
 19 20  1  0
 19 43  1  0
 19 44  1  0
 20 21  1  0
 20 45  1  0
 20 46  1  0
 21 22  1  0
 22 23  1  0
 22 47  1  0
 22 48  1  0
 23 18  1  0
 23 49  1  0
 23 50  1  0
 24  1  1  0
 24 51  1  0
 24 52  1  0
 25 26  2  0
 25 27  1  0
 27 24  1  0
 27 28  1  0
 29 30  2  0
 30 31  1  0
 31 32  1  0
 32 25  1  0
 32 33  2  0
 33 29  1  0
 34 35  1  0
 34 53  1  0
 34 54  1  0
 34 55  1  0
 35 36  1  0
 35 37  1  0
 35 29  1  0
 36 56  1  0
 36 57  1  0
 36 58  1  0
 37 59  1  0
 37 60  1  0
 37 61  1  0
M  END
>  <minimizedAffinity>  (3) 
-9.30187

>  <mol_id>  (3) 
89453

>  <source_index>  (3) 
2

>  <layer>  (3) 
L2

>  <uniprot>  (3) 
Q06187

>  <paff>  (3) 
9

>  <smiles>  (3) 
CC(C)(C)c1noc(C(=O)NCc2ccc(-c3ncnn4cc(N5CCOCC5)cc34)c(F)c2Cl)n1

$$$$
L2:Q06187:108091
     RDKit          3D

 63 67  0  0  0  0  0  0  0  0999 V2000
   -0.9108  -32.3106   22.6612 C   0  0  0  0  0  0  0  0  0  0  0  0
   -1.8692  -31.4165   21.9217 C   0  0  0  0  0  0  0  0  0  0  0  0
   -2.6849  -31.9744   20.9222 C   0  0  0  0  0  0  0  0  0  0  0  0
   -3.5874  -31.1798   20.2055 C   0  0  0  0  0  0  0  0  0  0  0  0
   -3.7119  -29.8237   20.5071 C   0  0  0  0  0  0  0  0  0  0  0  0
   -2.9123  -29.2601   21.5017 C   0  0  0  0  0  0  0  0  0  0  0  0
   -1.9927  -30.0434   22.2241 C   0  0  0  0  0  0  0  0  0  0  0  0
   -4.4287  -31.8137   19.1621 C   0  0  0  0  0  0  0  0  0  0  0  0
   -4.4169  -33.1047   19.0297 N   0  0  0  0  0  0  0  0  0  0  0  0
   -5.2290  -33.6751   18.0794 C   0  0  0  0  0  0  0  0  0  0  0  0
   -6.0268  -33.0613   17.2618 N   0  0  0  0  0  0  0  0  0  0  0  0
   -6.0108  -31.7231   17.3869 N   0  0  0  0  0  0  0  0  0  0  0  0
   -6.7388  -30.8409   16.6359 C   0  0  0  0  0  0  0  0  0  0  0  0
   -6.4011  -29.5658   17.0251 C   0  0  0  0  0  0  0  0  0  0  0  0
   -5.4467  -29.6868   18.0659 C   0  0  0  0  0  0  0  0  0  0  0  0
   -5.2459  -31.0363   18.2838 C   0  0  0  0  0  0  0  0  0  0  0  0
   -6.9022  -28.4202   16.5123 N   0  0  0  0  0  0  0  0  0  0  0  0
   -6.0963  -27.2453   16.1925 C   0  0  0  0  0  0  0  0  0  0  0  0
   -7.1225  -26.1924   15.7914 C   0  0  0  0  0  0  0  0  0  0  0  0
   -8.1551  -27.0181   15.0584 C   0  0  0  0  0  0  0  0  0  0  0  0
   -9.3483  -26.3919   15.0181 F   0  0  0  0  0  0  0  0  0  0  0  0
   -7.7580  -27.2231   13.7792 F   0  0  0  0  0  0  0  0  0  0  0  0
   -8.2078  -28.3359   15.8339 C   0  0  0  0  0  0  0  0  0  0  0  0
   -1.1395  -29.3642   23.2684 C   0  0  0  0  0  0  0  0  0  0  0  0
   -0.8118  -28.0240   22.8572 N   0  0  0  0  0  0  0  0  0  0  0  0
    0.3202  -27.7423   22.1194 C   0  0  0  0  0  0  0  0  0  0  0  0
    1.1640  -28.5916   21.8484 O   0  0  0  0  0  0  0  0  0  0  0  0
   -1.5006  -27.2843   22.9470 H   0  0  0  0  0  0  0  0  0  0  0  0
    0.3947  -26.3345   21.7013 C   0  0  0  0  0  0  0  0  0  0  0  0
    1.1505  -25.4134   22.3195 N   0  0  0  0  0  0  0  0  0  0  0  0
    0.8975  -24.2459   21.6050 O   0  0  0  0  0  0  0  0  0  0  0  0
    0.0246  -24.5720   20.6063 C   0  0  0  0  0  0  0  0  0  0  0  0
   -0.3267  -25.8388   20.6230 N   0  0  0  0  0  0  0  0  0  0  0  0
   -0.4250  -23.4679   19.6912 C   0  0  0  0  0  0  0  0  0  0  0  0
   -0.5870  -22.1444   20.4613 C   0  0  0  0  0  0  0  0  0  0  0  0
   -1.7691  -23.8579   19.0547 C   0  0  0  0  0  0  0  0  0  0  0  0
    0.6173  -23.2575   18.5768 C   0  0  0  0  0  0  0  0  0  0  0  0
   -0.9796  -33.3054   22.2733 H   0  0  0  0  0  0  0  0  0  0  0  0
   -1.1586  -32.3157   23.7021 H   0  0  0  0  0  0  0  0  0  0  0  0
    0.0872  -31.9464   22.5340 H   0  0  0  0  0  0  0  0  0  0  0  0
   -2.6176  -32.9829   20.7140 H   0  0  0  0  0  0  0  0  0  0  0  0
   -4.3927  -29.2397   19.9966 H   0  0  0  0  0  0  0  0  0  0  0  0
   -2.9964  -28.2531   21.7111 H   0  0  0  0  0  0  0  0  0  0  0  0
   -5.2010  -34.7043   18.0086 H   0  0  0  0  0  0  0  0  0  0  0  0
   -7.4228  -31.0893   15.9042 H   0  0  0  0  0  0  0  0  0  0  0  0
   -4.9871  -28.9110   18.5678 H   0  0  0  0  0  0  0  0  0  0  0  0
   -5.4271  -27.4518   15.3835 H   0  0  0  0  0  0  0  0  0  0  0  0
   -5.4827  -26.9316   17.0110 H   0  0  0  0  0  0  0  0  0  0  0  0
   -6.6899  -25.4532   15.1500 H   0  0  0  0  0  0  0  0  0  0  0  0
   -7.5200  -25.6421   16.6185 H   0  0  0  0  0  0  0  0  0  0  0  0
   -8.3409  -29.1618   15.1667 H   0  0  0  0  0  0  0  0  0  0  0  0
   -9.0260  -28.3691   16.5227 H   0  0  0  0  0  0  0  0  0  0  0  0
   -0.2364  -29.9222   23.4027 H   0  0  0  0  0  0  0  0  0  0  0  0
   -1.6860  -29.3206   24.1873 H   0  0  0  0  0  0  0  0  0  0  0  0
   -1.3086  -22.2715   21.2410 H   0  0  0  0  0  0  0  0  0  0  0  0
   -0.9179  -21.3795   19.7903 H   0  0  0  0  0  0  0  0  0  0  0  0
    0.3530  -21.8625   20.8878 H   0  0  0  0  0  0  0  0  0  0  0  0
   -2.4983  -24.0057   19.8236 H   0  0  0  0  0  0  0  0  0  0  0  0
   -1.6503  -24.7633   18.4970 H   0  0  0  0  0  0  0  0  0  0  0  0
   -2.0941  -23.0761   18.4005 H   0  0  0  0  0  0  0  0  0  0  0  0
    1.5558  -22.9857   19.0129 H   0  0  0  0  0  0  0  0  0  0  0  0
    0.2882  -22.4767   17.9234 H   0  0  0  0  0  0  0  0  0  0  0  0
    0.7320  -24.1640   18.0199 H   0  0  0  0  0  0  0  0  0  0  0  0
  1  2  1  0
  1 38  1  0
  1 39  1  0
  1 40  1  0
  2  3  2  0
  3  4  1  0
  3 41  1  0
  4  8  1  0
  4  5  2  0
  5  6  1  0
  5 42  1  0
  6  7  2  0
  6 43  1  0
  7 24  1  0
  7  2  1  0
  8  9  2  0
  9 10  1  0
 10 11  2  0
 10 44  1  0
 11 12  1  0
 12 13  1  0
 13 14  2  0
 13 45  1  0
 14 17  1  0
 14 15  1  0
 15 16  2  0
 15 46  1  0
 16  8  1  0
 16 12  1  0
 17 18  1  0
 18 19  1  0
 18 47  1  0
 18 48  1  0
 19 20  1  0
 19 49  1  0
 19 50  1  0
 20 21  1  0
 20 22  1  0
 20 23  1  0
 23 17  1  0
 23 51  1  0
 23 52  1  0
 24 25  1  0
 24 53  1  0
 24 54  1  0
 25 26  1  0
 25 28  1  0
 26 27  2  0
 26 29  1  0
 29 30  2  0
 30 31  1  0
 31 32  1  0
 32 34  1  0
 32 33  2  0
 33 29  1  0
 34 35  1  0
 34 36  1  0
 34 37  1  0
 35 55  1  0
 35 56  1  0
 35 57  1  0
 36 58  1  0
 36 59  1  0
 36 60  1  0
 37 61  1  0
 37 62  1  0
 37 63  1  0
M  END
>  <minimizedAffinity>  (4) 
-9.88079

>  <mol_id>  (4) 
108091

>  <source_index>  (4) 
3

>  <layer>  (4) 
L2

>  <uniprot>  (4) 
Q06187

>  <paff>  (4) 
9

>  <smiles>  (4) 
Cc1cc(-c2ncnn3cc(N4CCC(F)(F)C4)cc23)ccc1CNC(=O)c1noc(C(C)(C)C)n1

$$$$
L2:Q06187:114484
     RDKit          3D

 73 78  0  0  0  0  0  0  0  0999 V2000
   -0.6627  -27.8507   20.9619 N   0  0  0  0  0  0  0  0  0  0  0  0
    0.1654  -28.2306   22.0092 C   0  0  0  0  0  0  0  0  0  0  0  0
    1.1294  -27.3469   22.3276 N   0  0  0  0  0  0  0  0  0  0  0  0
    1.9309  -27.5996   23.3815 C   0  0  0  0  0  0  0  0  0  0  0  0
    1.8852  -28.7349   24.1885 C   0  0  0  0  0  0  0  0  0  0  0  0
    0.9046  -29.6820   23.8340 C   0  0  0  0  0  0  0  0  0  0  0  0
    0.0301  -29.4215   22.7576 C   0  0  0  0  0  0  0  0  0  0  0  0
   -0.8683  -30.5300   22.7263 C   0  0  0  0  0  0  0  0  0  0  0  0
   -0.6118  -31.3828   23.7217 N   0  0  0  0  0  0  0  0  0  0  0  0
    0.5478  -30.9487   24.2589 N   0  0  0  0  0  0  0  0  0  0  0  0
    1.2549  -31.9354   25.0781 C   0  0  2  0  0  0  0  0  0  0  0  0
    0.9682  -31.7904   26.5758 C   0  0  0  0  0  0  0  0  0  0  0  0
    1.6463  -32.9029   27.3794 C   0  0  0  0  0  0  0  0  0  0  0  0
    3.1023  -33.1692   26.9773 C   0  0  0  0  0  0  0  0  0  0  0  0
    3.6353  -32.1470   25.9699 C   0  0  2  0  0  0  0  0  0  0  0  0
    2.7412  -32.1085   24.7271 C   0  0  0  0  0  0  0  0  0  0  0  0
    5.0651  -32.3405   25.7369 N   0  0  0  0  0  0  0  0  0  0  0  0
    5.7021  -31.8866   24.5962 C   0  0  0  0  0  0  0  0  0  0  0  0
    5.2426  -31.9565   23.4626 O   0  0  0  0  0  0  0  0  0  0  0  0
    7.0487  -31.2508   24.8579 C   0  0  0  0  0  0  0  0  0  0  0  0
    6.9383  -29.9450   25.6507 C   0  0  0  0  0  0  0  0  0  0  0  0
    6.4850  -28.7177   24.8413 C   0  0  0  0  0  0  0  0  0  0  0  0
    5.0130  -28.6453   24.3954 C   0  0  0  0  0  0  0  0  0  0  0  0
    4.0126  -28.6990   25.5216 C   0  0  0  0  0  0  0  0  0  0  0  0
    2.6745  -28.8019   25.4155 C   0  0  0  0  0  0  0  0  0  0  0  0
   -0.5176  -26.8668   20.7609 H   0  0  0  0  0  0  0  0  0  0  0  0
   -1.6271  -28.1361   21.0642 H   0  0  0  0  0  0  0  0  0  0  0  0
    5.6250  -32.2922   26.5788 H   0  0  0  0  0  0  0  0  0  0  0  0
   -1.9754  -30.7986   21.8127 C   0  0  0  0  0  0  0  0  0  0  0  0
   -3.0041  -29.8651   21.6393 C   0  0  0  0  0  0  0  0  0  0  0  0
   -4.0545  -30.1276   20.7543 C   0  0  0  0  0  0  0  0  0  0  0  0
   -4.0877  -31.3270   20.0317 C   0  0  0  0  0  0  0  0  0  0  0  0
   -3.0441  -32.2501   20.1781 C   0  0  0  0  0  0  0  0  0  0  0  0
   -1.9953  -31.9843   21.0651 C   0  0  0  0  0  0  0  0  0  0  0  0
   -5.2268  -31.5626   19.0973 C   0  0  0  0  0  0  0  0  0  0  0  0
   -5.2402  -32.5967   18.4400 O   0  0  0  0  0  0  0  0  0  0  0  0
   -6.1535  -30.5490   19.0419 N   0  0  0  0  0  0  0  0  0  0  0  0
   -5.9898  -29.6838   19.5356 H   0  0  0  0  0  0  0  0  0  0  0  0
   -7.3244  -30.4900   18.2857 C   0  0  0  0  0  0  0  0  0  0  0  0
   -8.5438  -31.0165   18.6872 C   0  0  0  0  0  0  0  0  0  0  0  0
   -9.6431  -30.8877   17.8392 C   0  0  0  0  0  0  0  0  0  0  0  0
   -9.4938  -30.2392   16.6212 C   0  0  0  0  0  0  0  0  0  0  0  0
   -8.2435  -29.7415   16.3026 C   0  0  0  0  0  0  0  0  0  0  0  0
   -7.1617  -29.8502   17.1061 N   0  0  0  0  0  0  0  0  0  0  0  0
    2.6424  -26.8884   23.6115 H   0  0  0  0  0  0  0  0  0  0  0  0
    0.8281  -32.8778   24.8051 H   0  0  0  0  0  0  0  0  0  0  0  0
   -0.0887  -31.8393   26.7352 H   0  0  0  0  0  0  0  0  0  0  0  0
    1.3563  -30.8494   26.9056 H   0  0  0  0  0  0  0  0  0  0  0  0
    1.0889  -33.8055   27.2398 H   0  0  0  0  0  0  0  0  0  0  0  0
    1.6626  -32.5800   28.3994 H   0  0  0  0  0  0  0  0  0  0  0  0
    3.1636  -34.1440   26.5404 H   0  0  0  0  0  0  0  0  0  0  0  0
    3.7001  -33.0926   27.8614 H   0  0  0  0  0  0  0  0  0  0  0  0
    3.5761  -31.1563   26.3699 H   0  0  0  0  0  0  0  0  0  0  0  0
    2.8623  -33.0250   24.1884 H   0  0  0  0  0  0  0  0  0  0  0  0
    3.0373  -31.2652   24.1389 H   0  0  0  0  0  0  0  0  0  0  0  0
    7.5181  -31.0433   23.9190 H   0  0  0  0  0  0  0  0  0  0  0  0
    7.6238  -31.9379   25.4428 H   0  0  0  0  0  0  0  0  0  0  0  0
    7.9002  -29.7291   26.0667 H   0  0  0  0  0  0  0  0  0  0  0  0
    6.1788  -30.1100   26.3861 H   0  0  0  0  0  0  0  0  0  0  0  0
    7.0868  -28.6803   23.9573 H   0  0  0  0  0  0  0  0  0  0  0  0
    6.5985  -27.8965   25.5177 H   0  0  0  0  0  0  0  0  0  0  0  0
    4.8220  -29.4691   23.7398 H   0  0  0  0  0  0  0  0  0  0  0  0
    4.8860  -27.6940   23.9222 H   0  0  0  0  0  0  0  0  0  0  0  0
    4.3953  -28.6517   26.4788 H   0  0  0  0  0  0  0  0  0  0  0  0
    2.1513  -28.9430   26.2938 H   0  0  0  0  0  0  0  0  0  0  0  0
   -2.9872  -28.9786   22.1673 H   0  0  0  0  0  0  0  0  0  0  0  0
   -4.8091  -29.4341   20.6330 H   0  0  0  0  0  0  0  0  0  0  0  0
   -3.0490  -33.1257   19.6319 H   0  0  0  0  0  0  0  0  0  0  0  0
   -1.2291  -32.6676   21.1700 H   0  0  0  0  0  0  0  0  0  0  0  0
   -8.6354  -31.4948   19.5971 H   0  0  0  0  0  0  0  0  0  0  0  0
  -10.5605  -31.2715   18.1150 H   0  0  0  0  0  0  0  0  0  0  0  0
  -10.2904  -30.1318   15.9740 H   0  0  0  0  0  0  0  0  0  0  0  0
   -8.1295  -29.2584   15.3978 H   0  0  0  0  0  0  0  0  0  0  0  0
  1  2  1  0
  1 26  1  0
  1 27  1  0
  2  3  2  0
  3  4  1  0
  4  5  2  0
  4 45  1  0
  5  6  1  0
  6  7  2  0
  7  8  1  0
  7  2  1  0
  8 29  1  0
  8  9  2  0
  9 10  1  0
 10 11  1  0
 10  6  1  0
 11 12  1  0
 11 46  1  6
 12 13  1  0
 12 47  1  0
 12 48  1  0
 13 14  1  0
 13 49  1  0
 13 50  1  0
 14 15  1  0
 14 51  1  0
 14 52  1  0
 15 16  1  0
 15 17  1  0
 15 53  1  1
 16 11  1  0
 16 54  1  0
 16 55  1  0
 17 18  1  0
 17 28  1  0
 18 19  2  0
 18 20  1  0
 20 21  1  0
 20 56  1  0
 20 57  1  0
 21 22  1  0
 21 58  1  0
 21 59  1  0
 22 23  1  0
 22 60  1  0
 22 61  1  0
 23 24  1  0
 23 62  1  0
 23 63  1  0
 24 25  2  0
 24 64  1  0
 25  5  1  0
 25 65  1  0
 29 30  2  0
 30 31  1  0
 30 66  1  0
 31 32  2  0
 31 67  1  0
 32 35  1  0
 32 33  1  0
 33 34  2  0
 33 68  1  0
 34 29  1  0
 34 69  1  0
 35 36  2  0
 35 37  1  0
 37 39  1  0
 37 38  1  0
 39 40  2  0
 40 41  1  0
 40 70  1  0
 41 42  2  0
 41 71  1  0
 42 43  1  0
 42 72  1  0
 43 44  2  0
 43 73  1  0
 44 39  1  0
M  END
>  <minimizedAffinity>  (5) 
-10.11917

>  <mol_id>  (5) 
114484

>  <source_index>  (5) 
4

>  <layer>  (5) 
L2

>  <uniprot>  (5) 
Q06187

>  <paff>  (5) 
8.3010000000000002

>  <smiles>  (5) 
Nc1ncc2c3c1c(-c1ccc(C(=O)Nc4ccccn4)cc1)nn3[C@@H]1CCC[C@H](C1)NC(=O)CCCC/C=C/2

$$$$
L2:Q06187:118980
     RDKit          3D

 63 67  0  0  0  0  0  0  0  0999 V2000
   -5.6518  -25.7802   17.5205 C   0  0  0  0  0  0  0  0  0  0  0  0
   -4.6918  -26.5082   16.6085 C   0  0  0  0  0  0  0  0  0  0  0  0
   -3.3985  -25.9687   16.3873 C   0  0  0  0  0  0  0  0  0  0  0  0
   -2.5189  -26.5929   15.4897 C   0  0  0  0  0  0  0  0  0  0  0  0
   -2.9087  -27.7283   14.7906 C   0  0  0  0  0  0  0  0  0  0  0  0
   -4.1702  -28.2744   15.0101 C   0  0  0  0  0  0  0  0  0  0  0  0
   -5.0629  -27.6988   15.9334 C   0  0  0  0  0  0  0  0  0  0  0  0
   -6.3204  -28.3573   16.1680 N   0  0  0  0  0  0  0  0  0  0  0  0
   -7.3781  -28.1028   15.2890 C   0  0  0  0  0  0  0  0  0  0  0  0
   -7.3565  -27.3108   14.3460 O   0  0  0  0  0  0  0  0  0  0  0  0
   -8.5460  -28.7747   15.5250 N   0  0  0  0  0  0  0  0  0  0  0  0
   -8.7344  -29.6740   16.5686 C   0  0  0  0  0  0  0  0  0  0  0  0
   -9.9728  -30.2837   16.7617 C   0  0  0  0  0  0  0  0  0  0  0  0
  -10.9925  -29.9986   15.9386 F   0  0  0  0  0  0  0  0  0  0  0  0
  -10.1694  -31.1873   17.8018 C   0  0  0  0  0  0  0  0  0  0  0  0
   -9.1118  -31.4887   18.6601 C   0  0  0  0  0  0  0  0  0  0  0  0
   -7.8668  -30.8825   18.4695 C   0  0  0  0  0  0  0  0  0  0  0  0
   -7.6836  -29.9710   17.4200 C   0  0  0  0  0  0  0  0  0  0  0  0
   -6.3779  -29.3249   17.1839 C   0  0  0  0  0  0  0  0  0  0  0  0
   -5.4285  -29.7087   17.8657 O   0  0  0  0  0  0  0  0  0  0  0  0
   -9.3157  -28.5648   14.8981 H   0  0  0  0  0  0  0  0  0  0  0  0
   -2.9284  -24.7700   17.0995 C   0  0  0  0  0  0  0  0  0  0  0  0
   -3.0592  -23.4662   16.6519 C   0  0  0  0  0  0  0  0  0  0  0  0
   -2.5980  -22.6101   17.6631 C   0  0  0  0  0  0  0  0  0  0  0  0
   -2.1397  -23.3884   18.7137 C   0  0  0  0  0  0  0  0  0  0  0  0
   -2.4340  -24.7211   18.4109 N   0  0  0  0  0  0  0  0  0  0  0  0
   -2.2913  -25.8308   19.3026 C   0  0  0  0  0  0  0  0  0  0  0  0
   -1.2547  -26.7538   19.1418 C   0  0  0  0  0  0  0  0  0  0  0  0
   -1.1353  -27.8450   20.0119 C   0  0  0  0  0  0  0  0  0  0  0  0
   -2.0423  -28.0379   21.0640 C   0  0  0  0  0  0  0  0  0  0  0  0
   -3.0827  -27.1009   21.2085 C   0  0  0  0  0  0  0  0  0  0  0  0
   -3.2084  -26.0098   20.3432 C   0  0  0  0  0  0  0  0  0  0  0  0
   -1.9602  -29.2248   22.0230 C   0  0  0  0  0  0  0  0  0  0  0  0
   -0.5743  -29.8748   22.1284 C   0  0  0  0  0  0  0  0  0  0  0  0
   -2.9937  -30.2911   21.6432 C   0  0  0  0  0  0  0  0  0  0  0  0
   -2.2789  -28.7686   23.3456 O   0  0  0  0  0  0  0  0  0  0  0  0
   -1.8367  -27.9104   23.4638 H   0  0  0  0  0  0  0  0  0  0  0  0
   -1.4610  -22.8622   19.8761 C   0  0  0  0  0  0  0  0  0  0  0  0
   -2.1576  -21.9617   20.6270 N   0  0  0  0  0  0  0  0  0  0  0  0
   -0.3529  -23.2312   20.2517 O   0  0  0  0  0  0  0  0  0  0  0  0
   -1.7348  -21.6569   21.4921 H   0  0  0  0  0  0  0  0  0  0  0  0
   -3.1186  -21.7183   20.4382 H   0  0  0  0  0  0  0  0  0  0  0  0
   -5.1722  -24.9131   17.9241 H   0  0  0  0  0  0  0  0  0  0  0  0
   -5.9467  -26.4288   18.3188 H   0  0  0  0  0  0  0  0  0  0  0  0
   -6.5163  -25.4832   16.9644 H   0  0  0  0  0  0  0  0  0  0  0  0
   -1.5733  -26.2048   15.3475 H   0  0  0  0  0  0  0  0  0  0  0  0
   -2.2659  -28.1650   14.1115 H   0  0  0  0  0  0  0  0  0  0  0  0
   -4.4560  -29.1165   14.4864 H   0  0  0  0  0  0  0  0  0  0  0  0
  -11.0911  -31.6313   17.9371 H   0  0  0  0  0  0  0  0  0  0  0  0
   -9.2483  -32.1577   19.4340 H   0  0  0  0  0  0  0  0  0  0  0  0
   -7.0822  -31.1059   19.1015 H   0  0  0  0  0  0  0  0  0  0  0  0
   -3.4311  -23.1750   15.7344 H   0  0  0  0  0  0  0  0  0  0  0  0
   -2.5998  -21.5786   17.6301 H   0  0  0  0  0  0  0  0  0  0  0  0
   -0.5727  -26.6308   18.3771 H   0  0  0  0  0  0  0  0  0  0  0  0
   -0.3659  -28.5193   19.8763 H   0  0  0  0  0  0  0  0  0  0  0  0
   -3.7682  -27.2220   21.9703 H   0  0  0  0  0  0  0  0  0  0  0  0
   -3.9790  -25.3356   20.4726 H   0  0  0  0  0  0  0  0  0  0  0  0
   -0.2768  -30.2384   21.1670 H   0  0  0  0  0  0  0  0  0  0  0  0
   -0.6141  -30.6893   22.8211 H   0  0  0  0  0  0  0  0  0  0  0  0
    0.1345  -29.1499   22.4705 H   0  0  0  0  0  0  0  0  0  0  0  0
   -2.7856  -30.6549   20.6587 H   0  0  0  0  0  0  0  0  0  0  0  0
   -3.9736  -29.8618   21.6651 H   0  0  0  0  0  0  0  0  0  0  0  0
   -2.9434  -31.1010   22.3407 H   0  0  0  0  0  0  0  0  0  0  0  0
  1  2  1  0
  1 43  1  0
  1 44  1  0
  1 45  1  0
  2  3  2  0
  3 22  1  0
  3  4  1  0
  4  5  2  0
  4 46  1  0
  5  6  1  0
  5 47  1  0
  6  7  2  0
  6 48  1  0
  7  8  1  0
  7  2  1  0
  8  9  1  0
  9 10  2  0
  9 11  1  0
 11 12  1  0
 11 21  1  0
 12 13  2  0
 13 14  1  0
 13 15  1  0
 15 16  2  0
 15 49  1  0
 16 17  1  0
 16 50  1  0
 17 18  2  0
 17 51  1  0
 18 19  1  0
 18 12  1  0
 19 20  2  0
 19  8  1  0
 22 23  2  0
 23 24  1  0
 23 52  1  0
 24 25  2  0
 24 53  1  0
 25 38  1  0
 25 26  1  0
 26 27  1  0
 26 22  1  0
 27 28  2  0
 28 29  1  0
 28 54  1  0
 29 30  2  0
 29 55  1  0
 30 33  1  0
 30 31  1  0
 31 32  2  0
 31 56  1  0
 32 27  1  0
 32 57  1  0
 33 34  1  0
 33 35  1  0
 33 36  1  0
 34 58  1  0
 34 59  1  0
 34 60  1  0
 35 61  1  0
 35 62  1  0
 35 63  1  0
 36 37  1  0
 38 39  1  0
 38 40  2  0
 39 41  1  0
 39 42  1  0
M  END
>  <minimizedAffinity>  (6) 
-10.47053

>  <mol_id>  (6) 
118980

>  <source_index>  (6) 
5

>  <layer>  (6) 
L2

>  <uniprot>  (6) 
Q06187

>  <paff>  (6) 
6

>  <smiles>  (6) 
Cc1c(-c2ccc(C(N)=O)n2-c2ccc(C(C)(C)O)cc2)cccc1-n1c(=O)[nH]c2c(F)cccc2c1=O

$$$$
L2:Q06187:133412
     RDKit          3D

 53 58  0  0  0  0  0  0  0  0999 V2000
   -2.7856  -30.5723   21.5491 C   0  0  0  0  0  0  0  0  0  0  0  0
   -3.1489  -31.8516   21.1479 C   0  0  0  0  0  0  0  0  0  0  0  0
   -2.2690  -32.7445   21.7000 N   0  0  0  0  0  0  0  0  0  0  0  0
   -1.3351  -32.0795   22.4405 C   0  0  0  0  0  0  0  0  0  0  0  0
   -0.3383  -32.6935   23.1024 N   0  0  0  0  0  0  0  0  0  0  0  0
    0.4533  -31.8289   23.7753 C   0  0  0  0  0  0  0  0  0  0  0  0
    0.2995  -30.4472   23.8030 C   0  0  0  0  0  0  0  0  0  0  0  0
   -0.7660  -29.8474   23.1039 C   0  0  0  0  0  0  0  0  0  0  0  0
   -1.6172  -30.7171   22.3800 C   0  0  0  0  0  0  0  0  0  0  0  0
   -0.9855  -28.4670   23.2035 N   0  0  0  0  0  0  0  0  0  0  0  0
    0.2021  -27.6299   23.4679 C   0  0  1  0  0  0  0  0  0  0  0  0
    0.9644  -27.3755   22.1739 C   0  0  0  0  0  0  0  0  0  0  0  0
    0.2442  -26.1830   21.5874 C   0  0  0  0  0  0  0  0  0  0  0  0
   -0.1916  -25.3808   22.6870 O   0  0  0  0  0  0  0  0  0  0  0  0
   -0.2175  -26.2109   23.8683 C   0  0  0  0  0  0  0  0  0  0  0  0
    1.1327  -28.2700   24.5235 C   0  0  0  0  0  0  0  0  0  0  0  0
    1.8790  -27.6305   25.2647 O   0  0  0  0  0  0  0  0  0  0  0  0
    1.1920  -29.6455   24.5326 N   0  0  0  0  0  0  0  0  0  0  0  0
   -2.2817  -33.7487   21.5929 H   0  0  0  0  0  0  0  0  0  0  0  0
   -1.6682  -28.0948   22.5332 H   0  0  0  0  0  0  0  0  0  0  0  0
    1.8734  -30.0608   25.1528 H   0  0  0  0  0  0  0  0  0  0  0  0
   -3.5536  -28.3649   21.9260 O   0  0  0  0  0  0  0  0  0  0  0  0
   -3.4491  -29.3274   21.1684 C   0  0  0  0  0  0  0  0  0  0  0  0
   -3.9614  -29.1758   19.7934 C   0  0  0  0  0  0  0  0  0  0  0  0
   -5.1191  -29.8917   19.4554 C   0  0  0  0  0  0  0  0  0  0  0  0
   -5.6470  -29.7893   18.1686 C   0  0  0  0  0  0  0  0  0  0  0  0
   -5.0050  -28.9978   17.2155 C   0  0  0  0  0  0  0  0  0  0  0  0
   -3.8514  -28.2813   17.5496 C   0  0  0  0  0  0  0  0  0  0  0  0
   -3.3183  -28.3812   18.8376 C   0  0  0  0  0  0  0  0  0  0  0  0
   -1.8553  -27.5270   19.1703 Cl  0  0  0  0  0  0  0  0  0  0  0  0
   -5.5982  -28.9164   15.9758 O   0  0  0  0  0  0  0  0  0  0  0  0
   -6.6825  -28.0780   15.8506 C   0  0  0  0  0  0  0  0  0  0  0  0
   -7.9435  -28.6726   15.8000 C   0  0  0  0  0  0  0  0  0  0  0  0
   -9.0798  -27.8783   15.6454 C   0  0  0  0  0  0  0  0  0  0  0  0
   -8.9518  -26.4940   15.5260 C   0  0  0  0  0  0  0  0  0  0  0  0
   -7.6881  -25.9027   15.5522 C   0  0  0  0  0  0  0  0  0  0  0  0
   -6.5494  -26.6944   15.7063 C   0  0  0  0  0  0  0  0  0  0  0  0
   -3.9464  -32.0890   20.5375 H   0  0  0  0  0  0  0  0  0  0  0  0
    1.2380  -32.2279   24.3139 H   0  0  0  0  0  0  0  0  0  0  0  0
    0.9059  -28.2205   21.5201 H   0  0  0  0  0  0  0  0  0  0  0  0
    2.0099  -27.2055   22.3255 H   0  0  0  0  0  0  0  0  0  0  0  0
   -0.5975  -26.5076   21.0121 H   0  0  0  0  0  0  0  0  0  0  0  0
    0.8882  -25.6270   20.9386 H   0  0  0  0  0  0  0  0  0  0  0  0
   -1.2061  -26.2276   24.2773 H   0  0  0  0  0  0  0  0  0  0  0  0
    0.4524  -25.8226   24.6068 H   0  0  0  0  0  0  0  0  0  0  0  0
   -5.5791  -30.4927   20.1570 H   0  0  0  0  0  0  0  0  0  0  0  0
   -6.5105  -30.2978   17.9219 H   0  0  0  0  0  0  0  0  0  0  0  0
   -3.3946  -27.6799   16.8463 H   0  0  0  0  0  0  0  0  0  0  0  0
   -8.0355  -29.6976   15.8768 H   0  0  0  0  0  0  0  0  0  0  0  0
  -10.0148  -28.3144   15.6193 H   0  0  0  0  0  0  0  0  0  0  0  0
   -9.7933  -25.9064   15.4181 H   0  0  0  0  0  0  0  0  0  0  0  0
   -7.5956  -24.8792   15.4575 H   0  0  0  0  0  0  0  0  0  0  0  0
   -5.6132  -26.2601   15.7137 H   0  0  0  0  0  0  0  0  0  0  0  0
  1  2  2  0
  2  3  1  0
  2 38  1  0
  3  4  1  0
  3 19  1  0
  4  5  2  0
  5  6  1  0
  6  7  2  0
  6 39  1  0
  7  8  1  0
  8  9  2  0
  8 10  1  0
  9  1  1  0
  9  4  1  0
 11 10  1  6
 10 20  1  0
 11 12  1  0
 11 16  1  0
 12 13  1  0
 12 40  1  0
 12 41  1  0
 13 14  1  0
 13 42  1  0
 13 43  1  0
 14 15  1  0
 15 11  1  0
 15 44  1  0
 15 45  1  0
 16 17  2  0
 16 18  1  0
 18  7  1  0
 18 21  1  0
 22 23  2  0
 23 24  1  0
 23  1  1  0
 24 25  2  0
 25 26  1  0
 25 46  1  0
 26 27  2  0
 26 47  1  0
 27 31  1  0
 27 28  1  0
 28 29  2  0
 28 48  1  0
 29 30  1  0
 29 24  1  0
 31 32  1  0
 32 33  2  0
 33 34  1  0
 33 49  1  0
 34 35  2  0
 34 50  1  0
 35 36  1  0
 35 51  1  0
 36 37  2  0
 36 52  1  0
 37 32  1  0
 37 53  1  0
M  END
>  <minimizedAffinity>  (7) 
-9.81011

>  <mol_id>  (7) 
133412

>  <source_index>  (7) 
6

>  <layer>  (7) 
L2

>  <uniprot>  (7) 
Q06187

>  <paff>  (7) 
7.3851000000000004

>  <smiles>  (7) 
O=C(c1ccc(Oc2ccccc2)cc1Cl)c1c[nH]c2ncc3c(c12)NC1(CCOC1)C(=O)N3

$$$$
L2:Q06187:133702
     RDKit          3D

 77 82  0  0  0  0  0  0  0  0999 V2000
   -2.6805  -27.5344   20.2467 C   0  0  0  0  0  0  0  0  0  0  0  0
   -3.7397  -28.2917   20.5479 N   0  0  0  0  0  0  0  0  0  0  0  0
   -4.2855  -28.6206   19.3574 N   0  0  0  0  0  0  0  0  0  0  0  0
   -3.8101  -27.8299   18.3174 C   0  0  0  0  0  0  0  0  0  0  0  0
   -4.1824  -27.5744   16.9765 C   0  0  0  0  0  0  0  0  0  0  0  0
   -3.2545  -26.8246   16.2545 C   0  0  0  0  0  0  0  0  0  0  0  0
   -2.1252  -26.2777   16.7358 N   0  0  0  0  0  0  0  0  0  0  0  0
   -1.8376  -26.4131   18.0418 C   0  0  0  0  0  0  0  0  0  0  0  0
   -0.7308  -25.6930   18.4828 N   0  0  0  0  0  0  0  0  0  0  0  0
   -2.6700  -27.2032   18.8617 C   0  0  0  0  0  0  0  0  0  0  0  0
   -5.4636  -27.9365   16.2879 C   0  0  0  0  0  0  0  0  0  0  0  0
   -6.3617  -26.7271   15.9605 C   0  0  0  0  0  0  0  0  0  0  0  0
   -7.8558  -27.0344   16.1422 C   0  0  0  0  0  0  0  0  0  0  0  0
   -8.3684  -28.1866   15.2706 C   0  0  0  0  0  0  0  0  0  0  0  0
   -9.5522  -28.7788   15.9132 N   0  0  0  0  0  0  0  0  0  0  0  0
   -9.7178  -30.2018   15.5248 C   0  0  0  0  0  0  0  0  0  0  0  0
   -8.5932  -31.0544   16.1462 C   0  0  0  0  0  0  0  0  0  0  0  0
   -8.0612  -31.9849   15.5505 O   0  0  0  0  0  0  0  0  0  0  0  0
   -8.2312  -30.6301   17.4171 N   0  0  0  0  0  0  0  0  0  0  0  0
   -6.8599  -30.8077   17.8612 C   0  0  2  0  0  0  0  0  0  0  0  0
   -6.5012  -32.2421   18.2740 C   0  0  0  0  0  0  0  0  0  0  0  0
   -5.0674  -32.3399   18.8161 C   0  0  0  0  0  0  0  0  0  0  0  0
   -4.2742  -31.0337   18.6904 C   0  0  0  0  0  0  0  0  0  0  0  0
   -5.0333  -29.8832   19.3753 C   0  0  2  0  0  0  0  0  0  0  0  0
   -6.5249  -29.8293   19.0038 C   0  0  0  0  0  0  0  0  0  0  0  0
   -0.4818  -25.0295   17.7566 H   0  0  0  0  0  0  0  0  0  0  0  0
   -0.8609  -25.2844   19.3990 H   0  0  0  0  0  0  0  0  0  0  0  0
  -10.3802  -28.2632   15.6104 H   0  0  0  0  0  0  0  0  0  0  0  0
   -8.6667  -29.7333   17.6303 H   0  0  0  0  0  0  0  0  0  0  0  0
    0.0493  -26.4568   23.3251 C   0  0  0  0  0  0  0  0  0  0  0  0
    0.4203  -27.4259   22.3916 C   0  0  0  0  0  0  0  0  0  0  0  0
   -0.4769  -27.7808   21.3821 C   0  0  0  0  0  0  0  0  0  0  0  0
   -1.7353  -27.1628   21.2977 C   0  0  0  0  0  0  0  0  0  0  0  0
   -2.0941  -26.2017   22.2555 C   0  0  0  0  0  0  0  0  0  0  0  0
   -1.2037  -25.8456   23.2710 C   0  0  0  0  0  0  0  0  0  0  0  0
    0.5173  -26.3015   25.6472 N   0  0  0  0  0  0  0  0  0  0  0  0
    0.9961  -26.0603   24.3856 C   0  0  0  0  0  0  0  0  0  0  0  0
    2.0742  -25.5876   24.0586 O   0  0  0  0  0  0  0  0  0  0  0  0
   -0.4087  -26.6901   25.7631 H   0  0  0  0  0  0  0  0  0  0  0  0
    1.8236  -23.6208   29.6341 C   0  0  0  0  0  0  0  0  0  0  0  0
    1.8590  -24.8672   28.8014 C   0  0  0  0  0  0  0  0  0  0  0  0
    2.5611  -25.9911   29.2299 C   0  0  0  0  0  0  0  0  0  0  0  0
    2.5341  -27.1227   28.4374 C   0  0  0  0  0  0  0  0  0  0  0  0
    1.8609  -27.2112   27.2694 N   0  0  0  0  0  0  0  0  0  0  0  0
    1.1724  -26.1220   26.8658 C   0  0  0  0  0  0  0  0  0  0  0  0
    1.1435  -24.9436   27.5992 C   0  0  0  0  0  0  0  0  0  0  0  0
   -3.4544  -26.6751   15.2531 H   0  0  0  0  0  0  0  0  0  0  0  0
   -6.0115  -28.6004   16.9235 H   0  0  0  0  0  0  0  0  0  0  0  0
   -5.1974  -28.3867   15.3544 H   0  0  0  0  0  0  0  0  0  0  0  0
   -6.1921  -26.4396   14.9439 H   0  0  0  0  0  0  0  0  0  0  0  0
   -6.1075  -25.9411   16.6406 H   0  0  0  0  0  0  0  0  0  0  0  0
   -8.4122  -26.1540   15.8966 H   0  0  0  0  0  0  0  0  0  0  0  0
   -7.9872  -27.3357   17.1604 H   0  0  0  0  0  0  0  0  0  0  0  0
   -7.6045  -28.9291   15.1708 H   0  0  0  0  0  0  0  0  0  0  0  0
   -8.6280  -27.8195   14.2996 H   0  0  0  0  0  0  0  0  0  0  0  0
   -9.6771  -30.2848   14.4588 H   0  0  0  0  0  0  0  0  0  0  0  0
  -10.6629  -30.5547   15.8814 H   0  0  0  0  0  0  0  0  0  0  0  0
   -6.2589  -30.5917   17.0027 H   0  0  0  0  0  0  0  0  0  0  0  0
   -6.5928  -32.8809   17.4205 H   0  0  0  0  0  0  0  0  0  0  0  0
   -7.1715  -32.5408   19.0527 H   0  0  0  0  0  0  0  0  0  0  0  0
   -4.5512  -33.1030   18.2720 H   0  0  0  0  0  0  0  0  0  0  0  0
   -5.1407  -32.5637   19.8599 H   0  0  0  0  0  0  0  0  0  0  0  0
   -4.1386  -30.8007   17.6549 H   0  0  0  0  0  0  0  0  0  0  0  0
   -3.3229  -31.1557   19.1648 H   0  0  0  0  0  0  0  0  0  0  0  0
   -5.0827  -30.1045   20.4210 H   0  0  0  0  0  0  0  0  0  0  0  0
   -6.7697  -28.8352   18.6929 H   0  0  0  0  0  0  0  0  0  0  0  0
   -7.0948  -30.1114   19.8643 H   0  0  0  0  0  0  0  0  0  0  0  0
    1.3477  -27.8753   22.4469 H   0  0  0  0  0  0  0  0  0  0  0  0
   -0.2134  -28.5024   20.6930 H   0  0  0  0  0  0  0  0  0  0  0  0
   -3.0231  -25.7546   22.2091 H   0  0  0  0  0  0  0  0  0  0  0  0
   -1.4697  -25.1381   23.9736 H   0  0  0  0  0  0  0  0  0  0  0  0
    2.4281  -23.7573   30.5063 H   0  0  0  0  0  0  0  0  0  0  0  0
    0.8151  -23.4164   29.9275 H   0  0  0  0  0  0  0  0  0  0  0  0
    2.2023  -22.7992   29.0627 H   0  0  0  0  0  0  0  0  0  0  0  0
    3.0883  -25.9790   30.1170 H   0  0  0  0  0  0  0  0  0  0  0  0
    3.0603  -27.9508   28.7572 H   0  0  0  0  0  0  0  0  0  0  0  0
    0.6010  -24.1328   27.2626 H   0  0  0  0  0  0  0  0  0  0  0  0
  1  2  2  0
  2  3  1  0
  3  4  1  0
  4  5  2  0
  5  6  1  0
  5 11  1  0
  6  7  2  0
  6 47  1  0
  7  8  1  0
  8  9  1  0
  8 10  2  0
  9 26  1  0
  9 27  1  0
 10  1  1  0
 10  4  1  0
 11 12  1  0
 11 48  1  0
 11 49  1  0
 12 13  1  0
 12 50  1  0
 12 51  1  0
 13 14  1  0
 13 52  1  0
 13 53  1  0
 14 15  1  0
 14 54  1  0
 14 55  1  0
 15 16  1  0
 15 28  1  0
 16 17  1  0
 16 56  1  0
 16 57  1  0
 17 18  2  0
 17 19  1  0
 19 20  1  0
 19 29  1  0
 20 21  1  0
 20 58  1  6
 21 22  1  0
 21 59  1  0
 21 60  1  0
 22 23  1  0
 22 61  1  0
 22 62  1  0
 23 24  1  0
 23 63  1  0
 23 64  1  0
 24 25  1  0
 24  3  1  0
 24 65  1  1
 25 20  1  0
 25 66  1  0
 25 67  1  0
 30 31  2  0
 31 32  1  0
 31 68  1  0
 32 33  2  0
 32 69  1  0
 33  1  1  0
 33 34  1  0
 34 35  2  0
 34 70  1  0
 35 30  1  0
 35 71  1  0
 36 37  1  0
 36 39  1  0
 37 38  2  0
 37 30  1  0
 40 41  1  0
 40 72  1  0
 40 73  1  0
 40 74  1  0
 41 42  2  0
 42 43  1  0
 42 75  1  0
 43 44  2  0
 43 76  1  0
 44 45  1  0
 45 36  1  0
 45 46  2  0
 46 41  1  0
 46 77  1  0
M  END
>  <minimizedAffinity>  (8) 
-9.81161

>  <mol_id>  (8) 
133702

>  <source_index>  (8) 
7

>  <layer>  (8) 
L2

>  <uniprot>  (8) 
Q06187

>  <paff>  (8) 
8.3010000000000002

>  <smiles>  (8) 
Cc1ccnc(NC(=O)c2ccc(-c3nn4c5c(cnc(N)c35)CCCCNCC(=O)N[C@@H]3CCC[C@@H]4C3)cc2)c1

$$$$
L2:Q06187:140872
     RDKit          3D

 82 88  0  0  0  0  0  0  0  0999 V2000
   -0.5912  -25.6361   20.6779 C   0  0  0  0  0  0  0  0  0  0  0  0
   -1.8736  -25.2705   20.2795 C   0  0  0  0  0  0  0  0  0  0  0  0
   -2.0607  -24.1773   19.4311 C   0  0  0  0  0  0  0  0  0  0  0  0
   -0.9812  -23.3913   18.9618 C   0  0  0  0  0  0  0  0  0  0  0  0
    0.3203  -23.7768   19.3420 C   0  0  0  0  0  0  0  0  0  0  0  0
    0.4915  -24.8857   20.2005 C   0  0  0  0  0  0  0  0  0  0  0  0
    1.5718  -23.1020   18.8391 C   0  0  0  0  0  0  0  0  0  0  0  0
    1.7296  -21.6524   19.2875 C   0  0  0  0  0  0  0  0  0  0  0  0
    0.5818  -20.7177   18.9099 C   0  0  0  0  0  0  0  0  0  0  0  0
   -0.2190  -21.1925   17.6983 C   0  0  0  0  0  0  0  0  0  0  0  0
   -1.3263  -22.2084   18.0520 C   0  0  2  0  0  0  0  0  0  0  0  0
   -2.4775  -29.6220   20.7801 C   0  0  0  0  0  0  0  0  0  0  0  0
   -1.7538  -30.1095   21.7681 N   0  0  0  0  0  0  0  0  0  0  0  0
   -0.9107  -29.0972   22.1347 C   0  0  0  0  0  0  0  0  0  0  0  0
    0.0113  -29.1593   23.1203 N   0  0  0  0  0  0  0  0  0  0  0  0
    0.7246  -28.0243   23.2875 C   0  0  0  0  0  0  0  0  0  0  0  0
    0.5815  -26.8558   22.5458 C   0  0  0  0  0  0  0  0  0  0  0  0
   -0.3723  -26.7986   21.5258 C   0  0  0  0  0  0  0  0  0  0  0  0
   -1.1138  -27.9684   21.3559 C   0  0  0  0  0  0  0  0  0  0  0  0
   -2.1199  -28.3303   20.5012 N   0  0  0  0  0  0  0  0  0  0  0  0
   -2.5240  -27.7402   19.7912 H   0  0  0  0  0  0  0  0  0  0  0  0
   -5.0545  -28.5678   18.9667 C   0  0  0  0  0  0  0  0  0  0  0  0
   -4.6536  -29.9577   19.3032 C   0  0  0  0  0  0  0  0  0  0  0  0
   -3.5854  -30.4267   20.0500 C   0  0  0  0  0  0  0  0  0  0  0  0
   -3.6912  -31.8243   20.0294 C   0  0  0  0  0  0  0  0  0  0  0  0
   -4.7481  -32.2356   19.3311 N   0  0  0  0  0  0  0  0  0  0  0  0
   -5.3334  -31.0958   18.9064 N   0  0  0  0  0  0  0  0  0  0  0  0
   -6.5832  -31.2324   18.1612 C   0  0  0  0  0  0  0  0  0  0  0  0
   -6.5657  -30.5208   16.7993 C   0  0  0  0  0  0  0  0  0  0  0  0
   -7.9332  -29.9472   16.4590 C   0  0  0  0  0  0  0  0  0  0  0  0
   -8.9452  -30.8820   16.8101 O   0  0  0  0  0  0  0  0  0  0  0  0
   -9.0916  -31.0678   18.2170 C   0  0  0  0  0  0  0  0  0  0  0  0
   -7.8036  -30.8664   19.0076 C   0  0  0  0  0  0  0  0  0  0  0  0
   -2.4625  -21.4810   18.6165 N   0  0  0  0  0  0  0  0  0  0  0  0
   -3.3805  -20.7946   17.8379 C   0  0  0  0  0  0  0  0  0  0  0  0
   -3.3200  -20.7993   16.6090 O   0  0  0  0  0  0  0  0  0  0  0  0
   -2.5088  -21.3509   19.6242 H   0  0  0  0  0  0  0  0  0  0  0  0
   -4.3885  -20.0888   18.6028 C   0  0  0  0  0  0  0  0  0  0  0  0
   -4.5352  -20.1150   19.9141 N   0  0  0  0  0  0  0  0  0  0  0  0
   -5.6282  -19.3226   20.1956 N   0  0  0  0  0  0  0  0  0  0  0  0
   -6.0661  -18.8610   19.0420 C   0  0  0  0  0  0  0  0  0  0  0  0
   -5.3211  -19.3051   17.9796 O   0  0  0  0  0  0  0  0  0  0  0  0
   -7.2309  -17.9624   18.7413 C   0  0  0  0  0  0  0  0  0  0  0  0
   -6.9610  -17.1801   17.4452 C   0  0  0  0  0  0  0  0  0  0  0  0
   -7.4390  -16.9633   19.8951 C   0  0  0  0  0  0  0  0  0  0  0  0
   -8.5109  -18.8015   18.5785 C   0  0  0  0  0  0  0  0  0  0  0  0
   -2.6887  -25.8090   20.6121 H   0  0  0  0  0  0  0  0  0  0  0  0
   -3.0192  -23.9340   19.1361 H   0  0  0  0  0  0  0  0  0  0  0  0
    1.4468  -25.1522   20.4858 H   0  0  0  0  0  0  0  0  0  0  0  0
    1.5558  -23.1216   17.7694 H   0  0  0  0  0  0  0  0  0  0  0  0
    2.3975  -23.6416   19.2538 H   0  0  0  0  0  0  0  0  0  0  0  0
    2.6261  -21.2674   18.8483 H   0  0  0  0  0  0  0  0  0  0  0  0
    1.7486  -21.6765   20.3571 H   0  0  0  0  0  0  0  0  0  0  0  0
    0.9893  -19.7532   18.6894 H   0  0  0  0  0  0  0  0  0  0  0  0
   -0.0909  -20.6943   19.7416 H   0  0  0  0  0  0  0  0  0  0  0  0
    0.4547  -21.6531   17.0063 H   0  0  0  0  0  0  0  0  0  0  0  0
   -0.7017  -20.3325   17.2833 H   0  0  0  0  0  0  0  0  0  0  0  0
   -1.5326  -22.6856   17.1168 H   0  0  0  0  0  0  0  0  0  0  0  0
    1.4395  -28.0239   24.0318 H   0  0  0  0  0  0  0  0  0  0  0  0
    1.1758  -26.0366   22.7475 H   0  0  0  0  0  0  0  0  0  0  0  0
   -4.3566  -27.8810   19.3980 H   0  0  0  0  0  0  0  0  0  0  0  0
   -6.0322  -28.3744   19.3560 H   0  0  0  0  0  0  0  0  0  0  0  0
   -5.0635  -28.4467   17.9036 H   0  0  0  0  0  0  0  0  0  0  0  0
   -3.0281  -32.4598   20.5000 H   0  0  0  0  0  0  0  0  0  0  0  0
   -6.6730  -32.2732   17.9297 H   0  0  0  0  0  0  0  0  0  0  0  0
   -6.2838  -31.2228   16.0426 H   0  0  0  0  0  0  0  0  0  0  0  0
   -5.8634  -29.7150   16.8478 H   0  0  0  0  0  0  0  0  0  0  0  0
   -7.9834  -29.7460   15.4093 H   0  0  0  0  0  0  0  0  0  0  0  0
   -8.0833  -29.0400   17.0061 H   0  0  0  0  0  0  0  0  0  0  0  0
   -9.4400  -32.0646   18.3901 H   0  0  0  0  0  0  0  0  0  0  0  0
   -9.7822  -30.3245   18.5567 H   0  0  0  0  0  0  0  0  0  0  0  0
   -7.8257  -31.4880   19.8783 H   0  0  0  0  0  0  0  0  0  0  0  0
   -7.7305  -29.8361   19.2869 H   0  0  0  0  0  0  0  0  0  0  0  0
   -6.0711  -16.5971   17.5592 H   0  0  0  0  0  0  0  0  0  0  0  0
   -7.7879  -16.5325   17.2407 H   0  0  0  0  0  0  0  0  0  0  0  0
   -6.8363  -17.8664   16.6338 H   0  0  0  0  0  0  0  0  0  0  0  0
   -6.5554  -16.3727   20.0193 H   0  0  0  0  0  0  0  0  0  0  0  0
   -7.6397  -17.4993   20.7992 H   0  0  0  0  0  0  0  0  0  0  0  0
   -8.2664  -16.3239   19.6683 H   0  0  0  0  0  0  0  0  0  0  0  0
   -8.3798  -19.5006   17.7792 H   0  0  0  0  0  0  0  0  0  0  0  0
   -9.3347  -18.1559   18.3562 H   0  0  0  0  0  0  0  0  0  0  0  0
   -8.7080  -19.3313   19.4870 H   0  0  0  0  0  0  0  0  0  0  0  0
  1  2  2  0
  2  3  1  0
  2 47  1  0
  3  4  2  0
  3 48  1  0
  4  5  1  0
  5  6  2  0
  5  7  1  0
  6  1  1  0
  6 49  1  0
  7  8  1  0
  7 50  1  0
  7 51  1  0
  8  9  1  0
  8 52  1  0
  8 53  1  0
  9 10  1  0
  9 54  1  0
  9 55  1  0
 10 11  1  0
 10 56  1  0
 10 57  1  0
 11 34  1  0
 11  4  1  0
 11 58  1  6
 12 13  2  0
 13 14  1  0
 14 15  2  0
 15 16  1  0
 16 17  2  0
 16 59  1  0
 17 18  1  0
 17 60  1  0
 18  1  1  0
 18 19  2  0
 19 20  1  0
 19 14  1  0
 20 12  1  0
 20 21  1  0
 22 23  1  0
 22 61  1  0
 22 62  1  0
 22 63  1  0
 23 24  2  0
 24 12  1  0
 24 25  1  0
 25 26  2  0
 25 64  1  0
 26 27  1  0
 27 28  1  0
 27 23  1  0
 28 29  1  0
 28 65  1  0
 29 30  1  0
 29 66  1  0
 29 67  1  0
 30 31  1  0
 30 68  1  0
 30 69  1  0
 31 32  1  0
 32 33  1  0
 32 70  1  0
 32 71  1  0
 33 28  1  0
 33 72  1  0
 33 73  1  0
 34 35  1  0
 34 37  1  0
 35 36  2  0
 35 38  1  0
 38 39  2  0
 39 40  1  0
 40 41  2  0
 41 43  1  0
 41 42  1  0
 42 38  1  0
 43 44  1  0
 43 45  1  0
 43 46  1  0
 44 74  1  0
 44 75  1  0
 44 76  1  0
 45 77  1  0
 45 78  1  0
 45 79  1  0
 46 80  1  0
 46 81  1  0
 46 82  1  0
M  END
>  <minimizedAffinity>  (9) 
-9.76177

>  <mol_id>  (9) 
140872

>  <source_index>  (9) 
8

>  <layer>  (9) 
L2

>  <uniprot>  (9) 
Q06187

>  <paff>  (9) 
8.2596000000000007

>  <smiles>  (9) 
Cc1c(-c2nc3nccc(-c4ccc5c(c4)CCCC[C@@H]5NC(=O)c4nnc(C(C)(C)C)o4)c3[nH]2)cnn1C1CCOCC1

$$$$
L2:Q06187:146414
     RDKit          3D

 76 81  0  0  0  0  0  0  0  0999 V2000
   -2.8913  -26.2398   22.2999 N   0  0  0  0  0  0  0  0  0  0  0  0
   -1.6662  -26.3812   22.9210 C   0  0  0  0  0  0  0  0  0  0  0  0
   -1.2564  -25.3156   23.6358 N   0  0  0  0  0  0  0  0  0  0  0  0
   -0.0411  -25.3324   24.2186 C   0  0  0  0  0  0  0  0  0  0  0  0
    0.8839  -26.3777   24.1690 C   0  0  0  0  0  0  0  0  0  0  0  0
    0.4185  -27.5131   23.4707 C   0  0  0  0  0  0  0  0  0  0  0  0
   -0.8419  -27.5231   22.8475 C   0  0  0  0  0  0  0  0  0  0  0  0
   -0.9392  -28.8033   22.2250 C   0  0  0  0  0  0  0  0  0  0  0  0
    0.1711  -29.5225   22.4119 N   0  0  0  0  0  0  0  0  0  0  0  0
    0.9437  -28.7632   23.2089 N   0  0  0  0  0  0  0  0  0  0  0  0
    2.1885  -29.3584   23.6900 C   0  0  2  0  0  0  0  0  0  0  0  0
    3.2792  -29.3446   22.6061 C   0  0  0  0  0  0  0  0  0  0  0  0
    4.3813  -30.3811   22.8372 C   0  0  0  0  0  0  0  0  0  0  0  0
    4.5545  -30.7219   24.3124 C   0  0  0  0  0  0  0  0  0  0  0  0
    3.2740  -31.3384   24.8949 C   0  0  2  0  0  0  0  0  0  0  0  0
    1.9843  -30.7648   24.2790 C   0  0  0  0  0  0  0  0  0  0  0  0
    3.2396  -31.2654   26.4204 C   0  0  0  0  0  0  0  0  0  0  0  0
    3.2133  -32.2818   27.1103 O   0  0  0  0  0  0  0  0  0  0  0  0
    3.2096  -29.9991   26.9602 N   0  0  0  0  0  0  0  0  0  0  0  0
    3.1875  -29.8087   28.3941 C   0  0  0  0  0  0  0  0  0  0  0  0
    3.0233  -28.3474   28.8127 C   0  0  0  0  0  0  0  0  0  0  0  0
    1.6690  -27.7326   28.4329 C   0  0  0  0  0  0  0  0  0  0  0  0
    1.4753  -27.3102   26.9978 C   0  0  0  0  0  0  0  0  0  0  0  0
    2.3748  -26.6492   26.2480 C   0  0  0  0  0  0  0  0  0  0  0  0
    2.2265  -26.1758   24.8239 C   0  0  0  0  0  0  0  0  0  0  0  0
   -3.4034  -27.0650   22.0388 H   0  0  0  0  0  0  0  0  0  0  0  0
   -3.4051  -25.4405   22.6460 H   0  0  0  0  0  0  0  0  0  0  0  0
    3.4708  -29.2100   26.3883 H   0  0  0  0  0  0  0  0  0  0  0  0
   -2.0399  -29.3697   21.4563 C   0  0  0  0  0  0  0  0  0  0  0  0
   -2.4917  -28.7383   20.2895 C   0  0  0  0  0  0  0  0  0  0  0  0
   -3.5558  -29.2806   19.5606 C   0  0  0  0  0  0  0  0  0  0  0  0
   -4.1802  -30.4553   20.0022 C   0  0  0  0  0  0  0  0  0  0  0  0
   -3.7519  -31.0672   21.1862 C   0  0  0  0  0  0  0  0  0  0  0  0
   -2.6844  -30.5274   21.9079 C   0  0  0  0  0  0  0  0  0  0  0  0
   -5.3251  -31.0608   19.2654 C   0  0  0  0  0  0  0  0  0  0  0  0
   -5.1194  -32.0508   18.5737 O   0  0  0  0  0  0  0  0  0  0  0  0
   -6.5229  -30.4047   19.4170 N   0  0  0  0  0  0  0  0  0  0  0  0
   -6.5582  -29.5274   19.9169 H   0  0  0  0  0  0  0  0  0  0  0  0
   -7.7593  -30.7305   18.8601 C   0  0  0  0  0  0  0  0  0  0  0  0
   -8.2478  -30.2004   17.6757 C   0  0  0  0  0  0  0  0  0  0  0  0
   -9.5094  -30.6044   17.2161 C   0  0  0  0  0  0  0  0  0  0  0  0
  -10.2335  -31.5273   17.9737 C   0  0  0  0  0  0  0  0  0  0  0  0
   -9.6654  -32.0081   19.1384 C   0  0  0  0  0  0  0  0  0  0  0  0
   -8.4492  -31.6333   19.5893 N   0  0  0  0  0  0  0  0  0  0  0  0
  -10.0627  -30.0311   15.9398 C   0  0  0  0  0  0  0  0  0  0  0  0
  -11.2799  -29.4489   16.1149 F   0  0  0  0  0  0  0  0  0  0  0  0
  -10.2350  -30.9653   14.9623 F   0  0  0  0  0  0  0  0  0  0  0  0
   -9.2580  -29.0756   15.4003 F   0  0  0  0  0  0  0  0  0  0  0  0
    0.2320  -24.4926   24.7525 H   0  0  0  0  0  0  0  0  0  0  0  0
    2.5292  -28.7423   24.4958 H   0  0  0  0  0  0  0  0  0  0  0  0
    3.7265  -28.3727   22.5878 H   0  0  0  0  0  0  0  0  0  0  0  0
    2.8051  -29.5901   21.6788 H   0  0  0  0  0  0  0  0  0  0  0  0
    5.3048  -29.9906   22.4635 H   0  0  0  0  0  0  0  0  0  0  0  0
    4.1003  -31.2775   22.3249 H   0  0  0  0  0  0  0  0  0  0  0  0
    4.7880  -29.8279   24.8519 H   0  0  0  0  0  0  0  0  0  0  0  0
    5.3461  -31.4360   24.4042 H   0  0  0  0  0  0  0  0  0  0  0  0
    3.3070  -32.3717   24.6190 H   0  0  0  0  0  0  0  0  0  0  0  0
    1.2341  -30.7126   25.0402 H   0  0  0  0  0  0  0  0  0  0  0  0
    1.6892  -31.4125   23.4801 H   0  0  0  0  0  0  0  0  0  0  0  0
    4.1076  -30.1756   28.7987 H   0  0  0  0  0  0  0  0  0  0  0  0
    2.3384  -30.3409   28.7693 H   0  0  0  0  0  0  0  0  0  0  0  0
    3.7954  -27.7749   28.3426 H   0  0  0  0  0  0  0  0  0  0  0  0
    3.0825  -28.3249   29.8808 H   0  0  0  0  0  0  0  0  0  0  0  0
    1.5274  -26.8659   29.0442 H   0  0  0  0  0  0  0  0  0  0  0  0
    0.9598  -28.5194   28.5842 H   0  0  0  0  0  0  0  0  0  0  0  0
    0.5751  -27.5490   26.5532 H   0  0  0  0  0  0  0  0  0  0  0  0
    3.2773  -26.4403   26.7029 H   0  0  0  0  0  0  0  0  0  0  0  0
    2.9537  -26.6942   24.2346 H   0  0  0  0  0  0  0  0  0  0  0  0
    2.3548  -25.1145   24.8704 H   0  0  0  0  0  0  0  0  0  0  0  0
   -2.0376  -27.8697   19.9666 H   0  0  0  0  0  0  0  0  0  0  0  0
   -3.8808  -28.8160   18.6983 H   0  0  0  0  0  0  0  0  0  0  0  0
   -4.2256  -31.9186   21.5265 H   0  0  0  0  0  0  0  0  0  0  0  0
   -2.3695  -30.9843   22.7780 H   0  0  0  0  0  0  0  0  0  0  0  0
   -7.6901  -29.5174   17.1394 H   0  0  0  0  0  0  0  0  0  0  0  0
  -11.1687  -31.8423   17.6717 H   0  0  0  0  0  0  0  0  0  0  0  0
  -10.2012  -32.6924   19.6949 H   0  0  0  0  0  0  0  0  0  0  0  0
  1  2  1  0
  1 26  1  0
  1 27  1  0
  2  3  2  0
  3  4  1  0
  4  5  2  0
  4 49  1  0
  5  6  1  0
  6  7  2  0
  7  8  1  0
  7  2  1  0
  8 29  1  0
  8  9  2  0
  9 10  1  0
 10 11  1  0
 10  6  1  0
 11 12  1  0
 11 50  1  1
 12 13  1  0
 12 51  1  0
 12 52  1  0
 13 14  1  0
 13 53  1  0
 13 54  1  0
 14 15  1  0
 14 55  1  0
 14 56  1  0
 15 16  1  0
 15 17  1  0
 15 57  1  1
 16 11  1  0
 16 58  1  0
 16 59  1  0
 17 18  2  0
 17 19  1  0
 19 20  1  0
 19 28  1  0
 20 21  1  0
 20 60  1  0
 20 61  1  0
 21 22  1  0
 21 62  1  0
 21 63  1  0
 22 23  1  0
 22 64  1  0
 22 65  1  0
 23 24  2  0
 23 66  1  0
 24 25  1  0
 24 67  1  0
 25  5  1  0
 25 68  1  0
 25 69  1  0
 29 30  2  0
 30 31  1  0
 30 70  1  0
 31 32  2  0
 31 71  1  0
 32 35  1  0
 32 33  1  0
 33 34  2  0
 33 72  1  0
 34 29  1  0
 34 73  1  0
 35 36  2  0
 35 37  1  0
 37 39  1  0
 37 38  1  0
 39 40  2  0
 40 41  1  0
 40 74  1  0
 41 45  1  0
 41 42  2  0
 42 43  1  0
 42 75  1  0
 43 44  2  0
 43 76  1  0
 44 39  1  0
 45 46  1  0
 45 47  1  0
 45 48  1  0
M  END
>  <minimizedAffinity>  (10) 
-10.55084

>  <mol_id>  (10) 
146414

>  <source_index>  (10) 
9

>  <layer>  (10) 
L2

>  <uniprot>  (10) 
Q06187

>  <paff>  (10) 
7.5606999999999998

>  <smiles>  (10) 
Nc1ncc2c3c1c(-c1ccc(C(=O)Nc4cc(C(F)(F)F)ccn4)cc1)nn3[C@@H]1CCC[C@H](C1)C(=O)NCCC/C=C/C2

$$$$
