L2:Q06187:9210
     RDKit          3D

 77 82  0  0  0  0  0  0  0  0999 V2000
   -2.1434  -27.0699   19.9263 C   0  0  0  0  0  0  0  0  0  0  0  0
   -2.5833  -26.8108   18.6246 C   0  0  0  0  0  0  0  0  0  0  0  0
   -2.4318  -25.5467   18.0482 C   0  0  0  0  0  0  0  0  0  0  0  0
   -1.8259  -24.4883   18.7487 C   0  0  0  0  0  0  0  0  0  0  0  0
   -1.3785  -24.7231   20.0617 C   0  0  0  0  0  0  0  0  0  0  0  0
   -1.5452  -26.0073   20.6260 C   0  0  0  0  0  0  0  0  0  0  0  0
   -0.7366  -23.6514   20.9111 C   0  0  0  0  0  0  0  0  0  0  0  0
    0.5618  -23.1042   20.3280 C   0  0  0  0  0  0  0  0  0  0  0  0
    0.3488  -22.0726   19.2264 C   0  0  0  0  0  0  0  0  0  0  0  0
   -0.2626  -22.6345   17.9449 C   0  0  0  0  0  0  0  0  0  0  0  0
   -1.7105  -23.1458   18.0482 C   0  0  2  0  0  0  0  0  0  0  0  0
   -4.8406  -30.3941   19.0718 C   0  0  0  0  0  0  0  0  0  0  0  0
   -4.2032  -29.2382   19.0575 N   0  0  0  0  0  0  0  0  0  0  0  0
   -3.2770  -29.3069   20.0774 C   0  0  0  0  0  0  0  0  0  0  0  0
   -2.3104  -28.3921   20.5471 C   0  0  0  0  0  0  0  0  0  0  0  0
   -1.5320  -28.8318   21.6356 C   0  0  0  0  0  0  0  0  0  0  0  0
   -1.7378  -30.0981   22.1776 C   0  0  0  0  0  0  0  0  0  0  0  0
   -2.6497  -31.0012   21.7504 N   0  0  0  0  0  0  0  0  0  0  0  0
   -3.3686  -30.5374   20.7145 C   0  0  0  0  0  0  0  0  0  0  0  0
   -4.3613  -31.2068   20.0639 N   0  0  0  0  0  0  0  0  0  0  0  0
   -4.6695  -32.1371   20.2903 H   0  0  0  0  0  0  0  0  0  0  0  0
   -5.5812  -33.2738   17.4733 C   0  0  0  0  0  0  0  0  0  0  0  0
   -6.2823  -31.9691   17.4180 C   0  0  0  0  0  0  0  0  0  0  0  0
   -7.3713  -31.8398   16.6463 N   0  0  0  0  0  0  0  0  0  0  0  0
   -7.7528  -30.5583   16.8207 N   0  0  0  0  0  0  0  0  0  0  0  0
   -6.9459  -29.8711   17.6776 C   0  0  0  0  0  0  0  0  0  0  0  0
   -5.9788  -30.7585   18.0842 C   0  0  0  0  0  0  0  0  0  0  0  0
   -8.9276  -30.0558   16.1152 C   0  0  0  0  0  0  0  0  0  0  0  0
  -10.2045  -30.2779   16.9244 C   0  0  0  0  0  0  0  0  0  0  0  0
   -8.7614  -28.5878   15.7254 C   0  0  0  0  0  0  0  0  0  0  0  0
   -2.6254  -22.1897   18.6352 N   0  0  0  0  0  0  0  0  0  0  0  0
   -3.3247  -21.2581   17.8943 C   0  0  0  0  0  0  0  0  0  0  0  0
   -3.2191  -21.1556   16.6755 O   0  0  0  0  0  0  0  0  0  0  0  0
   -2.8159  -22.2219   19.6313 H   0  0  0  0  0  0  0  0  0  0  0  0
   -4.2002  -20.4142   18.7215 C   0  0  0  0  0  0  0  0  0  0  0  0
   -3.9936  -20.1847   20.0283 N   0  0  0  0  0  0  0  0  0  0  0  0
   -5.0479  -19.3501   20.3879 O   0  0  0  0  0  0  0  0  0  0  0  0
   -5.7982  -19.1518   19.2636 C   0  0  0  0  0  0  0  0  0  0  0  0
   -5.3267  -19.7820   18.2106 N   0  0  0  0  0  0  0  0  0  0  0  0
   -7.0087  -18.2730   19.3978 C   0  0  0  0  0  0  0  0  0  0  0  0
   -6.7084  -16.8801   18.8196 C   0  0  0  0  0  0  0  0  0  0  0  0
   -8.1930  -18.8841   18.6272 C   0  0  0  0  0  0  0  0  0  0  0  0
   -7.3975  -18.1435   20.8799 C   0  0  0  0  0  0  0  0  0  0  0  0
   -3.0277  -27.5663   18.0799 H   0  0  0  0  0  0  0  0  0  0  0  0
   -2.7721  -25.3863   17.0872 H   0  0  0  0  0  0  0  0  0  0  0  0
   -1.2149  -26.1720   21.5897 H   0  0  0  0  0  0  0  0  0  0  0  0
   -0.5262  -24.0651   21.8752 H   0  0  0  0  0  0  0  0  0  0  0  0
   -1.4266  -22.8351   20.9594 H   0  0  0  0  0  0  0  0  0  0  0  0
    1.1214  -23.9212   19.9228 H   0  0  0  0  0  0  0  0  0  0  0  0
    1.0799  -22.6111   21.1238 H   0  0  0  0  0  0  0  0  0  0  0  0
    1.2976  -21.6418   18.9835 H   0  0  0  0  0  0  0  0  0  0  0  0
   -0.3488  -21.3571   19.6091 H   0  0  0  0  0  0  0  0  0  0  0  0
    0.3493  -23.4508   17.6223 H   0  0  0  0  0  0  0  0  0  0  0  0
   -0.2982  -21.8123   17.2610 H   0  0  0  0  0  0  0  0  0  0  0  0
   -2.0071  -23.2842   17.0295 H   0  0  0  0  0  0  0  0  0  0  0  0
   -0.8071  -28.2138   22.0326 H   0  0  0  0  0  0  0  0  0  0  0  0
   -1.1424  -30.3714   22.9750 H   0  0  0  0  0  0  0  0  0  0  0  0
   -6.0838  -33.9759   16.8413 H   0  0  0  0  0  0  0  0  0  0  0  0
   -5.5813  -33.6364   18.4800 H   0  0  0  0  0  0  0  0  0  0  0  0
   -4.5724  -33.1511   17.1385 H   0  0  0  0  0  0  0  0  0  0  0  0
   -7.0418  -28.8841   17.9632 H   0  0  0  0  0  0  0  0  0  0  0  0
   -9.0207  -30.6186   15.2099 H   0  0  0  0  0  0  0  0  0  0  0  0
  -10.1465  -29.7278   17.8403 H   0  0  0  0  0  0  0  0  0  0  0  0
  -10.3130  -31.3202   17.1406 H   0  0  0  0  0  0  0  0  0  0  0  0
  -11.0482  -29.9412   16.3589 H   0  0  0  0  0  0  0  0  0  0  0  0
   -8.6650  -27.9928   16.6094 H   0  0  0  0  0  0  0  0  0  0  0  0
   -9.6185  -28.2667   15.1711 H   0  0  0  0  0  0  0  0  0  0  0  0
   -7.8844  -28.4759   15.1227 H   0  0  0  0  0  0  0  0  0  0  0  0
   -6.4381  -16.9727   17.7884 H   0  0  0  0  0  0  0  0  0  0  0  0
   -5.9000  -16.4356   19.3617 H   0  0  0  0  0  0  0  0  0  0  0  0
   -7.5781  -16.2628   18.9064 H   0  0  0  0  0  0  0  0  0  0  0  0
   -7.9346  -18.9795   17.5933 H   0  0  0  0  0  0  0  0  0  0  0  0
   -9.0479  -18.2479   18.7240 H   0  0  0  0  0  0  0  0  0  0  0  0
   -8.4197  -19.8497   19.0287 H   0  0  0  0  0  0  0  0  0  0  0  0
   -6.5815  -17.7194   21.4269 H   0  0  0  0  0  0  0  0  0  0  0  0
   -7.6266  -19.1114   21.2744 H   0  0  0  0  0  0  0  0  0  0  0  0
   -8.2549  -17.5096   20.9697 H   0  0  0  0  0  0  0  0  0  0  0  0
  1  2  2  0
  2  3  1  0
  2 44  1  0
  3  4  2  0
  3 45  1  0
  4  5  1  0
  5  6  2  0
  5  7  1  0
  6  1  1  0
  6 46  1  0
  7  8  1  0
  7 47  1  0
  7 48  1  0
  8  9  1  0
  8 49  1  0
  8 50  1  0
  9 10  1  0
  9 51  1  0
  9 52  1  0
 10 11  1  0
 10 53  1  0
 10 54  1  0
 11 31  1  0
 11  4  1  0
 11 55  1  6
 12 13  2  0
 13 14  1  0
 14 15  2  0
 15  1  1  0
 15 16  1  0
 16 17  2  0
 16 56  1  0
 17 18  1  0
 17 57  1  0
 18 19  2  0
 19 20  1  0
 19 14  1  0
 20 12  1  0
 20 21  1  0
 22 23  1  0
 22 58  1  0
 22 59  1  0
 22 60  1  0
 23 24  2  0
 24 25  1  0
 25 28  1  0
 25 26  1  0
 26 27  2  0
 26 61  1  0
 27 12  1  0
 27 23  1  0
 28 29  1  0
 28 30  1  0
 28 62  1  0
 29 63  1  0
 29 64  1  0
 29 65  1  0
 30 66  1  0
 30 67  1  0
 30 68  1  0
 31 32  1  0
 31 34  1  0
 32 33  2  0
 32 35  1  0
 35 36  2  0
 36 37  1  0
 37 38  1  0
 38 40  1  0
 38 39  2  0
 39 35  1  0
 40 41  1  0
 40 42  1  0
 40 43  1  0
 41 69  1  0
 41 70  1  0
 41 71  1  0
 42 72  1  0
 42 73  1  0
 42 74  1  0
 43 75  1  0
 43 76  1  0
 43 77  1  0
M  END
>  <minimizedAffinity>  (1) 
-10.63622

>  <mol_id>  (1) 
9210

>  <source_index>  (1) 
0

>  <layer>  (1) 
L2

>  <uniprot>  (1) 
Q06187

>  <paff>  (1) 
8.2596000000000007

>  <smiles>  (1) 
Cc1nn(C(C)C)cc1-c1nc2c(-c3ccc4c(c3)CCCC[C@@H]4NC(=O)c3noc(C(C)(C)C)n3)ccnc2[nH]1

$$$$
L2:Q06187:21421
     RDKit          3D

 63 67  0  0  0  0  0  0  0  0999 V2000
   -2.0681  -28.8579   22.0055 C   0  0  0  0  0  0  0  0  0  0  0  0
   -2.2982  -30.2061   22.3358 C   0  0  0  0  0  0  0  0  0  0  0  0
   -3.1054  -31.0160   21.5364 C   0  0  0  0  0  0  0  0  0  0  0  0
   -3.6936  -30.5111   20.3719 C   0  0  0  0  0  0  0  0  0  0  0  0
   -3.4466  -29.1651   20.0478 C   0  0  0  0  0  0  0  0  0  0  0  0
   -3.9631  -28.6779   18.9053 F   0  0  0  0  0  0  0  0  0  0  0  0
   -2.6595  -28.3035   20.8444 C   0  0  0  0  0  0  0  0  0  0  0  0
   -4.5369  -31.3675   19.5215 C   0  0  0  0  0  0  0  0  0  0  0  0
   -4.0687  -32.5949   19.0446 C   0  0  0  0  0  0  0  0  0  0  0  0
   -4.9020  -33.3620   18.2507 C   0  0  0  0  0  0  0  0  0  0  0  0
   -6.1553  -33.0003   17.9074 N   0  0  0  0  0  0  0  0  0  0  0  0
   -6.6083  -31.8156   18.3693 C   0  0  0  0  0  0  0  0  0  0  0  0
   -5.8387  -30.9809   19.1678 C   0  0  0  0  0  0  0  0  0  0  0  0
   -7.9112  -31.5325   17.9644 N   0  0  0  0  0  0  0  0  0  0  0  0
   -8.3272  -30.7946   16.8907 C   0  0  0  0  0  0  0  0  0  0  0  0
   -7.6388  -30.2333   16.0527 O   0  0  0  0  0  0  0  0  0  0  0  0
   -8.6042  -31.9410   18.5749 H   0  0  0  0  0  0  0  0  0  0  0  0
   -9.8110  -30.7277   16.7746 C   0  0  0  0  0  0  0  0  0  0  0  0
  -10.5169  -29.4318   16.4455 C   0  0  0  0  0  0  0  0  0  0  0  0
  -10.4436  -30.5213   15.4175 C   0  0  0  0  0  0  0  0  0  0  0  0
   -2.4258  -26.8625   20.4225 C   0  0  0  0  0  0  0  0  0  0  0  0
   -2.3465  -26.5060   18.9536 C   0  0  0  0  0  0  0  0  0  0  0  0
   -1.1145  -26.4376   19.7971 C   0  0  0  0  0  0  0  0  0  0  0  0
   -1.1397  -28.0546   22.8848 C   0  0  0  0  0  0  0  0  0  0  0  0
    1.2977  -28.3943   22.8113 C   0  0  0  0  0  0  0  0  0  0  0  0
    1.4844  -27.3579   22.1794 O   0  0  0  0  0  0  0  0  0  0  0  0
    0.0429  -28.8052   23.2136 N   0  0  0  0  0  0  0  0  0  0  0  0
   -0.0241  -29.6764   23.7303 H   0  0  0  0  0  0  0  0  0  0  0  0
    4.2879  -30.0589   23.6557 C   0  0  0  0  0  0  0  0  0  0  0  0
    3.7028  -28.9584   23.2370 N   0  0  0  0  0  0  0  0  0  0  0  0
    2.3626  -29.3229   23.2172 C   0  0  0  0  0  0  0  0  0  0  0  0
    2.1376  -30.5892   23.6027 N   0  0  0  0  0  0  0  0  0  0  0  0
    3.4085  -31.0770   23.8931 O   0  0  0  0  0  0  0  0  0  0  0  0
    5.8853  -31.5198   24.8811 C   0  0  0  0  0  0  0  0  0  0  0  0
    5.7422  -30.3428   23.9020 C   0  0  0  0  0  0  0  0  0  0  0  0
    6.4398  -30.7111   22.5801 C   0  0  0  0  0  0  0  0  0  0  0  0
    6.4243  -29.0965   24.4901 C   0  0  0  0  0  0  0  0  0  0  0  0
   -1.8627  -30.6024   23.1833 H   0  0  0  0  0  0  0  0  0  0  0  0
   -3.2703  -31.9981   21.8071 H   0  0  0  0  0  0  0  0  0  0  0  0
   -3.1190  -32.9228   19.2804 H   0  0  0  0  0  0  0  0  0  0  0  0
   -4.5438  -34.2642   17.9004 H   0  0  0  0  0  0  0  0  0  0  0  0
   -6.2214  -30.0817   19.4993 H   0  0  0  0  0  0  0  0  0  0  0  0
   -9.8949  -31.4475   17.5618 H   0  0  0  0  0  0  0  0  0  0  0  0
   -9.9507  -28.5335   16.3134 H   0  0  0  0  0  0  0  0  0  0  0  0
  -11.3085  -28.8681   16.8934 H   0  0  0  0  0  0  0  0  0  0  0  0
   -9.8253  -30.3992   14.5528 H   0  0  0  0  0  0  0  0  0  0  0  0
  -11.1615  -31.0547   14.8301 H   0  0  0  0  0  0  0  0  0  0  0  0
   -3.0053  -26.5352   21.2603 H   0  0  0  0  0  0  0  0  0  0  0  0
   -2.8005  -25.6049   18.5977 H   0  0  0  0  0  0  0  0  0  0  0  0
   -2.6100  -27.0007   18.0421 H   0  0  0  0  0  0  0  0  0  0  0  0
   -0.6884  -25.4876   20.0438 H   0  0  0  0  0  0  0  0  0  0  0  0
   -0.1346  -26.8632   19.7369 H   0  0  0  0  0  0  0  0  0  0  0  0
   -0.8544  -27.1621   22.3680 H   0  0  0  0  0  0  0  0  0  0  0  0
   -1.6537  -27.8164   23.7925 H   0  0  0  0  0  0  0  0  0  0  0  0
    6.9229  -31.7171   25.0524 H   0  0  0  0  0  0  0  0  0  0  0  0
    5.4211  -32.3890   24.4642 H   0  0  0  0  0  0  0  0  0  0  0  0
    5.4115  -31.2723   25.8080 H   0  0  0  0  0  0  0  0  0  0  0  0
    7.4743  -30.9112   22.7664 H   0  0  0  0  0  0  0  0  0  0  0  0
    6.3525  -29.8966   21.8917 H   0  0  0  0  0  0  0  0  0  0  0  0
    5.9776  -31.5815   22.1633 H   0  0  0  0  0  0  0  0  0  0  0  0
    7.4595  -29.3047   24.6633 H   0  0  0  0  0  0  0  0  0  0  0  0
    5.9535  -28.8351   25.4147 H   0  0  0  0  0  0  0  0  0  0  0  0
    6.3346  -28.2824   23.8015 H   0  0  0  0  0  0  0  0  0  0  0  0
  1  2  2  0
  2  3  1  0
  2 38  1  0
  3  4  2  0
  3 39  1  0
  4  8  1  0
  4  5  1  0
  5  6  1  0
  5  7  2  0
  7 21  1  0
  7  1  1  0
  8  9  2  0
  9 10  1  0
  9 40  1  0
 10 11  2  0
 10 41  1  0
 11 12  1  0
 12 14  1  0
 12 13  2  0
 13  8  1  0
 13 42  1  0
 14 15  1  0
 14 17  1  0
 15 16  2  0
 15 18  1  0
 18 19  1  0
 18 43  1  0
 19 20  1  0
 19 44  1  0
 19 45  1  0
 20 18  1  0
 20 46  1  0
 20 47  1  0
 21 22  1  0
 21 48  1  0
 22 23  1  0
 22 49  1  0
 22 50  1  0
 23 21  1  0
 23 51  1  0
 23 52  1  0
 24  1  1  0
 24 53  1  0
 24 54  1  0
 25 26  2  0
 25 27  1  0
 27 24  1  0
 27 28  1  0
 29 30  2  0
 30 31  1  0
 31 25  1  0
 31 32  2  0
 32 33  1  0
 33 29  1  0
 34 35  1  0
 34 55  1  0
 34 56  1  0
 34 57  1  0
 35 36  1  0
 35 37  1  0
 35 29  1  0
 36 58  1  0
 36 59  1  0
 36 60  1  0
 37 61  1  0
 37 62  1  0
 37 63  1  0
M  END
>  <minimizedAffinity>  (2) 
-10.04717

>  <mol_id>  (2) 
21421

>  <source_index>  (2) 
1

>  <layer>  (2) 
L2

>  <uniprot>  (2) 
Q06187

>  <paff>  (2) 
9

>  <smiles>  (2) 
CC(C)(C)c1nc(C(=O)NCc2ccc(-c3ccnc(NC(=O)C4CC4)c3)c(F)c2C2CC2)no1

$$$$
L2:Q06187:89453
     RDKit          3D

 61 65  0  0  0  0  0  0  0  0999 V2000
   -2.2802  -29.7292   22.0560 C   0  0  0  0  0  0  0  0  0  0  0  0
   -3.1753  -28.9993   21.2508 C   0  0  0  0  0  0  0  0  0  0  0  0
   -3.9627  -29.6397   20.2917 C   0  0  0  0  0  0  0  0  0  0  0  0
   -3.8605  -31.0234   20.1252 C   0  0  0  0  0  0  0  0  0  0  0  0
   -2.9666  -31.7584   20.8996 C   0  0  0  0  0  0  0  0  0  0  0  0
   -2.8759  -33.0885   20.7390 F   0  0  0  0  0  0  0  0  0  0  0  0
   -2.1776  -31.1192   21.8607 C   0  0  0  0  0  0  0  0  0  0  0  0
   -1.0692  -32.0730   22.7841 Cl  0  0  0  0  0  0  0  0  0  0  0  0
   -4.6627  -31.7068   19.0971 C   0  0  0  0  0  0  0  0  0  0  0  0
   -4.6635  -33.0008   19.0321 N   0  0  0  0  0  0  0  0  0  0  0  0
   -5.4106  -33.6048   18.0480 C   0  0  0  0  0  0  0  0  0  0  0  0
   -6.1237  -33.0173   17.1372 N   0  0  0  0  0  0  0  0  0  0  0  0
   -6.1145  -31.6755   17.2166 N   0  0  0  0  0  0  0  0  0  0  0  0
   -6.7833  -30.8170   16.3887 C   0  0  0  0  0  0  0  0  0  0  0  0
   -6.5451  -29.5297   16.8147 C   0  0  0  0  0  0  0  0  0  0  0  0
   -5.6896  -29.6210   17.9438 C   0  0  0  0  0  0  0  0  0  0  0  0
   -5.4298  -30.9606   18.1532 C   0  0  0  0  0  0  0  0  0  0  0  0
   -7.0426  -28.3971   16.2564 N   0  0  0  0  0  0  0  0  0  0  0  0
   -6.2360  -27.1735   16.1068 C   0  0  0  0  0  0  0  0  0  0  0  0
   -7.1464  -25.9346   16.0935 C   0  0  0  0  0  0  0  0  0  0  0  0
   -8.1233  -25.9354   15.0425 O   0  0  0  0  0  0  0  0  0  0  0  0
   -8.4999  -27.2538   14.6226 C   0  0  0  0  0  0  0  0  0  0  0  0
   -8.4163  -28.3096   15.7369 C   0  0  0  0  0  0  0  0  0  0  0  0
   -1.4436  -28.9857   23.0662 C   0  0  0  0  0  0  0  0  0  0  0  0
    0.1803  -27.5620   21.8763 C   0  0  0  0  0  0  0  0  0  0  0  0
    0.9418  -28.5192   21.7408 O   0  0  0  0  0  0  0  0  0  0  0  0
   -1.0205  -27.7043   22.5566 N   0  0  0  0  0  0  0  0  0  0  0  0
   -1.6563  -26.9163   22.5986 H   0  0  0  0  0  0  0  0  0  0  0  0
    0.4308  -24.3800   20.3698 C   0  0  0  0  0  0  0  0  0  0  0  0
    1.5286  -24.3138   21.1392 N   0  0  0  0  0  0  0  0  0  0  0  0
    1.5372  -25.5410   21.7995 O   0  0  0  0  0  0  0  0  0  0  0  0
    0.4408  -26.2295   21.3606 C   0  0  0  0  0  0  0  0  0  0  0  0
   -0.2692  -25.5566   20.4795 N   0  0  0  0  0  0  0  0  0  0  0  0
   -0.6743  -22.1216   20.2585 C   0  0  0  0  0  0  0  0  0  0  0  0
    0.0069  -23.2526   19.4609 C   0  0  0  0  0  0  0  0  0  0  0  0
    1.2338  -22.6594   18.7414 C   0  0  0  0  0  0  0  0  0  0  0  0
   -0.9943  -23.7663   18.4080 C   0  0  0  0  0  0  0  0  0  0  0  0
   -3.2505  -27.9771   21.3710 H   0  0  0  0  0  0  0  0  0  0  0  0
   -4.6166  -29.0940   19.7089 H   0  0  0  0  0  0  0  0  0  0  0  0
   -5.4032  -34.6367   18.0323 H   0  0  0  0  0  0  0  0  0  0  0  0
   -7.3671  -31.0879   15.5820 H   0  0  0  0  0  0  0  0  0  0  0  0
   -5.3290  -28.8327   18.5038 H   0  0  0  0  0  0  0  0  0  0  0  0
   -5.6899  -27.2205   15.1878 H   0  0  0  0  0  0  0  0  0  0  0  0
   -5.5584  -27.0995   16.9316 H   0  0  0  0  0  0  0  0  0  0  0  0
   -6.5309  -25.0668   15.9792 H   0  0  0  0  0  0  0  0  0  0  0  0
   -7.6872  -25.9398   17.0168 H   0  0  0  0  0  0  0  0  0  0  0  0
   -7.8505  -27.5522   13.8262 H   0  0  0  0  0  0  0  0  0  0  0  0
   -9.5247  -27.2025   14.3193 H   0  0  0  0  0  0  0  0  0  0  0  0
   -8.7061  -29.2615   15.3435 H   0  0  0  0  0  0  0  0  0  0  0  0
   -9.0721  -28.0269   16.5337 H   0  0  0  0  0  0  0  0  0  0  0  0
   -2.0221  -28.8340   23.9535 H   0  0  0  0  0  0  0  0  0  0  0  0
   -0.5719  -29.5693   23.2771 H   0  0  0  0  0  0  0  0  0  0  0  0
   -0.9635  -21.3378   19.5899 H   0  0  0  0  0  0  0  0  0  0  0  0
    0.0095  -21.7360   20.9855 H   0  0  0  0  0  0  0  0  0  0  0  0
   -1.5415  -22.5064   20.7533 H   0  0  0  0  0  0  0  0  0  0  0  0
    0.9204  -21.8618   18.1007 H   0  0  0  0  0  0  0  0  0  0  0  0
    1.7075  -23.4207   18.1576 H   0  0  0  0  0  0  0  0  0  0  0  0
    1.9253  -22.2838   19.4664 H   0  0  0  0  0  0  0  0  0  0  0  0
   -1.2871  -22.9585   17.7703 H   0  0  0  0  0  0  0  0  0  0  0  0
   -1.8576  -24.1629   18.9003 H   0  0  0  0  0  0  0  0  0  0  0  0
   -0.5335  -24.5341   17.8224 H   0  0  0  0  0  0  0  0  0  0  0  0
  1  2  2  0
  2  3  1  0
  2 38  1  0
  3  4  2  0
  3 39  1  0
  4  9  1  0
  4  5  1  0
  5  6  1  0
  5  7  2  0
  7  8  1  0
  7  1  1  0
  9 10  2  0
 10 11  1  0
 11 12  2  0
 11 40  1  0
 12 13  1  0
 13 14  1  0
 14 15  2  0
 14 41  1  0
 15 18  1  0
 15 16  1  0
 16 17  2  0
 16 42  1  0
 17  9  1  0
 17 13  1  0
 18 19  1  0
 19 20  1  0
 19 43  1  0
 19 44  1  0
 20 21  1  0
 20 45  1  0
 20 46  1  0
 21 22  1  0
 22 23  1  0
 22 47  1  0
 22 48  1  0
 23 18  1  0
 23 49  1  0
 23 50  1  0
 24  1  1  0
 24 51  1  0
 24 52  1  0
 25 26  2  0
 25 27  1  0
 27 24  1  0
 27 28  1  0
 29 30  2  0
 30 31  1  0
 31 32  1  0
 32 25  1  0
 32 33  2  0
 33 29  1  0
 34 35  1  0
 34 53  1  0
 34 54  1  0
 34 55  1  0
 35 36  1  0
 35 37  1  0
 35 29  1  0
 36 56  1  0
 36 57  1  0
 36 58  1  0
 37 59  1  0
 37 60  1  0
 37 61  1  0
M  END
>  <minimizedAffinity>  (3) 
-10.18600

>  <mol_id>  (3) 
89453

>  <source_index>  (3) 
2

>  <layer>  (3) 
L2

>  <uniprot>  (3) 
Q06187

>  <paff>  (3) 
9

>  <smiles>  (3) 
CC(C)(C)c1noc(C(=O)NCc2ccc(-c3ncnn4cc(N5CCOCC5)cc34)c(F)c2Cl)n1

$$$$
L2:Q06187:108091
     RDKit          3D

 63 67  0  0  0  0  0  0  0  0999 V2000
   -3.0847  -33.2325   20.9778 C   0  0  0  0  0  0  0  0  0  0  0  0
   -3.0852  -31.7606   20.6673 C   0  0  0  0  0  0  0  0  0  0  0  0
   -2.0287  -30.9661   21.1459 C   0  0  0  0  0  0  0  0  0  0  0  0
   -1.9820  -29.5924   20.8784 C   0  0  0  0  0  0  0  0  0  0  0  0
   -3.0121  -28.9917   20.1552 C   0  0  0  0  0  0  0  0  0  0  0  0
   -4.0616  -29.7714   19.6680 C   0  0  0  0  0  0  0  0  0  0  0  0
   -4.1057  -31.1592   19.9004 C   0  0  0  0  0  0  0  0  0  0  0  0
   -0.8556  -28.7953   21.4234 C   0  0  0  0  0  0  0  0  0  0  0  0
   -0.0599  -29.3315   22.2978 N   0  0  0  0  0  0  0  0  0  0  0  0
    0.9594  -28.5688   22.8146 C   0  0  0  0  0  0  0  0  0  0  0  0
    1.2436  -27.3389   22.5190 N   0  0  0  0  0  0  0  0  0  0  0  0
    0.4320  -26.8005   21.5928 N   0  0  0  0  0  0  0  0  0  0  0  0
    0.5278  -25.5330   21.0874 C   0  0  0  0  0  0  0  0  0  0  0  0
   -0.4451  -25.3804   20.1283 C   0  0  0  0  0  0  0  0  0  0  0  0
   -1.1590  -26.6021   20.0590 C   0  0  0  0  0  0  0  0  0  0  0  0
   -0.6098  -27.4520   20.9996 C   0  0  0  0  0  0  0  0  0  0  0  0
   -0.6614  -24.2717   19.3906 N   0  0  0  0  0  0  0  0  0  0  0  0
    0.3783  -23.4942   18.7256 C   0  0  0  0  0  0  0  0  0  0  0  0
   -0.3111  -22.1849   18.3592 C   0  0  0  0  0  0  0  0  0  0  0  0
   -1.7172  -22.6375   18.0380 C   0  0  0  0  0  0  0  0  0  0  0  0
   -2.5964  -21.6200   18.1354 F   0  0  0  0  0  0  0  0  0  0  0  0
   -1.7748  -23.1073   16.7686 F   0  0  0  0  0  0  0  0  0  0  0  0
   -1.9928  -23.7504   19.0501 C   0  0  0  0  0  0  0  0  0  0  0  0
   -5.2855  -31.9359   19.3621 C   0  0  0  0  0  0  0  0  0  0  0  0
   -6.1010  -31.0999   18.5203 N   0  0  0  0  0  0  0  0  0  0  0  0
   -6.6114  -31.5274   17.3099 C   0  0  0  0  0  0  0  0  0  0  0  0
   -6.4511  -32.6674   16.8815 O   0  0  0  0  0  0  0  0  0  0  0  0
   -6.2538  -30.1286   18.7689 H   0  0  0  0  0  0  0  0  0  0  0  0
   -7.3540  -30.4750   16.6001 C   0  0  0  0  0  0  0  0  0  0  0  0
   -8.4835  -30.6998   15.9100 N   0  0  0  0  0  0  0  0  0  0  0  0
   -8.8224  -29.4446   15.4131 O   0  0  0  0  0  0  0  0  0  0  0  0
   -7.8655  -28.5732   15.8504 C   0  0  0  0  0  0  0  0  0  0  0  0
   -6.9403  -29.1489   16.5864 N   0  0  0  0  0  0  0  0  0  0  0  0
   -8.0118  -27.1367   15.4368 C   0  0  0  0  0  0  0  0  0  0  0  0
   -7.8062  -27.0078   13.9183 C   0  0  0  0  0  0  0  0  0  0  0  0
   -9.4125  -26.6259   15.8128 C   0  0  0  0  0  0  0  0  0  0  0  0
   -6.9602  -26.2706   16.1537 C   0  0  0  0  0  0  0  0  0  0  0  0
   -2.2248  -33.4723   21.5677 H   0  0  0  0  0  0  0  0  0  0  0  0
   -3.0574  -33.7896   20.0647 H   0  0  0  0  0  0  0  0  0  0  0  0
   -3.9715  -33.4826   21.5218 H   0  0  0  0  0  0  0  0  0  0  0  0
   -1.2766  -31.4016   21.7025 H   0  0  0  0  0  0  0  0  0  0  0  0
   -2.9982  -27.9746   19.9811 H   0  0  0  0  0  0  0  0  0  0  0  0
   -4.8184  -29.3232   19.1281 H   0  0  0  0  0  0  0  0  0  0  0  0
    1.5651  -29.0249   23.5147 H   0  0  0  0  0  0  0  0  0  0  0  0
    1.2116  -24.8159   21.3760 H   0  0  0  0  0  0  0  0  0  0  0  0
   -1.9435  -26.8172   19.4239 H   0  0  0  0  0  0  0  0  0  0  0  0
    0.7266  -23.9982   17.8484 H   0  0  0  0  0  0  0  0  0  0  0  0
    1.2383  -23.3455   19.3447 H   0  0  0  0  0  0  0  0  0  0  0  0
    0.1521  -21.7280   17.5097 H   0  0  0  0  0  0  0  0  0  0  0  0
   -0.2656  -21.4467   19.1324 H   0  0  0  0  0  0  0  0  0  0  0  0
   -2.5996  -24.5166   18.6147 H   0  0  0  0  0  0  0  0  0  0  0  0
   -2.5252  -23.3984   19.9089 H   0  0  0  0  0  0  0  0  0  0  0  0
   -5.8751  -32.2921   20.1809 H   0  0  0  0  0  0  0  0  0  0  0  0
   -4.9215  -32.7584   18.7826 H   0  0  0  0  0  0  0  0  0  0  0  0
   -8.5320  -27.6059   13.4081 H   0  0  0  0  0  0  0  0  0  0  0  0
   -6.8232  -27.3436   13.6617 H   0  0  0  0  0  0  0  0  0  0  0  0
   -7.9203  -25.9841   13.6285 H   0  0  0  0  0  0  0  0  0  0  0  0
  -10.1531  -27.2206   15.3201 H   0  0  0  0  0  0  0  0  0  0  0  0
   -9.5137  -25.6053   15.5077 H   0  0  0  0  0  0  0  0  0  0  0  0
   -9.5453  -26.6963   16.8722 H   0  0  0  0  0  0  0  0  0  0  0  0
   -5.9800  -26.6166   15.8998 H   0  0  0  0  0  0  0  0  0  0  0  0
   -7.1006  -26.3421   17.2120 H   0  0  0  0  0  0  0  0  0  0  0  0
   -7.0690  -25.2511   15.8476 H   0  0  0  0  0  0  0  0  0  0  0  0
  1  2  1  0
  1 38  1  0
  1 39  1  0
  1 40  1  0
  2  3  2  0
  3  4  1  0
  3 41  1  0
  4  8  1  0
  4  5  2  0
  5  6  1  0
  5 42  1  0
  6  7  2  0
  6 43  1  0
  7 24  1  0
  7  2  1  0
  8  9  2  0
  9 10  1  0
 10 11  2  0
 10 44  1  0
 11 12  1  0
 12 13  1  0
 13 14  2  0
 13 45  1  0
 14 17  1  0
 14 15  1  0
 15 16  2  0
 15 46  1  0
 16  8  1  0
 16 12  1  0
 17 18  1  0
 18 19  1  0
 18 47  1  0
 18 48  1  0
 19 20  1  0
 19 49  1  0
 19 50  1  0
 20 21  1  0
 20 22  1  0
 20 23  1  0
 23 17  1  0
 23 51  1  0
 23 52  1  0
 24 25  1  0
 24 53  1  0
 24 54  1  0
 25 26  1  0
 25 28  1  0
 26 27  2  0
 26 29  1  0
 29 30  2  0
 30 31  1  0
 31 32  1  0
 32 34  1  0
 32 33  2  0
 33 29  1  0
 34 35  1  0
 34 36  1  0
 34 37  1  0
 35 55  1  0
 35 56  1  0
 35 57  1  0
 36 58  1  0
 36 59  1  0
 36 60  1  0
 37 61  1  0
 37 62  1  0
 37 63  1  0
M  END
>  <minimizedAffinity>  (4) 
-10.58025

>  <mol_id>  (4) 
108091

>  <source_index>  (4) 
3

>  <layer>  (4) 
L2

>  <uniprot>  (4) 
Q06187

>  <paff>  (4) 
9

>  <smiles>  (4) 
Cc1cc(-c2ncnn3cc(N4CCC(F)(F)C4)cc23)ccc1CNC(=O)c1noc(C(C)(C)C)n1

$$$$
L2:Q06187:114484
     RDKit          3D

 73 78  0  0  0  0  0  0  0  0999 V2000
   -0.7329  -28.1350   20.5881 N   0  0  0  0  0  0  0  0  0  0  0  0
   -0.0454  -28.3978   21.7485 C   0  0  0  0  0  0  0  0  0  0  0  0
    0.8175  -27.4407   22.1434 N   0  0  0  0  0  0  0  0  0  0  0  0
    1.5352  -27.6238   23.2704 C   0  0  0  0  0  0  0  0  0  0  0  0
    1.5165  -28.7642   24.0708 C   0  0  0  0  0  0  0  0  0  0  0  0
    0.6569  -29.7869   23.6323 C   0  0  0  0  0  0  0  0  0  0  0  0
   -0.1716  -29.5795   22.5121 C   0  0  0  0  0  0  0  0  0  0  0  0
   -1.0179  -30.7266   22.4608 C   0  0  0  0  0  0  0  0  0  0  0  0
   -0.6765  -31.6213   23.3921 N   0  0  0  0  0  0  0  0  0  0  0  0
    0.4116  -31.0977   23.9947 N   0  0  0  0  0  0  0  0  0  0  0  0
    1.2181  -32.0509   24.7592 C   0  0  2  0  0  0  0  0  0  0  0  0
    0.8951  -32.0599   26.2569 C   0  0  0  0  0  0  0  0  0  0  0  0
    1.6960  -33.1455   26.9872 C   0  0  0  0  0  0  0  0  0  0  0  0
    3.1826  -33.1989   26.6031 C   0  0  0  0  0  0  0  0  0  0  0  0
    3.5861  -32.0332   25.7001 C   0  0  2  0  0  0  0  0  0  0  0  0
    2.7216  -32.0167   24.4374 C   0  0  0  0  0  0  0  0  0  0  0  0
    5.0302  -31.9600   25.5080 N   0  0  0  0  0  0  0  0  0  0  0  0
    5.6783  -31.7122   24.3159 C   0  0  0  0  0  0  0  0  0  0  0  0
    5.2136  -31.9121   23.2006 O   0  0  0  0  0  0  0  0  0  0  0  0
    7.0282  -31.0509   24.4968 C   0  0  0  0  0  0  0  0  0  0  0  0
    6.9433  -29.5359   24.2564 C   0  0  0  0  0  0  0  0  0  0  0  0
    5.9778  -28.8061   25.2062 C   0  0  0  0  0  0  0  0  0  0  0  0
    4.5980  -28.5111   24.5799 C   0  0  0  0  0  0  0  0  0  0  0  0
    3.4896  -28.5637   25.6024 C   0  0  0  0  0  0  0  0  0  0  0  0
    2.1802  -28.7679   25.3709 C   0  0  0  0  0  0  0  0  0  0  0  0
   -1.2670  -28.8436   20.1143 H   0  0  0  0  0  0  0  0  0  0  0  0
   -0.4809  -27.2762   20.1204 H   0  0  0  0  0  0  0  0  0  0  0  0
    5.5781  -31.8710   26.3540 H   0  0  0  0  0  0  0  0  0  0  0  0
   -2.1481  -30.9957   21.5776 C   0  0  0  0  0  0  0  0  0  0  0  0
   -2.2129  -32.1891   20.8457 C   0  0  0  0  0  0  0  0  0  0  0  0
   -3.2935  -32.4414   19.9932 C   0  0  0  0  0  0  0  0  0  0  0  0
   -4.3224  -31.4983   19.8666 C   0  0  0  0  0  0  0  0  0  0  0  0
   -4.2439  -30.2923   20.5747 C   0  0  0  0  0  0  0  0  0  0  0  0
   -3.1629  -30.0432   21.4255 C   0  0  0  0  0  0  0  0  0  0  0  0
   -5.4932  -31.7186   18.9675 C   0  0  0  0  0  0  0  0  0  0  0  0
   -5.5559  -32.7666   18.3355 O   0  0  0  0  0  0  0  0  0  0  0  0
   -6.3905  -30.6790   18.9130 N   0  0  0  0  0  0  0  0  0  0  0  0
   -6.1995  -29.8146   19.3980 H   0  0  0  0  0  0  0  0  0  0  0  0
   -7.5881  -30.6074   18.2009 C   0  0  0  0  0  0  0  0  0  0  0  0
   -8.7798  -31.1884   18.6102 C   0  0  0  0  0  0  0  0  0  0  0  0
   -9.9102  -31.0394   17.8076 C   0  0  0  0  0  0  0  0  0  0  0  0
   -9.8186  -30.3167   16.6261 C   0  0  0  0  0  0  0  0  0  0  0  0
   -8.5922  -29.7693   16.2963 C   0  0  0  0  0  0  0  0  0  0  0  0
   -7.4811  -29.8974   17.0555 N   0  0  0  0  0  0  0  0  0  0  0  0
    2.1525  -26.8514   23.5660 H   0  0  0  0  0  0  0  0  0  0  0  0
    0.9073  -33.0115   24.4050 H   0  0  0  0  0  0  0  0  0  0  0  0
   -0.1499  -32.2486   26.3880 H   0  0  0  0  0  0  0  0  0  0  0  0
    1.1594  -31.1079   26.6676 H   0  0  0  0  0  0  0  0  0  0  0  0
    1.2571  -34.0949   26.7616 H   0  0  0  0  0  0  0  0  0  0  0  0
    1.6567  -32.9070   28.0295 H   0  0  0  0  0  0  0  0  0  0  0  0
    3.3728  -34.1168   26.0871 H   0  0  0  0  0  0  0  0  0  0  0  0
    3.7577  -33.1327   27.5030 H   0  0  0  0  0  0  0  0  0  0  0  0
    3.3725  -31.1037   26.1852 H   0  0  0  0  0  0  0  0  0  0  0  0
    2.9656  -32.8716   23.8421 H   0  0  0  0  0  0  0  0  0  0  0  0
    2.9238  -31.1056   23.9140 H   0  0  0  0  0  0  0  0  0  0  0  0
    7.7209  -31.4761   23.8009 H   0  0  0  0  0  0  0  0  0  0  0  0
    7.3534  -31.2159   25.5027 H   0  0  0  0  0  0  0  0  0  0  0  0
    6.6147  -29.3724   23.2513 H   0  0  0  0  0  0  0  0  0  0  0  0
    7.9193  -29.1376   24.4401 H   0  0  0  0  0  0  0  0  0  0  0  0
    6.4241  -27.8771   25.4937 H   0  0  0  0  0  0  0  0  0  0  0  0
    5.8107  -29.4537   26.0414 H   0  0  0  0  0  0  0  0  0  0  0  0
    4.4013  -29.2379   23.8197 H   0  0  0  0  0  0  0  0  0  0  0  0
    4.6249  -27.5220   24.1725 H   0  0  0  0  0  0  0  0  0  0  0  0
    3.7663  -28.4282   26.5873 H   0  0  0  0  0  0  0  0  0  0  0  0
    1.5852  -28.9450   26.1953 H   0  0  0  0  0  0  0  0  0  0  0  0
   -1.4581  -32.8870   20.9361 H   0  0  0  0  0  0  0  0  0  0  0  0
   -3.3328  -33.3225   19.4574 H   0  0  0  0  0  0  0  0  0  0  0  0
   -4.9873  -29.5845   20.4679 H   0  0  0  0  0  0  0  0  0  0  0  0
   -3.1127  -29.1525   21.9442 H   0  0  0  0  0  0  0  0  0  0  0  0
   -8.8286  -31.7212   19.4927 H   0  0  0  0  0  0  0  0  0  0  0  0
  -10.8079  -31.4631   18.0898 H   0  0  0  0  0  0  0  0  0  0  0  0
  -10.6395  -30.1918   16.0133 H   0  0  0  0  0  0  0  0  0  0  0  0
   -8.5210  -29.2311   15.4186 H   0  0  0  0  0  0  0  0  0  0  0  0
  1  2  1  0
  1 26  1  0
  1 27  1  0
  2  3  2  0
  3  4  1  0
  4  5  2  0
  4 45  1  0
  5  6  1  0
  6  7  2  0
  7  8  1  0
  7  2  1  0
  8 29  1  0
  8  9  2  0
  9 10  1  0
 10 11  1  0
 10  6  1  0
 11 12  1  0
 11 46  1  6
 12 13  1  0
 12 47  1  0
 12 48  1  0
 13 14  1  0
 13 49  1  0
 13 50  1  0
 14 15  1  0
 14 51  1  0
 14 52  1  0
 15 16  1  0
 15 17  1  0
 15 53  1  1
 16 11  1  0
 16 54  1  0
 16 55  1  0
 17 18  1  0
 17 28  1  0
 18 19  2  0
 18 20  1  0
 20 21  1  0
 20 56  1  0
 20 57  1  0
 21 22  1  0
 21 58  1  0
 21 59  1  0
 22 23  1  0
 22 60  1  0
 22 61  1  0
 23 24  1  0
 23 62  1  0
 23 63  1  0
 24 25  2  0
 24 64  1  0
 25  5  1  0
 25 65  1  0
 29 30  2  0
 30 31  1  0
 30 66  1  0
 31 32  2  0
 31 67  1  0
 32 35  1  0
 32 33  1  0
 33 34  2  0
 33 68  1  0
 34 29  1  0
 34 69  1  0
 35 36  2  0
 35 37  1  0
 37 39  1  0
 37 38  1  0
 39 40  2  0
 40 41  1  0
 40 70  1  0
 41 42  2  0
 41 71  1  0
 42 43  1  0
 42 72  1  0
 43 44  2  0
 43 73  1  0
 44 39  1  0
M  END
>  <minimizedAffinity>  (5) 
-11.20516

>  <mol_id>  (5) 
114484

>  <source_index>  (5) 
4

>  <layer>  (5) 
L2

>  <uniprot>  (5) 
Q06187

>  <paff>  (5) 
8.3010000000000002

>  <smiles>  (5) 
Nc1ncc2c3c1c(-c1ccc(C(=O)Nc4ccccn4)cc1)nn3[C@@H]1CCC[C@H](C1)NC(=O)CCCC/C=C/2

$$$$
L2:Q06187:118980
     RDKit          3D

 63 67  0  0  0  0  0  0  0  0999 V2000
   -5.4514  -26.1145   17.9165 C   0  0  0  0  0  0  0  0  0  0  0  0
   -4.6289  -26.6479   16.7666 C   0  0  0  0  0  0  0  0  0  0  0  0
   -3.4195  -25.9970   16.4177 C   0  0  0  0  0  0  0  0  0  0  0  0
   -2.5844  -26.5403   15.4300 C   0  0  0  0  0  0  0  0  0  0  0  0
   -2.9414  -27.7072   14.7664 C   0  0  0  0  0  0  0  0  0  0  0  0
   -4.1543  -28.3239   15.0605 C   0  0  0  0  0  0  0  0  0  0  0  0
   -5.0243  -27.7937   16.0315 C   0  0  0  0  0  0  0  0  0  0  0  0
   -6.3118  -28.4118   16.2029 N   0  0  0  0  0  0  0  0  0  0  0  0
   -7.3651  -28.0016   15.3796 C   0  0  0  0  0  0  0  0  0  0  0  0
   -7.2935  -27.1644   14.4795 O   0  0  0  0  0  0  0  0  0  0  0  0
   -8.5739  -28.6085   15.5850 N   0  0  0  0  0  0  0  0  0  0  0  0
   -8.8072  -29.5841   16.5479 C   0  0  0  0  0  0  0  0  0  0  0  0
  -10.0641  -30.1745   16.6661 C   0  0  0  0  0  0  0  0  0  0  0  0
  -11.0560  -29.8033   15.8432 F   0  0  0  0  0  0  0  0  0  0  0  0
  -10.3075  -31.1490   17.6293 C   0  0  0  0  0  0  0  0  0  0  0  0
   -9.2803  -31.5374   18.4897 C   0  0  0  0  0  0  0  0  0  0  0  0
   -8.0186  -30.9466   18.3779 C   0  0  0  0  0  0  0  0  0  0  0  0
   -7.7861  -29.9688   17.4005 C   0  0  0  0  0  0  0  0  0  0  0  0
   -6.4695  -29.3158   17.2666 C   0  0  0  0  0  0  0  0  0  0  0  0
   -5.6200  -29.5759   18.1190 O   0  0  0  0  0  0  0  0  0  0  0  0
   -9.3270  -28.3195   14.9695 H   0  0  0  0  0  0  0  0  0  0  0  0
   -2.9873  -24.7563   17.0752 C   0  0  0  0  0  0  0  0  0  0  0  0
   -3.2432  -23.4696   16.6327 C   0  0  0  0  0  0  0  0  0  0  0  0
   -2.7627  -22.5734   17.6001 C   0  0  0  0  0  0  0  0  0  0  0  0
   -2.1839  -23.3091   18.6216 C   0  0  0  0  0  0  0  0  0  0  0  0
   -2.4235  -24.6596   18.3546 N   0  0  0  0  0  0  0  0  0  0  0  0
   -2.1934  -25.7409   19.2622 C   0  0  0  0  0  0  0  0  0  0  0  0
   -2.8966  -25.8363   20.4637 C   0  0  0  0  0  0  0  0  0  0  0  0
   -2.6530  -26.9026   21.3350 C   0  0  0  0  0  0  0  0  0  0  0  0
   -1.6986  -27.8938   21.0387 C   0  0  0  0  0  0  0  0  0  0  0  0
   -1.0066  -27.7868   19.8237 C   0  0  0  0  0  0  0  0  0  0  0  0
   -1.2478  -26.7235   18.9448 C   0  0  0  0  0  0  0  0  0  0  0  0
   -1.4719  -29.0381   22.0259 C   0  0  0  0  0  0  0  0  0  0  0  0
   -2.1851  -30.3062   21.5444 C   0  0  0  0  0  0  0  0  0  0  0  0
    0.0009  -29.3604   22.3114 C   0  0  0  0  0  0  0  0  0  0  0  0
   -2.0429  -28.6780   23.2920 O   0  0  0  0  0  0  0  0  0  0  0  0
   -1.8689  -27.7294   23.4231 H   0  0  0  0  0  0  0  0  0  0  0  0
   -1.4576  -22.7337   19.7306 C   0  0  0  0  0  0  0  0  0  0  0  0
   -2.1607  -21.8961   20.5454 N   0  0  0  0  0  0  0  0  0  0  0  0
   -0.2931  -23.0057   20.0045 O   0  0  0  0  0  0  0  0  0  0  0  0
   -3.1327  -21.6664   20.3985 H   0  0  0  0  0  0  0  0  0  0  0  0
   -1.6795  -21.5070   21.3432 H   0  0  0  0  0  0  0  0  0  0  0  0
   -4.9727  -25.2499   18.3265 H   0  0  0  0  0  0  0  0  0  0  0  0
   -5.5375  -26.8667   18.6726 H   0  0  0  0  0  0  0  0  0  0  0  0
   -6.4265  -25.8492   17.5647 H   0  0  0  0  0  0  0  0  0  0  0  0
   -1.6971  -26.0689   15.1944 H   0  0  0  0  0  0  0  0  0  0  0  0
   -2.3105  -28.1150   14.0588 H   0  0  0  0  0  0  0  0  0  0  0  0
   -4.4202  -29.1850   14.5577 H   0  0  0  0  0  0  0  0  0  0  0  0
  -11.2414  -31.5814   17.7066 H   0  0  0  0  0  0  0  0  0  0  0  0
   -9.4517  -32.2593   19.2070 H   0  0  0  0  0  0  0  0  0  0  0  0
   -7.2579  -31.2302   19.0150 H   0  0  0  0  0  0  0  0  0  0  0  0
   -3.7063  -23.2141   15.7465 H   0  0  0  0  0  0  0  0  0  0  0  0
   -2.8290  -21.5444   17.5579 H   0  0  0  0  0  0  0  0  0  0  0  0
   -3.5970  -25.1193   20.7095 H   0  0  0  0  0  0  0  0  0  0  0  0
   -3.1859  -26.9643   22.2166 H   0  0  0  0  0  0  0  0  0  0  0  0
   -0.3078  -28.5037   19.5730 H   0  0  0  0  0  0  0  0  0  0  0  0
   -0.7250  -26.6638   18.0571 H   0  0  0  0  0  0  0  0  0  0  0  0
   -1.7828  -30.6045   20.5988 H   0  0  0  0  0  0  0  0  0  0  0  0
   -3.2317  -30.1092   21.4406 H   0  0  0  0  0  0  0  0  0  0  0  0
   -2.0388  -31.0903   22.2576 H   0  0  0  0  0  0  0  0  0  0  0  0
    0.4882  -29.6388   21.4004 H   0  0  0  0  0  0  0  0  0  0  0  0
    0.0602  -30.1694   23.0092 H   0  0  0  0  0  0  0  0  0  0  0  0
    0.4813  -28.4978   22.7237 H   0  0  0  0  0  0  0  0  0  0  0  0
  1  2  1  0
  1 43  1  0
  1 44  1  0
  1 45  1  0
  2  3  2  0
  3 22  1  0
  3  4  1  0
  4  5  2  0
  4 46  1  0
  5  6  1  0
  5 47  1  0
  6  7  2  0
  6 48  1  0
  7  8  1  0
  7  2  1  0
  8  9  1  0
  9 10  2  0
  9 11  1  0
 11 12  1  0
 11 21  1  0
 12 13  2  0
 13 14  1  0
 13 15  1  0
 15 16  2  0
 15 49  1  0
 16 17  1  0
 16 50  1  0
 17 18  2  0
 17 51  1  0
 18 19  1  0
 18 12  1  0
 19 20  2  0
 19  8  1  0
 22 23  2  0
 23 24  1  0
 23 52  1  0
 24 25  2  0
 24 53  1  0
 25 38  1  0
 25 26  1  0
 26 27  1  0
 26 22  1  0
 27 28  2  0
 28 29  1  0
 28 54  1  0
 29 30  2  0
 29 55  1  0
 30 33  1  0
 30 31  1  0
 31 32  2  0
 31 56  1  0
 32 27  1  0
 32 57  1  0
 33 34  1  0
 33 35  1  0
 33 36  1  0
 34 58  1  0
 34 59  1  0
 34 60  1  0
 35 61  1  0
 35 62  1  0
 35 63  1  0
 36 37  1  0
 38 39  1  0
 38 40  2  0
 39 41  1  0
 39 42  1  0
M  END
>  <minimizedAffinity>  (6) 
-10.94813

>  <mol_id>  (6) 
118980

>  <source_index>  (6) 
5

>  <layer>  (6) 
L2

>  <uniprot>  (6) 
Q06187

>  <paff>  (6) 
6

>  <smiles>  (6) 
Cc1c(-c2ccc(C(N)=O)n2-c2ccc(C(C)(C)O)cc2)cccc1-n1c(=O)[nH]c2c(F)cccc2c1=O

$$$$
L2:Q06187:133412
     RDKit          3D

 53 58  0  0  0  0  0  0  0  0999 V2000
   -7.8345  -30.2477   16.4973 C   0  0  0  0  0  0  0  0  0  0  0  0
   -9.1943  -30.5237   16.4179 C   0  0  0  0  0  0  0  0  0  0  0  0
   -9.8529  -29.3711   16.0814 N   0  0  0  0  0  0  0  0  0  0  0  0
   -8.9580  -28.3535   15.9243 C   0  0  0  0  0  0  0  0  0  0  0  0
   -9.3125  -27.0997   15.5918 N   0  0  0  0  0  0  0  0  0  0  0  0
   -8.2545  -26.2636   15.5044 C   0  0  0  0  0  0  0  0  0  0  0  0
   -6.9254  -26.6181   15.7096 C   0  0  0  0  0  0  0  0  0  0  0  0
   -6.5996  -27.9424   16.0516 C   0  0  0  0  0  0  0  0  0  0  0  0
   -7.6802  -28.8513   16.1678 C   0  0  0  0  0  0  0  0  0  0  0  0
   -5.2824  -28.3052   16.2914 N   0  0  0  0  0  0  0  0  0  0  0  0
   -4.1873  -27.4521   15.8171 C   0  0  1  0  0  0  0  0  0  0  0  0
   -2.9525  -27.6672   16.6797 C   0  0  0  0  0  0  0  0  0  0  0  0
   -1.8147  -27.5440   15.6921 C   0  0  0  0  0  0  0  0  0  0  0  0
   -2.2928  -28.1164   14.4724 O   0  0  0  0  0  0  0  0  0  0  0  0
   -3.7155  -27.8908   14.4212 C   0  0  0  0  0  0  0  0  0  0  0  0
   -4.5775  -25.9540   15.7638 C   0  0  0  0  0  0  0  0  0  0  0  0
   -3.7550  -25.0364   15.7743 O   0  0  0  0  0  0  0  0  0  0  0  0
   -5.9100  -25.6549   15.6125 N   0  0  0  0  0  0  0  0  0  0  0  0
  -10.8492  -29.2589   15.9597 H   0  0  0  0  0  0  0  0  0  0  0  0
   -5.0889  -29.2907   16.4934 H   0  0  0  0  0  0  0  0  0  0  0  0
   -6.1352  -24.6778   15.4844 H   0  0  0  0  0  0  0  0  0  0  0  0
   -6.5750  -32.2384   16.1991 O   0  0  0  0  0  0  0  0  0  0  0  0
   -6.7787  -31.2038   16.8311 C   0  0  0  0  0  0  0  0  0  0  0  0
   -5.9414  -30.9591   18.0199 C   0  0  0  0  0  0  0  0  0  0  0  0
   -6.0100  -29.6884   18.6083 C   0  0  0  0  0  0  0  0  0  0  0  0
   -5.2427  -29.4042   19.7385 C   0  0  0  0  0  0  0  0  0  0  0  0
   -4.4077  -30.3883   20.2758 C   0  0  0  0  0  0  0  0  0  0  0  0
   -4.3715  -31.6667   19.7146 C   0  0  0  0  0  0  0  0  0  0  0  0
   -5.1386  -31.9563   18.5836 C   0  0  0  0  0  0  0  0  0  0  0  0
   -5.0736  -33.5620   17.9535 Cl  0  0  0  0  0  0  0  0  0  0  0  0
   -3.6524  -30.1919   21.4104 O   0  0  0  0  0  0  0  0  0  0  0  0
   -2.9755  -28.9990   21.5174 C   0  0  0  0  0  0  0  0  0  0  0  0
   -1.9675  -28.7490   20.5864 C   0  0  0  0  0  0  0  0  0  0  0  0
   -1.2692  -27.5422   20.6284 C   0  0  0  0  0  0  0  0  0  0  0  0
   -1.5913  -26.5830   21.5895 C   0  0  0  0  0  0  0  0  0  0  0  0
   -2.6169  -26.8252   22.5045 C   0  0  0  0  0  0  0  0  0  0  0  0
   -3.3172  -28.0313   22.4654 C   0  0  0  0  0  0  0  0  0  0  0  0
   -9.6337  -31.4425   16.5845 H   0  0  0  0  0  0  0  0  0  0  0  0
   -8.4492  -25.2788   15.2652 H   0  0  0  0  0  0  0  0  0  0  0  0
   -2.9646  -28.6369   17.1319 H   0  0  0  0  0  0  0  0  0  0  0  0
   -2.8811  -26.9726   17.4905 H   0  0  0  0  0  0  0  0  0  0  0  0
   -0.9570  -28.0787   16.0434 H   0  0  0  0  0  0  0  0  0  0  0  0
   -1.5182  -26.5246   15.5587 H   0  0  0  0  0  0  0  0  0  0  0  0
   -4.2147  -28.7939   14.1382 H   0  0  0  0  0  0  0  0  0  0  0  0
   -3.9420  -27.1324   13.7012 H   0  0  0  0  0  0  0  0  0  0  0  0
   -6.6266  -28.9649   18.2064 H   0  0  0  0  0  0  0  0  0  0  0  0
   -5.2914  -28.4709   20.1762 H   0  0  0  0  0  0  0  0  0  0  0  0
   -3.7775  -32.3980   20.1358 H   0  0  0  0  0  0  0  0  0  0  0  0
   -1.7390  -29.4546   19.8688 H   0  0  0  0  0  0  0  0  0  0  0  0
   -0.5145  -27.3587   19.9488 H   0  0  0  0  0  0  0  0  0  0  0  0
   -1.0701  -25.6929   21.6237 H   0  0  0  0  0  0  0  0  0  0  0  0
   -2.8574  -26.1118   23.2104 H   0  0  0  0  0  0  0  0  0  0  0  0
   -4.0838  -28.2077   23.1334 H   0  0  0  0  0  0  0  0  0  0  0  0
  1  2  2  0
  2  3  1  0
  2 38  1  0
  3  4  1  0
  3 19  1  0
  4  5  2  0
  5  6  1  0
  6  7  2  0
  6 39  1  0
  7  8  1  0
  8  9  2  0
  8 10  1  0
  9  1  1  0
  9  4  1  0
 10 20  1  0
 11 10  1  1
 11 12  1  0
 11 16  1  0
 12 13  1  0
 12 40  1  0
 12 41  1  0
 13 14  1  0
 13 42  1  0
 13 43  1  0
 14 15  1  0
 15 11  1  0
 15 44  1  0
 15 45  1  0
 16 17  2  0
 16 18  1  0
 18  7  1  0
 18 21  1  0
 22 23  2  0
 23 24  1  0
 23  1  1  0
 24 25  2  0
 25 26  1  0
 25 46  1  0
 26 27  2  0
 26 47  1  0
 27 31  1  0
 27 28  1  0
 28 29  2  0
 28 48  1  0
 29 30  1  0
 29 24  1  0
 31 32  1  0
 32 33  2  0
 33 34  1  0
 33 49  1  0
 34 35  2  0
 34 50  1  0
 35 36  1  0
 35 51  1  0
 36 37  2  0
 36 52  1  0
 37 32  1  0
 37 53  1  0
M  END
>  <minimizedAffinity>  (7) 
-11.44346

>  <mol_id>  (7) 
133412

>  <source_index>  (7) 
6

>  <layer>  (7) 
L2

>  <uniprot>  (7) 
Q06187

>  <paff>  (7) 
7.3851000000000004

>  <smiles>  (7) 
O=C(c1ccc(Oc2ccccc2)cc1Cl)c1c[nH]c2ncc3c(c12)NC1(CCOC1)C(=O)N3

$$$$
L2:Q06187:133702
     RDKit          3D

 77 82  0  0  0  0  0  0  0  0999 V2000
   -0.2744  -28.4575   22.7126 C   0  0  0  0  0  0  0  0  0  0  0  0
    0.8381  -29.1518   22.9617 N   0  0  0  0  0  0  0  0  0  0  0  0
    1.5966  -28.3390   23.7156 N   0  0  0  0  0  0  0  0  0  0  0  0
    0.9873  -27.1285   24.0223 C   0  0  0  0  0  0  0  0  0  0  0  0
    1.3212  -26.0143   24.8343 C   0  0  0  0  0  0  0  0  0  0  0  0
    0.3932  -24.9711   24.7651 C   0  0  0  0  0  0  0  0  0  0  0  0
   -0.7279  -24.9453   24.0191 N   0  0  0  0  0  0  0  0  0  0  0  0
   -1.0582  -26.0228   23.2822 C   0  0  0  0  0  0  0  0  0  0  0  0
   -2.2125  -25.9045   22.5476 N   0  0  0  0  0  0  0  0  0  0  0  0
   -0.2167  -27.1555   23.2935 C   0  0  0  0  0  0  0  0  0  0  0  0
    2.4637  -25.8662   25.8172 C   0  0  0  0  0  0  0  0  0  0  0  0
    2.0256  -26.2746   27.2388 C   0  0  0  0  0  0  0  0  0  0  0  0
    3.2042  -26.7055   28.1266 C   0  0  0  0  0  0  0  0  0  0  0  0
    2.7376  -27.4812   29.3719 C   0  0  0  0  0  0  0  0  0  0  0  0
    3.5415  -28.7055   29.5566 N   0  0  0  0  0  0  0  0  0  0  0  0
    2.6986  -29.9266   29.5825 C   0  0  0  0  0  0  0  0  0  0  0  0
    2.0679  -30.1835   28.2099 C   0  0  0  0  0  0  0  0  0  0  0  0
    0.9060  -29.8748   27.9571 O   0  0  0  0  0  0  0  0  0  0  0  0
    2.9443  -30.7025   27.2696 N   0  0  0  0  0  0  0  0  0  0  0  0
    2.6694  -30.5427   25.8460 C   0  0  2  0  0  0  0  0  0  0  0  0
    3.3749  -31.5852   24.9871 C   0  0  0  0  0  0  0  0  0  0  0  0
    3.1394  -31.3042   23.5024 C   0  0  0  0  0  0  0  0  0  0  0  0
    3.5432  -29.8797   23.0979 C   0  0  0  0  0  0  0  0  0  0  0  0
    2.9674  -28.7651   24.0045 C   0  0  2  0  0  0  0  0  0  0  0  0
    3.1439  -29.1443   25.4660 C   0  0  0  0  0  0  0  0  0  0  0  0
   -2.5115  -26.6026   21.8894 H   0  0  0  0  0  0  0  0  0  0  0  0
   -2.6933  -25.0207   22.6267 H   0  0  0  0  0  0  0  0  0  0  0  0
    4.0101  -28.6401   30.4610 H   0  0  0  0  0  0  0  0  0  0  0  0
    3.8975  -30.8707   27.5673 H   0  0  0  0  0  0  0  0  0  0  0  0
   -3.4196  -30.2487   20.4472 C   0  0  0  0  0  0  0  0  0  0  0  0
   -3.1287  -30.7095   21.7382 C   0  0  0  0  0  0  0  0  0  0  0  0
   -2.0950  -30.1211   22.4745 C   0  0  0  0  0  0  0  0  0  0  0  0
   -1.3446  -29.0694   21.9324 C   0  0  0  0  0  0  0  0  0  0  0  0
   -1.6596  -28.5888   20.6555 C   0  0  0  0  0  0  0  0  0  0  0  0
   -2.6910  -29.1760   19.9166 C   0  0  0  0  0  0  0  0  0  0  0  0
   -5.6115  -30.0355   19.4429 N   0  0  0  0  0  0  0  0  0  0  0  0
   -4.5128  -30.8415   19.6216 C   0  0  0  0  0  0  0  0  0  0  0  0
   -4.3728  -31.9838   19.2004 O   0  0  0  0  0  0  0  0  0  0  0  0
   -5.6727  -29.1458   19.9160 H   0  0  0  0  0  0  0  0  0  0  0  0
  -10.1682  -31.9370   18.8063 C   0  0  0  0  0  0  0  0  0  0  0  0
   -8.9698  -31.1732   18.3295 C   0  0  0  0  0  0  0  0  0  0  0  0
   -8.9010  -30.6927   17.0238 C   0  0  0  0  0  0  0  0  0  0  0  0
   -7.7551  -30.0237   16.6308 C   0  0  0  0  0  0  0  0  0  0  0  0
   -6.6904  -29.8137   17.4351 N   0  0  0  0  0  0  0  0  0  0  0  0
   -6.7620  -30.2928   18.6962 C   0  0  0  0  0  0  0  0  0  0  0  0
   -7.8706  -30.9783   19.1743 C   0  0  0  0  0  0  0  0  0  0  0  0
    0.5863  -24.1381   25.3429 H   0  0  0  0  0  0  0  0  0  0  0  0
    2.7847  -24.8456   25.8295 H   0  0  0  0  0  0  0  0  0  0  0  0
    3.2636  -26.5068   25.5095 H   0  0  0  0  0  0  0  0  0  0  0  0
    1.3386  -27.0914   27.1630 H   0  0  0  0  0  0  0  0  0  0  0  0
    1.5760  -25.4176   27.6952 H   0  0  0  0  0  0  0  0  0  0  0  0
    3.7352  -25.8321   28.4430 H   0  0  0  0  0  0  0  0  0  0  0  0
    3.8312  -27.3535   27.5504 H   0  0  0  0  0  0  0  0  0  0  0  0
    1.7091  -27.7512   29.2524 H   0  0  0  0  0  0  0  0  0  0  0  0
    2.8604  -26.8565   30.2319 H   0  0  0  0  0  0  0  0  0  0  0  0
    1.9216  -29.8008   30.3073 H   0  0  0  0  0  0  0  0  0  0  0  0
    3.3153  -30.7629   29.8378 H   0  0  0  0  0  0  0  0  0  0  0  0
    1.6228  -30.6769   25.6686 H   0  0  0  0  0  0  0  0  0  0  0  0
    2.9932  -32.5557   25.2267 H   0  0  0  0  0  0  0  0  0  0  0  0
    4.4256  -31.5430   25.1849 H   0  0  0  0  0  0  0  0  0  0  0  0
    2.0995  -31.4388   23.2893 H   0  0  0  0  0  0  0  0  0  0  0  0
    3.7489  -31.9838   22.9442 H   0  0  0  0  0  0  0  0  0  0  0  0
    3.2016  -29.7070   22.0987 H   0  0  0  0  0  0  0  0  0  0  0  0
    4.6078  -29.8278   23.1922 H   0  0  0  0  0  0  0  0  0  0  0  0
    3.5433  -27.8929   23.7752 H   0  0  0  0  0  0  0  0  0  0  0  0
    2.5976  -28.4394   26.0572 H   0  0  0  0  0  0  0  0  0  0  0  0
    4.1987  -29.1344   25.6455 H   0  0  0  0  0  0  0  0  0  0  0  0
   -3.6771  -31.4829   22.1458 H   0  0  0  0  0  0  0  0  0  0  0  0
   -1.8835  -30.4644   23.4245 H   0  0  0  0  0  0  0  0  0  0  0  0
   -1.1284  -27.7982   20.2583 H   0  0  0  0  0  0  0  0  0  0  0  0
   -2.9168  -28.8175   18.9756 H   0  0  0  0  0  0  0  0  0  0  0  0
  -10.8981  -31.9795   18.0250 H   0  0  0  0  0  0  0  0  0  0  0  0
  -10.5875  -31.4464   19.6598 H   0  0  0  0  0  0  0  0  0  0  0  0
   -9.8745  -32.9303   19.0745 H   0  0  0  0  0  0  0  0  0  0  0  0
   -9.6843  -30.8320   16.3665 H   0  0  0  0  0  0  0  0  0  0  0  0
   -7.7114  -29.6634   15.6647 H   0  0  0  0  0  0  0  0  0  0  0  0
   -7.8842  -31.3398   20.1408 H   0  0  0  0  0  0  0  0  0  0  0  0
  1  2  2  0
  2  3  1  0
  3  4  1  0
  4  5  2  0
  5  6  1  0
  5 11  1  0
  6  7  2  0
  6 47  1  0
  7  8  1  0
  8  9  1  0
  8 10  2  0
  9 26  1  0
  9 27  1  0
 10  1  1  0
 10  4  1  0
 11 12  1  0
 11 48  1  0
 11 49  1  0
 12 13  1  0
 12 50  1  0
 12 51  1  0
 13 14  1  0
 13 52  1  0
 13 53  1  0
 14 15  1  0
 14 54  1  0
 14 55  1  0
 15 16  1  0
 15 28  1  0
 16 17  1  0
 16 56  1  0
 16 57  1  0
 17 18  2  0
 17 19  1  0
 19 20  1  0
 19 29  1  0
 20 21  1  0
 20 58  1  1
 21 22  1  0
 21 59  1  0
 21 60  1  0
 22 23  1  0
 22 61  1  0
 22 62  1  0
 23 24  1  0
 23 63  1  0
 23 64  1  0
 24 25  1  0
 24  3  1  0
 24 65  1  1
 25 20  1  0
 25 66  1  0
 25 67  1  0
 30 31  2  0
 31 32  1  0
 31 68  1  0
 32 33  2  0
 32 69  1  0
 33  1  1  0
 33 34  1  0
 34 35  2  0
 34 70  1  0
 35 30  1  0
 35 71  1  0
 36 37  1  0
 36 39  1  0
 37 38  2  0
 37 30  1  0
 40 41  1  0
 40 72  1  0
 40 73  1  0
 40 74  1  0
 41 42  2  0
 42 43  1  0
 42 75  1  0
 43 44  2  0
 43 76  1  0
 44 45  1  0
 45 36  1  0
 45 46  2  0
 46 41  1  0
 46 77  1  0
M  END
>  <minimizedAffinity>  (8) 
-10.01742

>  <mol_id>  (8) 
133702

>  <source_index>  (8) 
7

>  <layer>  (8) 
L2

>  <uniprot>  (8) 
Q06187

>  <paff>  (8) 
8.3010000000000002

>  <smiles>  (8) 
Cc1ccnc(NC(=O)c2ccc(-c3nn4c5c(cnc(N)c35)CCCCNCC(=O)N[C@@H]3CCC[C@@H]4C3)cc2)c1

$$$$
L2:Q06187:140872
     RDKit          3D

 82 88  0  0  0  0  0  0  0  0999 V2000
   -2.3973  -28.3915   21.5315 C   0  0  0  0  0  0  0  0  0  0  0  0
   -3.0696  -28.0225   20.3654 C   0  0  0  0  0  0  0  0  0  0  0  0
   -3.8937  -28.9323   19.6958 C   0  0  0  0  0  0  0  0  0  0  0  0
   -4.0734  -30.2469   20.1667 C   0  0  0  0  0  0  0  0  0  0  0  0
   -3.3836  -30.6330   21.3351 C   0  0  0  0  0  0  0  0  0  0  0  0
   -2.5604  -29.7024   22.0003 C   0  0  0  0  0  0  0  0  0  0  0  0
   -3.4893  -32.0316   21.8991 C   0  0  0  0  0  0  0  0  0  0  0  0
   -2.8923  -33.0863   20.9691 C   0  0  0  0  0  0  0  0  0  0  0  0
   -3.8216  -33.5049   19.8324 C   0  0  0  0  0  0  0  0  0  0  0  0
   -4.1671  -32.3993   18.8341 C   0  0  0  0  0  0  0  0  0  0  0  0
   -4.9779  -31.2418   19.4419 C   0  0  2  0  0  0  0  0  0  0  0  0
    1.6979  -28.6556   23.2111 C   0  0  0  0  0  0  0  0  0  0  0  0
    1.7488  -27.4224   23.6705 N   0  0  0  0  0  0  0  0  0  0  0  0
    0.5410  -26.8671   23.3550 C   0  0  0  0  0  0  0  0  0  0  0  0
    0.1603  -25.6065   23.6532 N   0  0  0  0  0  0  0  0  0  0  0  0
   -1.0858  -25.2901   23.2434 C   0  0  0  0  0  0  0  0  0  0  0  0
   -1.9567  -26.1356   22.5638 C   0  0  0  0  0  0  0  0  0  0  0  0
   -1.5560  -27.4381   22.2467 C   0  0  0  0  0  0  0  0  0  0  0  0
   -0.2689  -27.7680   22.6792 C   0  0  0  0  0  0  0  0  0  0  0  0
    0.4903  -28.9065   22.6102 N   0  0  0  0  0  0  0  0  0  0  0  0
    0.2042  -29.7805   22.1951 H   0  0  0  0  0  0  0  0  0  0  0  0
    2.0903  -31.0309   25.4477 C   0  0  0  0  0  0  0  0  0  0  0  0
    2.9599  -30.6865   24.2917 C   0  0  0  0  0  0  0  0  0  0  0  0
    2.8429  -29.6964   23.3358 C   0  0  0  0  0  0  0  0  0  0  0  0
    3.9724  -29.8383   22.5154 C   0  0  0  0  0  0  0  0  0  0  0  0
    4.7530  -30.8475   22.9002 N   0  0  0  0  0  0  0  0  0  0  0  0
    4.1082  -31.3762   23.9622 N   0  0  0  0  0  0  0  0  0  0  0  0
    4.6620  -32.5525   24.6378 C   0  0  0  0  0  0  0  0  0  0  0  0
    5.3523  -33.5442   23.6878 C   0  0  0  0  0  0  0  0  0  0  0  0
    6.7984  -33.1686   23.3908 C   0  0  0  0  0  0  0  0  0  0  0  0
    7.5162  -32.9380   24.6025 O   0  0  0  0  0  0  0  0  0  0  0  0
    6.9840  -31.8286   25.3236 C   0  0  0  0  0  0  0  0  0  0  0  0
    5.5758  -32.1489   25.7999 C   0  0  0  0  0  0  0  0  0  0  0  0
   -5.7629  -30.6143   18.3893 N   0  0  0  0  0  0  0  0  0  0  0  0
   -6.9741  -31.1152   17.9435 C   0  0  0  0  0  0  0  0  0  0  0  0
   -7.4459  -32.1669   18.3703 O   0  0  0  0  0  0  0  0  0  0  0  0
   -5.4465  -29.7325   17.9992 H   0  0  0  0  0  0  0  0  0  0  0  0
   -7.6138  -30.2828   16.9447 C   0  0  0  0  0  0  0  0  0  0  0  0
   -8.5506  -30.6655   16.0970 N   0  0  0  0  0  0  0  0  0  0  0  0
   -8.8558  -29.5576   15.3347 N   0  0  0  0  0  0  0  0  0  0  0  0
   -8.0869  -28.5779   15.7677 C   0  0  0  0  0  0  0  0  0  0  0  0
   -7.2654  -28.9669   16.7953 O   0  0  0  0  0  0  0  0  0  0  0  0
   -7.9910  -27.1525   15.3070 C   0  0  0  0  0  0  0  0  0  0  0  0
   -6.7884  -26.4600   15.9728 C   0  0  0  0  0  0  0  0  0  0  0  0
   -9.2729  -26.3945   15.6900 C   0  0  0  0  0  0  0  0  0  0  0  0
   -7.8039  -27.1101   13.7812 C   0  0  0  0  0  0  0  0  0  0  0  0
   -2.9571  -27.0667   19.9929 H   0  0  0  0  0  0  0  0  0  0  0  0
   -4.3813  -28.6333   18.8368 H   0  0  0  0  0  0  0  0  0  0  0  0
   -2.0638  -29.9943   22.8566 H   0  0  0  0  0  0  0  0  0  0  0  0
   -4.5225  -32.2600   22.0579 H   0  0  0  0  0  0  0  0  0  0  0  0
   -2.9350  -32.0550   22.8141 H   0  0  0  0  0  0  0  0  0  0  0  0
   -2.6581  -33.9539   21.5498 H   0  0  0  0  0  0  0  0  0  0  0  0
   -2.0265  -32.6486   20.5177 H   0  0  0  0  0  0  0  0  0  0  0  0
   -4.7346  -33.8583   20.2642 H   0  0  0  0  0  0  0  0  0  0  0  0
   -3.2942  -34.2524   19.2773 H   0  0  0  0  0  0  0  0  0  0  0  0
   -4.7389  -32.8301   18.0389 H   0  0  0  0  0  0  0  0  0  0  0  0
   -3.2402  -31.9853   18.4960 H   0  0  0  0  0  0  0  0  0  0  0  0
   -5.6470  -31.6227   20.1849 H   0  0  0  0  0  0  0  0  0  0  0  0
   -1.4223  -24.3372   23.4525 H   0  0  0  0  0  0  0  0  0  0  0  0
   -2.8957  -25.8030   22.2943 H   0  0  0  0  0  0  0  0  0  0  0  0
    1.2662  -30.3497   25.4895 H   0  0  0  0  0  0  0  0  0  0  0  0
    2.6565  -30.9617   26.3530 H   0  0  0  0  0  0  0  0  0  0  0  0
    1.7225  -32.0291   25.3325 H   0  0  0  0  0  0  0  0  0  0  0  0
    4.1754  -29.2305   21.7064 H   0  0  0  0  0  0  0  0  0  0  0  0
    3.8236  -33.0813   25.0408 H   0  0  0  0  0  0  0  0  0  0  0  0
    4.8094  -33.5689   22.7661 H   0  0  0  0  0  0  0  0  0  0  0  0
    5.3602  -34.4995   24.1698 H   0  0  0  0  0  0  0  0  0  0  0  0
    6.8158  -32.2787   22.7969 H   0  0  0  0  0  0  0  0  0  0  0  0
    7.2629  -33.9750   22.8627 H   0  0  0  0  0  0  0  0  0  0  0  0
    6.9560  -30.9706   24.6848 H   0  0  0  0  0  0  0  0  0  0  0  0
    7.6057  -31.6282   26.1711 H   0  0  0  0  0  0  0  0  0  0  0  0
    5.1665  -31.2838   26.2784 H   0  0  0  0  0  0  0  0  0  0  0  0
    5.6333  -32.9726   26.4804 H   0  0  0  0  0  0  0  0  0  0  0  0
   -6.9072  -26.4831   17.0359 H   0  0  0  0  0  0  0  0  0  0  0  0
   -6.7339  -25.4439   15.6420 H   0  0  0  0  0  0  0  0  0  0  0  0
   -5.8881  -26.9716   15.7033 H   0  0  0  0  0  0  0  0  0  0  0  0
   -9.4015  -26.4250   16.7518 H   0  0  0  0  0  0  0  0  0  0  0  0
  -10.1145  -26.8544   15.2154 H   0  0  0  0  0  0  0  0  0  0  0  0
   -9.1947  -25.3767   15.3693 H   0  0  0  0  0  0  0  0  0  0  0  0
   -6.9116  -27.6379   13.5165 H   0  0  0  0  0  0  0  0  0  0  0  0
   -7.7251  -26.0926   13.4597 H   0  0  0  0  0  0  0  0  0  0  0  0
   -8.6448  -27.5703   13.3058 H   0  0  0  0  0  0  0  0  0  0  0  0
  1  2  2  0
  2  3  1  0
  2 47  1  0
  3  4  2  0
  3 48  1  0
  4  5  1  0
  5  6  2  0
  5  7  1  0
  6  1  1  0
  6 49  1  0
  7  8  1  0
  7 50  1  0
  7 51  1  0
  8  9  1  0
  8 52  1  0
  8 53  1  0
  9 10  1  0
  9 54  1  0
  9 55  1  0
 10 11  1  0
 10 56  1  0
 10 57  1  0
 11 34  1  0
 11  4  1  0
 11 58  1  1
 12 13  2  0
 13 14  1  0
 14 15  2  0
 15 16  1  0
 16 17  2  0
 16 59  1  0
 17 18  1  0
 17 60  1  0
 18  1  1  0
 18 19  2  0
 19 20  1  0
 19 14  1  0
 20 12  1  0
 20 21  1  0
 22 23  1  0
 22 61  1  0
 22 62  1  0
 22 63  1  0
 23 24  2  0
 24 12  1  0
 24 25  1  0
 25 26  2  0
 25 64  1  0
 26 27  1  0
 27 28  1  0
 27 23  1  0
 28 29  1  0
 28 65  1  0
 29 30  1  0
 29 66  1  0
 29 67  1  0
 30 31  1  0
 30 68  1  0
 30 69  1  0
 31 32  1  0
 32 33  1  0
 32 70  1  0
 32 71  1  0
 33 28  1  0
 33 72  1  0
 33 73  1  0
 34 35  1  0
 34 37  1  0
 35 36  2  0
 35 38  1  0
 38 39  2  0
 39 40  1  0
 40 41  2  0
 41 43  1  0
 41 42  1  0
 42 38  1  0
 43 44  1  0
 43 45  1  0
 43 46  1  0
 44 74  1  0
 44 75  1  0
 44 76  1  0
 45 77  1  0
 45 78  1  0
 45 79  1  0
 46 80  1  0
 46 81  1  0
 46 82  1  0
M  END
>  <minimizedAffinity>  (9) 
-11.36658

>  <mol_id>  (9) 
140872

>  <source_index>  (9) 
8

>  <layer>  (9) 
L2

>  <uniprot>  (9) 
Q06187

>  <paff>  (9) 
8.2596000000000007

>  <smiles>  (9) 
Cc1c(-c2nc3nccc(-c4ccc5c(c4)CCCC[C@@H]5NC(=O)c4nnc(C(C)(C)C)o4)c3[nH]2)cnn1C1CCOCC1

$$$$
L2:Q06187:146414
     RDKit          3D

 76 81  0  0  0  0  0  0  0  0999 V2000
   -0.5082  -27.7085   20.9547 N   0  0  0  0  0  0  0  0  0  0  0  0
    0.3350  -28.3102   21.8577 C   0  0  0  0  0  0  0  0  0  0  0  0
    1.4411  -27.6116   22.1656 N   0  0  0  0  0  0  0  0  0  0  0  0
    2.2749  -28.0814   23.1108 C   0  0  0  0  0  0  0  0  0  0  0  0
    2.1424  -29.2825   23.8178 C   0  0  0  0  0  0  0  0  0  0  0  0
    1.0106  -30.0524   23.4419 C   0  0  0  0  0  0  0  0  0  0  0  0
    0.1035  -29.5560   22.4800 C   0  0  0  0  0  0  0  0  0  0  0  0
   -0.9306  -30.5320   22.3936 C   0  0  0  0  0  0  0  0  0  0  0  0
   -0.7211  -31.5342   23.2466 N   0  0  0  0  0  0  0  0  0  0  0  0
    0.4917  -31.2945   23.7851 N   0  0  0  0  0  0  0  0  0  0  0  0
    1.0707  -32.4409   24.4932 C   0  0  2  0  0  0  0  0  0  0  0  0
    0.8755  -32.3962   26.0107 C   0  0  0  0  0  0  0  0  0  0  0  0
    1.4134  -33.6634   26.6853 C   0  0  0  0  0  0  0  0  0  0  0  0
    2.7382  -34.1861   26.1109 C   0  0  0  0  0  0  0  0  0  0  0  0
    3.4251  -33.1721   25.1951 C   0  0  2  0  0  0  0  0  0  0  0  0
    2.4906  -32.8001   24.0369 C   0  0  0  0  0  0  0  0  0  0  0  0
    4.8333  -33.6105   24.7698 C   0  0  0  0  0  0  0  0  0  0  0  0
    5.5319  -34.3461   25.4601 O   0  0  0  0  0  0  0  0  0  0  0  0
    5.3059  -32.9792   23.6448 N   0  0  0  0  0  0  0  0  0  0  0  0
    6.7069  -32.8411   23.3301 C   0  0  0  0  0  0  0  0  0  0  0  0
    6.9577  -31.5765   22.4988 C   0  0  0  0  0  0  0  0  0  0  0  0
    6.6333  -30.2560   23.2216 C   0  0  0  0  0  0  0  0  0  0  0  0
    5.1578  -29.9618   23.3866 C   0  0  0  0  0  0  0  0  0  0  0  0
    4.5690  -29.8136   24.5868 C   0  0  0  0  0  0  0  0  0  0  0  0
    3.1284  -29.5251   24.9322 C   0  0  0  0  0  0  0  0  0  0  0  0
   -0.2290  -26.7859   20.6531 H   0  0  0  0  0  0  0  0  0  0  0  0
   -1.4401  -28.0454   20.7853 H   0  0  0  0  0  0  0  0  0  0  0  0
    4.6644  -32.5591   22.9917 H   0  0  0  0  0  0  0  0  0  0  0  0
   -2.1090  -30.5510   21.5350 C   0  0  0  0  0  0  0  0  0  0  0  0
   -2.9597  -29.4407   21.4853 C   0  0  0  0  0  0  0  0  0  0  0  0
   -4.0957  -29.4593   20.6711 C   0  0  0  0  0  0  0  0  0  0  0  0
   -4.3926  -30.5887   19.8971 C   0  0  0  0  0  0  0  0  0  0  0  0
   -3.5585  -31.7129   19.9676 C   0  0  0  0  0  0  0  0  0  0  0  0
   -2.4218  -31.6915   20.7833 C   0  0  0  0  0  0  0  0  0  0  0  0
   -5.6193  -30.5628   19.0472 C   0  0  0  0  0  0  0  0  0  0  0  0
   -6.4090  -31.4961   19.1288 O   0  0  0  0  0  0  0  0  0  0  0  0
   -5.7638  -29.4455   18.2595 N   0  0  0  0  0  0  0  0  0  0  0  0
   -5.1090  -28.6808   18.3360 H   0  0  0  0  0  0  0  0  0  0  0  0
   -6.7758  -29.1614   17.3428 C   0  0  0  0  0  0  0  0  0  0  0  0
   -7.9725  -29.8555   17.2551 C   0  0  0  0  0  0  0  0  0  0  0  0
   -8.9117  -29.4770   16.2850 C   0  0  0  0  0  0  0  0  0  0  0  0
   -8.6098  -28.4042   15.4438 C   0  0  0  0  0  0  0  0  0  0  0  0
   -7.3907  -27.7725   15.5999 C   0  0  0  0  0  0  0  0  0  0  0  0
   -6.4745  -28.1305   16.5247 N   0  0  0  0  0  0  0  0  0  0  0  0
  -10.2249  -30.2042   16.1824 C   0  0  0  0  0  0  0  0  0  0  0  0
  -11.3013  -29.3680   16.1985 F   0  0  0  0  0  0  0  0  0  0  0  0
  -10.4171  -31.0764   17.2088 F   0  0  0  0  0  0  0  0  0  0  0  0
  -10.3399  -30.9320   15.0384 F   0  0  0  0  0  0  0  0  0  0  0  0
    3.0950  -27.4975   23.3377 H   0  0  0  0  0  0  0  0  0  0  0  0
    0.4834  -33.2808   24.1857 H   0  0  0  0  0  0  0  0  0  0  0  0
   -0.1691  -32.3057   26.2241 H   0  0  0  0  0  0  0  0  0  0  0  0
    1.4174  -31.5568   26.3937 H   0  0  0  0  0  0  0  0  0  0  0  0
    0.6783  -34.4338   26.5807 H   0  0  0  0  0  0  0  0  0  0  0  0
    1.6092  -33.4021   27.7043 H   0  0  0  0  0  0  0  0  0  0  0  0
    2.5408  -35.0755   25.5498 H   0  0  0  0  0  0  0  0  0  0  0  0
    3.3952  -34.3753   26.9340 H   0  0  0  0  0  0  0  0  0  0  0  0
    3.6046  -32.2730   25.7467 H   0  0  0  0  0  0  0  0  0  0  0  0
    2.4316  -33.6327   23.3675 H   0  0  0  0  0  0  0  0  0  0  0  0
    2.9009  -31.9315   23.5655 H   0  0  0  0  0  0  0  0  0  0  0  0
    7.0269  -33.6964   22.7725 H   0  0  0  0  0  0  0  0  0  0  0  0
    7.2573  -32.7646   24.2445 H   0  0  0  0  0  0  0  0  0  0  0  0
    6.3529  -31.6315   21.6178 H   0  0  0  0  0  0  0  0  0  0  0  0
    8.0067  -31.5561   22.2889 H   0  0  0  0  0  0  0  0  0  0  0  0
    7.0707  -29.4555   22.6623 H   0  0  0  0  0  0  0  0  0  0  0  0
    7.0312  -30.3511   24.2103 H   0  0  0  0  0  0  0  0  0  0  0  0
    4.5765  -29.8707   22.5388 H   0  0  0  0  0  0  0  0  0  0  0  0
    5.2002  -29.9125   25.3972 H   0  0  0  0  0  0  0  0  0  0  0  0
    3.1234  -28.6518   25.5505 H   0  0  0  0  0  0  0  0  0  0  0  0
    2.7866  -30.4333   25.3831 H   0  0  0  0  0  0  0  0  0  0  0  0
   -2.7474  -28.6049   22.0521 H   0  0  0  0  0  0  0  0  0  0  0  0
   -4.7187  -28.6372   20.6400 H   0  0  0  0  0  0  0  0  0  0  0  0
   -3.7828  -32.5568   19.4176 H   0  0  0  0  0  0  0  0  0  0  0  0
   -1.8098  -32.5211   20.8316 H   0  0  0  0  0  0  0  0  0  0  0  0
   -8.1696  -30.6405   17.8953 H   0  0  0  0  0  0  0  0  0  0  0  0
   -9.2798  -28.0911   14.7240 H   0  0  0  0  0  0  0  0  0  0  0  0
   -7.1680  -26.9825   14.9743 H   0  0  0  0  0  0  0  0  0  0  0  0
  1  2  1  0
  1 26  1  0
  1 27  1  0
  2  3  2  0
  3  4  1  0
  4  5  2  0
  4 49  1  0
  5  6  1  0
  6  7  2  0
  7  8  1  0
  7  2  1  0
  8 29  1  0
  8  9  2  0
  9 10  1  0
 10 11  1  0
 10  6  1  0
 11 12  1  0
 11 50  1  6
 12 13  1  0
 12 51  1  0
 12 52  1  0
 13 14  1  0
 13 53  1  0
 13 54  1  0
 14 15  1  0
 14 55  1  0
 14 56  1  0
 15 16  1  0
 15 17  1  0
 15 57  1  1
 16 11  1  0
 16 58  1  0
 16 59  1  0
 17 18  2  0
 17 19  1  0
 19 20  1  0
 19 28  1  0
 20 21  1  0
 20 60  1  0
 20 61  1  0
 21 22  1  0
 21 62  1  0
 21 63  1  0
 22 23  1  0
 22 64  1  0
 22 65  1  0
 23 24  2  0
 23 66  1  0
 24 25  1  0
 24 67  1  0
 25  5  1  0
 25 68  1  0
 25 69  1  0
 29 30  2  0
 30 31  1  0
 30 70  1  0
 31 32  2  0
 31 71  1  0
 32 35  1  0
 32 33  1  0
 33 34  2  0
 33 72  1  0
 34 29  1  0
 34 73  1  0
 35 36  2  0
 35 37  1  0
 37 39  1  0
 37 38  1  0
 39 40  2  0
 40 41  1  0
 40 74  1  0
 41 45  1  0
 41 42  2  0
 42 43  1  0
 42 75  1  0
 43 44  2  0
 43 76  1  0
 44 39  1  0
 45 46  1  0
 45 47  1  0
 45 48  1  0
M  END
>  <minimizedAffinity>  (10) 
-12.34466

>  <mol_id>  (10) 
146414

>  <source_index>  (10) 
9

>  <layer>  (10) 
L2

>  <uniprot>  (10) 
Q06187

>  <paff>  (10) 
7.5606999999999998

>  <smiles>  (10) 
Nc1ncc2c3c1c(-c1ccc(C(=O)Nc4cc(C(F)(F)F)ccn4)cc1)nn3[C@@H]1CCC[C@H](C1)C(=O)NCCC/C=C/C2

$$$$
