L2:O95819:104627
 OpenBabel09212617513D

 42 44  0  0  0  0  0  0  0  0999 V2000
  -17.2768   -6.8019   25.4737 C   0  0  0  0  0  0  0  0  0  0  0  0
  -16.3001   -5.7761   25.6544 C   0  0  0  0  0  0  0  0  0  0  0  0
  -16.0124   -5.5180   26.9817 C   0  0  0  0  0  0  0  0  0  0  0  0
  -16.9450   -6.5221   28.0067 S   0  0  0  0  0  0  0  0  0  0  0  0
  -17.7145   -7.3040   26.6911 C   0  0  0  0  0  0  0  0  0  0  0  0
  -18.0255   -7.5943   22.0331 N   0  0  0  0  0  0  0  0  0  0  0  0
  -17.3514   -6.9358   23.0157 C   0  0  0  0  0  0  0  0  0  0  0  0
  -16.4792   -6.1306   22.7196 O   0  0  0  0  0  0  0  0  0  0  0  0
  -17.7743   -7.2890   24.2670 N   0  0  0  0  0  0  0  0  0  0  0  0
  -17.7688   -7.3860   21.0780 H   0  0  0  0  0  0  0  0  0  0  0  0
  -18.7479   -8.2730   22.2123 H   0  0  0  0  0  0  0  0  0  0  0  0
  -18.5287   -7.9649   24.3415 H   0  0  0  0  0  0  0  0  0  0  0  0
  -15.0846   -4.5237   27.5407 C   0  0  0  0  0  0  0  0  0  0  0  0
  -14.4689   -3.5864   26.6927 C   0  0  0  0  0  0  0  0  0  0  0  0
  -13.5763   -2.6343   27.1965 C   0  0  0  0  0  0  0  0  0  0  0  0
  -13.2844   -2.6104   28.5570 C   0  0  0  0  0  0  0  0  0  0  0  0
  -13.8847   -3.5385   29.3985 C   0  0  0  0  0  0  0  0  0  0  0  0
  -13.5999   -3.5198   30.7074 F   0  0  0  0  0  0  0  0  0  0  0  0
  -14.7745   -4.4899   28.9072 C   0  0  0  0  0  0  0  0  0  0  0  0
  -18.7026   -8.3594   26.8979 C   0  0  0  0  0  0  0  0  0  0  0  0
  -19.6350   -8.5445   26.1144 O   0  0  0  0  0  0  0  0  0  0  0  0
  -18.5336   -9.1391   28.0190 N   0  0  0  0  0  0  0  0  0  0  0  0
  -17.7290   -8.9659   28.6067 H   0  0  0  0  0  0  0  0  0  0  0  0
  -19.3871  -10.2571   28.3387 C   0  0  0  0  0  0  0  0  0  0  0  0
  -19.1450  -10.7161   29.7521 C   0  0  0  0  0  0  0  0  0  0  0  0
  -18.0266  -11.4986   30.0717 C   0  0  0  0  0  0  0  0  0  0  0  0
  -17.8230  -11.9389   31.3809 C   0  0  0  0  0  0  0  0  0  0  0  0
  -18.7368  -11.6075   32.3797 C   0  0  0  0  0  0  0  0  0  0  0  0
  -19.8568  -10.8377   32.0716 C   0  0  0  0  0  0  0  0  0  0  0  0
  -20.0621  -10.3960   30.7639 C   0  0  0  0  0  0  0  0  0  0  0  0
  -15.8525   -5.2760   24.8704 H   0  0  0  0  0  0  0  0  0  0  0  0
  -14.6788   -3.6010   25.6824 H   0  0  0  0  0  0  0  0  0  0  0  0
  -13.1354   -1.9513   26.5608 H   0  0  0  0  0  0  0  0  0  0  0  0
  -12.6285   -1.9101   28.9370 H   0  0  0  0  0  0  0  0  0  0  0  0
  -15.2066   -5.1716   29.5504 H   0  0  0  0  0  0  0  0  0  0  0  0
  -19.1792  -11.0628   27.6660 H   0  0  0  0  0  0  0  0  0  0  0  0
  -20.4083   -9.9521   28.2433 H   0  0  0  0  0  0  0  0  0  0  0  0
  -17.3496  -11.7507   29.3347 H   0  0  0  0  0  0  0  0  0  0  0  0
  -16.9947  -12.5105   31.6094 H   0  0  0  0  0  0  0  0  0  0  0  0
  -18.5840  -11.9322   33.3473 H   0  0  0  0  0  0  0  0  0  0  0  0
  -20.5346  -10.5942   32.8107 H   0  0  0  0  0  0  0  0  0  0  0  0
  -20.8950   -9.8295   30.5396 H   0  0  0  0  0  0  0  0  0  0  0  0
  1  2  1  0  0  0  0
  2  3  2  0  0  0  0
  2 31  1  0  0  0  0
  3 13  1  0  0  0  0
  3  4  1  0  0  0  0
  4  5  1  0  0  0  0
  5 20  1  0  0  0  0
  5  1  2  0  0  0  0
  6  7  1  0  0  0  0
  6 10  1  0  0  0  0
  6 11  1  0  0  0  0
  7  8  2  0  0  0  0
  7  9  1  0  0  0  0
  9  1  1  0  0  0  0
  9 12  1  0  0  0  0
 13 14  2  0  0  0  0
 14 15  1  0  0  0  0
 14 32  1  0  0  0  0
 15 16  2  0  0  0  0
 15 33  1  0  0  0  0
 16 17  1  0  0  0  0
 16 34  1  0  0  0  0
 17 18  1  0  0  0  0
 17 19  2  0  0  0  0
 19 13  1  0  0  0  0
 19 35  1  0  0  0  0
 20 21  2  0  0  0  0
 20 22  1  0  0  0  0
 22 24  1  0  0  0  0
 22 23  1  0  0  0  0
 24 25  1  0  0  0  0
 24 36  1  0  0  0  0
 24 37  1  0  0  0  0
 25 26  2  0  0  0  0
 26 27  1  0  0  0  0
 26 38  1  0  0  0  0
 27 28  2  0  0  0  0
 27 39  1  0  0  0  0
 28 29  1  0  0  0  0
 28 40  1  0  0  0  0
 29 30  2  0  0  0  0
 29 41  1  0  0  0  0
 30 25  1  0  0  0  0
 30 42  1  0  0  0  0
M  END
>  <minimizedAffinity>
-10.30710

$$$$
