L2:O95819:104627
     RDKit          3D

 42 44  0  0  0  0  0  0  0  0999 V2000
   -1.7343    4.7647    1.9631 N   0  0  0  0  0  0  0  0  0  0  0  0
   -2.1871    3.5394    1.5795 C   0  0  0  0  0  0  0  0  0  0  0  0
   -3.3325    3.2034    1.8480 O   0  0  0  0  0  0  0  0  0  0  0  0
   -1.2398    2.8190    0.9065 N   0  0  0  0  0  0  0  0  0  0  0  0
   -1.3912    1.5316    0.3960 C   0  0  0  0  0  0  0  0  0  0  0  0
   -2.5457    0.6963    0.4872 C   0  0  0  0  0  0  0  0  0  0  0  0
   -2.3836   -0.5346   -0.1208 C   0  0  0  0  0  0  0  0  0  0  0  0
   -3.3564   -1.6303   -0.2434 C   0  0  0  0  0  0  0  0  0  0  0  0
   -4.7060   -1.3413   -0.5115 C   0  0  0  0  0  0  0  0  0  0  0  0
   -5.6541   -2.3636   -0.6256 C   0  0  0  0  0  0  0  0  0  0  0  0
   -5.2642   -3.6903   -0.4686 C   0  0  0  0  0  0  0  0  0  0  0  0
   -3.9333   -3.9812   -0.1970 C   0  0  0  0  0  0  0  0  0  0  0  0
   -3.5583   -5.2577   -0.0400 F   0  0  0  0  0  0  0  0  0  0  0  0
   -2.9820   -2.9713   -0.0816 C   0  0  0  0  0  0  0  0  0  0  0  0
   -0.8238   -0.6641   -0.8129 S   0  0  0  0  0  0  0  0  0  0  0  0
   -0.3643    0.9021   -0.2931 C   0  0  0  0  0  0  0  0  0  0  0  0
    0.9608    1.4463   -0.5775 C   0  0  0  0  0  0  0  0  0  0  0  0
    1.3020    2.5678   -0.1987 O   0  0  0  0  0  0  0  0  0  0  0  0
    1.8107    0.6345   -1.2931 N   0  0  0  0  0  0  0  0  0  0  0  0
    3.1705    0.9981   -1.6081 C   0  0  0  0  0  0  0  0  0  0  0  0
    4.1356    0.1887   -0.7832 C   0  0  0  0  0  0  0  0  0  0  0  0
    4.7446   -0.9588   -1.3102 C   0  0  0  0  0  0  0  0  0  0  0  0
    5.6203   -1.7159   -0.5297 C   0  0  0  0  0  0  0  0  0  0  0  0
    5.8900   -1.3379    0.7844 C   0  0  0  0  0  0  0  0  0  0  0  0
    5.2833   -0.2042    1.3216 C   0  0  0  0  0  0  0  0  0  0  0  0
    4.4082    0.5544    0.5432 C   0  0  0  0  0  0  0  0  0  0  0  0
   -2.3789    5.3578    2.4672 H   0  0  0  0  0  0  0  0  0  0  0  0
   -0.8012    5.0961    1.7786 H   0  0  0  0  0  0  0  0  0  0  0  0
   -0.3352    3.2529    0.7481 H   0  0  0  0  0  0  0  0  0  0  0  0
   -3.4648    0.9780    0.9877 H   0  0  0  0  0  0  0  0  0  0  0  0
   -5.0319   -0.3105   -0.6426 H   0  0  0  0  0  0  0  0  0  0  0  0
   -6.6927   -2.1204   -0.8357 H   0  0  0  0  0  0  0  0  0  0  0  0
   -5.9856   -4.4966   -0.5522 H   0  0  0  0  0  0  0  0  0  0  0  0
   -1.9587   -3.2517    0.1479 H   0  0  0  0  0  0  0  0  0  0  0  0
    1.4903   -0.2910   -1.5456 H   0  0  0  0  0  0  0  0  0  0  0  0
    3.3420    2.0684   -1.4493 H   0  0  0  0  0  0  0  0  0  0  0  0
    3.3201    0.8024   -2.6757 H   0  0  0  0  0  0  0  0  0  0  0  0
    4.5424   -1.2713   -2.3321 H   0  0  0  0  0  0  0  0  0  0  0  0
    6.0914   -2.6026   -0.9461 H   0  0  0  0  0  0  0  0  0  0  0  0
    6.5709   -1.9288    1.3915 H   0  0  0  0  0  0  0  0  0  0  0  0
    5.4890    0.0883    2.3480 H   0  0  0  0  0  0  0  0  0  0  0  0
    3.9337    1.4336    0.9757 H   0  0  0  0  0  0  0  0  0  0  0  0
  1  2  1  0
  2  3  2  0
  2  4  1  0
  4  5  1  0
  5  6  1  0
  6  7  2  0
  7  8  1  0
  8  9  2  0
  9 10  1  0
 10 11  2  0
 11 12  1  0
 12 13  1  0
 12 14  2  0
  7 15  1  0
 15 16  1  0
 16 17  1  0
 17 18  2  0
 17 19  1  0
 19 20  1  0
 20 21  1  0
 21 22  2  0
 22 23  1  0
 23 24  2  0
 24 25  1  0
 25 26  2  0
 16  5  2  0
 26 21  1  0
 14  8  1  0
  1 27  1  0
  1 28  1  0
  4 29  1  0
  6 30  1  0
  9 31  1  0
 10 32  1  0
 11 33  1  0
 14 34  1  0
 19 35  1  0
 20 36  1  0
 20 37  1  0
 22 38  1  0
 23 39  1  0
 24 40  1  0
 25 41  1  0
 26 42  1  0
M  END
>  <mol_id>  (1) 
104627

>  <source_index>  (1) 
8

>  <layer>  (1) 
L2

>  <uniprot>  (1) 
O95819

>  <paff>  (1) 
6.0506000000000002

>  <smiles>  (1) 
NC(=O)Nc1cc(-c2cccc(F)c2)sc1C(=O)NCc1ccccc1

$$$$
