L2:O95819:11547


 34 36  0  0  0  0  0  0  0  0999 V2000
  -14.5262   -3.9197   26.4003 C   0  0  0  0  0  0  0  0  0  0  0  0
  -14.5761   -3.4486   25.1318 N   0  0  0  0  0  0  0  0  0  0  0  0
  -14.1480   -2.1869   24.8878 C   0  0  0  0  0  0  0  0  0  0  0  0
  -13.6467   -1.3130   25.8466 C   0  0  0  0  0  0  0  0  0  0  0  0
  -13.6139   -1.7971   27.1515 C   0  0  0  0  0  0  0  0  0  0  0  0
  -14.0600   -3.0974   27.4430 C   0  0  0  0  0  0  0  0  0  0  0  0
  -13.9942   -3.6161   28.8335 C   0  0  0  0  0  0  0  0  0  0  0  0
  -12.8879   -3.3180   29.5807 N   0  0  0  0  0  0  0  0  0  0  0  0
  -14.9090   -4.2769   29.3140 O   0  0  0  0  0  0  0  0  0  0  0  0
  -12.1373   -2.7138   29.2808 H   0  0  0  0  0  0  0  0  0  0  0  0
  -12.8590   -3.6746   30.5280 H   0  0  0  0  0  0  0  0  0  0  0  0
  -14.9871   -5.2232   26.6763 N   0  0  0  0  0  0  0  0  0  0  0  0
  -14.3176   -5.7507   27.2412 H   0  0  0  0  0  0  0  0  0  0  0  0
  -18.8038   -8.1660   27.7356 C   0  0  0  0  0  0  0  0  0  0  0  0
  -17.9881   -7.4220   26.7215 C   0  0  0  0  0  0  0  0  0  0  0  0
  -18.2825   -7.5194   25.3612 C   0  0  0  0  0  0  0  0  0  0  0  0
  -17.4941   -6.8428   24.4388 C   0  0  0  0  0  0  0  0  0  0  0  0
  -17.7932   -6.9295   23.1349 F   0  0  0  0  0  0  0  0  0  0  0  0
  -16.4033   -6.0766   24.8406 C   0  0  0  0  0  0  0  0  0  0  0  0
  -16.0681   -5.9772   26.1918 C   0  0  0  0  0  0  0  0  0  0  0  0
  -16.8778   -6.6594   27.1210 C   0  0  0  0  0  0  0  0  0  0  0  0
  -13.2476   -0.0156   25.4949 N   0  0  0  0  0  0  0  0  0  0  0  0
  -13.2557    0.1718   24.4967 H   0  0  0  0  0  0  0  0  0  0  0  0
  -12.8320    1.0756   26.2764 C   0  0  0  0  0  0  0  0  0  0  0  0
  -13.3881    2.3379   26.0334 C   0  0  0  0  0  0  0  0  0  0  0  0
  -12.9749    3.4612   26.7588 C   0  0  0  0  0  0  0  0  0  0  0  0
  -11.9845    3.3458   27.7360 C   0  0  0  0  0  0  0  0  0  0  0  0
  -11.4350    2.0890   27.9967 C   0  0  0  0  0  0  0  0  0  0  0  0
  -11.8492    0.9692   27.2658 C   0  0  0  0  0  0  0  0  0  0  0  0
  -11.4938    4.7878   28.6564 S   0  0  0  0  0  0  0  0  0  0  0  0
  -12.1637    4.3594   30.2657 C   0  0  0  0  0  0  0  0  0  0  0  0
  -11.3030    3.6002   30.9863 F   0  0  0  0  0  0  0  0  0  0  0  0
  -12.4542    5.4579   31.0024 F   0  0  0  0  0  0  0  0  0  0  0  0
  -13.3098    3.6483   30.1388 F   0  0  0  0  0  0  0  0  0  0  0  0
 14 15  1  0  0  0
 15 16  2  0  0  0
 16 17  1  0  0  0
 17 18  1  0  0  0
 17 19  2  0  0  0
 19 20  1  0  0  0
 20 12  1  0  0  0
 12  1  1  0  0  0
  1  2  2  0  0  0
  2  3  1  0  0  0
  3  4  2  0  0  0
  4 22  1  0  0  0
 22 24  1  0  0  0
 24 25  2  0  0  0
 25 26  1  0  0  0
 26 27  2  0  0  0
 27 30  1  0  0  0
 30 31  1  0  0  0
 31 32  1  0  0  0
 31 33  1  0  0  0
 31 34  1  0  0  0
 27 28  1  0  0  0
 28 29  2  0  0  0
  4  5  1  0  0  0
  5  6  2  0  0  0
  6  7  1  0  0  0
  7  8  1  0  0  0
  7  9  2  0  0  0
 20 21  2  0  0  0
 21 15  1  0  0  0
  6  1  1  0  0  0
 29 24  1  0  0  0
 12 13  1  0  0  0
 22 23  1  0  0  0
  8 10  1  0  0  0
  8 11  1  0  0  0
M  END
> <minimizedAffinity>
-8.36945

$$$$
