L2:O95819:11547
     RDKit          3D

 46 48  0  0  0  0  0  0  0  0999 V2000
   -7.7760   -0.5742    0.2614 C   0  0  0  0  0  0  0  0  0  0  0  0
   -6.5258    0.1809   -0.0763 C   0  0  0  0  0  0  0  0  0  0  0  0
   -6.5941    1.4681   -0.6102 C   0  0  0  0  0  0  0  0  0  0  0  0
   -5.4219    2.1362   -0.9415 C   0  0  0  0  0  0  0  0  0  0  0  0
   -5.4959    3.3785   -1.4397 F   0  0  0  0  0  0  0  0  0  0  0  0
   -4.1745    1.5435   -0.7649 C   0  0  0  0  0  0  0  0  0  0  0  0
   -4.0726    0.2484   -0.2547 C   0  0  0  0  0  0  0  0  0  0  0  0
   -2.8535   -0.4161   -0.0445 N   0  0  0  0  0  0  0  0  0  0  0  0
   -1.5275   -0.1333   -0.4312 C   0  0  0  0  0  0  0  0  0  0  0  0
   -1.2895    0.8529   -1.3279 N   0  0  0  0  0  0  0  0  0  0  0  0
   -0.0082    1.1248   -1.6730 C   0  0  0  0  0  0  0  0  0  0  0  0
    1.1107    0.4628   -1.1790 C   0  0  0  0  0  0  0  0  0  0  0  0
    2.4005    0.8344   -1.5848 N   0  0  0  0  0  0  0  0  0  0  0  0
    3.6459    0.7290   -0.9431 C   0  0  0  0  0  0  0  0  0  0  0  0
    4.8026    0.5895   -1.7205 C   0  0  0  0  0  0  0  0  0  0  0  0
    6.0600    0.4398   -1.1244 C   0  0  0  0  0  0  0  0  0  0  0  0
    6.1839    0.4137    0.2660 C   0  0  0  0  0  0  0  0  0  0  0  0
    7.7981    0.2425    0.9956 S   0  0  0  0  0  0  0  0  0  0  0  0
    7.5879   -1.3365    1.8230 C   0  0  0  0  0  0  0  0  0  0  0  0
    6.6786   -1.2656    2.8253 F   0  0  0  0  0  0  0  0  0  0  0  0
    7.1798   -2.3054    0.9695 F   0  0  0  0  0  0  0  0  0  0  0  0
    8.7536   -1.7532    2.3733 F   0  0  0  0  0  0  0  0  0  0  0  0
    5.0389    0.5677    1.0499 C   0  0  0  0  0  0  0  0  0  0  0  0
    3.7830    0.7134    0.4487 C   0  0  0  0  0  0  0  0  0  0  0  0
    0.8606   -0.5385   -0.2447 C   0  0  0  0  0  0  0  0  0  0  0  0
   -0.4555   -0.8403    0.1447 C   0  0  0  0  0  0  0  0  0  0  0  0
   -0.7151   -1.9300    1.1204 C   0  0  0  0  0  0  0  0  0  0  0  0
    0.2559   -2.2160    2.0404 N   0  0  0  0  0  0  0  0  0  0  0  0
   -1.7744   -2.5484    1.1224 O   0  0  0  0  0  0  0  0  0  0  0  0
   -5.2656   -0.4185    0.0866 C   0  0  0  0  0  0  0  0  0  0  0  0
   -7.6105   -1.2399    1.1151 H   0  0  0  0  0  0  0  0  0  0  0  0
   -8.5852    0.1106    0.5362 H   0  0  0  0  0  0  0  0  0  0  0  0
   -8.0960   -1.1716   -0.5978 H   0  0  0  0  0  0  0  0  0  0  0  0
   -7.5468    1.9632   -0.7700 H   0  0  0  0  0  0  0  0  0  0  0  0
   -3.2966    2.1198   -1.0312 H   0  0  0  0  0  0  0  0  0  0  0  0
   -2.9416   -1.3552    0.3504 H   0  0  0  0  0  0  0  0  0  0  0  0
    0.0927    1.9358   -2.3898 H   0  0  0  0  0  0  0  0  0  0  0  0
    2.4474    1.2519   -2.5095 H   0  0  0  0  0  0  0  0  0  0  0  0
    4.7364    0.5847   -2.8061 H   0  0  0  0  0  0  0  0  0  0  0  0
    6.9360    0.3376   -1.7615 H   0  0  0  0  0  0  0  0  0  0  0  0
    5.1044    0.5916    2.1356 H   0  0  0  0  0  0  0  0  0  0  0  0
    2.9163    0.8592    1.0880 H   0  0  0  0  0  0  0  0  0  0  0  0
    1.6895   -1.1269    0.1346 H   0  0  0  0  0  0  0  0  0  0  0  0
    1.1143   -1.6968    2.1506 H   0  0  0  0  0  0  0  0  0  0  0  0
    0.0632   -2.9581    2.7018 H   0  0  0  0  0  0  0  0  0  0  0  0
   -5.2131   -1.4302    0.4868 H   0  0  0  0  0  0  0  0  0  0  0  0
  1  2  1  0
  2  3  2  0
  3  4  1  0
  4  5  1  0
  4  6  2  0
  6  7  1  0
  7  8  1  0
  8  9  1  0
  9 10  2  0
 10 11  1  0
 11 12  2  0
 12 13  1  0
 13 14  1  0
 14 15  2  0
 15 16  1  0
 16 17  2  0
 17 18  1  0
 18 19  1  0
 19 20  1  0
 19 21  1  0
 19 22  1  0
 17 23  1  0
 23 24  2  0
 12 25  1  0
 25 26  2  0
 26 27  1  0
 27 28  1  0
 27 29  2  0
  7 30  2  0
 30  2  1  0
 26  9  1  0
 24 14  1  0
  1 31  1  0
  1 32  1  0
  1 33  1  0
  3 34  1  0
  6 35  1  0
  8 36  1  0
 11 37  1  0
 13 38  1  0
 15 39  1  0
 16 40  1  0
 23 41  1  0
 24 42  1  0
 25 43  1  0
 28 44  1  0
 28 45  1  0
 30 46  1  0
M  END
>  <mol_id>  (1) 
11547

>  <source_index>  (1) 
0

>  <layer>  (1) 
L2

>  <uniprot>  (1) 
O95819

>  <paff>  (1) 
6.3872

>  <smiles>  (1) 
Cc1cc(F)cc(Nc2ncc(Nc3ccc(SC(F)(F)F)cc3)cc2C(N)=O)c1

$$$$
