L2:O95819:140980


 34 38  0  0  0  0  0  0  0  0999 V2000
  -14.6508   -3.3434   27.3645 C   0  0  0  0  0  0  0  0  0  0  0  0
  -14.1507   -2.5791   26.2950 C   0  0  0  0  0  0  0  0  0  0  0  0
  -13.3131   -1.4691   26.5166 C   0  0  0  0  0  0  0  0  0  0  0  0
  -12.8031   -0.6976   25.4608 C   0  0  0  0  0  0  0  0  0  0  0  0
  -11.9762    0.3893   25.7360 C   0  0  0  0  0  0  0  0  0  0  0  0
  -11.6496    0.7294   26.9919 N   0  0  0  0  0  0  0  0  0  0  0  0
  -12.1430   -0.0151   28.0060 C   0  0  0  0  0  0  0  0  0  0  0  0
  -12.9742   -1.1194   27.8357 C   0  0  0  0  0  0  0  0  0  0  0  0
  -13.4704   -1.8733   28.9095 C   0  0  0  0  0  0  0  0  0  0  0  0
  -14.2965   -2.9668   28.6658 C   0  0  0  0  0  0  0  0  0  0  0  0
  -14.7529   -3.6660   29.7157 F   0  0  0  0  0  0  0  0  0  0  0  0
  -16.2996   -3.5827   24.8671 C   0  0  0  0  0  0  0  0  0  0  0  0
  -16.3136   -4.6386   25.9451 C   0  0  0  0  0  0  0  0  0  0  0  0
  -15.5280   -4.4940   27.1129 C   0  0  0  0  0  0  0  0  0  0  0  0
  -15.6037   -5.5105   28.0706 C   0  0  0  0  0  0  0  0  0  0  0  0
  -16.3745   -6.6124   27.9766 N   0  0  0  0  0  0  0  0  0  0  0  0
  -17.0990   -6.7355   26.8488 C   0  0  0  0  0  0  0  0  0  0  0  0
  -17.0785   -5.8133   25.7762 C   0  0  0  0  0  0  0  0  0  0  0  0
  -17.8492   -6.0202   24.6257 N   0  0  0  0  0  0  0  0  0  0  0  0
  -18.4697   -7.3287   24.5140 C   0  0  0  0  0  0  0  0  0  0  0  0
  -18.9486   -7.7827   25.8903 C   0  0  0  0  0  0  0  0  0  0  0  0
  -17.8580   -7.8857   26.8115 O   0  0  0  0  0  0  0  0  0  0  0  0
  -17.6383   -5.5051   23.7816 H   0  0  0  0  0  0  0  0  0  0  0  0
  -11.4996    1.1258   24.6424 N   0  0  0  0  0  0  0  0  0  0  0  0
  -12.2007    2.0989   23.9680 C   0  0  0  0  0  0  0  0  0  0  0  0
  -13.3241    2.5172   24.2129 O   0  0  0  0  0  0  0  0  0  0  0  0
  -11.4657    2.6041   22.9090 N   0  0  0  0  0  0  0  0  0  0  0  0
  -10.5609    0.9376   24.3410 H   0  0  0  0  0  0  0  0  0  0  0  0
  -10.5607    2.2098   22.7103 H   0  0  0  0  0  0  0  0  0  0  0  0
  -12.0111    3.6829   22.0411 C   0  0  0  0  0  0  0  0  0  0  0  0
  -12.8126    3.1900   20.8152 C   0  0  0  0  0  0  0  0  0  0  0  0
  -11.5581    3.2293   20.0175 N   0  0  0  0  0  0  0  0  0  0  0  0
  -11.0182    4.2144   20.9849 C   0  0  0  0  0  0  0  0  0  0  0  0
  -11.0692    2.3343   20.0317 H   0  0  0  0  0  0  0  0  0  0  0  0
 12 13  1  0  0  0
 13 14  2  0  0  0
 14  1  1  0  0  0
  1  2  2  0  0  0
  2  3  1  0  0  0
  3  4  2  0  0  0
  4  5  1  0  0  0
  5 24  1  0  0  0
 24 25  1  0  0  0
 25 26  2  0  0  0
 25 27  1  0  0  0
 27 30  1  0  0  0
 30 31  1  0  0  0
 31 32  1  0  0  0
 32 33  1  0  0  0
  5  6  2  0  0  0
  6  7  1  0  0  0
  7  8  2  0  0  0
  8  9  1  0  0  0
  9 10  2  0  0  0
 10 11  1  0  0  0
 14 15  1  0  0  0
 15 16  2  0  0  0
 16 17  1  0  0  0
 17 18  2  0  0  0
 18 19  1  0  0  0
 19 20  1  0  0  0
 20 21  1  0  0  0
 21 22  1  0  0  0
 18 13  1  0  0  0
 10  1  1  0  0  0
 22 17  1  0  0  0
  8  3  1  0  0  0
 33 30  1  0  0  0
 24 28  1  0  0  0
 27 29  1  0  0  0
 32 34  1  0  0  0
 19 23  1  0  0  0
M  END
> <minimizedAffinity>
-10.21651

$$$$
