L2:O95819:16994
     RDKit          3D

 68 72  0  0  0  0  0  0  0  0999 V2000
    9.1592    1.0324    2.3695 C   0  0  0  0  0  0  0  0  0  0  0  0
    8.1204    1.0104    1.2400 C   0  0  0  0  0  0  0  0  0  0  0  0
    7.0678    2.0934    1.4931 C   0  0  0  0  0  0  0  0  0  0  0  0
    8.8218    1.3265    0.0337 O   0  0  0  0  0  0  0  0  0  0  0  0
    7.5239   -0.4127    1.1427 C   0  0  0  0  0  0  0  0  0  0  0  0
    6.3669   -0.5504    0.2740 N   0  0  0  0  0  0  0  0  0  0  0  0
    5.0527   -0.4410    0.6476 C   0  0  0  0  0  0  0  0  0  0  0  0
    4.3006   -0.7185   -0.4753 C   0  0  0  0  0  0  0  0  0  0  0  0
    2.8502   -0.7131   -0.5344 C   0  0  0  0  0  0  0  0  0  0  0  0
    2.1722   -1.5948   -1.3830 C   0  0  0  0  0  0  0  0  0  0  0  0
    0.7572   -1.6188   -1.4738 C   0  0  0  0  0  0  0  0  0  0  0  0
    0.0535   -2.6104   -2.4142 C   0  0  0  0  0  0  0  0  0  0  0  0
   -0.7291   -1.8764   -3.5185 C   0  0  0  0  0  0  0  0  0  0  0  0
    0.9788   -3.6322   -3.1022 C   0  0  0  0  0  0  0  0  0  0  0  0
   -0.8452   -3.4022   -1.6271 O   0  0  0  0  0  0  0  0  0  0  0  0
    0.0024   -0.7175   -0.6869 C   0  0  0  0  0  0  0  0  0  0  0  0
   -1.3441   -0.6746   -0.7295 N   0  0  0  0  0  0  0  0  0  0  0  0
   -2.0196    0.1925    0.0428 C   0  0  0  0  0  0  0  0  0  0  0  0
   -3.4043    0.1151   -0.0768 N   0  0  0  0  0  0  0  0  0  0  0  0
   -4.4753    0.8098    0.4948 C   0  0  0  0  0  0  0  0  0  0  0  0
   -4.3165    1.8876    1.3894 C   0  0  0  0  0  0  0  0  0  0  0  0
   -5.4175    2.5543    1.9399 C   0  0  0  0  0  0  0  0  0  0  0  0
   -6.6770    2.1207    1.5779 C   0  0  0  0  0  0  0  0  0  0  0  0
   -6.8738    1.0715    0.7076 C   0  0  0  0  0  0  0  0  0  0  0  0
   -5.7839    0.4075    0.1587 C   0  0  0  0  0  0  0  0  0  0  0  0
   -8.3338    0.8558    0.5279 C   0  0  0  0  0  0  0  0  0  0  0  0
   -8.7918   -0.5077    1.0388 C   0  0  0  0  0  0  0  0  0  0  0  0
   -8.7900    1.1019   -0.9078 C   0  0  0  0  0  0  0  0  0  0  0  0
   -8.9175    1.8792    1.3736 O   0  0  0  0  0  0  0  0  0  0  0  0
   -7.9701    2.6372    2.0034 C   0  0  0  0  0  0  0  0  0  0  0  0
   -8.1691    3.5600    2.7668 O   0  0  0  0  0  0  0  0  0  0  0  0
   -1.4237    1.0601    0.8627 N   0  0  0  0  0  0  0  0  0  0  0  0
   -0.0821    1.0249    0.9020 C   0  0  0  0  0  0  0  0  0  0  0  0
    0.6964    0.1592    0.1545 C   0  0  0  0  0  0  0  0  0  0  0  0
    2.0990    0.1677    0.2361 C   0  0  0  0  0  0  0  0  0  0  0  0
    5.2660   -1.0262   -1.4609 C   0  0  0  0  0  0  0  0  0  0  0  0
    6.5168   -0.9468   -1.0031 N   0  0  0  0  0  0  0  0  0  0  0  0
    9.9510    0.2974    2.1838 H   0  0  0  0  0  0  0  0  0  0  0  0
    8.7041    0.8150    3.3414 H   0  0  0  0  0  0  0  0  0  0  0  0
    9.6536    2.0089    2.4300 H   0  0  0  0  0  0  0  0  0  0  0  0
    6.4680    1.8732    2.3820 H   0  0  0  0  0  0  0  0  0  0  0  0
    7.5423    3.0715    1.6360 H   0  0  0  0  0  0  0  0  0  0  0  0
    6.4009    2.2100    0.6320 H   0  0  0  0  0  0  0  0  0  0  0  0
    9.1149    2.2527    0.0738 H   0  0  0  0  0  0  0  0  0  0  0  0
    7.2033   -0.7605    2.1329 H   0  0  0  0  0  0  0  0  0  0  0  0
    8.2784   -1.1192    0.7741 H   0  0  0  0  0  0  0  0  0  0  0  0
    4.7780   -0.1852    1.6610 H   0  0  0  0  0  0  0  0  0  0  0  0
    2.7667   -2.2892   -1.9711 H   0  0  0  0  0  0  0  0  0  0  0  0
   -0.0773   -1.2110   -4.0953 H   0  0  0  0  0  0  0  0  0  0  0  0
   -1.1872   -2.5917   -4.2123 H   0  0  0  0  0  0  0  0  0  0  0  0
   -1.5598   -1.2848   -3.1235 H   0  0  0  0  0  0  0  0  0  0  0  0
    1.6957   -3.1522   -3.7770 H   0  0  0  0  0  0  0  0  0  0  0  0
    0.3949   -4.3505   -3.6910 H   0  0  0  0  0  0  0  0  0  0  0  0
    1.5288   -4.2299   -2.3654 H   0  0  0  0  0  0  0  0  0  0  0  0
   -1.4902   -3.8079   -2.2282 H   0  0  0  0  0  0  0  0  0  0  0  0
   -3.6213   -0.6320   -0.7200 H   0  0  0  0  0  0  0  0  0  0  0  0
   -3.3256    2.2304    1.6739 H   0  0  0  0  0  0  0  0  0  0  0  0
   -5.2860    3.3835    2.6277 H   0  0  0  0  0  0  0  0  0  0  0  0
   -5.9448   -0.4208   -0.5260 H   0  0  0  0  0  0  0  0  0  0  0  0
   -8.3608   -1.3271    0.4537 H   0  0  0  0  0  0  0  0  0  0  0  0
   -9.8839   -0.5900    0.9981 H   0  0  0  0  0  0  0  0  0  0  0  0
   -8.5090   -0.6532    2.0883 H   0  0  0  0  0  0  0  0  0  0  0  0
   -8.3589    0.3729   -1.6023 H   0  0  0  0  0  0  0  0  0  0  0  0
   -9.8821    1.0475   -0.9822 H   0  0  0  0  0  0  0  0  0  0  0  0
   -8.5059    2.1051   -1.2475 H   0  0  0  0  0  0  0  0  0  0  0  0
    0.3643    1.7445    1.5831 H   0  0  0  0  0  0  0  0  0  0  0  0
    2.5949    0.8768    0.8950 H   0  0  0  0  0  0  0  0  0  0  0  0
    5.1114   -1.3088   -2.4940 H   0  0  0  0  0  0  0  0  0  0  0  0
  1  2  1  0
  2  3  1  0
  2  4  1  0
  2  5  1  0
  5  6  1  0
  6  7  1  0
  7  8  2  0
  8  9  1  0
  9 10  2  0
 10 11  1  0
 11 12  1  0
 12 13  1  0
 12 14  1  0
 12 15  1  0
 11 16  2  0
 16 17  1  0
 17 18  2  0
 18 19  1  0
 19 20  1  0
 20 21  2  0
 21 22  1  0
 22 23  2  0
 23 24  1  0
 24 25  2  0
 24 26  1  0
 26 27  1  0
 26 28  1  0
 26 29  1  0
 29 30  1  0
 30 31  2  0
 18 32  1  0
 32 33  2  0
 33 34  1  0
 34 35  2  0
  8 36  1  0
 36 37  2  0
 37  6  1  0
 35  9  1  0
 34 16  1  0
 25 20  1  0
 30 23  1  0
  1 38  1  0
  1 39  1  0
  1 40  1  0
  3 41  1  0
  3 42  1  0
  3 43  1  0
  4 44  1  0
  5 45  1  0
  5 46  1  0
  7 47  1  0
 10 48  1  0
 13 49  1  0
 13 50  1  0
 13 51  1  0
 14 52  1  0
 14 53  1  0
 14 54  1  0
 15 55  1  0
 19 56  1  0
 21 57  1  0
 22 58  1  0
 25 59  1  0
 27 60  1  0
 27 61  1  0
 27 62  1  0
 28 63  1  0
 28 64  1  0
 28 65  1  0
 33 66  1  0
 35 67  1  0
 36 68  1  0
M  END
>  <mol_id>  (1) 
16994

>  <source_index>  (1) 
1

>  <layer>  (1) 
L2

>  <uniprot>  (1) 
O95819

>  <paff>  (1) 
7

>  <smiles>  (1) 
CC(C)(O)Cn1cc(-c2cc(C(C)(C)O)c3nc(Nc4ccc5c(c4)C(C)(C)OC5=O)ncc3c2)cn1

$$$$
