L2:O95819:16994
 OpenBabel09212617503D

 68 72  0  0  0  0  0  0  0  0999 V2000
  -17.0833   -6.8623   27.0625 C   0  0  0  0  0  0  0  0  0  0  0  0
  -16.9482   -6.4878   25.7214 C   0  0  0  0  0  0  0  0  0  0  0  0
  -16.1317   -5.4005   25.3187 C   0  0  0  0  0  0  0  0  0  0  0  0
  -15.4226   -4.6720   26.3024 C   0  0  0  0  0  0  0  0  0  0  0  0
  -14.6188   -3.6350   25.9934 N   0  0  0  0  0  0  0  0  0  0  0  0
  -13.9718   -2.9666   26.9625 C   0  0  0  0  0  0  0  0  0  0  0  0
  -14.0582   -3.2861   28.2550 N   0  0  0  0  0  0  0  0  0  0  0  0
  -14.8524   -4.3232   28.5653 C   0  0  0  0  0  0  0  0  0  0  0  0
  -15.5671   -5.0613   27.6387 C   0  0  0  0  0  0  0  0  0  0  0  0
  -16.3835   -6.1387   28.0219 C   0  0  0  0  0  0  0  0  0  0  0  0
  -18.6526   -9.8337   28.3874 N   0  0  0  0  0  0  0  0  0  0  0  0
  -17.5886   -8.9712   28.3350 C   0  0  0  0  0  0  0  0  0  0  0  0
  -17.9263   -7.9851   27.4312 C   0  0  0  0  0  0  0  0  0  0  0  0
  -19.2378   -8.3285   27.0309 C   0  0  0  0  0  0  0  0  0  0  0  0
  -19.6876   -9.4350   27.6257 N   0  0  0  0  0  0  0  0  0  0  0  0
  -18.7810  -10.9916   29.2563 C   0  0  0  0  0  0  0  0  0  0  0  0
  -19.4231  -11.3891   31.6432 C   0  0  0  0  0  0  0  0  0  0  0  0
  -19.9453  -10.9384   30.2723 C   0  0  0  0  0  0  0  0  0  0  0  0
  -21.1411  -11.8066   29.8707 C   0  0  0  0  0  0  0  0  0  0  0  0
  -20.3918   -9.5881   30.4289 O   0  0  0  0  0  0  0  0  0  0  0  0
  -21.1781   -9.5812   31.0007 H   0  0  0  0  0  0  0  0  0  0  0  0
  -16.0188   -5.0190   23.8339 C   0  0  0  0  0  0  0  0  0  0  0  0
  -16.5982   -6.1200   22.9268 C   0  0  0  0  0  0  0  0  0  0  0  0
  -16.6969   -3.6918   23.4437 C   0  0  0  0  0  0  0  0  0  0  0  0
  -14.6311   -4.8233   23.5335 O   0  0  0  0  0  0  0  0  0  0  0  0
  -14.5237   -4.8773   22.5704 H   0  0  0  0  0  0  0  0  0  0  0  0
  -13.1971   -1.9017   26.5113 N   0  0  0  0  0  0  0  0  0  0  0  0
  -12.9003   -2.1082   25.5689 H   0  0  0  0  0  0  0  0  0  0  0  0
  -12.7954   -0.6815   27.0647 C   0  0  0  0  0  0  0  0  0  0  0  0
  -12.2334   -0.5568   28.3515 C   0  0  0  0  0  0  0  0  0  0  0  0
  -11.8464    0.6858   28.8672 C   0  0  0  0  0  0  0  0  0  0  0  0
  -12.0335    1.7976   28.0709 C   0  0  0  0  0  0  0  0  0  0  0  0
  -12.5794    1.7173   26.8089 C   0  0  0  0  0  0  0  0  0  0  0  0
  -12.9644    0.4861   26.2932 C   0  0  0  0  0  0  0  0  0  0  0  0
  -12.6462    3.0809   26.2201 C   0  0  0  0  0  0  0  0  0  0  0  0
  -14.0793    3.5365   25.9584 C   0  0  0  0  0  0  0  0  0  0  0  0
  -11.7730    3.2253   24.9765 C   0  0  0  0  0  0  0  0  0  0  0  0
  -12.0876    3.9126   27.2686 O   0  0  0  0  0  0  0  0  0  0  0  0
  -11.7192    3.1880   28.3677 C   0  0  0  0  0  0  0  0  0  0  0  0
  -11.2263    3.6199   29.3897 O   0  0  0  0  0  0  0  0  0  0  0  0
  -17.4599   -7.0207   25.0009 H   0  0  0  0  0  0  0  0  0  0  0  0
  -14.9351   -4.5869   29.5596 H   0  0  0  0  0  0  0  0  0  0  0  0
  -16.4641   -6.3939   29.0186 H   0  0  0  0  0  0  0  0  0  0  0  0
  -16.7076   -9.0450   28.8673 H   0  0  0  0  0  0  0  0  0  0  0  0
  -19.7888   -7.7816   26.3510 H   0  0  0  0  0  0  0  0  0  0  0  0
  -18.9228  -11.8532   28.6379 H   0  0  0  0  0  0  0  0  0  0  0  0
  -17.8845  -11.0207   29.8397 H   0  0  0  0  0  0  0  0  0  0  0  0
  -20.2199  -11.3569   32.3566 H   0  0  0  0  0  0  0  0  0  0  0  0
  -18.6363  -10.7357   31.9576 H   0  0  0  0  0  0  0  0  0  0  0  0
  -19.0490  -12.3890   31.5712 H   0  0  0  0  0  0  0  0  0  0  0  0
  -21.9070  -11.7242   30.6133 H   0  0  0  0  0  0  0  0  0  0  0  0
  -20.8300  -12.8273   29.7909 H   0  0  0  0  0  0  0  0  0  0  0  0
  -21.5218  -11.4750   28.9273 H   0  0  0  0  0  0  0  0  0  0  0  0
  -17.6339   -6.2619   23.1552 H   0  0  0  0  0  0  0  0  0  0  0  0
  -16.0679   -7.0344   23.0925 H   0  0  0  0  0  0  0  0  0  0  0  0
  -16.4955   -5.8288   21.9023 H   0  0  0  0  0  0  0  0  0  0  0  0
  -17.7468   -3.7566   23.6396 H   0  0  0  0  0  0  0  0  0  0  0  0
  -16.5393   -3.5035   22.4023 H   0  0  0  0  0  0  0  0  0  0  0  0
  -16.2755   -2.8936   24.0183 H   0  0  0  0  0  0  0  0  0  0  0  0
  -12.1040   -1.4030   28.9280 H   0  0  0  0  0  0  0  0  0  0  0  0
  -11.4354    0.7677   29.8103 H   0  0  0  0  0  0  0  0  0  0  0  0
  -13.3732    0.4265   25.3475 H   0  0  0  0  0  0  0  0  0  0  0  0
  -14.5098    2.9338   25.1862 H   0  0  0  0  0  0  0  0  0  0  0  0
  -14.0773    4.5615   25.6514 H   0  0  0  0  0  0  0  0  0  0  0  0
  -14.6555    3.4336   26.8541 H   0  0  0  0  0  0  0  0  0  0  0  0
  -12.1695    2.6180   24.1898 H   0  0  0  0  0  0  0  0  0  0  0  0
  -10.7757    2.9101   25.2024 H   0  0  0  0  0  0  0  0  0  0  0  0
  -11.7617    4.2491   24.6655 H   0  0  0  0  0  0  0  0  0  0  0  0
  1  2  2  0  0  0  0
  2  3  1  0  0  0  0
  2 41  1  0  0  0  0
  3 22  1  0  0  0  0
  3  4  2  0  0  0  0
  4  5  1  0  0  0  0
  5  6  2  0  0  0  0
  6 27  1  0  0  0  0
  6  7  1  0  0  0  0
  7  8  2  0  0  0  0
  8  9  1  0  0  0  0
  8 42  1  0  0  0  0
  9 10  2  0  0  0  0
  9  4  1  0  0  0  0
 10  1  1  0  0  0  0
 10 43  1  0  0  0  0
 11 12  1  0  0  0  0
 12 13  2  0  0  0  0
 12 44  1  0  0  0  0
 13  1  1  0  0  0  0
 13 14  1  0  0  0  0
 14 15  2  0  0  0  0
 14 45  1  0  0  0  0
 15 11  1  0  0  0  0
 16 11  1  0  0  0  0
 16 46  1  0  0  0  0
 16 47  1  0  0  0  0
 17 18  1  0  0  0  0
 17 48  1  0  0  0  0
 17 49  1  0  0  0  0
 17 50  1  0  0  0  0
 18 19  1  0  0  0  0
 18 20  1  0  0  0  0
 18 16  1  0  0  0  0
 19 51  1  0  0  0  0
 19 52  1  0  0  0  0
 19 53  1  0  0  0  0
 20 21  1  0  0  0  0
 22 23  1  0  0  0  0
 22 24  1  0  0  0  0
 22 25  1  0  0  0  0
 23 54  1  0  0  0  0
 23 55  1  0  0  0  0
 23 56  1  0  0  0  0
 24 57  1  0  0  0  0
 24 58  1  0  0  0  0
 24 59  1  0  0  0  0
 25 26  1  0  0  0  0
 27 29  1  0  0  0  0
 27 28  1  0  0  0  0
 29 30  2  0  0  0  0
 30 31  1  0  0  0  0
 30 60  1  0  0  0  0
 31 32  2  0  0  0  0
 31 61  1  0  0  0  0
 32 33  1  0  0  0  0
 33 34  2  0  0  0  0
 33 35  1  0  0  0  0
 34 29  1  0  0  0  0
 34 62  1  0  0  0  0
 35 36  1  0  0  0  0
 35 37  1  0  0  0  0
 35 38  1  0  0  0  0
 36 63  1  0  0  0  0
 36 64  1  0  0  0  0
 36 65  1  0  0  0  0
 37 66  1  0  0  0  0
 37 67  1  0  0  0  0
 37 68  1  0  0  0  0
 38 39  1  0  0  0  0
 39 40  2  0  0  0  0
 39 32  1  0  0  0  0
M  END
>  <minimizedAffinity>
-10.31897

$$$$
