L2:O95819:17170
     RDKit          3D

 45 47  0  0  0  0  0  0  0  0999 V2000
    6.9329   -0.7355   -1.0820 C   0  0  0  0  0  0  0  0  0  0  0  0
    5.5929   -0.0666   -1.0160 C   0  0  0  0  0  0  0  0  0  0  0  0
    5.3410    1.0958   -1.7454 C   0  0  0  0  0  0  0  0  0  0  0  0
    4.0822    1.6812   -1.6899 C   0  0  0  0  0  0  0  0  0  0  0  0
    3.8542    2.8068   -2.3812 F   0  0  0  0  0  0  0  0  0  0  0  0
    3.0565    1.1250   -0.9305 C   0  0  0  0  0  0  0  0  0  0  0  0
    3.2688   -0.0505   -0.2083 C   0  0  0  0  0  0  0  0  0  0  0  0
    2.2888   -0.6687    0.5851 N   0  0  0  0  0  0  0  0  0  0  0  0
    0.8989   -0.4706    0.7172 C   0  0  0  0  0  0  0  0  0  0  0  0
    0.2473    0.3157   -0.1702 N   0  0  0  0  0  0  0  0  0  0  0  0
   -1.0872    0.5073   -0.0179 C   0  0  0  0  0  0  0  0  0  0  0  0
   -1.8585   -0.0356    1.0026 C   0  0  0  0  0  0  0  0  0  0  0  0
   -3.2473    0.1264    1.1072 N   0  0  0  0  0  0  0  0  0  0  0  0
   -4.1669    0.6301    0.1669 C   0  0  0  0  0  0  0  0  0  0  0  0
   -4.9469    1.7366    0.5445 C   0  0  0  0  0  0  0  0  0  0  0  0
   -5.8339    2.3357   -0.3504 C   0  0  0  0  0  0  0  0  0  0  0  0
   -5.9525    1.8381   -1.6421 C   0  0  0  0  0  0  0  0  0  0  0  0
   -5.1949    0.7346   -2.0317 C   0  0  0  0  0  0  0  0  0  0  0  0
   -4.3102    0.1090   -1.1342 C   0  0  0  0  0  0  0  0  0  0  0  0
   -3.5644   -1.1070   -1.6143 C   0  0  0  0  0  0  0  0  0  0  0  0
   -1.1821   -0.8403    1.9172 C   0  0  0  0  0  0  0  0  0  0  0  0
    0.2017   -1.0499    1.7929 C   0  0  0  0  0  0  0  0  0  0  0  0
    0.9135   -1.9183    2.7633 C   0  0  0  0  0  0  0  0  0  0  0  0
    0.4410   -1.9646    4.0461 N   0  0  0  0  0  0  0  0  0  0  0  0
    1.9077   -2.5592    2.4402 O   0  0  0  0  0  0  0  0  0  0  0  0
    4.5506   -0.6321   -0.2624 C   0  0  0  0  0  0  0  0  0  0  0  0
    7.1697   -1.2278   -0.1330 H   0  0  0  0  0  0  0  0  0  0  0  0
    7.7260   -0.0056   -1.2756 H   0  0  0  0  0  0  0  0  0  0  0  0
    6.9389   -1.4833   -1.8810 H   0  0  0  0  0  0  0  0  0  0  0  0
    6.1111    1.5576   -2.3553 H   0  0  0  0  0  0  0  0  0  0  0  0
    2.1000    1.6340   -0.9187 H   0  0  0  0  0  0  0  0  0  0  0  0
    2.5967   -1.5214    1.0571 H   0  0  0  0  0  0  0  0  0  0  0  0
   -1.5302    1.1492   -0.7752 H   0  0  0  0  0  0  0  0  0  0  0  0
   -3.6266    0.0444    2.0435 H   0  0  0  0  0  0  0  0  0  0  0  0
   -4.8458    2.1592    1.5412 H   0  0  0  0  0  0  0  0  0  0  0  0
   -6.4201    3.1971   -0.0420 H   0  0  0  0  0  0  0  0  0  0  0  0
   -6.6349    2.3055   -2.3472 H   0  0  0  0  0  0  0  0  0  0  0  0
   -5.3053    0.3520   -3.0447 H   0  0  0  0  0  0  0  0  0  0  0  0
   -3.3559   -1.8020   -0.7952 H   0  0  0  0  0  0  0  0  0  0  0  0
   -4.1640   -1.6633   -2.3437 H   0  0  0  0  0  0  0  0  0  0  0  0
   -2.6265   -0.8149   -2.0948 H   0  0  0  0  0  0  0  0  0  0  0  0
   -1.7426   -1.3370    2.7027 H   0  0  0  0  0  0  0  0  0  0  0  0
    0.9402   -2.5524    4.7024 H   0  0  0  0  0  0  0  0  0  0  0  0
   -0.3057   -1.3858    4.4013 H   0  0  0  0  0  0  0  0  0  0  0  0
    4.7421   -1.5492    0.2931 H   0  0  0  0  0  0  0  0  0  0  0  0
  1  2  1  0
  2  3  2  0
  3  4  1  0
  4  5  1  0
  4  6  2  0
  6  7  1  0
  7  8  1  0
  8  9  1  0
  9 10  2  0
 10 11  1  0
 11 12  2  0
 12 13  1  0
 13 14  1  0
 14 15  2  0
 15 16  1  0
 16 17  2  0
 17 18  1  0
 18 19  2  0
 19 20  1  0
 12 21  1  0
 21 22  2  0
 22 23  1  0
 23 24  1  0
 23 25  2  0
  7 26  2  0
 26  2  1  0
 22  9  1  0
 19 14  1  0
  1 27  1  0
  1 28  1  0
  1 29  1  0
  3 30  1  0
  6 31  1  0
  8 32  1  0
 11 33  1  0
 13 34  1  0
 15 35  1  0
 16 36  1  0
 17 37  1  0
 18 38  1  0
 20 39  1  0
 20 40  1  0
 20 41  1  0
 21 42  1  0
 24 43  1  0
 24 44  1  0
 26 45  1  0
M  END
>  <mol_id>  (1) 
17170

>  <source_index>  (1) 
2

>  <layer>  (1) 
L2

>  <uniprot>  (1) 
O95819

>  <paff>  (1) 
6.0132000000000003

>  <smiles>  (1) 
Cc1cc(F)cc(Nc2ncc(Nc3ccccc3C)cc2C(N)=O)c1

$$$$
