L2:O95819:35616
 OpenBabel09212617503D

 51 55  0  0  0  0  0  0  0  0999 V2000
  -15.7787   -5.1526   26.9747 C   0  0  0  0  0  0  0  0  0  0  0  0
  -15.8621   -4.6911   25.6623 C   0  0  0  0  0  0  0  0  0  0  0  0
  -16.7397   -5.3076   24.7753 C   0  0  0  0  0  0  0  0  0  0  0  0
  -17.5186   -6.3735   25.2140 C   0  0  0  0  0  0  0  0  0  0  0  0
  -17.3959   -6.7928   26.5343 C   0  0  0  0  0  0  0  0  0  0  0  0
  -16.5405   -6.1939   27.4020 N   0  0  0  0  0  0  0  0  0  0  0  0
  -13.1524   -3.0595   28.4138 C   0  0  0  0  0  0  0  0  0  0  0  0
  -13.1397   -3.3654   29.7182 N   0  0  0  0  0  0  0  0  0  0  0  0
  -14.0204   -4.2874   30.1407 C   0  0  0  0  0  0  0  0  0  0  0  0
  -14.9119   -4.9147   29.3106 C   0  0  0  0  0  0  0  0  0  0  0  0
  -14.8694   -4.5508   27.9783 C   0  0  0  0  0  0  0  0  0  0  0  0
  -13.9887   -3.6214   27.5267 N   0  0  0  0  0  0  0  0  0  0  0  0
  -12.2744   -2.1131   27.8820 N   0  0  0  0  0  0  0  0  0  0  0  0
  -11.3650   -2.5514   27.8116 H   0  0  0  0  0  0  0  0  0  0  0  0
  -13.1716   -1.1902   25.0044 C   0  0  0  0  0  0  0  0  0  0  0  0
  -12.8789   -0.3871   26.2130 C   0  0  0  0  0  0  0  0  0  0  0  0
  -12.9847    0.9483   26.1732 N   0  0  0  0  0  0  0  0  0  0  0  0
  -12.6485    1.3864   27.4432 O   0  0  0  0  0  0  0  0  0  0  0  0
  -12.3474    0.3199   28.2244 C   0  0  0  0  0  0  0  0  0  0  0  0
  -12.4758   -0.8348   27.4976 C   0  0  0  0  0  0  0  0  0  0  0  0
  -18.1881   -7.9117   27.0653 C   0  0  0  0  0  0  0  0  0  0  0  0
  -18.0287   -8.6052   28.2979 C   0  0  0  0  0  0  0  0  0  0  0  0
  -19.0257   -9.5536   28.3188 C   0  0  0  0  0  0  0  0  0  0  0  0
  -19.7310   -9.4567   27.1597 O   0  0  0  0  0  0  0  0  0  0  0  0
  -19.2253   -8.4355   26.3881 N   0  0  0  0  0  0  0  0  0  0  0  0
  -19.4550  -10.6154   29.2656 C   0  0  2  0  0  0  0  0  0  0  0  0
  -20.1005  -11.6390   28.5146 O   0  0  0  0  0  0  0  0  0  0  0  0
  -20.3909  -10.1147   30.3703 C   0  0  0  0  0  0  0  0  0  0  0  0
  -20.1105  -11.0538   31.5300 C   0  0  0  0  0  0  0  0  0  0  0  0
  -18.7146  -11.3745   31.3816 N   0  0  0  0  0  0  0  0  0  0  0  0
  -17.9592  -12.0314   32.4213 C   0  0  0  0  0  0  0  0  0  0  0  0
  -18.2766  -11.1931   30.0752 C   0  0  0  0  0  0  0  0  0  0  0  0
  -17.1793  -11.5066   29.6345 O   0  0  0  0  0  0  0  0  0  0  0  0
  -19.4314  -11.9961   27.9027 H   0  0  0  0  0  0  0  0  0  0  0  0
  -15.2782   -3.8992   25.3509 H   0  0  0  0  0  0  0  0  0  0  0  0
  -16.8120   -4.9768   23.8004 H   0  0  0  0  0  0  0  0  0  0  0  0
  -18.1751   -6.8442   24.5718 H   0  0  0  0  0  0  0  0  0  0  0  0
  -14.0259   -4.5361   31.1423 H   0  0  0  0  0  0  0  0  0  0  0  0
  -15.5785   -5.6202   29.6612 H   0  0  0  0  0  0  0  0  0  0  0  0
  -13.4496   -0.5390   24.2022 H   0  0  0  0  0  0  0  0  0  0  0  0
  -13.9757   -1.8652   25.2108 H   0  0  0  0  0  0  0  0  0  0  0  0
  -12.3010   -1.7468   24.7266 H   0  0  0  0  0  0  0  0  0  0  0  0
  -12.0645    0.3701   29.2156 H   0  0  0  0  0  0  0  0  0  0  0  0
  -17.3154   -8.4330   29.0235 H   0  0  0  0  0  0  0  0  0  0  0  0
  -21.4138  -10.1815   30.0635 H   0  0  0  0  0  0  0  0  0  0  0  0
  -20.2273   -9.0870   30.6191 H   0  0  0  0  0  0  0  0  0  0  0  0
  -20.7136  -11.9350   31.4615 H   0  0  0  0  0  0  0  0  0  0  0  0
  -20.3363  -10.6171   32.4804 H   0  0  0  0  0  0  0  0  0  0  0  0
  -18.5278  -12.0343   33.3277 H   0  0  0  0  0  0  0  0  0  0  0  0
  -17.0395  -11.5078   32.5790 H   0  0  0  0  0  0  0  0  0  0  0  0
  -17.7503  -13.0390   32.1280 H   0  0  0  0  0  0  0  0  0  0  0  0
  1  2  2  0  0  0  0
  2  3  1  0  0  0  0
  2 35  1  0  0  0  0
  3  4  2  0  0  0  0
  3 36  1  0  0  0  0
  4  5  1  0  0  0  0
  4 37  1  0  0  0  0
  5 21  1  0  0  0  0
  5  6  2  0  0  0  0
  6  1  1  0  0  0  0
  7  8  2  0  0  0  0
  8  9  1  0  0  0  0
  9 10  2  0  0  0  0
  9 38  1  0  0  0  0
 10 11  1  0  0  0  0
 10 39  1  0  0  0  0
 11  1  1  0  0  0  0
 11 12  2  0  0  0  0
 12  7  1  0  0  0  0
 13  7  1  0  0  0  0
 13 14  1  0  0  0  0
 15 16  1  0  0  0  0
 15 40  1  0  0  0  0
 15 41  1  0  0  0  0
 15 42  1  0  0  0  0
 16 17  2  0  0  0  0
 17 18  1  0  0  0  0
 18 19  1  0  0  0  0
 19 20  2  0  0  0  0
 19 43  1  0  0  0  0
 20 13  1  0  0  0  0
 20 16  1  0  0  0  0
 21 22  1  0  0  0  0
 22 23  2  0  0  0  0
 22 44  1  0  0  0  0
 23 26  1  0  0  0  0
 23 24  1  0  0  0  0
 24 25  1  0  0  0  0
 25 21  2  0  0  0  0
 26 27  1  6  0  0  0
 26 28  1  0  0  0  0
 27 34  1  0  0  0  0
 28 29  1  0  0  0  0
 28 45  1  0  0  0  0
 28 46  1  0  0  0  0
 29 30  1  0  0  0  0
 29 47  1  0  0  0  0
 29 48  1  0  0  0  0
 30 31  1  0  0  0  0
 30 32  1  0  0  0  0
 31 49  1  0  0  0  0
 31 50  1  0  0  0  0
 31 51  1  0  0  0  0
 32 33  2  0  0  0  0
 32 26  1  0  0  0  0
M  END
>  <minimizedAffinity>
-10.30250

$$$$
