L2:O95819:35616
     RDKit          3D

 51 55  0  0  0  0  0  0  0  0999 V2000
   -8.9783    0.4821   -1.5486 C   0  0  0  0  0  0  0  0  0  0  0  0
   -8.7737    0.2968   -0.0943 C   0  0  0  0  0  0  0  0  0  0  0  0
   -9.8276    0.2656    0.7330 N   0  0  0  0  0  0  0  0  0  0  0  0
   -9.3006    0.0820    2.0005 O   0  0  0  0  0  0  0  0  0  0  0  0
   -7.9492    0.0056    1.9215 C   0  0  0  0  0  0  0  0  0  0  0  0
   -7.5557    0.1356    0.6153 C   0  0  0  0  0  0  0  0  0  0  0  0
   -6.3113    0.1188    0.0922 N   0  0  0  0  0  0  0  0  0  0  0  0
   -5.0635   -0.0321    0.7002 C   0  0  0  0  0  0  0  0  0  0  0  0
   -4.9499   -0.1964    2.0251 N   0  0  0  0  0  0  0  0  0  0  0  0
   -3.7097   -0.3338    2.5222 C   0  0  0  0  0  0  0  0  0  0  0  0
   -2.5801   -0.3130    1.7470 C   0  0  0  0  0  0  0  0  0  0  0  0
   -2.7714   -0.1398    0.3895 C   0  0  0  0  0  0  0  0  0  0  0  0
   -1.6349   -0.0985   -0.5606 C   0  0  0  0  0  0  0  0  0  0  0  0
   -1.8071    0.0735   -1.9329 C   0  0  0  0  0  0  0  0  0  0  0  0
   -0.6909    0.1027   -2.7636 C   0  0  0  0  0  0  0  0  0  0  0  0
    0.5773   -0.0406   -2.2101 C   0  0  0  0  0  0  0  0  0  0  0  0
    0.6915   -0.2101   -0.8345 C   0  0  0  0  0  0  0  0  0  0  0  0
    1.9997   -0.3681   -0.1825 C   0  0  0  0  0  0  0  0  0  0  0  0
    3.2875   -0.4420   -0.7840 C   0  0  0  0  0  0  0  0  0  0  0  0
    4.1744   -0.5783    0.2595 C   0  0  0  0  0  0  0  0  0  0  0  0
    5.6486   -0.7185    0.3824 C   0  0  2  0  0  0  0  0  0  0  0  0
    5.9513   -2.1067    0.4806 O   0  0  0  0  0  0  0  0  0  0  0  0
    6.2408    0.0272    1.5825 C   0  0  0  0  0  0  0  0  0  0  0  0
    7.6503    0.3680    1.1323 C   0  0  0  0  0  0  0  0  0  0  0  0
    7.5171    0.5709   -0.2870 N   0  0  0  0  0  0  0  0  0  0  0  0
    8.5614    1.1718   -1.0818 C   0  0  0  0  0  0  0  0  0  0  0  0
    6.4011   -0.0782   -0.8015 C   0  0  0  0  0  0  0  0  0  0  0  0
    6.1130   -0.1840   -1.9857 O   0  0  0  0  0  0  0  0  0  0  0  0
    3.4659   -0.6091    1.4202 O   0  0  0  0  0  0  0  0  0  0  0  0
    2.1234   -0.4666    1.1531 N   0  0  0  0  0  0  0  0  0  0  0  0
   -0.3953   -0.2386   -0.0212 N   0  0  0  0  0  0  0  0  0  0  0  0
   -4.0149    0.0011   -0.1372 N   0  0  0  0  0  0  0  0  0  0  0  0
   -8.4665    1.3862   -1.8936 H   0  0  0  0  0  0  0  0  0  0  0  0
   -8.5777   -0.3732   -2.1021 H   0  0  0  0  0  0  0  0  0  0  0  0
  -10.0396    0.5790   -1.7998 H   0  0  0  0  0  0  0  0  0  0  0  0
   -7.4358   -0.1382    2.8598 H   0  0  0  0  0  0  0  0  0  0  0  0
   -6.1517    0.2264   -0.9013 H   0  0  0  0  0  0  0  0  0  0  0  0
   -3.6491   -0.4654    3.5984 H   0  0  0  0  0  0  0  0  0  0  0  0
   -1.5949   -0.4268    2.1832 H   0  0  0  0  0  0  0  0  0  0  0  0
   -2.8002    0.1850   -2.3577 H   0  0  0  0  0  0  0  0  0  0  0  0
   -0.8111    0.2373   -3.8353 H   0  0  0  0  0  0  0  0  0  0  0  0
    1.4451   -0.0146   -2.8594 H   0  0  0  0  0  0  0  0  0  0  0  0
    3.5387   -0.3985   -1.8337 H   0  0  0  0  0  0  0  0  0  0  0  0
    5.6514   -2.5142   -0.3523 H   0  0  0  0  0  0  0  0  0  0  0  0
    5.6940    0.9598    1.7753 H   0  0  0  0  0  0  0  0  0  0  0  0
    6.2487   -0.5639    2.5041 H   0  0  0  0  0  0  0  0  0  0  0  0
    8.0291    1.2725    1.6166 H   0  0  0  0  0  0  0  0  0  0  0  0
    8.3442   -0.4623    1.3010 H   0  0  0  0  0  0  0  0  0  0  0  0
    8.7797    2.1674   -0.6869 H   0  0  0  0  0  0  0  0  0  0  0  0
    8.2515    1.2511   -2.1270 H   0  0  0  0  0  0  0  0  0  0  0  0
    9.4551    0.5451   -1.0182 H   0  0  0  0  0  0  0  0  0  0  0  0
  1  2  1  0
  2  3  2  0
  3  4  1  0
  4  5  1  0
  5  6  2  0
  6  7  1  0
  7  8  1  0
  8  9  2  0
  9 10  1  0
 10 11  2  0
 11 12  1  0
 12 13  1  0
 13 14  2  0
 14 15  1  0
 15 16  2  0
 16 17  1  0
 17 18  1  0
 18 19  1  0
 19 20  2  0
 20 21  1  0
 21 22  1  1
 21 23  1  0
 23 24  1  0
 24 25  1  0
 25 26  1  0
 25 27  1  0
 27 28  2  0
 20 29  1  0
 29 30  1  0
 17 31  2  0
 12 32  2  0
  6  2  1  0
 32  8  1  0
 31 13  1  0
 30 18  2  0
 27 21  1  0
  1 33  1  0
  1 34  1  0
  1 35  1  0
  5 36  1  0
  7 37  1  0
 10 38  1  0
 11 39  1  0
 14 40  1  0
 15 41  1  0
 16 42  1  0
 19 43  1  0
 22 44  1  0
 23 45  1  0
 23 46  1  0
 24 47  1  0
 24 48  1  0
 26 49  1  0
 26 50  1  0
 26 51  1  0
M  END
>  <mol_id>  (1) 
35616

>  <source_index>  (1) 
3

>  <layer>  (1) 
L2

>  <uniprot>  (1) 
O95819

>  <paff>  (1) 
7.3010000000000002

>  <smiles>  (1) 
Cc1nocc1Nc1nccc(-c2cccc(-c3cc([C@]4(O)CCN(C)C4=O)on3)n2)n1

$$$$
