L2:O95819:48976
 OpenBabel09212617503D

 57 60  0  0  0  0  0  0  0  0999 V2000
  -18.5473   -8.1692   27.4611 C   0  0  0  0  0  0  0  0  0  0  0  0
  -17.7369   -7.0998   27.8335 C   0  0  0  0  0  0  0  0  0  0  0  0
  -16.9726   -6.4367   26.8616 C   0  0  0  0  0  0  0  0  0  0  0  0
  -16.1379   -5.3488   27.1815 C   0  0  0  0  0  0  0  0  0  0  0  0
  -15.3809   -4.6927   26.1945 C   0  0  0  0  0  0  0  0  0  0  0  0
  -15.4748   -5.1552   24.8761 C   0  0  0  0  0  0  0  0  0  0  0  0
  -14.7685   -4.5604   23.9031 F   0  0  0  0  0  0  0  0  0  0  0  0
  -16.2926   -6.2291   24.5361 C   0  0  0  0  0  0  0  0  0  0  0  0
  -17.0462   -6.8749   25.5274 C   0  0  0  0  0  0  0  0  0  0  0  0
  -17.8853   -7.9537   25.2582 C   0  0  0  0  0  0  0  0  0  0  0  0
  -18.6239   -8.5957   26.1908 N   0  0  0  0  0  0  0  0  0  0  0  0
  -14.5116   -3.5634   26.5485 C   0  0  0  0  0  0  0  0  0  0  0  0
  -13.6788   -3.6739   27.6668 C   0  0  0  0  0  0  0  0  0  0  0  0
  -12.8421   -2.7153   28.1116 N   0  0  0  0  0  0  0  0  0  0  0  0
  -12.8033   -1.5797   27.3897 C   0  0  0  0  0  0  0  0  0  0  0  0
  -13.5499   -1.3519   26.2098 C   0  0  0  0  0  0  0  0  0  0  0  0
  -14.4650   -2.3530   25.8176 C   0  0  0  0  0  0  0  0  0  0  0  0
  -15.3387   -2.1469   24.6045 C   0  0  0  0  0  0  0  0  0  0  0  0
  -13.4424   -0.1479   25.5034 N   0  0  0  0  0  0  0  0  0  0  0  0
  -12.3661    0.7319   25.9240 C   0  0  0  0  0  0  0  0  0  0  0  0
  -12.2320    0.6799   27.4436 C   0  0  0  0  0  0  0  0  0  0  0  0
  -11.9245   -0.6439   27.8923 O   0  0  0  0  0  0  0  0  0  0  0  0
  -13.7756   -0.0934   24.5505 H   0  0  0  0  0  0  0  0  0  0  0  0
  -19.0150   -9.9991   29.0374 C   0  0  0  0  0  0  0  0  0  0  0  0
  -18.1053  -10.7764   28.8004 O   0  0  0  0  0  0  0  0  0  0  0  0
  -19.2856   -8.7926   28.4661 N   0  0  0  0  0  0  0  0  0  0  0  0
  -20.1079   -8.3376   28.8261 H   0  0  0  0  0  0  0  0  0  0  0  0
  -19.9779  -10.2286   29.9761 O   0  0  0  0  0  0  0  0  0  0  0  0
  -19.8711  -11.4741   30.6882 C   0  0  0  0  0  0  0  0  0  0  0  0
  -19.0673  -11.2706   31.9670 C   0  0  0  0  0  0  0  0  0  0  0  0
  -17.9421  -12.2953   32.1509 C   0  0  2  0  0  0  0  0  0  0  0  0
  -17.7936  -12.7199   33.6108 C   0  0  0  0  0  0  0  0  0  0  0  0
  -15.8798  -12.5178   30.9600 C   0  0  0  0  0  0  0  0  0  0  0  0
  -16.7390  -11.6590   31.6974 O   0  0  0  0  0  0  0  0  0  0  0  0
  -17.6987   -6.7966   28.8192 H   0  0  0  0  0  0  0  0  0  0  0  0
  -16.0805   -5.0264   28.1602 H   0  0  0  0  0  0  0  0  0  0  0  0
  -16.3444   -6.5496   23.5565 H   0  0  0  0  0  0  0  0  0  0  0  0
  -17.9472   -8.2846   24.2826 H   0  0  0  0  0  0  0  0  0  0  0  0
  -13.7072   -4.5608   28.1938 H   0  0  0  0  0  0  0  0  0  0  0  0
  -15.1574   -1.1750   24.1953 H   0  0  0  0  0  0  0  0  0  0  0  0
  -16.3673   -2.2284   24.8878 H   0  0  0  0  0  0  0  0  0  0  0  0
  -15.1109   -2.8912   23.8703 H   0  0  0  0  0  0  0  0  0  0  0  0
  -12.5846    1.7340   25.6192 H   0  0  0  0  0  0  0  0  0  0  0  0
  -11.4489    0.4145   25.4736 H   0  0  0  0  0  0  0  0  0  0  0  0
  -13.1547    0.9926   27.8861 H   0  0  0  0  0  0  0  0  0  0  0  0
  -11.4336    1.3299   27.7352 H   0  0  0  0  0  0  0  0  0  0  0  0
  -20.8505  -11.8264   30.9365 H   0  0  0  0  0  0  0  0  0  0  0  0
  -19.3753  -12.1930   30.0700 H   0  0  0  0  0  0  0  0  0  0  0  0
  -18.6342  -10.2925   31.9429 H   0  0  0  0  0  0  0  0  0  0  0  0
  -19.7434  -11.3946   32.7870 H   0  0  0  0  0  0  0  0  0  0  0  0
  -18.1574  -13.1849   31.5967 H   0  0  0  0  0  0  0  0  0  0  0  0
  -17.5763  -11.8615   34.2115 H   0  0  0  0  0  0  0  0  0  0  0  0
  -16.9953  -13.4271   33.6971 H   0  0  0  0  0  0  0  0  0  0  0  0
  -18.7053  -13.1685   33.9463 H   0  0  0  0  0  0  0  0  0  0  0  0
  -15.0083  -11.9759   30.6570 H   0  0  0  0  0  0  0  0  0  0  0  0
  -16.3942  -12.8791   30.0941 H   0  0  0  0  0  0  0  0  0  0  0  0
  -15.5900  -13.3450   31.5737 H   0  0  0  0  0  0  0  0  0  0  0  0
  1  2  2  0  0  0  0
  2  3  1  0  0  0  0
  2 35  1  0  0  0  0
  3  4  2  0  0  0  0
  4  5  1  0  0  0  0
  4 36  1  0  0  0  0
  5 12  1  0  0  0  0
  5  6  2  0  0  0  0
  6  7  1  0  0  0  0
  6  8  1  0  0  0  0
  8  9  2  0  0  0  0
  8 37  1  0  0  0  0
  9 10  1  0  0  0  0
  9  3  1  0  0  0  0
 10 11  2  0  0  0  0
 10 38  1  0  0  0  0
 11  1  1  0  0  0  0
 12 13  2  0  0  0  0
 13 14  1  0  0  0  0
 13 39  1  0  0  0  0
 14 15  2  0  0  0  0
 15 16  1  0  0  0  0
 16 17  2  0  0  0  0
 16 19  1  0  0  0  0
 17 18  1  0  0  0  0
 17 12  1  0  0  0  0
 18 40  1  0  0  0  0
 18 41  1  0  0  0  0
 18 42  1  0  0  0  0
 19 20  1  0  0  0  0
 19 23  1  0  0  0  0
 20 21  1  0  0  0  0
 20 43  1  0  0  0  0
 20 44  1  0  0  0  0
 21 22  1  0  0  0  0
 21 45  1  0  0  0  0
 21 46  1  0  0  0  0
 22 15  1  0  0  0  0
 24 25  2  0  0  0  0
 24 26  1  0  0  0  0
 26  1  1  0  0  0  0
 26 27  1  0  0  0  0
 28 24  1  0  0  0  0
 29 28  1  0  0  0  0
 29 47  1  0  0  0  0
 29 48  1  0  0  0  0
 30 29  1  0  0  0  0
 30 49  1  0  0  0  0
 30 50  1  0  0  0  0
 31 32  1  0  0  0  0
 31 30  1  0  0  0  0
 31 51  1  6  0  0  0
 32 52  1  0  0  0  0
 32 53  1  0  0  0  0
 32 54  1  0  0  0  0
 33 34  1  0  0  0  0
 33 55  1  0  0  0  0
 33 56  1  0  0  0  0
 33 57  1  0  0  0  0
 34 31  1  0  0  0  0
M  END
>  <minimizedAffinity>
-10.16245

$$$$
