L2:O95819:48976
     RDKit          3D

 57 60  0  0  0  0  0  0  0  0999 V2000
   -9.8056    2.2238   -1.2058 C   0  0  0  0  0  0  0  0  0  0  0  0
   -8.4408    1.8279   -1.2045 O   0  0  0  0  0  0  0  0  0  0  0  0
   -8.1173    0.8710   -0.1859 C   0  0  1  0  0  0  0  0  0  0  0  0
   -8.5753   -0.5232   -0.6104 C   0  0  0  0  0  0  0  0  0  0  0  0
   -6.5975    0.9389    0.0023 C   0  0  0  0  0  0  0  0  0  0  0  0
   -6.1011    0.1671    1.2192 C   0  0  0  0  0  0  0  0  0  0  0  0
   -4.6812    0.3470    1.3646 O   0  0  0  0  0  0  0  0  0  0  0  0
   -3.8994   -0.5411    0.6855 C   0  0  0  0  0  0  0  0  0  0  0  0
   -4.3460   -1.4455   -0.0005 O   0  0  0  0  0  0  0  0  0  0  0  0
   -2.6016   -0.2076    0.9296 N   0  0  0  0  0  0  0  0  0  0  0  0
   -1.4730   -0.8597    0.4348 C   0  0  0  0  0  0  0  0  0  0  0  0
   -0.2295   -0.3473    0.7955 C   0  0  0  0  0  0  0  0  0  0  0  0
    0.9390   -0.9654    0.3253 C   0  0  0  0  0  0  0  0  0  0  0  0
    2.2218   -0.4888    0.6567 C   0  0  0  0  0  0  0  0  0  0  0  0
    3.3831   -1.1181    0.1739 C   0  0  0  0  0  0  0  0  0  0  0  0
    4.7125   -0.6097    0.5352 C   0  0  0  0  0  0  0  0  0  0  0  0
    5.2002   -0.8442    1.8249 C   0  0  0  0  0  0  0  0  0  0  0  0
    6.3932   -0.4269    2.2935 N   0  0  0  0  0  0  0  0  0  0  0  0
    7.1706    0.2446    1.4235 C   0  0  0  0  0  0  0  0  0  0  0  0
    6.8275    0.5068    0.0763 C   0  0  0  0  0  0  0  0  0  0  0  0
    5.5415    0.1139   -0.3541 C   0  0  0  0  0  0  0  0  0  0  0  0
    5.0874    0.4198   -1.7603 C   0  0  0  0  0  0  0  0  0  0  0  0
    7.6989    1.1986   -0.7736 N   0  0  0  0  0  0  0  0  0  0  0  0
    9.0387    1.4152   -0.2566 C   0  0  0  0  0  0  0  0  0  0  0  0
    8.9634    1.7231    1.2365 C   0  0  0  0  0  0  0  0  0  0  0  0
    8.3779    0.6368    1.9614 O   0  0  0  0  0  0  0  0  0  0  0  0
    3.2307   -2.2423   -0.6469 C   0  0  0  0  0  0  0  0  0  0  0  0
    4.3114   -2.8749   -1.1279 F   0  0  0  0  0  0  0  0  0  0  0  0
    1.9730   -2.7320   -0.9875 C   0  0  0  0  0  0  0  0  0  0  0  0
    0.8206   -2.0954   -0.5034 C   0  0  0  0  0  0  0  0  0  0  0  0
   -0.4680   -2.5302   -0.8049 C   0  0  0  0  0  0  0  0  0  0  0  0
   -1.5967   -1.9380   -0.3547 N   0  0  0  0  0  0  0  0  0  0  0  0
  -10.4581    1.3890   -1.4730 H   0  0  0  0  0  0  0  0  0  0  0  0
   -9.9312    3.0081   -1.9574 H   0  0  0  0  0  0  0  0  0  0  0  0
  -10.0907    2.6312   -0.2311 H   0  0  0  0  0  0  0  0  0  0  0  0
   -8.6068    1.1604    0.7523 H   0  0  0  0  0  0  0  0  0  0  0  0
   -9.6606   -0.5590   -0.7450 H   0  0  0  0  0  0  0  0  0  0  0  0
   -8.1306   -0.8027   -1.5718 H   0  0  0  0  0  0  0  0  0  0  0  0
   -8.3136   -1.2822    0.1316 H   0  0  0  0  0  0  0  0  0  0  0  0
   -6.2874    1.9885    0.0979 H   0  0  0  0  0  0  0  0  0  0  0  0
   -6.0888    0.5902   -0.9058 H   0  0  0  0  0  0  0  0  0  0  0  0
   -6.3557   -0.8972    1.1799 H   0  0  0  0  0  0  0  0  0  0  0  0
   -6.5620    0.5690    2.1280 H   0  0  0  0  0  0  0  0  0  0  0  0
   -2.4839    0.5948    1.5255 H   0  0  0  0  0  0  0  0  0  0  0  0
   -0.1612    0.5263    1.4360 H   0  0  0  0  0  0  0  0  0  0  0  0
    2.3226    0.3893    1.2945 H   0  0  0  0  0  0  0  0  0  0  0  0
    4.6112   -1.4017    2.5505 H   0  0  0  0  0  0  0  0  0  0  0  0
    3.9984    0.4046   -1.8611 H   0  0  0  0  0  0  0  0  0  0  0  0
    5.5130   -0.3096   -2.4565 H   0  0  0  0  0  0  0  0  0  0  0  0
    5.3933    1.4274   -2.0610 H   0  0  0  0  0  0  0  0  0  0  0  0
    7.5603    1.1599   -1.7743 H   0  0  0  0  0  0  0  0  0  0  0  0
    9.5109    2.2426   -0.7952 H   0  0  0  0  0  0  0  0  0  0  0  0
    9.6353    0.5110   -0.4258 H   0  0  0  0  0  0  0  0  0  0  0  0
    9.9726    1.8759    1.6329 H   0  0  0  0  0  0  0  0  0  0  0  0
    8.3898    2.6381    1.4336 H   0  0  0  0  0  0  0  0  0  0  0  0
    1.9070   -3.6070   -1.6280 H   0  0  0  0  0  0  0  0  0  0  0  0
   -0.6422   -3.3963   -1.4386 H   0  0  0  0  0  0  0  0  0  0  0  0
  1  2  1  0
  2  3  1  0
  3  4  1  0
  3  5  1  0
  5  6  1  0
  6  7  1  0
  7  8  1  0
  8  9  2  0
  8 10  1  0
 10 11  1  0
 11 12  2  0
 12 13  1  0
 13 14  2  0
 14 15  1  0
 15 16  1  0
 16 17  2  0
 17 18  1  0
 18 19  2  0
 19 20  1  0
 20 21  2  0
 21 22  1  0
 20 23  1  0
 23 24  1  0
 24 25  1  0
 25 26  1  0
 15 27  2  0
 27 28  1  0
 27 29  1  0
 29 30  2  0
 30 31  1  0
 31 32  2  0
 32 11  1  0
 30 13  1  0
 21 16  1  0
 26 19  1  0
  1 33  1  0
  1 34  1  0
  1 35  1  0
  3 36  1  1
  4 37  1  0
  4 38  1  0
  4 39  1  0
  5 40  1  0
  5 41  1  0
  6 42  1  0
  6 43  1  0
 10 44  1  0
 12 45  1  0
 14 46  1  0
 17 47  1  0
 22 48  1  0
 22 49  1  0
 22 50  1  0
 23 51  1  0
 24 52  1  0
 24 53  1  0
 25 54  1  0
 25 55  1  0
 29 56  1  0
 31 57  1  0
M  END
>  <mol_id>  (1) 
48976

>  <source_index>  (1) 
4

>  <layer>  (1) 
L2

>  <uniprot>  (1) 
O95819

>  <paff>  (1) 
8.8239000000000001

>  <smiles>  (1) 
COC(C)CCOC(=O)Nc1cc2cc(-c3cnc4c(c3C)NCCO4)c(F)cc2cn1

$$$$
