L2:O95819:51207
 OpenBabel09212617503D

 52 56  0  0  0  0  0  0  0  0999 V2000
  -15.3834   -4.7184   26.2036 C   0  0  0  0  0  0  0  0  0  0  0  0
  -16.1627   -5.3657   27.1790 C   0  0  0  0  0  0  0  0  0  0  0  0
  -16.9918   -6.4552   26.8497 C   0  0  0  0  0  0  0  0  0  0  0  0
  -17.7783   -7.1102   27.8099 C   0  0  0  0  0  0  0  0  0  0  0  0
  -18.5840   -8.1810   27.4294 C   0  0  0  0  0  0  0  0  0  0  0  0
  -18.6292   -8.6170   26.1611 N   0  0  0  0  0  0  0  0  0  0  0  0
  -17.8705   -7.9838   25.2394 C   0  0  0  0  0  0  0  0  0  0  0  0
  -17.0365   -6.9038   25.5178 C   0  0  0  0  0  0  0  0  0  0  0  0
  -16.2605   -6.2669   24.5381 C   0  0  0  0  0  0  0  0  0  0  0  0
  -15.4489   -5.1914   24.8873 C   0  0  0  0  0  0  0  0  0  0  0  0
  -14.7204   -4.6052   23.9253 F   0  0  0  0  0  0  0  0  0  0  0  0
  -15.3595   -2.1558   24.6403 C   0  0  0  0  0  0  0  0  0  0  0  0
  -14.4826   -2.3689   25.8497 C   0  0  0  0  0  0  0  0  0  0  0  0
  -14.5205   -3.5872   26.5681 C   0  0  0  0  0  0  0  0  0  0  0  0
  -13.6856   -3.7039   27.6841 C   0  0  0  0  0  0  0  0  0  0  0  0
  -12.8550   -2.7444   28.1382 N   0  0  0  0  0  0  0  0  0  0  0  0
  -12.8241   -1.6013   27.4279 C   0  0  0  0  0  0  0  0  0  0  0  0
  -13.5732   -1.3664   26.2510 C   0  0  0  0  0  0  0  0  0  0  0  0
  -13.4737   -0.1546   25.5566 N   0  0  0  0  0  0  0  0  0  0  0  0
  -12.4016    0.7269   25.9844 C   0  0  0  0  0  0  0  0  0  0  0  0
  -12.2656    0.6611   27.5033 C   0  0  0  0  0  0  0  0  0  0  0  0
  -11.9505   -0.6652   27.9393 O   0  0  0  0  0  0  0  0  0  0  0  0
  -13.8069   -0.0937   24.6040 H   0  0  0  0  0  0  0  0  0  0  0  0
  -19.3422   -8.7995   28.4322 N   0  0  0  0  0  0  0  0  0  0  0  0
  -18.9912   -9.9390   29.1171 C   0  0  0  0  0  0  0  0  0  0  0  0
  -18.0101  -10.6467   28.9357 O   0  0  0  0  0  0  0  0  0  0  0  0
  -19.9277  -10.2378   30.0881 N   0  0  0  0  0  0  0  0  0  0  0  0
  -20.2384   -8.4005   28.6451 H   0  0  0  0  0  0  0  0  0  0  0  0
  -20.6272   -9.5604   30.3407 H   0  0  0  0  0  0  0  0  0  0  0  0
  -19.7704  -11.4043   30.9226 C   0  0  0  0  0  0  0  0  0  0  0  0
  -19.0369  -11.0245   32.1682 C   0  0  0  0  0  0  0  0  0  0  0  0
  -18.7448  -12.0503   33.2348 C   0  0  0  0  0  0  0  0  0  0  0  0
  -19.7586  -10.9688   33.4900 C   0  0  0  0  0  0  0  0  0  0  0  0
  -16.1262   -5.0355   28.1561 H   0  0  0  0  0  0  0  0  0  0  0  0
  -17.7598   -6.7998   28.7939 H   0  0  0  0  0  0  0  0  0  0  0  0
  -17.9118   -8.3227   24.2655 H   0  0  0  0  0  0  0  0  0  0  0  0
  -16.2913   -6.5952   23.5602 H   0  0  0  0  0  0  0  0  0  0  0  0
  -15.9779   -3.0163   24.4921 H   0  0  0  0  0  0  0  0  0  0  0  0
  -14.7458   -2.0046   23.7769 H   0  0  0  0  0  0  0  0  0  0  0  0
  -15.9766   -1.2954   24.7943 H   0  0  0  0  0  0  0  0  0  0  0  0
  -13.7072   -4.5965   28.2015 H   0  0  0  0  0  0  0  0  0  0  0  0
  -12.6258    1.7307   25.6894 H   0  0  0  0  0  0  0  0  0  0  0  0
  -11.4832    0.4187   25.5300 H   0  0  0  0  0  0  0  0  0  0  0  0
  -13.1895    0.9646   27.9496 H   0  0  0  0  0  0  0  0  0  0  0  0
  -11.4703    1.3125   27.8001 H   0  0  0  0  0  0  0  0  0  0  0  0
  -19.2145  -12.1500   30.3936 H   0  0  0  0  0  0  0  0  0  0  0  0
  -20.7332  -11.7949   31.1783 H   0  0  0  0  0  0  0  0  0  0  0  0
  -18.4454  -10.3407   31.5960 H   0  0  0  0  0  0  0  0  0  0  0  0
  -17.8062  -12.0356   33.7484 H   0  0  0  0  0  0  0  0  0  0  0  0
  -18.7520  -13.1194   33.2783 H   0  0  0  0  0  0  0  0  0  0  0  0
  -19.5410  -10.1852   34.1854 H   0  0  0  0  0  0  0  0  0  0  0  0
  -20.7854  -10.9509   33.7904 H   0  0  0  0  0  0  0  0  0  0  0  0
  1  2  2  0  0  0  0
  2  3  1  0  0  0  0
  2 34  1  0  0  0  0
  3  4  2  0  0  0  0
  4  5  1  0  0  0  0
  4 35  1  0  0  0  0
  5 24  1  0  0  0  0
  5  6  2  0  0  0  0
  6  7  1  0  0  0  0
  7  8  2  0  0  0  0
  7 36  1  0  0  0  0
  8  9  1  0  0  0  0
  8  3  1  0  0  0  0
  9 10  2  0  0  0  0
  9 37  1  0  0  0  0
 10 11  1  0  0  0  0
 10  1  1  0  0  0  0
 12 13  1  0  0  0  0
 12 38  1  0  0  0  0
 12 39  1  0  0  0  0
 12 40  1  0  0  0  0
 13 14  2  0  0  0  0
 14  1  1  0  0  0  0
 14 15  1  0  0  0  0
 15 16  2  0  0  0  0
 15 41  1  0  0  0  0
 16 17  1  0  0  0  0
 17 18  2  0  0  0  0
 18 19  1  0  0  0  0
 18 13  1  0  0  0  0
 19 20  1  0  0  0  0
 19 23  1  0  0  0  0
 20 21  1  0  0  0  0
 20 42  1  0  0  0  0
 20 43  1  0  0  0  0
 21 22  1  0  0  0  0
 21 44  1  0  0  0  0
 21 45  1  0  0  0  0
 22 17  1  0  0  0  0
 24 25  1  0  0  0  0
 24 28  1  0  0  0  0
 25 26  2  0  0  0  0
 25 27  1  0  0  0  0
 27 30  1  0  0  0  0
 27 29  1  0  0  0  0
 30 31  1  0  0  0  0
 30 46  1  0  0  0  0
 30 47  1  0  0  0  0
 31 32  1  0  0  0  0
 31 48  1  0  0  0  0
 32 33  1  0  0  0  0
 32 49  1  0  0  0  0
 32 50  1  0  0  0  0
 33 31  1  0  0  0  0
 33 51  1  0  0  0  0
 33 52  1  0  0  0  0
M  END
>  <minimizedAffinity>
-10.96801

$$$$
