L2:O95819:51207


 33 37  0  0  0  0  0  0  0  0999 V2000
  -15.3834   -4.7184   26.2036 C   0  0  0  0  0  0  0  0  0  0  0  0
  -16.1627   -5.3657   27.1790 C   0  0  0  0  0  0  0  0  0  0  0  0
  -16.9918   -6.4552   26.8497 C   0  0  0  0  0  0  0  0  0  0  0  0
  -17.7783   -7.1102   27.8099 C   0  0  0  0  0  0  0  0  0  0  0  0
  -18.5840   -8.1810   27.4294 C   0  0  0  0  0  0  0  0  0  0  0  0
  -18.6292   -8.6170   26.1611 N   0  0  0  0  0  0  0  0  0  0  0  0
  -17.8705   -7.9838   25.2394 C   0  0  0  0  0  0  0  0  0  0  0  0
  -17.0365   -6.9038   25.5178 C   0  0  0  0  0  0  0  0  0  0  0  0
  -16.2605   -6.2669   24.5381 C   0  0  0  0  0  0  0  0  0  0  0  0
  -15.4489   -5.1914   24.8873 C   0  0  0  0  0  0  0  0  0  0  0  0
  -14.7204   -4.6052   23.9253 F   0  0  0  0  0  0  0  0  0  0  0  0
  -15.3595   -2.1558   24.6403 C   0  0  0  0  0  0  0  0  0  0  0  0
  -14.4826   -2.3689   25.8497 C   0  0  0  0  0  0  0  0  0  0  0  0
  -14.5205   -3.5872   26.5681 C   0  0  0  0  0  0  0  0  0  0  0  0
  -13.6856   -3.7039   27.6841 C   0  0  0  0  0  0  0  0  0  0  0  0
  -12.8550   -2.7444   28.1382 N   0  0  0  0  0  0  0  0  0  0  0  0
  -12.8241   -1.6013   27.4279 C   0  0  0  0  0  0  0  0  0  0  0  0
  -13.5732   -1.3664   26.2510 C   0  0  0  0  0  0  0  0  0  0  0  0
  -13.4737   -0.1546   25.5566 N   0  0  0  0  0  0  0  0  0  0  0  0
  -12.4016    0.7269   25.9844 C   0  0  0  0  0  0  0  0  0  0  0  0
  -12.2656    0.6611   27.5033 C   0  0  0  0  0  0  0  0  0  0  0  0
  -11.9505   -0.6652   27.9393 O   0  0  0  0  0  0  0  0  0  0  0  0
  -13.8069   -0.0937   24.6040 H   0  0  0  0  0  0  0  0  0  0  0  0
  -19.3422   -8.7995   28.4322 N   0  0  0  0  0  0  0  0  0  0  0  0
  -18.9912   -9.9390   29.1171 C   0  0  0  0  0  0  0  0  0  0  0  0
  -18.0101  -10.6467   28.9357 O   0  0  0  0  0  0  0  0  0  0  0  0
  -19.9277  -10.2378   30.0881 N   0  0  0  0  0  0  0  0  0  0  0  0
  -20.2384   -8.4005   28.6451 H   0  0  0  0  0  0  0  0  0  0  0  0
  -20.6272   -9.5604   30.3407 H   0  0  0  0  0  0  0  0  0  0  0  0
  -19.7704  -11.4043   30.9226 C   0  0  0  0  0  0  0  0  0  0  0  0
  -19.0369  -11.0245   32.1682 C   0  0  0  0  0  0  0  0  0  0  0  0
  -18.7448  -12.0503   33.2348 C   0  0  0  0  0  0  0  0  0  0  0  0
  -19.7586  -10.9688   33.4900 C   0  0  0  0  0  0  0  0  0  0  0  0
 12 13  1  0  0  0
 13 14  2  0  0  0
 14  1  1  0  0  0
  1  2  2  0  0  0
  2  3  1  0  0  0
  3  4  2  0  0  0
  4  5  1  0  0  0
  5 24  1  0  0  0
 24 25  1  0  0  0
 25 26  2  0  0  0
 25 27  1  0  0  0
 27 30  1  0  0  0
 30 31  1  0  0  0
 31 32  1  0  0  0
 32 33  1  0  0  0
  5  6  2  0  0  0
  6  7  1  0  0  0
  7  8  2  0  0  0
  8  9  1  0  0  0
  9 10  2  0  0  0
 10 11  1  0  0  0
 14 15  1  0  0  0
 15 16  2  0  0  0
 16 17  1  0  0  0
 17 18  2  0  0  0
 18 19  1  0  0  0
 19 20  1  0  0  0
 20 21  1  0  0  0
 21 22  1  0  0  0
 18 13  1  0  0  0
 10  1  1  0  0  0
 22 17  1  0  0  0
  8  3  1  0  0  0
 33 31  1  0  0  0
 24 28  1  0  0  0
 27 29  1  0  0  0
 19 23  1  0  0  0
M  END
> <minimizedAffinity>
-10.96801

$$$$
