L2:O95819:84031


 31 33  0  0  0  0  0  0  0  0999 V2000
  -13.4493   -1.9604   25.6430 C   0  0  0  0  0  0  0  0  0  0  0  0
  -13.9115   -2.1140   24.3785 N   0  0  0  0  0  0  0  0  0  0  0  0
  -14.9048   -3.0135   24.1580 C   0  0  0  0  0  0  0  0  0  0  0  0
  -15.4827   -3.8163   25.1319 C   0  0  0  0  0  0  0  0  0  0  0  0
  -14.9563   -3.6788   26.4148 C   0  0  0  0  0  0  0  0  0  0  0  0
  -13.9148   -2.7707   26.6801 C   0  0  0  0  0  0  0  0  0  0  0  0
  -13.3477   -2.8271   28.0473 C   0  0  0  0  0  0  0  0  0  0  0  0
  -12.0530   -3.2339   28.1854 N   0  0  0  0  0  0  0  0  0  0  0  0
  -14.0408   -2.5839   29.0283 O   0  0  0  0  0  0  0  0  0  0  0  0
  -11.6630   -3.2763   29.1172 H   0  0  0  0  0  0  0  0  0  0  0  0
  -11.4464   -3.4066   27.3942 H   0  0  0  0  0  0  0  0  0  0  0  0
  -12.5088   -0.9362   25.7484 N   0  0  0  0  0  0  0  0  0  0  0  0
  -11.9515   -0.9281   24.8971 H   0  0  0  0  0  0  0  0  0  0  0  0
  -13.9029    3.7947   25.6113 C   0  0  0  0  0  0  0  0  0  0  0  0
  -13.2309    2.6633   26.3304 C   0  0  0  0  0  0  0  0  0  0  0  0
  -12.5953    2.8783   27.5548 C   0  0  0  0  0  0  0  0  0  0  0  0
  -11.9510    1.8239   28.1906 C   0  0  0  0  0  0  0  0  0  0  0  0
  -11.3586    2.0364   29.3733 F   0  0  0  0  0  0  0  0  0  0  0  0
  -11.9122    0.5524   27.6257 C   0  0  0  0  0  0  0  0  0  0  0  0
  -12.5278    0.3130   26.3953 C   0  0  0  0  0  0  0  0  0  0  0  0
  -13.1800    1.3830   25.7565 C   0  0  0  0  0  0  0  0  0  0  0  0
  -16.5428   -4.7045   24.9063 N   0  0  0  0  0  0  0  0  0  0  0  0
  -17.0502   -4.5388   24.0423 H   0  0  0  0  0  0  0  0  0  0  0  0
  -17.0234   -5.7980   25.6465 C   0  0  0  0  0  0  0  0  0  0  0  0
  -16.7455   -5.9807   27.0062 C   0  0  0  0  0  0  0  0  0  0  0  0
  -17.2780   -7.0658   27.7130 C   0  0  0  0  0  0  0  0  0  0  0  0
  -18.1071   -7.9852   27.0675 C   0  0  0  0  0  0  0  0  0  0  0  0
  -18.3971   -7.8144   25.7126 C   0  0  0  0  0  0  0  0  0  0  0  0
  -17.8596   -6.7285   25.0122 C   0  0  0  0  0  0  0  0  0  0  0  0
  -18.6551   -9.0959   27.7894 C   0  0  0  0  0  0  0  0  0  0  0  0
  -19.0974   -9.9964   28.3727 N   0  0  0  0  0  0  0  0  0  0  0  0
 14 15  1  0  0  0
 15 16  2  0  0  0
 16 17  1  0  0  0
 17 18  1  0  0  0
 17 19  2  0  0  0
 19 20  1  0  0  0
 20 12  1  0  0  0
 12  1  1  0  0  0
  1  2  2  0  0  0
  2  3  1  0  0  0
  3  4  2  0  0  0
  4 22  1  0  0  0
 22 24  1  0  0  0
 24 25  2  0  0  0
 25 26  1  0  0  0
 26 27  2  0  0  0
 27 30  1  0  0  0
 30 31  3  0  0  0
 27 28  1  0  0  0
 28 29  2  0  0  0
  4  5  1  0  0  0
  5  6  2  0  0  0
  6  7  1  0  0  0
  7  8  1  0  0  0
  7  9  2  0  0  0
 20 21  2  0  0  0
 21 15  1  0  0  0
  6  1  1  0  0  0
 29 24  1  0  0  0
 12 13  1  0  0  0
 22 23  1  0  0  0
  8 10  1  0  0  0
  8 11  1  0  0  0
M  END
> <minimizedAffinity>
-8.66364

$$$$
