L2:O95819:99264


 38 43  0  0  0  0  0  0  0  0999 V2000
  -24.4594  -12.9296   22.6566 C   0  0  0  0  0  0  0  0  0  0  0  0
  -23.1568  -13.3411   22.9036 C   0  0  0  0  0  0  0  0  0  0  0  0
  -22.4551  -14.0359   21.9073 C   0  0  0  0  0  0  0  0  0  0  0  0
  -21.1323  -14.4778   22.1004 C   0  0  0  0  0  0  0  0  0  0  0  0
  -20.4342  -15.1678   21.0930 C   0  0  0  0  0  0  0  0  0  0  0  0
  -21.1009  -15.4173   19.8872 C   0  0  0  0  0  0  0  0  0  0  0  0
  -20.4793  -16.0784   18.8993 F   0  0  0  0  0  0  0  0  0  0  0  0
  -22.4097  -14.9925   19.6732 C   0  0  0  0  0  0  0  0  0  0  0  0
  -23.0933  -14.2980   20.6820 C   0  0  0  0  0  0  0  0  0  0  0  0
  -24.4025  -13.8432   20.5360 C   0  0  0  0  0  0  0  0  0  0  0  0
  -25.0896  -13.1712   21.4889 N   0  0  0  0  0  0  0  0  0  0  0  0
  -19.0544  -15.6247   21.3143 C   0  0  0  0  0  0  0  0  0  0  0  0
  -18.8313  -16.7540   22.1094 C   0  0  0  0  0  0  0  0  0  0  0  0
  -17.6210  -17.2618   22.4193 N   0  0  0  0  0  0  0  0  0  0  0  0
  -16.5571  -16.6093   21.9161 C   0  0  0  0  0  0  0  0  0  0  0  0
  -16.6321  -15.4364   21.1285 C   0  0  0  0  0  0  0  0  0  0  0  0
  -17.9184  -14.9711   20.7788 C   0  0  0  0  0  0  0  0  0  0  0  0
  -18.0693  -13.7708   19.8765 C   0  0  0  0  0  0  0  0  0  0  0  0
  -15.4759  -14.8056   20.6554 N   0  0  0  0  0  0  0  0  0  0  0  0
  -14.2214  -15.2994   21.1949 C   0  0  0  0  0  0  0  0  0  0  0  0
  -14.3023  -16.8137   21.3677 C   0  0  0  0  0  0  0  0  0  0  0  0
  -15.3511  -17.1752   22.2720 O   0  0  0  0  0  0  0  0  0  0  0  0
  -15.5216  -13.8616   20.2979 H   0  0  0  0  0  0  0  0  0  0  0  0
  -25.1459  -10.9238   23.9544 C   0  0  0  0  0  0  0  0  0  0  0  0
  -24.3295  -10.0960   23.5797 O   0  0  0  0  0  0  0  0  0  0  0  0
  -25.2486  -12.2328   23.5699 N   0  0  0  0  0  0  0  0  0  0  0  0
  -25.9761  -12.8096   23.9696 H   0  0  0  0  0  0  0  0  0  0  0  0
  -27.2040  -11.5445   25.4107 C   0  0  0  0  0  0  0  0  0  0  0  0
  -26.1653  -10.5361   24.9657 C   0  0  0  0  0  0  0  0  0  0  0  0
  -26.1086  -11.1249   26.3620 C   0  0  0  0  0  0  0  0  0  0  0  0
  -26.3918  -10.2203   27.5752 C   0  0  0  0  0  0  0  0  0  0  0  0
  -26.2205   -8.8325   27.6785 C   0  0  0  0  0  0  0  0  0  0  0  0
  -26.5451   -8.3832   28.8944 N   0  0  0  0  0  0  0  0  0  0  0  0
  -26.9155   -9.4967   29.5588 N   0  0  0  0  0  0  0  0  0  0  0  0
  -27.3410   -9.3942   30.9332 C   0  0  0  0  0  0  0  0  0  0  0  0
  -26.8274  -10.6334   28.8077 C   0  0  0  0  0  0  0  0  0  0  0  0
  -29.4363  -11.4443   24.2919 C   0  0  0  0  0  0  0  0  0  0  0  0
  -28.6326  -11.1054   25.5370 C   0  0  0  0  0  0  0  0  0  0  0  0
 37 38  1  0  0  0
 38 28  1  0  0  0
 28 29  1  0  0  0
 29 24  1  0  0  0
 24 25  2  0  0  0
 24 26  1  0  0  0
 26  1  1  0  0  0
  1  2  2  0  0  0
  2  3  1  0  0  0
  3  4  2  0  0  0
  4  5  1  0  0  0
  5 12  1  0  0  0
 12 13  2  0  0  0
 13 14  1  0  0  0
 14 15  2  0  0  0
 15 16  1  0  0  0
 16 17  2  0  0  0
 17 18  1  0  0  0
 16 19  1  0  0  0
 19 20  1  0  0  0
 20 21  1  0  0  0
 21 22  1  0  0  0
  5  6  2  0  0  0
  6  7  1  0  0  0
  6  8  1  0  0  0
  8  9  2  0  0  0
  9 10  1  0  0  0
 10 11  2  0  0  0
 29 30  1  0  0  0
 30 31  1  0  0  0
 31 32  1  0  0  0
 32 33  2  0  0  0
 33 34  1  0  0  0
 34 35  1  0  0  0
 34 36  1  0  0  0
 30 28  1  0  0  0
 36 31  2  0  0  0
 11  1  1  0  0  0
  9  3  1  0  0  0
 17 12  1  0  0  0
 22 15  1  0  0  0
 26 27  1  0  0  0
 19 23  1  0  0  0
M  END
> <minimizedAffinity>
-6.75970

$$$$
