L2:O95819:99264
     RDKit          3D

 63 68  0  0  0  0  0  0  0  0999 V2000
    6.1262    3.3873   -2.0769 C   0  0  0  0  0  0  0  0  0  0  0  0
    5.4488    2.0613   -2.3835 C   0  0  0  0  0  0  0  0  0  0  0  0
    4.4669    1.6809   -1.3155 C   0  0  1  0  0  0  0  0  0  0  0  0
    3.9410    0.2611   -1.2773 C   0  0  2  0  0  0  0  0  0  0  0  0
    2.4907    0.0169   -1.0551 C   0  0  0  0  0  0  0  0  0  0  0  0
    1.6717    0.6203   -1.7313 O   0  0  0  0  0  0  0  0  0  0  0  0
    2.2508   -0.9165   -0.0840 N   0  0  0  0  0  0  0  0  0  0  0  0
    1.0230   -1.3927    0.3724 C   0  0  0  0  0  0  0  0  0  0  0  0
   -0.2073   -0.9808   -0.1212 C   0  0  0  0  0  0  0  0  0  0  0  0
   -1.3816   -1.5282    0.4166 C   0  0  0  0  0  0  0  0  0  0  0  0
   -2.6571   -1.1491   -0.0435 C   0  0  0  0  0  0  0  0  0  0  0  0
   -3.8293   -1.6984    0.5066 C   0  0  0  0  0  0  0  0  0  0  0  0
   -5.1526   -1.2929    0.0107 C   0  0  0  0  0  0  0  0  0  0  0  0
   -5.9147   -2.2097   -0.7214 C   0  0  0  0  0  0  0  0  0  0  0  0
   -7.1258   -1.9616   -1.2601 N   0  0  0  0  0  0  0  0  0  0  0  0
   -7.6178   -0.7237   -1.0696 C   0  0  0  0  0  0  0  0  0  0  0  0
   -6.9429    0.3127   -0.3825 C   0  0  0  0  0  0  0  0  0  0  0  0
   -5.7042   -0.0052    0.2158 C   0  0  0  0  0  0  0  0  0  0  0  0
   -4.9688    1.0316    1.0294 C   0  0  0  0  0  0  0  0  0  0  0  0
   -7.5158    1.5816   -0.2407 N   0  0  0  0  0  0  0  0  0  0  0  0
   -8.7220    1.8198   -1.0134 C   0  0  0  0  0  0  0  0  0  0  0  0
   -9.5682    0.5498   -1.0410 C   0  0  0  0  0  0  0  0  0  0  0  0
   -8.8552   -0.5330   -1.6473 O   0  0  0  0  0  0  0  0  0  0  0  0
   -3.6917   -2.6506    1.5240 C   0  0  0  0  0  0  0  0  0  0  0  0
   -4.7803   -3.2084    2.0747 F   0  0  0  0  0  0  0  0  0  0  0  0
   -2.4413   -3.0435    1.9944 C   0  0  0  0  0  0  0  0  0  0  0  0
   -1.2794   -2.4830    1.4439 C   0  0  0  0  0  0  0  0  0  0  0  0
    0.0029   -2.8286    1.8666 C   0  0  0  0  0  0  0  0  0  0  0  0
    1.1429   -2.3071    1.3566 N   0  0  0  0  0  0  0  0  0  0  0  0
    4.8023    0.7868   -0.1454 C   0  0  1  0  0  0  0  0  0  0  0  0
    6.2168    0.2132    0.0565 C   0  0  0  0  0  0  0  0  0  0  0  0
    6.6613   -1.0958   -0.1781 C   0  0  0  0  0  0  0  0  0  0  0  0
    7.9525   -1.2429    0.1329 N   0  0  0  0  0  0  0  0  0  0  0  0
    8.3174   -0.0209    0.5712 N   0  0  0  0  0  0  0  0  0  0  0  0
    9.6758    0.2018    1.0021 C   0  0  0  0  0  0  0  0  0  0  0  0
    7.2998    0.8892    0.5561 C   0  0  0  0  0  0  0  0  0  0  0  0
    5.3897    4.1938   -1.9969 H   0  0  0  0  0  0  0  0  0  0  0  0
    6.8313    3.6475   -2.8723 H   0  0  0  0  0  0  0  0  0  0  0  0
    6.6758    3.3445   -1.1322 H   0  0  0  0  0  0  0  0  0  0  0  0
    6.2099    1.2866   -2.5276 H   0  0  0  0  0  0  0  0  0  0  0  0
    4.9106    2.1519   -3.3345 H   0  0  0  0  0  0  0  0  0  0  0  0
    3.7415    2.4728   -1.1485 H   0  0  0  0  0  0  0  0  0  0  0  0
    4.3806   -0.4254   -1.9940 H   0  0  0  0  0  0  0  0  0  0  0  0
    3.0319   -1.3430    0.3952 H   0  0  0  0  0  0  0  0  0  0  0  0
   -0.2781   -0.2457   -0.9147 H   0  0  0  0  0  0  0  0  0  0  0  0
   -2.7414   -0.4155   -0.8458 H   0  0  0  0  0  0  0  0  0  0  0  0
   -5.5474   -3.2173   -0.9067 H   0  0  0  0  0  0  0  0  0  0  0  0
   -4.4204    1.7074    0.3659 H   0  0  0  0  0  0  0  0  0  0  0  0
   -5.6628    1.6143    1.6444 H   0  0  0  0  0  0  0  0  0  0  0  0
   -4.2640    0.5833    1.7358 H   0  0  0  0  0  0  0  0  0  0  0  0
   -6.9471    2.3679    0.0409 H   0  0  0  0  0  0  0  0  0  0  0  0
   -8.4387    2.1060   -2.0332 H   0  0  0  0  0  0  0  0  0  0  0  0
   -9.2854    2.6465   -0.5699 H   0  0  0  0  0  0  0  0  0  0  0  0
  -10.4718    0.7214   -1.6352 H   0  0  0  0  0  0  0  0  0  0  0  0
   -9.8876    0.2525   -0.0337 H   0  0  0  0  0  0  0  0  0  0  0  0
   -2.3905   -3.7845    2.7871 H   0  0  0  0  0  0  0  0  0  0  0  0
    0.1583   -3.5607    2.6555 H   0  0  0  0  0  0  0  0  0  0  0  0
    4.3025    1.0312    0.7893 H   0  0  0  0  0  0  0  0  0  0  0  0
    6.1152   -1.9487   -0.5585 H   0  0  0  0  0  0  0  0  0  0  0  0
    9.7911    1.2410    1.3194 H   0  0  0  0  0  0  0  0  0  0  0  0
   10.3425   -0.0079    0.1620 H   0  0  0  0  0  0  0  0  0  0  0  0
    9.8867   -0.4697    1.8381 H   0  0  0  0  0  0  0  0  0  0  0  0
    7.4329    1.9083    0.8898 H   0  0  0  0  0  0  0  0  0  0  0  0
  1  2  1  0
  2  3  1  0
  3  4  1  0
  4  5  1  0
  5  6  2  0
  5  7  1  0
  7  8  1  0
  8  9  2  0
  9 10  1  0
 10 11  2  0
 11 12  1  0
 12 13  1  0
 13 14  2  0
 14 15  1  0
 15 16  2  0
 16 17  1  0
 17 18  2  0
 18 19  1  0
 17 20  1  0
 20 21  1  0
 21 22  1  0
 22 23  1  0
 12 24  2  0
 24 25  1  0
 24 26  1  0
 26 27  2  0
 27 28  1  0
 28 29  2  0
  4 30  1  0
 30 31  1  0
 31 32  1  0
 32 33  2  0
 33 34  1  0
 34 35  1  0
 34 36  1  0
 30  3  1  0
 36 31  2  0
 29  8  1  0
 27 10  1  0
 18 13  1  0
 23 16  1  0
  1 37  1  0
  1 38  1  0
  1 39  1  0
  2 40  1  0
  2 41  1  0
  3 42  1  1
  4 43  1  6
  7 44  1  0
  9 45  1  0
 11 46  1  0
 14 47  1  0
 19 48  1  0
 19 49  1  0
 19 50  1  0
 20 51  1  0
 21 52  1  0
 21 53  1  0
 22 54  1  0
 22 55  1  0
 26 56  1  0
 28 57  1  0
 30 58  1  1
 32 59  1  0
 35 60  1  0
 35 61  1  0
 35 62  1  0
 36 63  1  0
M  END
>  <mol_id>  (1) 
99264

>  <source_index>  (1) 
7

>  <layer>  (1) 
L2

>  <uniprot>  (1) 
O95819

>  <paff>  (1) 
8.0968999999999998

>  <smiles>  (1) 
CC[C@H]1[C@H](C(=O)Nc2cc3cc(-c4cnc5c(c4C)NCCO5)c(F)cc3cn2)[C@H]1c1cnn(C)c1

$$$$
