L1:P33981:13094
     RDKit          3D

 58 62  0  0  0  0  0  0  0  0999 V2000
   33.9816   45.8789   39.5318 N   0  0  0  0  0  0  0  0  0  0  0  0
   33.4010   46.3618   38.8653 H   0  0  0  0  0  0  0  0  0  0  0  0
   34.7521   44.9497   38.8313 C   0  0  0  0  0  0  0  0  0  0  0  0
   34.9630   45.0730   37.5061 N   0  0  0  0  0  0  0  0  0  0  0  0
   35.7131   44.1540   36.8578 C   0  0  0  0  0  0  0  0  0  0  0  0
   36.2566   43.0916   37.5643 C   0  0  0  0  0  0  0  0  0  0  0  0
   37.0651   41.9668   37.2688 C   0  0  0  0  0  0  0  0  0  0  0  0
   37.2563   41.2774   38.4472 C   0  0  0  0  0  0  0  0  0  0  0  0
   36.5896   41.9458   39.4500 N   0  0  0  0  0  0  0  0  0  0  0  0
   35.9752   43.0586   38.9204 C   0  0  0  0  0  0  0  0  0  0  0  0
   35.2360   43.9535   39.5968 N   0  0  0  0  0  0  0  0  0  0  0  0
   36.5426   41.5528   40.8602 C   0  0  0  0  0  0  0  0  0  0  0  0
   37.7015   40.6111   41.2382 C   0  0  0  0  0  0  0  0  0  0  0  0
   37.3809   39.1287   41.0576 C   0  0  0  0  0  0  0  0  0  0  0  0
   36.0376   38.7044   41.6605 C   0  0  0  0  0  0  0  0  0  0  0  0
   35.2392   39.8614   42.2536 C   0  0  0  0  0  0  0  0  0  0  0  0
   35.1538   41.0265   41.2723 C   0  0  0  0  0  0  0  0  0  0  0  0
   34.3943   48.6019   40.4715 C   0  0  0  0  0  0  0  0  0  0  0  0
   33.9749   47.4725   41.3764 C   0  0  0  0  0  0  0  0  0  0  0  0
   33.7736   47.7555   42.7449 C   0  0  0  0  0  0  0  0  0  0  0  0
   33.3824   46.7766   43.6698 C   0  0  0  0  0  0  0  0  0  0  0  0
   33.2023   45.4859   43.1745 C   0  0  0  0  0  0  0  0  0  0  0  0
   33.3973   45.1875   41.8169 C   0  0  0  0  0  0  0  0  0  0  0  0
   33.7733   46.1637   40.8885 C   0  0  0  0  0  0  0  0  0  0  0  0
   33.1988   47.1317   45.0117 N   0  0  0  0  0  0  0  0  0  0  0  0
   32.3977   46.1376   45.7706 C   0  0  0  0  0  0  0  0  0  0  0  0
   31.9189   46.7321   47.1059 C   0  0  0  0  0  0  0  0  0  0  0  0
   31.0899   47.8949   46.9495 O   0  0  0  0  0  0  0  0  0  0  0  0
   31.4318   48.6824   45.7942 C   0  0  0  0  0  0  0  0  0  0  0  0
   32.9008   48.5349   45.3707 C   0  0  0  0  0  0  0  0  0  0  0  0
   35.8803   44.2425   35.8433 H   0  0  0  0  0  0  0  0  0  0  0  0
   37.4414   41.7107   36.3426 H   0  0  0  0  0  0  0  0  0  0  0  0
   37.8044   40.4101   38.5587 H   0  0  0  0  0  0  0  0  0  0  0  0
   36.6934   42.4380   41.4421 H   0  0  0  0  0  0  0  0  0  0  0  0
   37.9502   40.7789   42.2653 H   0  0  0  0  0  0  0  0  0  0  0  0
   38.5117   40.8357   40.5763 H   0  0  0  0  0  0  0  0  0  0  0  0
   38.1553   38.5574   41.5254 H   0  0  0  0  0  0  0  0  0  0  0  0
   37.3177   38.9514   40.0043 H   0  0  0  0  0  0  0  0  0  0  0  0
   36.2254   37.9911   42.4356 H   0  0  0  0  0  0  0  0  0  0  0  0
   35.4519   38.2962   40.8635 H   0  0  0  0  0  0  0  0  0  0  0  0
   35.7186   40.1938   43.1506 H   0  0  0  0  0  0  0  0  0  0  0  0
   34.2474   39.5190   42.4634 H   0  0  0  0  0  0  0  0  0  0  0  0
   34.6073   41.8233   41.7321 H   0  0  0  0  0  0  0  0  0  0  0  0
   34.6644   40.6729   40.3889 H   0  0  0  0  0  0  0  0  0  0  0  0
   34.4889   49.5011   41.0437 H   0  0  0  0  0  0  0  0  0  0  0  0
   33.6568   48.7405   39.7088 H   0  0  0  0  0  0  0  0  0  0  0  0
   35.3350   48.3662   40.0194 H   0  0  0  0  0  0  0  0  0  0  0  0
   33.9202   48.7212   43.0779 H   0  0  0  0  0  0  0  0  0  0  0  0
   32.9192   44.7327   43.8207 H   0  0  0  0  0  0  0  0  0  0  0  0
   33.2589   44.2173   41.4936 H   0  0  0  0  0  0  0  0  0  0  0  0
   33.0008   45.2756   45.9658 H   0  0  0  0  0  0  0  0  0  0  0  0
   31.5423   45.8672   45.1875 H   0  0  0  0  0  0  0  0  0  0  0  0
   32.7778   47.0034   47.6835 H   0  0  0  0  0  0  0  0  0  0  0  0
   31.3254   45.9844   47.5892 H   0  0  0  0  0  0  0  0  0  0  0  0
   31.2446   49.7119   46.0176 H   0  0  0  0  0  0  0  0  0  0  0  0
   30.8311   48.3301   44.9818 H   0  0  0  0  0  0  0  0  0  0  0  0
   33.5324   48.8325   46.1815 H   0  0  0  0  0  0  0  0  0  0  0  0
   33.0785   49.1553   44.5172 H   0  0  0  0  0  0  0  0  0  0  0  0
  1  3  1  0
  1  2  1  0
  3  4  2  0
  4  5  1  0
  5  6  2  0
  5 31  1  0
  6  7  1  0
  7  8  2  0
  7 32  1  0
  8  9  1  0
  8 33  1  0
  9 12  1  0
  9 10  1  0
 10 11  2  0
 10  6  1  0
 11  3  1  0
 12 13  1  0
 12 34  1  0
 13 14  1  0
 13 35  1  0
 13 36  1  0
 14 15  1  0
 14 37  1  0
 14 38  1  0
 15 16  1  0
 15 39  1  0
 15 40  1  0
 16 17  1  0
 16 41  1  0
 16 42  1  0
 17 12  1  0
 17 43  1  0
 17 44  1  0
 18 19  1  0
 18 45  1  0
 18 46  1  0
 18 47  1  0
 19 20  2  0
 20 21  1  0
 20 48  1  0
 21 22  2  0
 21 25  1  0
 22 23  1  0
 22 49  1  0
 23 24  2  0
 23 50  1  0
 24  1  1  0
 24 19  1  0
 25 26  1  0
 26 27  1  0
 26 51  1  0
 26 52  1  0
 27 28  1  0
 27 53  1  0
 27 54  1  0
 28 29  1  0
 29 30  1  0
 29 55  1  0
 29 56  1  0
 30 25  1  0
 30 57  1  0
 30 58  1  0
M  END
>  <minimizedAffinity>  (1) 
-8.83458

>  <mol_id>  (1) 
13094

>  <source_index>  (1) 
0

>  <layer>  (1) 
L1

>  <uniprot>  (1) 
P33981

>  <paff>  (1) 
7.6576000000000004

>  <smiles>  (1) 
Cc1cc(ccc1Nc1ncc2ccn(C3CCCCC3)c2n1)N1CCOCC1

$$$$
L1:P33981:17304
     RDKit          3D

 47 51  0  0  0  0  0  0  0  0999 V2000
   37.9510   39.7549   39.5563 C   0  0  0  0  0  0  0  0  0  0  0  0
   39.0556   39.3594   38.8146 C   0  0  0  0  0  0  0  0  0  0  0  0
   39.5220   38.1258   39.1973 N   0  0  0  0  0  0  0  0  0  0  0  0
   38.6960   37.7602   40.1551 C   0  0  0  0  0  0  0  0  0  0  0  0
   38.7260   36.5223   40.9221 C   0  0  0  0  0  0  0  0  0  0  0  0
   37.8101   36.3178   41.8435 N   0  0  0  0  0  0  0  0  0  0  0  0
   36.8433   37.2832   42.0553 C   0  0  0  0  0  0  0  0  0  0  0  0
   36.7721   38.4431   41.3820 C   0  0  0  0  0  0  0  0  0  0  0  0
   37.7271   38.6946   40.4135 N   0  0  0  0  0  0  0  0  0  0  0  0
   35.6294   43.3286   39.3123 C   0  0  0  0  0  0  0  0  0  0  0  0
   35.5412   42.3593   38.3060 C   0  0  0  0  0  0  0  0  0  0  0  0
   36.3079   41.1917   38.3905 C   0  0  0  0  0  0  0  0  0  0  0  0
   37.1560   40.9732   39.4837 C   0  0  0  0  0  0  0  0  0  0  0  0
   37.2358   41.9431   40.4900 C   0  0  0  0  0  0  0  0  0  0  0  0
   36.4710   43.1103   40.4094 C   0  0  0  0  0  0  0  0  0  0  0  0
   34.5895   45.1203   38.1967 O   0  0  0  0  0  0  0  0  0  0  0  0
   34.8305   44.5842   39.2730 C   0  0  0  0  0  0  0  0  0  0  0  0
   34.3736   45.0533   40.4908 N   0  0  0  0  0  0  0  0  0  0  0  0
   34.4511   44.4620   41.3078 H   0  0  0  0  0  0  0  0  0  0  0  0
   33.5605   46.2238   40.5906 C   0  0  0  0  0  0  0  0  0  0  0  0
   34.1924   47.5716   40.7994 C   0  0  0  0  0  0  0  0  0  0  0  0
   33.4020   46.9370   41.9055 C   0  0  0  0  0  0  0  0  0  0  0  0
   39.7048   35.5821   40.6731 N   0  0  0  0  0  0  0  0  0  0  0  0
   40.4632   35.9608   40.1117 H   0  0  0  0  0  0  0  0  0  0  0  0
   40.1402   34.6493   41.6923 C   0  0  0  0  0  0  0  0  0  0  0  0
   41.6280   34.4390   41.7259 C   0  0  0  0  0  0  0  0  0  0  0  0
   42.4076   33.7116   40.8462 C   0  0  0  0  0  0  0  0  0  0  0  0
   43.7893   33.7431   41.1926 C   0  0  0  0  0  0  0  0  0  0  0  0
   44.0195   34.4937   42.3233 C   0  0  0  0  0  0  0  0  0  0  0  0
   42.5774   35.1547   42.9600 S   0  0  0  0  0  0  0  0  0  0  0  0
   39.4774   39.9266   38.0627 H   0  0  0  0  0  0  0  0  0  0  0  0
   36.1297   37.1006   42.7781 H   0  0  0  0  0  0  0  0  0  0  0  0
   36.0259   39.1275   41.5816 H   0  0  0  0  0  0  0  0  0  0  0  0
   34.9109   42.5058   37.5021 H   0  0  0  0  0  0  0  0  0  0  0  0
   36.2479   40.4852   37.6406 H   0  0  0  0  0  0  0  0  0  0  0  0
   37.8630   41.7955   41.2961 H   0  0  0  0  0  0  0  0  0  0  0  0
   36.5270   43.8142   41.1620 H   0  0  0  0  0  0  0  0  0  0  0  0
   32.8874   45.8039   39.8726 H   0  0  0  0  0  0  0  0  0  0  0  0
   33.8051   48.4286   40.2890 H   0  0  0  0  0  0  0  0  0  0  0  0
   35.1835   47.9643   40.7075 H   0  0  0  0  0  0  0  0  0  0  0  0
   32.4511   47.3413   42.1835 H   0  0  0  0  0  0  0  0  0  0  0  0
   33.5961   46.6898   42.9283 H   0  0  0  0  0  0  0  0  0  0  0  0
   39.6701   33.7057   41.5091 H   0  0  0  0  0  0  0  0  0  0  0  0
   39.8631   35.0681   42.6371 H   0  0  0  0  0  0  0  0  0  0  0  0
   42.0314   33.2032   40.0307 H   0  0  0  0  0  0  0  0  0  0  0  0
   44.5294   33.2606   40.6593 H   0  0  0  0  0  0  0  0  0  0  0  0
   44.9531   34.6402   42.7379 H   0  0  0  0  0  0  0  0  0  0  0  0
  1  2  2  0
  2  3  1  0
  2 31  1  0
  3  4  2  0
  4  5  1  0
  5 23  1  0
  5  6  2  0
  6  7  1  0
  7  8  2  0
  7 32  1  0
  8  9  1  0
  8 33  1  0
  9  1  1  0
  9  4  1  0
 10 11  2  0
 11 12  1  0
 11 34  1  0
 12 13  2  0
 12 35  1  0
 13 14  1  0
 13  1  1  0
 14 15  2  0
 14 36  1  0
 15 10  1  0
 15 37  1  0
 16 17  2  0
 17 18  1  0
 17 10  1  0
 18 20  1  0
 18 19  1  0
 20 21  1  0
 20 38  1  0
 21 22  1  0
 21 39  1  0
 21 40  1  0
 22 20  1  0
 22 41  1  0
 22 42  1  0
 23 25  1  0
 23 24  1  0
 25 26  1  0
 25 43  1  0
 25 44  1  0
 26 27  2  0
 27 28  1  0
 27 45  1  0
 28 29  2  0
 28 46  1  0
 29 30  1  0
 29 47  1  0
 30 26  1  0
M  END
>  <minimizedAffinity>  (2) 
-7.26613

>  <mol_id>  (2) 
17304

>  <source_index>  (2) 
1

>  <layer>  (2) 
L1

>  <uniprot>  (2) 
P33981

>  <paff>  (2) 
7.7695999999999996

>  <smiles>  (2) 
O=C(NC1CC1)c1ccc(cc1)-c1cnc2c(NCc3cccs3)nccn12

$$$$
L1:P33981:24785
     RDKit          3D

 66 70  0  0  0  0  0  0  0  0999 V2000
   34.1124   45.4976   39.9540 C   0  0  0  0  0  0  0  0  0  0  0  0
   34.4382   45.4318   38.6266 N   0  0  0  0  0  0  0  0  0  0  0  0
   35.1399   44.3286   38.5378 C   0  0  0  0  0  0  0  0  0  0  0  0
   35.7768   43.6879   37.4425 C   0  0  0  0  0  0  0  0  0  0  0  0
   36.4585   42.5448   37.6480 C   0  0  0  0  0  0  0  0  0  0  0  0
   36.5689   41.9339   38.9757 C   0  0  0  0  0  0  0  0  0  0  0  0
   35.9495   42.5479   40.0054 C   0  0  0  0  0  0  0  0  0  0  0  0
   35.2400   43.7297   39.7911 N   0  0  0  0  0  0  0  0  0  0  0  0
   34.5599   44.4769   40.6893 N   0  0  0  0  0  0  0  0  0  0  0  0
   37.3329   40.7029   39.2316 C   0  0  0  0  0  0  0  0  0  0  0  0
   38.2781   40.2385   38.3104 C   0  0  0  0  0  0  0  0  0  0  0  0
   39.0020   39.0662   38.5628 C   0  0  0  0  0  0  0  0  0  0  0  0
   38.7954   38.3437   39.7386 C   0  0  0  0  0  0  0  0  0  0  0  0
   37.8566   38.8159   40.6642 C   0  0  0  0  0  0  0  0  0  0  0  0
   37.1306   39.9853   40.4135 C   0  0  0  0  0  0  0  0  0  0  0  0
   39.4774   37.1564   40.0685 N   0  0  0  0  0  0  0  0  0  0  0  0
   38.9908   35.8567   40.0283 C   0  0  0  0  0  0  0  0  0  0  0  0
   37.8613   35.5230   39.6825 O   0  0  0  0  0  0  0  0  0  0  0  0
   40.4153   37.2730   40.4352 H   0  0  0  0  0  0  0  0  0  0  0  0
   40.0413   34.8250   40.4768 C   0  0  2  0  0  0  0  0  0  0  0  0
   40.2371   33.7271   39.4286 C   0  0  0  0  0  0  0  0  0  0  0  0
   39.7071   34.2130   41.8308 C   0  0  0  0  0  0  0  0  0  0  0  0
   40.0372   34.8952   43.0135 C   0  0  0  0  0  0  0  0  0  0  0  0
   39.7370   34.3354   44.2557 C   0  0  0  0  0  0  0  0  0  0  0  0
   39.1098   33.0977   44.3187 C   0  0  0  0  0  0  0  0  0  0  0  0
   38.8233   32.5646   45.5135 F   0  0  0  0  0  0  0  0  0  0  0  0
   38.7789   32.4050   43.1630 C   0  0  0  0  0  0  0  0  0  0  0  0
   39.0819   32.9577   41.9194 C   0  0  0  0  0  0  0  0  0  0  0  0
   33.3634   46.4937   40.4555 N   0  0  0  0  0  0  0  0  0  0  0  0
   32.6496   46.8611   39.8349 H   0  0  0  0  0  0  0  0  0  0  0  0
   33.7466   48.5549   41.6805 C   0  0  0  0  0  0  0  0  0  0  0  0
   33.8036   49.2784   42.8755 C   0  0  0  0  0  0  0  0  0  0  0  0
   33.4810   48.6435   44.0775 C   0  0  0  0  0  0  0  0  0  0  0  0
   33.0862   47.3068   44.1002 C   0  0  0  0  0  0  0  0  0  0  0  0
   33.0450   46.5854   42.9063 C   0  0  0  0  0  0  0  0  0  0  0  0
   33.3731   47.1877   41.6845 C   0  0  0  0  0  0  0  0  0  0  0  0
   33.5331   49.5512   45.6031 S   0  0  0  0  0  0  0  0  0  0  0  0
   32.1081   48.9743   46.4876 C   0  0  0  0  0  0  0  0  0  0  0  0
   34.7091   49.1187   46.3359 O   0  0  0  0  0  0  0  0  0  0  0  0
   33.3366   50.9496   45.2708 O   0  0  0  0  0  0  0  0  0  0  0  0
   33.2550   50.1792   39.9969 C   0  0  0  0  0  0  0  0  0  0  0  0
   34.0360   49.0742   40.4372 O   0  0  0  0  0  0  0  0  0  0  0  0
   35.7178   44.0951   36.4961 H   0  0  0  0  0  0  0  0  0  0  0  0
   36.9172   42.0849   36.8461 H   0  0  0  0  0  0  0  0  0  0  0  0
   36.0008   42.1425   40.9530 H   0  0  0  0  0  0  0  0  0  0  0  0
   38.4433   40.7640   37.4377 H   0  0  0  0  0  0  0  0  0  0  0  0
   39.6941   38.7339   37.8732 H   0  0  0  0  0  0  0  0  0  0  0  0
   37.6985   38.2954   41.5412 H   0  0  0  0  0  0  0  0  0  0  0  0
   36.4418   40.3198   41.1053 H   0  0  0  0  0  0  0  0  0  0  0  0
   40.9625   35.3593   40.5806 H   0  0  0  0  0  0  0  0  0  0  0  0
   39.3250   33.1804   39.3101 H   0  0  0  0  0  0  0  0  0  0  0  0
   41.0123   33.0626   39.7486 H   0  0  0  0  0  0  0  0  0  0  0  0
   40.5109   34.1708   38.4942 H   0  0  0  0  0  0  0  0  0  0  0  0
   40.5037   35.8144   42.9634 H   0  0  0  0  0  0  0  0  0  0  0  0
   39.9798   34.8385   45.1235 H   0  0  0  0  0  0  0  0  0  0  0  0
   38.3116   31.4868   43.2235 H   0  0  0  0  0  0  0  0  0  0  0  0
   38.8453   32.4412   41.0578 H   0  0  0  0  0  0  0  0  0  0  0  0
   34.0814   50.2723   42.8698 H   0  0  0  0  0  0  0  0  0  0  0  0
   32.8269   46.8551   44.9911 H   0  0  0  0  0  0  0  0  0  0  0  0
   32.7682   45.5914   42.9236 H   0  0  0  0  0  0  0  0  0  0  0  0
   32.2385   47.9427   46.7400 H   0  0  0  0  0  0  0  0  0  0  0  0
   31.2386   49.0842   45.8737 H   0  0  0  0  0  0  0  0  0  0  0  0
   31.9875   49.5480   47.3827 H   0  0  0  0  0  0  0  0  0  0  0  0
   33.5814   50.4815   39.0238 H   0  0  0  0  0  0  0  0  0  0  0  0
   33.3716   50.9935   40.6811 H   0  0  0  0  0  0  0  0  0  0  0  0
   32.2247   49.8935   39.9547 H   0  0  0  0  0  0  0  0  0  0  0  0
  1  2  1  0
  2  3  2  0
  3  4  1  0
  4  5  2  0
  4 43  1  0
  5  6  1  0
  5 44  1  0
  6  7  2  0
  6 10  1  0
  7  8  1  0
  7 45  1  0
  8  9  1  0
  8  3  1  0
  9  1  2  0
 10 11  2  0
 11 12  1  0
 11 46  1  0
 12 13  2  0
 12 47  1  0
 13 16  1  0
 13 14  1  0
 14 15  2  0
 14 48  1  0
 15 10  1  0
 15 49  1  0
 16 17  1  0
 16 19  1  0
 17 18  2  0
 17 20  1  0
 20 21  1  0
 20 22  1  0
 20 50  1  1
 21 51  1  0
 21 52  1  0
 21 53  1  0
 22 23  2  0
 23 24  1  0
 23 54  1  0
 24 25  2  0
 24 55  1  0
 25 26  1  0
 25 27  1  0
 27 28  2  0
 27 56  1  0
 28 22  1  0
 28 57  1  0
 29  1  1  0
 29 30  1  0
 31 32  2  0
 32 33  1  0
 32 58  1  0
 33 34  2  0
 33 37  1  0
 34 35  1  0
 34 59  1  0
 35 36  2  0
 35 60  1  0
 36 29  1  0
 36 31  1  0
 37 38  1  0
 37 39  2  0
 37 40  2  0
 38 61  1  0
 38 62  1  0
 38 63  1  0
 41 42  1  0
 41 64  1  0
 41 65  1  0
 41 66  1  0
 42 31  1  0
M  END
>  <minimizedAffinity>  (3) 
-8.49635

>  <mol_id>  (3) 
24785

>  <source_index>  (3) 
2

>  <layer>  (3) 
L1

>  <uniprot>  (3) 
P33981

>  <paff>  (3) 
9.4685000000000006

>  <smiles>  (3) 
COc1cc(ccc1Nc1nc2ccc(cn2n1)-c1ccc(NC(=O)[C@H](C)c2ccc(F)cc2)cc1)S(C)(=O)=O |r|

$$$$
L1:P33981:29015
     RDKit          3D

 62 66  0  0  0  0  0  0  0  0999 V2000
   34.4449   45.3741   39.8043 C   0  0  0  0  0  0  0  0  0  0  0  0
   34.6794   45.7141   38.4792 C   0  0  0  0  0  0  0  0  0  0  0  0
   35.1388   44.6477   37.7453 N   0  0  0  0  0  0  0  0  0  0  0  0
   35.2050   43.6682   38.6222 C   0  0  0  0  0  0  0  0  0  0  0  0
   35.6340   42.2998   38.3850 C   0  0  0  0  0  0  0  0  0  0  0  0
   35.6304   41.4443   39.3816 N   0  0  0  0  0  0  0  0  0  0  0  0
   35.2250   41.8617   40.6463 C   0  0  0  0  0  0  0  0  0  0  0  0
   34.8351   43.1256   40.9109 C   0  0  0  0  0  0  0  0  0  0  0  0
   34.8068   44.0427   39.8771 N   0  0  0  0  0  0  0  0  0  0  0  0
   33.7638   49.8755   41.8243 C   0  0  0  0  0  0  0  0  0  0  0  0
   33.5873   48.3854   41.9164 C   0  0  0  0  0  0  0  0  0  0  0  0
   34.0455   47.5799   40.8578 C   0  0  0  0  0  0  0  0  0  0  0  0
   33.9503   46.1814   40.9116 C   0  0  0  0  0  0  0  0  0  0  0  0
   33.3705   45.5780   42.0321 C   0  0  0  0  0  0  0  0  0  0  0  0
   32.8951   46.3609   43.0847 C   0  0  0  0  0  0  0  0  0  0  0  0
   32.9839   47.7578   43.0217 C   0  0  0  0  0  0  0  0  0  0  0  0
   32.4302   48.5104   44.1740 C   0  0  0  0  0  0  0  0  0  0  0  0
   33.1177   48.6901   45.1713 O   0  0  0  0  0  0  0  0  0  0  0  0
   31.1161   48.9080   44.0353 N   0  0  0  0  0  0  0  0  0  0  0  0
   30.5921   48.5862   43.2310 H   0  0  0  0  0  0  0  0  0  0  0  0
   30.4206   49.6084   45.0659 C   0  0  0  0  0  0  0  0  0  0  0  0
   30.2783   51.1038   45.0035 C   0  0  0  0  0  0  0  0  0  0  0  0
   29.0761   50.2289   44.7995 C   0  0  0  0  0  0  0  0  0  0  0  0
   36.0371   41.9090   37.1216 N   0  0  0  0  0  0  0  0  0  0  0  0
   35.3665   41.2771   36.6874 H   0  0  0  0  0  0  0  0  0  0  0  0
   37.4348   41.6814   36.8025 C   0  0  0  0  0  0  0  0  0  0  0  0
   37.7830   40.2221   37.0351 C   0  0  0  0  0  0  0  0  0  0  0  0
   38.9275   40.1142   38.0081 C   0  0  0  0  0  0  0  0  0  0  0  0
   38.5946   40.6664   39.1955 F   0  0  0  0  0  0  0  0  0  0  0  0
   39.2684   38.8290   38.2352 F   0  0  0  0  0  0  0  0  0  0  0  0
   40.0209   40.7607   37.5505 F   0  0  0  0  0  0  0  0  0  0  0  0
   35.2782   40.8159   41.7407 C   0  0  0  0  0  0  0  0  0  0  0  0
   36.5940   40.0714   41.7800 C   0  0  0  0  0  0  0  0  0  0  0  0
   36.6990   38.7877   41.2254 C   0  0  0  0  0  0  0  0  0  0  0  0
   37.9078   38.0922   41.2715 C   0  0  0  0  0  0  0  0  0  0  0  0
   39.0228   38.6710   41.8745 C   0  0  0  0  0  0  0  0  0  0  0  0
   38.9295   39.9441   42.4340 C   0  0  0  0  0  0  0  0  0  0  0  0
   37.7210   40.6415   42.3896 C   0  0  0  0  0  0  0  0  0  0  0  0
   34.5265   46.6579   38.0907 H   0  0  0  0  0  0  0  0  0  0  0  0
   34.5631   43.4026   41.8671 H   0  0  0  0  0  0  0  0  0  0  0  0
   34.2438   50.1214   40.9002 H   0  0  0  0  0  0  0  0  0  0  0  0
   34.3668   50.2144   42.6406 H   0  0  0  0  0  0  0  0  0  0  0  0
   32.8064   50.3514   41.8665 H   0  0  0  0  0  0  0  0  0  0  0  0
   34.4599   48.0269   40.0250 H   0  0  0  0  0  0  0  0  0  0  0  0
   33.2940   44.5500   42.0806 H   0  0  0  0  0  0  0  0  0  0  0  0
   32.4765   45.9093   43.9128 H   0  0  0  0  0  0  0  0  0  0  0  0
   30.8019   48.9109   45.7821 H   0  0  0  0  0  0  0  0  0  0  0  0
   30.6910   51.6462   44.1787 H   0  0  0  0  0  0  0  0  0  0  0  0
   30.5211   51.9143   45.6585 H   0  0  0  0  0  0  0  0  0  0  0  0
   28.6322   50.1475   43.8293 H   0  0  0  0  0  0  0  0  0  0  0  0
   28.1076   50.1574   45.2488 H   0  0  0  0  0  0  0  0  0  0  0  0
   38.0470   42.2970   37.4280 H   0  0  0  0  0  0  0  0  0  0  0  0
   37.6078   41.9271   35.7756 H   0  0  0  0  0  0  0  0  0  0  0  0
   38.0644   39.7725   36.1058 H   0  0  0  0  0  0  0  0  0  0  0  0
   36.9301   39.7176   37.4388 H   0  0  0  0  0  0  0  0  0  0  0  0
   34.4912   40.1098   41.5767 H   0  0  0  0  0  0  0  0  0  0  0  0
   35.1688   41.3241   42.6759 H   0  0  0  0  0  0  0  0  0  0  0  0
   35.8756   38.3539   40.7795 H   0  0  0  0  0  0  0  0  0  0  0  0
   37.9761   37.1488   40.8588 H   0  0  0  0  0  0  0  0  0  0  0  0
   39.9172   38.1572   41.9068 H   0  0  0  0  0  0  0  0  0  0  0  0
   39.7551   40.3719   42.8818 H   0  0  0  0  0  0  0  0  0  0  0  0
   37.6565   41.5826   42.8081 H   0  0  0  0  0  0  0  0  0  0  0  0
  1  2  2  0
  2  3  1  0
  2 39  1  0
  3  4  2  0
  4  5  1  0
  5 24  1  0
  5  6  2  0
  6  7  1  0
  7 32  1  0
  7  8  2  0
  8  9  1  0
  8 40  1  0
  9  1  1  0
  9  4  1  0
 10 11  1  0
 10 41  1  0
 10 42  1  0
 10 43  1  0
 11 12  2  0
 12 13  1  0
 12 44  1  0
 13 14  2  0
 13  1  1  0
 14 15  1  0
 14 45  1  0
 15 16  2  0
 15 46  1  0
 16 17  1  0
 16 11  1  0
 17 18  2  0
 17 19  1  0
 19 21  1  0
 19 20  1  0
 21 22  1  0
 21 47  1  0
 22 23  1  0
 22 48  1  0
 22 49  1  0
 23 21  1  0
 23 50  1  0
 23 51  1  0
 24 26  1  0
 24 25  1  0
 26 27  1  0
 26 52  1  0
 26 53  1  0
 27 28  1  0
 27 54  1  0
 27 55  1  0
 28 29  1  0
 28 30  1  0
 28 31  1  0
 32 33  1  0
 32 56  1  0
 32 57  1  0
 33 34  2  0
 34 35  1  0
 34 58  1  0
 35 36  2  0
 35 59  1  0
 36 37  1  0
 36 60  1  0
 37 38  2  0
 37 61  1  0
 38 33  1  0
 38 62  1  0
M  END
>  <minimizedAffinity>  (4) 
-7.60364

>  <mol_id>  (4) 
29015

>  <source_index>  (4) 
3

>  <layer>  (4) 
L1

>  <uniprot>  (4) 
P33981

>  <paff>  (4) 
9.6989999999999998

>  <smiles>  (4) 
Cc1cc(ccc1C(=O)NC1CC1)-c1cnc2c(NCCC(F)(F)F)nc(Cc3ccccc3)cn12

$$$$
L1:P33981:69855
     RDKit          3D

108113  0  0  0  0  0  0  0  0999 V2000
   37.6175   40.4182   40.4206 C   0  0  0  0  0  0  0  0  0  0  0  0
   37.0476   40.8797   41.6448 C   0  0  0  0  0  0  0  0  0  0  0  0
   36.3500   42.0373   41.3837 C   0  0  0  0  0  0  0  0  0  0  0  0
   36.4645   42.3175   40.0442 N   0  0  0  0  0  0  0  0  0  0  0  0
   37.2959   41.3755   39.4592 C   0  0  0  0  0  0  0  0  0  0  0  0
   37.7543   41.5918   38.0490 C   0  0  0  0  0  0  0  0  0  0  0  0
   36.6918   42.3124   37.2076 C   0  0  0  0  0  0  0  0  0  0  0  0
   36.0021   43.4085   37.9655 C   0  0  0  0  0  0  0  0  0  0  0  0
   35.3578   44.4534   37.3392 C   0  0  0  0  0  0  0  0  0  0  0  0
   34.6372   45.3854   37.9931 N   0  0  0  0  0  0  0  0  0  0  0  0
   34.5250   45.2701   39.3246 C   0  0  0  0  0  0  0  0  0  0  0  0
   35.1198   44.2931   40.0248 N   0  0  0  0  0  0  0  0  0  0  0  0
   35.8507   43.3856   39.3395 C   0  0  0  0  0  0  0  0  0  0  0  0
   38.1941   38.2888   41.2717 N   0  0  0  0  0  0  0  0  0  0  0  0
   38.4258   39.2030   40.2654 C   0  0  0  0  0  0  0  0  0  0  0  0
   39.2849   39.1349   39.3979 O   0  0  0  0  0  0  0  0  0  0  0  0
   37.7623   38.6810   42.0943 H   0  0  0  0  0  0  0  0  0  0  0  0
   39.9768   36.9178   42.3307 C   0  0  0  0  0  0  0  0  0  0  0  0
   40.4198   35.6595   42.3264 N   0  0  0  0  0  0  0  0  0  0  0  0
   39.5825   35.0184   41.4858 N   0  0  0  0  0  0  0  0  0  0  0  0
   38.5834   35.8199   40.9788 C   0  0  0  0  0  0  0  0  0  0  0  0
   38.8602   37.0892   41.4643 C   0  0  0  0  0  0  0  0  0  0  0  0
   41.4575   38.9439   42.3117 C   0  0  0  0  0  0  0  0  0  0  0  0
   40.6825   37.9424   43.1553 C   0  0  0  0  0  0  0  0  0  0  0  0
   37.4506   35.2822   40.1573 C   0  0  0  0  0  0  0  0  0  0  0  0
   36.1108   35.5069   40.8466 C   0  0  0  0  0  0  0  0  0  0  0  0
   39.8752   33.6175   41.2236 C   0  0  0  0  0  0  0  0  0  0  0  0
   39.3544   32.6901   42.3145 C   0  0  0  0  0  0  0  0  0  0  0  0
   37.9577   32.4381   42.1198 O   0  0  0  0  0  0  0  0  0  0  0  0
   37.2001   32.5805   43.3269 C   0  0  0  0  0  0  0  0  0  0  0  0
   37.7614   33.7022   44.2053 C   0  0  0  0  0  0  0  0  0  0  0  0
   36.7641   34.6494   44.5960 O   0  0  0  0  0  0  0  0  0  0  0  0
   37.1956   36.0145   44.5784 C   0  0  0  0  0  0  0  0  0  0  0  0
   36.1263   36.9589   44.0078 C   0  0  0  0  0  0  0  0  0  0  0  0
   36.3014   38.3226   44.4068 O   0  0  0  0  0  0  0  0  0  0  0  0
   35.0938   39.0794   44.3732 C   0  0  0  0  0  0  0  0  0  0  0  0
   33.7575   46.1519   40.0725 N   0  0  0  0  0  0  0  0  0  0  0  0
   33.3019   46.8260   39.4677 H   0  0  0  0  0  0  0  0  0  0  0  0
   33.6504   46.4525   41.4404 C   0  0  0  0  0  0  0  0  0  0  0  0
   33.1217   45.5720   42.3850 C   0  0  0  0  0  0  0  0  0  0  0  0
   33.0368   45.9284   43.7330 C   0  0  0  0  0  0  0  0  0  0  0  0
   33.4680   47.1805   44.1849 C   0  0  0  0  0  0  0  0  0  0  0  0
   33.9776   48.0791   43.2382 C   0  0  0  0  0  0  0  0  0  0  0  0
   34.0647   47.7309   41.8833 C   0  0  0  0  0  0  0  0  0  0  0  0
   33.3232   47.4863   45.5510 N   0  0  0  0  0  0  0  0  0  0  0  0
   32.4536   46.5852   46.3518 C   0  0  0  0  0  0  0  0  0  0  0  0
   33.2067   45.8741   47.4951 C   0  0  0  0  0  0  0  0  0  0  0  0
   34.5540   45.4552   47.1010 N   0  0  0  0  0  0  0  0  0  0  0  0
   35.4067   46.5140   46.5382 C   0  0  0  0  0  0  0  0  0  0  0  0
   34.6256   47.8016   46.1891 C   0  0  0  0  0  0  0  0  0  0  0  0
   34.8995   44.1106   47.1462 C   0  0  0  0  0  0  0  0  0  0  0  0
   34.0944   43.2447   47.4937 O   0  0  0  0  0  0  0  0  0  0  0  0
   36.3461   43.7587   46.7365 C   0  0  0  0  0  0  0  0  0  0  0  0
   36.8172   42.4635   47.0627 O   0  0  0  0  0  0  0  0  0  0  0  0
   37.1232   41.6803   45.9178 C   0  0  0  0  0  0  0  0  0  0  0  0
   34.5507   48.5644   40.8982 O   0  0  0  0  0  0  0  0  0  0  0  0
   34.0789   49.9076   40.8881 C   0  0  0  0  0  0  0  0  0  0  0  0
   37.1421   40.4245   42.5661 H   0  0  0  0  0  0  0  0  0  0  0  0
   35.8299   42.5986   42.0761 H   0  0  0  0  0  0  0  0  0  0  0  0
   37.9631   40.6417   37.6033 H   0  0  0  0  0  0  0  0  0  0  0  0
   38.6303   42.2058   38.0748 H   0  0  0  0  0  0  0  0  0  0  0  0
   35.9590   41.5978   36.8956 H   0  0  0  0  0  0  0  0  0  0  0  0
   37.1883   42.7590   36.3715 H   0  0  0  0  0  0  0  0  0  0  0  0
   35.4313   44.5261   36.3124 H   0  0  0  0  0  0  0  0  0  0  0  0
   41.9411   39.6513   42.9525 H   0  0  0  0  0  0  0  0  0  0  0  0
   40.7833   39.4571   41.6583 H   0  0  0  0  0  0  0  0  0  0  0  0
   42.1931   38.4275   41.7311 H   0  0  0  0  0  0  0  0  0  0  0  0
   39.9572   38.4730   43.7361 H   0  0  0  0  0  0  0  0  0  0  0  0
   41.3872   37.4286   43.7752 H   0  0  0  0  0  0  0  0  0  0  0  0
   37.5948   34.2323   40.0098 H   0  0  0  0  0  0  0  0  0  0  0  0
   37.4387   35.7983   39.2201 H   0  0  0  0  0  0  0  0  0  0  0  0
   36.1038   34.9973   41.7874 H   0  0  0  0  0  0  0  0  0  0  0  0
   35.3239   35.1268   40.2292 H   0  0  0  0  0  0  0  0  0  0  0  0
   35.9636   36.5545   41.0073 H   0  0  0  0  0  0  0  0  0  0  0  0
   40.9360   33.4979   41.1512 H   0  0  0  0  0  0  0  0  0  0  0  0
   39.3819   33.3509   40.3123 H   0  0  0  0  0  0  0  0  0  0  0  0
   39.5015   33.1493   43.2697 H   0  0  0  0  0  0  0  0  0  0  0  0
   39.8873   31.7633   42.2707 H   0  0  0  0  0  0  0  0  0  0  0  0
   37.2354   31.6602   43.8715 H   0  0  0  0  0  0  0  0  0  0  0  0
   36.1920   32.8270   43.0665 H   0  0  0  0  0  0  0  0  0  0  0  0
   38.5251   34.2151   43.6589 H   0  0  0  0  0  0  0  0  0  0  0  0
   38.1464   33.2524   45.0966 H   0  0  0  0  0  0  0  0  0  0  0  0
   38.0766   36.0887   43.9758 H   0  0  0  0  0  0  0  0  0  0  0  0
   37.3862   36.3097   45.5891 H   0  0  0  0  0  0  0  0  0  0  0  0
   35.1663   36.6275   44.3447 H   0  0  0  0  0  0  0  0  0  0  0  0
   36.2135   36.9278   42.9418 H   0  0  0  0  0  0  0  0  0  0  0  0
   35.2940   40.0844   44.6812 H   0  0  0  0  0  0  0  0  0  0  0  0
   34.3784   38.6391   45.0359 H   0  0  0  0  0  0  0  0  0  0  0  0
   34.7026   39.0828   43.3773 H   0  0  0  0  0  0  0  0  0  0  0  0
   32.7883   44.6432   42.0831 H   0  0  0  0  0  0  0  0  0  0  0  0
   32.6477   45.2538   44.4101 H   0  0  0  0  0  0  0  0  0  0  0  0
   34.2940   49.0127   43.5436 H   0  0  0  0  0  0  0  0  0  0  0  0
   32.0428   45.8419   45.7009 H   0  0  0  0  0  0  0  0  0  0  0  0
   31.6936   47.1910   46.7994 H   0  0  0  0  0  0  0  0  0  0  0  0
   32.6495   45.0086   47.7874 H   0  0  0  0  0  0  0  0  0  0  0  0
   33.3044   46.5689   48.3029 H   0  0  0  0  0  0  0  0  0  0  0  0
   35.8666   46.1425   45.6463 H   0  0  0  0  0  0  0  0  0  0  0  0
   36.1289   46.7719   47.2844 H   0  0  0  0  0  0  0  0  0  0  0  0
   35.2102   48.3918   45.5148 H   0  0  0  0  0  0  0  0  0  0  0  0
   34.4364   48.3379   47.0955 H   0  0  0  0  0  0  0  0  0  0  0  0
   36.9951   44.4654   47.2101 H   0  0  0  0  0  0  0  0  0  0  0  0
   36.3434   43.7885   45.6669 H   0  0  0  0  0  0  0  0  0  0  0  0
   37.4724   40.7174   46.2273 H   0  0  0  0  0  0  0  0  0  0  0  0
   37.8837   42.1682   45.3448 H   0  0  0  0  0  0  0  0  0  0  0  0
   36.2440   41.5653   45.3189 H   0  0  0  0  0  0  0  0  0  0  0  0
   34.5333   50.4392   40.0783 H   0  0  0  0  0  0  0  0  0  0  0  0
   34.3328   50.3818   41.8131 H   0  0  0  0  0  0  0  0  0  0  0  0
   33.0160   49.9114   40.7654 H   0  0  0  0  0  0  0  0  0  0  0  0
  1  2  1  0
  2  3  2  0
  2 58  1  0
  3  4  1  0
  3 59  1  0
  4  5  1  0
  4 13  1  0
  5  6  1  0
  5  1  2  0
  6  7  1  0
  6 60  1  0
  6 61  1  0
  7  8  1  0
  7 62  1  0
  7 63  1  0
  8  9  2  0
  9 10  1  0
  9 64  1  0
 10 11  2  0
 11 37  1  0
 11 12  1  0
 12 13  2  0
 13  8  1  0
 14 15  1  0
 14 17  1  0
 15 16  2  0
 15  1  1  0
 18 19  2  0
 19 20  1  0
 20 27  1  0
 20 21  1  0
 21 25  1  0
 21 22  2  0
 22 14  1  0
 22 18  1  0
 23 24  1  0
 23 65  1  0
 23 66  1  0
 23 67  1  0
 24 18  1  0
 24 68  1  0
 24 69  1  0
 25 26  1  0
 25 70  1  0
 25 71  1  0
 26 72  1  0
 26 73  1  0
 26 74  1  0
 27 28  1  0
 27 75  1  0
 27 76  1  0
 28 29  1  0
 28 77  1  0
 28 78  1  0
 29 30  1  0
 30 31  1  0
 30 79  1  0
 30 80  1  0
 31 32  1  0
 31 81  1  0
 31 82  1  0
 32 33  1  0
 33 34  1  0
 33 83  1  0
 33 84  1  0
 34 35  1  0
 34 85  1  0
 34 86  1  0
 35 36  1  0
 36 87  1  0
 36 88  1  0
 36 89  1  0
 37 39  1  0
 37 38  1  0
 39 40  2  0
 40 41  1  0
 40 90  1  0
 41 42  2  0
 41 91  1  0
 42 43  1  0
 42 45  1  0
 43 44  2  0
 43 92  1  0
 44 56  1  0
 44 39  1  0
 45 46  1  0
 46 47  1  0
 46 93  1  0
 46 94  1  0
 47 48  1  0
 47 95  1  0
 47 96  1  0
 48 49  1  0
 48 51  1  0
 49 50  1  0
 49 97  1  0
 49 98  1  0
 50 45  1  0
 50 99  1  0
 50100  1  0
 51 52  2  0
 51 53  1  0
 53 54  1  0
 53101  1  0
 53102  1  0
 54 55  1  0
 55103  1  0
 55104  1  0
 55105  1  0
 56 57  1  0
 57106  1  0
 57107  1  0
 57108  1  0
M  END
>  <minimizedAffinity>  (5) 
-7.20735

>  <mol_id>  (5) 
69855

>  <source_index>  (5) 
4

>  <layer>  (5) 
L1

>  <uniprot>  (5) 
P33981

>  <paff>  (5) 
9.1366999999999994

>  <smiles>  (5) 
CCc1nn(CCOCCOCCOC)c(CC)c1NC(=O)c1ccn-2c1CCc1cnc(Nc3ccc(cc3OC)N3CCN(CC3)C(=O)COC)nc-21

$$$$
L1:P33981:100543
     RDKit          3D

 25 28  0  0  0  0  0  0  0  0999 V2000
   35.1302   44.8148   37.1341 O   0  0  0  0  0  0  0  0  0  0  0  0
   35.4171   44.2131   38.1614 C   0  0  0  0  0  0  0  0  0  0  0  0
   36.3670   43.0242   38.1552 C   0  0  0  0  0  0  0  0  0  0  0  0
   36.9220   42.6154   36.9390 C   0  0  0  0  0  0  0  0  0  0  0  0
   37.7970   41.5265   36.9063 C   0  0  0  0  0  0  0  0  0  0  0  0
   38.1220   40.8423   38.0818 C   0  0  0  0  0  0  0  0  0  0  0  0
   37.5766   41.2376   39.3052 C   0  0  0  0  0  0  0  0  0  0  0  0
   36.7013   42.3238   39.3499 C   0  0  0  0  0  0  0  0  0  0  0  0
   36.1013   42.7836   40.5894 C   0  0  0  0  0  0  0  0  0  0  0  0
   36.2349   42.3222   41.8379 N   0  0  0  0  0  0  0  0  0  0  0  0
   35.4361   43.1513   42.5672 N   0  0  0  0  0  0  0  0  0  0  0  0
   34.8032   44.1188   41.8267 C   0  0  0  0  0  0  0  0  0  0  0  0
   33.9180   45.1630   42.1027 C   0  0  0  0  0  0  0  0  0  0  0  0
   33.5035   45.9427   40.9985 C   0  0  0  0  0  0  0  0  0  0  0  0
   33.9508   45.6907   39.6885 C   0  0  0  0  0  0  0  0  0  0  0  0
   34.8334   44.6388   39.4586 C   0  0  0  0  0  0  0  0  0  0  0  0
   35.2364   43.8781   40.5448 C   0  0  0  0  0  0  0  0  0  0  0  0
   35.3721   42.9958   43.5671 H   0  0  0  0  0  0  0  0  0  0  0  0
   36.6862   43.1163   36.0681 H   0  0  0  0  0  0  0  0  0  0  0  0
   38.2063   41.2250   36.0082 H   0  0  0  0  0  0  0  0  0  0  0  0
   38.7695   40.0395   38.0450 H   0  0  0  0  0  0  0  0  0  0  0  0
   37.8192   40.7300   40.1704 H   0  0  0  0  0  0  0  0  0  0  0  0
   33.5846   45.3551   43.0603 H   0  0  0  0  0  0  0  0  0  0  0  0
   32.8495   46.7246   41.1591 H   0  0  0  0  0  0  0  0  0  0  0  0
   33.6277   46.2801   38.9054 H   0  0  0  0  0  0  0  0  0  0  0  0
  1  2  2  0
  2  3  1  0
  3  4  2  0
  4  5  1  0
  4 19  1  0
  5  6  2  0
  5 20  1  0
  6  7  1  0
  6 21  1  0
  7  8  2  0
  7 22  1  0
  8  9  1  0
  8  3  1  0
  9 10  2  0
 10 11  1  0
 11 12  1  0
 11 18  1  0
 12 13  1  0
 13 14  2  0
 13 23  1  0
 14 15  1  0
 14 24  1  0
 15 16  2  0
 15 25  1  0
 16 17  1  0
 16  2  1  0
 17  9  1  0
 17 12  2  0
M  END
>  <minimizedAffinity>  (6) 
-7.92594

>  <mol_id>  (6) 
100543

>  <source_index>  (6) 
5

>  <layer>  (6) 
L1

>  <uniprot>  (6) 
P33981

>  <paff>  (6) 
7.0087999999999999

>  <smiles>  (6) 
O=C1c2ccccc2-c2n[nH]c3cccc1c23

$$$$
L1:P33981:110486
     RDKit          3D

 54 57  0  0  0  0  0  0  0  0999 V2000
   35.9040   41.2783   42.1982 C   0  0  0  0  0  0  0  0  0  0  0  0
   36.4198   41.6130   40.9963 N   0  0  0  0  0  0  0  0  0  0  0  0
   36.0107   42.7517   40.4021 C   0  0  0  0  0  0  0  0  0  0  0  0
   35.0859   43.5775   41.0272 C   0  0  0  0  0  0  0  0  0  0  0  0
   34.4426   44.8168   40.7734 C   0  0  0  0  0  0  0  0  0  0  0  0
   33.5947   45.0676   41.8325 C   0  0  0  0  0  0  0  0  0  0  0  0
   33.7159   44.0281   42.7202 N   0  0  0  0  0  0  0  0  0  0  0  0
   34.6232   43.1211   42.2463 C   0  0  0  0  0  0  0  0  0  0  0  0
   34.9861   41.9950   42.8712 N   0  0  0  0  0  0  0  0  0  0  0  0
   33.2306   43.9311   43.6005 H   0  0  0  0  0  0  0  0  0  0  0  0
   36.4159   40.0968   42.7205 N   0  0  0  0  0  0  0  0  0  0  0  0
   35.6773   39.5604   43.1605 H   0  0  0  0  0  0  0  0  0  0  0  0
   37.6107   38.1379   41.9489 C   0  0  0  0  0  0  0  0  0  0  0  0
   38.7913   37.4122   41.7776 C   0  0  0  0  0  0  0  0  0  0  0  0
   40.0011   37.9372   42.2395 C   0  0  0  0  0  0  0  0  0  0  0  0
   40.0262   39.1525   42.9249 C   0  0  0  0  0  0  0  0  0  0  0  0
   38.8470   39.8802   43.0912 C   0  0  0  0  0  0  0  0  0  0  0  0
   37.6299   39.4016   42.5928 C   0  0  0  0  0  0  0  0  0  0  0  0
   41.2355   37.1365   42.0677 C   0  0  0  0  0  0  0  0  0  0  0  0
   41.9947   37.4606   41.1558 O   0  0  0  0  0  0  0  0  0  0  0  0
   41.4783   36.0616   42.9195 N   0  0  0  0  0  0  0  0  0  0  0  0
   40.8975   35.9187   44.2494 C   0  0  0  0  0  0  0  0  0  0  0  0
   42.6366   35.2288   42.6400 C   0  0  0  0  0  0  0  0  0  0  0  0
   36.1999   36.3370   41.2760 C   0  0  0  0  0  0  0  0  0  0  0  0
   36.3705   37.7270   41.5133 O   0  0  0  0  0  0  0  0  0  0  0  0
   36.5943   43.0899   39.2004 O   0  0  0  0  0  0  0  0  0  0  0  0
   35.7448   42.6814   38.1205 C   0  0  0  0  0  0  0  0  0  0  0  0
   36.3149   43.2644   36.8282 C   0  0  0  0  0  0  0  0  0  0  0  0
   37.4850   42.3463   36.4784 C   0  0  0  0  0  0  0  0  0  0  0  0
   37.1853   41.0042   37.1473 C   0  0  0  0  0  0  0  0  0  0  0  0
   35.8530   41.1800   37.8713 C   0  0  0  0  0  0  0  0  0  0  0  0
   34.5833   45.4199   39.9479 H   0  0  0  0  0  0  0  0  0  0  0  0
   32.9796   45.8895   41.9382 H   0  0  0  0  0  0  0  0  0  0  0  0
   38.7704   36.4916   41.3116 H   0  0  0  0  0  0  0  0  0  0  0  0
   40.9145   39.5122   43.3078 H   0  0  0  0  0  0  0  0  0  0  0  0
   38.8728   40.7840   43.5887 H   0  0  0  0  0  0  0  0  0  0  0  0
   40.0570   36.5741   44.3438 H   0  0  0  0  0  0  0  0  0  0  0  0
   41.6303   36.1699   44.9875 H   0  0  0  0  0  0  0  0  0  0  0  0
   40.5790   34.9073   44.3927 H   0  0  0  0  0  0  0  0  0  0  0  0
   42.9774   35.4148   41.6429 H   0  0  0  0  0  0  0  0  0  0  0  0
   42.3669   34.1980   42.7383 H   0  0  0  0  0  0  0  0  0  0  0  0
   43.4181   35.4606   43.3331 H   0  0  0  0  0  0  0  0  0  0  0  0
   35.1996   36.1520   40.9441 H   0  0  0  0  0  0  0  0  0  0  0  0
   36.3813   35.7958   42.1810 H   0  0  0  0  0  0  0  0  0  0  0  0
   36.8902   36.0162   40.5241 H   0  0  0  0  0  0  0  0  0  0  0  0
   34.7490   42.9864   38.3661 H   0  0  0  0  0  0  0  0  0  0  0  0
   36.6542   44.2673   36.9830 H   0  0  0  0  0  0  0  0  0  0  0  0
   35.5860   43.3107   36.0462 H   0  0  0  0  0  0  0  0  0  0  0  0
   38.4009   42.7523   36.8543 H   0  0  0  0  0  0  0  0  0  0  0  0
   37.5952   42.2395   35.4195 H   0  0  0  0  0  0  0  0  0  0  0  0
   37.9574   40.7566   37.8454 H   0  0  0  0  0  0  0  0  0  0  0  0
   37.1387   40.2117   36.4299 H   0  0  0  0  0  0  0  0  0  0  0  0
   35.8522   40.6426   38.7966 H   0  0  0  0  0  0  0  0  0  0  0  0
   35.0292   40.8030   37.3019 H   0  0  0  0  0  0  0  0  0  0  0  0
  1  2  2  0
  2  3  1  0
  3 26  1  0
  3  4  2  0
  4  5  1  0
  5  6  2  0
  5 32  1  0
  6  7  1  0
  6 33  1  0
  7  8  1  0
  7 10  1  0
  8  9  2  0
  8  4  1  0
  9  1  1  0
 11  1  1  0
 11 12  1  0
 13 14  2  0
 14 15  1  0
 14 34  1  0
 15 19  1  0
 15 16  2  0
 16 17  1  0
 16 35  1  0
 17 18  2  0
 17 36  1  0
 18 11  1  0
 18 13  1  0
 19 20  2  0
 19 21  1  0
 21 22  1  0
 21 23  1  0
 22 37  1  0
 22 38  1  0
 22 39  1  0
 23 40  1  0
 23 41  1  0
 23 42  1  0
 24 25  1  0
 24 43  1  0
 24 44  1  0
 24 45  1  0
 25 13  1  0
 26 27  1  0
 27 28  1  0
 27 46  1  0
 28 29  1  0
 28 47  1  0
 28 48  1  0
 29 30  1  0
 29 49  1  0
 29 50  1  0
 30 31  1  0
 30 51  1  0
 30 52  1  0
 31 27  1  0
 31 53  1  0
 31 54  1  0
M  END
>  <minimizedAffinity>  (7) 
-7.49867

>  <mol_id>  (7) 
110486

>  <source_index>  (7) 
6

>  <layer>  (7) 
L1

>  <uniprot>  (7) 
P33981

>  <paff>  (7) 
9

>  <smiles>  (7) 
COc1cc(C(=O)N(C)C)ccc1Nc1nc(OC2CCCC2)c2cc[nH]c2n1

$$$$
L1:P33981:124206
     RDKit          3D

 62 66  0  0  0  0  0  0  0  0999 V2000
   36.5203   41.5044   40.3258 C   0  0  0  0  0  0  0  0  0  0  0  0
   36.5734   42.1436   39.1029 C   0  0  0  0  0  0  0  0  0  0  0  0
   35.7699   43.3034   39.1791 C   0  0  0  0  0  0  0  0  0  0  0  0
   35.3770   44.2703   38.2495 C   0  0  0  0  0  0  0  0  0  0  0  0
   34.5535   45.2815   38.6088 N   0  0  0  0  0  0  0  0  0  0  0  0
   34.0868   45.3607   39.8708 C   0  0  0  0  0  0  0  0  0  0  0  0
   34.4365   44.4376   40.8564 C   0  0  0  0  0  0  0  0  0  0  0  0
   35.2967   43.3909   40.4876 C   0  0  0  0  0  0  0  0  0  0  0  0
   35.8884   42.3581   41.2330 N   0  0  0  0  0  0  0  0  0  0  0  0
   35.8823   42.3041   42.6453 C   0  0  0  0  0  0  0  0  0  0  0  0
   35.0731   42.9379   43.3047 O   0  0  0  0  0  0  0  0  0  0  0  0
   39.5033   37.4126   40.4589 C   0  0  0  0  0  0  0  0  0  0  0  0
   38.3670   38.2954   40.5611 N   0  0  0  0  0  0  0  0  0  0  0  0
   38.3296   39.6273   40.2650 C   0  0  0  0  0  0  0  0  0  0  0  0
   37.0449   40.0451   40.5343 C   0  0  0  0  0  0  0  0  0  0  0  0
   36.3795   38.8733   40.9431 C   0  0  0  0  0  0  0  0  0  0  0  0
   37.1851   37.8072   40.9751 N   0  0  0  0  0  0  0  0  0  0  0  0
   33.2052   46.4113   40.2415 N   0  0  0  0  0  0  0  0  0  0  0  0
   32.2563   46.0615   40.1687 H   0  0  0  0  0  0  0  0  0  0  0  0
   33.3875   47.2116   41.3975 C   0  0  0  0  0  0  0  0  0  0  0  0
   32.8557   46.7674   42.6188 C   0  0  0  0  0  0  0  0  0  0  0  0
   33.0561   47.4938   43.7972 C   0  0  0  0  0  0  0  0  0  0  0  0
   33.7944   48.6805   43.7816 C   0  0  0  0  0  0  0  0  0  0  0  0
   34.3398   49.1273   42.5746 C   0  0  0  0  0  0  0  0  0  0  0  0
   34.1395   48.4028   41.3931 C   0  0  0  0  0  0  0  0  0  0  0  0
   34.7785   49.0788   39.9313 Cl  0  0  0  0  0  0  0  0  0  0  0  0
   34.0116   49.4389   45.0056 C   0  0  0  0  0  0  0  0  0  0  0  0
   33.2313   50.4113   45.6059 C   0  0  0  0  0  0  0  0  0  0  0  0
   33.8014   50.8702   46.7649 N   0  0  0  0  0  0  0  0  0  0  0  0
   34.9120   50.1827   46.8934 C   0  0  0  0  0  0  0  0  0  0  0  0
   35.0805   49.3007   45.8634 N   0  0  0  0  0  0  0  0  0  0  0  0
   36.1730   48.3656   45.7498 C   0  0  0  0  0  0  0  0  0  0  0  0
   36.9349   41.5856   43.1007 O   0  0  0  0  0  0  0  0  0  0  0  0
   36.7938   40.7324   44.2675 C   0  0  0  0  0  0  0  0  0  0  0  0
   37.9689   39.7463   44.1852 C   0  0  0  0  0  0  0  0  0  0  0  0
   35.4820   39.9412   44.2266 C   0  0  0  0  0  0  0  0  0  0  0  0
   36.9301   41.5413   45.5632 C   0  0  0  0  0  0  0  0  0  0  0  0
   37.1069   41.8291   38.2774 H   0  0  0  0  0  0  0  0  0  0  0  0
   35.7192   44.2121   37.2776 H   0  0  0  0  0  0  0  0  0  0  0  0
   34.0766   44.5208   41.8200 H   0  0  0  0  0  0  0  0  0  0  0  0
   40.3540   37.9643   40.1171 H   0  0  0  0  0  0  0  0  0  0  0  0
   39.2844   36.6284   39.7647 H   0  0  0  0  0  0  0  0  0  0  0  0
   39.7144   36.9903   41.4191 H   0  0  0  0  0  0  0  0  0  0  0  0
   39.1076   40.2053   39.9105 H   0  0  0  0  0  0  0  0  0  0  0  0
   35.3783   38.8411   41.1911 H   0  0  0  0  0  0  0  0  0  0  0  0
   32.3092   45.8925   42.6474 H   0  0  0  0  0  0  0  0  0  0  0  0
   32.6559   47.1511   44.6846 H   0  0  0  0  0  0  0  0  0  0  0  0
   34.8942   49.9975   42.5541 H   0  0  0  0  0  0  0  0  0  0  0  0
   32.3322   50.7489   45.2281 H   0  0  0  0  0  0  0  0  0  0  0  0
   35.5759   50.2944   47.6756 H   0  0  0  0  0  0  0  0  0  0  0  0
   36.8465   48.5026   46.5699 H   0  0  0  0  0  0  0  0  0  0  0  0
   36.6925   48.5341   44.8297 H   0  0  0  0  0  0  0  0  0  0  0  0
   35.7904   47.3665   45.7656 H   0  0  0  0  0  0  0  0  0  0  0  0
   37.8903   39.1721   43.2857 H   0  0  0  0  0  0  0  0  0  0  0  0
   37.9441   39.0905   45.0303 H   0  0  0  0  0  0  0  0  0  0  0  0
   38.8908   40.2895   44.1822 H   0  0  0  0  0  0  0  0  0  0  0  0
   35.4251   39.3921   43.3100 H   0  0  0  0  0  0  0  0  0  0  0  0
   34.6554   40.6177   44.2890 H   0  0  0  0  0  0  0  0  0  0  0  0
   35.4496   39.2614   45.0522 H   0  0  0  0  0  0  0  0  0  0  0  0
   37.8559   42.0777   45.5531 H   0  0  0  0  0  0  0  0  0  0  0  0
   36.9119   40.8771   46.4019 H   0  0  0  0  0  0  0  0  0  0  0  0
   36.1176   42.2335   45.6387 H   0  0  0  0  0  0  0  0  0  0  0  0
  1  2  2  0
  2  3  1  0
  2 38  1  0
  3  4  2  0
  4  5  1  0
  4 39  1  0
  5  6  2  0
  6 18  1  0
  6  7  1  0
  7  8  2  0
  7 40  1  0
  8  9  1  0
  8  3  1  0
  9 10  1  0
  9  1  1  0
 10 11  2  0
 10 33  1  0
 12 13  1  0
 12 41  1  0
 12 42  1  0
 12 43  1  0
 13 14  1  0
 14 15  2  0
 14 44  1  0
 15 16  1  0
 15  1  1  0
 16 17  2  0
 16 45  1  0
 17 13  1  0
 18 20  1  0
 18 19  1  0
 20 21  2  0
 21 22  1  0
 21 46  1  0
 22 23  2  0
 22 47  1  0
 23 24  1  0
 23 27  1  0
 24 25  2  0
 24 48  1  0
 25 26  1  0
 25 20  1  0
 27 28  2  0
 28 29  1  0
 28 49  1  0
 29 30  2  0
 30 31  1  0
 30 50  1  0
 31 32  1  0
 31 27  1  0
 32 51  1  0
 32 52  1  0
 32 53  1  0
 33 34  1  0
 34 35  1  0
 34 36  1  0
 34 37  1  0
 35 54  1  0
 35 55  1  0
 35 56  1  0
 36 57  1  0
 36 58  1  0
 36 59  1  0
 37 60  1  0
 37 61  1  0
 37 62  1  0
M  END
>  <minimizedAffinity>  (8) 
-8.10068

>  <mol_id>  (8) 
124206

>  <source_index>  (8) 
7

>  <layer>  (8) 
L1

>  <uniprot>  (8) 
P33981

>  <paff>  (8) 
8.5228999999999999

>  <smiles>  (8) 
Cn1cc(cn1)-c1cc2cnc(Nc3ccc(cc3Cl)-c3cncn3C)cc2n1C(=O)OC(C)(C)C

$$$$
L1:P33981:125573
     RDKit          3D

 67 71  0  0  0  0  0  0  0  0999 V2000
   34.8325   43.1073   43.4943 N   0  0  0  0  0  0  0  0  0  0  0  0
   34.6421   43.3958   44.4449 H   0  0  0  0  0  0  0  0  0  0  0  0
   34.6421   44.1674   42.6136 C   0  0  0  0  0  0  0  0  0  0  0  0
   34.8010   43.8287   41.3134 N   0  0  0  0  0  0  0  0  0  0  0  0
   34.6456   44.7488   40.3446 C   0  0  0  0  0  0  0  0  0  0  0  0
   34.2628   46.0060   40.7420 C   0  0  0  0  0  0  0  0  0  0  0  0
   33.9317   47.1656   40.1040 N   0  0  0  0  0  0  0  0  0  0  0  0
   33.6556   48.1000   41.0627 C   0  0  0  0  0  0  0  0  0  0  0  0
   33.7674   47.5997   42.2736 N   0  0  0  0  0  0  0  0  0  0  0  0
   34.1269   46.2900   42.0837 C   0  0  0  0  0  0  0  0  0  0  0  0
   34.3229   45.3869   43.0531 N   0  0  0  0  0  0  0  0  0  0  0  0
   33.8607   47.2907   39.1058 H   0  0  0  0  0  0  0  0  0  0  0  0
   34.8498   44.3347   39.0320 N   0  0  0  0  0  0  0  0  0  0  0  0
   33.9404   43.9305   38.7899 H   0  0  0  0  0  0  0  0  0  0  0  0
   35.8816   43.3154   38.7566 C   0  0  0  0  0  0  0  0  0  0  0  0
   35.2727   41.9109   38.7499 C   0  0  0  0  0  0  0  0  0  0  0  0
   36.3629   40.8362   38.8036 C   0  0  0  0  0  0  0  0  0  0  0  0
   37.6759   41.2589   38.1352 C   0  0  0  0  0  0  0  0  0  0  0  0
   37.4532   42.2747   37.0218 C   0  0  0  0  0  0  0  0  0  0  0  0
   36.7757   43.5550   37.5255 C   0  0  0  0  0  0  0  0  0  0  0  0
   36.0997   41.2143   44.2919 C   0  0  0  0  0  0  0  0  0  0  0  0
   36.5073   39.8717   44.2384 C   0  0  0  0  0  0  0  0  0  0  0  0
   36.0988   39.0330   43.1970 C   0  0  0  0  0  0  0  0  0  0  0  0
   35.2097   39.5943   42.2639 C   0  0  0  0  0  0  0  0  0  0  0  0
   34.7756   40.9303   42.3360 C   0  0  0  0  0  0  0  0  0  0  0  0
   35.2080   41.7670   43.3583 C   0  0  0  0  0  0  0  0  0  0  0  0
   36.4897   37.6976   43.0796 N   0  0  0  0  0  0  0  0  0  0  0  0
   36.5578   37.1411   41.7057 C   0  0  0  0  0  0  0  0  0  0  0  0
   37.9530   37.3704   41.0896 C   0  0  0  0  0  0  0  0  0  0  0  0
   39.0147   36.7430   41.9523 N   0  0  0  0  0  0  0  0  0  0  0  0
   38.9537   37.3255   43.3410 C   0  0  0  0  0  0  0  0  0  0  0  0
   37.5490   37.1406   43.9498 C   0  0  0  0  0  0  0  0  0  0  0  0
   40.5816   36.7446   41.2912 S   0  0  0  0  0  0  0  0  0  0  0  0
   41.5906   37.0190   42.7337 C   0  0  0  0  0  0  0  0  0  0  0  0
   40.7036   37.9172   40.4517 O   0  0  0  0  0  0  0  0  0  0  0  0
   40.8498   35.4211   40.7733 O   0  0  0  0  0  0  0  0  0  0  0  0
   37.2961   41.2454   46.2577 C   0  0  0  0  0  0  0  0  0  0  0  0
   36.5519   42.0208   45.3160 O   0  0  0  0  0  0  0  0  0  0  0  0
   33.3920   49.0772   40.8611 H   0  0  0  0  0  0  0  0  0  0  0  0
   36.5654   43.4101   39.5741 H   0  0  0  0  0  0  0  0  0  0  0  0
   34.6997   41.7828   37.8554 H   0  0  0  0  0  0  0  0  0  0  0  0
   34.6502   41.8066   39.6139 H   0  0  0  0  0  0  0  0  0  0  0  0
   35.9986   39.9600   38.3092 H   0  0  0  0  0  0  0  0  0  0  0  0
   36.5794   40.6607   39.8367 H   0  0  0  0  0  0  0  0  0  0  0  0
   38.1469   40.3917   37.7215 H   0  0  0  0  0  0  0  0  0  0  0  0
   38.2914   41.7177   38.8805 H   0  0  0  0  0  0  0  0  0  0  0  0
   36.8339   41.8309   36.2706 H   0  0  0  0  0  0  0  0  0  0  0  0
   38.4116   42.5451   36.6303 H   0  0  0  0  0  0  0  0  0  0  0  0
   36.1719   43.9545   36.7376 H   0  0  0  0  0  0  0  0  0  0  0  0
   37.5493   44.2340   37.8177 H   0  0  0  0  0  0  0  0  0  0  0  0
   37.1190   39.4975   44.9806 H   0  0  0  0  0  0  0  0  0  0  0  0
   34.8611   39.0017   41.4943 H   0  0  0  0  0  0  0  0  0  0  0  0
   34.1273   41.2942   41.6202 H   0  0  0  0  0  0  0  0  0  0  0  0
   35.8218   37.6219   41.0957 H   0  0  0  0  0  0  0  0  0  0  0  0
   36.3729   36.0883   41.7529 H   0  0  0  0  0  0  0  0  0  0  0  0
   38.1364   38.4218   41.0127 H   0  0  0  0  0  0  0  0  0  0  0  0
   37.9829   36.9211   40.1190 H   0  0  0  0  0  0  0  0  0  0  0  0
   39.1811   38.3700   43.2938 H   0  0  0  0  0  0  0  0  0  0  0  0
   39.6651   36.8175   43.9581 H   0  0  0  0  0  0  0  0  0  0  0  0
   37.5148   37.6375   44.8968 H   0  0  0  0  0  0  0  0  0  0  0  0
   37.3708   36.0910   44.0567 H   0  0  0  0  0  0  0  0  0  0  0  0
   41.3978   37.9968   43.1231 H   0  0  0  0  0  0  0  0  0  0  0  0
   42.6237   36.9386   42.4669 H   0  0  0  0  0  0  0  0  0  0  0  0
   41.3563   36.2863   43.4775 H   0  0  0  0  0  0  0  0  0  0  0  0
   37.6422   41.8792   47.0473 H   0  0  0  0  0  0  0  0  0  0  0  0
   38.1345   40.7968   45.7670 H   0  0  0  0  0  0  0  0  0  0  0  0
   36.6689   40.4796   46.6640 H   0  0  0  0  0  0  0  0  0  0  0  0
  1  3  1  0
  1  2  1  0
  3  4  2  0
  4  5  1  0
  5 13  1  0
  5  6  2  0
  6  7  1  0
  7  8  1  0
  7 12  1  0
  8  9  2  0
  8 39  1  0
  9 10  1  0
 10 11  2  0
 10  6  1  0
 11  3  1  0
 13 15  1  0
 13 14  1  0
 15 16  1  0
 15 40  1  0
 16 17  1  0
 16 41  1  0
 16 42  1  0
 17 18  1  0
 17 43  1  0
 17 44  1  0
 18 19  1  0
 18 45  1  0
 18 46  1  0
 19 20  1  0
 19 47  1  0
 19 48  1  0
 20 15  1  0
 20 49  1  0
 20 50  1  0
 21 22  2  0
 22 23  1  0
 22 51  1  0
 23 27  1  0
 23 24  2  0
 24 25  1  0
 24 52  1  0
 25 26  2  0
 25 53  1  0
 26  1  1  0
 26 21  1  0
 27 28  1  0
 28 29  1  0
 28 54  1  0
 28 55  1  0
 29 30  1  0
 29 56  1  0
 29 57  1  0
 30 33  1  0
 30 31  1  0
 31 32  1  0
 31 58  1  0
 31 59  1  0
 32 27  1  0
 32 60  1  0
 32 61  1  0
 33 34  1  0
 33 35  2  0
 33 36  2  0
 34 62  1  0
 34 63  1  0
 34 64  1  0
 37 38  1  0
 37 65  1  0
 37 66  1  0
 37 67  1  0
 38 21  1  0
M  END
>  <minimizedAffinity>  (9) 
-8.06229

>  <mol_id>  (9) 
125573

>  <source_index>  (9) 
8

>  <layer>  (9) 
L1

>  <uniprot>  (9) 
P33981

>  <paff>  (9) 
8.6989999999999998

>  <smiles>  (9) 
COc1cc(N2CCN(S(C)(=O)=O)CC2)ccc1Nc1nc(NC2CCCCC2)c2[nH]cnc2n1

$$$$
L1:P33981:137617
     RDKit          3D

 88 93  0  0  0  0  0  0  0  0999 V2000
   34.8052   43.3496   41.5840 C   0  0  0  0  0  0  0  0  0  0  0  0
   35.0613   42.3786   42.4903 N   0  0  0  0  0  0  0  0  0  0  0  0
   35.9131   41.5369   41.8582 N   0  0  0  0  0  0  0  0  0  0  0  0
   36.3935   40.3672   42.5565 C   0  0  0  0  0  0  0  0  0  0  0  0
   36.2119   41.9352   40.5894 C   0  0  0  0  0  0  0  0  0  0  0  0
   35.5216   43.1142   40.3859 C   0  0  0  0  0  0  0  0  0  0  0  0
   35.6418   43.8906   39.1194 C   0  0  0  0  0  0  0  0  0  0  0  0
   36.1001   42.9946   37.9411 C   0  0  0  0  0  0  0  0  0  0  0  0
   37.0479   41.8804   38.3178 C   0  0  0  0  0  0  0  0  0  0  0  0
   37.8789   41.2576   37.4242 C   0  0  0  0  0  0  0  0  0  0  0  0
   38.6568   40.2058   37.7477 N   0  0  0  0  0  0  0  0  0  0  0  0
   38.5936   39.7380   39.0051 C   0  0  0  0  0  0  0  0  0  0  0  0
   37.8089   40.2721   39.9534 N   0  0  0  0  0  0  0  0  0  0  0  0
   37.0633   41.3259   39.5872 C   0  0  0  0  0  0  0  0  0  0  0  0
   34.5021   45.3485   42.8095 N   0  0  0  0  0  0  0  0  0  0  0  0
   33.9089   44.4784   41.9087 C   0  0  0  0  0  0  0  0  0  0  0  0
   32.8122   44.6100   41.3759 O   0  0  0  0  0  0  0  0  0  0  0  0
   35.5077   45.1997   42.8375 H   0  0  0  0  0  0  0  0  0  0  0  0
   33.3618   46.8058   44.3688 C   0  0  0  0  0  0  0  0  0  0  0  0
   32.8360   48.0653   44.6991 C   0  0  0  0  0  0  0  0  0  0  0  0
   32.9399   49.1343   43.8167 C   0  0  0  0  0  0  0  0  0  0  0  0
   33.5474   48.9507   42.5795 C   0  0  0  0  0  0  0  0  0  0  0  0
   34.0770   47.7015   42.2032 C   0  0  0  0  0  0  0  0  0  0  0  0
   34.0113   46.6306   43.1231 C   0  0  0  0  0  0  0  0  0  0  0  0
   32.6206   46.1934   46.6987 C   0  0  0  0  0  0  0  0  0  0  0  0
   33.2191   45.6968   45.3913 C   0  0  0  0  0  0  0  0  0  0  0  0
   34.5357   47.5591   40.7670 C   0  0  0  0  0  0  0  0  0  0  0  0
   34.6088   48.9084   40.0638 C   0  0  0  0  0  0  0  0  0  0  0  0
   39.3211   38.6229   39.4117 N   0  0  0  0  0  0  0  0  0  0  0  0
   40.3066   38.8417   39.3695 H   0  0  0  0  0  0  0  0  0  0  0  0
   38.9918   37.4627   40.1271 C   0  0  0  0  0  0  0  0  0  0  0  0
   38.4122   36.3327   39.5451 C   0  0  0  0  0  0  0  0  0  0  0  0
   38.0917   35.2069   40.3142 C   0  0  0  0  0  0  0  0  0  0  0  0
   38.3503   35.1848   41.6884 C   0  0  0  0  0  0  0  0  0  0  0  0
   38.9344   36.3018   42.2915 C   0  0  0  0  0  0  0  0  0  0  0  0
   39.2827   37.4086   41.5073 C   0  0  0  0  0  0  0  0  0  0  0  0
   37.9427   33.9801   42.4655 C   0  0  0  0  0  0  0  0  0  0  0  0
   37.3654   33.0569   41.9019 O   0  0  0  0  0  0  0  0  0  0  0  0
   38.2597   33.9665   43.8094 N   0  0  0  0  0  0  0  0  0  0  0  0
   38.8147   34.7099   44.2079 H   0  0  0  0  0  0  0  0  0  0  0  0
   37.8528   32.8630   44.6787 C   0  0  0  0  0  0  0  0  0  0  0  0
   37.4152   33.3673   46.0631 C   0  0  0  0  0  0  0  0  0  0  0  0
   38.5040   33.1453   47.1091 C   0  0  0  0  0  0  0  0  0  0  0  0
   38.8155   31.7203   47.2738 N   0  0  0  0  0  0  0  0  0  0  0  0
   40.0535   31.5407   48.0261 C   0  0  0  0  0  0  0  0  0  0  0  0
   38.8066   30.9540   46.0217 C   0  0  0  0  0  0  0  0  0  0  0  0
   38.9728   31.8193   44.7756 C   0  0  0  0  0  0  0  0  0  0  0  0
   39.8356   38.5298   42.0810 O   0  0  0  0  0  0  0  0  0  0  0  0
   41.2357   38.3870   42.2979 C   0  0  0  0  0  0  0  0  0  0  0  0
   41.4207   37.6083   43.3862 F   0  0  0  0  0  0  0  0  0  0  0  0
   41.8286   39.5778   42.5240 F   0  0  0  0  0  0  0  0  0  0  0  0
   41.8261   37.7846   41.2437 F   0  0  0  0  0  0  0  0  0  0  0  0
   35.9712   40.3400   43.5393 H   0  0  0  0  0  0  0  0  0  0  0  0
   37.4604   40.4074   42.6277 H   0  0  0  0  0  0  0  0  0  0  0  0
   36.1048   39.4877   42.0198 H   0  0  0  0  0  0  0  0  0  0  0  0
   36.3577   44.6735   39.2589 H   0  0  0  0  0  0  0  0  0  0  0  0
   34.6788   44.2908   38.8800 H   0  0  0  0  0  0  0  0  0  0  0  0
   36.5891   43.6172   37.2213 H   0  0  0  0  0  0  0  0  0  0  0  0
   35.2174   42.5218   37.5639 H   0  0  0  0  0  0  0  0  0  0  0  0
   37.9107   41.6115   36.4553 H   0  0  0  0  0  0  0  0  0  0  0  0
   32.3666   48.1989   45.6084 H   0  0  0  0  0  0  0  0  0  0  0  0
   32.5677   50.0605   44.0788 H   0  0  0  0  0  0  0  0  0  0  0  0
   33.6114   49.7455   41.9243 H   0  0  0  0  0  0  0  0  0  0  0  0
   32.5398   45.3777   47.3865 H   0  0  0  0  0  0  0  0  0  0  0  0
   31.6490   46.6017   46.5138 H   0  0  0  0  0  0  0  0  0  0  0  0
   33.2521   46.9501   47.1154 H   0  0  0  0  0  0  0  0  0  0  0  0
   32.5833   44.9364   44.9883 H   0  0  0  0  0  0  0  0  0  0  0  0
   34.1968   45.3163   45.6015 H   0  0  0  0  0  0  0  0  0  0  0  0
   33.8454   46.9316   40.2429 H   0  0  0  0  0  0  0  0  0  0  0  0
   35.5161   47.1306   40.7704 H   0  0  0  0  0  0  0  0  0  0  0  0
   33.6370   49.3559   40.0489 H   0  0  0  0  0  0  0  0  0  0  0  0
   34.9529   48.7694   39.0602 H   0  0  0  0  0  0  0  0  0  0  0  0
   35.2878   49.5477   40.5884 H   0  0  0  0  0  0  0  0  0  0  0  0
   38.2170   36.3274   38.5317 H   0  0  0  0  0  0  0  0  0  0  0  0
   37.6604   34.3855   39.8623 H   0  0  0  0  0  0  0  0  0  0  0  0
   39.1081   36.3111   43.3087 H   0  0  0  0  0  0  0  0  0  0  0  0
   36.9988   32.3883   44.2426 H   0  0  0  0  0  0  0  0  0  0  0  0
   36.5332   32.8405   46.3622 H   0  0  0  0  0  0  0  0  0  0  0  0
   37.2261   34.4181   45.9932 H   0  0  0  0  0  0  0  0  0  0  0  0
   38.1695   33.5378   48.0466 H   0  0  0  0  0  0  0  0  0  0  0  0
   39.3908   33.6448   46.7790 H   0  0  0  0  0  0  0  0  0  0  0  0
   40.0106   32.1173   48.9264 H   0  0  0  0  0  0  0  0  0  0  0  0
   40.8820   31.8670   47.4327 H   0  0  0  0  0  0  0  0  0  0  0  0
   40.1754   30.5062   48.2706 H   0  0  0  0  0  0  0  0  0  0  0  0
   37.8746   30.4332   45.9503 H   0  0  0  0  0  0  0  0  0  0  0  0
   39.6431   30.2876   46.0553 H   0  0  0  0  0  0  0  0  0  0  0  0
   38.9439   31.1933   43.9083 H   0  0  0  0  0  0  0  0  0  0  0  0
   39.9109   32.3302   44.8376 H   0  0  0  0  0  0  0  0  0  0  0  0
  1  2  2  0
  2  3  1  0
  3  4  1  0
  3  5  1  0
  4 53  1  0
  4 54  1  0
  4 55  1  0
  5  6  2  0
  5 14  1  0
  6  7  1  0
  6  1  1  0
  7  8  1  0
  7 56  1  0
  7 57  1  0
  8  9  1  0
  8 58  1  0
  8 59  1  0
  9 10  2  0
 10 11  1  0
 10 60  1  0
 11 12  2  0
 12 29  1  0
 12 13  1  0
 13 14  2  0
 14  9  1  0
 15 16  1  0
 15 18  1  0
 16 17  2  0
 16  1  1  0
 19 20  2  0
 20 21  1  0
 20 61  1  0
 21 22  2  0
 21 62  1  0
 22 23  1  0
 22 63  1  0
 23 27  1  0
 23 24  2  0
 24 15  1  0
 24 19  1  0
 25 26  1  0
 25 64  1  0
 25 65  1  0
 25 66  1  0
 26 19  1  0
 26 67  1  0
 26 68  1  0
 27 28  1  0
 27 69  1  0
 27 70  1  0
 28 71  1  0
 28 72  1  0
 28 73  1  0
 29 31  1  0
 29 30  1  0
 31 32  2  0
 32 33  1  0
 32 74  1  0
 33 34  2  0
 33 75  1  0
 34 35  1  0
 34 37  1  0
 35 36  2  0
 35 76  1  0
 36 48  1  0
 36 31  1  0
 37 38  2  0
 37 39  1  0
 39 41  1  0
 39 40  1  0
 41 42  1  0
 41 77  1  0
 42 43  1  0
 42 78  1  0
 42 79  1  0
 43 44  1  0
 43 80  1  0
 43 81  1  0
 44 45  1  0
 44 46  1  0
 45 82  1  0
 45 83  1  0
 45 84  1  0
 46 47  1  0
 46 85  1  0
 46 86  1  0
 47 41  1  0
 47 87  1  0
 47 88  1  0
 48 49  1  0
 49 50  1  0
 49 51  1  0
 49 52  1  0
M  END
>  <minimizedAffinity>  (10) 
-8.70705

>  <mol_id>  (10) 
137617

>  <source_index>  (10) 
9

>  <layer>  (10) 
L1

>  <uniprot>  (10) 
P33981

>  <paff>  (10) 
7.1486999999999998

>  <smiles>  (10) 
CCc1cccc(CC)c1NC(=O)c1nn(C)c-2c1CCc1cnc(Nc3ccc(cc3OC(F)(F)F)C(=O)NC3CCN(C)CC3)nc-21

$$$$
