L4:O94782:44583
     RDKit          3D

 66 69  0  0  0  0  0  0  0  0999 V2000
  130.8057  139.0596  173.5496 C   0  0  0  0  0  0  0  0  0  0  0  0
  131.1102  138.5939  172.2831 C   0  0  0  0  0  0  0  0  0  0  0  0
  130.2054  138.1019  171.4154 N   0  0  0  0  0  0  0  0  0  0  0  0
  128.9301  138.0908  171.8287 C   0  0  0  0  0  0  0  0  0  0  0  0
  128.5285  138.5591  173.0295 N   0  0  0  0  0  0  0  0  0  0  0  0
  129.4639  139.0130  173.8814 C   0  0  0  0  0  0  0  0  0  0  0  0
  127.8781  137.5723  170.9185 C   0  0  0  0  0  0  0  0  0  0  0  0
  127.7769  136.1642  170.7717 C   0  0  0  0  0  0  0  0  0  0  0  0
  126.8089  135.5618  169.9674 C   0  0  0  0  0  0  0  0  0  0  0  0
  125.9001  136.3522  169.2853 C   0  0  0  0  0  0  0  0  0  0  0  0
  125.9758  137.7413  169.3910 C   0  0  0  0  0  0  0  0  0  0  0  0
  126.9664  138.3777  170.1749 C   0  0  0  0  0  0  0  0  0  0  0  0
  126.9993  139.9088  170.2063 C   0  0  0  0  0  0  0  0  0  0  0  0
  127.1263  140.5620  168.8202 C   0  0  0  0  0  0  0  0  0  0  0  0
  125.7603  140.4532  170.9256 C   0  0  0  0  0  0  0  0  0  0  0  0
  128.9493  139.4677  175.0979 N   0  0  0  0  0  0  0  0  0  0  0  0
  129.6361  140.1721  175.3684 H   0  0  0  0  0  0  0  0  0  0  0  0
  127.6379  140.1242  175.0518 C   0  0  0  0  0  0  0  0  0  0  0  0
  127.7154  141.6097  174.7802 C   0  0  0  0  0  0  0  0  0  0  0  0
  128.0555  142.5124  175.7992 C   0  0  0  0  0  0  0  0  0  0  0  0
  128.1594  143.8806  175.5284 C   0  0  0  0  0  0  0  0  0  0  0  0
  127.9388  144.3677  174.2343 C   0  0  0  0  0  0  0  0  0  0  0  0
  127.5631  143.4740  173.2241 C   0  0  0  0  0  0  0  0  0  0  0  0
  127.4609  142.1052  173.4924 C   0  0  0  0  0  0  0  0  0  0  0  0
  128.1049  145.7938  173.9608 C   0  0  0  0  0  0  0  0  0  0  0  0
  127.1808  146.7189  174.1482 N   0  0  0  0  0  0  0  0  0  0  0  0
  127.7373  147.9338  173.7630 C   0  0  0  0  0  0  0  0  0  0  0  0
  129.0457  147.7242  173.3637 C   0  0  0  0  0  0  0  0  0  0  0  0
  129.2701  146.3826  173.5152 N   0  0  0  0  0  0  0  0  0  0  0  0
  130.5388  145.7280  173.3051 C   0  0  0  0  0  0  0  0  0  0  0  0
  126.9748  149.2262  173.8237 C   0  0  0  0  0  0  0  0  0  0  0  0
  127.1501  149.9752  172.7013 F   0  0  0  0  0  0  0  0  0  0  0  0
  125.6335  149.0122  173.9342 F   0  0  0  0  0  0  0  0  0  0  0  0
  127.3292  150.0057  174.8793 F   0  0  0  0  0  0  0  0  0  0  0  0
  131.8759  139.6314  174.4265 C   0  0  0  0  0  0  0  0  0  0  0  0
  133.0858  138.7348  174.5446 C   0  0  0  0  0  0  0  0  0  0  0  0
  133.0908  137.6294  175.0734 O   0  0  0  0  0  0  0  0  0  0  0  0
  134.6684  140.4263  174.8755 C   0  0  0  0  0  0  0  0  0  0  0  0
  134.1859  139.3685  174.0435 O   0  0  0  0  0  0  0  0  0  0  0  0
  132.0971  138.6256  171.9830 H   0  0  0  0  0  0  0  0  0  0  0  0
  128.4448  135.5630  171.2792 H   0  0  0  0  0  0  0  0  0  0  0  0
  126.7708  134.5341  169.8817 H   0  0  0  0  0  0  0  0  0  0  0  0
  125.1697  135.9159  168.7011 H   0  0  0  0  0  0  0  0  0  0  0  0
  125.2896  138.3209  168.8829 H   0  0  0  0  0  0  0  0  0  0  0  0
  127.8869  140.1695  170.7440 H   0  0  0  0  0  0  0  0  0  0  0  0
  126.2594  140.3319  168.2367 H   0  0  0  0  0  0  0  0  0  0  0  0
  127.9982  140.1858  168.3272 H   0  0  0  0  0  0  0  0  0  0  0  0
  127.2096  141.6229  168.9321 H   0  0  0  0  0  0  0  0  0  0  0  0
  124.8822  140.1845  170.3764 H   0  0  0  0  0  0  0  0  0  0  0  0
  125.8266  141.5190  170.9931 H   0  0  0  0  0  0  0  0  0  0  0  0
  125.7071  140.0361  171.9095 H   0  0  0  0  0  0  0  0  0  0  0  0
  127.1524  139.9772  175.9939 H   0  0  0  0  0  0  0  0  0  0  0  0
  127.0944  139.6844  174.2418 H   0  0  0  0  0  0  0  0  0  0  0  0
  128.2302  142.1644  176.7549 H   0  0  0  0  0  0  0  0  0  0  0  0
  128.4005  144.5361  176.2881 H   0  0  0  0  0  0  0  0  0  0  0  0
  127.3604  143.8274  172.2759 H   0  0  0  0  0  0  0  0  0  0  0  0
  127.1961  141.4541  172.7368 H   0  0  0  0  0  0  0  0  0  0  0  0
  129.7138  148.4328  173.0224 H   0  0  0  0  0  0  0  0  0  0  0  0
  131.2552  146.4422  172.9564 H   0  0  0  0  0  0  0  0  0  0  0  0
  130.4239  144.9530  172.5763 H   0  0  0  0  0  0  0  0  0  0  0  0
  130.8780  145.3034  174.2268 H   0  0  0  0  0  0  0  0  0  0  0  0
  132.1861  140.5702  174.0174 H   0  0  0  0  0  0  0  0  0  0  0  0
  131.4615  139.7396  175.4071 H   0  0  0  0  0  0  0  0  0  0  0  0
  135.5273  140.8741  174.4209 H   0  0  0  0  0  0  0  0  0  0  0  0
  134.9365  140.0325  175.8336 H   0  0  0  0  0  0  0  0  0  0  0  0
  133.9025  141.1640  174.9947 H   0  0  0  0  0  0  0  0  0  0  0  0
  1  2  2  0
  2  3  1  0
  2 40  1  0
  3  4  2  0
  4  7  1  0
  4  5  1  0
  5  6  2  0
  6 16  1  0
  6  1  1  0
  7  8  2  0
  8  9  1  0
  8 41  1  0
  9 10  2  0
  9 42  1  0
 10 11  1  0
 10 43  1  0
 11 12  2  0
 11 44  1  0
 12 13  1  0
 12  7  1  0
 13 14  1  0
 13 15  1  0
 13 45  1  0
 14 46  1  0
 14 47  1  0
 14 48  1  0
 15 49  1  0
 15 50  1  0
 15 51  1  0
 16 18  1  0
 16 17  1  0
 18 19  1  0
 18 52  1  0
 18 53  1  0
 19 20  2  0
 20 21  1  0
 20 54  1  0
 21 22  2  0
 21 55  1  0
 22 25  1  0
 22 23  1  0
 23 24  2  0
 23 56  1  0
 24 19  1  0
 24 57  1  0
 25 26  2  0
 26 27  1  0
 27 31  1  0
 27 28  2  0
 28 29  1  0
 28 58  1  0
 29 30  1  0
 29 25  1  0
 30 59  1  0
 30 60  1  0
 30 61  1  0
 31 32  1  0
 31 33  1  0
 31 34  1  0
 35  1  1  0
 35 62  1  0
 35 63  1  0
 36 37  2  0
 36 35  1  0
 38 39  1  0
 38 64  1  0
 38 65  1  0
 38 66  1  0
 39 36  1  0
M  END
>  <minimizedAffinity>  (1) 
-9.53578

>  <mol_id>  (1) 
44583

>  <source_index>  (1) 
0

>  <layer>  (1) 
L4

>  <uniprot>  (1) 
O94782

>  <paff>  (1) 
8.8861000000000008

>  <smiles>  (1) 
COC(=O)Cc1cnc(-c2ccccc2C(C)C)nc1NCc1ccc(-c2nc(C(F)(F)F)cn2C)cc1

$$$$
L4:O94782:55799
     RDKit          3D

 73 79  0  0  0  0  0  0  0  0999 V2000
  129.0192  137.8268  171.6305 C   0  0  0  0  0  0  0  0  0  0  0  0
  130.2818  137.4957  171.2773 N   0  0  0  0  0  0  0  0  0  0  0  0
  131.3020  137.9878  172.0156 C   0  0  0  0  0  0  0  0  0  0  0  0
  131.0344  138.8142  173.1027 C   0  0  0  0  0  0  0  0  0  0  0  0
  131.8040  139.5136  174.0766 C   0  0  0  0  0  0  0  0  0  0  0  0
  133.1890  139.6490  174.3124 C   0  0  0  0  0  0  0  0  0  0  0  0
  133.6366  140.4451  175.3728 C   0  0  0  0  0  0  0  0  0  0  0  0
  132.7248  141.0862  176.2032 C   0  0  0  0  0  0  0  0  0  0  0  0
  131.3474  140.9715  175.9941 C   0  0  0  0  0  0  0  0  0  0  0  0
  130.9059  140.1784  174.9210 C   0  0  0  0  0  0  0  0  0  0  0  0
  129.6311  139.8833  174.4686 N   0  0  0  0  0  0  0  0  0  0  0  0
  129.6996  139.0785  173.3575 C   0  0  0  0  0  0  0  0  0  0  0  0
  128.6478  138.6244  172.6526 N   0  0  0  0  0  0  0  0  0  0  0  0
  127.5964  135.9711  170.7941 C   0  0  0  0  0  0  0  0  0  0  0  0
  126.6005  135.4504  170.0481 N   0  0  0  0  0  0  0  0  0  0  0  0
  125.9490  136.3220  169.2763 C   0  0  0  0  0  0  0  0  0  0  0  0
  126.1950  137.6342  169.1924 N   0  0  0  0  0  0  0  0  0  0  0  0
  127.2069  138.1329  169.9515 C   0  0  0  0  0  0  0  0  0  0  0  0
  127.9516  137.3111  170.7964 C   0  0  0  0  0  0  0  0  0  0  0  0
  127.4667  139.6271  169.8500 C   0  0  0  0  0  0  0  0  0  0  0  0
  126.5989  140.4884  168.9592 C   0  0  0  0  0  0  0  0  0  0  0  0
  126.4845  140.6114  170.4472 C   0  0  0  0  0  0  0  0  0  0  0  0
  128.4145  133.7942  171.1431 C   0  0  0  0  0  0  0  0  0  0  0  0
  128.2954  135.1233  171.6379 O   0  0  0  0  0  0  0  0  0  0  0  0
  133.2125  141.9232  177.2498 N   0  0  0  0  0  0  0  0  0  0  0  0
  134.1868  142.2163  177.1456 H   0  0  0  0  0  0  0  0  0  0  0  0
  132.9728  141.3822  178.8378 S   0  0  0  0  0  0  0  0  0  0  0  0
  134.3442  142.1440  179.6772 C   0  0  0  0  0  0  0  0  0  0  0  0
  133.2197  139.9557  178.7982 O   0  0  0  0  0  0  0  0  0  0  0  0
  131.7361  141.9114  179.3666 O   0  0  0  0  0  0  0  0  0  0  0  0
  128.3851  140.3710  175.0469 C   0  0  0  0  0  0  0  0  0  0  0  0
  128.1846  141.8455  174.7863 C   0  0  0  0  0  0  0  0  0  0  0  0
  128.1286  142.7584  175.8502 C   0  0  0  0  0  0  0  0  0  0  0  0
  127.9519  144.1246  175.6111 C   0  0  0  0  0  0  0  0  0  0  0  0
  127.8107  144.6059  174.3049 C   0  0  0  0  0  0  0  0  0  0  0  0
  127.8833  143.6980  173.2415 C   0  0  0  0  0  0  0  0  0  0  0  0
  128.0601  142.3312  173.4777 C   0  0  0  0  0  0  0  0  0  0  0  0
  127.6192  146.0300  174.0225 C   0  0  0  0  0  0  0  0  0  0  0  0
  126.4470  146.6415  174.0072 N   0  0  0  0  0  0  0  0  0  0  0  0
  126.6837  147.9736  173.6969 C   0  0  0  0  0  0  0  0  0  0  0  0
  128.0455  148.1656  173.5533 C   0  0  0  0  0  0  0  0  0  0  0  0
  128.6227  146.9456  173.7829 N   0  0  0  0  0  0  0  0  0  0  0  0
  130.0462  146.7108  173.8323 C   0  0  0  0  0  0  0  0  0  0  0  0
  125.5764  148.9779  173.5635 C   0  0  0  0  0  0  0  0  0  0  0  0
  124.3804  148.4877  173.9839 F   0  0  0  0  0  0  0  0  0  0  0  0
  125.8143  150.1134  174.2717 F   0  0  0  0  0  0  0  0  0  0  0  0
  125.3975  149.3641  172.2686 F   0  0  0  0  0  0  0  0  0  0  0  0
  132.2769  137.7511  171.7735 H   0  0  0  0  0  0  0  0  0  0  0  0
  133.8682  139.1634  173.7059 H   0  0  0  0  0  0  0  0  0  0  0  0
  134.6490  140.5567  175.5391 H   0  0  0  0  0  0  0  0  0  0  0  0
  130.6746  141.4549  176.6095 H   0  0  0  0  0  0  0  0  0  0  0  0
  125.1853  135.9498  168.6904 H   0  0  0  0  0  0  0  0  0  0  0  0
  128.5173  139.4486  169.9461 H   0  0  0  0  0  0  0  0  0  0  0  0
  125.8039  140.0443  168.3974 H   0  0  0  0  0  0  0  0  0  0  0  0
  126.7852  141.1723  168.1577 H   0  0  0  0  0  0  0  0  0  0  0  0
  125.6080  140.2549  170.9468 H   0  0  0  0  0  0  0  0  0  0  0  0
  126.5555  141.4190  171.1455 H   0  0  0  0  0  0  0  0  0  0  0  0
  128.9632  133.2005  171.8441 H   0  0  0  0  0  0  0  0  0  0  0  0
  128.9306  133.8074  170.2059 H   0  0  0  0  0  0  0  0  0  0  0  0
  127.4393  133.3754  171.0073 H   0  0  0  0  0  0  0  0  0  0  0  0
  135.2616  141.7543  179.2880 H   0  0  0  0  0  0  0  0  0  0  0  0
  134.2830  141.9333  180.7245 H   0  0  0  0  0  0  0  0  0  0  0  0
  134.3128  143.2025  179.5239 H   0  0  0  0  0  0  0  0  0  0  0  0
  128.4059  140.2058  176.1039 H   0  0  0  0  0  0  0  0  0  0  0  0
  127.5763  139.8397  174.5903 H   0  0  0  0  0  0  0  0  0  0  0  0
  128.2188  142.4177  176.8201 H   0  0  0  0  0  0  0  0  0  0  0  0
  127.9254  144.7836  176.4048 H   0  0  0  0  0  0  0  0  0  0  0  0
  127.8054  144.0418  172.2716 H   0  0  0  0  0  0  0  0  0  0  0  0
  128.0992  141.6750  172.6821 H   0  0  0  0  0  0  0  0  0  0  0  0
  128.5279  149.0478  173.3207 H   0  0  0  0  0  0  0  0  0  0  0  0
  130.5654  147.6167  173.5986 H   0  0  0  0  0  0  0  0  0  0  0  0
  130.3081  145.9559  173.1207 H   0  0  0  0  0  0  0  0  0  0  0  0
  130.3202  146.3858  174.8142 H   0  0  0  0  0  0  0  0  0  0  0  0
  1  2  2  0
  2  3  1  0
  3  4  2  0
  3 48  1  0
  4  5  1  0
  5  6  2  0
  6  7  1  0
  6 49  1  0
  7  8  2  0
  7 50  1  0
  8 25  1  0
  8  9  1  0
  9 10  2  0
  9 51  1  0
 10 11  1  0
 10  5  1  0
 11 31  1  0
 11 12  1  0
 12 13  2  0
 12  4  1  0
 13  1  1  0
 14 15  2  0
 15 16  1  0
 16 17  2  0
 16 52  1  0
 17 18  1  0
 18 20  1  0
 18 19  2  0
 19  1  1  0
 19 14  1  0
 20 21  1  0
 20 53  1  0
 21 22  1  0
 21 54  1  0
 21 55  1  0
 22 20  1  0
 22 56  1  0
 22 57  1  0
 23 24  1  0
 23 58  1  0
 23 59  1  0
 23 60  1  0
 24 14  1  0
 25 27  1  0
 25 26  1  0
 27 28  1  0
 27 29  2  0
 27 30  2  0
 28 61  1  0
 28 62  1  0
 28 63  1  0
 31 32  1  0
 31 64  1  0
 31 65  1  0
 32 33  2  0
 33 34  1  0
 33 66  1  0
 34 35  2  0
 34 67  1  0
 35 38  1  0
 35 36  1  0
 36 37  2  0
 36 68  1  0
 37 32  1  0
 37 69  1  0
 38 39  2  0
 39 40  1  0
 40 44  1  0
 40 41  2  0
 41 42  1  0
 41 70  1  0
 42 43  1  0
 42 38  1  0
 43 71  1  0
 43 72  1  0
 43 73  1  0
 44 45  1  0
 44 46  1  0
 44 47  1  0
M  END
>  <minimizedAffinity>  (2) 
-10.01441

>  <mol_id>  (2) 
55799

>  <source_index>  (2) 
1

>  <layer>  (2) 
L4

>  <uniprot>  (2) 
O94782

>  <paff>  (2) 
8.1420999999999992

>  <smiles>  (2) 
COc1ncnc(C2CC2)c1-c1ncc2c3ccc(NS(C)(=O)=O)cc3n(Cc3ccc(-c4nc(C(F)(F)F)cn4C)cc3)c2n1

$$$$
L4:O94782:63266
     RDKit          3D

 68 75  0  0  0  0  0  0  0  0999 V2000
  129.1754  137.6123  171.3540 C   0  0  0  0  0  0  0  0  0  0  0  0
  130.3523  137.2693  170.7815 N   0  0  0  0  0  0  0  0  0  0  0  0
  131.4957  137.6971  171.3608 C   0  0  0  0  0  0  0  0  0  0  0  0
  131.4381  138.4817  172.5085 C   0  0  0  0  0  0  0  0  0  0  0  0
  132.3802  139.1016  173.3782 C   0  0  0  0  0  0  0  0  0  0  0  0
  133.7818  139.1616  173.4123 C   0  0  0  0  0  0  0  0  0  0  0  0
  134.3482  139.8760  174.4552 C   0  0  0  0  0  0  0  0  0  0  0  0
  133.6489  140.5030  175.4234 N   0  0  0  0  0  0  0  0  0  0  0  0
  132.2989  140.4493  175.4024 C   0  0  0  0  0  0  0  0  0  0  0  0
  131.6557  139.7577  174.3799 C   0  0  0  0  0  0  0  0  0  0  0  0
  130.3139  139.5603  174.1072 N   0  0  0  0  0  0  0  0  0  0  0  0
  130.1727  138.7720  172.9904 C   0  0  0  0  0  0  0  0  0  0  0  0
  129.0056  138.3663  172.4603 N   0  0  0  0  0  0  0  0  0  0  0  0
  127.5788  135.8414  170.6499 C   0  0  0  0  0  0  0  0  0  0  0  0
  126.4632  135.3893  170.0413 N   0  0  0  0  0  0  0  0  0  0  0  0
  125.7212  136.3215  169.4418 C   0  0  0  0  0  0  0  0  0  0  0  0
  125.9880  137.6314  169.4013 N   0  0  0  0  0  0  0  0  0  0  0  0
  127.1215  138.0608  170.0173 C   0  0  0  0  0  0  0  0  0  0  0  0
  127.9691  137.1719  170.6784 C   0  0  0  0  0  0  0  0  0  0  0  0
  127.4044  139.5524  169.9630 C   0  0  0  0  0  0  0  0  0  0  0  0
  126.3492  140.5470  170.3900 C   0  0  0  0  0  0  0  0  0  0  0  0
  126.7080  140.4221  168.9408 C   0  0  0  0  0  0  0  0  0  0  0  0
  128.4184  133.6434  170.7011 C   0  0  0  0  0  0  0  0  0  0  0  0
  128.3773  134.9267  171.3164 O   0  0  0  0  0  0  0  0  0  0  0  0
  129.1953  140.0717  174.8892 C   0  0  0  0  0  0  0  0  0  0  0  0
  128.8915  141.5085  174.5461 C   0  0  0  0  0  0  0  0  0  0  0  0
  127.6551  141.8603  174.0188 C   0  0  0  0  0  0  0  0  0  0  0  0
  127.3982  143.1848  173.6605 C   0  0  0  0  0  0  0  0  0  0  0  0
  128.3519  144.2191  173.8129 C   0  0  0  0  0  0  0  0  0  0  0  0
  129.5966  143.8779  174.3764 C   0  0  0  0  0  0  0  0  0  0  0  0
  129.8444  142.5200  174.7177 C   0  0  0  0  0  0  0  0  0  0  0  0
  130.7675  144.7976  174.6343 C   0  0  0  0  0  0  0  0  0  0  0  0
  130.5211  146.2941  174.7082 C   0  0  0  0  0  0  0  0  0  0  0  0
  130.0924  146.8409  173.3628 C   0  0  0  0  0  0  0  0  0  0  0  0
  128.6749  146.6796  173.1382 N   0  0  0  0  0  0  0  0  0  0  0  0
  127.8650  147.6840  172.6745 C   0  0  0  0  0  0  0  0  0  0  0  0
  126.5959  147.1492  172.6125 C   0  0  0  0  0  0  0  0  0  0  0  0
  126.6523  145.8332  173.0365 N   0  0  0  0  0  0  0  0  0  0  0  0
  127.9119  145.5537  173.3504 C   0  0  0  0  0  0  0  0  0  0  0  0
  125.3180  147.8009  172.1725 C   0  0  0  0  0  0  0  0  0  0  0  0
  125.4985  149.0932  171.7921 F   0  0  0  0  0  0  0  0  0  0  0  0
  124.3912  147.8215  173.1714 F   0  0  0  0  0  0  0  0  0  0  0  0
  124.7388  147.1538  171.1268 F   0  0  0  0  0  0  0  0  0  0  0  0
  132.4090  137.4426  170.9532 H   0  0  0  0  0  0  0  0  0  0  0  0
  134.3616  138.6967  172.6962 H   0  0  0  0  0  0  0  0  0  0  0  0
  135.3779  139.9325  174.4942 H   0  0  0  0  0  0  0  0  0  0  0  0
  131.7486  140.9177  176.1392 H   0  0  0  0  0  0  0  0  0  0  0  0
  124.8628  136.0029  168.9657 H   0  0  0  0  0  0  0  0  0  0  0  0
  128.4220  139.3623  170.2337 H   0  0  0  0  0  0  0  0  0  0  0  0
  126.6307  141.4229  170.9364 H   0  0  0  0  0  0  0  0  0  0  0  0
  125.4394  140.4885  170.9501 H   0  0  0  0  0  0  0  0  0  0  0  0
  127.2454  141.2088  168.4538 H   0  0  0  0  0  0  0  0  0  0  0  0
  126.1599  140.2377  168.0405 H   0  0  0  0  0  0  0  0  0  0  0  0
  129.0516  132.9952  171.2701 H   0  0  0  0  0  0  0  0  0  0  0  0
  128.8040  133.7365  169.7074 H   0  0  0  0  0  0  0  0  0  0  0  0
  127.4305  133.2341  170.6634 H   0  0  0  0  0  0  0  0  0  0  0  0
  129.4396  140.0068  175.9289 H   0  0  0  0  0  0  0  0  0  0  0  0
  128.3310  139.4828  174.6632 H   0  0  0  0  0  0  0  0  0  0  0  0
  126.9256  141.1414  173.8919 H   0  0  0  0  0  0  0  0  0  0  0  0
  126.4733  143.4197  173.2677 H   0  0  0  0  0  0  0  0  0  0  0  0
  130.7660  142.2692  175.1086 H   0  0  0  0  0  0  0  0  0  0  0  0
  131.4747  144.6340  173.8482 H   0  0  0  0  0  0  0  0  0  0  0  0
  131.0861  144.5392  175.6225 H   0  0  0  0  0  0  0  0  0  0  0  0
  131.4230  146.7825  175.0131 H   0  0  0  0  0  0  0  0  0  0  0  0
  129.7387  146.4761  175.4150 H   0  0  0  0  0  0  0  0  0  0  0  0
  130.6250  146.3217  172.5936 H   0  0  0  0  0  0  0  0  0  0  0  0
  130.3117  147.8881  173.3474 H   0  0  0  0  0  0  0  0  0  0  0  0
  128.1477  148.6442  172.4232 H   0  0  0  0  0  0  0  0  0  0  0  0
  1  2  2  0
  2  3  1  0
  3  4  2  0
  3 44  1  0
  4  5  1  0
  5  6  2  0
  6  7  1  0
  6 45  1  0
  7  8  2  0
  7 46  1  0
  8  9  1  0
  9 10  2  0
  9 47  1  0
 10 11  1  0
 10  5  1  0
 11 25  1  0
 11 12  1  0
 12 13  2  0
 12  4  1  0
 13  1  1  0
 14 15  2  0
 15 16  1  0
 16 17  2  0
 16 48  1  0
 17 18  1  0
 18 20  1  0
 18 19  2  0
 19  1  1  0
 19 14  1  0
 20 21  1  0
 20 49  1  0
 21 22  1  0
 21 50  1  0
 21 51  1  0
 22 20  1  0
 22 52  1  0
 22 53  1  0
 23 24  1  0
 23 54  1  0
 23 55  1  0
 23 56  1  0
 24 14  1  0
 25 26  1  0
 25 57  1  0
 25 58  1  0
 26 27  2  0
 27 28  1  0
 27 59  1  0
 28 29  2  0
 28 60  1  0
 29 30  1  0
 30 31  2  0
 30 32  1  0
 31 26  1  0
 31 61  1  0
 32 33  1  0
 32 62  1  0
 32 63  1  0
 33 34  1  0
 33 64  1  0
 33 65  1  0
 34 35  1  0
 34 66  1  0
 34 67  1  0
 35 36  1  0
 36 37  2  0
 36 68  1  0
 37 40  1  0
 37 38  1  0
 38 39  2  0
 39 35  1  0
 39 29  1  0
 40 41  1  0
 40 42  1  0
 40 43  1  0
M  END
>  <minimizedAffinity>  (3) 
-11.04289

>  <mol_id>  (3) 
63266

>  <source_index>  (3) 
2

>  <layer>  (3) 
L4

>  <uniprot>  (3) 
O94782

>  <paff>  (3) 
8.5030999999999999

>  <smiles>  (3) 
COc1ncnc(C2CC2)c1-c1ncc2c3ccncc3n(Cc3ccc4c(c3)CCCn3cc(C(F)(F)F)nc3-4)c2n1

$$$$
L4:O94782:82334
     RDKit          3D

 75 81  0  0  0  0  0  0  0  0999 V2000
  134.0249  140.1298  175.0028 C   0  0  0  0  0  0  0  0  0  0  0  0
  133.1701  140.7103  175.9380 C   0  0  0  0  0  0  0  0  0  0  0  0
  131.7791  140.6279  175.8152 C   0  0  0  0  0  0  0  0  0  0  0  0
  131.2559  139.9341  174.7140 C   0  0  0  0  0  0  0  0  0  0  0  0
  132.0889  139.3324  173.7626 C   0  0  0  0  0  0  0  0  0  0  0  0
  133.4919  139.4370  173.9118 C   0  0  0  0  0  0  0  0  0  0  0  0
  131.2490  138.6964  172.8031 C   0  0  0  0  0  0  0  0  0  0  0  0
  131.4362  137.9399  171.6503 C   0  0  0  0  0  0  0  0  0  0  0  0
  130.3655  137.4640  170.9770 N   0  0  0  0  0  0  0  0  0  0  0  0
  129.1314  137.7515  171.4505 C   0  0  0  0  0  0  0  0  0  0  0  0
  128.8361  138.4544  172.5642 N   0  0  0  0  0  0  0  0  0  0  0  0
  129.9366  138.9148  173.1866 C   0  0  0  0  0  0  0  0  0  0  0  0
  129.9507  139.6932  174.3191 N   0  0  0  0  0  0  0  0  0  0  0  0
  128.0085  137.2037  170.7130 C   0  0  0  0  0  0  0  0  0  0  0  0
  127.6938  135.8529  170.7386 C   0  0  0  0  0  0  0  0  0  0  0  0
  126.6640  135.2986  170.0656 N   0  0  0  0  0  0  0  0  0  0  0  0
  125.9297  136.1464  169.3446 C   0  0  0  0  0  0  0  0  0  0  0  0
  126.1341  137.4635  169.2341 N   0  0  0  0  0  0  0  0  0  0  0  0
  127.1744  137.9988  169.9285 C   0  0  0  0  0  0  0  0  0  0  0  0
  127.3863  139.4975  169.7867 C   0  0  0  0  0  0  0  0  0  0  0  0
  126.4481  140.3093  168.9214 C   0  0  0  0  0  0  0  0  0  0  0  0
  126.4138  140.4735  170.4095 C   0  0  0  0  0  0  0  0  0  0  0  0
  128.5192  135.0198  171.4747 O   0  0  0  0  0  0  0  0  0  0  0  0
  128.5785  133.6850  170.9845 C   0  0  0  0  0  0  0  0  0  0  0  0
  135.6995  141.2396  176.2803 C   0  0  0  0  0  0  0  0  0  0  0  0
  135.3567  140.3011  175.2686 O   0  0  0  0  0  0  0  0  0  0  0  0
  128.7492  140.1459  175.0064 C   0  0  0  0  0  0  0  0  0  0  0  0
  128.4687  141.6062  174.7432 C   0  0  0  0  0  0  0  0  0  0  0  0
  128.2556  142.5011  175.8005 C   0  0  0  0  0  0  0  0  0  0  0  0
  128.0124  143.8535  175.5464 C   0  0  0  0  0  0  0  0  0  0  0  0
  127.9658  144.3348  174.2337 C   0  0  0  0  0  0  0  0  0  0  0  0
  128.2044  143.4500  173.1768 C   0  0  0  0  0  0  0  0  0  0  0  0
  128.4512  142.0982  173.4295 C   0  0  0  0  0  0  0  0  0  0  0  0
  127.7050  145.7531  173.9919 C   0  0  0  0  0  0  0  0  0  0  0  0
  126.4987  146.2858  173.9175 N   0  0  0  0  0  0  0  0  0  0  0  0
  126.6642  147.6430  173.6942 C   0  0  0  0  0  0  0  0  0  0  0  0
  128.0150  147.9221  173.6089 C   0  0  0  0  0  0  0  0  0  0  0  0
  128.6636  146.7227  173.7685 N   0  0  0  0  0  0  0  0  0  0  0  0
  125.5058  148.5895  173.5757 C   0  0  0  0  0  0  0  0  0  0  0  0
  125.2388  148.9089  172.2803 F   0  0  0  0  0  0  0  0  0  0  0  0
  125.6994  149.7583  174.2421 F   0  0  0  0  0  0  0  0  0  0  0  0
  124.3622  148.0441  174.0788 F   0  0  0  0  0  0  0  0  0  0  0  0
  130.1074  146.5287  173.6504 C   0  0  0  0  0  0  0  0  0  0  0  0
  130.7045  145.9593  174.9376 C   0  0  0  0  0  0  0  0  0  0  0  0
  130.8149  147.8193  173.2318 C   0  0  0  0  0  0  0  0  0  0  0  0
  133.5742  141.2145  176.7427 H   0  0  0  0  0  0  0  0  0  0  0  0
  131.1568  141.0642  176.5134 H   0  0  0  0  0  0  0  0  0  0  0  0
  134.1200  139.0032  173.2173 H   0  0  0  0  0  0  0  0  0  0  0  0
  132.3904  137.7427  171.3103 H   0  0  0  0  0  0  0  0  0  0  0  0
  125.1311  135.7503  168.8246 H   0  0  0  0  0  0  0  0  0  0  0  0
  128.4448  139.3493  169.8372 H   0  0  0  0  0  0  0  0  0  0  0  0
  125.6353  139.8288  168.4181 H   0  0  0  0  0  0  0  0  0  0  0  0
  126.5711  140.9732  168.0913 H   0  0  0  0  0  0  0  0  0  0  0  0
  125.5764  140.1102  170.9677 H   0  0  0  0  0  0  0  0  0  0  0  0
  126.5022  141.3031  171.0794 H   0  0  0  0  0  0  0  0  0  0  0  0
  129.2327  133.1067  171.6029 H   0  0  0  0  0  0  0  0  0  0  0  0
  128.9485  133.6899  169.9805 H   0  0  0  0  0  0  0  0  0  0  0  0
  127.5989  133.2549  171.0016 H   0  0  0  0  0  0  0  0  0  0  0  0
  136.7635  141.2763  176.3870 H   0  0  0  0  0  0  0  0  0  0  0  0
  135.2581  140.9410  177.2081 H   0  0  0  0  0  0  0  0  0  0  0  0
  135.3349  142.2077  176.0071 H   0  0  0  0  0  0  0  0  0  0  0  0
  128.8774  140.0021  176.0589 H   0  0  0  0  0  0  0  0  0  0  0  0
  127.9213  139.5767  174.6383 H   0  0  0  0  0  0  0  0  0  0  0  0
  128.2785  142.1588  176.7738 H   0  0  0  0  0  0  0  0  0  0  0  0
  127.8658  144.5034  176.3346 H   0  0  0  0  0  0  0  0  0  0  0  0
  128.1981  143.7976  172.2051 H   0  0  0  0  0  0  0  0  0  0  0  0
  128.6225  141.4546  172.6412 H   0  0  0  0  0  0  0  0  0  0  0  0
  128.4487  148.8460  173.4560 H   0  0  0  0  0  0  0  0  0  0  0  0
  130.2684  145.8083  172.8758 H   0  0  0  0  0  0  0  0  0  0  0  0
  130.5608  146.6566  175.7364 H   0  0  0  0  0  0  0  0  0  0  0  0
  131.7513  145.7864  174.7992 H   0  0  0  0  0  0  0  0  0  0  0  0
  130.2193  145.0365  175.1781 H   0  0  0  0  0  0  0  0  0  0  0  0
  130.6738  148.5644  173.9867 H   0  0  0  0  0  0  0  0  0  0  0  0
  130.4049  148.1669  172.3066 H   0  0  0  0  0  0  0  0  0  0  0  0
  131.8607  147.6292  173.1094 H   0  0  0  0  0  0  0  0  0  0  0  0
  1  2  2  0
  2  3  1  0
  2 46  1  0
  3  4  2  0
  3 47  1  0
  4  5  1  0
  5  6  2  0
  5  7  1  0
  6  1  1  0
  6 48  1  0
  7  8  2  0
  8  9  1  0
  8 49  1  0
  9 10  2  0
 10 14  1  0
 10 11  1  0
 11 12  2  0
 12 13  1  0
 12  7  1  0
 13 27  1  0
 13  4  1  0
 14 15  2  0
 15 23  1  0
 15 16  1  0
 16 17  2  0
 17 18  1  0
 17 50  1  0
 18 19  2  0
 19 20  1  0
 19 14  1  0
 20 21  1  0
 20 51  1  0
 21 22  1  0
 21 52  1  0
 21 53  1  0
 22 20  1  0
 22 54  1  0
 22 55  1  0
 23 24  1  0
 24 56  1  0
 24 57  1  0
 24 58  1  0
 25 26  1  0
 25 59  1  0
 25 60  1  0
 25 61  1  0
 26  1  1  0
 27 28  1  0
 27 62  1  0
 27 63  1  0
 28 29  2  0
 29 30  1  0
 29 64  1  0
 30 31  2  0
 30 65  1  0
 31 34  1  0
 31 32  1  0
 32 33  2  0
 32 66  1  0
 33 28  1  0
 33 67  1  0
 34 35  2  0
 35 36  1  0
 36 39  1  0
 36 37  2  0
 37 38  1  0
 37 68  1  0
 38 43  1  0
 38 34  1  0
 39 40  1  0
 39 41  1  0
 39 42  1  0
 43 44  1  0
 43 45  1  0
 43 69  1  0
 44 70  1  0
 44 71  1  0
 44 72  1  0
 45 73  1  0
 45 74  1  0
 45 75  1  0
M  END
>  <minimizedAffinity>  (4) 
-10.82919

>  <mol_id>  (4) 
82334

>  <source_index>  (4) 
3

>  <layer>  (4) 
L4

>  <uniprot>  (4) 
O94782

>  <paff>  (4) 
7.5834000000000001

>  <smiles>  (4) 
COc1ccc2c(c1)c1cnc(-c3c(OC)ncnc3C3CC3)nc1n2Cc1ccc(-c2nc(C(F)(F)F)cn2C(C)C)cc1

$$$$
L4:O94782:82471
     RDKit          3D

 73 78  0  0  0  0  0  0  0  0999 V2000
  133.0926  140.6256  175.5394 N   0  0  0  0  0  0  0  0  0  0  0  0
  134.0842  141.1992  176.4663 C   0  0  0  0  0  0  0  0  0  0  0  0
  135.4555  140.5744  176.2212 C   0  0  0  0  0  0  0  0  0  0  0  0
  135.3926  139.0565  176.3565 C   0  0  0  0  0  0  0  0  0  0  0  0
  134.3280  138.4869  175.4234 C   0  0  0  0  0  0  0  0  0  0  0  0
  132.9552  139.1493  175.6608 C   0  0  2  0  0  0  0  0  0  0  0  0
  129.9637  142.3722  175.0507 C   0  0  0  0  0  0  0  0  0  0  0  0
  129.4431  142.5106  176.2870 N   0  0  0  0  0  0  0  0  0  0  0  0
  130.1900  142.0089  177.2924 C   0  0  0  0  0  0  0  0  0  0  0  0
  131.3947  141.3776  177.1008 C   0  0  0  0  0  0  0  0  0  0  0  0
  132.0801  140.8842  178.1406 F   0  0  0  0  0  0  0  0  0  0  0  0
  131.8502  141.2780  175.7927 C   0  0  0  0  0  0  0  0  0  0  0  0
  131.1307  141.7633  174.7571 N   0  0  0  0  0  0  0  0  0  0  0  0
  128.0930  142.0959  173.4395 C   0  0  0  0  0  0  0  0  0  0  0  0
  127.3198  142.4895  172.4067 N   0  0  0  0  0  0  0  0  0  0  0  0
  127.6454  143.6637  171.8615 C   0  0  0  0  0  0  0  0  0  0  0  0
  128.6471  144.4603  172.2506 N   0  0  0  0  0  0  0  0  0  0  0  0
  129.4069  144.0440  173.2980 C   0  0  0  0  0  0  0  0  0  0  0  0
  129.1620  142.8262  173.9338 C   0  0  0  0  0  0  0  0  0  0  0  0
  130.5343  144.9636  173.7400 C   0  0  0  0  0  0  0  0  0  0  0  0
  130.3143  145.9112  174.9016 C   0  0  0  0  0  0  0  0  0  0  0  0
  130.4441  146.4565  173.5118 C   0  0  0  0  0  0  0  0  0  0  0  0
  126.6532  140.9095  174.8711 C   0  0  0  0  0  0  0  0  0  0  0  0
  127.8123  140.8809  174.0442 O   0  0  0  0  0  0  0  0  0  0  0  0
  131.9488  138.6024  174.6494 C   0  0  0  0  0  0  0  0  0  0  0  0
  130.7322  138.0392  175.0660 C   0  0  0  0  0  0  0  0  0  0  0  0
  129.8375  137.5104  174.1339 C   0  0  0  0  0  0  0  0  0  0  0  0
  130.1444  137.5218  172.7688 C   0  0  0  0  0  0  0  0  0  0  0  0
  131.3409  138.1101  172.3445 C   0  0  0  0  0  0  0  0  0  0  0  0
  132.2387  138.6388  173.2768 C   0  0  0  0  0  0  0  0  0  0  0  0
  129.1998  136.9392  171.8178 C   0  0  0  0  0  0  0  0  0  0  0  0
  129.2242  135.6758  171.4291 N   0  0  0  0  0  0  0  0  0  0  0  0
  128.1881  135.5046  170.5252 C   0  0  0  0  0  0  0  0  0  0  0  0
  127.5325  136.7111  170.3621 C   0  0  0  0  0  0  0  0  0  0  0  0
  128.1951  137.6180  171.1539 N   0  0  0  0  0  0  0  0  0  0  0  0
  127.8922  134.1868  169.8696 C   0  0  0  0  0  0  0  0  0  0  0  0
  126.5943  134.0515  169.4894 F   0  0  0  0  0  0  0  0  0  0  0  0
  128.6542  133.9941  168.7580 F   0  0  0  0  0  0  0  0  0  0  0  0
  128.1629  133.1423  170.7024 F   0  0  0  0  0  0  0  0  0  0  0  0
  127.9009  139.0493  171.2149 C   0  0  0  0  0  0  0  0  0  0  0  0
  126.4707  139.3411  170.7616 C   0  0  0  0  0  0  0  0  0  0  0  0
  128.9143  139.8738  170.4169 C   0  0  0  0  0  0  0  0  0  0  0  0
  133.7813  141.0037  177.4737 H   0  0  0  0  0  0  0  0  0  0  0  0
  134.1464  142.2548  176.3028 H   0  0  0  0  0  0  0  0  0  0  0  0
  136.1502  140.9617  176.9370 H   0  0  0  0  0  0  0  0  0  0  0  0
  135.7696  140.8169  175.2275 H   0  0  0  0  0  0  0  0  0  0  0  0
  135.1497  138.8017  177.3669 H   0  0  0  0  0  0  0  0  0  0  0  0
  136.3439  138.6433  176.0936 H   0  0  0  0  0  0  0  0  0  0  0  0
  134.2409  137.4346  175.5966 H   0  0  0  0  0  0  0  0  0  0  0  0
  134.6257  138.6836  174.4146 H   0  0  0  0  0  0  0  0  0  0  0  0
  132.6003  138.9244  176.6449 H   0  0  0  0  0  0  0  0  0  0  0  0
  129.8371  142.1047  178.2574 H   0  0  0  0  0  0  0  0  0  0  0  0
  127.0716  143.9866  171.0668 H   0  0  0  0  0  0  0  0  0  0  0  0
  131.2474  144.2044  173.4950 H   0  0  0  0  0  0  0  0  0  0  0  0
  131.0958  146.0733  175.6143 H   0  0  0  0  0  0  0  0  0  0  0  0
  129.5853  145.9946  175.6804 H   0  0  0  0  0  0  0  0  0  0  0  0
  131.3180  147.0079  173.2341 H   0  0  0  0  0  0  0  0  0  0  0  0
  129.8453  147.0898  172.8911 H   0  0  0  0  0  0  0  0  0  0  0  0
  126.4989  139.9426  175.3025 H   0  0  0  0  0  0  0  0  0  0  0  0
  125.8012  141.1772  174.2818 H   0  0  0  0  0  0  0  0  0  0  0  0
  126.7886  141.6302  175.6503 H   0  0  0  0  0  0  0  0  0  0  0  0
  130.4971  138.0159  176.0706 H   0  0  0  0  0  0  0  0  0  0  0  0
  128.9428  137.1080  174.4542 H   0  0  0  0  0  0  0  0  0  0  0  0
  131.5620  138.1540  171.3374 H   0  0  0  0  0  0  0  0  0  0  0  0
  133.1232  139.0599  172.9524 H   0  0  0  0  0  0  0  0  0  0  0  0
  126.7105  136.8938  169.7655 H   0  0  0  0  0  0  0  0  0  0  0  0
  127.9874  139.3462  172.2392 H   0  0  0  0  0  0  0  0  0  0  0  0
  126.3553  139.0530  169.7376 H   0  0  0  0  0  0  0  0  0  0  0  0
  126.2711  140.3875  170.8624 H   0  0  0  0  0  0  0  0  0  0  0  0
  125.7845  138.7871  171.3675 H   0  0  0  0  0  0  0  0  0  0  0  0
  128.8580  139.6044  169.3829 H   0  0  0  0  0  0  0  0  0  0  0  0
  129.9005  139.6785  170.7832 H   0  0  0  0  0  0  0  0  0  0  0  0
  128.6927  140.9148  170.5268 H   0  0  0  0  0  0  0  0  0  0  0  0
  1  2  1  0
  2  3  1  0
  2 43  1  0
  2 44  1  0
  3  4  1  0
  3 45  1  0
  3 46  1  0
  4  5  1  0
  4 47  1  0
  4 48  1  0
  5  6  1  0
  5 49  1  0
  5 50  1  0
  6 25  1  0
  6  1  1  0
  6 51  1  1
  7  8  2  0
  8  9  1  0
  9 10  2  0
  9 52  1  0
 10 11  1  0
 10 12  1  0
 12  1  1  0
 12 13  2  0
 13  7  1  0
 14 15  2  0
 15 16  1  0
 16 17  2  0
 16 53  1  0
 17 18  1  0
 18 20  1  0
 18 19  2  0
 19  7  1  0
 19 14  1  0
 20 21  1  0
 20 54  1  0
 21 22  1  0
 21 55  1  0
 21 56  1  0
 22 20  1  0
 22 57  1  0
 22 58  1  0
 23 24  1  0
 23 59  1  0
 23 60  1  0
 23 61  1  0
 24 14  1  0
 25 26  2  0
 26 27  1  0
 26 62  1  0
 27 28  2  0
 27 63  1  0
 28 31  1  0
 28 29  1  0
 29 30  2  0
 29 64  1  0
 30 25  1  0
 30 65  1  0
 31 32  2  0
 32 33  1  0
 33 36  1  0
 33 34  2  0
 34 35  1  0
 34 66  1  0
 35 40  1  0
 35 31  1  0
 36 37  1  0
 36 38  1  0
 36 39  1  0
 40 41  1  0
 40 42  1  0
 40 67  1  0
 41 68  1  0
 41 69  1  0
 41 70  1  0
 42 71  1  0
 42 72  1  0
 42 73  1  0
M  END
>  <minimizedAffinity>  (5) 
-8.80829

>  <mol_id>  (5) 
82471

>  <source_index>  (5) 
4

>  <layer>  (5) 
L4

>  <uniprot>  (5) 
O94782

>  <paff>  (5) 
6.5057

>  <smiles>  (5) 
COc1ncnc(C2CC2)c1-c1ncc(F)c(N2CCCCC2c2ccc(-c3nc(C(F)(F)F)cn3C(C)C)cc2)n1

$$$$
L4:O94782:104572
     RDKit          3D

 66 70  0  0  0  0  0  0  0  0999 V2000
  130.9548  138.9669  173.3192 C   0  0  0  0  0  0  0  0  0  0  0  0
  131.2302  138.4605  172.0655 C   0  0  0  0  0  0  0  0  0  0  0  0
  130.3044  137.9165  171.2505 N   0  0  0  0  0  0  0  0  0  0  0  0
  129.0523  137.8696  171.7379 C   0  0  0  0  0  0  0  0  0  0  0  0
  128.6690  138.3383  172.9382 N   0  0  0  0  0  0  0  0  0  0  0  0
  129.6197  138.8780  173.7240 C   0  0  0  0  0  0  0  0  0  0  0  0
  128.0234  137.3209  170.8796 C   0  0  0  0  0  0  0  0  0  0  0  0
  127.7753  135.9593  170.7990 C   0  0  0  0  0  0  0  0  0  0  0  0
  126.8337  135.4040  170.0090 N   0  0  0  0  0  0  0  0  0  0  0  0
  126.1245  136.2632  169.2751 C   0  0  0  0  0  0  0  0  0  0  0  0
  126.2682  137.5932  169.2642 N   0  0  0  0  0  0  0  0  0  0  0  0
  127.2183  138.1279  170.0772 C   0  0  0  0  0  0  0  0  0  0  0  0
  127.3710  139.6398  170.0538 C   0  0  0  0  0  0  0  0  0  0  0  0
  126.1679  140.5230  170.3016 C   0  0  0  0  0  0  0  0  0  0  0  0
  126.7636  140.4500  168.9296 C   0  0  0  0  0  0  0  0  0  0  0  0
  128.5544  135.1219  171.5804 O   0  0  0  0  0  0  0  0  0  0  0  0
  128.3634  133.7385  171.3075 C   0  0  0  0  0  0  0  0  0  0  0  0
  133.2314  139.3179  173.9001 C   0  0  0  0  0  0  0  0  0  0  0  0
  131.8535  139.5127  174.1942 O   0  0  0  0  0  0  0  0  0  0  0  0
  129.2514  139.4524  174.9644 N   0  0  0  0  0  0  0  0  0  0  0  0
  129.1469  138.6903  175.6299 H   0  0  0  0  0  0  0  0  0  0  0  0
  128.1016  140.3505  174.9060 C   0  0  0  0  0  0  0  0  0  0  0  0
  128.5628  141.8038  174.7058 C   0  0  0  0  0  0  0  0  0  0  0  0
  128.0140  142.7562  175.7736 C   0  0  0  0  0  0  0  0  0  0  0  0
  128.5394  144.1791  175.5604 C   0  0  0  0  0  0  0  0  0  0  0  0
  128.5647  144.5690  174.1379 N   0  0  0  0  0  0  0  0  0  0  0  0
  127.7082  143.7553  173.2672 C   0  0  0  0  0  0  0  0  0  0  0  0
  128.1712  142.2981  173.2978 C   0  0  0  0  0  0  0  0  0  0  0  0
  128.5035  145.9089  173.8936 C   0  0  0  0  0  0  0  0  0  0  0  0
  127.4613  146.6964  174.0424 N   0  0  0  0  0  0  0  0  0  0  0  0
  127.8680  147.9737  173.6843 C   0  0  0  0  0  0  0  0  0  0  0  0
  129.1912  147.9316  173.2822 C   0  0  0  0  0  0  0  0  0  0  0  0
  129.5682  146.6198  173.3899 N   0  0  0  0  0  0  0  0  0  0  0  0
  130.8342  146.0905  172.9468 C   0  0  0  0  0  0  0  0  0  0  0  0
  126.9493  149.1563  173.7323 C   0  0  0  0  0  0  0  0  0  0  0  0
  127.2583  149.9950  174.7582 F   0  0  0  0  0  0  0  0  0  0  0  0
  126.9682  149.9008  172.5948 F   0  0  0  0  0  0  0  0  0  0  0  0
  125.6546  148.7776  173.9254 F   0  0  0  0  0  0  0  0  0  0  0  0
  132.2056  138.5007  171.7310 H   0  0  0  0  0  0  0  0  0  0  0  0
  125.3983  135.8653  168.6592 H   0  0  0  0  0  0  0  0  0  0  0  0
  128.3485  139.5460  170.4787 H   0  0  0  0  0  0  0  0  0  0  0  0
  126.2714  141.4160  170.8819 H   0  0  0  0  0  0  0  0  0  0  0  0
  125.1904  140.3699  170.7090 H   0  0  0  0  0  0  0  0  0  0  0  0
  127.2920  141.2909  168.5313 H   0  0  0  0  0  0  0  0  0  0  0  0
  126.3866  140.2233  167.9542 H   0  0  0  0  0  0  0  0  0  0  0  0
  128.9956  133.1583  171.9467 H   0  0  0  0  0  0  0  0  0  0  0  0
  128.6100  133.5392  170.2856 H   0  0  0  0  0  0  0  0  0  0  0  0
  127.3410  133.4778  171.4851 H   0  0  0  0  0  0  0  0  0  0  0  0
  133.8271  139.7892  174.6537 H   0  0  0  0  0  0  0  0  0  0  0  0
  133.4568  139.7479  172.9466 H   0  0  0  0  0  0  0  0  0  0  0  0
  133.4469  138.2700  173.8787 H   0  0  0  0  0  0  0  0  0  0  0  0
  127.5517  140.2785  175.8211 H   0  0  0  0  0  0  0  0  0  0  0  0
  127.4827  140.0670  174.0804 H   0  0  0  0  0  0  0  0  0  0  0  0
  129.6281  141.8075  174.8059 H   0  0  0  0  0  0  0  0  0  0  0  0
  128.3183  142.4117  176.7398 H   0  0  0  0  0  0  0  0  0  0  0  0
  126.9466  142.7719  175.7010 H   0  0  0  0  0  0  0  0  0  0  0  0
  129.5344  144.2386  175.9495 H   0  0  0  0  0  0  0  0  0  0  0  0
  127.8759  144.8482  176.0673 H   0  0  0  0  0  0  0  0  0  0  0  0
  127.7671  144.1255  172.2650 H   0  0  0  0  0  0  0  0  0  0  0  0
  126.6976  143.8116  173.6143 H   0  0  0  0  0  0  0  0  0  0  0  0
  129.0218  142.1999  172.6561 H   0  0  0  0  0  0  0  0  0  0  0  0
  127.3455  141.6997  172.9736 H   0  0  0  0  0  0  0  0  0  0  0  0
  129.7727  148.7237  172.9669 H   0  0  0  0  0  0  0  0  0  0  0  0
  131.4571  146.8920  172.6084 H   0  0  0  0  0  0  0  0  0  0  0  0
  130.6716  145.4018  172.1442 H   0  0  0  0  0  0  0  0  0  0  0  0
  131.3133  145.5849  173.7590 H   0  0  0  0  0  0  0  0  0  0  0  0
  1  2  2  0
  2  3  1  0
  2 39  1  0
  3  4  2  0
  4  7  1  0
  4  5  1  0
  5  6  2  0
  6 20  1  0
  6  1  1  0
  7  8  2  0
  8 16  1  0
  8  9  1  0
  9 10  2  0
 10 11  1  0
 10 40  1  0
 11 12  2  0
 12 13  1  0
 12  7  1  0
 13 14  1  0
 13 41  1  0
 14 15  1  0
 14 42  1  0
 14 43  1  0
 15 13  1  0
 15 44  1  0
 15 45  1  0
 16 17  1  0
 17 46  1  0
 17 47  1  0
 17 48  1  0
 18 19  1  0
 18 49  1  0
 18 50  1  0
 18 51  1  0
 19  1  1  0
 20 22  1  0
 20 21  1  0
 22 23  1  0
 22 52  1  0
 22 53  1  0
 23 24  1  0
 23 54  1  0
 24 25  1  0
 24 55  1  0
 24 56  1  0
 25 26  1  0
 25 57  1  0
 25 58  1  0
 26 29  1  0
 26 27  1  0
 27 28  1  0
 27 59  1  0
 27 60  1  0
 28 23  1  0
 28 61  1  0
 28 62  1  0
 29 30  2  0
 30 31  1  0
 31 35  1  0
 31 32  2  0
 32 33  1  0
 32 63  1  0
 33 34  1  0
 33 29  1  0
 34 64  1  0
 34 65  1  0
 34 66  1  0
 35 36  1  0
 35 37  1  0
 35 38  1  0
M  END
>  <minimizedAffinity>  (6) 
-8.74441

>  <mol_id>  (6) 
104572

>  <source_index>  (6) 
5

>  <layer>  (6) 
L4

>  <uniprot>  (6) 
O94782

>  <paff>  (6) 
8.0756999999999994

>  <smiles>  (6) 
COc1cnc(-c2c(OC)ncnc2C2CC2)nc1NCC1CCN(c2nc(C(F)(F)F)cn2C)CC1

$$$$
L4:O94782:107087
     RDKit          3D

 58 63  0  0  0  0  0  0  0  0999 V2000
  128.7577  139.7039  174.7840 N   0  0  0  0  0  0  0  0  0  0  0  0
  129.5135  140.2050  175.2396 H   0  0  0  0  0  0  0  0  0  0  0  0
  129.1532  139.1412  173.5743 C   0  0  0  0  0  0  0  0  0  0  0  0
  128.2676  138.5277  172.7532 N   0  0  0  0  0  0  0  0  0  0  0  0
  128.7040  137.9534  171.6011 C   0  0  0  0  0  0  0  0  0  0  0  0
  129.9674  137.9586  171.1265 N   0  0  0  0  0  0  0  0  0  0  0  0
  130.8420  138.5782  171.9440 C   0  0  0  0  0  0  0  0  0  0  0  0
  132.2342  138.7828  171.8165 C   0  0  0  0  0  0  0  0  0  0  0  0
  132.6229  139.4777  172.9412 C   0  0  0  0  0  0  0  0  0  0  0  0
  131.5566  139.7173  173.7548 O   0  0  0  0  0  0  0  0  0  0  0  0
  130.4723  139.1606  173.1412 C   0  0  0  0  0  0  0  0  0  0  0  0
  127.6760  137.3003  170.7692 C   0  0  0  0  0  0  0  0  0  0  0  0
  127.7072  135.8937  170.6269 C   0  0  0  0  0  0  0  0  0  0  0  0
  126.7452  135.2110  169.8837 C   0  0  0  0  0  0  0  0  0  0  0  0
  125.7266  135.9209  169.2662 C   0  0  0  0  0  0  0  0  0  0  0  0
  125.6837  137.3109  169.3805 C   0  0  0  0  0  0  0  0  0  0  0  0
  126.6547  138.0344  170.1076 C   0  0  0  0  0  0  0  0  0  0  0  0
  126.5623  139.5504  170.1567 C   0  0  0  0  0  0  0  0  0  0  0  0
  126.3243  140.3460  168.8914 C   0  0  0  0  0  0  0  0  0  0  0  0
  127.6651  140.3937  169.5535 C   0  0  0  0  0  0  0  0  0  0  0  0
  127.4754  140.3781  174.7752 C   0  0  0  0  0  0  0  0  0  0  0  0
  128.0704  144.6472  174.2440 C   0  0  0  0  0  0  0  0  0  0  0  0
  128.2245  144.0584  175.5031 C   0  0  0  0  0  0  0  0  0  0  0  0
  128.0365  142.6795  175.6729 C   0  0  0  0  0  0  0  0  0  0  0  0
  127.7054  141.8597  174.5876 C   0  0  0  0  0  0  0  0  0  0  0  0
  127.5556  142.4452  173.3265 C   0  0  0  0  0  0  0  0  0  0  0  0
  127.7465  143.8194  173.1543 C   0  0  0  0  0  0  0  0  0  0  0  0
  130.7745  146.2822  173.5722 C   0  0  0  0  0  0  0  0  0  0  0  0
  129.3807  146.7842  173.6622 C   0  0  0  0  0  0  0  0  0  0  0  0
  128.9537  148.0817  173.4627 C   0  0  0  0  0  0  0  0  0  0  0  0
  127.5778  148.0937  173.7692 C   0  0  0  0  0  0  0  0  0  0  0  0
  127.1684  146.8703  174.1382 N   0  0  0  0  0  0  0  0  0  0  0  0
  128.2499  146.0488  174.0117 N   0  0  0  0  0  0  0  0  0  0  0  0
  126.6543  149.2820  173.7171 C   0  0  0  0  0  0  0  0  0  0  0  0
  126.9135  150.1801  174.7055 F   0  0  0  0  0  0  0  0  0  0  0  0
  125.3511  148.9134  173.8717 F   0  0  0  0  0  0  0  0  0  0  0  0
  126.7222  149.9564  172.5378 F   0  0  0  0  0  0  0  0  0  0  0  0
  132.8379  138.4742  171.0384 H   0  0  0  0  0  0  0  0  0  0  0  0
  133.5905  139.7762  173.1403 H   0  0  0  0  0  0  0  0  0  0  0  0
  128.4615  135.3587  171.0850 H   0  0  0  0  0  0  0  0  0  0  0  0
  126.7909  134.1839  169.7937 H   0  0  0  0  0  0  0  0  0  0  0  0
  125.0031  135.4231  168.7242 H   0  0  0  0  0  0  0  0  0  0  0  0
  124.9182  137.8267  168.9191 H   0  0  0  0  0  0  0  0  0  0  0  0
  126.0854  139.4861  171.1124 H   0  0  0  0  0  0  0  0  0  0  0  0
  125.6873  141.2054  168.9129 H   0  0  0  0  0  0  0  0  0  0  0  0
  125.9770  140.1114  167.9069 H   0  0  0  0  0  0  0  0  0  0  0  0
  127.9851  141.2872  170.0477 H   0  0  0  0  0  0  0  0  0  0  0  0
  128.6700  140.2072  169.2368 H   0  0  0  0  0  0  0  0  0  0  0  0
  126.8771  140.0025  173.9715 H   0  0  0  0  0  0  0  0  0  0  0  0
  126.9665  140.2035  175.7001 H   0  0  0  0  0  0  0  0  0  0  0  0
  128.4787  144.6438  176.3141 H   0  0  0  0  0  0  0  0  0  0  0  0
  128.1437  142.2631  176.6110 H   0  0  0  0  0  0  0  0  0  0  0  0
  127.3021  141.8582  172.5165 H   0  0  0  0  0  0  0  0  0  0  0  0
  127.6483  144.2324  172.2137 H   0  0  0  0  0  0  0  0  0  0  0  0
  131.4233  147.0814  173.2804 H   0  0  0  0  0  0  0  0  0  0  0  0
  130.8251  145.4984  172.8456 H   0  0  0  0  0  0  0  0  0  0  0  0
  131.0800  145.9049  174.5257 H   0  0  0  0  0  0  0  0  0  0  0  0
  129.5265  148.8819  173.1518 H   0  0  0  0  0  0  0  0  0  0  0  0
  1  3  1  0
  1  2  1  0
  3  4  2  0
  4  5  1  0
  5 12  1  0
  5  6  2  0
  6  7  1  0
  7  8  1  0
  8  9  2  0
  8 38  1  0
  9 10  1  0
  9 39  1  0
 10 11  1  0
 11  3  1  0
 11  7  2  0
 12 13  2  0
 13 14  1  0
 13 40  1  0
 14 15  2  0
 14 41  1  0
 15 16  1  0
 15 42  1  0
 16 17  2  0
 16 43  1  0
 17 18  1  0
 17 12  1  0
 18 19  1  0
 18 44  1  0
 19 20  1  0
 19 45  1  0
 19 46  1  0
 20 18  1  0
 20 47  1  0
 20 48  1  0
 21  1  1  0
 21 49  1  0
 21 50  1  0
 22 23  2  0
 23 24  1  0
 23 51  1  0
 24 25  2  0
 24 52  1  0
 25 21  1  0
 25 26  1  0
 26 27  2  0
 26 53  1  0
 27 22  1  0
 27 54  1  0
 28 29  1  0
 28 55  1  0
 28 56  1  0
 28 57  1  0
 29 30  2  0
 30 31  1  0
 30 58  1  0
 31 34  1  0
 31 32  2  0
 32 33  1  0
 33 22  1  0
 33 29  1  0
 34 35  1  0
 34 36  1  0
 34 37  1  0
M  END
>  <minimizedAffinity>  (7) 
-10.72417

>  <mol_id>  (7) 
107087

>  <source_index>  (7) 
6

>  <layer>  (7) 
L4

>  <uniprot>  (7) 
O94782

>  <paff>  (7) 
8.2924000000000007

>  <smiles>  (7) 
Cc1cc(C(F)(F)F)nn1-c1ccc(CNc2nc(-c3ccccc3C3CC3)nc3ccoc23)cc1

$$$$
L4:O94782:114317
     RDKit          3D

 68 75  0  0  0  0  0  0  0  0999 V2000
  129.0259  137.7417  171.6019 C   0  0  0  0  0  0  0  0  0  0  0  0
  130.2820  137.4582  171.1816 N   0  0  0  0  0  0  0  0  0  0  0  0
  131.3255  137.8986  171.9188 C   0  0  0  0  0  0  0  0  0  0  0  0
  131.0934  138.6164  173.0846 C   0  0  0  0  0  0  0  0  0  0  0  0
  131.8755  139.2217  174.0974 C   0  0  0  0  0  0  0  0  0  0  0  0
  133.0783  139.5274  174.6361 C   0  0  0  0  0  0  0  0  0  0  0  0
  132.7496  140.2411  175.7920 N   0  0  0  0  0  0  0  0  0  0  0  0
  133.6717  140.8106  176.7445 C   0  0  0  0  0  0  0  0  0  0  0  0
  131.3912  140.3808  175.9892 N   0  0  0  0  0  0  0  0  0  0  0  0
  130.9270  139.7612  174.9435 C   0  0  0  0  0  0  0  0  0  0  0  0
  129.6191  139.5869  174.5970 N   0  0  0  0  0  0  0  0  0  0  0  0
  129.7284  138.8434  173.4273 C   0  0  0  0  0  0  0  0  0  0  0  0
  128.6696  138.4081  172.7199 N   0  0  0  0  0  0  0  0  0  0  0  0
  127.6064  135.8811  170.7679 C   0  0  0  0  0  0  0  0  0  0  0  0
  126.6118  135.3576  170.0221 N   0  0  0  0  0  0  0  0  0  0  0  0
  125.9375  136.2319  169.2737 C   0  0  0  0  0  0  0  0  0  0  0  0
  126.1664  137.5482  169.2032 N   0  0  0  0  0  0  0  0  0  0  0  0
  127.1701  138.0510  169.9705 C   0  0  0  0  0  0  0  0  0  0  0  0
  127.9391  137.2267  170.7908 C   0  0  0  0  0  0  0  0  0  0  0  0
  127.4244  139.5462  169.8728 C   0  0  0  0  0  0  0  0  0  0  0  0
  126.4199  140.5221  170.4444 C   0  0  0  0  0  0  0  0  0  0  0  0
  126.5788  140.4059  168.9593 C   0  0  0  0  0  0  0  0  0  0  0  0
  128.4485  133.6991  171.0364 C   0  0  0  0  0  0  0  0  0  0  0  0
  128.3626  135.0239  171.5494 O   0  0  0  0  0  0  0  0  0  0  0  0
  128.4485  140.0624  175.2829 C   0  0  0  0  0  0  0  0  0  0  0  0
  128.1955  141.5193  174.9819 C   0  0  0  0  0  0  0  0  0  0  0  0
  128.3491  142.4902  175.9808 C   0  0  0  0  0  0  0  0  0  0  0  0
  128.1407  143.8427  175.6952 C   0  0  0  0  0  0  0  0  0  0  0  0
  127.7690  144.2494  174.4074 C   0  0  0  0  0  0  0  0  0  0  0  0
  127.6473  143.2824  173.4025 C   0  0  0  0  0  0  0  0  0  0  0  0
  127.8540  141.9298  173.6862 C   0  0  0  0  0  0  0  0  0  0  0  0
  127.5549  145.6609  174.0792 C   0  0  0  0  0  0  0  0  0  0  0  0
  126.3659  146.2374  174.0126 N   0  0  0  0  0  0  0  0  0  0  0  0
  126.5737  147.5600  173.6476 C   0  0  0  0  0  0  0  0  0  0  0  0
  127.9311  147.7910  173.5253 C   0  0  0  0  0  0  0  0  0  0  0  0
  128.7484  148.9111  173.1995 C   0  0  0  0  0  0  0  0  0  0  0  0
  130.0886  148.7813  173.2263 C   0  0  0  0  0  0  0  0  0  0  0  0
  130.7244  147.5255  173.5856 C   0  0  0  0  0  0  0  0  0  0  0  0
  129.9536  146.4644  173.8767 C   0  0  0  0  0  0  0  0  0  0  0  0
  128.5604  146.5880  173.8321 N   0  0  0  0  0  0  0  0  0  0  0  0
  125.4477  148.5283  173.4553 C   0  0  0  0  0  0  0  0  0  0  0  0
  124.2547  147.9991  173.8450 F   0  0  0  0  0  0  0  0  0  0  0  0
  125.3005  148.8748  172.1473 F   0  0  0  0  0  0  0  0  0  0  0  0
  125.6034  149.6843  174.1514 F   0  0  0  0  0  0  0  0  0  0  0  0
  132.2923  137.7020  171.6161 H   0  0  0  0  0  0  0  0  0  0  0  0
  134.0166  139.2898  174.2782 H   0  0  0  0  0  0  0  0  0  0  0  0
  134.6755  140.6071  176.4348 H   0  0  0  0  0  0  0  0  0  0  0  0
  133.5012  140.3783  177.7083 H   0  0  0  0  0  0  0  0  0  0  0  0
  133.5222  141.8688  176.7968 H   0  0  0  0  0  0  0  0  0  0  0  0
  125.1683  135.8586  168.6958 H   0  0  0  0  0  0  0  0  0  0  0  0
  128.4732  139.3730  169.9948 H   0  0  0  0  0  0  0  0  0  0  0  0
  126.7584  141.4019  170.9506 H   0  0  0  0  0  0  0  0  0  0  0  0
  125.5965  140.4467  171.1235 H   0  0  0  0  0  0  0  0  0  0  0  0
  127.0306  141.2028  168.4065 H   0  0  0  0  0  0  0  0  0  0  0  0
  125.9156  140.2133  168.1420 H   0  0  0  0  0  0  0  0  0  0  0  0
  129.0458  133.1007  171.6922 H   0  0  0  0  0  0  0  0  0  0  0  0
  128.8976  133.7210  170.0655 H   0  0  0  0  0  0  0  0  0  0  0  0
  127.4667  133.2796  170.9658 H   0  0  0  0  0  0  0  0  0  0  0  0
  128.5885  139.9427  176.3369 H   0  0  0  0  0  0  0  0  0  0  0  0
  127.6052  139.4952  174.9482 H   0  0  0  0  0  0  0  0  0  0  0  0
  128.6183  142.2043  176.9352 H   0  0  0  0  0  0  0  0  0  0  0  0
  128.2617  144.5474  176.4394 H   0  0  0  0  0  0  0  0  0  0  0  0
  127.4025  143.5714  172.4425 H   0  0  0  0  0  0  0  0  0  0  0  0
  127.7544  141.2281  172.9361 H   0  0  0  0  0  0  0  0  0  0  0  0
  128.3176  149.8138  172.9453 H   0  0  0  0  0  0  0  0  0  0  0  0
  130.6781  149.5935  172.9858 H   0  0  0  0  0  0  0  0  0  0  0  0
  131.7531  147.4496  173.6168 H   0  0  0  0  0  0  0  0  0  0  0  0
  130.3866  145.5630  174.1318 H   0  0  0  0  0  0  0  0  0  0  0  0
  1  2  2  0
  2  3  1  0
  3  4  2  0
  3 45  1  0
  4  5  1  0
  5  6  2  0
  6  7  1  0
  6 46  1  0
  7  8  1  0
  7  9  1  0
  8 47  1  0
  8 48  1  0
  8 49  1  0
  9 10  2  0
 10 11  1  0
 10  5  1  0
 11 25  1  0
 11 12  1  0
 12 13  2  0
 12  4  1  0
 13  1  1  0
 14 15  2  0
 15 16  1  0
 16 17  2  0
 16 50  1  0
 17 18  1  0
 18 20  1  0
 18 19  2  0
 19  1  1  0
 19 14  1  0
 20 21  1  0
 20 51  1  0
 21 22  1  0
 21 52  1  0
 21 53  1  0
 22 20  1  0
 22 54  1  0
 22 55  1  0
 23 24  1  0
 23 56  1  0
 23 57  1  0
 23 58  1  0
 24 14  1  0
 25 26  1  0
 25 59  1  0
 25 60  1  0
 26 27  2  0
 27 28  1  0
 27 61  1  0
 28 29  2  0
 28 62  1  0
 29 32  1  0
 29 30  1  0
 30 31  2  0
 30 63  1  0
 31 26  1  0
 31 64  1  0
 32 33  2  0
 33 34  1  0
 34 41  1  0
 34 35  2  0
 35 36  1  0
 36 37  2  0
 36 65  1  0
 37 38  1  0
 37 66  1  0
 38 39  2  0
 38 67  1  0
 39 40  1  0
 39 68  1  0
 40 32  1  0
 40 35  1  0
 41 42  1  0
 41 43  1  0
 41 44  1  0
M  END
>  <minimizedAffinity>  (8) 
-11.38686

>  <mol_id>  (8) 
114317

>  <source_index>  (8) 
7

>  <layer>  (8) 
L4

>  <uniprot>  (8) 
O94782

>  <paff>  (8) 
8.4558999999999997

>  <smiles>  (8) 
COc1ncnc(C2CC2)c1-c1ncc2c3cn(C)nc3n(Cc3ccc(-c4nc(C(F)(F)F)c5ccccn45)cc3)c2n1

$$$$
L4:O94782:117314
     RDKit          3D

 60 65  0  0  0  0  0  0  0  0999 V2000
  128.9307  138.0000  171.8356 C   0  0  0  0  0  0  0  0  0  0  0  0
  128.4286  138.4438  173.0167 N   0  0  0  0  0  0  0  0  0  0  0  0
  129.2578  139.0143  173.9240 C   0  0  0  0  0  0  0  0  0  0  0  0
  130.5982  139.0820  173.5655 C   0  0  0  0  0  0  0  0  0  0  0  0
  131.6421  139.5863  174.2849 O   0  0  0  0  0  0  0  0  0  0  0  0
  132.7534  139.4249  173.5134 C   0  0  0  0  0  0  0  0  0  0  0  0
  132.4355  138.8181  172.3177 C   0  0  0  0  0  0  0  0  0  0  0  0
  131.0412  138.5938  172.3504 C   0  0  0  0  0  0  0  0  0  0  0  0
  130.2213  138.0258  171.4424 N   0  0  0  0  0  0  0  0  0  0  0  0
  127.7687  136.0072  170.8983 C   0  0  0  0  0  0  0  0  0  0  0  0
  126.9026  135.3886  170.0698 N   0  0  0  0  0  0  0  0  0  0  0  0
  126.2337  136.1885  169.2388 C   0  0  0  0  0  0  0  0  0  0  0  0
  126.3512  137.5186  169.1663 N   0  0  0  0  0  0  0  0  0  0  0  0
  127.2255  138.1189  170.0171 C   0  0  0  0  0  0  0  0  0  0  0  0
  127.9825  137.3780  170.9259 C   0  0  0  0  0  0  0  0  0  0  0  0
  127.3360  139.6318  169.9190 C   0  0  0  0  0  0  0  0  0  0  0  0
  126.2028  140.5085  170.4052 C   0  0  0  0  0  0  0  0  0  0  0  0
  126.4752  140.3949  168.9365 C   0  0  0  0  0  0  0  0  0  0  0  0
  128.7828  133.9153  171.2701 C   0  0  0  0  0  0  0  0  0  0  0  0
  128.5204  135.2260  171.7598 O   0  0  0  0  0  0  0  0  0  0  0  0
  128.7819  139.5046  175.1362 N   0  0  0  0  0  0  0  0  0  0  0  0
  128.9295  138.8514  175.8992 H   0  0  0  0  0  0  0  0  0  0  0  0
  127.4734  140.1268  175.0906 C   0  0  0  0  0  0  0  0  0  0  0  0
  127.6374  141.5966  174.7790 C   0  0  0  0  0  0  0  0  0  0  0  0
  128.0608  142.4858  175.7763 C   0  0  0  0  0  0  0  0  0  0  0  0
  128.2121  143.8463  175.4964 C   0  0  0  0  0  0  0  0  0  0  0  0
  127.9253  144.3486  174.2219 C   0  0  0  0  0  0  0  0  0  0  0  0
  127.5092  143.4599  173.2228 C   0  0  0  0  0  0  0  0  0  0  0  0
  127.3584  142.0969  173.5001 C   0  0  0  0  0  0  0  0  0  0  0  0
  128.0995  145.7779  173.9573 C   0  0  0  0  0  0  0  0  0  0  0  0
  127.1545  146.6905  174.1083 N   0  0  0  0  0  0  0  0  0  0  0  0
  127.7136  147.9074  173.7645 C   0  0  0  0  0  0  0  0  0  0  0  0
  129.0217  147.7173  173.3689 C   0  0  0  0  0  0  0  0  0  0  0  0
  129.2469  146.3720  173.4740 N   0  0  0  0  0  0  0  0  0  0  0  0
  130.4647  145.7108  173.0710 C   0  0  0  0  0  0  0  0  0  0  0  0
  126.9336  149.1772  173.8355 C   0  0  0  0  0  0  0  0  0  0  0  0
  127.3847  149.9764  174.8435 F   0  0  0  0  0  0  0  0  0  0  0  0
  127.0737  149.9055  172.6918 F   0  0  0  0  0  0  0  0  0  0  0  0
  133.7044  139.7174  173.7874 H   0  0  0  0  0  0  0  0  0  0  0  0
  133.0849  138.5764  171.5529 H   0  0  0  0  0  0  0  0  0  0  0  0
  125.5647  135.7406  168.5931 H   0  0  0  0  0  0  0  0  0  0  0  0
  128.3852  139.5649  170.1179 H   0  0  0  0  0  0  0  0  0  0  0  0
  126.4170  141.4222  170.9191 H   0  0  0  0  0  0  0  0  0  0  0  0
  125.3457  140.3579  171.0277 H   0  0  0  0  0  0  0  0  0  0  0  0
  126.8836  141.2277  168.4031 H   0  0  0  0  0  0  0  0  0  0  0  0
  125.8925  140.1299  168.0791 H   0  0  0  0  0  0  0  0  0  0  0  0
  129.3651  133.3763  171.9879 H   0  0  0  0  0  0  0  0  0  0  0  0
  129.3232  133.9803  170.3489 H   0  0  0  0  0  0  0  0  0  0  0  0
  127.8573  133.4042  171.1054 H   0  0  0  0  0  0  0  0  0  0  0  0
  126.9889  140.0129  176.0378 H   0  0  0  0  0  0  0  0  0  0  0  0
  126.8781  139.6611  174.3331 H   0  0  0  0  0  0  0  0  0  0  0  0
  128.2624  142.1328  176.7249 H   0  0  0  0  0  0  0  0  0  0  0  0
  128.5385  144.4871  176.2366 H   0  0  0  0  0  0  0  0  0  0  0  0
  127.3120  143.8135  172.2735 H   0  0  0  0  0  0  0  0  0  0  0  0
  127.0394  141.4553  172.7574 H   0  0  0  0  0  0  0  0  0  0  0  0
  129.6906  148.4393  173.0585 H   0  0  0  0  0  0  0  0  0  0  0  0
  131.1744  146.4405  172.7412 H   0  0  0  0  0  0  0  0  0  0  0  0
  130.2540  145.0315  172.2716 H   0  0  0  0  0  0  0  0  0  0  0  0
  130.8686  145.1702  173.9014 H   0  0  0  0  0  0  0  0  0  0  0  0
  125.9148  148.8902  173.9923 H   0  0  0  0  0  0  0  0  0  0  0  0
  1  2  2  0
  2  3  1  0
  3 21  1  0
  3  4  2  0
  4  5  1  0
  5  6  1  0
  6  7  2  0
  6 39  1  0
  7  8  1  0
  7 40  1  0
  8  9  2  0
  8  4  1  0
  9  1  1  0
 10 11  2  0
 11 12  1  0
 12 13  2  0
 12 41  1  0
 13 14  1  0
 14 16  1  0
 14 15  2  0
 15  1  1  0
 15 10  1  0
 16 17  1  0
 16 42  1  0
 17 18  1  0
 17 43  1  0
 17 44  1  0
 18 16  1  0
 18 45  1  0
 18 46  1  0
 19 20  1  0
 19 47  1  0
 19 48  1  0
 19 49  1  0
 20 10  1  0
 21 23  1  0
 21 22  1  0
 23 24  1  0
 23 50  1  0
 23 51  1  0
 24 25  2  0
 25 26  1  0
 25 52  1  0
 26 27  2  0
 26 53  1  0
 27 30  1  0
 27 28  1  0
 28 29  2  0
 28 54  1  0
 29 24  1  0
 29 55  1  0
 30 31  2  0
 31 32  1  0
 32 36  1  0
 32 33  2  0
 33 34  1  0
 33 56  1  0
 34 35  1  0
 34 30  1  0
 35 57  1  0
 35 58  1  0
 35 59  1  0
 36 37  1  0
 36 38  1  0
 36 60  1  0
M  END
>  <minimizedAffinity>  (9) 
-9.42115

>  <mol_id>  (9) 
117314

>  <source_index>  (9) 
8

>  <layer>  (9) 
L4

>  <uniprot>  (9) 
O94782

>  <paff>  (9) 
7.6989999999999998

>  <smiles>  (9) 
COc1ncnc(C2CC2)c1-c1nc(NCc2ccc(-c3nc(C(F)F)cn3C)cc2)c2occc2n1

$$$$
L4:O94782:140915
     RDKit          3D

 62 66  0  0  0  0  0  0  0  0999 V2000
  129.7759  139.2919  173.5429 C   0  0  0  0  0  0  0  0  0  0  0  0
  128.7820  138.7996  172.7658 N   0  0  0  0  0  0  0  0  0  0  0  0
  129.0765  138.2860  171.5456 C   0  0  0  0  0  0  0  0  0  0  0  0
  130.3032  138.1642  170.9954 N   0  0  0  0  0  0  0  0  0  0  0  0
  131.2884  138.6549  171.7747 C   0  0  0  0  0  0  0  0  0  0  0  0
  132.6827  138.7221  171.5634 C   0  0  0  0  0  0  0  0  0  0  0  0
  133.2116  139.3187  172.6865 C   0  0  0  0  0  0  0  0  0  0  0  0
  132.2315  139.6169  173.5817 O   0  0  0  0  0  0  0  0  0  0  0  0
  131.0588  139.2122  173.0165 C   0  0  0  0  0  0  0  0  0  0  0  0
  127.9426  137.7283  170.7825 C   0  0  0  0  0  0  0  0  0  0  0  0
  127.8200  136.3218  170.7077 C   0  0  0  0  0  0  0  0  0  0  0  0
  126.8197  135.7049  169.9581 C   0  0  0  0  0  0  0  0  0  0  0  0
  125.9109  136.4847  169.2584 C   0  0  0  0  0  0  0  0  0  0  0  0
  125.9890  137.8761  169.3319 C   0  0  0  0  0  0  0  0  0  0  0  0
  126.9803  138.5213  170.1040 C   0  0  0  0  0  0  0  0  0  0  0  0
  126.9763  140.0457  170.1907 C   0  0  0  0  0  0  0  0  0  0  0  0
  126.8742  140.6714  168.7968 C   0  0  0  0  0  0  0  0  0  0  0  0
  125.8642  140.5807  171.1074 C   0  0  0  0  0  0  0  0  0  0  0  0
  129.5144  139.8336  174.8001 N   0  0  0  0  0  0  0  0  0  0  0  0
  129.5711  139.1307  175.5298 H   0  0  0  0  0  0  0  0  0  0  0  0
  128.3511  140.6967  174.8657 C   0  0  0  0  0  0  0  0  0  0  0  0
  129.4407  144.5805  173.3563 C   0  0  0  0  0  0  0  0  0  0  0  0
  129.9875  144.1329  174.5551 C   0  0  0  0  0  0  0  0  0  0  0  0
  129.6302  142.8776  175.0521 C   0  0  0  0  0  0  0  0  0  0  0  0
  128.7264  142.0662  174.3479 C   0  0  0  0  0  0  0  0  0  0  0  0
  128.2114  142.5210  173.1250 C   0  0  0  0  0  0  0  0  0  0  0  0
  128.5701  143.7760  172.6267 C   0  0  0  0  0  0  0  0  0  0  0  0
  129.8274  145.8058  172.8808 O   0  0  0  0  0  0  0  0  0  0  0  0
  128.0285  148.5834  173.7635 C   0  0  2  0  0  0  0  0  0  0  0  0
  129.3319  148.3102  172.9802 C   0  0  0  0  0  0  0  0  0  0  0  0
  129.3964  146.9311  173.6836 C   0  0  1  0  0  0  0  0  0  0  0  0
  127.8648  147.0505  173.8723 C   0  0  0  0  0  0  0  0  0  0  0  0
  126.1000  150.0512  173.8352 C   0  0  0  0  0  0  0  0  0  0  0  0
  126.9801  149.2655  173.0464 O   0  0  0  0  0  0  0  0  0  0  0  0
  133.2010  138.3910  170.7347 H   0  0  0  0  0  0  0  0  0  0  0  0
  134.2150  139.5131  172.8295 H   0  0  0  0  0  0  0  0  0  0  0  0
  128.4922  135.7334  171.2243 H   0  0  0  0  0  0  0  0  0  0  0  0
  126.7558  134.6754  169.9240 H   0  0  0  0  0  0  0  0  0  0  0  0
  125.1789  136.0372  168.6849 H   0  0  0  0  0  0  0  0  0  0  0  0
  125.3062  138.4472  168.8097 H   0  0  0  0  0  0  0  0  0  0  0  0
  127.9091  140.3321  170.6299 H   0  0  0  0  0  0  0  0  0  0  0  0
  125.9443  140.3915  168.3475 H   0  0  0  0  0  0  0  0  0  0  0  0
  127.6831  140.3228  168.1893 H   0  0  0  0  0  0  0  0  0  0  0  0
  126.9238  141.7370  168.8797 H   0  0  0  0  0  0  0  0  0  0  0  0
  124.9099  140.3150  170.7029 H   0  0  0  0  0  0  0  0  0  0  0  0
  125.9390  141.6460  171.1746 H   0  0  0  0  0  0  0  0  0  0  0  0
  125.9696  140.1535  172.0828 H   0  0  0  0  0  0  0  0  0  0  0  0
  127.5665  140.2880  174.2639 H   0  0  0  0  0  0  0  0  0  0  0  0
  128.0131  140.7725  175.8781 H   0  0  0  0  0  0  0  0  0  0  0  0
  130.6538  144.7257  175.0744 H   0  0  0  0  0  0  0  0  0  0  0  0
  130.0328  142.5445  175.9420 H   0  0  0  0  0  0  0  0  0  0  0  0
  127.5624  141.9238  172.5891 H   0  0  0  0  0  0  0  0  0  0  0  0
  128.1923  144.1042  171.7242 H   0  0  0  0  0  0  0  0  0  0  0  0
  128.0188  149.2225  174.6216 H   0  0  0  0  0  0  0  0  0  0  0  0
  130.1405  148.9693  173.2181 H   0  0  0  0  0  0  0  0  0  0  0  0
  129.3736  148.3977  171.9146 H   0  0  0  0  0  0  0  0  0  0  0  0
  130.0694  146.7568  174.4970 H   0  0  0  0  0  0  0  0  0  0  0  0
  127.5053  146.7077  174.8200 H   0  0  0  0  0  0  0  0  0  0  0  0
  127.1806  146.5151  173.2477 H   0  0  0  0  0  0  0  0  0  0  0  0
  125.3670  150.5082  173.2038 H   0  0  0  0  0  0  0  0  0  0  0  0
  126.6575  150.8108  174.3422 H   0  0  0  0  0  0  0  0  0  0  0  0
  125.6120  149.4269  174.5543 H   0  0  0  0  0  0  0  0  0  0  0  0
  1  2  2  0
  2  3  1  0
  3 10  1  0
  3  4  2  0
  4  5  1  0
  5  6  1  0
  6  7  2  0
  6 35  1  0
  7  8  1  0
  7 36  1  0
  8  9  1  0
  9  1  1  0
  9  5  2  0
 10 11  2  0
 11 12  1  0
 11 37  1  0
 12 13  2  0
 12 38  1  0
 13 14  1  0
 13 39  1  0
 14 15  2  0
 14 40  1  0
 15 16  1  0
 15 10  1  0
 16 17  1  0
 16 18  1  0
 16 41  1  0
 17 42  1  0
 17 43  1  0
 17 44  1  0
 18 45  1  0
 18 46  1  0
 18 47  1  0
 19  1  1  0
 19 20  1  0
 21 19  1  0
 21 48  1  0
 21 49  1  0
 22 23  2  0
 23 24  1  0
 23 50  1  0
 24 25  2  0
 24 51  1  0
 25 21  1  0
 25 26  1  0
 26 27  2  0
 26 52  1  0
 27 22  1  0
 27 53  1  0
 28 22  1  0
 29 30  1  0
 29 54  1  1
 30 31  1  0
 30 55  1  0
 30 56  1  0
 31 28  1  0
 31 32  1  0
 31 57  1  1
 32 29  1  0
 32 58  1  0
 32 59  1  0
 33 34  1  0
 33 60  1  0
 33 61  1  0
 33 62  1  0
 34 29  1  0
M  END
>  <minimizedAffinity>  (10) 
-8.88395

>  <mol_id>  (10) 
140915

>  <source_index>  (10) 
9

>  <layer>  (10) 
L4

>  <uniprot>  (10) 
O94782

>  <paff>  (10) 
7.585

>  <smiles>  (10) 
COC1CC(Oc2ccc(CNc3nc(-c4ccccc4C(C)C)nc4ccoc34)cc2)C1

$$$$
