L3:Q62645:2221
     RDKit          3D

 40 41  0  0  0  0  0  0  0  0999 V2000
   13.8227   30.4589   14.6644 C   0  0  0  0  0  0  0  0  0  0  0  0
   14.7744   30.7216   15.6157 C   0  0  0  0  0  0  0  0  0  0  0  0
   15.5031   31.9048   15.3800 C   0  0  0  0  0  0  0  0  0  0  0  0
   15.0963   32.5878   14.2668 C   0  0  0  0  0  0  0  0  0  0  0  0
   13.7650   31.7622   13.5003 S   0  0  0  0  0  0  0  0  0  0  0  0
   13.5192   27.9793   14.4963 C   0  0  0  0  0  0  0  0  0  0  0  0
   12.6567   26.8883   14.4843 C   0  0  0  0  0  0  0  0  0  0  0  0
   11.2848   27.0654   14.3616 C   0  0  0  0  0  0  0  0  0  0  0  0
   10.7507   28.3432   14.2668 C   0  0  0  0  0  0  0  0  0  0  0  0
   11.5876   29.4410   14.3961 C   0  0  0  0  0  0  0  0  0  0  0  0
   12.9679   29.2784   14.5273 C   0  0  0  0  0  0  0  0  0  0  0  0
   15.5048   28.0037   12.9659 C   0  0  0  0  0  0  0  0  0  0  0  0
   14.9962   27.7509   14.3828 C   0  0  0  0  0  0  0  0  0  0  0  0
   15.7703   33.8074   13.7355 C   0  0  0  0  0  0  0  0  0  0  0  0
   16.9527   34.0105   13.9926 O   0  0  0  0  0  0  0  0  0  0  0  0
   14.9956   34.6233   12.9824 N   0  0  0  0  0  0  0  0  0  0  0  0
   13.9920   34.6490   13.1074 H   0  0  0  0  0  0  0  0  0  0  0  0
   15.5065   35.7823   12.2970 C   0  0  0  0  0  0  0  0  0  0  0  0
   14.8439   37.1066   12.7258 C   0  0  1  0  0  0  0  0  0  0  0  0
   15.4278   38.2889   12.0957 N   0  0  0  0  0  0  0  0  0  0  0  0
   16.4339   38.2571   12.2228 H   0  0  0  0  0  0  0  0  0  0  0  0
   15.2554   38.2483   11.0967 H   0  0  0  0  0  0  0  0  0  0  0  0
   13.3086   37.0561   12.5108 C   0  0  0  0  0  0  0  0  0  0  0  0
   12.7328   36.0171   12.9354 O   0  0  0  0  0  0  0  0  0  0  0  0
   12.7270   38.0199   11.9611 O   0  0  0  0  0  0  0  0  0  0  0  0
   13.0508   39.0940   10.8971 H   0  0  0  0  0  0  0  0  0  0  0  0
   14.9385   30.0889   16.4767 H   0  0  0  0  0  0  0  0  0  0  0  0
   16.3177   32.2542   15.9938 H   0  0  0  0  0  0  0  0  0  0  0  0
   13.0657   25.8893   14.5527 H   0  0  0  0  0  0  0  0  0  0  0  0
   10.6453   26.1895   14.3102 H   0  0  0  0  0  0  0  0  0  0  0  0
    9.7095   28.4963   14.0295 H   0  0  0  0  0  0  0  0  0  0  0  0
   11.1745   30.4410   14.3822 H   0  0  0  0  0  0  0  0  0  0  0  0
   16.5900   27.9300   12.9307 H   0  0  0  0  0  0  0  0  0  0  0  0
   15.2271   28.9931   12.6032 H   0  0  0  0  0  0  0  0  0  0  0  0
   15.1129   27.2637   12.2678 H   0  0  0  0  0  0  0  0  0  0  0  0
   15.5290   28.3925   15.0786 H   0  0  0  0  0  0  0  0  0  0  0  0
   15.2188   26.7252   14.6694 H   0  0  0  0  0  0  0  0  0  0  0  0
   15.3637   35.6622   11.2186 H   0  0  0  0  0  0  0  0  0  0  0  0
   16.5740   35.8438   12.4887 H   0  0  0  0  0  0  0  0  0  0  0  0
   14.9943   37.2049   13.8023 H   0  0  0  0  0  0  0  0  0  0  0  0
  1  2  2  0
  2  3  1  0
  2 27  1  0
  3  4  2  0
  3 28  1  0
  4 14  1  0
  4  5  1  0
  5  1  1  0
  6  7  2  0
  7  8  1  0
  7 29  1  0
  8  9  2  0
  8 30  1  0
  9 10  1  0
  9 31  1  0
 10 11  2  0
 10 32  1  0
 11  1  1  0
 11  6  1  0
 12 13  1  0
 12 33  1  0
 12 34  1  0
 12 35  1  0
 13  6  1  0
 13 36  1  0
 13 37  1  0
 14 15  2  0
 14 16  1  0
 16 18  1  0
 16 17  1  0
 18 19  1  0
 18 38  1  0
 18 39  1  0
 19 20  1  0
 19 23  1  0
 19 40  1  1
 20 21  1  0
 20 22  1  0
 23 24  2  0
 23 25  1  0
 25 26  1  0
M  END
>  <minimizedAffinity>  (1) 
-5.83800

>  <mol_id>  (1) 
2221

>  <source_index>  (1) 
0

>  <layer>  (1) 
L3

>  <uniprot>  (1) 
Q62645

>  <paff>  (1) 
7.0914999999999999

>  <smiles>  (1) 
CCc1ccccc1-c1ccc(C(=O)NC[C@@H](N)C(=O)O)s1

>  <aimnet_interaction_kcal_mol>  (1) 
-148.01415608680813

$$$$
L3:Q62645:24323
     RDKit          3D

 10  9  0  0  0  0  0  0  0  0999 V2000
    8.7958   38.2063   12.0094 N   0  0  0  0  0  0  0  0  0  0  0  0
    8.9339   38.0441   10.5669 C   0  0  0  0  0  0  0  0  0  0  0  0
    8.1862   38.9879   12.2116 H   0  0  0  0  0  0  0  0  0  0  0  0
    9.6949   38.4522   12.4038 H   0  0  0  0  0  0  0  0  0  0  0  0
    8.0119   36.9708   10.0557 C   0  0  0  0  0  0  0  0  0  0  0  0
    7.1807   36.3370   10.6865 O   0  0  0  0  0  0  0  0  0  0  0  0
    8.2419   36.6946    8.7430 O   0  0  0  0  0  0  0  0  0  0  0  0
    7.4195   36.6146    8.2420 H   0  0  0  0  0  0  0  0  0  0  0  0
    9.9480   37.7463   10.2901 H   0  0  0  0  0  0  0  0  0  0  0  0
    8.7239   38.9661   10.0140 H   0  0  0  0  0  0  0  0  0  0  0  0
  1  2  1  0
  1  3  1  0
  1  4  1  0
  2  5  1  0
  2  9  1  0
  2 10  1  0
  5  6  2  0
  5  7  1  0
  7  8  1  0
M  END
>  <minimizedAffinity>  (2) 
-4.82132

>  <mol_id>  (2) 
24323

>  <source_index>  (2) 
1

>  <layer>  (2) 
L3

>  <uniprot>  (2) 
Q62645

>  <paff>  (2) 
6.8860999999999999

>  <smiles>  (2) 
NCC(=O)O

>  <aimnet_interaction_kcal_mol>  (2) 
-49.168776151125762

$$$$
L3:Q62645:38593
     RDKit          3D

 44 47  0  0  0  0  0  0  0  0999 V2000
   12.3492   47.1241   14.5118 C   0  0  0  0  0  0  0  0  0  0  0  0
   11.2260   47.3116   13.5615 C   0  0  0  0  0  0  0  0  0  0  0  0
   11.5598   47.3204   11.8457 S   0  0  0  0  0  0  0  0  0  0  0  0
    9.8589   47.4174   11.4872 C   0  0  0  0  0  0  0  0  0  0  0  0
    9.3972   47.4275   10.2273 N   0  0  0  0  0  0  0  0  0  0  0  0
    8.1036   47.4954   10.1251 C   0  0  0  0  0  0  0  0  0  0  0  0
    7.2378   47.5466   11.1728 N   0  0  0  0  0  0  0  0  0  0  0  0
    7.6610   47.4643   12.5238 C   0  0  0  0  0  0  0  0  0  0  0  0
    6.8481   47.4178   13.4414 O   0  0  0  0  0  0  0  0  0  0  0  0
    9.0988   47.4623   12.6487 C   0  0  0  0  0  0  0  0  0  0  0  0
    9.8893   47.4466   13.8330 C   0  0  0  0  0  0  0  0  0  0  0  0
    9.3330   47.6170   15.1874 C   0  0  0  0  0  0  0  0  0  0  0  0
    9.1460   48.8978   15.6994 C   0  0  0  0  0  0  0  0  0  0  0  0
    8.6600   49.0851   16.9804 C   0  0  0  0  0  0  0  0  0  0  0  0
    8.3638   47.9926   17.7794 C   0  0  0  0  0  0  0  0  0  0  0  0
    7.7370   48.2659   19.3877 Cl  0  0  0  0  0  0  0  0  0  0  0  0
    8.5547   46.7062   17.2843 C   0  0  0  0  0  0  0  0  0  0  0  0
    8.2399   45.3053   18.2808 Cl  0  0  0  0  0  0  0  0  0  0  0  0
    9.0045   46.5244   15.9814 C   0  0  0  0  0  0  0  0  0  0  0  0
    5.8314   47.8682   10.9474 C   0  0  0  0  0  0  0  0  0  0  0  0
    5.1292   47.0523    9.8683 C   0  0  0  0  0  0  0  0  0  0  0  0
    4.9647   47.5063    8.7328 O   0  0  0  0  0  0  0  0  0  0  0  0
    4.6570   45.8601   10.2411 N   0  0  0  0  0  0  0  0  0  0  0  0
    3.9139   44.9039    9.4287 C   0  0  0  0  0  0  0  0  0  0  0  0
    3.2502   44.4116   10.7324 C   0  0  0  0  0  0  0  0  0  0  0  0
    1.8357   44.8925   10.9300 C   0  0  0  0  0  0  0  0  0  0  0  0
    3.2825   43.0329   10.9354 F   0  0  0  0  0  0  0  0  0  0  0  0
    4.3358   45.1966   11.5117 C   0  0  0  0  0  0  0  0  0  0  0  0
   12.8610   46.1808   14.3262 H   0  0  0  0  0  0  0  0  0  0  0  0
   11.9774   47.1184   15.5320 H   0  0  0  0  0  0  0  0  0  0  0  0
   13.0845   47.9227   14.4210 H   0  0  0  0  0  0  0  0  0  0  0  0
    7.6328   47.5139    9.1491 H   0  0  0  0  0  0  0  0  0  0  0  0
    9.3772   49.7533   15.0819 H   0  0  0  0  0  0  0  0  0  0  0  0
    8.5056   50.0813   17.3695 H   0  0  0  0  0  0  0  0  0  0  0  0
    9.0683   45.5292   15.5776 H   0  0  0  0  0  0  0  0  0  0  0  0
    5.7716   48.9092   10.6341 H   0  0  0  0  0  0  0  0  0  0  0  0
    5.3546   47.7600   11.9146 H   0  0  0  0  0  0  0  0  0  0  0  0
    4.5705   44.1682    8.9765 H   0  0  0  0  0  0  0  0  0  0  0  0
    3.2837   45.3521    8.6659 H   0  0  0  0  0  0  0  0  0  0  0  0
    1.1801   44.4122   10.1982 H   0  0  0  0  0  0  0  0  0  0  0  0
    1.7782   45.9692   10.7872 H   0  0  0  0  0  0  0  0  0  0  0  0
    1.4745   44.6474   11.9281 H   0  0  0  0  0  0  0  0  0  0  0  0
    5.1531   44.5689   11.8528 H   0  0  0  0  0  0  0  0  0  0  0  0
    4.0035   45.8356   12.3305 H   0  0  0  0  0  0  0  0  0  0  0  0
  1  2  1  0
  1 29  1  0
  1 30  1  0
  1 31  1  0
  2  3  1  0
  3  4  1  0
  4  5  1  0
  5  6  2  0
  6  7  1  0
  6 32  1  0
  7 20  1  0
  7  8  1  0
  8  9  2  0
  8 10  1  0
 10 11  1  0
 10  4  2  0
 11 12  1  0
 11  2  2  0
 12 13  2  0
 13 14  1  0
 13 33  1  0
 14 15  2  0
 14 34  1  0
 15 16  1  0
 15 17  1  0
 17 18  1  0
 17 19  2  0
 19 12  1  0
 19 35  1  0
 20 21  1  0
 20 36  1  0
 20 37  1  0
 21 22  2  0
 21 23  1  0
 23 24  1  0
 24 25  1  0
 24 38  1  0
 24 39  1  0
 25 26  1  0
 25 27  1  0
 25 28  1  0
 26 40  1  0
 26 41  1  0
 26 42  1  0
 28 23  1  0
 28 43  1  0
 28 44  1  0
M  END
>  <minimizedAffinity>  (3) 
-5.90623

>  <mol_id>  (3) 
38593

>  <source_index>  (3) 
2

>  <layer>  (3) 
L3

>  <uniprot>  (3) 
Q62645

>  <paff>  (3) 
6

>  <smiles>  (3) 
Cc1sc2ncn(CC(=O)N3CC(C)(F)C3)c(=O)c2c1-c1ccc(Cl)c(Cl)c1

>  <aimnet_interaction_kcal_mol>  (3) 
-38.798869886050056

$$$$
L3:Q62645:43699
     RDKit          3D

 34 35  0  0  0  0  0  0  0  0999 V2000
   14.9486   35.2768   13.8634 N   0  0  0  0  0  0  0  0  0  0  0  0
   14.9995   34.2368   12.9906 C   0  0  0  0  0  0  0  0  0  0  0  0
   15.5398   34.3090   11.8905 O   0  0  0  0  0  0  0  0  0  0  0  0
   14.2747   35.2406   14.6070 H   0  0  0  0  0  0  0  0  0  0  0  0
   14.4501   32.9181   13.4219 C   0  0  0  0  0  0  0  0  0  0  0  0
   14.9380   31.7633   12.8681 C   0  0  0  0  0  0  0  0  0  0  0  0
   14.3518   30.6087   13.3969 C   0  0  0  0  0  0  0  0  0  0  0  0
   14.9162   28.8676   12.8972 Br  0  0  0  0  0  0  0  0  0  0  0  0
   13.3449   30.8345   14.3063 C   0  0  0  0  0  0  0  0  0  0  0  0
   13.1715   32.5501   14.5835 S   0  0  0  0  0  0  0  0  0  0  0  0
   12.4917   29.7837   14.8704 C   0  0  0  0  0  0  0  0  0  0  0  0
   11.2356   29.5512   14.3159 C   0  0  0  0  0  0  0  0  0  0  0  0
   10.5988   28.3250   14.4548 C   0  0  0  0  0  0  0  0  0  0  0  0
   11.1516   27.3637   15.2951 C   0  0  0  0  0  0  0  0  0  0  0  0
   12.3024   27.6524   16.0231 C   0  0  0  0  0  0  0  0  0  0  0  0
   12.9544   28.8580   15.8106 C   0  0  0  0  0  0  0  0  0  0  0  0
   14.5181   29.2525   16.8076 Br  0  0  0  0  0  0  0  0  0  0  0  0
   15.5116   36.5659   13.5459 C   0  0  0  0  0  0  0  0  0  0  0  0
   15.1442   38.5055   12.0155 N   0  0  0  0  0  0  0  0  0  0  0  0
   14.5273   37.6586   13.0187 C   0  0  1  0  0  0  0  0  0  0  0  0
   14.4249   38.9386   11.4236 H   0  0  0  0  0  0  0  0  0  0  0  0
   15.6893   37.9343   11.3809 H   0  0  0  0  0  0  0  0  0  0  0  0
   13.2347   37.0131   12.5646 C   0  0  0  0  0  0  0  0  0  0  0  0
   12.4789   36.3991   13.3064 O   0  0  0  0  0  0  0  0  0  0  0  0
   13.0250   37.1541   11.2729 O   0  0  0  0  0  0  0  0  0  0  0  0
   12.0978   36.9982   10.9960 H   0  0  0  0  0  0  0  0  0  0  0  0
   15.6812   31.7682   12.0903 H   0  0  0  0  0  0  0  0  0  0  0  0
   10.7765   30.3294   13.7306 H   0  0  0  0  0  0  0  0  0  0  0  0
    9.6981   28.1173   13.8948 H   0  0  0  0  0  0  0  0  0  0  0  0
   10.7535   26.3541   15.3318 H   0  0  0  0  0  0  0  0  0  0  0  0
   12.7181   26.9339   16.7131 H   0  0  0  0  0  0  0  0  0  0  0  0
   16.0214   36.9576   14.4233 H   0  0  0  0  0  0  0  0  0  0  0  0
   16.2618   36.4005   12.7812 H   0  0  0  0  0  0  0  0  0  0  0  0
   14.2568   38.3088   13.8567 H   0  0  0  0  0  0  0  0  0  0  0  0
  1  2  1  0
  1  4  1  0
  2  3  2  0
  2  5  1  0
  5  6  2  0
  6  7  1  0
  6 27  1  0
  7  8  1  0
  7  9  2  0
  9 11  1  0
  9 10  1  0
 10  5  1  0
 11 12  2  0
 12 13  1  0
 12 28  1  0
 13 14  2  0
 13 29  1  0
 14 15  1  0
 14 30  1  0
 15 16  2  0
 15 31  1  0
 16 17  1  0
 16 11  1  0
 18  1  1  0
 18 32  1  0
 18 33  1  0
 19 20  1  0
 19 21  1  0
 19 22  1  0
 20 18  1  0
 20 23  1  0
 20 34  1  1
 23 24  2  0
 23 25  1  0
 25 26  1  0
M  END
>  <minimizedAffinity>  (4) 
-5.80545

>  <mol_id>  (4) 
43699

>  <source_index>  (4) 
3

>  <layer>  (4) 
L3

>  <uniprot>  (4) 
Q62645

>  <paff>  (4) 
7.7958999999999996

>  <smiles>  (4) 
N[C@H](CNC(=O)c1cc(Br)c(-c2ccccc2Br)s1)C(=O)O

>  <aimnet_interaction_kcal_mol>  (4) 
-53.719160141053827

$$$$
L3:Q62645:53381
     RDKit          3D

 14 13  0  0  0  0  0  0  0  0999 V2000
    9.8483   38.3263   10.6354 N   0  0  0  0  0  0  0  0  0  0  0  0
    8.3909   38.3754   10.6295 C   0  0  1  0  0  0  0  0  0  0  0  0
   10.2481   39.2212   10.3851 H   0  0  0  0  0  0  0  0  0  0  0  0
   10.2382   37.6688    9.9769 H   0  0  0  0  0  0  0  0  0  0  0  0
    7.8356   37.0748   10.0892 C   0  0  0  0  0  0  0  0  0  0  0  0
    7.0907   36.3101   10.6784 O   0  0  0  0  0  0  0  0  0  0  0  0
    8.2838   36.7688    8.8373 O   0  0  0  0  0  0  0  0  0  0  0  0
    7.5534   36.7261    8.2071 H   0  0  0  0  0  0  0  0  0  0  0  0
    7.9498   38.6124   12.0720 C   0  0  0  0  0  0  0  0  0  0  0  0
    8.6209   37.6787   12.9232 O   0  0  0  0  0  0  0  0  0  0  0  0
    9.5078   37.6362   12.4979 H   0  0  0  0  0  0  0  0  0  0  0  0
    7.9942   39.1845   10.0023 H   0  0  0  0  0  0  0  0  0  0  0  0
    6.8718   38.4883   12.1734 H   0  0  0  0  0  0  0  0  0  0  0  0
    8.2066   39.6336   12.3447 H   0  0  0  0  0  0  0  0  0  0  0  0
  1  2  1  0
  1  3  1  0
  1  4  1  0
  2  9  1  0
  2  5  1  0
  2 12  1  6
  5  6  2  0
  5  7  1  0
  7  8  1  0
  9 10  1  0
  9 13  1  0
  9 14  1  0
 10 11  1  0
M  END
>  <minimizedAffinity>  (5) 
-6.17152

>  <mol_id>  (5) 
53381

>  <source_index>  (5) 
4

>  <layer>  (5) 
L3

>  <uniprot>  (5) 
Q62645

>  <paff>  (5) 
6.7695999999999996

>  <smiles>  (5) 
N[C@H](CO)C(=O)O

>  <aimnet_interaction_kcal_mol>  (5) 
-59.464735166689856

$$$$
L3:Q62645:68311
     RDKit          3D

 40 42  0  0  0  0  0  0  0  0999 V2000
   14.3161   32.3725   13.3022 C   0  0  0  0  0  0  0  0  0  0  0  0
   13.3191   32.4373   14.2479 C   0  0  0  0  0  0  0  0  0  0  0  0
   12.9154   31.1655   14.7188 C   0  0  0  0  0  0  0  0  0  0  0  0
   13.6056   30.1251   14.1410 C   0  0  0  0  0  0  0  0  0  0  0  0
   14.6869   30.7248   12.9047 S   0  0  0  0  0  0  0  0  0  0  0  0
   13.6767   28.7084   14.4844 C   0  0  0  0  0  0  0  0  0  0  0  0
   14.9252   28.1335   14.6724 C   0  0  0  0  0  0  0  0  0  0  0  0
   15.0867   26.7639   14.8797 C   0  0  0  0  0  0  0  0  0  0  0  0
   13.9971   25.9346   14.9344 C   0  0  0  0  0  0  0  0  0  0  0  0
   12.7059   26.4783   14.8169 C   0  0  0  0  0  0  0  0  0  0  0  0
   11.5737   25.6454   14.8865 C   0  0  0  0  0  0  0  0  0  0  0  0
   10.3277   26.1357   14.6094 C   0  0  0  0  0  0  0  0  0  0  0  0
   10.1387   27.4979   14.2963 C   0  0  0  0  0  0  0  0  0  0  0  0
   11.2178   28.3535   14.3277 C   0  0  0  0  0  0  0  0  0  0  0  0
   12.5224   27.8773   14.5649 C   0  0  0  0  0  0  0  0  0  0  0  0
   14.8813   34.6846   13.0035 N   0  0  0  0  0  0  0  0  0  0  0  0
   15.1556   33.4057   12.6502 C   0  0  0  0  0  0  0  0  0  0  0  0
   16.0473   33.0985   11.8578 O   0  0  0  0  0  0  0  0  0  0  0  0
   13.9905   34.9080   13.4302 H   0  0  0  0  0  0  0  0  0  0  0  0
   15.4182   35.7903   12.2415 C   0  0  0  0  0  0  0  0  0  0  0  0
   15.3780   38.2945   12.0478 N   0  0  0  0  0  0  0  0  0  0  0  0
   14.8030   37.1215   12.6985 C   0  0  1  0  0  0  0  0  0  0  0  0
   15.1709   38.2516   11.0561 H   0  0  0  0  0  0  0  0  0  0  0  0
   16.3884   38.2542   12.1384 H   0  0  0  0  0  0  0  0  0  0  0  0
   13.2538   37.0982   12.5518 C   0  0  0  0  0  0  0  0  0  0  0  0
   12.6647   36.1284   13.1035 O   0  0  0  0  0  0  0  0  0  0  0  0
   12.6769   38.0167   11.9294 O   0  0  0  0  0  0  0  0  0  0  0  0
   13.0388   39.0902   10.8912 H   0  0  0  0  0  0  0  0  0  0  0  0
   12.8875   33.3650   14.5992 H   0  0  0  0  0  0  0  0  0  0  0  0
   12.1563   31.0312   15.4769 H   0  0  0  0  0  0  0  0  0  0  0  0
   15.8006   28.7688   14.6504 H   0  0  0  0  0  0  0  0  0  0  0  0
   16.0827   26.3515   14.9740 H   0  0  0  0  0  0  0  0  0  0  0  0
   14.1091   24.8601   14.9912 H   0  0  0  0  0  0  0  0  0  0  0  0
   11.7198   24.5948   15.1020 H   0  0  0  0  0  0  0  0  0  0  0  0
    9.4934   25.4476   14.5798 H   0  0  0  0  0  0  0  0  0  0  0  0
    9.1787   27.8581   13.9530 H   0  0  0  0  0  0  0  0  0  0  0  0
   11.0802   29.4085   14.1317 H   0  0  0  0  0  0  0  0  0  0  0  0
   16.4999   35.8343   12.3747 H   0  0  0  0  0  0  0  0  0  0  0  0
   15.2448   35.6517   11.1701 H   0  0  0  0  0  0  0  0  0  0  0  0
   14.9936   37.2140   13.7698 H   0  0  0  0  0  0  0  0  0  0  0  0
  1  2  2  0
  2  3  1  0
  2 29  1  0
  3  4  2  0
  3 30  1  0
  4  6  1  0
  4  5  1  0
  5  1  1  0
  6  7  2  0
  7  8  1  0
  7 31  1  0
  8  9  2  0
  8 32  1  0
  9 10  1  0
  9 33  1  0
 10 11  2  0
 11 12  1  0
 11 34  1  0
 12 13  2  0
 12 35  1  0
 13 14  1  0
 13 36  1  0
 14 15  2  0
 14 37  1  0
 15  6  1  0
 15 10  1  0
 16 17  1  0
 16 19  1  0
 17 18  2  0
 17  1  1  0
 20 16  1  0
 20 38  1  0
 20 39  1  0
 21 22  1  0
 21 23  1  0
 21 24  1  0
 22 20  1  0
 22 25  1  0
 22 40  1  1
 25 26  2  0
 25 27  1  0
 27 28  1  0
M  END
>  <minimizedAffinity>  (6) 
-6.52061

>  <mol_id>  (6) 
68311

>  <source_index>  (6) 
5

>  <layer>  (6) 
L3

>  <uniprot>  (6) 
Q62645

>  <paff>  (6) 
6.5186000000000002

>  <smiles>  (6) 
N[C@H](CNC(=O)c1ccc(-c2cccc3ccccc23)s1)C(=O)O

>  <aimnet_interaction_kcal_mol>  (6) 
-161.93103019886954

$$$$
L3:Q62645:69000
     RDKit          3D

 34 35  0  0  0  0  0  0  0  0999 V2000
    6.5209   39.5702   11.8398 N   0  0  0  0  0  0  0  0  0  0  0  0
    5.4150   39.4159   12.5955 C   0  0  0  0  0  0  0  0  0  0  0  0
    5.2895   38.5088   13.4279 O   0  0  0  0  0  0  0  0  0  0  0  0
    6.5722   40.3406   11.1923 H   0  0  0  0  0  0  0  0  0  0  0  0
    4.2754   40.3366   12.3957 C   0  0  0  0  0  0  0  0  0  0  0  0
    3.0484   40.1045   12.9805 C   0  0  0  0  0  0  0  0  0  0  0  0
    2.1044   41.0958   12.6982 C   0  0  0  0  0  0  0  0  0  0  0  0
    2.5696   42.0562   11.8168 C   0  0  0  0  0  0  0  0  0  0  0  0
    4.2451   41.8002   11.4673 S   0  0  0  0  0  0  0  0  0  0  0  0
    1.8439   43.0762   11.0836 C   0  0  0  0  0  0  0  0  0  0  0  0
    2.1760   43.3943    9.7545 C   0  0  0  0  0  0  0  0  0  0  0  0
    1.4413   44.2962    9.0084 C   0  0  0  0  0  0  0  0  0  0  0  0
    0.3497   44.9483    9.5778 C   0  0  0  0  0  0  0  0  0  0  0  0
    0.0187   44.6916   10.9113 C   0  0  0  0  0  0  0  0  0  0  0  0
    0.7558   43.7688   11.6247 C   0  0  0  0  0  0  0  0  0  0  0  0
    0.3953   43.5338   12.9139 F   0  0  0  0  0  0  0  0  0  0  0  0
    7.7418   38.8403   12.0705 C   0  0  0  0  0  0  0  0  0  0  0  0
    9.8689   38.1545   11.0818 N   0  0  0  0  0  0  0  0  0  0  0  0
    8.4616   38.4027   10.7872 C   0  0  1  0  0  0  0  0  0  0  0  0
   10.0641   37.1700   11.1244 H   0  0  0  0  0  0  0  0  0  0  0  0
   10.4732   38.5442   10.3734 H   0  0  0  0  0  0  0  0  0  0  0  0
    7.8437   37.1588   10.1901 C   0  0  0  0  0  0  0  0  0  0  0  0
    7.0818   36.3891   10.7575 O   0  0  0  0  0  0  0  0  0  0  0  0
    8.3127   36.8566    8.9460 O   0  0  0  0  0  0  0  0  0  0  0  0
    7.5844   36.7888    8.3138 H   0  0  0  0  0  0  0  0  0  0  0  0
    2.8991   39.2653   13.6379 H   0  0  0  0  0  0  0  0  0  0  0  0
    1.1378   41.1513   13.1710 H   0  0  0  0  0  0  0  0  0  0  0  0
    3.0354   42.9235    9.2985 H   0  0  0  0  0  0  0  0  0  0  0  0
    1.7515   44.5188    7.9956 H   0  0  0  0  0  0  0  0  0  0  0  0
   -0.1232   45.7694    9.0513 H   0  0  0  0  0  0  0  0  0  0  0  0
   -0.7630   45.2420   11.4179 H   0  0  0  0  0  0  0  0  0  0  0  0
    8.4518   39.4604   12.6144 H   0  0  0  0  0  0  0  0  0  0  0  0
    7.5254   37.9750   12.6851 H   0  0  0  0  0  0  0  0  0  0  0  0
    8.3813   39.2201   10.0650 H   0  0  0  0  0  0  0  0  0  0  0  0
  1  2  1  0
  1  4  1  0
  2  3  2  0
  2  5  1  0
  5  6  2  0
  6  7  1  0
  6 26  1  0
  7  8  2  0
  7 27  1  0
  8 10  1  0
  8  9  1  0
  9  5  1  0
 10 11  2  0
 11 12  1  0
 11 28  1  0
 12 13  2  0
 12 29  1  0
 13 14  1  0
 13 30  1  0
 14 15  2  0
 14 31  1  0
 15 16  1  0
 15 10  1  0
 17  1  1  0
 17 32  1  0
 17 33  1  0
 18 19  1  0
 18 20  1  0
 18 21  1  0
 19 17  1  0
 19 22  1  0
 19 34  1  6
 22 23  2  0
 22 24  1  0
 24 25  1  0
M  END
>  <minimizedAffinity>  (7) 
-6.66977

>  <mol_id>  (7) 
69000

>  <source_index>  (7) 
6

>  <layer>  (7) 
L3

>  <uniprot>  (7) 
Q62645

>  <paff>  (7) 
6.0087999999999999

>  <smiles>  (7) 
N[C@H](CNC(=O)c1ccc(-c2ccccc2F)s1)C(=O)O

>  <aimnet_interaction_kcal_mol>  (7) 
-85.727598896041329

$$$$
L3:Q62645:103070
     RDKit          3D

 37 38  0  0  0  0  0  0  0  0999 V2000
    3.5560   41.9343   10.9925 C   0  0  0  0  0  0  0  0  0  0  0  0
    3.1101   41.9091    9.6963 C   0  0  0  0  0  0  0  0  0  0  0  0
    2.9330   43.1794    9.1269 C   0  0  0  0  0  0  0  0  0  0  0  0
    3.3043   44.1952    9.9607 C   0  0  0  0  0  0  0  0  0  0  0  0
    3.8450   43.5847   11.4996 S   0  0  0  0  0  0  0  0  0  0  0  0
    3.4461   45.6101    9.6419 C   0  0  0  0  0  0  0  0  0  0  0  0
    4.7174   46.1817    9.7403 C   0  0  0  0  0  0  0  0  0  0  0  0
    4.9447   47.4829    9.3218 C   0  0  0  0  0  0  0  0  0  0  0  0
    3.9136   48.2272    8.7685 C   0  0  0  0  0  0  0  0  0  0  0  0
    2.6404   47.6861    8.6905 C   0  0  0  0  0  0  0  0  0  0  0  0
    2.3859   46.4115    9.1826 C   0  0  0  0  0  0  0  0  0  0  0  0
    0.9640   45.9628    9.2945 C   0  0  0  0  0  0  0  0  0  0  0  0
    0.5854   45.0087    8.3744 F   0  0  0  0  0  0  0  0  0  0  0  0
    0.0804   46.9817    9.1274 F   0  0  0  0  0  0  0  0  0  0  0  0
    0.6788   45.4082   10.5100 F   0  0  0  0  0  0  0  0  0  0  0  0
    5.1366   40.5549   12.1901 N   0  0  0  0  0  0  0  0  0  0  0  0
    3.8481   40.7422   11.8321 C   0  0  0  0  0  0  0  0  0  0  0  0
    2.9562   39.9342   12.1270 O   0  0  0  0  0  0  0  0  0  0  0  0
    5.8337   41.2126   11.8462 H   0  0  0  0  0  0  0  0  0  0  0  0
    5.5726   39.3116   12.7914 C   0  0  0  0  0  0  0  0  0  0  0  0
    7.7027   38.2741   13.6290 N   0  0  0  0  0  0  0  0  0  0  0  0
    7.0545   38.9947   12.5048 C   0  0  1  0  0  0  0  0  0  0  0  0
    8.6902   38.5100   13.6092 H   0  0  0  0  0  0  0  0  0  0  0  0
    7.3483   38.6710   14.4976 H   0  0  0  0  0  0  0  0  0  0  0  0
    7.3132   38.1760   11.2466 C   0  0  0  0  0  0  0  0  0  0  0  0
    6.9200   37.0321   11.0487 O   0  0  0  0  0  0  0  0  0  0  0  0
    8.1109   38.8468   10.4307 O   0  0  0  0  0  0  0  0  0  0  0  0
    8.0816   38.5280    9.5118 H   0  0  0  0  0  0  0  0  0  0  0  0
    3.0348   41.0157    9.1056 H   0  0  0  0  0  0  0  0  0  0  0  0
    2.6204   43.3440    8.1081 H   0  0  0  0  0  0  0  0  0  0  0  0
    5.5397   45.5746   10.0988 H   0  0  0  0  0  0  0  0  0  0  0  0
    5.9383   47.9057    9.4085 H   0  0  0  0  0  0  0  0  0  0  0  0
    4.0905   49.2345    8.4110 H   0  0  0  0  0  0  0  0  0  0  0  0
    1.8410   48.2565    8.2418 H   0  0  0  0  0  0  0  0  0  0  0  0
    5.4298   39.3549   13.8703 H   0  0  0  0  0  0  0  0  0  0  0  0
    4.9398   38.5003   12.4424 H   0  0  0  0  0  0  0  0  0  0  0  0
    7.5468   39.9461   12.3526 H   0  0  0  0  0  0  0  0  0  0  0  0
  1  2  2  0
  2  3  1  0
  2 29  1  0
  3  4  2  0
  3 30  1  0
  4  6  1  0
  4  5  1  0
  5  1  1  0
  6  7  2  0
  7  8  1  0
  7 31  1  0
  8  9  2  0
  8 32  1  0
  9 10  1  0
  9 33  1  0
 10 11  2  0
 10 34  1  0
 11 12  1  0
 11  6  1  0
 12 13  1  0
 12 14  1  0
 12 15  1  0
 16 17  1  0
 16 19  1  0
 17 18  2  0
 17  1  1  0
 20 16  1  0
 20 35  1  0
 20 36  1  0
 21 22  1  0
 21 23  1  0
 21 24  1  0
 22 20  1  0
 22 25  1  0
 22 37  1  6
 25 26  2  0
 25 27  1  0
 27 28  1  0
M  END
>  <minimizedAffinity>  (8) 
-6.17820

>  <mol_id>  (8) 
103070

>  <source_index>  (8) 
7

>  <layer>  (8) 
L3

>  <uniprot>  (8) 
Q62645

>  <paff>  (8) 
6.6989999999999998

>  <smiles>  (8) 
N[C@H](CNC(=O)c1ccc(-c2ccccc2C(F)(F)F)s1)C(=O)O

>  <aimnet_interaction_kcal_mol>  (8) 
-95.388886705453601

$$$$
L3:Q62645:108874
     RDKit          3D

 37 38  0  0  0  0  0  0  0  0999 V2000
   15.1698   30.2882   16.8788 C   0  0  0  0  0  0  0  0  0  0  0  0
   14.9015   31.1094   15.6625 C   0  0  0  0  0  0  0  0  0  0  0  0
   15.5645   32.3325   15.3951 C   0  0  0  0  0  0  0  0  0  0  0  0
   15.1684   32.9572   14.2461 C   0  0  0  0  0  0  0  0  0  0  0  0
   13.9245   32.0233   13.4508 S   0  0  0  0  0  0  0  0  0  0  0  0
   13.9955   30.7869   14.6787 C   0  0  0  0  0  0  0  0  0  0  0  0
   13.1794   29.5840   14.5401 C   0  0  0  0  0  0  0  0  0  0  0  0
   11.7870   29.6860   14.4919 C   0  0  0  0  0  0  0  0  0  0  0  0
   10.9855   28.5643   14.3546 C   0  0  0  0  0  0  0  0  0  0  0  0
   11.5580   27.3005   14.3358 C   0  0  0  0  0  0  0  0  0  0  0  0
   12.9409   27.1582   14.3591 C   0  0  0  0  0  0  0  0  0  0  0  0
   13.7282   28.2991   14.4082 C   0  0  0  0  0  0  0  0  0  0  0  0
   15.6068   28.0756   14.1959 Br  0  0  0  0  0  0  0  0  0  0  0  0
   15.7601   34.2149   13.7228 C   0  0  0  0  0  0  0  0  0  0  0  0
   16.8525   34.6011   14.1145 O   0  0  0  0  0  0  0  0  0  0  0  0
   15.0018   34.8650   12.7925 N   0  0  0  0  0  0  0  0  0  0  0  0
   14.0101   34.7014   12.8185 H   0  0  0  0  0  0  0  0  0  0  0  0
   15.4199   36.0727   12.1306 C   0  0  0  0  0  0  0  0  0  0  0  0
   14.6033   37.3503   12.4974 C   0  0  1  0  0  0  0  0  0  0  0  0
   14.9907   38.5217   11.7356 N   0  0  0  0  0  0  0  0  0  0  0  0
   15.7085   38.2889   11.0645 H   0  0  0  0  0  0  0  0  0  0  0  0
   14.2120   38.9189   11.1719 H   0  0  0  0  0  0  0  0  0  0  0  0
   13.1325   37.0089   12.3975 C   0  0  0  0  0  0  0  0  0  0  0  0
   12.6079   36.1608   13.1193 O   0  0  0  0  0  0  0  0  0  0  0  0
   12.4721   37.6464   11.4598 O   0  0  0  0  0  0  0  0  0  0  0  0
   11.6376   37.2079   11.1992 H   0  0  0  0  0  0  0  0  0  0  0  0
   15.0208   30.8820   17.7789 H   0  0  0  0  0  0  0  0  0  0  0  0
   16.1998   29.9352   16.8806 H   0  0  0  0  0  0  0  0  0  0  0  0
   14.5224   29.4181   16.9320 H   0  0  0  0  0  0  0  0  0  0  0  0
   16.3312   32.7466   16.0315 H   0  0  0  0  0  0  0  0  0  0  0  0
   11.3357   30.6680   14.5445 H   0  0  0  0  0  0  0  0  0  0  0  0
    9.9241   28.6885   14.2049 H   0  0  0  0  0  0  0  0  0  0  0  0
   10.9365   26.4120   14.2793 H   0  0  0  0  0  0  0  0  0  0  0  0
   13.4035   26.1815   14.3288 H   0  0  0  0  0  0  0  0  0  0  0  0
   15.3528   35.9383   11.0491 H   0  0  0  0  0  0  0  0  0  0  0  0
   16.4590   36.2578   12.3865 H   0  0  0  0  0  0  0  0  0  0  0  0
   14.7883   37.5228   13.5634 H   0  0  0  0  0  0  0  0  0  0  0  0
  1  2  1  0
  1 27  1  0
  1 28  1  0
  1 29  1  0
  2  3  1  0
  3  4  2  0
  3 30  1  0
  4 14  1  0
  4  5  1  0
  5  6  1  0
  6  7  1  0
  6  2  2  0
  7  8  2  0
  8  9  1  0
  8 31  1  0
  9 10  2  0
  9 32  1  0
 10 11  1  0
 10 33  1  0
 11 12  2  0
 11 34  1  0
 12 13  1  0
 12  7  1  0
 14 15  2  0
 14 16  1  0
 16 18  1  0
 16 17  1  0
 18 19  1  0
 18 35  1  0
 18 36  1  0
 19 20  1  0
 19 23  1  0
 19 37  1  1
 20 21  1  0
 20 22  1  0
 23 24  2  0
 23 25  1  0
 25 26  1  0
M  END
>  <minimizedAffinity>  (9) 
-5.85714

>  <mol_id>  (9) 
108874

>  <source_index>  (9) 
8

>  <layer>  (9) 
L3

>  <uniprot>  (9) 
Q62645

>  <paff>  (9) 
6.9207999999999998

>  <smiles>  (9) 
Cc1cc(C(=O)NC[C@@H](N)C(=O)O)sc1-c1ccccc1Br

>  <aimnet_interaction_kcal_mol>  (9) 
-47.865694899850162

$$$$
L3:Q62645:134390
     RDKit          3D

 47 49  0  0  0  0  0  0  0  0999 V2000
   14.0081   28.3266   13.9954 C   0  0  0  0  0  0  0  0  0  0  0  0
   14.5038   27.3053   13.1986 C   0  0  0  0  0  0  0  0  0  0  0  0
   15.0982   27.5591   11.9533 C   0  0  0  0  0  0  0  0  0  0  0  0
   15.2278   28.8436   11.4637 C   0  0  0  0  0  0  0  0  0  0  0  0
   14.7468   29.8815   12.2562 C   0  0  0  0  0  0  0  0  0  0  0  0
   14.7525   31.2283   12.0464 N   0  0  0  0  0  0  0  0  0  0  0  0
   14.1602   31.8822   13.1034 C   0  0  0  0  0  0  0  0  0  0  0  0
   13.7473   30.9300   14.0197 C   0  0  0  0  0  0  0  0  0  0  0  0
   14.1136   29.6561   13.5116 C   0  0  0  0  0  0  0  0  0  0  0  0
   15.0997   31.7185   11.2380 H   0  0  0  0  0  0  0  0  0  0  0  0
   12.2043   28.4579   15.7564 C   0  0  0  0  0  0  0  0  0  0  0  0
   11.8588   28.2915   17.0965 C   0  0  0  0  0  0  0  0  0  0  0  0
   12.6661   27.5788   17.9697 C   0  0  0  0  0  0  0  0  0  0  0  0
   13.8501   27.0251   17.5070 C   0  0  0  0  0  0  0  0  0  0  0  0
   14.2369   27.2320   16.1941 C   0  0  0  0  0  0  0  0  0  0  0  0
   13.4705   28.0155   15.3272 C   0  0  0  0  0  0  0  0  0  0  0  0
   10.4056   27.8575   14.1163 C   0  0  0  0  0  0  0  0  0  0  0  0
   11.1872   28.9860   14.7938 C   0  0  0  0  0  0  0  0  0  0  0  0
   14.2420   33.3546   13.0814 C   0  0  0  0  0  0  0  0  0  0  0  0
   15.0457   33.9043   12.3281 O   0  0  0  0  0  0  0  0  0  0  0  0
   13.4287   34.0472   13.9268 N   0  0  0  0  0  0  0  0  0  0  0  0
   12.6692   33.5615   14.3831 H   0  0  0  0  0  0  0  0  0  0  0  0
   13.8776   35.2938   14.5102 C   0  0  0  0  0  0  0  0  0  0  0  0
   13.8851   36.5023   13.5620 C   0  0  1  0  0  0  0  0  0  0  0  0
   12.5718   36.6805   12.9217 N   0  0  0  0  0  0  0  0  0  0  0  0
   12.6869   37.2414   12.0819 H   0  0  0  0  0  0  0  0  0  0  0  0
   11.9515   37.2225   13.5194 H   0  0  0  0  0  0  0  0  0  0  0  0
   14.2731   37.7175   14.3950 C   0  0  0  0  0  0  0  0  0  0  0  0
   13.7537   37.9812   15.4629 O   0  0  0  0  0  0  0  0  0  0  0  0
   15.2139   38.4911   13.8548 O   0  0  0  0  0  0  0  0  0  0  0  0
   15.3116   39.2880   14.4155 H   0  0  0  0  0  0  0  0  0  0  0  0
   14.4473   26.2852   13.5539 H   0  0  0  0  0  0  0  0  0  0  0  0
   15.4830   26.7299   11.3746 H   0  0  0  0  0  0  0  0  0  0  0  0
   15.6894   29.0438   10.5065 H   0  0  0  0  0  0  0  0  0  0  0  0
   13.2760   31.1184   14.9646 H   0  0  0  0  0  0  0  0  0  0  0  0
   10.9743   28.7795   17.4844 H   0  0  0  0  0  0  0  0  0  0  0  0
   12.3812   27.4725   19.0075 H   0  0  0  0  0  0  0  0  0  0  0  0
   14.4789   26.4441   18.1680 H   0  0  0  0  0  0  0  0  0  0  0  0
   15.1571   26.7917   15.8314 H   0  0  0  0  0  0  0  0  0  0  0  0
    9.4732   28.1951   13.6753 H   0  0  0  0  0  0  0  0  0  0  0  0
   10.2028   27.0418   14.8130 H   0  0  0  0  0  0  0  0  0  0  0  0
   10.9899   27.4000   13.3190 H   0  0  0  0  0  0  0  0  0  0  0  0
   10.5102   29.6538   15.3095 H   0  0  0  0  0  0  0  0  0  0  0  0
   11.6425   29.5994   14.0262 H   0  0  0  0  0  0  0  0  0  0  0  0
   14.9019   35.1689   14.8678 H   0  0  0  0  0  0  0  0  0  0  0  0
   13.2594   35.5209   15.3729 H   0  0  0  0  0  0  0  0  0  0  0  0
   14.6277   36.3300   12.7880 H   0  0  0  0  0  0  0  0  0  0  0  0
  1  2  2  0
  2  3  1  0
  2 32  1  0
  3  4  2  0
  3 33  1  0
  4  5  1  0
  4 34  1  0
  5  6  1  0
  6  7  1  0
  6 10  1  0
  7 19  1  0
  7  8  2  0
  8  9  1  0
  8 35  1  0
  9  1  1  0
  9  5  2  0
 11 12  2  0
 12 13  1  0
 12 36  1  0
 13 14  2  0
 13 37  1  0
 14 15  1  0
 14 38  1  0
 15 16  2  0
 15 39  1  0
 16  1  1  0
 16 11  1  0
 17 18  1  0
 17 40  1  0
 17 41  1  0
 17 42  1  0
 18 11  1  0
 18 43  1  0
 18 44  1  0
 19 20  2  0
 19 21  1  0
 21 23  1  0
 21 22  1  0
 23 24  1  0
 23 45  1  0
 23 46  1  0
 24 25  1  0
 24 28  1  0
 24 47  1  6
 25 26  1  0
 25 27  1  0
 28 29  2  0
 28 30  1  0
 30 31  1  0
M  END
>  <minimizedAffinity>  (10) 
-6.52950

>  <mol_id>  (10) 
134390

>  <source_index>  (10) 
9

>  <layer>  (10) 
L3

>  <uniprot>  (10) 
Q62645

>  <paff>  (10) 
7.5086000000000004

>  <smiles>  (10) 
CCc1ccccc1-c1cccc2[nH]c(C(=O)NC[C@@H](N)C(=O)O)cc12

>  <aimnet_interaction_kcal_mol>  (10) 
-59.106083342091608

$$$$
