L3:Q62645:2221
     RDKit          3D

 40 41  0  0  0  0  0  0  0  0999 V2000
   13.9307   30.7109   14.6803 C   0  0  0  0  0  0  0  0  0  0  0  0
   14.6301   31.1575   15.7821 C   0  0  0  0  0  0  0  0  0  0  0  0
   15.3554   32.3528   15.5090 C   0  0  0  0  0  0  0  0  0  0  0  0
   15.1981   32.7855   14.2048 C   0  0  0  0  0  0  0  0  0  0  0  0
   14.1745   31.7278   13.3263 S   0  0  0  0  0  0  0  0  0  0  0  0
   13.5667   28.2858   14.1000 C   0  0  0  0  0  0  0  0  0  0  0  0
   12.6762   27.1997   14.0019 C   0  0  0  0  0  0  0  0  0  0  0  0
   11.3290   27.3405   14.3353 C   0  0  0  0  0  0  0  0  0  0  0  0
   10.8479   28.5681   14.7759 C   0  0  0  0  0  0  0  0  0  0  0  0
   11.7159   29.6542   14.8848 C   0  0  0  0  0  0  0  0  0  0  0  0
   13.0772   29.5280   14.5561 C   0  0  0  0  0  0  0  0  0  0  0  0
   15.2479   28.0655   12.2397 C   0  0  0  0  0  0  0  0  0  0  0  0
   15.0183   28.0508   13.7441 C   0  0  0  0  0  0  0  0  0  0  0  0
   15.7982   33.9693   13.6051 C   0  0  0  0  0  0  0  0  0  0  0  0
   16.9720   34.2881   13.7871 O   0  0  0  0  0  0  0  0  0  0  0  0
   14.9664   34.7425   12.8241 N   0  0  0  0  0  0  0  0  0  0  0  0
   13.9909   34.4767   12.7441 H   0  0  0  0  0  0  0  0  0  0  0  0
   15.4174   35.9531   12.1610 C   0  0  0  0  0  0  0  0  0  0  0  0
   14.7118   37.2228   12.6675 C   0  0  1  0  0  0  0  0  0  0  0  0
   15.0197   38.3745   11.7818 N   0  0  0  0  0  0  0  0  0  0  0  0
   15.9835   38.6624   11.9534 H   0  0  0  0  0  0  0  0  0  0  0  0
   14.4328   39.1560   12.0864 H   0  0  0  0  0  0  0  0  0  0  0  0
   13.1952   37.0047   12.7175 C   0  0  0  0  0  0  0  0  0  0  0  0
   12.5446   36.4996   13.6191 O   0  0  0  0  0  0  0  0  0  0  0  0
   12.5632   37.4980   11.6238 O   0  0  0  0  0  0  0  0  0  0  0  0
   11.6201   37.2871   11.7858 H   0  0  0  0  0  0  0  0  0  0  0  0
   14.6282   30.6812   16.6976 H   0  0  0  0  0  0  0  0  0  0  0  0
   15.9352   32.8426   16.2083 H   0  0  0  0  0  0  0  0  0  0  0  0
   13.0259   26.2844   13.6780 H   0  0  0  0  0  0  0  0  0  0  0  0
   10.6901   26.5341   14.2549 H   0  0  0  0  0  0  0  0  0  0  0  0
    9.8514   28.6754   15.0217 H   0  0  0  0  0  0  0  0  0  0  0  0
   11.3538   30.5638   15.2114 H   0  0  0  0  0  0  0  0  0  0  0  0
   16.2844   27.8959   12.0354 H   0  0  0  0  0  0  0  0  0  0  0  0
   14.9572   29.0161   11.8438 H   0  0  0  0  0  0  0  0  0  0  0  0
   14.6635   27.2948   11.7822 H   0  0  0  0  0  0  0  0  0  0  0  0
   15.6122   28.8202   14.1914 H   0  0  0  0  0  0  0  0  0  0  0  0
   15.2954   27.0844   14.1105 H   0  0  0  0  0  0  0  0  0  0  0  0
   15.2300   35.8558   11.1120 H   0  0  0  0  0  0  0  0  0  0  0  0
   16.4599   36.0626   12.3756 H   0  0  0  0  0  0  0  0  0  0  0  0
   15.0688   37.4350   13.6536 H   0  0  0  0  0  0  0  0  0  0  0  0
  1  2  2  0
  2  3  1  0
  2 27  1  0
  3  4  2  0
  3 28  1  0
  4 14  1  0
  4  5  1  0
  5  1  1  0
  6  7  2  0
  7  8  1  0
  7 29  1  0
  8  9  2  0
  8 30  1  0
  9 10  1  0
  9 31  1  0
 10 11  2  0
 10 32  1  0
 11  1  1  0
 11  6  1  0
 12 13  1  0
 12 33  1  0
 12 34  1  0
 12 35  1  0
 13  6  1  0
 13 36  1  0
 13 37  1  0
 14 15  2  0
 14 16  1  0
 16 18  1  0
 16 17  1  0
 18 19  1  0
 18 38  1  0
 18 39  1  0
 19 20  1  0
 19 23  1  0
 19 40  1  1
 20 21  1  0
 20 22  1  0
 23 24  2  0
 23 25  1  0
 25 26  1  0
M  END
>  <minimizedAffinity>  (1) 
-5.83800

>  <mol_id>  (1) 
2221

>  <source_index>  (1) 
0

>  <layer>  (1) 
L3

>  <uniprot>  (1) 
Q62645

>  <paff>  (1) 
7.0914999999999999

>  <smiles>  (1) 
CCc1ccccc1-c1ccc(C(=O)NC[C@@H](N)C(=O)O)s1

$$$$
L3:Q62645:24323
     RDKit          3D

 10  9  0  0  0  0  0  0  0  0999 V2000
    8.9171   37.8057   12.5948 N   0  0  0  0  0  0  0  0  0  0  0  0
    8.5199   38.2868   11.2606 C   0  0  0  0  0  0  0  0  0  0  0  0
    9.3294   38.5743   13.1195 H   0  0  0  0  0  0  0  0  0  0  0  0
    9.6533   37.1068   12.4676 H   0  0  0  0  0  0  0  0  0  0  0  0
    8.2938   37.1314   10.2956 C   0  0  0  0  0  0  0  0  0  0  0  0
    7.7398   36.0743   10.5527 O   0  0  0  0  0  0  0  0  0  0  0  0
    8.6986   37.3993    9.0325 O   0  0  0  0  0  0  0  0  0  0  0  0
    8.4941   36.5736    8.5465 H   0  0  0  0  0  0  0  0  0  0  0  0
    9.2934   38.9168   10.8736 H   0  0  0  0  0  0  0  0  0  0  0  0
    7.6017   38.8274   11.3582 H   0  0  0  0  0  0  0  0  0  0  0  0
  1  2  1  0
  1  3  1  0
  1  4  1  0
  2  5  1  0
  2  9  1  0
  2 10  1  0
  5  6  2  0
  5  7  1  0
  7  8  1  0
M  END
>  <minimizedAffinity>  (2) 
-4.82132

>  <mol_id>  (2) 
24323

>  <source_index>  (2) 
1

>  <layer>  (2) 
L3

>  <uniprot>  (2) 
Q62645

>  <paff>  (2) 
6.8860999999999999

>  <smiles>  (2) 
NCC(=O)O

$$$$
L3:Q62645:38593
     RDKit          3D

 44 47  0  0  0  0  0  0  0  0999 V2000
   11.6628   47.4570   13.9025 C   0  0  0  0  0  0  0  0  0  0  0  0
   10.4047   47.3844   13.0974 C   0  0  0  0  0  0  0  0  0  0  0  0
   10.5144   47.2880   11.3877 S   0  0  0  0  0  0  0  0  0  0  0  0
    8.8230   47.2793   11.2013 C   0  0  0  0  0  0  0  0  0  0  0  0
    8.2462   47.2424    9.9738 N   0  0  0  0  0  0  0  0  0  0  0  0
    6.9519   47.2481    9.9919 C   0  0  0  0  0  0  0  0  0  0  0  0
    6.1649   47.2532   11.1283 N   0  0  0  0  0  0  0  0  0  0  0  0
    6.7228   47.3028   12.4030 C   0  0  0  0  0  0  0  0  0  0  0  0
    6.0442   47.3369   13.4267 O   0  0  0  0  0  0  0  0  0  0  0  0
    8.1744   47.3208   12.4155 C   0  0  0  0  0  0  0  0  0  0  0  0
    9.0844   47.3819   13.5238 C   0  0  0  0  0  0  0  0  0  0  0  0
    8.7342   47.4638   14.9349 C   0  0  0  0  0  0  0  0  0  0  0  0
    8.5104   48.7063   15.5373 C   0  0  0  0  0  0  0  0  0  0  0  0
    8.2005   48.7786   16.8975 C   0  0  0  0  0  0  0  0  0  0  0  0
    8.1193   47.6112   17.6633 C   0  0  0  0  0  0  0  0  0  0  0  0
    7.7390   47.7762   19.3404 Cl  0  0  0  0  0  0  0  0  0  0  0  0
    8.3457   46.3672   17.0633 C   0  0  0  0  0  0  0  0  0  0  0  0
    8.2738   44.8846   17.9488 Cl  0  0  0  0  0  0  0  0  0  0  0  0
    8.6477   46.2948   15.7004 C   0  0  0  0  0  0  0  0  0  0  0  0
    4.7148   47.2758   11.0150 C   0  0  0  0  0  0  0  0  0  0  0  0
    4.3020   46.1440   10.0797 C   0  0  0  0  0  0  0  0  0  0  0  0
    4.0260   46.3654    8.8994 O   0  0  0  0  0  0  0  0  0  0  0  0
    4.2100   44.8983   10.6202 N   0  0  0  0  0  0  0  0  0  0  0  0
    3.7621   43.6578   10.0154 C   0  0  0  0  0  0  0  0  0  0  0  0
    3.5821   43.1160   11.4521 C   0  0  0  0  0  0  0  0  0  0  0  0
    2.1412   43.0905   11.9422 C   0  0  0  0  0  0  0  0  0  0  0  0
    4.1494   41.9077   11.6918 F   0  0  0  0  0  0  0  0  0  0  0  0
    4.4009   44.3349   11.9392 C   0  0  0  0  0  0  0  0  0  0  0  0
   12.5078   47.4364   13.2464 H   0  0  0  0  0  0  0  0  0  0  0  0
   11.7084   46.6213   14.5691 H   0  0  0  0  0  0  0  0  0  0  0  0
   11.6724   48.3653   14.4680 H   0  0  0  0  0  0  0  0  0  0  0  0
    6.4666   47.2489    9.0811 H   0  0  0  0  0  0  0  0  0  0  0  0
    8.5743   49.5702   14.9764 H   0  0  0  0  0  0  0  0  0  0  0  0
    8.0310   49.6961   17.3385 H   0  0  0  0  0  0  0  0  0  0  0  0
    8.8074   45.3767   15.2570 H   0  0  0  0  0  0  0  0  0  0  0  0
    4.3958   48.2147   10.6130 H   0  0  0  0  0  0  0  0  0  0  0  0
    4.2630   47.1493   11.9766 H   0  0  0  0  0  0  0  0  0  0  0  0
    4.5031   43.1495    9.4345 H   0  0  0  0  0  0  0  0  0  0  0  0
    2.9701   43.6314    9.2964 H   0  0  0  0  0  0  0  0  0  0  0  0
    1.6502   42.2195   11.5611 H   0  0  0  0  0  0  0  0  0  0  0  0
    1.6319   43.9664   11.5981 H   0  0  0  0  0  0  0  0  0  0  0  0
    2.1287   43.0677   13.0119 H   0  0  0  0  0  0  0  0  0  0  0  0
    5.4183   44.1191   12.1908 H   0  0  0  0  0  0  0  0  0  0  0  0
    4.1415   44.8726   12.8272 H   0  0  0  0  0  0  0  0  0  0  0  0
  1  2  1  0
  1 29  1  0
  1 30  1  0
  1 31  1  0
  2  3  1  0
  3  4  1  0
  4  5  1  0
  5  6  2  0
  6  7  1  0
  6 32  1  0
  7 20  1  0
  7  8  1  0
  8  9  2  0
  8 10  1  0
 10 11  1  0
 10  4  2  0
 11 12  1  0
 11  2  2  0
 12 13  2  0
 13 14  1  0
 13 33  1  0
 14 15  2  0
 14 34  1  0
 15 16  1  0
 15 17  1  0
 17 18  1  0
 17 19  2  0
 19 12  1  0
 19 35  1  0
 20 21  1  0
 20 36  1  0
 20 37  1  0
 21 22  2  0
 21 23  1  0
 23 24  1  0
 24 25  1  0
 24 38  1  0
 24 39  1  0
 25 26  1  0
 25 27  1  0
 25 28  1  0
 26 40  1  0
 26 41  1  0
 26 42  1  0
 28 23  1  0
 28 43  1  0
 28 44  1  0
M  END
>  <minimizedAffinity>  (3) 
-5.90623

>  <mol_id>  (3) 
38593

>  <source_index>  (3) 
2

>  <layer>  (3) 
L3

>  <uniprot>  (3) 
Q62645

>  <paff>  (3) 
6

>  <smiles>  (3) 
Cc1sc2ncn(CC(=O)N3CC(C)(F)C3)c(=O)c2c1-c1ccc(Cl)c(Cl)c1

$$$$
L3:Q62645:43699
     RDKit          3D

 34 35  0  0  0  0  0  0  0  0999 V2000
   15.1601   35.7663   13.9627 N   0  0  0  0  0  0  0  0  0  0  0  0
   15.6136   34.9334   12.9582 C   0  0  0  0  0  0  0  0  0  0  0  0
   16.2823   35.3834   12.0295 O   0  0  0  0  0  0  0  0  0  0  0  0
   14.6901   35.3884   14.7722 H   0  0  0  0  0  0  0  0  0  0  0  0
   15.2566   33.5280   13.1080 C   0  0  0  0  0  0  0  0  0  0  0  0
   15.6060   32.4258   12.3460 C   0  0  0  0  0  0  0  0  0  0  0  0
   15.0305   31.2281   12.8460 C   0  0  0  0  0  0  0  0  0  0  0  0
   15.3530   29.5699   11.9956 Br  0  0  0  0  0  0  0  0  0  0  0  0
   14.2557   31.4180   13.9661 C   0  0  0  0  0  0  0  0  0  0  0  0
   14.2484   33.0687   14.4239 S   0  0  0  0  0  0  0  0  0  0  0  0
   13.4968   30.4542   14.7639 C   0  0  0  0  0  0  0  0  0  0  0  0
   12.1088   30.3611   14.5662 C   0  0  0  0  0  0  0  0  0  0  0  0
   11.3392   29.4663   15.3126 C   0  0  0  0  0  0  0  0  0  0  0  0
   11.9459   28.6545   16.2676 C   0  0  0  0  0  0  0  0  0  0  0  0
   13.3225   28.7355   16.4778 C   0  0  0  0  0  0  0  0  0  0  0  0
   14.0970   29.6310   15.7315 C   0  0  0  0  0  0  0  0  0  0  0  0
   15.9662   29.6705   16.0821 Br  0  0  0  0  0  0  0  0  0  0  0  0
   15.4405   37.1976   13.9737 C   0  0  0  0  0  0  0  0  0  0  0  0
   15.1362   38.3730   11.7894 N   0  0  0  0  0  0  0  0  0  0  0  0
   14.4854   38.0113   13.0831 C   0  0  1  0  0  0  0  0  0  0  0  0
   14.4477   38.8895   11.2356 H   0  0  0  0  0  0  0  0  0  0  0  0
   15.2481   37.4992   11.2661 H   0  0  0  0  0  0  0  0  0  0  0  0
   13.1876   37.2442   12.8252 C   0  0  0  0  0  0  0  0  0  0  0  0
   12.5345   36.6378   13.6625 O   0  0  0  0  0  0  0  0  0  0  0  0
   12.8189   37.2450   11.5299 O   0  0  0  0  0  0  0  0  0  0  0  0
   11.9332   36.8231   11.5362 H   0  0  0  0  0  0  0  0  0  0  0  0
   16.2133   32.4698   11.5127 H   0  0  0  0  0  0  0  0  0  0  0  0
   11.6528   30.9610   13.8611 H   0  0  0  0  0  0  0  0  0  0  0  0
   10.3208   29.4067   15.1565 H   0  0  0  0  0  0  0  0  0  0  0  0
   11.3774   27.9933   16.8195 H   0  0  0  0  0  0  0  0  0  0  0  0
   13.7712   28.1333   17.1857 H   0  0  0  0  0  0  0  0  0  0  0  0
   15.3532   37.5532   14.9791 H   0  0  0  0  0  0  0  0  0  0  0  0
   16.4280   37.3303   13.5837 H   0  0  0  0  0  0  0  0  0  0  0  0
   14.2469   38.9139   13.6060 H   0  0  0  0  0  0  0  0  0  0  0  0
  1  2  1  0
  1  4  1  0
  2  3  2  0
  2  5  1  0
  5  6  2  0
  6  7  1  0
  6 27  1  0
  7  8  1  0
  7  9  2  0
  9 11  1  0
  9 10  1  0
 10  5  1  0
 11 12  2  0
 12 13  1  0
 12 28  1  0
 13 14  2  0
 13 29  1  0
 14 15  1  0
 14 30  1  0
 15 16  2  0
 15 31  1  0
 16 17  1  0
 16 11  1  0
 18  1  1  0
 18 32  1  0
 18 33  1  0
 19 20  1  0
 19 21  1  0
 19 22  1  0
 20 18  1  0
 20 23  1  0
 20 34  1  1
 23 24  2  0
 23 25  1  0
 25 26  1  0
M  END
>  <minimizedAffinity>  (4) 
-5.80545

>  <mol_id>  (4) 
43699

>  <source_index>  (4) 
3

>  <layer>  (4) 
L3

>  <uniprot>  (4) 
Q62645

>  <paff>  (4) 
7.7958999999999996

>  <smiles>  (4) 
N[C@H](CNC(=O)c1cc(Br)c(-c2ccccc2Br)s1)C(=O)O

$$$$
L3:Q62645:53381
     RDKit          3D

 14 13  0  0  0  0  0  0  0  0999 V2000
   10.1518   38.3436   10.6092 N   0  0  0  0  0  0  0  0  0  0  0  0
    8.6675   38.2578   10.5925 C   0  0  1  0  0  0  0  0  0  0  0  0
   10.4876   38.2518    9.6492 H   0  0  0  0  0  0  0  0  0  0  0  0
   10.4956   37.4986   11.0772 H   0  0  0  0  0  0  0  0  0  0  0  0
    8.2209   36.9077   10.0262 C   0  0  0  0  0  0  0  0  0  0  0  0
    7.7000   35.9932   10.6431 O   0  0  0  0  0  0  0  0  0  0  0  0
    8.4551   36.7827    8.6980 O   0  0  0  0  0  0  0  0  0  0  0  0
    8.1421   35.8747    8.4965 H   0  0  0  0  0  0  0  0  0  0  0  0
    8.0950   38.4253   12.0052 C   0  0  0  0  0  0  0  0  0  0  0  0
    8.8606   37.7062   12.9701 O   0  0  0  0  0  0  0  0  0  0  0  0
    8.7532   36.7570   12.7823 H   0  0  0  0  0  0  0  0  0  0  0  0
    8.2996   39.0475    9.9713 H   0  0  0  0  0  0  0  0  0  0  0  0
    7.0892   38.0604   12.0179 H   0  0  0  0  0  0  0  0  0  0  0  0
    8.1275   39.4643   12.2587 H   0  0  0  0  0  0  0  0  0  0  0  0
  1  2  1  0
  1  3  1  0
  1  4  1  0
  2  9  1  0
  2  5  1  0
  2 12  1  6
  5  6  2  0
  5  7  1  0
  7  8  1  0
  9 10  1  0
  9 13  1  0
  9 14  1  0
 10 11  1  0
M  END
>  <minimizedAffinity>  (5) 
-6.17152

>  <mol_id>  (5) 
53381

>  <source_index>  (5) 
4

>  <layer>  (5) 
L3

>  <uniprot>  (5) 
Q62645

>  <paff>  (5) 
6.7695999999999996

>  <smiles>  (5) 
N[C@H](CO)C(=O)O

$$$$
L3:Q62645:68311
     RDKit          3D

 40 42  0  0  0  0  0  0  0  0999 V2000
   14.3783   32.3811   13.2604 C   0  0  0  0  0  0  0  0  0  0  0  0
   13.2062   32.3529   13.9978 C   0  0  0  0  0  0  0  0  0  0  0  0
   12.9864   31.0939   14.6326 C   0  0  0  0  0  0  0  0  0  0  0  0
   13.9956   30.1930   14.3675 C   0  0  0  0  0  0  0  0  0  0  0  0
   15.1998   30.8747   13.3651 S   0  0  0  0  0  0  0  0  0  0  0  0
   14.1332   28.8096   14.8343 C   0  0  0  0  0  0  0  0  0  0  0  0
   15.3596   28.4287   15.4045 C   0  0  0  0  0  0  0  0  0  0  0  0
   15.5454   27.1388   15.8899 C   0  0  0  0  0  0  0  0  0  0  0  0
   14.5059   26.2154   15.8148 C   0  0  0  0  0  0  0  0  0  0  0  0
   13.2685   26.5641   15.2518 C   0  0  0  0  0  0  0  0  0  0  0  0
   12.2333   25.6163   15.1847 C   0  0  0  0  0  0  0  0  0  0  0  0
   10.9980   25.9391   14.6253 C   0  0  0  0  0  0  0  0  0  0  0  0
   10.7810   27.2149   14.1228 C   0  0  0  0  0  0  0  0  0  0  0  0
   11.7994   28.1687   14.1827 C   0  0  0  0  0  0  0  0  0  0  0  0
   13.0636   27.8741   14.7486 C   0  0  0  0  0  0  0  0  0  0  0  0
   14.9241   34.7071   13.0441 N   0  0  0  0  0  0  0  0  0  0  0  0
   14.9741   33.4509   12.4675 C   0  0  0  0  0  0  0  0  0  0  0  0
   15.4831   33.2939   11.3593 O   0  0  0  0  0  0  0  0  0  0  0  0
   14.4026   34.8439   13.9011 H   0  0  0  0  0  0  0  0  0  0  0  0
   15.4437   35.8804   12.3602 C   0  0  0  0  0  0  0  0  0  0  0  0
   15.0451   38.3064   11.8605 N   0  0  0  0  0  0  0  0  0  0  0  0
   14.7258   37.1783   12.7643 C   0  0  1  0  0  0  0  0  0  0  0  0
   14.5629   38.1651   10.9694 H   0  0  0  0  0  0  0  0  0  0  0  0
   16.0429   38.3189   11.6541 H   0  0  0  0  0  0  0  0  0  0  0  0
   13.2157   36.9291   12.7554 C   0  0  0  0  0  0  0  0  0  0  0  0
   12.5506   36.3985   13.6314 O   0  0  0  0  0  0  0  0  0  0  0  0
   12.6119   37.4080   11.6433 O   0  0  0  0  0  0  0  0  0  0  0  0
   11.6745   37.1417   11.7714 H   0  0  0  0  0  0  0  0  0  0  0  0
   12.5620   33.1550   14.0793 H   0  0  0  0  0  0  0  0  0  0  0  0
   12.1663   30.8822   15.2223 H   0  0  0  0  0  0  0  0  0  0  0  0
   16.1300   29.1128   15.4637 H   0  0  0  0  0  0  0  0  0  0  0  0
   16.4506   26.8669   16.3043 H   0  0  0  0  0  0  0  0  0  0  0  0
   14.6475   25.2601   16.1787 H   0  0  0  0  0  0  0  0  0  0  0  0
   12.3901   24.6661   15.5555 H   0  0  0  0  0  0  0  0  0  0  0  0
   10.2473   25.2321   14.5848 H   0  0  0  0  0  0  0  0  0  0  0  0
    9.8689   27.4580   13.7058 H   0  0  0  0  0  0  0  0  0  0  0  0
   11.6260   29.1131   13.8046 H   0  0  0  0  0  0  0  0  0  0  0  0
   16.4832   35.9788   12.5939 H   0  0  0  0  0  0  0  0  0  0  0  0
   15.2816   35.7380   11.3122 H   0  0  0  0  0  0  0  0  0  0  0  0
   15.0639   37.4509   13.7422 H   0  0  0  0  0  0  0  0  0  0  0  0
  1  2  2  0
  2  3  1  0
  2 29  1  0
  3  4  2  0
  3 30  1  0
  4  6  1  0
  4  5  1  0
  5  1  1  0
  6  7  2  0
  7  8  1  0
  7 31  1  0
  8  9  2  0
  8 32  1  0
  9 10  1  0
  9 33  1  0
 10 11  2  0
 11 12  1  0
 11 34  1  0
 12 13  2  0
 12 35  1  0
 13 14  1  0
 13 36  1  0
 14 15  2  0
 14 37  1  0
 15  6  1  0
 15 10  1  0
 16 17  1  0
 16 19  1  0
 17 18  2  0
 17  1  1  0
 20 16  1  0
 20 38  1  0
 20 39  1  0
 21 22  1  0
 21 23  1  0
 21 24  1  0
 22 20  1  0
 22 25  1  0
 22 40  1  1
 25 26  2  0
 25 27  1  0
 27 28  1  0
M  END
>  <minimizedAffinity>  (6) 
-6.52061

>  <mol_id>  (6) 
68311

>  <source_index>  (6) 
5

>  <layer>  (6) 
L3

>  <uniprot>  (6) 
Q62645

>  <paff>  (6) 
6.5186000000000002

>  <smiles>  (6) 
N[C@H](CNC(=O)c1ccc(-c2cccc3ccccc23)s1)C(=O)O

$$$$
L3:Q62645:69000
     RDKit          3D

 34 35  0  0  0  0  0  0  0  0999 V2000
    6.3843   39.3556   12.0237 N   0  0  0  0  0  0  0  0  0  0  0  0
    5.3652   39.4758   12.9473 C   0  0  0  0  0  0  0  0  0  0  0  0
    5.3877   38.8449   14.0042 O   0  0  0  0  0  0  0  0  0  0  0  0
    6.3450   39.9344   11.1950 H   0  0  0  0  0  0  0  0  0  0  0  0
    4.2839   40.3860   12.5926 C   0  0  0  0  0  0  0  0  0  0  0  0
    2.9310   40.1581   12.7533 C   0  0  0  0  0  0  0  0  0  0  0  0
    2.1344   41.2512   12.3067 C   0  0  0  0  0  0  0  0  0  0  0  0
    2.8913   42.2916   11.8008 C   0  0  0  0  0  0  0  0  0  0  0  0
    4.5661   41.9258   11.8992 S   0  0  0  0  0  0  0  0  0  0  0  0
    2.4367   43.5817   11.2607 C   0  0  0  0  0  0  0  0  0  0  0  0
    1.8740   43.6822    9.9773 C   0  0  0  0  0  0  0  0  0  0  0  0
    1.4359   44.9147    9.4796 C   0  0  0  0  0  0  0  0  0  0  0  0
    1.5491   46.0655   10.2573 C   0  0  0  0  0  0  0  0  0  0  0  0
    2.0976   45.9838   11.5346 C   0  0  0  0  0  0  0  0  0  0  0  0
    2.5320   44.7530   12.0259 C   0  0  0  0  0  0  0  0  0  0  0  0
    3.0572   44.7207   13.2610 F   0  0  0  0  0  0  0  0  0  0  0  0
    7.5451   38.5131   12.2578 C   0  0  0  0  0  0  0  0  0  0  0  0
    9.9378   38.4736   11.4351 N   0  0  0  0  0  0  0  0  0  0  0  0
    8.5021   38.4293   11.0504 C   0  0  1  0  0  0  0  0  0  0  0  0
   10.0528   37.9605   12.3157 H   0  0  0  0  0  0  0  0  0  0  0  0
   10.4599   37.9335   10.7387 H   0  0  0  0  0  0  0  0  0  0  0  0
    8.1741   37.1543   10.2680 C   0  0  0  0  0  0  0  0  0  0  0  0
    7.5933   36.1703   10.6984 O   0  0  0  0  0  0  0  0  0  0  0  0
    8.5562   37.2012    8.9707 O   0  0  0  0  0  0  0  0  0  0  0  0
    8.2711   36.3370    8.6055 H   0  0  0  0  0  0  0  0  0  0  0  0
    2.5401   39.2907   13.1532 H   0  0  0  0  0  0  0  0  0  0  0  0
    1.1036   41.2650   12.3555 H   0  0  0  0  0  0  0  0  0  0  0  0
    1.7825   42.8359    9.3938 H   0  0  0  0  0  0  0  0  0  0  0  0
    1.0276   44.9715    8.5335 H   0  0  0  0  0  0  0  0  0  0  0  0
    1.2279   46.9742    9.8883 H   0  0  0  0  0  0  0  0  0  0  0  0
    2.1825   46.8320   12.1163 H   0  0  0  0  0  0  0  0  0  0  0  0
    8.0868   38.9079   13.0918 H   0  0  0  0  0  0  0  0  0  0  0  0
    7.1823   37.5230   12.4395 H   0  0  0  0  0  0  0  0  0  0  0  0
    8.3507   39.2936   10.4380 H   0  0  0  0  0  0  0  0  0  0  0  0
  1  2  1  0
  1  4  1  0
  2  3  2  0
  2  5  1  0
  5  6  2  0
  6  7  1  0
  6 26  1  0
  7  8  2  0
  7 27  1  0
  8 10  1  0
  8  9  1  0
  9  5  1  0
 10 11  2  0
 11 12  1  0
 11 28  1  0
 12 13  2  0
 12 29  1  0
 13 14  1  0
 13 30  1  0
 14 15  2  0
 14 31  1  0
 15 16  1  0
 15 10  1  0
 17  1  1  0
 17 32  1  0
 17 33  1  0
 18 19  1  0
 18 20  1  0
 18 21  1  0
 19 17  1  0
 19 22  1  0
 19 34  1  6
 22 23  2  0
 22 24  1  0
 24 25  1  0
M  END
>  <minimizedAffinity>  (7) 
-6.66977

>  <mol_id>  (7) 
69000

>  <source_index>  (7) 
6

>  <layer>  (7) 
L3

>  <uniprot>  (7) 
Q62645

>  <paff>  (7) 
6.0087999999999999

>  <smiles>  (7) 
N[C@H](CNC(=O)c1ccc(-c2ccccc2F)s1)C(=O)O

$$$$
L3:Q62645:103070
     RDKit          3D

 37 38  0  0  0  0  0  0  0  0999 V2000
    3.4953   42.1298   11.3835 C   0  0  0  0  0  0  0  0  0  0  0  0
    2.8552   42.2578   10.1644 C   0  0  0  0  0  0  0  0  0  0  0  0
    2.9007   43.5881    9.6560 C   0  0  0  0  0  0  0  0  0  0  0  0
    3.5749   44.4441   10.5012 C   0  0  0  0  0  0  0  0  0  0  0  0
    4.1515   43.6294   11.8917 S   0  0  0  0  0  0  0  0  0  0  0  0
    3.8336   45.8764   10.3436 C   0  0  0  0  0  0  0  0  0  0  0  0
    5.0345   46.2765    9.7312 C   0  0  0  0  0  0  0  0  0  0  0  0
    5.3278   47.6271    9.5437 C   0  0  0  0  0  0  0  0  0  0  0  0
    4.4238   48.5967    9.9623 C   0  0  0  0  0  0  0  0  0  0  0  0
    3.2266   48.2157   10.5685 C   0  0  0  0  0  0  0  0  0  0  0  0
    2.9142   46.8560   10.7694 C   0  0  0  0  0  0  0  0  0  0  0  0
    1.6063   46.4854   11.4273 C   0  0  0  0  0  0  0  0  0  0  0  0
    0.7651   45.7937   10.6103 F   0  0  0  0  0  0  0  0  0  0  0  0
    0.9103   47.5706   11.8678 F   0  0  0  0  0  0  0  0  0  0  0  0
    1.7674   45.6929   12.5281 F   0  0  0  0  0  0  0  0  0  0  0  0
    4.9119   40.4689   12.3919 N   0  0  0  0  0  0  0  0  0  0  0  0
    3.6255   40.9114   12.1713 C   0  0  0  0  0  0  0  0  0  0  0  0
    2.6583   40.3078   12.6311 O   0  0  0  0  0  0  0  0  0  0  0  0
    5.6827   41.0163   12.0280 H   0  0  0  0  0  0  0  0  0  0  0  0
    5.2194   39.2835   13.1801 C   0  0  0  0  0  0  0  0  0  0  0  0
    6.8345   38.4285   14.8854 N   0  0  0  0  0  0  0  0  0  0  0  0
    6.6912   39.2102   13.6233 C   0  0  1  0  0  0  0  0  0  0  0  0
    6.5499   37.4685   14.6704 H   0  0  0  0  0  0  0  0  0  0  0  0
    7.8352   38.3413   15.0810 H   0  0  0  0  0  0  0  0  0  0  0  0
    7.5649   38.6057   12.5231 C   0  0  0  0  0  0  0  0  0  0  0  0
    8.3303   37.6605   12.6495 O   0  0  0  0  0  0  0  0  0  0  0  0
    7.4633   39.2565   11.3478 O   0  0  0  0  0  0  0  0  0  0  0  0
    7.9875   38.7059   10.7282 H   0  0  0  0  0  0  0  0  0  0  0  0
    2.3943   41.4744    9.6756 H   0  0  0  0  0  0  0  0  0  0  0  0
    2.4784   43.8773    8.7599 H   0  0  0  0  0  0  0  0  0  0  0  0
    5.7081   45.5610    9.4161 H   0  0  0  0  0  0  0  0  0  0  0  0
    6.2143   47.9061    9.0950 H   0  0  0  0  0  0  0  0  0  0  0  0
    4.6381   49.5968    9.8248 H   0  0  0  0  0  0  0  0  0  0  0  0
    2.5591   48.9408   10.8747 H   0  0  0  0  0  0  0  0  0  0  0  0
    4.6017   39.2873   14.0538 H   0  0  0  0  0  0  0  0  0  0  0  0
    5.0338   38.4331   12.5578 H   0  0  0  0  0  0  0  0  0  0  0  0
    7.0230   40.2105   13.8082 H   0  0  0  0  0  0  0  0  0  0  0  0
  1  2  2  0
  2  3  1  0
  2 29  1  0
  3  4  2  0
  3 30  1  0
  4  6  1  0
  4  5  1  0
  5  1  1  0
  6  7  2  0
  7  8  1  0
  7 31  1  0
  8  9  2  0
  8 32  1  0
  9 10  1  0
  9 33  1  0
 10 11  2  0
 10 34  1  0
 11 12  1  0
 11  6  1  0
 12 13  1  0
 12 14  1  0
 12 15  1  0
 16 17  1  0
 16 19  1  0
 17 18  2  0
 17  1  1  0
 20 16  1  0
 20 35  1  0
 20 36  1  0
 21 22  1  0
 21 23  1  0
 21 24  1  0
 22 20  1  0
 22 25  1  0
 22 37  1  1
 25 26  2  0
 25 27  1  0
 27 28  1  0
M  END
>  <minimizedAffinity>  (8) 
-6.17820

>  <mol_id>  (8) 
103070

>  <source_index>  (8) 
7

>  <layer>  (8) 
L3

>  <uniprot>  (8) 
Q62645

>  <paff>  (8) 
6.6989999999999998

>  <smiles>  (8) 
N[C@H](CNC(=O)c1ccc(-c2ccccc2C(F)(F)F)s1)C(=O)O

$$$$
L3:Q62645:108874
     RDKit          3D

 37 38  0  0  0  0  0  0  0  0999 V2000
   15.0706   30.2790   16.9883 C   0  0  0  0  0  0  0  0  0  0  0  0
   14.9380   31.0618   15.7225 C   0  0  0  0  0  0  0  0  0  0  0  0
   15.6524   32.2778   15.4484 C   0  0  0  0  0  0  0  0  0  0  0  0
   15.3588   32.8209   14.2098 C   0  0  0  0  0  0  0  0  0  0  0  0
   14.2021   31.8608   13.3872 S   0  0  0  0  0  0  0  0  0  0  0  0
   14.1202   30.7206   14.6580 C   0  0  0  0  0  0  0  0  0  0  0  0
   13.2286   29.5668   14.5107 C   0  0  0  0  0  0  0  0  0  0  0  0
   11.8689   29.7256   14.8269 C   0  0  0  0  0  0  0  0  0  0  0  0
   10.9794   28.6551   14.7159 C   0  0  0  0  0  0  0  0  0  0  0  0
   11.4373   27.4111   14.2896 C   0  0  0  0  0  0  0  0  0  0  0  0
   12.7848   27.2355   13.9737 C   0  0  0  0  0  0  0  0  0  0  0  0
   13.6793   28.3066   14.0837 C   0  0  0  0  0  0  0  0  0  0  0  0
   15.4972   27.9747   13.6330 Br  0  0  0  0  0  0  0  0  0  0  0  0
   15.8599   34.0259   13.5601 C   0  0  0  0  0  0  0  0  0  0  0  0
   16.9977   34.4703   13.6993 O   0  0  0  0  0  0  0  0  0  0  0  0
   14.9506   34.6778   12.7448 N   0  0  0  0  0  0  0  0  0  0  0  0
   13.9953   34.3568   12.6987 H   0  0  0  0  0  0  0  0  0  0  0  0
   15.3079   35.9022   12.0404 C   0  0  0  0  0  0  0  0  0  0  0  0
   14.6827   37.1636   12.6618 C   0  0  1  0  0  0  0  0  0  0  0  0
   15.0130   38.3878   11.8837 N   0  0  0  0  0  0  0  0  0  0  0  0
   16.0161   38.3870   11.7077 H   0  0  0  0  0  0  0  0  0  0  0  0
   14.5484   38.3305   10.9762 H   0  0  0  0  0  0  0  0  0  0  0  0
   13.1714   36.9634   12.6934 C   0  0  0  0  0  0  0  0  0  0  0  0
   12.5322   36.4299   13.5893 O   0  0  0  0  0  0  0  0  0  0  0  0
   12.5403   37.4921   11.6272 O   0  0  0  0  0  0  0  0  0  0  0  0
   11.5968   37.2673   11.7663 H   0  0  0  0  0  0  0  0  0  0  0  0
   15.7671   30.7666   17.6379 H   0  0  0  0  0  0  0  0  0  0  0  0
   15.4223   29.2938   16.7632 H   0  0  0  0  0  0  0  0  0  0  0  0
   14.1173   30.2160   17.4702 H   0  0  0  0  0  0  0  0  0  0  0  0
   16.3193   32.7045   16.1104 H   0  0  0  0  0  0  0  0  0  0  0  0
   11.5235   30.6446   15.1450 H   0  0  0  0  0  0  0  0  0  0  0  0
    9.9828   28.7858   14.9498 H   0  0  0  0  0  0  0  0  0  0  0  0
   10.7803   26.6195   14.2074 H   0  0  0  0  0  0  0  0  0  0  0  0
   13.1232   26.3131   13.6579 H   0  0  0  0  0  0  0  0  0  0  0  0
   14.9743   35.8212   11.0270 H   0  0  0  0  0  0  0  0  0  0  0  0
   16.3706   36.0085   12.1065 H   0  0  0  0  0  0  0  0  0  0  0  0
   15.0771   37.3028   13.6467 H   0  0  0  0  0  0  0  0  0  0  0  0
  1  2  1  0
  1 27  1  0
  1 28  1  0
  1 29  1  0
  2  3  1  0
  3  4  2  0
  3 30  1  0
  4 14  1  0
  4  5  1  0
  5  6  1  0
  6  7  1  0
  6  2  2  0
  7  8  2  0
  8  9  1  0
  8 31  1  0
  9 10  2  0
  9 32  1  0
 10 11  1  0
 10 33  1  0
 11 12  2  0
 11 34  1  0
 12 13  1  0
 12  7  1  0
 14 15  2  0
 14 16  1  0
 16 18  1  0
 16 17  1  0
 18 19  1  0
 18 35  1  0
 18 36  1  0
 19 20  1  0
 19 23  1  0
 19 37  1  1
 20 21  1  0
 20 22  1  0
 23 24  2  0
 23 25  1  0
 25 26  1  0
M  END
>  <minimizedAffinity>  (9) 
-5.85714

>  <mol_id>  (9) 
108874

>  <source_index>  (9) 
8

>  <layer>  (9) 
L3

>  <uniprot>  (9) 
Q62645

>  <paff>  (9) 
6.9207999999999998

>  <smiles>  (9) 
Cc1cc(C(=O)NC[C@@H](N)C(=O)O)sc1-c1ccccc1Br

$$$$
L3:Q62645:134390
     RDKit          3D

 47 49  0  0  0  0  0  0  0  0999 V2000
   14.1286   28.9345   14.3172 C   0  0  0  0  0  0  0  0  0  0  0  0
   14.5074   27.9071   13.4334 C   0  0  0  0  0  0  0  0  0  0  0  0
   15.0864   28.1942   12.1987 C   0  0  0  0  0  0  0  0  0  0  0  0
   15.3131   29.5137   11.8016 C   0  0  0  0  0  0  0  0  0  0  0  0
   14.9386   30.5311   12.6868 C   0  0  0  0  0  0  0  0  0  0  0  0
   15.0513   31.8971   12.5609 N   0  0  0  0  0  0  0  0  0  0  0  0
   14.5483   32.5442   13.6670 C   0  0  0  0  0  0  0  0  0  0  0  0
   14.1320   31.5473   14.5344 C   0  0  0  0  0  0  0  0  0  0  0  0
   14.3586   30.2776   13.9288 C   0  0  0  0  0  0  0  0  0  0  0  0
   15.4771   32.3508   11.7670 H   0  0  0  0  0  0  0  0  0  0  0  0
   12.1329   28.5057   15.8092 C   0  0  0  0  0  0  0  0  0  0  0  0
   11.6364   28.2165   17.0945 C   0  0  0  0  0  0  0  0  0  0  0  0
   12.4967   28.0742   18.1823 C   0  0  0  0  0  0  0  0  0  0  0  0
   13.8675   28.2147   18.0036 C   0  0  0  0  0  0  0  0  0  0  0  0
   14.3764   28.4954   16.7355 C   0  0  0  0  0  0  0  0  0  0  0  0
   13.5271   28.6441   15.6223 C   0  0  0  0  0  0  0  0  0  0  0  0
   10.7772   27.2795   14.0790 C   0  0  0  0  0  0  0  0  0  0  0  0
   11.1410   28.6325   14.6730 C   0  0  0  0  0  0  0  0  0  0  0  0
   14.4996   33.9732   13.8873 C   0  0  0  0  0  0  0  0  0  0  0  0
   15.4078   34.6037   14.4204 O   0  0  0  0  0  0  0  0  0  0  0  0
   13.3369   34.5947   13.4855 N   0  0  0  0  0  0  0  0  0  0  0  0
   12.5371   34.0560   13.1876 H   0  0  0  0  0  0  0  0  0  0  0  0
   13.1443   36.0251   13.6543 C   0  0  0  0  0  0  0  0  0  0  0  0
   13.5633   36.8508   12.4198 C   0  0  1  0  0  0  0  0  0  0  0  0
   12.3943   37.5177   11.7982 N   0  0  0  0  0  0  0  0  0  0  0  0
   11.7486   36.8026   11.4633 H   0  0  0  0  0  0  0  0  0  0  0  0
   11.8911   38.0599   12.4988 H   0  0  0  0  0  0  0  0  0  0  0  0
   14.5994   37.9027   12.8295 C   0  0  0  0  0  0  0  0  0  0  0  0
   14.9747   38.1528   13.9668 O   0  0  0  0  0  0  0  0  0  0  0  0
   15.1098   38.5853   11.7824 O   0  0  0  0  0  0  0  0  0  0  0  0
   15.7205   39.2384   12.1784 H   0  0  0  0  0  0  0  0  0  0  0  0
   14.3537   26.9233   13.7044 H   0  0  0  0  0  0  0  0  0  0  0  0
   15.3514   27.4208   11.5689 H   0  0  0  0  0  0  0  0  0  0  0  0
   15.7414   29.7309   10.8881 H   0  0  0  0  0  0  0  0  0  0  0  0
   13.7232   31.6999   15.4696 H   0  0  0  0  0  0  0  0  0  0  0  0
   10.6196   28.1081   17.2336 H   0  0  0  0  0  0  0  0  0  0  0  0
   12.1161   27.8649   19.1185 H   0  0  0  0  0  0  0  0  0  0  0  0
   14.5073   28.1117   18.8068 H   0  0  0  0  0  0  0  0  0  0  0  0
   15.3959   28.5961   16.6107 H   0  0  0  0  0  0  0  0  0  0  0  0
   10.0763   27.4166   13.2822 H   0  0  0  0  0  0  0  0  0  0  0  0
   10.3399   26.6633   14.8366 H   0  0  0  0  0  0  0  0  0  0  0  0
   11.6596   26.8072   13.7005 H   0  0  0  0  0  0  0  0  0  0  0  0
   10.2511   29.0982   15.0419 H   0  0  0  0  0  0  0  0  0  0  0  0
   11.5949   29.2200   13.9025 H   0  0  0  0  0  0  0  0  0  0  0  0
   13.7259   36.3489   14.4920 H   0  0  0  0  0  0  0  0  0  0  0  0
   12.0969   36.1872   13.8015 H   0  0  0  0  0  0  0  0  0  0  0  0
   13.9895   36.1833   11.7003 H   0  0  0  0  0  0  0  0  0  0  0  0
  1  2  2  0
  2  3  1  0
  2 32  1  0
  3  4  2  0
  3 33  1  0
  4  5  1  0
  4 34  1  0
  5  6  1  0
  6  7  1  0
  6 10  1  0
  7 19  1  0
  7  8  2  0
  8  9  1  0
  8 35  1  0
  9  1  1  0
  9  5  2  0
 11 12  2  0
 12 13  1  0
 12 36  1  0
 13 14  2  0
 13 37  1  0
 14 15  1  0
 14 38  1  0
 15 16  2  0
 15 39  1  0
 16  1  1  0
 16 11  1  0
 17 18  1  0
 17 40  1  0
 17 41  1  0
 17 42  1  0
 18 11  1  0
 18 43  1  0
 18 44  1  0
 19 20  2  0
 19 21  1  0
 21 23  1  0
 21 22  1  0
 23 24  1  0
 23 45  1  0
 23 46  1  0
 24 25  1  0
 24 28  1  0
 24 47  1  6
 25 26  1  0
 25 27  1  0
 28 29  2  0
 28 30  1  0
 30 31  1  0
M  END
>  <minimizedAffinity>  (10) 
-6.52950

>  <mol_id>  (10) 
134390

>  <source_index>  (10) 
9

>  <layer>  (10) 
L3

>  <uniprot>  (10) 
Q62645

>  <paff>  (10) 
7.5086000000000004

>  <smiles>  (10) 
CCc1ccccc1-c1cccc2[nH]c(C(=O)NC[C@@H](N)C(=O)O)cc12

$$$$
