L2:P31153:17983
     RDKit          3D

 41 44  0  0  0  0  0  0  0  0999 V2000
  -29.9537   -5.8906  -44.0973 C   0  0  0  0  0  0  0  0  0  0  0  0
  -28.7975   -6.1941  -43.3700 C   0  0  0  0  0  0  0  0  0  0  0  0
  -27.6820   -6.7430  -43.8899 N   0  0  0  0  0  0  0  0  0  0  0  0
  -27.5670   -6.8736  -45.1899 C   0  0  0  0  0  0  0  0  0  0  0  0
  -28.6005   -6.4512  -46.0324 C   0  0  0  0  0  0  0  0  0  0  0  0
  -28.7149   -6.3580  -47.3831 N   0  0  0  0  0  0  0  0  0  0  0  0
  -29.9800   -6.0921  -47.7393 N   0  0  0  0  0  0  0  0  0  0  0  0
  -30.7185   -6.0079  -46.6435 C   0  0  0  0  0  0  0  0  0  0  0  0
  -29.8782   -6.1394  -45.4840 C   0  0  0  0  0  0  0  0  0  0  0  0
  -28.0268   -6.1492  -48.1387 H   0  0  0  0  0  0  0  0  0  0  0  0
  -31.9755   -1.9909  -41.6928 C   0  0  0  0  0  0  0  0  0  0  0  0
  -32.0244   -3.4051  -42.1462 C   0  0  0  0  0  0  0  0  0  0  0  0
  -30.9628   -4.0350  -42.7812 C   0  0  0  0  0  0  0  0  0  0  0  0
  -31.0959   -5.2663  -43.4292 C   0  0  0  0  0  0  0  0  0  0  0  0
  -32.3447   -5.8794  -43.3645 C   0  0  0  0  0  0  0  0  0  0  0  0
  -32.5369   -7.0354  -44.0504 F   0  0  0  0  0  0  0  0  0  0  0  0
  -33.3716   -5.3716  -42.6048 C   0  0  0  0  0  0  0  0  0  0  0  0
  -33.1632   -4.1732  -41.9459 C   0  0  0  0  0  0  0  0  0  0  0  0
  -34.2226   -3.8387  -40.5481 S   0  0  0  0  0  0  0  0  0  0  0  0
  -34.6816   -2.1011  -40.5244 C   0  0  0  0  0  0  0  0  0  0  0  0
  -35.4940   -4.5850  -40.8275 O   0  0  0  0  0  0  0  0  0  0  0  0
  -33.4243   -4.1541  -39.3508 O   0  0  0  0  0  0  0  0  0  0  0  0
  -32.1563   -5.8114  -46.8376 C   0  0  0  0  0  0  0  0  0  0  0  0
  -32.6546   -5.2079  -48.1168 C   0  0  0  0  0  0  0  0  0  0  0  0
  -32.8512   -6.6534  -47.8724 C   0  0  0  0  0  0  0  0  0  0  0  0
  -28.7294   -5.9005  -41.9790 C   0  0  0  0  0  0  0  0  0  0  0  0
  -28.6587   -5.6225  -40.8525 N   0  0  0  0  0  0  0  0  0  0  0  0
  -26.6587   -7.3170  -45.5697 H   0  0  0  0  0  0  0  0  0  0  0  0
  -31.0523   -1.5249  -41.9673 H   0  0  0  0  0  0  0  0  0  0  0  0
  -32.0579   -1.9261  -40.6138 H   0  0  0  0  0  0  0  0  0  0  0  0
  -32.7744   -1.4057  -42.1403 H   0  0  0  0  0  0  0  0  0  0  0  0
  -29.9838   -3.5922  -42.7155 H   0  0  0  0  0  0  0  0  0  0  0  0
  -34.2762   -5.9219  -42.4351 H   0  0  0  0  0  0  0  0  0  0  0  0
  -34.7322   -1.7242  -41.5364 H   0  0  0  0  0  0  0  0  0  0  0  0
  -33.9828   -1.5643  -39.8991 H   0  0  0  0  0  0  0  0  0  0  0  0
  -35.6591   -2.0578  -40.0734 H   0  0  0  0  0  0  0  0  0  0  0  0
  -32.7018   -5.5622  -45.9383 H   0  0  0  0  0  0  0  0  0  0  0  0
  -31.9127   -4.9792  -48.8652 H   0  0  0  0  0  0  0  0  0  0  0  0
  -33.4948   -4.5241  -48.0600 H   0  0  0  0  0  0  0  0  0  0  0  0
  -32.2181   -7.3082  -48.4508 H   0  0  0  0  0  0  0  0  0  0  0  0
  -33.8287   -7.0550  -47.6476 H   0  0  0  0  0  0  0  0  0  0  0  0
  1  2  2  0
  2 26  1  0
  2  3  1  0
  3  4  2  0
  4  5  1  0
  4 28  1  0
  5  6  1  0
  6  7  1  0
  6 10  1  0
  7  8  2  0
  8 23  1  0
  8  9  1  0
  9  1  1  0
  9  5  2  0
 11 12  1  0
 11 29  1  0
 11 30  1  0
 11 31  1  0
 12 13  2  0
 13 14  1  0
 13 32  1  0
 14  1  1  0
 14 15  2  0
 15 16  1  0
 15 17  1  0
 17 18  2  0
 17 33  1  0
 18 19  1  0
 18 12  1  0
 19 20  1  0
 19 21  2  0
 19 22  2  0
 20 34  1  0
 20 35  1  0
 20 36  1  0
 23 24  1  0
 23 37  1  0
 24 25  1  0
 24 38  1  0
 24 39  1  0
 25 23  1  0
 25 40  1  0
 25 41  1  0
 26 27  3  0
M  END
>  <minimizedAffinity>  (1) 
-7.73435

>  <mol_id>  (1) 
17983

>  <source_index>  (1) 
0

>  <layer>  (1) 
L2

>  <uniprot>  (1) 
P31153

>  <paff>  (1) 
7.7695999999999996

>  <smiles>  (1) 
Cc1cc(-c2c(C#N)ncc3[nH]nc(C4CC4)c23)c(F)cc1S(C)(=O)=O

>  <aimnet_interaction_kcal_mol>  (1) 
-55.537140285352613

$$$$
L2:P31153:23451
     RDKit          3D

 37 40  0  0  0  0  0  0  0  0999 V2000
  -31.9962   -6.5656  -46.7685 N   0  0  0  0  0  0  0  0  0  0  0  0
  -30.7346   -6.6072  -46.2723 C   0  0  0  0  0  0  0  0  0  0  0  0
  -30.8399   -6.2673  -44.9310 C   0  0  0  0  0  0  0  0  0  0  0  0
  -32.2084   -6.0039  -44.7374 C   0  0  0  0  0  0  0  0  0  0  0  0
  -32.9104   -6.2007  -45.8675 N   0  0  0  0  0  0  0  0  0  0  0  0
  -32.7562   -5.4959  -43.5026 C   0  0  0  0  0  0  0  0  0  0  0  0
  -33.9556   -5.3005  -43.2807 O   0  0  0  0  0  0  0  0  0  0  0  0
  -31.7818   -5.1730  -42.5612 N   0  0  0  0  0  0  0  0  0  0  0  0
  -30.4169   -5.5163  -42.6731 C   0  0  0  0  0  0  0  0  0  0  0  0
  -29.5310   -5.1951  -41.6408 C   0  0  0  0  0  0  0  0  0  0  0  0
  -28.1817   -5.4204  -41.8195 C   0  0  0  0  0  0  0  0  0  0  0  0
  -27.0228   -4.7393  -40.6848 Cl  0  0  0  0  0  0  0  0  0  0  0  0
  -27.6982   -6.0955  -42.9319 C   0  0  0  0  0  0  0  0  0  0  0  0
  -28.5795   -6.4740  -43.9215 C   0  0  0  0  0  0  0  0  0  0  0  0
  -29.9273   -6.1258  -43.8445 C   0  0  0  0  0  0  0  0  0  0  0  0
  -32.2090   -4.3022  -41.4925 C   0  0  0  0  0  0  0  0  0  0  0  0
  -32.4872   -4.7980  -40.2317 C   0  0  0  0  0  0  0  0  0  0  0  0
  -32.9210   -3.9208  -39.2392 C   0  0  0  0  0  0  0  0  0  0  0  0
  -33.1582   -2.5838  -39.5235 C   0  0  0  0  0  0  0  0  0  0  0  0
  -32.9040   -2.1356  -40.8021 C   0  0  0  0  0  0  0  0  0  0  0  0
  -33.1622   -0.8418  -41.1101 F   0  0  0  0  0  0  0  0  0  0  0  0
  -32.4066   -2.9629  -41.7910 C   0  0  0  0  0  0  0  0  0  0  0  0
  -32.6981   -5.5476  -48.8925 C   0  0  0  0  0  0  0  0  0  0  0  0
  -32.4169   -6.8150  -48.1323 C   0  0  0  0  0  0  0  0  0  0  0  0
  -29.8864   -6.8463  -46.8881 H   0  0  0  0  0  0  0  0  0  0  0  0
  -29.8898   -4.7600  -40.7232 H   0  0  0  0  0  0  0  0  0  0  0  0
  -26.6427   -6.2664  -43.0542 H   0  0  0  0  0  0  0  0  0  0  0  0
  -28.2127   -6.9913  -44.7960 H   0  0  0  0  0  0  0  0  0  0  0  0
  -32.3886   -5.8552  -40.0353 H   0  0  0  0  0  0  0  0  0  0  0  0
  -33.0649   -4.2623  -38.2273 H   0  0  0  0  0  0  0  0  0  0  0  0
  -33.5511   -1.9205  -38.7685 H   0  0  0  0  0  0  0  0  0  0  0  0
  -32.1949   -2.5789  -42.7767 H   0  0  0  0  0  0  0  0  0  0  0  0
  -32.9780   -5.7994  -49.9114 H   0  0  0  0  0  0  0  0  0  0  0  0
  -31.8102   -4.9248  -48.9503 H   0  0  0  0  0  0  0  0  0  0  0  0
  -33.4957   -4.9703  -48.4301 H   0  0  0  0  0  0  0  0  0  0  0  0
  -31.6268   -7.3813  -48.5947 H   0  0  0  0  0  0  0  0  0  0  0  0
  -33.2935   -7.4550  -48.0878 H   0  0  0  0  0  0  0  0  0  0  0  0
  1  2  1  0
  2  3  2  0
  2 25  1  0
  3  4  1  0
  4  5  2  0
  4  6  1  0
  5  1  1  0
  6  7  2  0
  6  8  1  0
  8 16  1  0
  8  9  1  0
  9 10  2  0
 10 11  1  0
 10 26  1  0
 11 12  1  0
 11 13  2  0
 13 14  1  0
 13 27  1  0
 14 15  2  0
 14 28  1  0
 15  9  1  0
 15  3  1  0
 16 17  2  0
 17 18  1  0
 17 29  1  0
 18 19  2  0
 18 30  1  0
 19 20  1  0
 19 31  1  0
 20 21  1  0
 20 22  2  0
 22 16  1  0
 22 32  1  0
 23 24  1  0
 23 33  1  0
 23 34  1  0
 23 35  1  0
 24  1  1  0
 24 36  1  0
 24 37  1  0
M  END
>  <minimizedAffinity>  (2) 
-10.90777

>  <mol_id>  (2) 
23451

>  <source_index>  (2) 
1

>  <layer>  (2) 
L2

>  <uniprot>  (2) 
P31153

>  <paff>  (2) 
6.9066000000000001

>  <smiles>  (2) 
CCn1cc2c(n1)c(=O)n(-c1cccc(F)c1)c1cc(Cl)ccc21

>  <aimnet_interaction_kcal_mol>  (2) 
-66.030041725873801

$$$$
L2:P31153:23669
     RDKit          3D

 49 53  0  0  0  0  0  0  0  0999 V2000
  -35.6607    3.6512  -51.5057 C   0  0  0  0  0  0  0  0  0  0  0  0
  -36.3981    2.5369  -51.8292 C   0  0  0  0  0  0  0  0  0  0  0  0
  -35.8784    1.2075  -51.5778 C   0  0  0  0  0  0  0  0  0  0  0  0
  -36.3356    0.1768  -52.0521 O   0  0  0  0  0  0  0  0  0  0  0  0
  -34.7382    1.1365  -50.7062 N   0  0  0  0  0  0  0  0  0  0  0  0
  -34.3136    2.2688  -50.0832 C   0  0  0  0  0  0  0  0  0  0  0  0
  -33.5396    2.3680  -48.9906 N   0  0  0  0  0  0  0  0  0  0  0  0
  -33.4615    3.6626  -48.5356 N   0  0  0  0  0  0  0  0  0  0  0  0
  -34.1923    4.3603  -49.3976 C   0  0  0  0  0  0  0  0  0  0  0  0
  -34.7312    3.5478  -50.4206 C   0  0  0  0  0  0  0  0  0  0  0  0
  -32.9870    1.6434  -48.5662 H   0  0  0  0  0  0  0  0  0  0  0  0
  -34.1098   -0.1146  -50.4082 C   0  0  0  0  0  0  0  0  0  0  0  0
  -32.7274   -0.2653  -50.7185 C   0  0  0  0  0  0  0  0  0  0  0  0
  -32.0778   -1.4536  -50.5132 C   0  0  0  0  0  0  0  0  0  0  0  0
  -32.8142   -2.5287  -49.9828 C   0  0  0  0  0  0  0  0  0  0  0  0
  -32.3884   -3.7781  -49.7277 N   0  0  0  0  0  0  0  0  0  0  0  0
  -33.4556   -4.3989  -49.1953 N   0  0  0  0  0  0  0  0  0  0  0  0
  -33.2914   -5.7722  -48.7802 C   0  0  0  0  0  0  0  0  0  0  0  0
  -34.5539   -3.6075  -49.0869 C   0  0  0  0  0  0  0  0  0  0  0  0
  -34.1861   -2.3614  -49.6027 C   0  0  0  0  0  0  0  0  0  0  0  0
  -34.8361   -1.1405  -49.8584 C   0  0  0  0  0  0  0  0  0  0  0  0
  -37.7522    2.7257  -52.3912 C   0  0  0  0  0  0  0  0  0  0  0  0
  -38.1685    2.1510  -53.5899 C   0  0  0  0  0  0  0  0  0  0  0  0
  -39.3710    2.5281  -54.1617 C   0  0  0  0  0  0  0  0  0  0  0  0
  -40.1989    3.4510  -53.5131 C   0  0  0  0  0  0  0  0  0  0  0  0
  -39.8374    3.9453  -52.2575 C   0  0  0  0  0  0  0  0  0  0  0  0
  -38.6312    3.5683  -51.7119 C   0  0  0  0  0  0  0  0  0  0  0  0
  -41.4183    3.8911  -54.0922 C   0  0  0  0  0  0  0  0  0  0  0  0
  -42.4146    4.3015  -54.5246 N   0  0  0  0  0  0  0  0  0  0  0  0
  -35.8736    4.7652  -52.2217 O   0  0  0  0  0  0  0  0  0  0  0  0
  -35.1414    6.6990  -53.3617 C   0  0  0  0  0  0  0  0  0  0  0  0
  -34.8761    5.7943  -52.1899 C   0  0  0  0  0  0  0  0  0  0  0  0
  -34.3469    5.4148  -49.2394 H   0  0  0  0  0  0  0  0  0  0  0  0
  -32.2110    0.5801  -51.1521 H   0  0  0  0  0  0  0  0  0  0  0  0
  -31.0309   -1.5833  -50.7396 H   0  0  0  0  0  0  0  0  0  0  0  0
  -32.4895   -6.1991  -49.3733 H   0  0  0  0  0  0  0  0  0  0  0  0
  -34.2072   -6.3326  -48.9537 H   0  0  0  0  0  0  0  0  0  0  0  0
  -33.0142   -5.8277  -47.7263 H   0  0  0  0  0  0  0  0  0  0  0  0
  -35.4962   -3.9719  -48.7267 H   0  0  0  0  0  0  0  0  0  0  0  0
  -35.8964   -1.0241  -49.7365 H   0  0  0  0  0  0  0  0  0  0  0  0
  -37.5406    1.4186  -54.0757 H   0  0  0  0  0  0  0  0  0  0  0  0
  -39.6817    2.1172  -55.1123 H   0  0  0  0  0  0  0  0  0  0  0  0
  -40.4935    4.6029  -51.7048 H   0  0  0  0  0  0  0  0  0  0  0  0
  -38.3651    3.9426  -50.7361 H   0  0  0  0  0  0  0  0  0  0  0  0
  -34.4824    7.5707  -53.3615 H   0  0  0  0  0  0  0  0  0  0  0  0
  -36.1615    7.0632  -53.3119 H   0  0  0  0  0  0  0  0  0  0  0  0
  -34.9977    6.1670  -54.3008 H   0  0  0  0  0  0  0  0  0  0  0  0
  -34.9512    6.3312  -51.2532 H   0  0  0  0  0  0  0  0  0  0  0  0
  -33.8918    5.3284  -52.2734 H   0  0  0  0  0  0  0  0  0  0  0  0
  1  2  2  0
  2 22  1  0
  2  3  1  0
  3  4  2  0
  3  5  1  0
  5 12  1  0
  5  6  1  0
  6  7  1  0
  7  8  1  0
  7 11  1  0
  8  9  2  0
  9 10  1  0
  9 33  1  0
 10  1  1  0
 10  6  2  0
 12 13  1  0
 13 14  2  0
 13 34  1  0
 14 15  1  0
 14 35  1  0
 15 16  2  0
 16 17  1  0
 17 18  1  0
 17 19  1  0
 18 36  1  0
 18 37  1  0
 18 38  1  0
 19 20  2  0
 19 39  1  0
 20 21  1  0
 20 15  1  0
 21 12  2  0
 21 40  1  0
 22 23  2  0
 23 24  1  0
 23 41  1  0
 24 25  2  0
 24 42  1  0
 25 28  1  0
 25 26  1  0
 26 27  2  0
 26 43  1  0
 27 22  1  0
 27 44  1  0
 28 29  3  0
 30  1  1  0
 31 32  1  0
 31 45  1  0
 31 46  1  0
 31 47  1  0
 32 30  1  0
 32 48  1  0
 32 49  1  0
M  END
>  <minimizedAffinity>  (3) 
-6.59331

>  <mol_id>  (3) 
23669

>  <source_index>  (3) 
2

>  <layer>  (3) 
L2

>  <uniprot>  (3) 
P31153

>  <paff>  (3) 
7.7958999999999996

>  <smiles>  (3) 
CCOc1c(-c2ccc(C#N)cc2)c(=O)n(-c2ccc3nn(C)cc3c2)c2[nH]ncc12

>  <aimnet_interaction_kcal_mol>  (3) 
-47.701881660880616

$$$$
L2:P31153:34605
     RDKit          3D

 51 54  0  0  0  0  0  0  0  0999 V2000
  -36.5776    5.6034  -46.4652 C   0  0  0  0  0  0  0  0  0  0  0  0
  -37.8074    6.0329  -46.4513 N   0  0  0  0  0  0  0  0  0  0  0  0
  -38.3776    6.3045  -45.2515 C   0  0  0  0  0  0  0  0  0  0  0  0
  -39.6103    6.9772  -45.1502 C   0  0  0  0  0  0  0  0  0  0  0  0
  -40.1535    7.2907  -43.9873 N   0  0  0  0  0  0  0  0  0  0  0  0
  -39.4983    6.8583  -42.8921 C   0  0  0  0  0  0  0  0  0  0  0  0
  -38.3333    6.2111  -42.8662 N   0  0  0  0  0  0  0  0  0  0  0  0
  -37.7719    5.9651  -44.0312 C   0  0  0  0  0  0  0  0  0  0  0  0
  -36.5370    5.3245  -44.0418 N   0  0  0  0  0  0  0  0  0  0  0  0
  -35.8878    5.1261  -45.2540 C   0  0  0  0  0  0  0  0  0  0  0  0
  -34.7835    4.5733  -45.2643 O   0  0  0  0  0  0  0  0  0  0  0  0
  -34.7724    5.5083  -50.3128 C   0  0  0  0  0  0  0  0  0  0  0  0
  -34.1932    6.2852  -49.3104 C   0  0  0  0  0  0  0  0  0  0  0  0
  -34.7414    6.2758  -48.0410 C   0  0  0  0  0  0  0  0  0  0  0  0
  -35.8972    5.5482  -47.7630 C   0  0  0  0  0  0  0  0  0  0  0  0
  -36.4770    4.8156  -48.7910 C   0  0  0  0  0  0  0  0  0  0  0  0
  -35.8765    4.7193  -50.0262 C   0  0  0  0  0  0  0  0  0  0  0  0
  -35.0612    5.1791  -52.6509 C   0  0  0  0  0  0  0  0  0  0  0  0
  -34.2388    5.6061  -51.5659 O   0  0  0  0  0  0  0  0  0  0  0  0
  -35.8936    4.9577  -42.8067 C   0  0  0  0  0  0  0  0  0  0  0  0
  -35.7939    5.8921  -41.7852 C   0  0  0  0  0  0  0  0  0  0  0  0
  -35.3594    5.4901  -40.5317 C   0  0  0  0  0  0  0  0  0  0  0  0
  -34.9176    4.1937  -40.3177 C   0  0  0  0  0  0  0  0  0  0  0  0
  -34.8691    3.3241  -41.3939 C   0  0  0  0  0  0  0  0  0  0  0  0
  -35.3606    3.6840  -42.6455 C   0  0  0  0  0  0  0  0  0  0  0  0
  -34.2551    2.1011  -41.1515 O   0  0  0  0  0  0  0  0  0  0  0  0
  -34.8387    1.0169  -41.7356 C   0  0  0  0  0  0  0  0  0  0  0  0
  -34.0757    0.6157  -42.8144 F   0  0  0  0  0  0  0  0  0  0  0  0
  -34.8523   -0.0061  -40.8622 F   0  0  0  0  0  0  0  0  0  0  0  0
  -40.0738    7.0747  -41.6752 N   0  0  0  0  0  0  0  0  0  0  0  0
  -40.5464    7.9475  -41.5118 H   0  0  0  0  0  0  0  0  0  0  0  0
  -39.7881    6.1764  -40.5855 C   0  0  0  0  0  0  0  0  0  0  0  0
  -40.5191    4.8543  -40.7439 C   0  0  0  0  0  0  0  0  0  0  0  0
  -40.5955    4.1879  -39.5650 F   0  0  0  0  0  0  0  0  0  0  0  0
  -41.7659    5.0255  -41.1965 F   0  0  0  0  0  0  0  0  0  0  0  0
  -39.8855    4.0171  -41.6037 F   0  0  0  0  0  0  0  0  0  0  0  0
  -40.1328    7.2357  -46.0631 H   0  0  0  0  0  0  0  0  0  0  0  0
  -33.3626    6.9393  -49.5295 H   0  0  0  0  0  0  0  0  0  0  0  0
  -34.3159    6.8927  -47.2631 H   0  0  0  0  0  0  0  0  0  0  0  0
  -37.4491    4.3727  -48.6486 H   0  0  0  0  0  0  0  0  0  0  0  0
  -36.3514    4.1102  -50.7804 H   0  0  0  0  0  0  0  0  0  0  0  0
  -34.5599    5.5093  -53.5565 H   0  0  0  0  0  0  0  0  0  0  0  0
  -36.0454    5.6368  -52.5707 H   0  0  0  0  0  0  0  0  0  0  0  0
  -35.1486    4.0921  -52.6676 H   0  0  0  0  0  0  0  0  0  0  0  0
  -36.0388    6.9247  -41.9711 H   0  0  0  0  0  0  0  0  0  0  0  0
  -35.3430    6.2023  -39.7220 H   0  0  0  0  0  0  0  0  0  0  0  0
  -34.6262    3.8382  -39.3395 H   0  0  0  0  0  0  0  0  0  0  0  0
  -35.3004    3.0267  -43.4976 H   0  0  0  0  0  0  0  0  0  0  0  0
  -35.8435    1.2341  -42.0860 H   0  0  0  0  0  0  0  0  0  0  0  0
  -40.0874    6.6292  -39.6455 H   0  0  0  0  0  0  0  0  0  0  0  0
  -38.7283    5.9471  -40.5534 H   0  0  0  0  0  0  0  0  0  0  0  0
  1  2  2  0
  2  3  1  0
  3  4  2  0
  4  5  1  0
  4 37  1  0
  5  6  2  0
  6 30  1  0
  6  7  1  0
  7  8  2  0
  8  9  1  0
  8  3  1  0
  9 20  1  0
  9 10  1  0
 10 11  2  0
 10  1  1  0
 12 13  2  0
 13 14  1  0
 13 38  1  0
 14 15  2  0
 14 39  1  0
 15  1  1  0
 15 16  1  0
 16 17  2  0
 16 40  1  0
 17 12  1  0
 17 41  1  0
 18 19  1  0
 18 42  1  0
 18 43  1  0
 18 44  1  0
 19 12  1  0
 20 21  2  0
 21 22  1  0
 21 45  1  0
 22 23  2  0
 22 46  1  0
 23 24  1  0
 23 47  1  0
 24 26  1  0
 24 25  2  0
 25 20  1  0
 25 48  1  0
 26 27  1  0
 27 28  1  0
 27 29  1  0
 27 49  1  0
 30 32  1  0
 30 31  1  0
 32 33  1  0
 32 50  1  0
 32 51  1  0
 33 34  1  0
 33 35  1  0
 33 36  1  0
M  END
>  <minimizedAffinity>  (4) 
-9.19149

>  <mol_id>  (4) 
34605

>  <source_index>  (4) 
3

>  <layer>  (4) 
L2

>  <uniprot>  (4) 
P31153

>  <paff>  (4) 
6

>  <smiles>  (4) 
COc1ccc(-c2nc3cnc(NCC(F)(F)F)nc3n(-c3cccc(OC(F)F)c3)c2=O)cc1

>  <aimnet_interaction_kcal_mol>  (4) 
-56.031820324342746

$$$$
L2:P31153:41758
     RDKit          3D

 43 45  0  0  0  0  0  0  0  0999 V2000
  -34.8330    0.7256  -51.9738 C   0  0  0  0  0  0  0  0  0  0  0  0
  -33.8823    1.3483  -51.1592 C   0  0  0  0  0  0  0  0  0  0  0  0
  -32.6147    0.9188  -51.0537 N   0  0  0  0  0  0  0  0  0  0  0  0
  -34.2851    2.4720  -50.3446 C   0  0  0  0  0  0  0  0  0  0  0  0
  -33.5826    2.8476  -49.2000 C   0  0  0  0  0  0  0  0  0  0  0  0
  -34.0622    3.8343  -48.3690 C   0  0  0  0  0  0  0  0  0  0  0  0
  -35.2028    4.5518  -48.7340 C   0  0  0  0  0  0  0  0  0  0  0  0
  -35.8643    4.2739  -49.9162 C   0  0  0  0  0  0  0  0  0  0  0  0
  -35.4674    3.1626  -50.6783 C   0  0  0  0  0  0  0  0  0  0  0  0
  -36.2150    2.7211  -51.7482 N   0  0  0  0  0  0  0  0  0  0  0  0
  -36.0414    1.4399  -52.3531 C   0  0  0  0  0  0  0  0  0  0  0  0
  -36.8829    1.0607  -53.1534 O   0  0  0  0  0  0  0  0  0  0  0  0
  -32.3816    0.1042  -51.6141 H   0  0  0  0  0  0  0  0  0  0  0  0
  -31.8913    1.5710  -50.7904 H   0  0  0  0  0  0  0  0  0  0  0  0
  -37.3627    3.4750  -52.1549 C   0  0  0  0  0  0  0  0  0  0  0  0
  -37.2843    4.4313  -53.1530 C   0  0  0  0  0  0  0  0  0  0  0  0
  -38.4106    5.1409  -53.5422 C   0  0  0  0  0  0  0  0  0  0  0  0
  -39.6196    4.9127  -52.9008 C   0  0  0  0  0  0  0  0  0  0  0  0
  -39.7140    3.9658  -51.8889 C   0  0  0  0  0  0  0  0  0  0  0  0
  -38.5943    3.2265  -51.5739 C   0  0  0  0  0  0  0  0  0  0  0  0
  -38.6875    2.2114  -50.6815 F   0  0  0  0  0  0  0  0  0  0  0  0
  -40.7444    5.6200  -53.2797 O   0  0  0  0  0  0  0  0  0  0  0  0
  -40.9805    6.7604  -52.4449 C   0  0  0  0  0  0  0  0  0  0  0  0
  -35.7181    5.6215  -47.8105 C   0  0  0  0  0  0  0  0  0  0  0  0
  -35.1261    6.8239  -48.0665 F   0  0  0  0  0  0  0  0  0  0  0  0
  -35.4046    5.3451  -46.4902 F   0  0  0  0  0  0  0  0  0  0  0  0
  -37.0342    5.7888  -47.8584 F   0  0  0  0  0  0  0  0  0  0  0  0
  -34.5414   -0.6184  -52.4763 C   0  0  0  0  0  0  0  0  0  0  0  0
  -33.4132   -1.1165  -52.5234 O   0  0  0  0  0  0  0  0  0  0  0  0
  -35.3905   -2.6495  -53.2729 C   0  0  0  0  0  0  0  0  0  0  0  0
  -35.6271   -1.3039  -52.8594 O   0  0  0  0  0  0  0  0  0  0  0  0
  -32.6684    2.3261  -48.9476 H   0  0  0  0  0  0  0  0  0  0  0  0
  -33.6124    3.9839  -47.4041 H   0  0  0  0  0  0  0  0  0  0  0  0
  -36.6780    4.9022  -50.2476 H   0  0  0  0  0  0  0  0  0  0  0  0
  -36.3304    4.6120  -53.6283 H   0  0  0  0  0  0  0  0  0  0  0  0
  -38.3524    5.8728  -54.3352 H   0  0  0  0  0  0  0  0  0  0  0  0
  -40.6155    3.8592  -51.3080 H   0  0  0  0  0  0  0  0  0  0  0  0
  -41.9237    7.2000  -52.7736 H   0  0  0  0  0  0  0  0  0  0  0  0
  -40.1778    7.4903  -52.5719 H   0  0  0  0  0  0  0  0  0  0  0  0
  -41.0355    6.4643  -51.3955 H   0  0  0  0  0  0  0  0  0  0  0  0
  -34.9542   -3.2242  -52.4582 H   0  0  0  0  0  0  0  0  0  0  0  0
  -34.7223   -2.6732  -54.1301 H   0  0  0  0  0  0  0  0  0  0  0  0
  -36.3573   -3.0660  -53.5315 H   0  0  0  0  0  0  0  0  0  0  0  0
  1  2  2  0
  2  3  1  0
  2  4  1  0
  3 13  1  0
  3 14  1  0
  4  5  2  0
  5  6  1  0
  5 32  1  0
  6  7  2  0
  6 33  1  0
  7 24  1  0
  7  8  1  0
  8  9  2  0
  8 34  1  0
  9 10  1  0
  9  4  1  0
 10 15  1  0
 10 11  1  0
 11 12  2  0
 11  1  1  0
 15 16  2  0
 16 17  1  0
 16 35  1  0
 17 18  2  0
 17 36  1  0
 18 22  1  0
 18 19  1  0
 19 20  2  0
 19 37  1  0
 20 21  1  0
 20 15  1  0
 22 23  1  0
 23 38  1  0
 23 39  1  0
 23 40  1  0
 24 25  1  0
 24 26  1  0
 24 27  1  0
 28 29  2  0
 28  1  1  0
 30 31  1  0
 30 41  1  0
 30 42  1  0
 30 43  1  0
 31 28  1  0
M  END
>  <minimizedAffinity>  (5) 
-6.65069

>  <mol_id>  (5) 
41758

>  <source_index>  (5) 
4

>  <layer>  (5) 
L2

>  <uniprot>  (5) 
P31153

>  <paff>  (5) 
8.0022000000000002

>  <smiles>  (5) 
COC(=O)c1c(N)c2ccc(C(F)(F)F)cc2n(-c2ccc(OC)cc2F)c1=O

>  <aimnet_interaction_kcal_mol>  (5) 
-40.201312451005499

$$$$
L2:P31153:87187
     RDKit          3D

 46 48  0  0  0  0  0  0  0  0999 V2000
  -36.2806    5.5149  -46.9370 C   0  0  0  0  0  0  0  0  0  0  0  0
  -37.6055    5.9267  -46.8986 C   0  0  0  0  0  0  0  0  0  0  0  0
  -38.3295    6.1685  -48.0037 N   0  0  0  0  0  0  0  0  0  0  0  0
  -38.2190    6.1287  -45.6005 C   0  0  0  0  0  0  0  0  0  0  0  0
  -39.5516    6.5098  -45.4628 C   0  0  0  0  0  0  0  0  0  0  0  0
  -40.1572    6.5348  -44.2234 C   0  0  0  0  0  0  0  0  0  0  0  0
  -39.3998    6.2661  -43.0868 C   0  0  0  0  0  0  0  0  0  0  0  0
  -38.0332    6.1103  -43.1891 C   0  0  0  0  0  0  0  0  0  0  0  0
  -37.4646    5.8921  -44.4408 C   0  0  0  0  0  0  0  0  0  0  0  0
  -36.1813    5.3432  -44.5203 N   0  0  0  0  0  0  0  0  0  0  0  0
  -35.6347    4.9969  -45.7699 C   0  0  0  0  0  0  0  0  0  0  0  0
  -34.6407    4.2608  -45.8053 O   0  0  0  0  0  0  0  0  0  0  0  0
  -37.8470    6.1624  -48.8929 H   0  0  0  0  0  0  0  0  0  0  0  0
  -39.3009    5.8838  -48.1113 H   0  0  0  0  0  0  0  0  0  0  0  0
  -35.6681    4.6687  -43.3513 C   0  0  0  0  0  0  0  0  0  0  0  0
  -34.4151    4.9639  -42.8293 C   0  0  0  0  0  0  0  0  0  0  0  0
  -33.7646    4.0373  -42.0130 C   0  0  0  0  0  0  0  0  0  0  0  0
  -34.4091    2.8698  -41.6109 C   0  0  0  0  0  0  0  0  0  0  0  0
  -35.7573    2.7418  -41.9314 C   0  0  0  0  0  0  0  0  0  0  0  0
  -36.3965    3.6495  -42.7540 C   0  0  0  0  0  0  0  0  0  0  0  0
  -33.7029    1.7387  -40.9056 C   0  0  1  0  0  0  0  0  0  0  0  0
  -34.5821    1.0117  -39.9136 C   0  0  0  0  0  0  0  0  0  0  0  0
  -33.2495    0.7842  -41.8913 O   0  0  0  0  0  0  0  0  0  0  0  0
  -32.2851    0.8280  -41.8884 H   0  0  0  0  0  0  0  0  0  0  0  0
  -40.0455    5.9962  -41.7630 C   0  0  0  0  0  0  0  0  0  0  0  0
  -41.2878    5.4889  -41.8904 F   0  0  0  0  0  0  0  0  0  0  0  0
  -40.1378    7.1091  -40.9899 F   0  0  0  0  0  0  0  0  0  0  0  0
  -39.3420    5.0840  -41.0343 F   0  0  0  0  0  0  0  0  0  0  0  0
  -35.5363    5.3557  -48.2104 C   0  0  0  0  0  0  0  0  0  0  0  0
  -34.4501    5.8470  -48.4625 O   0  0  0  0  0  0  0  0  0  0  0  0
  -35.5705    4.4121  -50.3596 C   0  0  0  0  0  0  0  0  0  0  0  0
  -36.1973    4.5782  -49.0850 O   0  0  0  0  0  0  0  0  0  0  0  0
  -40.1319    6.7418  -46.3421 H   0  0  0  0  0  0  0  0  0  0  0  0
  -41.2199    6.7050  -44.1650 H   0  0  0  0  0  0  0  0  0  0  0  0
  -37.4138    6.0759  -42.3069 H   0  0  0  0  0  0  0  0  0  0  0  0
  -34.0037    5.9412  -43.0120 H   0  0  0  0  0  0  0  0  0  0  0  0
  -32.7405    4.2012  -41.7016 H   0  0  0  0  0  0  0  0  0  0  0  0
  -36.3087    1.8972  -41.5496 H   0  0  0  0  0  0  0  0  0  0  0  0
  -37.4574    3.5858  -42.9302 H   0  0  0  0  0  0  0  0  0  0  0  0
  -32.8442    2.1573  -40.3723 H   0  0  0  0  0  0  0  0  0  0  0  0
  -35.3056    0.3889  -40.4358 H   0  0  0  0  0  0  0  0  0  0  0  0
  -35.1093    1.7159  -39.2713 H   0  0  0  0  0  0  0  0  0  0  0  0
  -33.9873    0.3684  -39.2780 H   0  0  0  0  0  0  0  0  0  0  0  0
  -36.2686    3.8359  -50.9555 H   0  0  0  0  0  0  0  0  0  0  0  0
  -34.6295    3.8803  -50.2403 H   0  0  0  0  0  0  0  0  0  0  0  0
  -35.3941    5.3794  -50.8150 H   0  0  0  0  0  0  0  0  0  0  0  0
  1  2  2  0
  2  3  1  0
  2  4  1  0
  3 13  1  0
  3 14  1  0
  4  5  2  0
  5  6  1  0
  5 33  1  0
  6  7  2  0
  6 34  1  0
  7 25  1  0
  7  8  1  0
  8  9  2  0
  8 35  1  0
  9 10  1  0
  9  4  1  0
 10 15  1  0
 10 11  1  0
 11 12  2  0
 11  1  1  0
 15 16  2  0
 16 17  1  0
 16 36  1  0
 17 18  2  0
 17 37  1  0
 18 21  1  0
 18 19  1  0
 19 20  2  0
 19 38  1  0
 20 15  1  0
 20 39  1  0
 21 22  1  0
 21 23  1  0
 21 40  1  1
 22 41  1  0
 22 42  1  0
 22 43  1  0
 23 24  1  0
 25 26  1  0
 25 27  1  0
 25 28  1  0
 29 30  2  0
 29  1  1  0
 31 32  1  0
 31 44  1  0
 31 45  1  0
 31 46  1  0
 32 29  1  0
M  END
>  <minimizedAffinity>  (6) 
-10.35707

>  <mol_id>  (6) 
87187

>  <source_index>  (6) 
5

>  <layer>  (6) 
L2

>  <uniprot>  (6) 
P31153

>  <paff>  (6) 
9.1079000000000008

>  <smiles>  (6) 
COC(=O)c1c(N)c2ccc(C(F)(F)F)cc2n(-c2ccc([C@@H](C)O)cc2)c1=O

>  <aimnet_interaction_kcal_mol>  (6) 
-81.050831135383092

$$$$
L2:P31153:92789
     RDKit          3D

 52 56  0  0  0  0  0  0  0  0999 V2000
  -36.0993    0.3302  -52.1182 O   0  0  0  0  0  0  0  0  0  0  0  0
  -35.6460    0.9572  -51.1728 C   0  0  0  0  0  0  0  0  0  0  0  0
  -34.7265    0.3642  -50.1526 C   0  0  0  0  0  0  0  0  0  0  0  0
  -34.1206    1.0702  -49.2405 N   0  0  0  0  0  0  0  0  0  0  0  0
  -34.3839    2.4086  -49.1698 C   0  0  0  0  0  0  0  0  0  0  0  0
  -33.7823    3.2286  -48.2179 C   0  0  0  0  0  0  0  0  0  0  0  0
  -34.1946    4.4563  -47.9385 N   0  0  0  0  0  0  0  0  0  0  0  0
  -35.2624    4.8845  -48.6558 C   0  0  0  0  0  0  0  0  0  0  0  0
  -35.7368    4.2841  -49.7534 N   0  0  0  0  0  0  0  0  0  0  0  0
  -35.3680    3.0355  -49.9620 C   0  0  0  0  0  0  0  0  0  0  0  0
  -35.9941    2.2948  -50.9481 N   0  0  0  0  0  0  0  0  0  0  0  0
  -34.5196   -1.0797  -50.1533 C   0  0  0  0  0  0  0  0  0  0  0  0
  -34.5403   -1.7465  -48.9236 C   0  0  0  0  0  0  0  0  0  0  0  0
  -34.2369   -3.0939  -48.8198 C   0  0  0  0  0  0  0  0  0  0  0  0
  -33.8757   -3.7546  -49.9848 C   0  0  0  0  0  0  0  0  0  0  0  0
  -33.9025   -3.1281  -51.2286 C   0  0  0  0  0  0  0  0  0  0  0  0
  -34.2603   -1.8015  -51.3278 C   0  0  0  0  0  0  0  0  0  0  0  0
  -33.4585   -4.1293  -52.2515 C   0  0  0  0  0  0  0  0  0  0  0  0
  -32.8602   -5.2269  -51.3679 C   0  0  0  0  0  0  0  0  0  0  0  0
  -33.4440   -5.0402  -50.0348 O   0  0  0  0  0  0  0  0  0  0  0  0
  -37.0844    2.8800  -51.6851 C   0  0  0  0  0  0  0  0  0  0  0  0
  -38.2424    3.2512  -51.0182 C   0  0  0  0  0  0  0  0  0  0  0  0
  -39.2207    3.9799  -51.6713 C   0  0  0  0  0  0  0  0  0  0  0  0
  -39.0795    4.2109  -53.0301 C   0  0  0  0  0  0  0  0  0  0  0  0
  -37.9578    3.7844  -53.7255 C   0  0  0  0  0  0  0  0  0  0  0  0
  -36.9572    3.1121  -53.0450 C   0  0  0  0  0  0  0  0  0  0  0  0
  -40.0307    4.9019  -53.7800 O   0  0  0  0  0  0  0  0  0  0  0  0
  -41.3171    4.8733  -53.3371 C   0  0  0  0  0  0  0  0  0  0  0  0
  -42.1357    4.8076  -54.4260 F   0  0  0  0  0  0  0  0  0  0  0  0
  -41.6281    6.0594  -52.7065 F   0  0  0  0  0  0  0  0  0  0  0  0
  -35.9242    6.0032  -48.2909 N   0  0  0  0  0  0  0  0  0  0  0  0
  -36.4862    6.4014  -49.0498 H   0  0  0  0  0  0  0  0  0  0  0  0
  -35.6783    6.7843  -47.1264 C   0  0  0  0  0  0  0  0  0  0  0  0
  -36.2760    6.1998  -45.8486 C   0  0  0  0  0  0  0  0  0  0  0  0
  -35.7403    4.9911  -45.5204 F   0  0  0  0  0  0  0  0  0  0  0  0
  -37.6026    6.0654  -45.9290 F   0  0  0  0  0  0  0  0  0  0  0  0
  -35.9984    7.0146  -44.7907 F   0  0  0  0  0  0  0  0  0  0  0  0
  -32.9362    2.8441  -47.6676 H   0  0  0  0  0  0  0  0  0  0  0  0
  -34.8168   -1.1782  -48.0448 H   0  0  0  0  0  0  0  0  0  0  0  0
  -34.2484   -3.6092  -47.8732 H   0  0  0  0  0  0  0  0  0  0  0  0
  -34.3309   -1.3057  -52.2857 H   0  0  0  0  0  0  0  0  0  0  0  0
  -32.7286   -3.7335  -52.9552 H   0  0  0  0  0  0  0  0  0  0  0  0
  -34.3093   -4.4938  -52.8305 H   0  0  0  0  0  0  0  0  0  0  0  0
  -31.7849   -5.1285  -51.2720 H   0  0  0  0  0  0  0  0  0  0  0  0
  -33.0875   -6.2443  -51.6670 H   0  0  0  0  0  0  0  0  0  0  0  0
  -38.3780    3.0334  -49.9677 H   0  0  0  0  0  0  0  0  0  0  0  0
  -40.0199    4.4185  -51.0843 H   0  0  0  0  0  0  0  0  0  0  0  0
  -37.8809    3.9818  -54.7850 H   0  0  0  0  0  0  0  0  0  0  0  0
  -36.0799    2.7589  -53.5673 H   0  0  0  0  0  0  0  0  0  0  0  0
  -41.5419    4.0473  -52.6544 H   0  0  0  0  0  0  0  0  0  0  0  0
  -36.1399    7.7554  -47.2715 H   0  0  0  0  0  0  0  0  0  0  0  0
  -34.6159    6.9430  -46.9558 H   0  0  0  0  0  0  0  0  0  0  0  0
  1  2  2  0
  2  3  1  0
  3 12  1  0
  3  4  2  0
  4  5  1  0
  5  6  2  0
  6  7  1  0
  6 38  1  0
  7  8  2  0
  8 31  1  0
  8  9  1  0
  9 10  2  0
 10 11  1  0
 10  5  1  0
 11 21  1  0
 11  2  1  0
 12 13  2  0
 13 14  1  0
 13 39  1  0
 14 15  2  0
 14 40  1  0
 15 16  1  0
 16 17  2  0
 16 18  1  0
 17 12  1  0
 17 41  1  0
 18 19  1  0
 18 42  1  0
 18 43  1  0
 19 20  1  0
 19 44  1  0
 19 45  1  0
 20 15  1  0
 21 22  2  0
 22 23  1  0
 22 46  1  0
 23 24  2  0
 23 47  1  0
 24 27  1  0
 24 25  1  0
 25 26  2  0
 25 48  1  0
 26 21  1  0
 26 49  1  0
 27 28  1  0
 28 29  1  0
 28 30  1  0
 28 50  1  0
 31 33  1  0
 31 32  1  0
 33 34  1  0
 33 51  1  0
 33 52  1  0
 34 35  1  0
 34 36  1  0
 34 37  1  0
M  END
>  <minimizedAffinity>  (7) 
-8.81308

>  <mol_id>  (7) 
92789

>  <source_index>  (7) 
6

>  <layer>  (7) 
L2

>  <uniprot>  (7) 
P31153

>  <paff>  (7) 
7.0506000000000002

>  <smiles>  (7) 
O=c1c(-c2ccc3c(c2)CCO3)nc2cnc(NCC(F)(F)F)nc2n1-c1ccc(OC(F)F)cc1

>  <aimnet_interaction_kcal_mol>  (7) 
-59.406320691689238

$$$$
L2:P31153:116220
     RDKit          3D

 49 52  0  0  0  0  0  0  0  0999 V2000
  -37.1211    5.8288  -45.4023 C   0  0  0  0  0  0  0  0  0  0  0  0
  -36.9013    5.8862  -46.7867 C   0  0  0  0  0  0  0  0  0  0  0  0
  -37.8751    6.2933  -47.7096 C   0  0  0  0  0  0  0  0  0  0  0  0
  -39.1544    6.5849  -47.3128 C   0  0  0  0  0  0  0  0  0  0  0  0
  -39.3958    6.5707  -45.9498 C   0  0  0  0  0  0  0  0  0  0  0  0
  -40.5438    6.8632  -45.2785 N   0  0  0  0  0  0  0  0  0  0  0  0
  -40.3841    6.6988  -43.9438 N   0  0  0  0  0  0  0  0  0  0  0  0
  -39.1322    6.3602  -43.7560 C   0  0  0  0  0  0  0  0  0  0  0  0
  -38.4104    6.2370  -44.9897 C   0  0  0  0  0  0  0  0  0  0  0  0
  -41.4662    6.6200  -45.6201 H   0  0  0  0  0  0  0  0  0  0  0  0
  -36.2332    2.4677  -41.8725 C   0  0  0  0  0  0  0  0  0  0  0  0
  -35.8319    3.6824  -42.6026 C   0  0  0  0  0  0  0  0  0  0  0  0
  -36.6244    4.2438  -43.5894 C   0  0  0  0  0  0  0  0  0  0  0  0
  -36.2115    5.3212  -44.3626 C   0  0  0  0  0  0  0  0  0  0  0  0
  -35.0128    5.9511  -44.0220 C   0  0  0  0  0  0  0  0  0  0  0  0
  -34.2841    5.4936  -42.9391 C   0  0  0  0  0  0  0  0  0  0  0  0
  -34.6602    4.3453  -42.2737 C   0  0  0  0  0  0  0  0  0  0  0  0
  -33.7830    3.9038  -40.7686 S   0  0  0  0  0  0  0  0  0  0  0  0
  -33.4576    2.1279  -40.6988 C   0  0  0  0  0  0  0  0  0  0  0  0
  -34.6707    4.2654  -39.6448 O   0  0  0  0  0  0  0  0  0  0  0  0
  -32.4318    4.5404  -40.9030 O   0  0  0  0  0  0  0  0  0  0  0  0
  -35.3493    5.3885  -47.5460 S   0  0  0  0  0  0  0  0  0  0  0  0
  -34.5630    6.6001  -47.8960 O   0  0  0  0  0  0  0  0  0  0  0  0
  -34.7083    4.3704  -46.6733 O   0  0  0  0  0  0  0  0  0  0  0  0
  -35.7054    4.5226  -49.1338 C   0  0  0  0  0  0  0  0  0  0  0  0
  -34.7209    3.3792  -49.4010 C   0  0  0  0  0  0  0  0  0  0  0  0
  -34.1715    4.0611  -50.5429 O   0  0  0  0  0  0  0  0  0  0  0  0
  -35.1237    5.1417  -50.3973 C   0  0  0  0  0  0  0  0  0  0  0  0
  -38.6761    6.1211  -42.4900 O   0  0  0  0  0  0  0  0  0  0  0  0
  -39.6393    5.6643  -41.6189 C   0  0  0  0  0  0  0  0  0  0  0  0
  -39.3470    6.1349  -40.3893 F   0  0  0  0  0  0  0  0  0  0  0  0
  -39.5484    4.2968  -41.5439 F   0  0  0  0  0  0  0  0  0  0  0  0
  -37.6227    6.3705  -48.7584 H   0  0  0  0  0  0  0  0  0  0  0  0
  -39.9431    6.7302  -48.0334 H   0  0  0  0  0  0  0  0  0  0  0  0
  -37.2458    2.2432  -42.1212 H   0  0  0  0  0  0  0  0  0  0  0  0
  -36.1744    2.6041  -40.7989 H   0  0  0  0  0  0  0  0  0  0  0  0
  -35.6315    1.6013  -42.1395 H   0  0  0  0  0  0  0  0  0  0  0  0
  -37.6186    3.8642  -43.7110 H   0  0  0  0  0  0  0  0  0  0  0  0
  -34.7020    6.8268  -44.5698 H   0  0  0  0  0  0  0  0  0  0  0  0
  -33.4949    6.0695  -42.5096 H   0  0  0  0  0  0  0  0  0  0  0  0
  -34.2582    1.6509  -40.1509 H   0  0  0  0  0  0  0  0  0  0  0  0
  -32.5367    2.0173  -40.1432 H   0  0  0  0  0  0  0  0  0  0  0  0
  -33.3372    1.7260  -41.6976 H   0  0  0  0  0  0  0  0  0  0  0  0
  -36.7624    4.2929  -49.1699 H   0  0  0  0  0  0  0  0  0  0  0  0
  -35.1916    2.4362  -49.6854 H   0  0  0  0  0  0  0  0  0  0  0  0
  -33.9745    3.1926  -48.6342 H   0  0  0  0  0  0  0  0  0  0  0  0
  -35.8196    5.1741  -51.2293 H   0  0  0  0  0  0  0  0  0  0  0  0
  -34.6437    6.1022  -50.2766 H   0  0  0  0  0  0  0  0  0  0  0  0
  -40.6467    5.9392  -41.9137 H   0  0  0  0  0  0  0  0  0  0  0  0
  1  2  1  0
  2 22  1  0
  2  3  2  0
  3  4  1  0
  3 33  1  0
  4  5  2  0
  4 34  1  0
  5  6  1  0
  6  7  1  0
  6 10  1  0
  7  8  2  0
  8 29  1  0
  8  9  1  0
  9  1  2  0
  9  5  1  0
 11 12  1  0
 11 35  1  0
 11 36  1  0
 11 37  1  0
 12 13  2  0
 13 14  1  0
 13 38  1  0
 14  1  1  0
 14 15  2  0
 15 16  1  0
 15 39  1  0
 16 17  2  0
 16 40  1  0
 17 18  1  0
 17 12  1  0
 18 19  1  0
 18 20  2  0
 18 21  2  0
 19 41  1  0
 19 42  1  0
 19 43  1  0
 22 23  2  0
 22 24  2  0
 22 25  1  0
 25 26  1  0
 25 44  1  0
 26 27  1  0
 26 45  1  0
 26 46  1  0
 27 28  1  0
 28 25  1  0
 28 47  1  0
 28 48  1  0
 29 30  1  0
 30 31  1  0
 30 32  1  0
 30 49  1  0
M  END
>  <minimizedAffinity>  (8) 
-9.89299

>  <mol_id>  (8) 
116220

>  <source_index>  (8) 
7

>  <layer>  (8) 
L2

>  <uniprot>  (8) 
P31153

>  <paff>  (8) 
7.8860999999999999

>  <smiles>  (8) 
Cc1cc(-c2c(S(=O)(=O)C3COC3)ccc3[nH]nc(OC(F)F)c23)ccc1S(C)(=O)=O

>  <aimnet_interaction_kcal_mol>  (8) 
-68.372164339075624

$$$$
L2:P31153:116245
     RDKit          3D

 40 44  0  0  0  0  0  0  0  0999 V2000
  -33.9609    4.6221  -43.7872 O   0  0  0  0  0  0  0  0  0  0  0  0
  -35.1642    4.7470  -44.0281 C   0  0  0  0  0  0  0  0  0  0  0  0
  -35.7007    5.0264  -45.3579 C   0  0  0  0  0  0  0  0  0  0  0  0
  -35.0480    4.8743  -46.5082 N   0  0  0  0  0  0  0  0  0  0  0  0
  -35.9220    5.2914  -47.4422 N   0  0  0  0  0  0  0  0  0  0  0  0
  -37.1082    5.7230  -46.9169 C   0  0  0  0  0  0  0  0  0  0  0  0
  -36.9891    5.5436  -45.5539 C   0  0  0  0  0  0  0  0  0  0  0  0
  -37.8577    5.6755  -44.4219 C   0  0  0  0  0  0  0  0  0  0  0  0
  -39.1148    6.2623  -44.5237 C   0  0  0  0  0  0  0  0  0  0  0  0
  -39.9650    6.2313  -43.4504 C   0  0  0  0  0  0  0  0  0  0  0  0
  -41.1472    6.8544  -43.5632 F   0  0  0  0  0  0  0  0  0  0  0  0
  -39.6302    5.5428  -42.2854 C   0  0  0  0  0  0  0  0  0  0  0  0
  -40.8212    5.2602  -41.0493 Cl  0  0  0  0  0  0  0  0  0  0  0  0
  -38.3722    4.9922  -42.1671 C   0  0  0  0  0  0  0  0  0  0  0  0
  -37.4455    5.1200  -43.1973 C   0  0  0  0  0  0  0  0  0  0  0  0
  -36.1135    4.6583  -43.0257 N   0  0  0  0  0  0  0  0  0  0  0  0
  -35.6235    4.3494  -41.6994 C   0  0  0  0  0  0  0  0  0  0  0  0
  -35.7651    5.2962  -40.6976 C   0  0  0  0  0  0  0  0  0  0  0  0
  -35.2739    5.0325  -39.4298 C   0  0  0  0  0  0  0  0  0  0  0  0
  -34.6387    3.8190  -39.2028 C   0  0  0  0  0  0  0  0  0  0  0  0
  -34.4480    2.9422  -40.1775 N   0  0  0  0  0  0  0  0  0  0  0  0
  -34.9599    3.1444  -41.3934 C   0  0  0  0  0  0  0  0  0  0  0  0
  -34.8543    1.9917  -42.2931 C   0  0  0  0  0  0  0  0  0  0  0  0
  -33.8180    0.9401  -42.0270 C   0  0  0  0  0  0  0  0  0  0  0  0
  -35.2393    0.6404  -41.7442 C   0  0  0  0  0  0  0  0  0  0  0  0
  -35.5773    5.2359  -48.8301 C   0  0  0  0  0  0  0  0  0  0  0  0
  -34.5521    6.1105  -49.0635 F   0  0  0  0  0  0  0  0  0  0  0  0
  -35.1308    3.9949  -49.1623 F   0  0  0  0  0  0  0  0  0  0  0  0
  -37.9233    6.0458  -47.5398 H   0  0  0  0  0  0  0  0  0  0  0  0
  -39.4496    6.7116  -45.4467 H   0  0  0  0  0  0  0  0  0  0  0  0
  -38.1261    4.4351  -41.2833 H   0  0  0  0  0  0  0  0  0  0  0  0
  -36.2579    6.2333  -40.9090 H   0  0  0  0  0  0  0  0  0  0  0  0
  -35.3802    5.7555  -38.6411 H   0  0  0  0  0  0  0  0  0  0  0  0
  -34.2964    3.5320  -38.2189 H   0  0  0  0  0  0  0  0  0  0  0  0
  -35.0768    2.1973  -43.3273 H   0  0  0  0  0  0  0  0  0  0  0  0
  -33.1643    1.1055  -41.1874 H   0  0  0  0  0  0  0  0  0  0  0  0
  -33.3383    0.4641  -42.8696 H   0  0  0  0  0  0  0  0  0  0  0  0
  -35.5362    0.5997  -40.7066 H   0  0  0  0  0  0  0  0  0  0  0  0
  -35.7739   -0.0451  -42.3856 H   0  0  0  0  0  0  0  0  0  0  0  0
  -36.4320    5.5218  -49.4375 H   0  0  0  0  0  0  0  0  0  0  0  0
  1  2  2  0
  2  3  1  0
  3  4  2  0
  4  5  1  0
  5 26  1  0
  5  6  1  0
  6  7  2  0
  6 29  1  0
  7  8  1  0
  7  3  1  0
  8  9  2  0
  9 10  1  0
  9 30  1  0
 10 11  1  0
 10 12  2  0
 12 13  1  0
 12 14  1  0
 14 15  2  0
 14 31  1  0
 15 16  1  0
 15  8  1  0
 16 17  1  0
 16  2  1  0
 17 18  2  0
 18 19  1  0
 18 32  1  0
 19 20  2  0
 19 33  1  0
 20 21  1  0
 20 34  1  0
 21 22  2  0
 22 23  1  0
 22 17  1  0
 23 24  1  0
 23 35  1  0
 24 25  1  0
 24 36  1  0
 24 37  1  0
 25 23  1  0
 25 38  1  0
 25 39  1  0
 26 27  1  0
 26 28  1  0
 26 40  1  0
M  END
>  <minimizedAffinity>  (9) 
-9.95266

>  <mol_id>  (9) 
116245

>  <source_index>  (9) 
8

>  <layer>  (9) 
L2

>  <uniprot>  (9) 
P31153

>  <paff>  (9) 
7.7695999999999996

>  <smiles>  (9) 
O=c1c2nn(C(F)F)cc2c2cc(F)c(Cl)cc2n1-c1cccnc1C1CC1

>  <aimnet_interaction_kcal_mol>  (9) 
-68.214420825634335

$$$$
L2:P31153:135356
     RDKit          3D

 53 57  0  0  0  0  0  0  0  0999 V2000
  -29.9698   -6.1429  -44.0637 C   0  0  0  0  0  0  0  0  0  0  0  0
  -31.2667   -5.6197  -44.1350 C   0  0  0  0  0  0  0  0  0  0  0  0
  -31.9495   -5.3678  -45.3740 C   0  0  0  0  0  0  0  0  0  0  0  0
  -32.9973   -4.7102  -45.4596 O   0  0  0  0  0  0  0  0  0  0  0  0
  -31.3738   -5.9146  -46.5321 N   0  0  0  0  0  0  0  0  0  0  0  0
  -30.1366   -6.4761  -46.4395 C   0  0  0  0  0  0  0  0  0  0  0  0
  -29.4439   -7.0226  -47.4434 N   0  0  0  0  0  0  0  0  0  0  0  0
  -28.2595   -7.5660  -47.0114 N   0  0  0  0  0  0  0  0  0  0  0  0
  -28.2464   -7.3333  -45.7093 C   0  0  0  0  0  0  0  0  0  0  0  0
  -29.3996   -6.6293  -45.2728 C   0  0  0  0  0  0  0  0  0  0  0  0
  -29.6239   -6.8865  -48.4232 H   0  0  0  0  0  0  0  0  0  0  0  0
  -32.0164   -5.8706  -47.8086 C   0  0  0  0  0  0  0  0  0  0  0  0
  -33.0745   -6.7806  -48.0276 C   0  0  0  0  0  0  0  0  0  0  0  0
  -33.7694   -6.8026  -49.2090 C   0  0  0  0  0  0  0  0  0  0  0  0
  -33.3547   -5.9322  -50.2292 C   0  0  0  0  0  0  0  0  0  0  0  0
  -33.8007   -5.8513  -51.5021 N   0  0  0  0  0  0  0  0  0  0  0  0
  -33.0871   -4.8431  -52.0367 N   0  0  0  0  0  0  0  0  0  0  0  0
  -33.3267   -4.4945  -53.4160 C   0  0  0  0  0  0  0  0  0  0  0  0
  -32.1966   -4.2892  -51.1872 C   0  0  0  0  0  0  0  0  0  0  0  0
  -32.3098   -4.9896  -49.9885 C   0  0  0  0  0  0  0  0  0  0  0  0
  -31.5775   -5.0280  -48.7957 C   0  0  0  0  0  0  0  0  0  0  0  0
  -31.9473   -5.2305  -42.9044 C   0  0  0  0  0  0  0  0  0  0  0  0
  -32.0938   -6.1375  -41.8459 C   0  0  0  0  0  0  0  0  0  0  0  0
  -32.6577   -5.7510  -40.6462 C   0  0  0  0  0  0  0  0  0  0  0  0
  -33.1018   -4.4386  -40.4910 C   0  0  0  0  0  0  0  0  0  0  0  0
  -32.9919   -3.5330  -41.5459 C   0  0  0  0  0  0  0  0  0  0  0  0
  -32.4483   -3.9379  -42.7461 C   0  0  0  0  0  0  0  0  0  0  0  0
  -33.6372   -4.0740  -39.2989 O   0  0  0  0  0  0  0  0  0  0  0  0
  -33.2700   -2.7515  -38.8745 C   0  0  0  0  0  0  0  0  0  0  0  0
  -29.3343   -6.1451  -42.8682 N   0  0  0  0  0  0  0  0  0  0  0  0
  -29.8662   -5.7774  -42.0963 H   0  0  0  0  0  0  0  0  0  0  0  0
  -27.4320   -5.4020  -41.5572 C   0  0  0  0  0  0  0  0  0  0  0  0
  -27.9040   -6.2564  -42.7174 C   0  0  0  0  0  0  0  0  0  0  0  0
  -27.4017   -7.6693  -45.1370 H   0  0  0  0  0  0  0  0  0  0  0  0
  -33.2862   -7.4859  -47.2393 H   0  0  0  0  0  0  0  0  0  0  0  0
  -34.6005   -7.4775  -49.3507 H   0  0  0  0  0  0  0  0  0  0  0  0
  -34.3910   -4.3324  -53.5660 H   0  0  0  0  0  0  0  0  0  0  0  0
  -32.9896   -5.2974  -54.0675 H   0  0  0  0  0  0  0  0  0  0  0  0
  -32.7829   -3.5851  -53.6485 H   0  0  0  0  0  0  0  0  0  0  0  0
  -31.5461   -3.4889  -51.4922 H   0  0  0  0  0  0  0  0  0  0  0  0
  -30.6346   -4.5149  -48.7047 H   0  0  0  0  0  0  0  0  0  0  0  0
  -31.7914   -7.1651  -41.9947 H   0  0  0  0  0  0  0  0  0  0  0  0
  -32.7615   -6.4523  -39.8332 H   0  0  0  0  0  0  0  0  0  0  0  0
  -33.3408   -2.5176  -41.4142 H   0  0  0  0  0  0  0  0  0  0  0  0
  -32.4171   -3.2742  -43.5903 H   0  0  0  0  0  0  0  0  0  0  0  0
  -33.4334   -2.7222  -37.8065 H   0  0  0  0  0  0  0  0  0  0  0  0
  -33.9013   -2.0070  -39.3421 H   0  0  0  0  0  0  0  0  0  0  0  0
  -32.2258   -2.5683  -39.1173 H   0  0  0  0  0  0  0  0  0  0  0  0
  -26.3475   -5.3778  -41.5099 H   0  0  0  0  0  0  0  0  0  0  0  0
  -27.8049   -5.7875  -40.6130 H   0  0  0  0  0  0  0  0  0  0  0  0
  -27.7704   -4.3749  -41.6658 H   0  0  0  0  0  0  0  0  0  0  0  0
  -27.6308   -7.3017  -42.5655 H   0  0  0  0  0  0  0  0  0  0  0  0
  -27.4242   -5.9329  -43.6377 H   0  0  0  0  0  0  0  0  0  0  0  0
  1  2  2  0
  2 22  1  0
  2  3  1  0
  3  4  2  0
  3  5  1  0
  5 12  1  0
  5  6  1  0
  6  7  1  0
  7  8  1  0
  7 11  1  0
  8  9  2  0
  9 10  1  0
  9 34  1  0
 10  1  1  0
 10  6  2  0
 12 13  1  0
 13 14  2  0
 13 35  1  0
 14 15  1  0
 14 36  1  0
 15 16  2  0
 16 17  1  0
 17 18  1  0
 17 19  1  0
 18 37  1  0
 18 38  1  0
 18 39  1  0
 19 20  2  0
 19 40  1  0
 20 21  1  0
 20 15  1  0
 21 12  2  0
 21 41  1  0
 22 23  2  0
 23 24  1  0
 23 42  1  0
 24 25  2  0
 24 43  1  0
 25 28  1  0
 25 26  1  0
 26 27  2  0
 26 44  1  0
 27 22  1  0
 27 45  1  0
 28 29  1  0
 29 46  1  0
 29 47  1  0
 29 48  1  0
 30  1  1  0
 30 31  1  0
 32 33  1  0
 32 49  1  0
 32 50  1  0
 32 51  1  0
 33 30  1  0
 33 52  1  0
 33 53  1  0
M  END
>  <minimizedAffinity>  (10) 
-9.05678

>  <mol_id>  (10) 
135356

>  <source_index>  (10) 
9

>  <layer>  (10) 
L2

>  <uniprot>  (10) 
P31153

>  <paff>  (10) 
7.7569999999999997

>  <smiles>  (10) 
CCNc1c(-c2ccc(OC)cc2)c(=O)n(-c2ccc3nn(C)cc3c2)c2[nH]ncc12

>  <aimnet_interaction_kcal_mol>  (10) 
-67.489814816735276

$$$$
