L2:P31153:17983
     RDKit          3D

 41 44  0  0  0  0  0  0  0  0999 V2000
  -30.4162   -6.1318  -45.0485 C   0  0  0  0  0  0  0  0  0  0  0  0
  -30.6576   -6.2306  -46.4274 C   0  0  0  0  0  0  0  0  0  0  0  0
  -29.7702   -6.7077  -47.3427 N   0  0  0  0  0  0  0  0  0  0  0  0
  -28.5513   -7.1157  -46.9321 C   0  0  0  0  0  0  0  0  0  0  0  0
  -28.2425   -7.0344  -45.5852 C   0  0  0  0  0  0  0  0  0  0  0  0
  -27.1011   -7.3615  -44.9055 N   0  0  0  0  0  0  0  0  0  0  0  0
  -27.1663   -7.1303  -43.5884 N   0  0  0  0  0  0  0  0  0  0  0  0
  -28.3982   -6.6443  -43.4153 C   0  0  0  0  0  0  0  0  0  0  0  0
  -29.1357   -6.5549  -44.6280 C   0  0  0  0  0  0  0  0  0  0  0  0
  -26.2388   -7.7409  -45.2813 H   0  0  0  0  0  0  0  0  0  0  0  0
  -31.6500   -2.8082  -41.5362 C   0  0  0  0  0  0  0  0  0  0  0  0
  -32.0339   -4.0154  -42.3504 C   0  0  0  0  0  0  0  0  0  0  0  0
  -31.1012   -4.5150  -43.2805 C   0  0  0  0  0  0  0  0  0  0  0  0
  -31.3924   -5.6252  -44.0873 C   0  0  0  0  0  0  0  0  0  0  0  0
  -32.6361   -6.2428  -43.9290 C   0  0  0  0  0  0  0  0  0  0  0  0
  -32.9513   -7.3078  -44.6809 F   0  0  0  0  0  0  0  0  0  0  0  0
  -33.5718   -5.7862  -43.0057 C   0  0  0  0  0  0  0  0  0  0  0  0
  -33.2714   -4.6779  -42.2085 C   0  0  0  0  0  0  0  0  0  0  0  0
  -34.4682   -4.1016  -41.0136 S   0  0  0  0  0  0  0  0  0  0  0  0
  -34.4719   -2.3322  -41.0678 C   0  0  0  0  0  0  0  0  0  0  0  0
  -33.9624   -4.5040  -39.7158 O   0  0  0  0  0  0  0  0  0  0  0  0
  -35.7737   -4.5270  -41.4814 O   0  0  0  0  0  0  0  0  0  0  0  0
  -28.9116   -6.2040  -42.0123 C   0  0  0  0  0  0  0  0  0  0  0  0
  -27.9982   -6.3330  -40.8198 C   0  0  0  0  0  0  0  0  0  0  0  0
  -28.3302   -4.9742  -41.3587 C   0  0  0  0  0  0  0  0  0  0  0  0
  -31.9202   -5.8219  -46.9888 C   0  0  0  0  0  0  0  0  0  0  0  0
  -32.9229   -5.4935  -47.4771 N   0  0  0  0  0  0  0  0  0  0  0  0
  -27.8630   -7.4811  -47.6087 H   0  0  0  0  0  0  0  0  0  0  0  0
  -30.6706   -2.4836  -41.8196 H   0  0  0  0  0  0  0  0  0  0  0  0
  -31.6545   -3.0628  -40.4969 H   0  0  0  0  0  0  0  0  0  0  0  0
  -32.3521   -2.0204  -41.7135 H   0  0  0  0  0  0  0  0  0  0  0  0
  -30.1825   -4.0536  -43.3705 H   0  0  0  0  0  0  0  0  0  0  0  0
  -34.4821   -6.2630  -42.9101 H   0  0  0  0  0  0  0  0  0  0  0  0
  -33.5259   -1.9631  -40.7306 H   0  0  0  0  0  0  0  0  0  0  0  0
  -35.2477   -1.9575  -40.4332 H   0  0  0  0  0  0  0  0  0  0  0  0
  -34.6444   -2.0065  -42.0723 H   0  0  0  0  0  0  0  0  0  0  0  0
  -29.8990   -6.5379  -42.2540 H   0  0  0  0  0  0  0  0  0  0  0  0
  -27.0122   -6.7302  -40.9425 H   0  0  0  0  0  0  0  0  0  0  0  0
  -28.0695   -6.8033  -39.8614 H   0  0  0  0  0  0  0  0  0  0  0  0
  -27.5813   -4.4027  -41.8660 H   0  0  0  0  0  0  0  0  0  0  0  0
  -28.7362   -4.0753  -40.9440 H   0  0  0  0  0  0  0  0  0  0  0  0
  1  2  2  0
  2 26  1  0
  2  3  1  0
  3  4  2  0
  4  5  1  0
  4 28  1  0
  5  6  1  0
  6  7  1  0
  6 10  1  0
  7  8  2  0
  8 23  1  0
  8  9  1  0
  9  1  1  0
  9  5  2  0
 11 12  1  0
 11 29  1  0
 11 30  1  0
 11 31  1  0
 12 13  2  0
 13 14  1  0
 13 32  1  0
 14  1  1  0
 14 15  2  0
 15 16  1  0
 15 17  1  0
 17 18  2  0
 17 33  1  0
 18 19  1  0
 18 12  1  0
 19 20  1  0
 19 21  2  0
 19 22  2  0
 20 34  1  0
 20 35  1  0
 20 36  1  0
 23 24  1  0
 23 37  1  0
 24 25  1  0
 24 38  1  0
 24 39  1  0
 25 23  1  0
 25 40  1  0
 25 41  1  0
 26 27  3  0
M  END
>  <minimizedAffinity>  (1) 
-9.53204

>  <mol_id>  (1) 
17983

>  <source_index>  (1) 
0

>  <layer>  (1) 
L2

>  <uniprot>  (1) 
P31153

>  <paff>  (1) 
7.7695999999999996

>  <smiles>  (1) 
Cc1cc(-c2c(C#N)ncc3[nH]nc(C4CC4)c23)c(F)cc1S(C)(=O)=O

$$$$
L2:P31153:23451
     RDKit          3D

 37 40  0  0  0  0  0  0  0  0999 V2000
  -31.2892   -4.8639  -40.8703 N   0  0  0  0  0  0  0  0  0  0  0  0
  -30.1097   -5.2397  -41.4545 C   0  0  0  0  0  0  0  0  0  0  0  0
  -30.4332   -5.5403  -42.7538 C   0  0  0  0  0  0  0  0  0  0  0  0
  -31.8168   -5.3261  -42.8690 C   0  0  0  0  0  0  0  0  0  0  0  0
  -32.3439   -4.9054  -41.7076 N   0  0  0  0  0  0  0  0  0  0  0  0
  -32.5384   -5.5299  -44.1275 C   0  0  0  0  0  0  0  0  0  0  0  0
  -33.7451   -5.3055  -44.2245 O   0  0  0  0  0  0  0  0  0  0  0  0
  -31.7179   -5.9554  -45.2168 N   0  0  0  0  0  0  0  0  0  0  0  0
  -30.2952   -6.2544  -45.0746 C   0  0  0  0  0  0  0  0  0  0  0  0
  -29.5425   -6.8455  -46.1061 C   0  0  0  0  0  0  0  0  0  0  0  0
  -28.1800   -7.1140  -45.9429 C   0  0  0  0  0  0  0  0  0  0  0  0
  -27.2904   -7.8180  -47.2377 Cl  0  0  0  0  0  0  0  0  0  0  0  0
  -27.5355   -6.8276  -44.7451 C   0  0  0  0  0  0  0  0  0  0  0  0
  -28.2633   -6.2905  -43.6866 C   0  0  0  0  0  0  0  0  0  0  0  0
  -29.6303   -6.0214  -43.8422 C   0  0  0  0  0  0  0  0  0  0  0  0
  -32.3143   -6.0216  -46.5169 C   0  0  0  0  0  0  0  0  0  0  0  0
  -32.7107   -7.2540  -47.0678 C   0  0  0  0  0  0  0  0  0  0  0  0
  -33.2721   -7.3204  -48.3468 C   0  0  0  0  0  0  0  0  0  0  0  0
  -33.4306   -6.1567  -49.0939 C   0  0  0  0  0  0  0  0  0  0  0  0
  -33.0159   -4.9415  -48.5623 C   0  0  0  0  0  0  0  0  0  0  0  0
  -33.1652   -3.8242  -49.2861 F   0  0  0  0  0  0  0  0  0  0  0  0
  -32.4539   -4.8639  -47.2918 C   0  0  0  0  0  0  0  0  0  0  0  0
  -32.7672   -3.6601  -39.3100 C   0  0  0  0  0  0  0  0  0  0  0  0
  -31.4809   -4.4448  -39.4949 C   0  0  0  0  0  0  0  0  0  0  0  0
  -29.1781   -5.2868  -41.0130 H   0  0  0  0  0  0  0  0  0  0  0  0
  -30.0037   -7.0848  -46.9978 H   0  0  0  0  0  0  0  0  0  0  0  0
  -26.5254   -7.0116  -44.6412 H   0  0  0  0  0  0  0  0  0  0  0  0
  -27.7967   -6.0906  -42.7881 H   0  0  0  0  0  0  0  0  0  0  0  0
  -32.5855   -8.1202  -46.5209 H   0  0  0  0  0  0  0  0  0  0  0  0
  -33.5680   -8.2294  -48.7356 H   0  0  0  0  0  0  0  0  0  0  0  0
  -33.8526   -6.1960  -50.0349 H   0  0  0  0  0  0  0  0  0  0  0  0
  -32.1401   -3.9534  -46.9208 H   0  0  0  0  0  0  0  0  0  0  0  0
  -32.8656   -3.3732  -38.2839 H   0  0  0  0  0  0  0  0  0  0  0  0
  -33.6004   -4.2696  -39.5914 H   0  0  0  0  0  0  0  0  0  0  0  0
  -32.7422   -2.7844  -39.9244 H   0  0  0  0  0  0  0  0  0  0  0  0
  -31.5142   -5.3135  -38.8711 H   0  0  0  0  0  0  0  0  0  0  0  0
  -30.6647   -3.8062  -39.2287 H   0  0  0  0  0  0  0  0  0  0  0  0
  1  2  1  0
  2  3  2  0
  2 25  1  0
  3  4  1  0
  4  5  2  0
  4  6  1  0
  5  1  1  0
  6  7  2  0
  6  8  1  0
  8 16  1  0
  8  9  1  0
  9 10  2  0
 10 11  1  0
 10 26  1  0
 11 12  1  0
 11 13  2  0
 13 14  1  0
 13 27  1  0
 14 15  2  0
 14 28  1  0
 15  9  1  0
 15  3  1  0
 16 17  2  0
 17 18  1  0
 17 29  1  0
 18 19  2  0
 18 30  1  0
 19 20  1  0
 19 31  1  0
 20 21  1  0
 20 22  2  0
 22 16  1  0
 22 32  1  0
 23 24  1  0
 23 33  1  0
 23 34  1  0
 23 35  1  0
 24  1  1  0
 24 36  1  0
 24 37  1  0
M  END
>  <minimizedAffinity>  (2) 
-8.04551

>  <mol_id>  (2) 
23451

>  <source_index>  (2) 
1

>  <layer>  (2) 
L2

>  <uniprot>  (2) 
P31153

>  <paff>  (2) 
6.9066000000000001

>  <smiles>  (2) 
CCn1cc2c(n1)c(=O)n(-c1cccc(F)c1)c1cc(Cl)ccc21

$$$$
L2:P31153:23669
     RDKit          3D

 49 53  0  0  0  0  0  0  0  0999 V2000
  -33.6459  -14.1838  -40.9725 C   0  0  0  0  0  0  0  0  0  0  0  0
  -34.5644  -13.8664  -41.9138 C   0  0  0  0  0  0  0  0  0  0  0  0
  -35.9619  -13.4146  -41.4762 C   0  0  0  0  0  0  0  0  0  0  0  0
  -36.7993  -13.1734  -42.3495 O   0  0  0  0  0  0  0  0  0  0  0  0
  -36.2327  -13.3415  -40.0926 N   0  0  0  0  0  0  0  0  0  0  0  0
  -35.1824  -13.5983  -39.2220 C   0  0  0  0  0  0  0  0  0  0  0  0
  -35.1095  -13.4211  -37.8674 N   0  0  0  0  0  0  0  0  0  0  0  0
  -33.9127  -13.7707  -37.3476 N   0  0  0  0  0  0  0  0  0  0  0  0
  -33.1847  -14.1032  -38.4209 C   0  0  0  0  0  0  0  0  0  0  0  0
  -33.9307  -14.0016  -39.6004 C   0  0  0  0  0  0  0  0  0  0  0  0
  -35.8165  -13.0564  -37.2384 H   0  0  0  0  0  0  0  0  0  0  0  0
  -37.5125  -12.9645  -39.5757 C   0  0  0  0  0  0  0  0  0  0  0  0
  -38.4844  -13.9887  -39.2665 C   0  0  0  0  0  0  0  0  0  0  0  0
  -39.7756  -13.7420  -38.7379 C   0  0  0  0  0  0  0  0  0  0  0  0
  -40.0532  -12.3814  -38.5483 C   0  0  0  0  0  0  0  0  0  0  0  0
  -41.1561  -11.7808  -38.0739 N   0  0  0  0  0  0  0  0  0  0  0  0
  -40.8779  -10.4602  -38.1263 N   0  0  0  0  0  0  0  0  0  0  0  0
  -41.8794   -9.5151  -37.6939 C   0  0  0  0  0  0  0  0  0  0  0  0
  -39.6333  -10.1651  -38.6042 C   0  0  0  0  0  0  0  0  0  0  0  0
  -39.0773  -11.3814  -38.8872 C   0  0  0  0  0  0  0  0  0  0  0  0
  -37.8044  -11.5881  -39.4081 C   0  0  0  0  0  0  0  0  0  0  0  0
  -34.2472  -13.9779  -43.3562 C   0  0  0  0  0  0  0  0  0  0  0  0
  -33.4620  -13.0075  -43.9971 C   0  0  0  0  0  0  0  0  0  0  0  0
  -33.1594  -13.1190  -45.3579 C   0  0  0  0  0  0  0  0  0  0  0  0
  -33.6424  -14.2024  -46.0973 C   0  0  0  0  0  0  0  0  0  0  0  0
  -34.4295  -15.1715  -45.4696 C   0  0  0  0  0  0  0  0  0  0  0  0
  -34.7285  -15.0596  -44.1077 C   0  0  0  0  0  0  0  0  0  0  0  0
  -33.3345  -14.3163  -47.4927 C   0  0  0  0  0  0  0  0  0  0  0  0
  -33.0904  -14.4086  -48.6238 N   0  0  0  0  0  0  0  0  0  0  0  0
  -32.3566  -14.5882  -41.2611 O   0  0  0  0  0  0  0  0  0  0  0  0
  -31.5323  -16.4029  -42.5733 C   0  0  0  0  0  0  0  0  0  0  0  0
  -32.2539  -16.0173  -41.2957 C   0  0  0  0  0  0  0  0  0  0  0  0
  -32.1964  -14.3978  -38.3830 H   0  0  0  0  0  0  0  0  0  0  0  0
  -38.2188  -14.9701  -39.4435 H   0  0  0  0  0  0  0  0  0  0  0  0
  -40.4475  -14.4926  -38.5139 H   0  0  0  0  0  0  0  0  0  0  0  0
  -42.7525  -10.0431  -37.3716 H   0  0  0  0  0  0  0  0  0  0  0  0
  -42.1338   -8.8679  -38.5071 H   0  0  0  0  0  0  0  0  0  0  0  0
  -41.4943   -8.9337  -36.8824 H   0  0  0  0  0  0  0  0  0  0  0  0
  -39.2077   -9.2327  -38.7247 H   0  0  0  0  0  0  0  0  0  0  0  0
  -37.1486  -10.8273  -39.6450 H   0  0  0  0  0  0  0  0  0  0  0  0
  -33.1041  -12.2031  -43.4587 H   0  0  0  0  0  0  0  0  0  0  0  0
  -32.5785  -12.4001  -45.8170 H   0  0  0  0  0  0  0  0  0  0  0  0
  -34.7910  -15.9716  -46.0120 H   0  0  0  0  0  0  0  0  0  0  0  0
  -35.3092  -15.7804  -43.6514 H   0  0  0  0  0  0  0  0  0  0  0  0
  -31.4419  -17.4679  -42.6244 H   0  0  0  0  0  0  0  0  0  0  0  0
  -30.5576  -15.9615  -42.5795 H   0  0  0  0  0  0  0  0  0  0  0  0
  -32.0884  -16.0513  -43.4171 H   0  0  0  0  0  0  0  0  0  0  0  0
  -31.7006  -16.3625  -40.4474 H   0  0  0  0  0  0  0  0  0  0  0  0
  -33.2270  -16.4614  -41.2691 H   0  0  0  0  0  0  0  0  0  0  0  0
  1  2  2  0
  2 22  1  0
  2  3  1  0
  3  4  2  0
  3  5  1  0
  5 12  1  0
  5  6  1  0
  6  7  1  0
  7  8  1  0
  7 11  1  0
  8  9  2  0
  9 10  1  0
  9 33  1  0
 10  1  1  0
 10  6  2  0
 12 13  1  0
 13 14  2  0
 13 34  1  0
 14 15  1  0
 14 35  1  0
 15 16  2  0
 16 17  1  0
 17 18  1  0
 17 19  1  0
 18 36  1  0
 18 37  1  0
 18 38  1  0
 19 20  2  0
 19 39  1  0
 20 21  1  0
 20 15  1  0
 21 12  2  0
 21 40  1  0
 22 23  2  0
 23 24  1  0
 23 41  1  0
 24 25  2  0
 24 42  1  0
 25 28  1  0
 25 26  1  0
 26 27  2  0
 26 43  1  0
 27 22  1  0
 27 44  1  0
 28 29  3  0
 30  1  1  0
 31 32  1  0
 31 45  1  0
 31 46  1  0
 31 47  1  0
 32 30  1  0
 32 48  1  0
 32 49  1  0
M  END
>  <minimizedAffinity>  (3) 
-5.15575

>  <mol_id>  (3) 
23669

>  <source_index>  (3) 
2

>  <layer>  (3) 
L2

>  <uniprot>  (3) 
P31153

>  <paff>  (3) 
7.7958999999999996

>  <smiles>  (3) 
CCOc1c(-c2ccc(C#N)cc2)c(=O)n(-c2ccc3nn(C)cc3c2)c2[nH]ncc12

$$$$
L2:P31153:34605
     RDKit          3D

 51 54  0  0  0  0  0  0  0  0999 V2000
  -34.1708   -0.2860  -49.7745 C   0  0  0  0  0  0  0  0  0  0  0  0
  -33.6221    0.5555  -48.9470 N   0  0  0  0  0  0  0  0  0  0  0  0
  -33.8703    1.9188  -49.1268 C   0  0  0  0  0  0  0  0  0  0  0  0
  -33.3509    2.8380  -48.2398 C   0  0  0  0  0  0  0  0  0  0  0  0
  -33.5496    4.1685  -48.3177 N   0  0  0  0  0  0  0  0  0  0  0  0
  -34.3176    4.5958  -49.3208 C   0  0  0  0  0  0  0  0  0  0  0  0
  -34.8535    3.7916  -50.2423 N   0  0  0  0  0  0  0  0  0  0  0  0
  -34.6226    2.4594  -50.1558 C   0  0  0  0  0  0  0  0  0  0  0  0
  -35.2151    1.5558  -51.0939 N   0  0  0  0  0  0  0  0  0  0  0  0
  -35.0977    0.1728  -50.9068 C   0  0  0  0  0  0  0  0  0  0  0  0
  -35.6493   -0.6921  -51.5795 O   0  0  0  0  0  0  0  0  0  0  0  0
  -33.3526   -4.4638  -49.1270 C   0  0  0  0  0  0  0  0  0  0  0  0
  -34.3623   -3.8153  -48.4171 C   0  0  0  0  0  0  0  0  0  0  0  0
  -34.6196   -2.4577  -48.6441 C   0  0  0  0  0  0  0  0  0  0  0  0
  -33.8770   -1.7380  -49.5905 C   0  0  0  0  0  0  0  0  0  0  0  0
  -32.8547   -2.3853  -50.2881 C   0  0  0  0  0  0  0  0  0  0  0  0
  -32.6019   -3.7416  -50.0581 C   0  0  0  0  0  0  0  0  0  0  0  0
  -32.3499   -6.1599  -47.7964 C   0  0  0  0  0  0  0  0  0  0  0  0
  -32.9977   -5.7780  -49.0033 O   0  0  0  0  0  0  0  0  0  0  0  0
  -35.9891    2.0927  -52.1792 C   0  0  0  0  0  0  0  0  0  0  0  0
  -35.3786    2.4604  -53.3865 C   0  0  0  0  0  0  0  0  0  0  0  0
  -36.1226    3.0075  -54.4360 C   0  0  0  0  0  0  0  0  0  0  0  0
  -37.4963    3.2022  -54.3007 C   0  0  0  0  0  0  0  0  0  0  0  0
  -38.1294    2.8484  -53.1122 C   0  0  0  0  0  0  0  0  0  0  0  0
  -37.3722    2.3149  -52.0604 C   0  0  0  0  0  0  0  0  0  0  0  0
  -39.4604    3.0006  -52.8374 O   0  0  0  0  0  0  0  0  0  0  0  0
  -39.9633    4.3255  -52.8748 C   0  0  0  0  0  0  0  0  0  0  0  0
  -41.1766    4.3138  -52.2664 F   0  0  0  0  0  0  0  0  0  0  0  0
  -39.1644    5.1271  -52.1282 F   0  0  0  0  0  0  0  0  0  0  0  0
  -34.5997    5.9424  -49.4621 N   0  0  0  0  0  0  0  0  0  0  0  0
  -33.8684    6.3424  -50.0444 H   0  0  0  0  0  0  0  0  0  0  0  0
  -34.8632    6.6489  -48.1999 C   0  0  0  0  0  0  0  0  0  0  0  0
  -36.1008    6.1292  -47.4626 C   0  0  0  0  0  0  0  0  0  0  0  0
  -36.8864    7.1542  -47.0589 F   0  0  0  0  0  0  0  0  0  0  0  0
  -36.8480    5.3399  -48.2710 F   0  0  0  0  0  0  0  0  0  0  0  0
  -35.7760    5.4077  -46.3680 F   0  0  0  0  0  0  0  0  0  0  0  0
  -32.7707    2.4829  -47.4637 H   0  0  0  0  0  0  0  0  0  0  0  0
  -34.9208   -4.3366  -47.7233 H   0  0  0  0  0  0  0  0  0  0  0  0
  -35.3633   -1.9823  -48.1094 H   0  0  0  0  0  0  0  0  0  0  0  0
  -32.2861   -1.8631  -50.9730 H   0  0  0  0  0  0  0  0  0  0  0  0
  -31.8505   -4.2154  -50.5834 H   0  0  0  0  0  0  0  0  0  0  0  0
  -32.1273   -7.2060  -47.8267 H   0  0  0  0  0  0  0  0  0  0  0  0
  -32.9935   -5.9561  -46.9662 H   0  0  0  0  0  0  0  0  0  0  0  0
  -31.4415   -5.6049  -47.6881 H   0  0  0  0  0  0  0  0  0  0  0  0
  -34.3621    2.3248  -53.5025 H   0  0  0  0  0  0  0  0  0  0  0  0
  -35.6519    3.2689  -55.3164 H   0  0  0  0  0  0  0  0  0  0  0  0
  -38.0415    3.6067  -55.0779 H   0  0  0  0  0  0  0  0  0  0  0  0
  -37.8434    2.0784  -51.1733 H   0  0  0  0  0  0  0  0  0  0  0  0
  -40.0127    4.6726  -53.8857 H   0  0  0  0  0  0  0  0  0  0  0  0
  -35.0070    7.6871  -48.4153 H   0  0  0  0  0  0  0  0  0  0  0  0
  -34.0207    6.4829  -47.5616 H   0  0  0  0  0  0  0  0  0  0  0  0
  1  2  2  0
  2  3  1  0
  3  4  2  0
  4  5  1  0
  4 37  1  0
  5  6  2  0
  6 30  1  0
  6  7  1  0
  7  8  2  0
  8  9  1  0
  8  3  1  0
  9 20  1  0
  9 10  1  0
 10 11  2  0
 10  1  1  0
 12 13  2  0
 13 14  1  0
 13 38  1  0
 14 15  2  0
 14 39  1  0
 15  1  1  0
 15 16  1  0
 16 17  2  0
 16 40  1  0
 17 12  1  0
 17 41  1  0
 18 19  1  0
 18 42  1  0
 18 43  1  0
 18 44  1  0
 19 12  1  0
 20 21  2  0
 21 22  1  0
 21 45  1  0
 22 23  2  0
 22 46  1  0
 23 24  1  0
 23 47  1  0
 24 26  1  0
 24 25  2  0
 25 20  1  0
 25 48  1  0
 26 27  1  0
 27 28  1  0
 27 29  1  0
 27 49  1  0
 30 32  1  0
 30 31  1  0
 32 33  1  0
 32 50  1  0
 32 51  1  0
 33 34  1  0
 33 35  1  0
 33 36  1  0
M  END
>  <minimizedAffinity>  (4) 
-6.76630

>  <mol_id>  (4) 
34605

>  <source_index>  (4) 
3

>  <layer>  (4) 
L2

>  <uniprot>  (4) 
P31153

>  <paff>  (4) 
6

>  <smiles>  (4) 
COc1ccc(-c2nc3cnc(NCC(F)(F)F)nc3n(-c3cccc(OC(F)F)c3)c2=O)cc1

$$$$
L2:P31153:41758
     RDKit          3D

 43 45  0  0  0  0  0  0  0  0999 V2000
  -31.4802   -6.1720  -46.1058 C   0  0  0  0  0  0  0  0  0  0  0  0
  -30.1867   -6.5460  -46.0101 C   0  0  0  0  0  0  0  0  0  0  0  0
  -29.4370   -7.1124  -47.0444 N   0  0  0  0  0  0  0  0  0  0  0  0
  -29.4868   -6.3495  -44.7113 C   0  0  0  0  0  0  0  0  0  0  0  0
  -28.1694   -6.8158  -44.5189 C   0  0  0  0  0  0  0  0  0  0  0  0
  -27.4746   -6.5799  -43.3316 C   0  0  0  0  0  0  0  0  0  0  0  0
  -28.0793   -5.8677  -42.2978 C   0  0  0  0  0  0  0  0  0  0  0  0
  -29.3995   -5.4205  -42.4728 C   0  0  0  0  0  0  0  0  0  0  0  0
  -30.1321   -5.6920  -43.6482 C   0  0  0  0  0  0  0  0  0  0  0  0
  -31.4930   -5.2903  -43.8112 N   0  0  0  0  0  0  0  0  0  0  0  0
  -32.2004   -5.4942  -44.9963 C   0  0  0  0  0  0  0  0  0  0  0  0
  -33.3738   -5.1521  -45.1521 O   0  0  0  0  0  0  0  0  0  0  0  0
  -28.5171   -6.6822  -47.1273 H   0  0  0  0  0  0  0  0  0  0  0  0
  -29.9068   -7.0219  -47.9544 H   0  0  0  0  0  0  0  0  0  0  0  0
  -32.1838   -4.6873  -42.7196 C   0  0  0  0  0  0  0  0  0  0  0  0
  -32.6511   -3.3686  -42.8086 C   0  0  0  0  0  0  0  0  0  0  0  0
  -33.2952   -2.7700  -41.7180 C   0  0  0  0  0  0  0  0  0  0  0  0
  -33.4702   -3.4785  -40.5267 C   0  0  0  0  0  0  0  0  0  0  0  0
  -32.9942   -4.7873  -40.4317 C   0  0  0  0  0  0  0  0  0  0  0  0
  -32.3518   -5.3792  -41.5151 C   0  0  0  0  0  0  0  0  0  0  0  0
  -31.9449   -6.6533  -41.4044 F   0  0  0  0  0  0  0  0  0  0  0  0
  -34.0835   -3.0115  -39.3976 O   0  0  0  0  0  0  0  0  0  0  0  0
  -33.2888   -2.2486  -38.4979 C   0  0  0  0  0  0  0  0  0  0  0  0
  -27.3335   -5.5557  -41.0234 C   0  0  0  0  0  0  0  0  0  0  0  0
  -26.8016   -6.6576  -40.4258 F   0  0  0  0  0  0  0  0  0  0  0  0
  -26.2956   -4.7005  -41.2286 F   0  0  0  0  0  0  0  0  0  0  0  0
  -28.1251   -4.9685  -40.0832 F   0  0  0  0  0  0  0  0  0  0  0  0
  -32.1861   -6.4411  -47.3778 C   0  0  0  0  0  0  0  0  0  0  0  0
  -32.9500   -7.3857  -47.5439 O   0  0  0  0  0  0  0  0  0  0  0  0
  -33.1273   -4.8709  -48.8323 C   0  0  0  0  0  0  0  0  0  0  0  0
  -31.9493   -5.4515  -48.2742 O   0  0  0  0  0  0  0  0  0  0  0  0
  -27.7077   -7.3448  -45.2752 H   0  0  0  0  0  0  0  0  0  0  0  0
  -26.5116   -6.9335  -43.2192 H   0  0  0  0  0  0  0  0  0  0  0  0
  -29.8474   -4.8767  -41.7187 H   0  0  0  0  0  0  0  0  0  0  0  0
  -32.5199   -2.8357  -43.6826 H   0  0  0  0  0  0  0  0  0  0  0  0
  -33.6421   -1.8011  -41.7950 H   0  0  0  0  0  0  0  0  0  0  0  0
  -33.1191   -5.3177  -39.5553 H   0  0  0  0  0  0  0  0  0  0  0  0
  -33.8857   -1.9468  -37.6627 H   0  0  0  0  0  0  0  0  0  0  0  0
  -32.9140   -1.3814  -39.0004 H   0  0  0  0  0  0  0  0  0  0  0  0
  -32.4688   -2.8437  -38.1538 H   0  0  0  0  0  0  0  0  0  0  0  0
  -32.8527   -4.1033  -49.5254 H   0  0  0  0  0  0  0  0  0  0  0  0
  -33.7220   -4.4485  -48.0495 H   0  0  0  0  0  0  0  0  0  0  0  0
  -33.6905   -5.6255  -49.3405 H   0  0  0  0  0  0  0  0  0  0  0  0
  1  2  2  0
  2  3  1  0
  2  4  1  0
  3 13  1  0
  3 14  1  0
  4  5  2  0
  5  6  1  0
  5 32  1  0
  6  7  2  0
  6 33  1  0
  7 24  1  0
  7  8  1  0
  8  9  2  0
  8 34  1  0
  9 10  1  0
  9  4  1  0
 10 15  1  0
 10 11  1  0
 11 12  2  0
 11  1  1  0
 15 16  2  0
 16 17  1  0
 16 35  1  0
 17 18  2  0
 17 36  1  0
 18 22  1  0
 18 19  1  0
 19 20  2  0
 19 37  1  0
 20 21  1  0
 20 15  1  0
 22 23  1  0
 23 38  1  0
 23 39  1  0
 23 40  1  0
 24 25  1  0
 24 26  1  0
 24 27  1  0
 28 29  2  0
 28  1  1  0
 30 31  1  0
 30 41  1  0
 30 42  1  0
 30 43  1  0
 31 28  1  0
M  END
>  <minimizedAffinity>  (5) 
-9.11466

>  <mol_id>  (5) 
41758

>  <source_index>  (5) 
4

>  <layer>  (5) 
L2

>  <uniprot>  (5) 
P31153

>  <paff>  (5) 
8.0022000000000002

>  <smiles>  (5) 
COC(=O)c1c(N)c2ccc(C(F)(F)F)cc2n(-c2ccc(OC)cc2F)c1=O

$$$$
L2:P31153:87187
     RDKit          3D

 46 48  0  0  0  0  0  0  0  0999 V2000
  -36.5080    5.9640  -46.3000 C   0  0  0  0  0  0  0  0  0  0  0  0
  -37.7407    6.4774  -46.1069 C   0  0  0  0  0  0  0  0  0  0  0  0
  -38.4737    7.1841  -47.0636 N   0  0  0  0  0  0  0  0  0  0  0  0
  -38.3819    6.2889  -44.7783 C   0  0  0  0  0  0  0  0  0  0  0  0
  -39.6936    6.7491  -44.5347 C   0  0  0  0  0  0  0  0  0  0  0  0
  -40.2841    6.6505  -43.2739 C   0  0  0  0  0  0  0  0  0  0  0  0
  -39.5749    6.0908  -42.2142 C   0  0  0  0  0  0  0  0  0  0  0  0
  -38.2790    5.6063  -42.4563 C   0  0  0  0  0  0  0  0  0  0  0  0
  -37.6885    5.6429  -43.7387 C   0  0  0  0  0  0  0  0  0  0  0  0
  -36.3869    5.1020  -43.9970 N   0  0  0  0  0  0  0  0  0  0  0  0
  -35.7377    5.2930  -45.2201 C   0  0  0  0  0  0  0  0  0  0  0  0
  -34.5793    4.9384  -45.4466 O   0  0  0  0  0  0  0  0  0  0  0  0
  -38.8845    8.0337  -46.6799 H   0  0  0  0  0  0  0  0  0  0  0  0
  -37.8967    7.4543  -47.8702 H   0  0  0  0  0  0  0  0  0  0  0  0
  -35.7505    4.2907  -43.0030 C   0  0  0  0  0  0  0  0  0  0  0  0
  -34.3779    4.4117  -42.7581 C   0  0  0  0  0  0  0  0  0  0  0  0
  -33.7495    3.6065  -41.8031 C   0  0  0  0  0  0  0  0  0  0  0  0
  -34.4761    2.6482  -41.0818 C   0  0  0  0  0  0  0  0  0  0  0  0
  -35.8442    2.5068  -41.3451 C   0  0  0  0  0  0  0  0  0  0  0  0
  -36.4722    3.3137  -42.2998 C   0  0  0  0  0  0  0  0  0  0  0  0
  -33.7990    1.7670  -40.0542 C   0  0  1  0  0  0  0  0  0  0  0  0
  -34.7549    0.7668  -39.4183 C   0  0  0  0  0  0  0  0  0  0  0  0
  -32.7195    1.0536  -40.6551 O   0  0  0  0  0  0  0  0  0  0  0  0
  -32.3530    1.6213  -41.3545 H   0  0  0  0  0  0  0  0  0  0  0  0
  -40.1630    6.0220  -40.8261 C   0  0  0  0  0  0  0  0  0  0  0  0
  -40.3680    7.2539  -40.2830 F   0  0  0  0  0  0  0  0  0  0  0  0
  -41.3717    5.3975  -40.8084 F   0  0  0  0  0  0  0  0  0  0  0  0
  -39.3788    5.3496  -39.9390 F   0  0  0  0  0  0  0  0  0  0  0  0
  -35.9071    6.0975  -47.6456 C   0  0  0  0  0  0  0  0  0  0  0  0
  -35.2798    7.0839  -48.0146 O   0  0  0  0  0  0  0  0  0  0  0  0
  -35.1556    4.5188  -49.1981 C   0  0  0  0  0  0  0  0  0  0  0  0
  -36.2356    5.0349  -48.4214 O   0  0  0  0  0  0  0  0  0  0  0  0
  -40.2304    7.1697  -45.3093 H   0  0  0  0  0  0  0  0  0  0  0  0
  -41.2466    6.9925  -43.1269 H   0  0  0  0  0  0  0  0  0  0  0  0
  -37.7400    5.2101  -41.6704 H   0  0  0  0  0  0  0  0  0  0  0  0
  -33.8237    5.1025  -43.2879 H   0  0  0  0  0  0  0  0  0  0  0  0
  -32.7389    3.7188  -41.6270 H   0  0  0  0  0  0  0  0  0  0  0  0
  -36.3939    1.8012  -40.8304 H   0  0  0  0  0  0  0  0  0  0  0  0
  -37.4789    3.1890  -42.4895 H   0  0  0  0  0  0  0  0  0  0  0  0
  -33.4393    2.4161  -39.2834 H   0  0  0  0  0  0  0  0  0  0  0  0
  -35.1298    0.1041  -40.1701 H   0  0  0  0  0  0  0  0  0  0  0  0
  -35.5707    1.2910  -38.9660 H   0  0  0  0  0  0  0  0  0  0  0  0
  -34.2360    0.2024  -38.6720 H   0  0  0  0  0  0  0  0  0  0  0  0
  -35.4985    3.6872  -49.7776 H   0  0  0  0  0  0  0  0  0  0  0  0
  -34.3687    4.1996  -48.5471 H   0  0  0  0  0  0  0  0  0  0  0  0
  -34.7897    5.2826  -49.8521 H   0  0  0  0  0  0  0  0  0  0  0  0
  1  2  2  0
  2  3  1  0
  2  4  1  0
  3 13  1  0
  3 14  1  0
  4  5  2  0
  5  6  1  0
  5 33  1  0
  6  7  2  0
  6 34  1  0
  7 25  1  0
  7  8  1  0
  8  9  2  0
  8 35  1  0
  9 10  1  0
  9  4  1  0
 10 15  1  0
 10 11  1  0
 11 12  2  0
 11  1  1  0
 15 16  2  0
 16 17  1  0
 16 36  1  0
 17 18  2  0
 17 37  1  0
 18 21  1  0
 18 19  1  0
 19 20  2  0
 19 38  1  0
 20 15  1  0
 20 39  1  0
 21 22  1  0
 21 23  1  0
 21 40  1  1
 22 41  1  0
 22 42  1  0
 22 43  1  0
 23 24  1  0
 25 26  1  0
 25 27  1  0
 25 28  1  0
 29 30  2  0
 29  1  1  0
 31 32  1  0
 31 44  1  0
 31 45  1  0
 31 46  1  0
 32 29  1  0
M  END
>  <minimizedAffinity>  (6) 
-9.27124

>  <mol_id>  (6) 
87187

>  <source_index>  (6) 
5

>  <layer>  (6) 
L2

>  <uniprot>  (6) 
P31153

>  <paff>  (6) 
9.1079000000000008

>  <smiles>  (6) 
COC(=O)c1c(N)c2ccc(C(F)(F)F)cc2n(-c2ccc([C@@H](C)O)cc2)c1=O

$$$$
L2:P31153:92789
     RDKit          3D

 52 56  0  0  0  0  0  0  0  0999 V2000
  -32.3085   13.2140  -42.6146 O   0  0  0  0  0  0  0  0  0  0  0  0
  -32.1793   13.3678  -41.4041 C   0  0  0  0  0  0  0  0  0  0  0  0
  -33.1799   14.2807  -40.6873 C   0  0  0  0  0  0  0  0  0  0  0  0
  -33.2075   14.3895  -39.3905 N   0  0  0  0  0  0  0  0  0  0  0  0
  -32.2337   13.7165  -38.6477 C   0  0  0  0  0  0  0  0  0  0  0  0
  -32.1866   13.8644  -37.2781 C   0  0  0  0  0  0  0  0  0  0  0  0
  -31.2539   13.3033  -36.4843 N   0  0  0  0  0  0  0  0  0  0  0  0
  -30.3058   12.5919  -37.0896 C   0  0  0  0  0  0  0  0  0  0  0  0
  -30.2768   12.3628  -38.4050 N   0  0  0  0  0  0  0  0  0  0  0  0
  -31.2412   12.9124  -39.1823 C   0  0  0  0  0  0  0  0  0  0  0  0
  -31.2329   12.7206  -40.5992 N   0  0  0  0  0  0  0  0  0  0  0  0
  -34.1807   15.0592  -41.4764 C   0  0  0  0  0  0  0  0  0  0  0  0
  -33.8116   16.1879  -42.2364 C   0  0  0  0  0  0  0  0  0  0  0  0
  -34.7727   16.9133  -42.9489 C   0  0  0  0  0  0  0  0  0  0  0  0
  -36.0868   16.5048  -42.8653 C   0  0  0  0  0  0  0  0  0  0  0  0
  -36.4665   15.4066  -42.1118 C   0  0  0  0  0  0  0  0  0  0  0  0
  -35.5295   14.6685  -41.4088 C   0  0  0  0  0  0  0  0  0  0  0  0
  -37.9205   15.1850  -42.2718 C   0  0  0  0  0  0  0  0  0  0  0  0
  -38.3016   16.5268  -42.8999 C   0  0  0  0  0  0  0  0  0  0  0  0
  -37.1290   17.1161  -43.5106 O   0  0  0  0  0  0  0  0  0  0  0  0
  -30.2544   11.8488  -41.1865 C   0  0  0  0  0  0  0  0  0  0  0  0
  -29.0521   12.3288  -41.7295 C   0  0  0  0  0  0  0  0  0  0  0  0
  -28.0967   11.4620  -42.2814 C   0  0  0  0  0  0  0  0  0  0  0  0
  -28.3194   10.0878  -42.2899 C   0  0  0  0  0  0  0  0  0  0  0  0
  -29.5085    9.5946  -41.7562 C   0  0  0  0  0  0  0  0  0  0  0  0
  -30.4579   10.4611  -41.2014 C   0  0  0  0  0  0  0  0  0  0  0  0
  -27.4794    9.1398  -42.8003 O   0  0  0  0  0  0  0  0  0  0  0  0
  -26.2873    8.8999  -42.0723 C   0  0  0  0  0  0  0  0  0  0  0  0
  -26.0253    7.5693  -42.0681 F   0  0  0  0  0  0  0  0  0  0  0  0
  -26.5218    9.2519  -40.7826 F   0  0  0  0  0  0  0  0  0  0  0  0
  -29.2846   12.0206  -36.3583 N   0  0  0  0  0  0  0  0  0  0  0  0
  -28.9052   12.7258  -35.7378 H   0  0  0  0  0  0  0  0  0  0  0  0
  -28.3234   11.1989  -37.1023 C   0  0  0  0  0  0  0  0  0  0  0  0
  -28.6300    9.6928  -37.1438 C   0  0  0  0  0  0  0  0  0  0  0  0
  -27.5470    8.9069  -36.9886 F   0  0  0  0  0  0  0  0  0  0  0  0
  -29.2390    9.3431  -38.3017 F   0  0  0  0  0  0  0  0  0  0  0  0
  -29.4922    9.3796  -36.1407 F   0  0  0  0  0  0  0  0  0  0  0  0
  -32.9144   14.4436  -36.8309 H   0  0  0  0  0  0  0  0  0  0  0  0
  -32.8229   16.4819  -42.2675 H   0  0  0  0  0  0  0  0  0  0  0  0
  -34.5058   17.7302  -43.5203 H   0  0  0  0  0  0  0  0  0  0  0  0
  -35.8146   13.8504  -40.8481 H   0  0  0  0  0  0  0  0  0  0  0  0
  -38.4081   15.0294  -41.3321 H   0  0  0  0  0  0  0  0  0  0  0  0
  -38.1937   14.3189  -42.8375 H   0  0  0  0  0  0  0  0  0  0  0  0
  -38.6786   17.1822  -42.1428 H   0  0  0  0  0  0  0  0  0  0  0  0
  -39.0562   16.3746  -43.6431 H   0  0  0  0  0  0  0  0  0  0  0  0
  -28.8664   13.3439  -41.7226 H   0  0  0  0  0  0  0  0  0  0  0  0
  -27.2260   11.8444  -42.6823 H   0  0  0  0  0  0  0  0  0  0  0  0
  -29.6913    8.5790  -41.7701 H   0  0  0  0  0  0  0  0  0  0  0  0
  -31.3233   10.0717  -40.7960 H   0  0  0  0  0  0  0  0  0  0  0  0
  -25.4762    9.4460  -42.5068 H   0  0  0  0  0  0  0  0  0  0  0  0
  -27.3618   11.3269  -36.6508 H   0  0  0  0  0  0  0  0  0  0  0  0
  -28.3730   11.5361  -38.1166 H   0  0  0  0  0  0  0  0  0  0  0  0
  1  2  2  0
  2  3  1  0
  3 12  1  0
  3  4  2  0
  4  5  1  0
  5  6  2  0
  6  7  1  0
  6 38  1  0
  7  8  2  0
  8 31  1  0
  8  9  1  0
  9 10  2  0
 10 11  1  0
 10  5  1  0
 11 21  1  0
 11  2  1  0
 12 13  2  0
 13 14  1  0
 13 39  1  0
 14 15  2  0
 14 40  1  0
 15 16  1  0
 16 17  2  0
 16 18  1  0
 17 12  1  0
 17 41  1  0
 18 19  1  0
 18 42  1  0
 18 43  1  0
 19 20  1  0
 19 44  1  0
 19 45  1  0
 20 15  1  0
 21 22  2  0
 22 23  1  0
 22 46  1  0
 23 24  2  0
 23 47  1  0
 24 27  1  0
 24 25  1  0
 25 26  2  0
 25 48  1  0
 26 21  1  0
 26 49  1  0
 27 28  1  0
 28 29  1  0
 28 30  1  0
 28 50  1  0
 31 33  1  0
 31 32  1  0
 33 34  1  0
 33 51  1  0
 33 52  1  0
 34 35  1  0
 34 36  1  0
 34 37  1  0
M  END
>  <minimizedAffinity>  (7) 
-5.50274

>  <mol_id>  (7) 
92789

>  <source_index>  (7) 
6

>  <layer>  (7) 
L2

>  <uniprot>  (7) 
P31153

>  <paff>  (7) 
7.0506000000000002

>  <smiles>  (7) 
O=c1c(-c2ccc3c(c2)CCO3)nc2cnc(NCC(F)(F)F)nc2n1-c1ccc(OC(F)F)cc1

$$$$
L2:P31153:116220
     RDKit          3D

 49 52  0  0  0  0  0  0  0  0999 V2000
  -32.9361   -1.5456  -50.7228 C   0  0  0  0  0  0  0  0  0  0  0  0
  -33.4148   -2.5359  -49.8296 C   0  0  0  0  0  0  0  0  0  0  0  0
  -34.3703   -2.2376  -48.8477 C   0  0  0  0  0  0  0  0  0  0  0  0
  -34.8938   -0.9478  -48.7210 C   0  0  0  0  0  0  0  0  0  0  0  0
  -34.4207    0.0222  -49.6057 C   0  0  0  0  0  0  0  0  0  0  0  0
  -34.7313    1.3527  -49.7331 N   0  0  0  0  0  0  0  0  0  0  0  0
  -34.0705    1.9804  -50.7197 N   0  0  0  0  0  0  0  0  0  0  0  0
  -33.2845    1.0232  -51.2137 C   0  0  0  0  0  0  0  0  0  0  0  0
  -33.4665   -0.2368  -50.5866 C   0  0  0  0  0  0  0  0  0  0  0  0
  -35.3919    1.8886  -49.1804 H   0  0  0  0  0  0  0  0  0  0  0  0
  -28.1469   -1.4580  -52.1041 C   0  0  0  0  0  0  0  0  0  0  0  0
  -29.5720   -1.7599  -52.4739 C   0  0  0  0  0  0  0  0  0  0  0  0
  -30.5664   -1.5377  -51.5014 C   0  0  0  0  0  0  0  0  0  0  0  0
  -31.9269   -1.7736  -51.7597 C   0  0  0  0  0  0  0  0  0  0  0  0
  -32.2978   -2.2148  -53.0345 C   0  0  0  0  0  0  0  0  0  0  0  0
  -31.3336   -2.4332  -54.0185 C   0  0  0  0  0  0  0  0  0  0  0  0
  -29.9757   -2.2193  -53.7402 C   0  0  0  0  0  0  0  0  0  0  0  0
  -28.8149   -2.5565  -55.0576 S   0  0  0  0  0  0  0  0  0  0  0  0
  -29.8554   -3.1183  -56.3808 C   0  0  0  0  0  0  0  0  0  0  0  0
  -27.9532   -3.6500  -54.6531 O   0  0  0  0  0  0  0  0  0  0  0  0
  -28.2353   -1.2909  -55.4720 O   0  0  0  0  0  0  0  0  0  0  0  0
  -32.7845   -4.2126  -49.9545 S   0  0  0  0  0  0  0  0  0  0  0  0
  -31.3446   -4.0870  -49.8055 O   0  0  0  0  0  0  0  0  0  0  0  0
  -33.3516   -4.7547  -51.1765 O   0  0  0  0  0  0  0  0  0  0  0  0
  -33.3633   -5.1889  -48.5950 C   0  0  0  0  0  0  0  0  0  0  0  0
  -32.2580   -5.7973  -47.7376 C   0  0  0  0  0  0  0  0  0  0  0  0
  -32.9328   -7.0870  -47.7630 O   0  0  0  0  0  0  0  0  0  0  0  0
  -33.7130   -6.6402  -48.9049 C   0  0  0  0  0  0  0  0  0  0  0  0
  -32.4733    1.2827  -52.2558 O   0  0  0  0  0  0  0  0  0  0  0  0
  -33.1611    1.4166  -53.4817 C   0  0  0  0  0  0  0  0  0  0  0  0
  -32.3214    1.0904  -54.4991 F   0  0  0  0  0  0  0  0  0  0  0  0
  -34.1436    0.4748  -53.4899 F   0  0  0  0  0  0  0  0  0  0  0  0
  -34.6919   -2.9816  -48.2089 H   0  0  0  0  0  0  0  0  0  0  0  0
  -35.6004   -0.7223  -48.0034 H   0  0  0  0  0  0  0  0  0  0  0  0
  -28.1049   -1.1255  -51.0879 H   0  0  0  0  0  0  0  0  0  0  0  0
  -27.7665   -0.6913  -52.7463 H   0  0  0  0  0  0  0  0  0  0  0  0
  -27.5547   -2.3423  -52.2148 H   0  0  0  0  0  0  0  0  0  0  0  0
  -30.2869   -1.1909  -50.5705 H   0  0  0  0  0  0  0  0  0  0  0  0
  -33.2937   -2.3801  -53.2487 H   0  0  0  0  0  0  0  0  0  0  0  0
  -31.6209   -2.7539  -54.9564 H   0  0  0  0  0  0  0  0  0  0  0  0
  -30.3021   -4.0525  -56.1112 H   0  0  0  0  0  0  0  0  0  0  0  0
  -29.2686   -3.2459  -57.2664 H   0  0  0  0  0  0  0  0  0  0  0  0
  -30.6229   -2.3952  -56.5626 H   0  0  0  0  0  0  0  0  0  0  0  0
  -34.0858   -4.4862  -48.2357 H   0  0  0  0  0  0  0  0  0  0  0  0
  -32.1781   -5.3671  -46.7611 H   0  0  0  0  0  0  0  0  0  0  0  0
  -31.2356   -5.7192  -48.0434 H   0  0  0  0  0  0  0  0  0  0  0  0
  -34.7574   -6.8610  -48.8310 H   0  0  0  0  0  0  0  0  0  0  0  0
  -33.5201   -7.0429  -49.8773 H   0  0  0  0  0  0  0  0  0  0  0  0
  -33.5332    2.4138  -53.5919 H   0  0  0  0  0  0  0  0  0  0  0  0
  1  2  1  0
  2 22  1  0
  2  3  2  0
  3  4  1  0
  3 33  1  0
  4  5  2  0
  4 34  1  0
  5  6  1  0
  6  7  1  0
  6 10  1  0
  7  8  2  0
  8 29  1  0
  8  9  1  0
  9  1  2  0
  9  5  1  0
 11 12  1  0
 11 35  1  0
 11 36  1  0
 11 37  1  0
 12 13  2  0
 13 14  1  0
 13 38  1  0
 14  1  1  0
 14 15  2  0
 15 16  1  0
 15 39  1  0
 16 17  2  0
 16 40  1  0
 17 18  1  0
 17 12  1  0
 18 19  1  0
 18 20  2  0
 18 21  2  0
 19 41  1  0
 19 42  1  0
 19 43  1  0
 22 23  2  0
 22 24  2  0
 22 25  1  0
 25 26  1  0
 25 44  1  0
 26 27  1  0
 26 45  1  0
 26 46  1  0
 27 28  1  0
 28 25  1  0
 28 47  1  0
 28 48  1  0
 29 30  1  0
 30 31  1  0
 30 32  1  0
 30 49  1  0
M  END
>  <minimizedAffinity>  (8) 
-4.73834

>  <mol_id>  (8) 
116220

>  <source_index>  (8) 
7

>  <layer>  (8) 
L2

>  <uniprot>  (8) 
P31153

>  <paff>  (8) 
7.8860999999999999

>  <smiles>  (8) 
Cc1cc(-c2c(S(=O)(=O)C3COC3)ccc3[nH]nc(OC(F)F)c23)ccc1S(C)(=O)=O

$$$$
L2:P31153:116245
     RDKit          3D

 40 44  0  0  0  0  0  0  0  0999 V2000
  -33.9345    4.0653  -43.6855 O   0  0  0  0  0  0  0  0  0  0  0  0
  -35.0532    4.5627  -43.8106 C   0  0  0  0  0  0  0  0  0  0  0  0
  -35.5241    5.1106  -45.0859 C   0  0  0  0  0  0  0  0  0  0  0  0
  -34.8368    5.1475  -46.2394 N   0  0  0  0  0  0  0  0  0  0  0  0
  -35.6869    5.7554  -47.1069 N   0  0  0  0  0  0  0  0  0  0  0  0
  -36.8890    6.0963  -46.5323 C   0  0  0  0  0  0  0  0  0  0  0  0
  -36.7981    5.6895  -45.2262 C   0  0  0  0  0  0  0  0  0  0  0  0
  -37.7429    5.7594  -44.1461 C   0  0  0  0  0  0  0  0  0  0  0  0
  -39.0238    6.2955  -44.3158 C   0  0  0  0  0  0  0  0  0  0  0  0
  -39.9114    6.2937  -43.2477 C   0  0  0  0  0  0  0  0  0  0  0  0
  -41.1356    6.8094  -43.4291 F   0  0  0  0  0  0  0  0  0  0  0  0
  -39.5410    5.7541  -42.0205 C   0  0  0  0  0  0  0  0  0  0  0  0
  -40.6520    5.7318  -40.7052 Cl  0  0  0  0  0  0  0  0  0  0  0  0
  -38.2608    5.2184  -41.8447 C   0  0  0  0  0  0  0  0  0  0  0  0
  -37.3240    5.2310  -42.8956 C   0  0  0  0  0  0  0  0  0  0  0  0
  -35.9852    4.6853  -42.7462 N   0  0  0  0  0  0  0  0  0  0  0  0
  -35.5547    4.2865  -41.4473 C   0  0  0  0  0  0  0  0  0  0  0  0
  -35.4486    5.2578  -40.4442 C   0  0  0  0  0  0  0  0  0  0  0  0
  -35.0185    4.8922  -39.1759 C   0  0  0  0  0  0  0  0  0  0  0  0
  -34.7141    3.5638  -38.9520 C   0  0  0  0  0  0  0  0  0  0  0  0
  -34.8269    2.5972  -39.8892 N   0  0  0  0  0  0  0  0  0  0  0  0
  -35.2772    2.9396  -41.1283 C   0  0  0  0  0  0  0  0  0  0  0  0
  -35.4749    1.8047  -42.1181 C   0  0  0  0  0  0  0  0  0  0  0  0
  -35.3903    0.3647  -41.6618 C   0  0  0  0  0  0  0  0  0  0  0  0
  -34.2950    0.9398  -42.5060 C   0  0  0  0  0  0  0  0  0  0  0  0
  -35.3032    5.9891  -48.4959 C   0  0  0  0  0  0  0  0  0  0  0  0
  -34.2797    6.8831  -48.5718 F   0  0  0  0  0  0  0  0  0  0  0  0
  -34.8550    4.8413  -49.0743 F   0  0  0  0  0  0  0  0  0  0  0  0
  -37.6903    6.5603  -46.9880 H   0  0  0  0  0  0  0  0  0  0  0  0
  -39.3068    6.6890  -45.2269 H   0  0  0  0  0  0  0  0  0  0  0  0
  -37.9999    4.8091  -40.9339 H   0  0  0  0  0  0  0  0  0  0  0  0
  -35.6890    6.2407  -40.6468 H   0  0  0  0  0  0  0  0  0  0  0  0
  -34.9289    5.5921  -38.4229 H   0  0  0  0  0  0  0  0  0  0  0  0
  -34.3808    3.2936  -38.0134 H   0  0  0  0  0  0  0  0  0  0  0  0
  -36.2018    2.3888  -42.6428 H   0  0  0  0  0  0  0  0  0  0  0  0
  -36.0545   -0.3660  -42.0739 H   0  0  0  0  0  0  0  0  0  0  0  0
  -35.4317   -0.1302  -40.7140 H   0  0  0  0  0  0  0  0  0  0  0  0
  -34.1781    0.6194  -43.5202 H   0  0  0  0  0  0  0  0  0  0  0  0
  -33.2328    1.0246  -42.4091 H   0  0  0  0  0  0  0  0  0  0  0  0
  -36.1739    6.3577  -48.9968 H   0  0  0  0  0  0  0  0  0  0  0  0
  1  2  2  0
  2  3  1  0
  3  4  2  0
  4  5  1  0
  5 26  1  0
  5  6  1  0
  6  7  2  0
  6 29  1  0
  7  8  1  0
  7  3  1  0
  8  9  2  0
  9 10  1  0
  9 30  1  0
 10 11  1  0
 10 12  2  0
 12 13  1  0
 12 14  1  0
 14 15  2  0
 14 31  1  0
 15 16  1  0
 15  8  1  0
 16 17  1  0
 16  2  1  0
 17 18  2  0
 18 19  1  0
 18 32  1  0
 19 20  2  0
 19 33  1  0
 20 21  1  0
 20 34  1  0
 21 22  2  0
 22 23  1  0
 22 17  1  0
 23 24  1  0
 23 35  1  0
 24 25  1  0
 24 36  1  0
 24 37  1  0
 25 23  1  0
 25 38  1  0
 25 39  1  0
 26 27  1  0
 26 28  1  0
 26 40  1  0
M  END
>  <minimizedAffinity>  (9) 
-9.63917

>  <mol_id>  (9) 
116245

>  <source_index>  (9) 
8

>  <layer>  (9) 
L2

>  <uniprot>  (9) 
P31153

>  <paff>  (9) 
7.7695999999999996

>  <smiles>  (9) 
O=c1c2nn(C(F)F)cc2c2cc(F)c(Cl)cc2n1-c1cccnc1C1CC1

$$$$
L2:P31153:135356
     RDKit          3D

 53 57  0  0  0  0  0  0  0  0999 V2000
  -34.6228   14.1620  -40.0163 C   0  0  0  0  0  0  0  0  0  0  0  0
  -34.1779   14.0435  -41.2986 C   0  0  0  0  0  0  0  0  0  0  0  0
  -32.7387   13.6291  -41.6126 C   0  0  0  0  0  0  0  0  0  0  0  0
  -32.3824   13.5910  -42.7932 O   0  0  0  0  0  0  0  0  0  0  0  0
  -31.9072   13.2780  -40.5349 N   0  0  0  0  0  0  0  0  0  0  0  0
  -32.4346   13.4131  -39.2607 C   0  0  0  0  0  0  0  0  0  0  0  0
  -31.8145   13.2622  -38.0513 N   0  0  0  0  0  0  0  0  0  0  0  0
  -32.6477   13.4098  -37.0015 N   0  0  0  0  0  0  0  0  0  0  0  0
  -33.8129   13.7386  -37.5729 C   0  0  0  0  0  0  0  0  0  0  0  0
  -33.7120   13.8176  -38.9706 C   0  0  0  0  0  0  0  0  0  0  0  0
  -30.8404   13.0542  -37.8630 H   0  0  0  0  0  0  0  0  0  0  0  0
  -30.5655   12.8174  -40.7161 C   0  0  0  0  0  0  0  0  0  0  0  0
  -29.4718   13.7590  -40.6426 C   0  0  0  0  0  0  0  0  0  0  0  0
  -28.1068   13.4246  -40.8221 C   0  0  0  0  0  0  0  0  0  0  0  0
  -27.8907   12.0614  -41.0656 C   0  0  0  0  0  0  0  0  0  0  0  0
  -26.7478   11.3907  -41.2819 N   0  0  0  0  0  0  0  0  0  0  0  0
  -27.1281   10.1042  -41.4357 N   0  0  0  0  0  0  0  0  0  0  0  0
  -26.1199    9.0987  -41.6716 C   0  0  0  0  0  0  0  0  0  0  0  0
  -28.4753    9.9000  -41.3462 C   0  0  0  0  0  0  0  0  0  0  0  0
  -28.9950   11.1413  -41.1067 C   0  0  0  0  0  0  0  0  0  0  0  0
  -30.3434   11.4349  -40.9339 C   0  0  0  0  0  0  0  0  0  0  0  0
  -35.0664   14.3540  -42.4395 C   0  0  0  0  0  0  0  0  0  0  0  0
  -35.1459   15.6582  -42.9405 C   0  0  0  0  0  0  0  0  0  0  0  0
  -35.9626   15.9381  -44.0385 C   0  0  0  0  0  0  0  0  0  0  0  0
  -36.7132   14.9280  -44.6455 C   0  0  0  0  0  0  0  0  0  0  0  0
  -36.6392   13.6279  -44.1449 C   0  0  0  0  0  0  0  0  0  0  0  0
  -35.8196   13.3423  -43.0467 C   0  0  0  0  0  0  0  0  0  0  0  0
  -37.4668   15.3385  -45.7102 O   0  0  0  0  0  0  0  0  0  0  0  0
  -38.2435   16.5163  -45.5314 C   0  0  0  0  0  0  0  0  0  0  0  0
  -35.9227   14.5695  -39.6730 N   0  0  0  0  0  0  0  0  0  0  0  0
  -36.6066   14.1984  -40.3340 H   0  0  0  0  0  0  0  0  0  0  0  0
  -37.4782   16.4126  -40.1545 C   0  0  0  0  0  0  0  0  0  0  0  0
  -36.2672   15.9573  -39.3561 C   0  0  0  0  0  0  0  0  0  0  0  0
  -34.6835   13.9135  -37.0471 H   0  0  0  0  0  0  0  0  0  0  0  0
  -29.7014   14.7456  -40.4452 H   0  0  0  0  0  0  0  0  0  0  0  0
  -27.3443   14.1186  -40.7778 H   0  0  0  0  0  0  0  0  0  0  0  0
  -25.1543    9.5593  -41.6899 H   0  0  0  0  0  0  0  0  0  0  0  0
  -26.3053    8.6213  -42.6111 H   0  0  0  0  0  0  0  0  0  0  0  0
  -26.1528    8.3701  -40.8887 H   0  0  0  0  0  0  0  0  0  0  0  0
  -28.9865    9.0083  -41.4387 H   0  0  0  0  0  0  0  0  0  0  0  0
  -31.0949   10.7281  -40.9611 H   0  0  0  0  0  0  0  0  0  0  0  0
  -34.6003   16.4143  -42.4981 H   0  0  0  0  0  0  0  0  0  0  0  0
  -36.0121   16.9014  -44.4054 H   0  0  0  0  0  0  0  0  0  0  0  0
  -37.1902   12.8747  -44.5855 H   0  0  0  0  0  0  0  0  0  0  0  0
  -35.7702   12.3782  -42.6818 H   0  0  0  0  0  0  0  0  0  0  0  0
  -38.7825   16.7281  -46.4311 H   0  0  0  0  0  0  0  0  0  0  0  0
  -37.5978   17.3377  -45.3007 H   0  0  0  0  0  0  0  0  0  0  0  0
  -38.9346   16.3692  -44.7279 H   0  0  0  0  0  0  0  0  0  0  0  0
  -37.7088   17.4273  -39.9053 H   0  0  0  0  0  0  0  0  0  0  0  0
  -38.3152   15.7887  -39.9199 H   0  0  0  0  0  0  0  0  0  0  0  0
  -37.2629   16.3423  -41.2003 H   0  0  0  0  0  0  0  0  0  0  0  0
  -36.4874   16.0337  -38.3118 H   0  0  0  0  0  0  0  0  0  0  0  0
  -35.4363   16.5819  -39.6100 H   0  0  0  0  0  0  0  0  0  0  0  0
  1  2  2  0
  2 22  1  0
  2  3  1  0
  3  4  2  0
  3  5  1  0
  5 12  1  0
  5  6  1  0
  6  7  1  0
  7  8  1  0
  7 11  1  0
  8  9  2  0
  9 10  1  0
  9 34  1  0
 10  1  1  0
 10  6  2  0
 12 13  1  0
 13 14  2  0
 13 35  1  0
 14 15  1  0
 14 36  1  0
 15 16  2  0
 16 17  1  0
 17 18  1  0
 17 19  1  0
 18 37  1  0
 18 38  1  0
 18 39  1  0
 19 20  2  0
 19 40  1  0
 20 21  1  0
 20 15  1  0
 21 12  2  0
 21 41  1  0
 22 23  2  0
 23 24  1  0
 23 42  1  0
 24 25  2  0
 24 43  1  0
 25 28  1  0
 25 26  1  0
 26 27  2  0
 26 44  1  0
 27 22  1  0
 27 45  1  0
 28 29  1  0
 29 46  1  0
 29 47  1  0
 29 48  1  0
 30  1  1  0
 30 31  1  0
 32 33  1  0
 32 49  1  0
 32 50  1  0
 32 51  1  0
 33 30  1  0
 33 52  1  0
 33 53  1  0
M  END
>  <minimizedAffinity>  (10) 
-5.42005

>  <mol_id>  (10) 
135356

>  <source_index>  (10) 
9

>  <layer>  (10) 
L2

>  <uniprot>  (10) 
P31153

>  <paff>  (10) 
7.7569999999999997

>  <smiles>  (10) 
CCNc1c(-c2ccc(OC)cc2)c(=O)n(-c2ccc3nn(C)cc3c2)c2[nH]ncc12

$$$$
