L2:P31153:17983
     RDKit          3D

 41 44  0  0  0  0  0  0  0  0999 V2000
  -29.3119   -6.1036  -43.1870 C   0  0  0  0  0  0  0  0  0  0  0  0
  -28.1238   -6.4108  -42.5042 C   0  0  0  0  0  0  0  0  0  0  0  0
  -27.0171   -6.9635  -43.0725 N   0  0  0  0  0  0  0  0  0  0  0  0
  -27.0269   -7.2598  -44.3884 C   0  0  0  0  0  0  0  0  0  0  0  0
  -28.1697   -6.9904  -45.1214 C   0  0  0  0  0  0  0  0  0  0  0  0
  -28.4511   -7.1857  -46.4461 N   0  0  0  0  0  0  0  0  0  0  0  0
  -29.6810   -6.7969  -46.8041 N   0  0  0  0  0  0  0  0  0  0  0  0
  -30.2152   -6.3557  -45.6628 C   0  0  0  0  0  0  0  0  0  0  0  0
  -29.3160   -6.4259  -44.5631 C   0  0  0  0  0  0  0  0  0  0  0  0
  -27.8474   -7.5782  -47.1603 H   0  0  0  0  0  0  0  0  0  0  0  0
  -31.7804   -2.0027  -41.7629 C   0  0  0  0  0  0  0  0  0  0  0  0
  -31.7229   -3.5061  -41.8309 C   0  0  0  0  0  0  0  0  0  0  0  0
  -30.5998   -4.1025  -42.4372 C   0  0  0  0  0  0  0  0  0  0  0  0
  -30.4810   -5.4960  -42.5530 C   0  0  0  0  0  0  0  0  0  0  0  0
  -31.5079   -6.2860  -42.0270 C   0  0  0  0  0  0  0  0  0  0  0  0
  -31.4344   -7.6222  -42.1210 F   0  0  0  0  0  0  0  0  0  0  0  0
  -32.6197   -5.7291  -41.4027 C   0  0  0  0  0  0  0  0  0  0  0  0
  -32.7271   -4.3398  -41.2951 C   0  0  0  0  0  0  0  0  0  0  0  0
  -34.1480   -3.6276  -40.4791 S   0  0  0  0  0  0  0  0  0  0  0  0
  -34.3640   -1.9880  -41.1109 C   0  0  0  0  0  0  0  0  0  0  0  0
  -35.3077   -4.3862  -40.9077 O   0  0  0  0  0  0  0  0  0  0  0  0
  -33.7912   -3.5194  -39.0780 O   0  0  0  0  0  0  0  0  0  0  0  0
  -31.6739   -5.8149  -45.6115 C   0  0  0  0  0  0  0  0  0  0  0  0
  -32.6543   -6.2419  -46.6766 C   0  0  0  0  0  0  0  0  0  0  0  0
  -32.8029   -6.7567  -45.2768 C   0  0  0  0  0  0  0  0  0  0  0  0
  -27.9820   -6.1287  -41.0978 C   0  0  0  0  0  0  0  0  0  0  0  0
  -27.8395   -5.8751  -39.9722 N   0  0  0  0  0  0  0  0  0  0  0  0
  -26.1988   -7.6790  -44.8397 H   0  0  0  0  0  0  0  0  0  0  0  0
  -30.9122   -1.5909  -42.2336 H   0  0  0  0  0  0  0  0  0  0  0  0
  -31.8119   -1.6929  -40.7392 H   0  0  0  0  0  0  0  0  0  0  0  0
  -32.6579   -1.6561  -42.2676 H   0  0  0  0  0  0  0  0  0  0  0  0
  -29.8466   -3.5004  -42.8049 H   0  0  0  0  0  0  0  0  0  0  0  0
  -33.3605   -6.3382  -41.0215 H   0  0  0  0  0  0  0  0  0  0  0  0
  -34.6287   -2.0368  -42.1465 H   0  0  0  0  0  0  0  0  0  0  0  0
  -33.4512   -1.4405  -41.0015 H   0  0  0  0  0  0  0  0  0  0  0  0
  -35.1426   -1.4957  -40.5665 H   0  0  0  0  0  0  0  0  0  0  0  0
  -31.3296   -4.8781  -45.2258 H   0  0  0  0  0  0  0  0  0  0  0  0
  -32.3406   -6.9017  -47.4583 H   0  0  0  0  0  0  0  0  0  0  0  0
  -33.2931   -5.7291  -47.3649 H   0  0  0  0  0  0  0  0  0  0  0  0
  -32.5955   -7.7839  -45.0604 H   0  0  0  0  0  0  0  0  0  0  0  0
  -33.5921   -6.7628  -44.5543 H   0  0  0  0  0  0  0  0  0  0  0  0
  1  2  2  0
  2 26  1  0
  2  3  1  0
  3  4  2  0
  4  5  1  0
  4 28  1  0
  5  6  1  0
  6  7  1  0
  6 10  1  0
  7  8  2  0
  8 23  1  0
  8  9  1  0
  9  1  1  0
  9  5  2  0
 11 12  1  0
 11 29  1  0
 11 30  1  0
 11 31  1  0
 12 13  2  0
 13 14  1  0
 13 32  1  0
 14  1  1  0
 14 15  2  0
 15 16  1  0
 15 17  1  0
 17 18  2  0
 17 33  1  0
 18 19  1  0
 18 12  1  0
 19 20  1  0
 19 21  2  0
 19 22  2  0
 20 34  1  0
 20 35  1  0
 20 36  1  0
 23 24  1  0
 23 37  1  0
 24 25  1  0
 24 38  1  0
 24 39  1  0
 25 23  1  0
 25 40  1  0
 25 41  1  0
 26 27  3  0
M  END
>  <minimizedAffinity>  (1) 
-7.73435

>  <mol_id>  (1) 
17983

>  <source_index>  (1) 
0

>  <layer>  (1) 
L2

>  <uniprot>  (1) 
P31153

>  <paff>  (1) 
7.7695999999999996

>  <smiles>  (1) 
Cc1cc(-c2c(C#N)ncc3[nH]nc(C4CC4)c23)c(F)cc1S(C)(=O)=O

$$$$
L2:P31153:23451
     RDKit          3D

 37 40  0  0  0  0  0  0  0  0999 V2000
  -32.0607   -6.8335  -46.7170 N   0  0  0  0  0  0  0  0  0  0  0  0
  -30.7931   -6.8323  -46.2007 C   0  0  0  0  0  0  0  0  0  0  0  0
  -30.9086   -6.2398  -44.9684 C   0  0  0  0  0  0  0  0  0  0  0  0
  -32.2680   -5.9204  -44.8168 C   0  0  0  0  0  0  0  0  0  0  0  0
  -32.9785   -6.2857  -45.8966 N   0  0  0  0  0  0  0  0  0  0  0  0
  -32.7873   -5.2537  -43.6204 C   0  0  0  0  0  0  0  0  0  0  0  0
  -33.9766   -4.9534  -43.5141 O   0  0  0  0  0  0  0  0  0  0  0  0
  -31.7964   -4.9489  -42.6367 N   0  0  0  0  0  0  0  0  0  0  0  0
  -30.3997   -5.3611  -42.7582 C   0  0  0  0  0  0  0  0  0  0  0  0
  -29.4793   -5.2297  -41.7018 C   0  0  0  0  0  0  0  0  0  0  0  0
  -28.1468   -5.6268  -41.8513 C   0  0  0  0  0  0  0  0  0  0  0  0
  -27.0486   -5.4322  -40.5400 Cl  0  0  0  0  0  0  0  0  0  0  0  0
  -27.6989   -6.1867  -43.0421 C   0  0  0  0  0  0  0  0  0  0  0  0
  -28.5964   -6.3786  -44.0889 C   0  0  0  0  0  0  0  0  0  0  0  0
  -29.9346   -5.9866  -43.9447 C   0  0  0  0  0  0  0  0  0  0  0  0
  -32.1914   -4.1590  -41.5089 C   0  0  0  0  0  0  0  0  0  0  0  0
  -32.4455   -4.7669  -40.2690 C   0  0  0  0  0  0  0  0  0  0  0  0
  -32.8575   -4.0087  -39.1682 C   0  0  0  0  0  0  0  0  0  0  0  0
  -33.0357   -2.6343  -39.2995 C   0  0  0  0  0  0  0  0  0  0  0  0
  -32.8108   -2.0335  -40.5312 C   0  0  0  0  0  0  0  0  0  0  0  0
  -32.9994   -0.7140  -40.6644 F   0  0  0  0  0  0  0  0  0  0  0  0
  -32.3993   -2.7777  -41.6330 C   0  0  0  0  0  0  0  0  0  0  0  0
  -33.4465   -6.4228  -48.7117 C   0  0  0  0  0  0  0  0  0  0  0  0
  -32.4702   -7.3492  -48.0095 C   0  0  0  0  0  0  0  0  0  0  0  0
  -29.9354   -7.1981  -46.6429 H   0  0  0  0  0  0  0  0  0  0  0  0
  -29.7929   -4.8337  -40.8019 H   0  0  0  0  0  0  0  0  0  0  0  0
  -26.7090   -6.4580  -43.1494 H   0  0  0  0  0  0  0  0  0  0  0  0
  -28.2767   -6.8092  -44.9706 H   0  0  0  0  0  0  0  0  0  0  0  0
  -32.3267   -5.7871  -40.1685 H   0  0  0  0  0  0  0  0  0  0  0  0
  -33.0292   -4.4675  -38.2599 H   0  0  0  0  0  0  0  0  0  0  0  0
  -33.3320   -2.0675  -38.4896 H   0  0  0  0  0  0  0  0  0  0  0  0
  -32.2471   -2.3128  -42.5417 H   0  0  0  0  0  0  0  0  0  0  0  0
  -33.7194   -6.8427  -49.6573 H   0  0  0  0  0  0  0  0  0  0  0  0
  -32.9862   -5.4691  -48.8645 H   0  0  0  0  0  0  0  0  0  0  0  0
  -34.3220   -6.3037  -48.1083 H   0  0  0  0  0  0  0  0  0  0  0  0
  -31.6026   -7.4663  -48.6247 H   0  0  0  0  0  0  0  0  0  0  0  0
  -32.9623   -8.2857  -47.8493 H   0  0  0  0  0  0  0  0  0  0  0  0
  1  2  1  0
  2  3  2  0
  2 25  1  0
  3  4  1  0
  4  5  2  0
  4  6  1  0
  5  1  1  0
  6  7  2  0
  6  8  1  0
  8 16  1  0
  8  9  1  0
  9 10  2  0
 10 11  1  0
 10 26  1  0
 11 12  1  0
 11 13  2  0
 13 14  1  0
 13 27  1  0
 14 15  2  0
 14 28  1  0
 15  9  1  0
 15  3  1  0
 16 17  2  0
 17 18  1  0
 17 29  1  0
 18 19  2  0
 18 30  1  0
 19 20  1  0
 19 31  1  0
 20 21  1  0
 20 22  2  0
 22 16  1  0
 22 32  1  0
 23 24  1  0
 23 33  1  0
 23 34  1  0
 23 35  1  0
 24  1  1  0
 24 36  1  0
 24 37  1  0
M  END
>  <minimizedAffinity>  (2) 
-10.90777

>  <mol_id>  (2) 
23451

>  <source_index>  (2) 
1

>  <layer>  (2) 
L2

>  <uniprot>  (2) 
P31153

>  <paff>  (2) 
6.9066000000000001

>  <smiles>  (2) 
CCn1cc2c(n1)c(=O)n(-c1cccc(F)c1)c1cc(Cl)ccc21

$$$$
L2:P31153:23669
     RDKit          3D

 49 53  0  0  0  0  0  0  0  0999 V2000
  -35.3196    3.1709  -51.3277 C   0  0  0  0  0  0  0  0  0  0  0  0
  -35.7691    2.1442  -52.0860 C   0  0  0  0  0  0  0  0  0  0  0  0
  -35.2266    0.7329  -51.8359 C   0  0  0  0  0  0  0  0  0  0  0  0
  -35.6116   -0.1805  -52.5704 O   0  0  0  0  0  0  0  0  0  0  0  0
  -34.2790    0.5594  -50.8039 N   0  0  0  0  0  0  0  0  0  0  0  0
  -33.9646    1.6696  -50.0321 C   0  0  0  0  0  0  0  0  0  0  0  0
  -33.2357    1.7502  -48.8773 N   0  0  0  0  0  0  0  0  0  0  0  0
  -33.1456    3.0071  -48.3904 N   0  0  0  0  0  0  0  0  0  0  0  0
  -33.9087    3.7262  -49.2228 C   0  0  0  0  0  0  0  0  0  0  0  0
  -34.4408    2.9344  -50.2466 C   0  0  0  0  0  0  0  0  0  0  0  0
  -32.7887    1.0023  -48.3581 H   0  0  0  0  0  0  0  0  0  0  0  0
  -33.6775   -0.7063  -50.5145 C   0  0  0  0  0  0  0  0  0  0  0  0
  -32.3533   -0.9970  -51.0155 C   0  0  0  0  0  0  0  0  0  0  0  0
  -31.6500   -2.2046  -50.7822 C   0  0  0  0  0  0  0  0  0  0  0  0
  -32.3686   -3.1333  -50.0174 C   0  0  0  0  0  0  0  0  0  0  0  0
  -32.0265   -4.3639  -49.6036 N   0  0  0  0  0  0  0  0  0  0  0  0
  -33.1025   -4.8079  -48.9188 N   0  0  0  0  0  0  0  0  0  0  0  0
  -33.0687   -6.1298  -48.3400 C   0  0  0  0  0  0  0  0  0  0  0  0
  -34.1353   -3.9172  -48.8530 C   0  0  0  0  0  0  0  0  0  0  0  0
  -33.6945   -2.8286  -49.5524 C   0  0  0  0  0  0  0  0  0  0  0  0
  -34.4133   -1.6567  -49.7640 C   0  0  0  0  0  0  0  0  0  0  0  0
  -36.7520    2.3713  -53.1702 C   0  0  0  0  0  0  0  0  0  0  0  0
  -36.3206    2.5718  -54.4893 C   0  0  0  0  0  0  0  0  0  0  0  0
  -37.2442    2.7918  -55.5162 C   0  0  0  0  0  0  0  0  0  0  0  0
  -38.6134    2.8139  -55.2360 C   0  0  0  0  0  0  0  0  0  0  0  0
  -39.0540    2.6123  -53.9250 C   0  0  0  0  0  0  0  0  0  0  0  0
  -38.1289    2.3902  -52.9000 C   0  0  0  0  0  0  0  0  0  0  0  0
  -39.5608    3.0414  -56.2876 C   0  0  0  0  0  0  0  0  0  0  0  0
  -40.3235    3.2265  -57.1426 N   0  0  0  0  0  0  0  0  0  0  0  0
  -35.7531    4.4756  -51.4639 O   0  0  0  0  0  0  0  0  0  0  0  0
  -35.6101    5.8984  -53.3740 C   0  0  0  0  0  0  0  0  0  0  0  0
  -34.8338    5.2518  -52.2425 C   0  0  0  0  0  0  0  0  0  0  0  0
  -34.0828    4.7384  -49.1220 H   0  0  0  0  0  0  0  0  0  0  0  0
  -31.8866   -0.2730  -51.5839 H   0  0  0  0  0  0  0  0  0  0  0  0
  -30.6991   -2.3833  -51.1413 H   0  0  0  0  0  0  0  0  0  0  0  0
  -32.1278   -6.5905  -48.5576 H   0  0  0  0  0  0  0  0  0  0  0  0
  -33.8592   -6.7206  -48.7536 H   0  0  0  0  0  0  0  0  0  0  0  0
  -33.1941   -6.0583  -47.2798 H   0  0  0  0  0  0  0  0  0  0  0  0
  -35.0449   -4.0387  -48.3810 H   0  0  0  0  0  0  0  0  0  0  0  0
  -35.3714   -1.4978  -49.4149 H   0  0  0  0  0  0  0  0  0  0  0  0
  -35.3114    2.5569  -54.7045 H   0  0  0  0  0  0  0  0  0  0  0  0
  -36.9141    2.9381  -56.4830 H   0  0  0  0  0  0  0  0  0  0  0  0
  -40.0639    2.6274  -53.7130 H   0  0  0  0  0  0  0  0  0  0  0  0
  -38.4622    2.2387  -51.9351 H   0  0  0  0  0  0  0  0  0  0  0  0
  -34.9454    6.4856  -53.9726 H   0  0  0  0  0  0  0  0  0  0  0  0
  -36.3745    6.5275  -52.9682 H   0  0  0  0  0  0  0  0  0  0  0  0
  -36.0579    5.1382  -53.9794 H   0  0  0  0  0  0  0  0  0  0  0  0
  -34.3866    6.0070  -51.6305 H   0  0  0  0  0  0  0  0  0  0  0  0
  -34.0570    4.6280  -52.6327 H   0  0  0  0  0  0  0  0  0  0  0  0
  1  2  2  0
  2 22  1  0
  2  3  1  0
  3  4  2  0
  3  5  1  0
  5 12  1  0
  5  6  1  0
  6  7  1  0
  7  8  1  0
  7 11  1  0
  8  9  2  0
  9 10  1  0
  9 33  1  0
 10  1  1  0
 10  6  2  0
 12 13  1  0
 13 14  2  0
 13 34  1  0
 14 15  1  0
 14 35  1  0
 15 16  2  0
 16 17  1  0
 17 18  1  0
 17 19  1  0
 18 36  1  0
 18 37  1  0
 18 38  1  0
 19 20  2  0
 19 39  1  0
 20 21  1  0
 20 15  1  0
 21 12  2  0
 21 40  1  0
 22 23  2  0
 23 24  1  0
 23 41  1  0
 24 25  2  0
 24 42  1  0
 25 28  1  0
 25 26  1  0
 26 27  2  0
 26 43  1  0
 27 22  1  0
 27 44  1  0
 28 29  3  0
 30  1  1  0
 31 32  1  0
 31 45  1  0
 31 46  1  0
 31 47  1  0
 32 30  1  0
 32 48  1  0
 32 49  1  0
M  END
>  <minimizedAffinity>  (3) 
-6.59331

>  <mol_id>  (3) 
23669

>  <source_index>  (3) 
2

>  <layer>  (3) 
L2

>  <uniprot>  (3) 
P31153

>  <paff>  (3) 
7.7958999999999996

>  <smiles>  (3) 
CCOc1c(-c2ccc(C#N)cc2)c(=O)n(-c2ccc3nn(C)cc3c2)c2[nH]ncc12

$$$$
L2:P31153:34605
     RDKit          3D

 51 54  0  0  0  0  0  0  0  0999 V2000
  -36.4508    5.6166  -46.5843 C   0  0  0  0  0  0  0  0  0  0  0  0
  -37.5996    6.2288  -46.5668 N   0  0  0  0  0  0  0  0  0  0  0  0
  -38.2478    6.3889  -45.3385 C   0  0  0  0  0  0  0  0  0  0  0  0
  -39.4976    6.9689  -45.2871 C   0  0  0  0  0  0  0  0  0  0  0  0
  -40.2254    7.1127  -44.1620 N   0  0  0  0  0  0  0  0  0  0  0  0
  -39.6848    6.6398  -43.0405 C   0  0  0  0  0  0  0  0  0  0  0  0
  -38.4784    6.0669  -42.9802 N   0  0  0  0  0  0  0  0  0  0  0  0
  -37.7535    5.9593  -44.1188 C   0  0  0  0  0  0  0  0  0  0  0  0
  -36.4647    5.3424  -44.1037 N   0  0  0  0  0  0  0  0  0  0  0  0
  -35.7574    5.1552  -45.2974 C   0  0  0  0  0  0  0  0  0  0  0  0
  -34.6159    4.7138  -45.3847 O   0  0  0  0  0  0  0  0  0  0  0  0
  -34.5615    5.0821  -50.4177 C   0  0  0  0  0  0  0  0  0  0  0  0
  -34.2191    6.1552  -49.5963 C   0  0  0  0  0  0  0  0  0  0  0  0
  -34.8382    6.3112  -48.3500 C   0  0  0  0  0  0  0  0  0  0  0  0
  -35.7981    5.3900  -47.9080 C   0  0  0  0  0  0  0  0  0  0  0  0
  -36.1517    4.3253  -48.7400 C   0  0  0  0  0  0  0  0  0  0  0  0
  -35.5299    4.1735  -49.9838 C   0  0  0  0  0  0  0  0  0  0  0  0
  -34.1126    3.4672  -52.1038 C   0  0  0  0  0  0  0  0  0  0  0  0
  -34.0384    4.8134  -51.6517 O   0  0  0  0  0  0  0  0  0  0  0  0
  -35.8980    4.9306  -42.8502 C   0  0  0  0  0  0  0  0  0  0  0  0
  -36.0671    5.6769  -41.6744 C   0  0  0  0  0  0  0  0  0  0  0  0
  -35.4964    5.2629  -40.4675 C   0  0  0  0  0  0  0  0  0  0  0  0
  -34.7312    4.0990  -40.4136 C   0  0  0  0  0  0  0  0  0  0  0  0
  -34.5229    3.3549  -41.5725 C   0  0  0  0  0  0  0  0  0  0  0  0
  -35.1102    3.7699  -42.7749 C   0  0  0  0  0  0  0  0  0  0  0  0
  -33.8037    2.1946  -41.6544 O   0  0  0  0  0  0  0  0  0  0  0  0
  -34.5370    1.0323  -42.0021 C   0  0  0  0  0  0  0  0  0  0  0  0
  -33.7292    0.1842  -42.6858 F   0  0  0  0  0  0  0  0  0  0  0  0
  -34.8685    0.4017  -40.8467 F   0  0  0  0  0  0  0  0  0  0  0  0
  -40.4354    6.7615  -41.9098 N   0  0  0  0  0  0  0  0  0  0  0  0
  -41.2623    7.3372  -41.9890 H   0  0  0  0  0  0  0  0  0  0  0  0
  -40.1504    5.9686  -40.7210 C   0  0  0  0  0  0  0  0  0  0  0  0
  -40.5802    4.5044  -40.8394 C   0  0  0  0  0  0  0  0  0  0  0  0
  -40.7995    3.9638  -39.6191 F   0  0  0  0  0  0  0  0  0  0  0  0
  -41.7234    4.3794  -41.5515 F   0  0  0  0  0  0  0  0  0  0  0  0
  -39.6329    3.7589  -41.4531 F   0  0  0  0  0  0  0  0  0  0  0  0
  -39.9033    7.3165  -46.1701 H   0  0  0  0  0  0  0  0  0  0  0  0
  -33.5083    6.8357  -49.9072 H   0  0  0  0  0  0  0  0  0  0  0  0
  -34.5853    7.1124  -47.7508 H   0  0  0  0  0  0  0  0  0  0  0  0
  -36.8716    3.6507  -48.4372 H   0  0  0  0  0  0  0  0  0  0  0  0
  -35.7901    3.3793  -50.5893 H   0  0  0  0  0  0  0  0  0  0  0  0
  -33.6714    3.3925  -53.0757 H   0  0  0  0  0  0  0  0  0  0  0  0
  -35.1374    3.1635  -52.1530 H   0  0  0  0  0  0  0  0  0  0  0  0
  -33.5848    2.8327  -51.4228 H   0  0  0  0  0  0  0  0  0  0  0  0
  -36.6223    6.5464  -41.7010 H   0  0  0  0  0  0  0  0  0  0  0  0
  -35.6423    5.8216  -39.6122 H   0  0  0  0  0  0  0  0  0  0  0  0
  -34.3207    3.7899  -39.5187 H   0  0  0  0  0  0  0  0  0  0  0  0
  -34.9602    3.2082  -43.6276 H   0  0  0  0  0  0  0  0  0  0  0  0
  -35.3933    1.2984  -42.5860 H   0  0  0  0  0  0  0  0  0  0  0  0
  -40.6662    6.4059  -39.8918 H   0  0  0  0  0  0  0  0  0  0  0  0
  -39.0885    5.9728  -40.5900 H   0  0  0  0  0  0  0  0  0  0  0  0
  1  2  2  0
  2  3  1  0
  3  4  2  0
  4  5  1  0
  4 37  1  0
  5  6  2  0
  6 30  1  0
  6  7  1  0
  7  8  2  0
  8  9  1  0
  8  3  1  0
  9 20  1  0
  9 10  1  0
 10 11  2  0
 10  1  1  0
 12 13  2  0
 13 14  1  0
 13 38  1  0
 14 15  2  0
 14 39  1  0
 15  1  1  0
 15 16  1  0
 16 17  2  0
 16 40  1  0
 17 12  1  0
 17 41  1  0
 18 19  1  0
 18 42  1  0
 18 43  1  0
 18 44  1  0
 19 12  1  0
 20 21  2  0
 21 22  1  0
 21 45  1  0
 22 23  2  0
 22 46  1  0
 23 24  1  0
 23 47  1  0
 24 26  1  0
 24 25  2  0
 25 20  1  0
 25 48  1  0
 26 27  1  0
 27 28  1  0
 27 29  1  0
 27 49  1  0
 30 32  1  0
 30 31  1  0
 32 33  1  0
 32 50  1  0
 32 51  1  0
 33 34  1  0
 33 35  1  0
 33 36  1  0
M  END
>  <minimizedAffinity>  (4) 
-9.19149

>  <mol_id>  (4) 
34605

>  <source_index>  (4) 
3

>  <layer>  (4) 
L2

>  <uniprot>  (4) 
P31153

>  <paff>  (4) 
6

>  <smiles>  (4) 
COc1ccc(-c2nc3cnc(NCC(F)(F)F)nc3n(-c3cccc(OC(F)F)c3)c2=O)cc1

$$$$
L2:P31153:41758
     RDKit          3D

 43 45  0  0  0  0  0  0  0  0999 V2000
  -34.4394    0.7074  -51.6516 C   0  0  0  0  0  0  0  0  0  0  0  0
  -33.7747    1.0851  -50.5391 C   0  0  0  0  0  0  0  0  0  0  0  0
  -32.7272    0.3732  -49.9882 N   0  0  0  0  0  0  0  0  0  0  0  0
  -34.2100    2.3314  -49.8478 C   0  0  0  0  0  0  0  0  0  0  0  0
  -33.5226    2.8252  -48.7183 C   0  0  0  0  0  0  0  0  0  0  0  0
  -33.9634    3.9520  -48.0208 C   0  0  0  0  0  0  0  0  0  0  0  0
  -35.1190    4.6151  -48.4236 C   0  0  0  0  0  0  0  0  0  0  0  0
  -35.7870    4.1569  -49.5696 C   0  0  0  0  0  0  0  0  0  0  0  0
  -35.3253    3.0521  -50.3197 C   0  0  0  0  0  0  0  0  0  0  0  0
  -35.9882    2.6117  -51.5101 N   0  0  0  0  0  0  0  0  0  0  0  0
  -35.6281    1.4344  -52.1650 C   0  0  0  0  0  0  0  0  0  0  0  0
  -36.2417    0.9774  -53.1316 O   0  0  0  0  0  0  0  0  0  0  0  0
  -32.5106   -0.5431  -50.3872 H   0  0  0  0  0  0  0  0  0  0  0  0
  -32.4560    0.5025  -49.0238 H   0  0  0  0  0  0  0  0  0  0  0  0
  -37.0230    3.4172  -52.0844 C   0  0  0  0  0  0  0  0  0  0  0  0
  -36.7042    4.4454  -52.9785 C   0  0  0  0  0  0  0  0  0  0  0  0
  -37.7132    5.2473  -53.5230 C   0  0  0  0  0  0  0  0  0  0  0  0
  -39.0523    5.0539  -53.1726 C   0  0  0  0  0  0  0  0  0  0  0  0
  -39.3783    4.0529  -52.2620 C   0  0  0  0  0  0  0  0  0  0  0  0
  -38.3691    3.2536  -51.7227 C   0  0  0  0  0  0  0  0  0  0  0  0
  -38.7196    2.3244  -50.8192 F   0  0  0  0  0  0  0  0  0  0  0  0
  -39.9313    5.9059  -53.7806 O   0  0  0  0  0  0  0  0  0  0  0  0
  -40.5996    6.8458  -52.9476 C   0  0  0  0  0  0  0  0  0  0  0  0
  -35.6198    5.8275  -47.6780 C   0  0  0  0  0  0  0  0  0  0  0  0
  -34.9765    6.9735  -48.0359 F   0  0  0  0  0  0  0  0  0  0  0  0
  -35.4587    5.7109  -46.3321 F   0  0  0  0  0  0  0  0  0  0  0  0
  -36.9455    6.0685  -47.8783 F   0  0  0  0  0  0  0  0  0  0  0  0
  -33.9559   -0.4874  -52.3819 C   0  0  0  0  0  0  0  0  0  0  0  0
  -33.3051   -0.4446  -53.4193 O   0  0  0  0  0  0  0  0  0  0  0  0
  -35.0049   -2.5536  -52.6997 C   0  0  0  0  0  0  0  0  0  0  0  0
  -34.4240   -1.6174  -51.7932 O   0  0  0  0  0  0  0  0  0  0  0  0
  -32.6698    2.3397  -48.3987 H   0  0  0  0  0  0  0  0  0  0  0  0
  -33.4313    4.2936  -47.2052 H   0  0  0  0  0  0  0  0  0  0  0  0
  -36.6445    4.6434  -49.8748 H   0  0  0  0  0  0  0  0  0  0  0  0
  -35.7195    4.6131  -53.2377 H   0  0  0  0  0  0  0  0  0  0  0  0
  -37.4651    5.9921  -54.1928 H   0  0  0  0  0  0  0  0  0  0  0  0
  -40.3615    3.9024  -51.9869 H   0  0  0  0  0  0  0  0  0  0  0  0
  -41.2539    7.4479  -53.5428 H   0  0  0  0  0  0  0  0  0  0  0  0
  -39.8779    7.4722  -52.4662 H   0  0  0  0  0  0  0  0  0  0  0  0
  -41.1696    6.3243  -52.2073 H   0  0  0  0  0  0  0  0  0  0  0  0
  -35.3465   -3.4104  -52.1573 H   0  0  0  0  0  0  0  0  0  0  0  0
  -34.2723   -2.8555  -53.4188 H   0  0  0  0  0  0  0  0  0  0  0  0
  -35.8315   -2.0971  -53.2028 H   0  0  0  0  0  0  0  0  0  0  0  0
  1  2  2  0
  2  3  1  0
  2  4  1  0
  3 13  1  0
  3 14  1  0
  4  5  2  0
  5  6  1  0
  5 32  1  0
  6  7  2  0
  6 33  1  0
  7 24  1  0
  7  8  1  0
  8  9  2  0
  8 34  1  0
  9 10  1  0
  9  4  1  0
 10 15  1  0
 10 11  1  0
 11 12  2  0
 11  1  1  0
 15 16  2  0
 16 17  1  0
 16 35  1  0
 17 18  2  0
 17 36  1  0
 18 22  1  0
 18 19  1  0
 19 20  2  0
 19 37  1  0
 20 21  1  0
 20 15  1  0
 22 23  1  0
 23 38  1  0
 23 39  1  0
 23 40  1  0
 24 25  1  0
 24 26  1  0
 24 27  1  0
 28 29  2  0
 28  1  1  0
 30 31  1  0
 30 41  1  0
 30 42  1  0
 30 43  1  0
 31 28  1  0
M  END
>  <minimizedAffinity>  (5) 
-6.65069

>  <mol_id>  (5) 
41758

>  <source_index>  (5) 
4

>  <layer>  (5) 
L2

>  <uniprot>  (5) 
P31153

>  <paff>  (5) 
8.0022000000000002

>  <smiles>  (5) 
COC(=O)c1c(N)c2ccc(C(F)(F)F)cc2n(-c2ccc(OC)cc2F)c1=O

$$$$
L2:P31153:87187
     RDKit          3D

 46 48  0  0  0  0  0  0  0  0999 V2000
  -36.6088    6.0951  -46.2966 C   0  0  0  0  0  0  0  0  0  0  0  0
  -37.9088    6.4258  -46.1491 C   0  0  0  0  0  0  0  0  0  0  0  0
  -38.7097    6.9082  -47.1653 N   0  0  0  0  0  0  0  0  0  0  0  0
  -38.5166    6.2862  -44.7983 C   0  0  0  0  0  0  0  0  0  0  0  0
  -39.7890    6.8260  -44.5111 C   0  0  0  0  0  0  0  0  0  0  0  0
  -40.3494    6.7534  -43.2343 C   0  0  0  0  0  0  0  0  0  0  0  0
  -39.6402    6.1612  -42.1930 C   0  0  0  0  0  0  0  0  0  0  0  0
  -38.3612    5.6489  -42.4618 C   0  0  0  0  0  0  0  0  0  0  0  0
  -37.7965    5.6702  -43.7571 C   0  0  0  0  0  0  0  0  0  0  0  0
  -36.4801    5.1690  -44.0185 N   0  0  0  0  0  0  0  0  0  0  0  0
  -35.8270    5.4162  -45.2297 C   0  0  0  0  0  0  0  0  0  0  0  0
  -34.6857    5.0264  -45.4857 O   0  0  0  0  0  0  0  0  0  0  0  0
  -38.3225    6.9133  -48.1123 H   0  0  0  0  0  0  0  0  0  0  0  0
  -39.7162    6.8302  -47.1069 H   0  0  0  0  0  0  0  0  0  0  0  0
  -35.8250    4.3579  -43.0352 C   0  0  0  0  0  0  0  0  0  0  0  0
  -34.4439    4.4613  -42.8314 C   0  0  0  0  0  0  0  0  0  0  0  0
  -33.7983    3.6572  -41.8867 C   0  0  0  0  0  0  0  0  0  0  0  0
  -34.5159    2.7170  -41.1338 C   0  0  0  0  0  0  0  0  0  0  0  0
  -35.8931    2.5925  -41.3548 C   0  0  0  0  0  0  0  0  0  0  0  0
  -36.5381    3.3983  -42.2994 C   0  0  0  0  0  0  0  0  0  0  0  0
  -33.8209    1.8375  -40.1170 C   0  0  1  0  0  0  0  0  0  0  0  0
  -34.7910    0.9528  -39.3458 C   0  0  0  0  0  0  0  0  0  0  0  0
  -32.8566    1.0083  -40.7634 O   0  0  0  0  0  0  0  0  0  0  0  0
  -32.5139    1.5052  -41.5259 H   0  0  0  0  0  0  0  0  0  0  0  0
  -40.1986    6.1193  -40.7918 C   0  0  0  0  0  0  0  0  0  0  0  0
  -41.4026    5.4886  -40.7338 F   0  0  0  0  0  0  0  0  0  0  0  0
  -40.3981    7.3608  -40.2683 F   0  0  0  0  0  0  0  0  0  0  0  0
  -39.3897    5.4697  -39.9097 F   0  0  0  0  0  0  0  0  0  0  0  0
  -35.9628    6.3632  -47.6023 C   0  0  0  0  0  0  0  0  0  0  0  0
  -35.3660    7.3970  -47.8787 O   0  0  0  0  0  0  0  0  0  0  0  0
  -34.8093    4.9028  -49.0184 C   0  0  0  0  0  0  0  0  0  0  0  0
  -36.0410    5.2632  -48.3945 O   0  0  0  0  0  0  0  0  0  0  0  0
  -40.3200    7.2873  -45.2662 H   0  0  0  0  0  0  0  0  0  0  0  0
  -41.2909    7.1394  -43.0622 H   0  0  0  0  0  0  0  0  0  0  0  0
  -37.8143    5.2426  -41.6866 H   0  0  0  0  0  0  0  0  0  0  0  0
  -33.8959    5.1386  -43.3846 H   0  0  0  0  0  0  0  0  0  0  0  0
  -32.7814    3.7571  -41.7420 H   0  0  0  0  0  0  0  0  0  0  0  0
  -36.4370    1.9003  -40.8162 H   0  0  0  0  0  0  0  0  0  0  0  0
  -37.5517    3.2857  -42.4573 H   0  0  0  0  0  0  0  0  0  0  0  0
  -33.3459    2.4940  -39.4182 H   0  0  0  0  0  0  0  0  0  0  0  0
  -35.2805    0.2850  -40.0235 H   0  0  0  0  0  0  0  0  0  0  0  0
  -35.5210    1.5645  -38.8582 H   0  0  0  0  0  0  0  0  0  0  0  0
  -34.2532    0.3872  -38.6138 H   0  0  0  0  0  0  0  0  0  0  0  0
  -34.9565    4.0312  -49.6214 H   0  0  0  0  0  0  0  0  0  0  0  0
  -34.0758    4.6970  -48.2671 H   0  0  0  0  0  0  0  0  0  0  0  0
  -34.4720    5.7100  -49.6345 H   0  0  0  0  0  0  0  0  0  0  0  0
  1  2  2  0
  2  3  1  0
  2  4  1  0
  3 13  1  0
  3 14  1  0
  4  5  2  0
  5  6  1  0
  5 33  1  0
  6  7  2  0
  6 34  1  0
  7 25  1  0
  7  8  1  0
  8  9  2  0
  8 35  1  0
  9 10  1  0
  9  4  1  0
 10 15  1  0
 10 11  1  0
 11 12  2  0
 11  1  1  0
 15 16  2  0
 16 17  1  0
 16 36  1  0
 17 18  2  0
 17 37  1  0
 18 21  1  0
 18 19  1  0
 19 20  2  0
 19 38  1  0
 20 15  1  0
 20 39  1  0
 21 22  1  0
 21 23  1  0
 21 40  1  1
 22 41  1  0
 22 42  1  0
 22 43  1  0
 23 24  1  0
 25 26  1  0
 25 27  1  0
 25 28  1  0
 29 30  2  0
 29  1  1  0
 31 32  1  0
 31 44  1  0
 31 45  1  0
 31 46  1  0
 32 29  1  0
M  END
>  <minimizedAffinity>  (6) 
-10.35707

>  <mol_id>  (6) 
87187

>  <source_index>  (6) 
5

>  <layer>  (6) 
L2

>  <uniprot>  (6) 
P31153

>  <paff>  (6) 
9.1079000000000008

>  <smiles>  (6) 
COC(=O)c1c(N)c2ccc(C(F)(F)F)cc2n(-c2ccc([C@@H](C)O)cc2)c1=O

$$$$
L2:P31153:92789
     RDKit          3D

 52 56  0  0  0  0  0  0  0  0999 V2000
  -36.3640    0.0229  -51.6556 O   0  0  0  0  0  0  0  0  0  0  0  0
  -35.7438    0.8071  -50.9440 C   0  0  0  0  0  0  0  0  0  0  0  0
  -34.6033    0.2510  -50.0830 C   0  0  0  0  0  0  0  0  0  0  0  0
  -33.8329    1.0249  -49.3749 N   0  0  0  0  0  0  0  0  0  0  0  0
  -34.1095    2.3949  -49.3502 C   0  0  0  0  0  0  0  0  0  0  0  0
  -33.3742    3.2329  -48.5392 C   0  0  0  0  0  0  0  0  0  0  0  0
  -33.6059    4.5529  -48.3976 N   0  0  0  0  0  0  0  0  0  0  0  0
  -34.6242    5.0556  -49.0934 C   0  0  0  0  0  0  0  0  0  0  0  0
  -35.3875    4.3355  -49.9217 N   0  0  0  0  0  0  0  0  0  0  0  0
  -35.1258    3.0127  -50.0590 C   0  0  0  0  0  0  0  0  0  0  0  0
  -35.9443    2.1914  -50.8957 N   0  0  0  0  0  0  0  0  0  0  0  0
  -34.3331   -1.2176  -50.0600 C   0  0  0  0  0  0  0  0  0  0  0  0
  -34.5115   -1.9114  -48.8415 C   0  0  0  0  0  0  0  0  0  0  0  0
  -34.3019   -3.2914  -48.7645 C   0  0  0  0  0  0  0  0  0  0  0  0
  -33.9164   -3.9483  -49.9129 C   0  0  0  0  0  0  0  0  0  0  0  0
  -33.7548   -3.2844  -51.1185 C   0  0  0  0  0  0  0  0  0  0  0  0
  -33.9703   -1.9194  -51.2186 C   0  0  0  0  0  0  0  0  0  0  0  0
  -33.4191   -4.2673  -52.1730 C   0  0  0  0  0  0  0  0  0  0  0  0
  -33.0531   -5.4574  -51.2847 C   0  0  0  0  0  0  0  0  0  0  0  0
  -33.6839   -5.2961  -49.9917 O   0  0  0  0  0  0  0  0  0  0  0  0
  -36.9758    2.8051  -51.6801 C   0  0  0  0  0  0  0  0  0  0  0  0
  -38.2625    2.9829  -51.1547 C   0  0  0  0  0  0  0  0  0  0  0  0
  -39.2767    3.5770  -51.9153 C   0  0  0  0  0  0  0  0  0  0  0  0
  -39.0391    3.9891  -53.2264 C   0  0  0  0  0  0  0  0  0  0  0  0
  -37.7700    3.8072  -53.7692 C   0  0  0  0  0  0  0  0  0  0  0  0
  -36.7559    3.2132  -53.0043 C   0  0  0  0  0  0  0  0  0  0  0  0
  -40.1123    4.5557  -53.8521 O   0  0  0  0  0  0  0  0  0  0  0  0
  -41.3299    4.5806  -53.1275 C   0  0  0  0  0  0  0  0  0  0  0  0
  -42.3276    4.1067  -53.9142 F   0  0  0  0  0  0  0  0  0  0  0  0
  -41.6228    5.8815  -52.8735 F   0  0  0  0  0  0  0  0  0  0  0  0
  -34.8793    6.3839  -48.9050 N   0  0  0  0  0  0  0  0  0  0  0  0
  -35.0784    6.8982  -49.7514 H   0  0  0  0  0  0  0  0  0  0  0  0
  -35.2438    6.9095  -47.5957 C   0  0  0  0  0  0  0  0  0  0  0  0
  -36.3897    6.1601  -46.9052 C   0  0  0  0  0  0  0  0  0  0  0  0
  -35.9174    5.1335  -46.1581 F   0  0  0  0  0  0  0  0  0  0  0  0
  -37.2321    5.6299  -47.8243 F   0  0  0  0  0  0  0  0  0  0  0  0
  -37.1272    6.9492  -46.0954 F   0  0  0  0  0  0  0  0  0  0  0  0
  -32.5934    2.8215  -48.0043 H   0  0  0  0  0  0  0  0  0  0  0  0
  -34.8003   -1.3924  -47.9976 H   0  0  0  0  0  0  0  0  0  0  0  0
  -34.4316   -3.8014  -47.8768 H   0  0  0  0  0  0  0  0  0  0  0  0
  -33.8665   -1.4319  -52.1222 H   0  0  0  0  0  0  0  0  0  0  0  0
  -32.5934   -3.9457  -52.7728 H   0  0  0  0  0  0  0  0  0  0  0  0
  -34.1894   -4.4505  -52.8927 H   0  0  0  0  0  0  0  0  0  0  0  0
  -31.9910   -5.4997  -51.1623 H   0  0  0  0  0  0  0  0  0  0  0  0
  -33.3920   -6.3644  -51.7401 H   0  0  0  0  0  0  0  0  0  0  0  0
  -38.4657    2.6711  -50.1922 H   0  0  0  0  0  0  0  0  0  0  0  0
  -40.2120    3.7117  -51.5005 H   0  0  0  0  0  0  0  0  0  0  0  0
  -37.5752    4.1101  -54.7363 H   0  0  0  0  0  0  0  0  0  0  0  0
  -35.8245    3.0727  -53.4260 H   0  0  0  0  0  0  0  0  0  0  0  0
  -41.2388    3.9972  -52.2352 H   0  0  0  0  0  0  0  0  0  0  0  0
  -35.5375    7.9314  -47.7159 H   0  0  0  0  0  0  0  0  0  0  0  0
  -34.3834    6.7917  -46.9706 H   0  0  0  0  0  0  0  0  0  0  0  0
  1  2  2  0
  2  3  1  0
  3 12  1  0
  3  4  2  0
  4  5  1  0
  5  6  2  0
  6  7  1  0
  6 38  1  0
  7  8  2  0
  8 31  1  0
  8  9  1  0
  9 10  2  0
 10 11  1  0
 10  5  1  0
 11 21  1  0
 11  2  1  0
 12 13  2  0
 13 14  1  0
 13 39  1  0
 14 15  2  0
 14 40  1  0
 15 16  1  0
 16 17  2  0
 16 18  1  0
 17 12  1  0
 17 41  1  0
 18 19  1  0
 18 42  1  0
 18 43  1  0
 19 20  1  0
 19 44  1  0
 19 45  1  0
 20 15  1  0
 21 22  2  0
 22 23  1  0
 22 46  1  0
 23 24  2  0
 23 47  1  0
 24 27  1  0
 24 25  1  0
 25 26  2  0
 25 48  1  0
 26 21  1  0
 26 49  1  0
 27 28  1  0
 28 29  1  0
 28 30  1  0
 28 50  1  0
 31 33  1  0
 31 32  1  0
 33 34  1  0
 33 51  1  0
 33 52  1  0
 34 35  1  0
 34 36  1  0
 34 37  1  0
M  END
>  <minimizedAffinity>  (7) 
-8.81308

>  <mol_id>  (7) 
92789

>  <source_index>  (7) 
6

>  <layer>  (7) 
L2

>  <uniprot>  (7) 
P31153

>  <paff>  (7) 
7.0506000000000002

>  <smiles>  (7) 
O=c1c(-c2ccc3c(c2)CCO3)nc2cnc(NCC(F)(F)F)nc2n1-c1ccc(OC(F)F)cc1

$$$$
L2:P31153:116220
     RDKit          3D

 49 52  0  0  0  0  0  0  0  0999 V2000
  -37.5049    6.0651  -44.9555 C   0  0  0  0  0  0  0  0  0  0  0  0
  -37.2116    6.2047  -46.3337 C   0  0  0  0  0  0  0  0  0  0  0  0
  -38.1671    6.6840  -47.2417 C   0  0  0  0  0  0  0  0  0  0  0  0
  -39.4461    7.0533  -46.8146 C   0  0  0  0  0  0  0  0  0  0  0  0
  -39.7276    6.9183  -45.4545 C   0  0  0  0  0  0  0  0  0  0  0  0
  -40.8685    7.1824  -44.7388 N   0  0  0  0  0  0  0  0  0  0  0  0
  -40.7745    6.9005  -43.4276 N   0  0  0  0  0  0  0  0  0  0  0  0
  -39.5190    6.4703  -43.3018 C   0  0  0  0  0  0  0  0  0  0  0  0
  -38.8054    6.4392  -44.5278 C   0  0  0  0  0  0  0  0  0  0  0  0
  -41.7479    7.5451  -45.0910 H   0  0  0  0  0  0  0  0  0  0  0  0
  -36.5816    2.8741  -41.2385 C   0  0  0  0  0  0  0  0  0  0  0  0
  -36.0679    3.9669  -42.1333 C   0  0  0  0  0  0  0  0  0  0  0  0
  -36.9547    4.5138  -43.0812 C   0  0  0  0  0  0  0  0  0  0  0  0
  -36.5767    5.5600  -43.9403 C   0  0  0  0  0  0  0  0  0  0  0  0
  -35.2836    6.0809  -43.8279 C   0  0  0  0  0  0  0  0  0  0  0  0
  -34.3889    5.5636  -42.8905 C   0  0  0  0  0  0  0  0  0  0  0  0
  -34.7705    4.5033  -42.0551 C   0  0  0  0  0  0  0  0  0  0  0  0
  -33.5431    3.8885  -40.9092 S   0  0  0  0  0  0  0  0  0  0  0  0
  -33.5661    2.1365  -41.1916 C   0  0  0  0  0  0  0  0  0  0  0  0
  -33.9973    4.1437  -39.5563 O   0  0  0  0  0  0  0  0  0  0  0  0
  -32.2462    4.3763  -41.3445 O   0  0  0  0  0  0  0  0  0  0  0  0
  -35.5771    5.7691  -46.9330 S   0  0  0  0  0  0  0  0  0  0  0  0
  -34.7943    6.9884  -46.8462 O   0  0  0  0  0  0  0  0  0  0  0  0
  -35.2033    4.5911  -46.1695 O   0  0  0  0  0  0  0  0  0  0  0  0
  -35.6555    5.2835  -48.6338 C   0  0  0  0  0  0  0  0  0  0  0  0
  -34.9923    3.9448  -48.9430 C   0  0  0  0  0  0  0  0  0  0  0  0
  -34.3255    4.5317  -50.0976 O   0  0  0  0  0  0  0  0  0  0  0  0
  -34.5795    5.8544  -49.5506 C   0  0  0  0  0  0  0  0  0  0  0  0
  -39.0649    6.0458  -42.1080 O   0  0  0  0  0  0  0  0  0  0  0  0
  -40.0745    5.5003  -41.2869 C   0  0  0  0  0  0  0  0  0  0  0  0
  -39.6814    5.5844  -39.9890 F   0  0  0  0  0  0  0  0  0  0  0  0
  -40.1334    4.1692  -41.5717 F   0  0  0  0  0  0  0  0  0  0  0  0
  -37.9222    6.7654  -48.2409 H   0  0  0  0  0  0  0  0  0  0  0  0
  -40.1521    7.4106  -47.4771 H   0  0  0  0  0  0  0  0  0  0  0  0
  -37.5939    2.6457  -41.4995 H   0  0  0  0  0  0  0  0  0  0  0  0
  -36.5404    3.1984  -40.2197 H   0  0  0  0  0  0  0  0  0  0  0  0
  -35.9763    2.0001  -41.3593 H   0  0  0  0  0  0  0  0  0  0  0  0
  -37.9122    4.1344  -43.1470 H   0  0  0  0  0  0  0  0  0  0  0  0
  -34.9886    6.8547  -44.4437 H   0  0  0  0  0  0  0  0  0  0  0  0
  -33.4408    5.9634  -42.8113 H   0  0  0  0  0  0  0  0  0  0  0  0
  -34.5096    1.7377  -40.8822 H   0  0  0  0  0  0  0  0  0  0  0  0
  -32.7819    1.6743  -40.6293 H   0  0  0  0  0  0  0  0  0  0  0  0
  -33.4207    1.9412  -42.2335 H   0  0  0  0  0  0  0  0  0  0  0  0
  -36.6974    5.4846  -48.7715 H   0  0  0  0  0  0  0  0  0  0  0  0
  -35.6813    3.1638  -49.1884 H   0  0  0  0  0  0  0  0  0  0  0  0
  -34.4225    3.4397  -48.1912 H   0  0  0  0  0  0  0  0  0  0  0  0
  -34.9476    6.5582  -50.2676 H   0  0  0  0  0  0  0  0  0  0  0  0
  -33.7755    6.4301  -49.1418 H   0  0  0  0  0  0  0  0  0  0  0  0
  -41.0019    6.0100  -41.4454 H   0  0  0  0  0  0  0  0  0  0  0  0
  1  2  1  0
  2 22  1  0
  2  3  2  0
  3  4  1  0
  3 33  1  0
  4  5  2  0
  4 34  1  0
  5  6  1  0
  6  7  1  0
  6 10  1  0
  7  8  2  0
  8 29  1  0
  8  9  1  0
  9  1  2  0
  9  5  1  0
 11 12  1  0
 11 35  1  0
 11 36  1  0
 11 37  1  0
 12 13  2  0
 13 14  1  0
 13 38  1  0
 14  1  1  0
 14 15  2  0
 15 16  1  0
 15 39  1  0
 16 17  2  0
 16 40  1  0
 17 18  1  0
 17 12  1  0
 18 19  1  0
 18 20  2  0
 18 21  2  0
 19 41  1  0
 19 42  1  0
 19 43  1  0
 22 23  2  0
 22 24  2  0
 22 25  1  0
 25 26  1  0
 25 44  1  0
 26 27  1  0
 26 45  1  0
 26 46  1  0
 27 28  1  0
 28 25  1  0
 28 47  1  0
 28 48  1  0
 29 30  1  0
 30 31  1  0
 30 32  1  0
 30 49  1  0
M  END
>  <minimizedAffinity>  (8) 
-9.89299

>  <mol_id>  (8) 
116220

>  <source_index>  (8) 
7

>  <layer>  (8) 
L2

>  <uniprot>  (8) 
P31153

>  <paff>  (8) 
7.8860999999999999

>  <smiles>  (8) 
Cc1cc(-c2c(S(=O)(=O)C3COC3)ccc3[nH]nc(OC(F)F)c23)ccc1S(C)(=O)=O

$$$$
L2:P31153:116245
     RDKit          3D

 40 44  0  0  0  0  0  0  0  0999 V2000
  -33.9338    4.1240  -43.6255 O   0  0  0  0  0  0  0  0  0  0  0  0
  -35.0596    4.6056  -43.7485 C   0  0  0  0  0  0  0  0  0  0  0  0
  -35.5347    5.1616  -45.0187 C   0  0  0  0  0  0  0  0  0  0  0  0
  -34.8433    5.2254  -46.1686 N   0  0  0  0  0  0  0  0  0  0  0  0
  -35.7005    5.8292  -47.0320 N   0  0  0  0  0  0  0  0  0  0  0  0
  -36.9109    6.1412  -46.4585 C   0  0  0  0  0  0  0  0  0  0  0  0
  -36.8181    5.7194  -45.1572 C   0  0  0  0  0  0  0  0  0  0  0  0
  -37.7689    5.7580  -44.0806 C   0  0  0  0  0  0  0  0  0  0  0  0
  -39.0591    6.2713  -44.2499 C   0  0  0  0  0  0  0  0  0  0  0  0
  -39.9514    6.2393  -43.1863 C   0  0  0  0  0  0  0  0  0  0  0  0
  -41.1845    6.7335  -43.3671 F   0  0  0  0  0  0  0  0  0  0  0  0
  -39.5761    5.6920  -41.9639 C   0  0  0  0  0  0  0  0  0  0  0  0
  -40.6924    5.6323  -40.6542 Cl  0  0  0  0  0  0  0  0  0  0  0  0
  -38.2866    5.1789  -41.7886 C   0  0  0  0  0  0  0  0  0  0  0  0
  -37.3454    5.2222  -42.8348 C   0  0  0  0  0  0  0  0  0  0  0  0
  -35.9964    4.7018  -42.6857 N   0  0  0  0  0  0  0  0  0  0  0  0
  -35.5678    4.2856  -41.3917 C   0  0  0  0  0  0  0  0  0  0  0  0
  -35.4658    5.2420  -40.3740 C   0  0  0  0  0  0  0  0  0  0  0  0
  -35.0377    4.8584  -39.1104 C   0  0  0  0  0  0  0  0  0  0  0  0
  -34.7312    3.5273  -38.9057 C   0  0  0  0  0  0  0  0  0  0  0  0
  -34.8400    2.5745  -39.8575 N   0  0  0  0  0  0  0  0  0  0  0  0
  -35.2882    2.9347  -41.0923 C   0  0  0  0  0  0  0  0  0  0  0  0
  -35.4810    1.8146  -42.0997 C   0  0  0  0  0  0  0  0  0  0  0  0
  -34.2997    0.9541  -42.4932 C   0  0  0  0  0  0  0  0  0  0  0  0
  -35.4004    0.3679  -41.6639 C   0  0  0  0  0  0  0  0  0  0  0  0
  -35.3151    6.0875  -48.4161 C   0  0  0  0  0  0  0  0  0  0  0  0
  -34.4038    7.0961  -48.4850 F   0  0  0  0  0  0  0  0  0  0  0  0
  -34.7203    4.9935  -48.9656 F   0  0  0  0  0  0  0  0  0  0  0  0
  -37.7184    6.5966  -46.9118 H   0  0  0  0  0  0  0  0  0  0  0  0
  -39.3454    6.6704  -45.1575 H   0  0  0  0  0  0  0  0  0  0  0  0
  -38.0220    4.7637  -40.8816 H   0  0  0  0  0  0  0  0  0  0  0  0
  -35.7077    6.2274  -40.5624 H   0  0  0  0  0  0  0  0  0  0  0  0
  -34.9511    5.5472  -38.3468 H   0  0  0  0  0  0  0  0  0  0  0  0
  -34.3995    3.2437  -37.9705 H   0  0  0  0  0  0  0  0  0  0  0  0
  -36.2042    2.4071  -42.6201 H   0  0  0  0  0  0  0  0  0  0  0  0
  -33.3394    1.1333  -42.0566 H   0  0  0  0  0  0  0  0  0  0  0  0
  -33.8314    0.6930  -43.4191 H   0  0  0  0  0  0  0  0  0  0  0  0
  -35.2251    0.1288  -40.6358 H   0  0  0  0  0  0  0  0  0  0  0  0
  -36.0413   -0.4842  -41.7542 H   0  0  0  0  0  0  0  0  0  0  0  0
  -36.2116    6.3425  -48.9415 H   0  0  0  0  0  0  0  0  0  0  0  0
  1  2  2  0
  2  3  1  0
  3  4  2  0
  4  5  1  0
  5 26  1  0
  5  6  1  0
  6  7  2  0
  6 29  1  0
  7  8  1  0
  7  3  1  0
  8  9  2  0
  9 10  1  0
  9 30  1  0
 10 11  1  0
 10 12  2  0
 12 13  1  0
 12 14  1  0
 14 15  2  0
 14 31  1  0
 15 16  1  0
 15  8  1  0
 16 17  1  0
 16  2  1  0
 17 18  2  0
 18 19  1  0
 18 32  1  0
 19 20  2  0
 19 33  1  0
 20 21  1  0
 20 34  1  0
 21 22  2  0
 22 23  1  0
 22 17  1  0
 23 24  1  0
 23 35  1  0
 24 25  1  0
 24 36  1  0
 24 37  1  0
 25 23  1  0
 25 38  1  0
 25 39  1  0
 26 27  1  0
 26 28  1  0
 26 40  1  0
M  END
>  <minimizedAffinity>  (9) 
-9.95266

>  <mol_id>  (9) 
116245

>  <source_index>  (9) 
8

>  <layer>  (9) 
L2

>  <uniprot>  (9) 
P31153

>  <paff>  (9) 
7.7695999999999996

>  <smiles>  (9) 
O=c1c2nn(C(F)F)cc2c2cc(F)c(Cl)cc2n1-c1cccnc1C1CC1

$$$$
L2:P31153:135356
     RDKit          3D

 53 57  0  0  0  0  0  0  0  0999 V2000
  -29.7339   -5.9766  -43.8154 C   0  0  0  0  0  0  0  0  0  0  0  0
  -31.0332   -5.5529  -43.8059 C   0  0  0  0  0  0  0  0  0  0  0  0
  -31.8938   -5.5280  -45.0673 C   0  0  0  0  0  0  0  0  0  0  0  0
  -33.0620   -5.1414  -44.9768 O   0  0  0  0  0  0  0  0  0  0  0  0
  -31.2879   -5.9029  -46.2745 N   0  0  0  0  0  0  0  0  0  0  0  0
  -29.9923   -6.3887  -46.2036 C   0  0  0  0  0  0  0  0  0  0  0  0
  -29.2689   -6.9971  -47.1908 N   0  0  0  0  0  0  0  0  0  0  0  0
  -28.0434   -7.3811  -46.7942 N   0  0  0  0  0  0  0  0  0  0  0  0
  -28.0254   -7.0629  -45.4944 C   0  0  0  0  0  0  0  0  0  0  0  0
  -29.2177   -6.4506  -45.0687 C   0  0  0  0  0  0  0  0  0  0  0  0
  -29.5497   -7.2024  -48.1432 H   0  0  0  0  0  0  0  0  0  0  0  0
  -31.9677   -5.8433  -47.5321 C   0  0  0  0  0  0  0  0  0  0  0  0
  -32.9215   -6.8744  -47.8734 C   0  0  0  0  0  0  0  0  0  0  0  0
  -33.6668   -6.9169  -49.0776 C   0  0  0  0  0  0  0  0  0  0  0  0
  -33.3842   -5.8565  -49.9491 C   0  0  0  0  0  0  0  0  0  0  0  0
  -33.8903   -5.5724  -51.1601 N   0  0  0  0  0  0  0  0  0  0  0  0
  -33.2456   -4.4507  -51.5473 N   0  0  0  0  0  0  0  0  0  0  0  0
  -33.5499   -3.8772  -52.8364 C   0  0  0  0  0  0  0  0  0  0  0  0
  -32.3471   -3.9739  -50.6365 C   0  0  0  0  0  0  0  0  0  0  0  0
  -32.4115   -4.8581  -49.5961 C   0  0  0  0  0  0  0  0  0  0  0  0
  -31.6629   -4.7871  -48.4260 C   0  0  0  0  0  0  0  0  0  0  0  0
  -31.6642   -5.0707  -42.5561 C   0  0  0  0  0  0  0  0  0  0  0  0
  -31.9727   -5.9703  -41.5283 C   0  0  0  0  0  0  0  0  0  0  0  0
  -32.5406   -5.5146  -40.3330 C   0  0  0  0  0  0  0  0  0  0  0  0
  -32.8033   -4.1558  -40.1546 C   0  0  0  0  0  0  0  0  0  0  0  0
  -32.4929   -3.2587  -41.1799 C   0  0  0  0  0  0  0  0  0  0  0  0
  -31.9283   -3.7090  -42.3756 C   0  0  0  0  0  0  0  0  0  0  0  0
  -33.3482   -3.5817  -39.0393 O   0  0  0  0  0  0  0  0  0  0  0  0
  -33.1756   -2.1782  -38.8899 C   0  0  0  0  0  0  0  0  0  0  0  0
  -28.9591   -5.9514  -42.6520 N   0  0  0  0  0  0  0  0  0  0  0  0
  -29.4754   -6.1559  -41.7981 H   0  0  0  0  0  0  0  0  0  0  0  0
  -27.4144   -4.7418  -41.2103 C   0  0  0  0  0  0  0  0  0  0  0  0
  -27.5662   -5.6493  -42.4183 C   0  0  0  0  0  0  0  0  0  0  0  0
  -27.2232   -7.2470  -44.8718 H   0  0  0  0  0  0  0  0  0  0  0  0
  -33.0703   -7.6341  -47.1910 H   0  0  0  0  0  0  0  0  0  0  0  0
  -34.3522   -7.6579  -49.2924 H   0  0  0  0  0  0  0  0  0  0  0  0
  -34.2939   -4.4715  -53.3245 H   0  0  0  0  0  0  0  0  0  0  0  0
  -32.6631   -3.8538  -53.4347 H   0  0  0  0  0  0  0  0  0  0  0  0
  -33.9183   -2.8812  -52.7057 H   0  0  0  0  0  0  0  0  0  0  0  0
  -31.7526   -3.1341  -50.7158 H   0  0  0  0  0  0  0  0  0  0  0  0
  -30.9665   -4.0508  -48.2315 H   0  0  0  0  0  0  0  0  0  0  0  0
  -31.7800   -6.9764  -41.6531 H   0  0  0  0  0  0  0  0  0  0  0  0
  -32.7656   -6.1853  -39.5816 H   0  0  0  0  0  0  0  0  0  0  0  0
  -32.6829   -2.2524  -41.0524 H   0  0  0  0  0  0  0  0  0  0  0  0
  -31.7059   -3.0366  -43.1263 H   0  0  0  0  0  0  0  0  0  0  0  0
  -33.6448   -1.8556  -37.9840 H   0  0  0  0  0  0  0  0  0  0  0  0
  -33.6211   -1.6735  -39.7216 H   0  0  0  0  0  0  0  0  0  0  0  0
  -32.1311   -1.9494  -38.8517 H   0  0  0  0  0  0  0  0  0  0  0  0
  -26.3778   -4.5287  -41.0523 H   0  0  0  0  0  0  0  0  0  0  0  0
  -27.8142   -5.2291  -40.3457 H   0  0  0  0  0  0  0  0  0  0  0  0
  -27.9442   -3.8281  -41.3818 H   0  0  0  0  0  0  0  0  0  0  0  0
  -27.0328   -6.5603  -42.2436 H   0  0  0  0  0  0  0  0  0  0  0  0
  -27.1714   -5.1498  -43.2782 H   0  0  0  0  0  0  0  0  0  0  0  0
  1  2  2  0
  2 22  1  0
  2  3  1  0
  3  4  2  0
  3  5  1  0
  5 12  1  0
  5  6  1  0
  6  7  1  0
  7  8  1  0
  7 11  1  0
  8  9  2  0
  9 10  1  0
  9 34  1  0
 10  1  1  0
 10  6  2  0
 12 13  1  0
 13 14  2  0
 13 35  1  0
 14 15  1  0
 14 36  1  0
 15 16  2  0
 16 17  1  0
 17 18  1  0
 17 19  1  0
 18 37  1  0
 18 38  1  0
 18 39  1  0
 19 20  2  0
 19 40  1  0
 20 21  1  0
 20 15  1  0
 21 12  2  0
 21 41  1  0
 22 23  2  0
 23 24  1  0
 23 42  1  0
 24 25  2  0
 24 43  1  0
 25 28  1  0
 25 26  1  0
 26 27  2  0
 26 44  1  0
 27 22  1  0
 27 45  1  0
 28 29  1  0
 29 46  1  0
 29 47  1  0
 29 48  1  0
 30  1  1  0
 30 31  1  0
 32 33  1  0
 32 49  1  0
 32 50  1  0
 32 51  1  0
 33 30  1  0
 33 52  1  0
 33 53  1  0
M  END
>  <minimizedAffinity>  (10) 
-9.05678

>  <mol_id>  (10) 
135356

>  <source_index>  (10) 
9

>  <layer>  (10) 
L2

>  <uniprot>  (10) 
P31153

>  <paff>  (10) 
7.7569999999999997

>  <smiles>  (10) 
CCNc1c(-c2ccc(OC)cc2)c(=O)n(-c2ccc3nn(C)cc3c2)c2[nH]ncc12

$$$$
