L4:Q99705:106648


 30 34  0  0  0  0  0  0  0  0999 V2000
  133.7122  146.0061  101.8255 O   0  0  0  0  0  0  0  0  0  0  0  0
  134.4703  145.8626  100.8836 C   0  0  0  0  0  0  0  0  0  0  0  0
  134.6586  146.8284   99.7741 C   0  0  0  0  0  0  0  0  0  0  0  0
  135.6080  146.3208   98.9721 C   0  0  0  0  0  0  0  0  0  0  0  0
  136.1168  145.0084   99.4488 C   0  0  0  0  0  0  0  0  0  0  0  0
  135.3241  144.8000  100.6323 N   0  0  0  0  0  0  0  0  0  0  0  0
  135.5126  143.6795  101.5526 C   0  0  0  0  0  0  0  0  0  0  0  0
  135.0152  142.3498  100.9794 C   0  0  0  0  0  0  0  0  0  0  0  0
  135.0945  141.2110  102.0033 C   0  0  0  0  0  0  0  0  0  0  0  0
  136.2693  141.3415  102.9868 C   0  0  0  0  0  0  0  0  0  0  0  0
  137.4098  142.1573  102.3790 C   0  0  0  0  0  0  0  0  0  0  0  0
  136.9823  143.5803  102.0011 C   0  0  0  0  0  0  0  0  0  0  0  0
  135.8407  142.0262  104.1690 O   0  0  0  0  0  0  0  0  0  0  0  0
  136.7048  141.8410  105.2956 C   0  0  0  0  0  0  0  0  0  0  0  0
  136.3154  140.5706  106.0706 C   0  0  0  0  0  0  0  0  0  0  0  0
  136.0605  140.8121  107.4954 N   0  0  0  0  0  0  0  0  0  0  0  0
  137.0364  140.1247  108.3450 C   0  0  0  0  0  0  0  0  0  0  0  0
  136.8220  140.7759  109.7012 C   0  0  0  0  0  0  0  0  0  0  0  0
  136.3075  142.1761  109.3887 C   0  0  0  0  0  0  0  0  0  0  0  0
  136.1685  142.2237  107.8730 C   0  0  0  0  0  0  0  0  0  0  0  0
  133.9446  147.9963   99.7079 O   0  0  0  0  0  0  0  0  0  0  0  0
  134.3123  149.0142  100.5479 C   0  0  0  0  0  0  0  0  0  0  0  0
  135.4433  149.7731  100.2637 C   0  0  0  0  0  0  0  0  0  0  0  0
  135.7960  150.8254  101.1124 C   0  0  0  0  0  0  0  0  0  0  0  0
  135.0205  151.1506  102.2398 C   0  0  0  0  0  0  0  0  0  0  0  0
  133.8774  150.3700  102.4901 C   0  0  0  0  0  0  0  0  0  0  0  0
  133.5158  149.3157  101.6477 C   0  0  0  0  0  0  0  0  0  0  0  0
  135.4142  152.2798  103.1613 C   0  0  0  0  0  0  0  0  0  0  0  0
  134.9363  152.2890  104.5953 C   0  0  0  0  0  0  0  0  0  0  0  0
  134.3775  153.2795  103.6203 C   0  0  0  0  0  0  0  0  0  0  0  0
  1  2  2  0  0  0
  2  3  1  0  0  0
  3 21  1  0  0  0
 21 22  1  0  0  0
 22 23  2  0  0  0
 23 24  1  0  0  0
 24 25  2  0  0  0
 25 28  1  0  0  0
 28 29  1  0  0  0
 29 30  1  0  0  0
 25 26  1  0  0  0
 26 27  2  0  0  0
  3  4  2  0  0  0
  4  5  1  0  0  0
  5  6  1  0  0  0
  6  7  1  0  0  0
  7  8  1  0  0  0
  8  9  1  0  0  0
  9 10  1  0  0  0
 10 13  1  0  0  0
 13 14  1  0  0  0
 14 15  1  0  0  0
 15 16  1  0  0  0
 16 17  1  0  0  0
 17 18  1  0  0  0
 18 19  1  0  0  0
 19 20  1  0  0  0
 10 11  1  0  0  0
 11 12  1  0  0  0
  6  2  1  0  0  0
 12  7  1  0  0  0
 27 22  1  0  0  0
 20 16  1  0  0  0
 30 28  1  0  0  0
M  END
> <minimizedAffinity>
-9.00988

$$$$
