L4:Q99705:106648
 OpenBabel09212618013D

 64 68  0  0  0  0  0  0  0  0999 V2000
  133.7122  146.0061  101.8255 O   0  0  0  0  0  0  0  0  0  0  0  0
  134.4703  145.8626  100.8836 C   0  0  0  0  0  0  0  0  0  0  0  0
  134.6586  146.8284   99.7741 C   0  0  0  0  0  0  0  0  0  0  0  0
  135.6080  146.3208   98.9721 C   0  0  0  0  0  0  0  0  0  0  0  0
  136.1168  145.0084   99.4488 C   0  0  0  0  0  0  0  0  0  0  0  0
  135.3241  144.8000  100.6323 N   0  0  0  0  0  0  0  0  0  0  0  0
  135.5126  143.6795  101.5526 C   0  0  1  0  0  0  0  0  0  0  0  0
  135.0152  142.3498  100.9794 C   0  0  0  0  0  0  0  0  0  0  0  0
  135.0945  141.2110  102.0033 C   0  0  0  0  0  0  0  0  0  0  0  0
  136.2693  141.3415  102.9868 C   0  0  1  0  0  0  0  0  0  0  0  0
  137.4098  142.1573  102.3790 C   0  0  0  0  0  0  0  0  0  0  0  0
  136.9823  143.5803  102.0011 C   0  0  0  0  0  0  0  0  0  0  0  0
  135.8407  142.0262  104.1690 O   0  0  0  0  0  0  0  0  0  0  0  0
  136.7048  141.8410  105.2956 C   0  0  0  0  0  0  0  0  0  0  0  0
  136.3154  140.5706  106.0706 C   0  0  0  0  0  0  0  0  0  0  0  0
  136.0605  140.8121  107.4954 N   0  0  0  0  0  0  0  0  0  0  0  0
  137.0364  140.1247  108.3450 C   0  0  0  0  0  0  0  0  0  0  0  0
  136.8220  140.7759  109.7012 C   0  0  0  0  0  0  0  0  0  0  0  0
  136.3075  142.1761  109.3887 C   0  0  0  0  0  0  0  0  0  0  0  0
  136.1685  142.2237  107.8730 C   0  0  0  0  0  0  0  0  0  0  0  0
  133.9446  147.9963   99.7079 O   0  0  0  0  0  0  0  0  0  0  0  0
  134.3123  149.0142  100.5479 C   0  0  0  0  0  0  0  0  0  0  0  0
  135.4433  149.7731  100.2637 C   0  0  0  0  0  0  0  0  0  0  0  0
  135.7960  150.8254  101.1124 C   0  0  0  0  0  0  0  0  0  0  0  0
  135.0205  151.1506  102.2398 C   0  0  0  0  0  0  0  0  0  0  0  0
  133.8774  150.3700  102.4901 C   0  0  0  0  0  0  0  0  0  0  0  0
  133.5158  149.3157  101.6477 C   0  0  0  0  0  0  0  0  0  0  0  0
  135.4142  152.2798  103.1613 C   0  0  0  0  0  0  0  0  0  0  0  0
  134.9363  152.2890  104.5953 C   0  0  0  0  0  0  0  0  0  0  0  0
  134.3775  153.2795  103.6203 C   0  0  0  0  0  0  0  0  0  0  0  0
  135.9473  146.7905   98.1181 H   0  0  0  0  0  0  0  0  0  0  0  0
  137.1601  145.0558   99.6816 H   0  0  0  0  0  0  0  0  0  0  0  0
  136.0344  144.2227   98.7271 H   0  0  0  0  0  0  0  0  0  0  0  0
  134.9084  143.8806  102.4125 H   0  0  0  0  0  0  0  0  0  0  0  0
  135.6163  142.0936  100.1320 H   0  0  0  0  0  0  0  0  0  0  0  0
  133.9883  142.4741  100.7056 H   0  0  0  0  0  0  0  0  0  0  0  0
  135.1993  140.2874  101.4732 H   0  0  0  0  0  0  0  0  0  0  0  0
  134.1964  141.2505  102.5836 H   0  0  0  0  0  0  0  0  0  0  0  0
  136.6078  140.3519  103.2127 H   0  0  0  0  0  0  0  0  0  0  0  0
  137.7561  141.6584  101.4980 H   0  0  0  0  0  0  0  0  0  0  0  0
  138.1803  142.2363  103.1172 H   0  0  0  0  0  0  0  0  0  0  0  0
  137.6049  143.9198  101.1998 H   0  0  0  0  0  0  0  0  0  0  0  0
  137.0859  144.1843  102.8782 H   0  0  0  0  0  0  0  0  0  0  0  0
  136.6237  142.6880  105.9444 H   0  0  0  0  0  0  0  0  0  0  0  0
  137.7111  141.7385  104.9466 H   0  0  0  0  0  0  0  0  0  0  0  0
  137.1130  139.8626  105.9840 H   0  0  0  0  0  0  0  0  0  0  0  0
  135.4039  140.2073  105.6439 H   0  0  0  0  0  0  0  0  0  0  0  0
  138.0341  140.2860  107.9937 H   0  0  0  0  0  0  0  0  0  0  0  0
  136.9094  139.0624  108.3610 H   0  0  0  0  0  0  0  0  0  0  0  0
  137.7426  140.8259  110.2443 H   0  0  0  0  0  0  0  0  0  0  0  0
  136.1375  140.2224  110.3095 H   0  0  0  0  0  0  0  0  0  0  0  0
  137.0045  142.9152  109.7246 H   0  0  0  0  0  0  0  0  0  0  0  0
  135.3796  142.3794  109.8811 H   0  0  0  0  0  0  0  0  0  0  0  0
  137.0285  142.6751  107.4240 H   0  0  0  0  0  0  0  0  0  0  0  0
  135.3320  142.8071  107.5491 H   0  0  0  0  0  0  0  0  0  0  0  0
  136.0171  149.5604   99.4327 H   0  0  0  0  0  0  0  0  0  0  0  0
  136.6443  151.3762  100.9075 H   0  0  0  0  0  0  0  0  0  0  0  0
  133.2930  150.5807  103.3142 H   0  0  0  0  0  0  0  0  0  0  0  0
  132.6645  148.7650  101.8399 H   0  0  0  0  0  0  0  0  0  0  0  0
  136.3665  152.3405  102.6772 H   0  0  0  0  0  0  0  0  0  0  0  0
  135.5915  152.6179  105.3746 H   0  0  0  0  0  0  0  0  0  0  0  0
  134.5154  151.5597  105.2554 H   0  0  0  0  0  0  0  0  0  0  0  0
  134.6342  154.3149  103.7043 H   0  0  0  0  0  0  0  0  0  0  0  0
  133.3934  153.5485  103.2977 H   0  0  0  0  0  0  0  0  0  0  0  0
  1  2  2  0  0  0  0
  2  3  1  0  0  0  0
  3 21  1  0  0  0  0
  3  4  2  0  0  0  0
  4  5  1  0  0  0  0
  4 31  1  0  0  0  0
  5  6  1  0  0  0  0
  5 32  1  0  0  0  0
  5 33  1  0  0  0  0
  6  7  1  0  0  0  0
  6  2  1  0  0  0  0
  7  8  1  0  0  0  0
  7 34  1  1  0  0  0
  8  9  1  0  0  0  0
  8 35  1  0  0  0  0
  8 36  1  0  0  0  0
  9 10  1  0  0  0  0
  9 37  1  0  0  0  0
  9 38  1  0  0  0  0
 10 13  1  0  0  0  0
 10 11  1  0  0  0  0
 10 39  1  1  0  0  0
 11 12  1  0  0  0  0
 11 40  1  0  0  0  0
 11 41  1  0  0  0  0
 12  7  1  0  0  0  0
 12 42  1  0  0  0  0
 12 43  1  0  0  0  0
 13 14  1  0  0  0  0
 14 15  1  0  0  0  0
 14 44  1  0  0  0  0
 14 45  1  0  0  0  0
 15 16  1  0  0  0  0
 15 46  1  0  0  0  0
 15 47  1  0  0  0  0
 16 17  1  0  0  0  0
 17 18  1  0  0  0  0
 17 48  1  0  0  0  0
 17 49  1  0  0  0  0
 18 19  1  0  0  0  0
 18 50  1  0  0  0  0
 18 51  1  0  0  0  0
 19 20  1  0  0  0  0
 19 52  1  0  0  0  0
 19 53  1  0  0  0  0
 20 16  1  0  0  0  0
 20 54  1  0  0  0  0
 20 55  1  0  0  0  0
 21 22  1  0  0  0  0
 22 23  2  0  0  0  0
 23 24  1  0  0  0  0
 23 56  1  0  0  0  0
 24 25  2  0  0  0  0
 24 57  1  0  0  0  0
 25 28  1  0  0  0  0
 25 26  1  0  0  0  0
 26 27  2  0  0  0  0
 26 58  1  0  0  0  0
 27 22  1  0  0  0  0
 27 59  1  0  0  0  0
 28 29  1  0  0  0  0
 28 60  1  0  0  0  0
 29 30  1  0  0  0  0
 29 61  1  0  0  0  0
 29 62  1  0  0  0  0
 30 28  1  0  0  0  0
 30 63  1  0  0  0  0
 30 64  1  0  0  0  0
M  END
>  <minimizedAffinity>
-9.00988

$$$$
