L4:Q99705:106648
     RDKit          3D

 64 68  0  0  0  0  0  0  0  0999 V2000
    1.1626   -1.5078    0.8360 O   0  0  0  0  0  0  0  0  0  0  0  0
    1.6310   -0.4427    0.4774 C   0  0  0  0  0  0  0  0  0  0  0  0
    3.0757   -0.1138    0.4153 C   0  0  0  0  0  0  0  0  0  0  0  0
    4.0356   -1.0144    0.7968 O   0  0  0  0  0  0  0  0  0  0  0  0
    5.3435   -0.6103    0.7422 C   0  0  0  0  0  0  0  0  0  0  0  0
    5.9160    0.0342    1.8344 C   0  0  0  0  0  0  0  0  0  0  0  0
    7.2577    0.4199    1.7791 C   0  0  0  0  0  0  0  0  0  0  0  0
    8.0523    0.1525    0.6498 C   0  0  0  0  0  0  0  0  0  0  0  0
    9.4978    0.5842    0.5899 C   0  0  0  0  0  0  0  0  0  0  0  0
   10.5794   -0.4291    0.2929 C   0  0  0  0  0  0  0  0  0  0  0  0
   10.4632    0.1508    1.6693 C   0  0  0  0  0  0  0  0  0  0  0  0
    7.4442   -0.5111   -0.4311 C   0  0  0  0  0  0  0  0  0  0  0  0
    6.1034   -0.9012   -0.3860 C   0  0  0  0  0  0  0  0  0  0  0  0
    3.1711    1.1337   -0.0715 C   0  0  0  0  0  0  0  0  0  0  0  0
    1.8441    1.7376   -0.3594 C   0  0  0  0  0  0  0  0  0  0  0  0
    0.9499    0.6834    0.0424 N   0  0  0  0  0  0  0  0  0  0  0  0
   -0.5000    0.7304   -0.1413 C   0  0  1  0  0  0  0  0  0  0  0  0
   -1.1015    2.0898    0.2249 C   0  0  0  0  0  0  0  0  0  0  0  0
   -2.6335    2.0834    0.1570 C   0  0  0  0  0  0  0  0  0  0  0  0
   -3.2027    1.1508   -0.9250 C   0  0  2  0  0  0  0  0  0  0  0  0
   -3.4813   -0.1356   -0.3615 O   0  0  0  0  0  0  0  0  0  0  0  0
   -4.7704   -0.2359    0.2537 C   0  0  0  0  0  0  0  0  0  0  0  0
   -5.8248   -0.6817   -0.7737 C   0  0  0  0  0  0  0  0  0  0  0  0
   -7.1853   -0.7366   -0.2265 N   0  0  0  0  0  0  0  0  0  0  0  0
   -8.1729   -1.0579   -1.2600 C   0  0  0  0  0  0  0  0  0  0  0  0
   -9.4085   -1.4111   -0.4488 C   0  0  0  0  0  0  0  0  0  0  0  0
   -8.8717   -1.9389    0.8765 C   0  0  0  0  0  0  0  0  0  0  0  0
   -7.3600   -1.7770    0.7904 C   0  0  0  0  0  0  0  0  0  0  0  0
   -2.1980    0.9414   -2.0575 C   0  0  0  0  0  0  0  0  0  0  0  0
   -0.8843    0.3163   -1.5738 C   0  0  0  0  0  0  0  0  0  0  0  0
    5.3254    0.2352    2.7234 H   0  0  0  0  0  0  0  0  0  0  0  0
    7.6961    0.9314    2.6336 H   0  0  0  0  0  0  0  0  0  0  0  0
    9.6594    1.5812    0.1834 H   0  0  0  0  0  0  0  0  0  0  0  0
   11.4123   -0.1127   -0.3244 H   0  0  0  0  0  0  0  0  0  0  0  0
   10.3050   -1.4702    0.1634 H   0  0  0  0  0  0  0  0  0  0  0  0
   10.1112   -0.5026    2.4599 H   0  0  0  0  0  0  0  0  0  0  0  0
   11.2171    0.8615    1.9878 H   0  0  0  0  0  0  0  0  0  0  0  0
    8.0297   -0.7340   -1.3207 H   0  0  0  0  0  0  0  0  0  0  0  0
    5.6580   -1.4271   -1.2254 H   0  0  0  0  0  0  0  0  0  0  0  0
    4.0974    1.6606   -0.2452 H   0  0  0  0  0  0  0  0  0  0  0  0
    1.6691    2.6313    0.2452 H   0  0  0  0  0  0  0  0  0  0  0  0
    1.7199    1.9555   -1.4233 H   0  0  0  0  0  0  0  0  0  0  0  0
   -0.9222   -0.0185    0.5423 H   0  0  0  0  0  0  0  0  0  0  0  0
   -0.7845    2.3948    1.2297 H   0  0  0  0  0  0  0  0  0  0  0  0
   -0.7217    2.8595   -0.4600 H   0  0  0  0  0  0  0  0  0  0  0  0
   -3.0257    1.8074    1.1427 H   0  0  0  0  0  0  0  0  0  0  0  0
   -2.9646    3.1108   -0.0381 H   0  0  0  0  0  0  0  0  0  0  0  0
   -4.1220    1.5816   -1.3390 H   0  0  0  0  0  0  0  0  0  0  0  0
   -4.6788   -0.9897    1.0425 H   0  0  0  0  0  0  0  0  0  0  0  0
   -5.0533    0.7093    0.7315 H   0  0  0  0  0  0  0  0  0  0  0  0
   -5.8090    0.0274   -1.6107 H   0  0  0  0  0  0  0  0  0  0  0  0
   -5.5237   -1.6474   -1.2018 H   0  0  0  0  0  0  0  0  0  0  0  0
   -7.8635   -1.9215   -1.8627 H   0  0  0  0  0  0  0  0  0  0  0  0
   -8.3598   -0.2125   -1.9296 H   0  0  0  0  0  0  0  0  0  0  0  0
  -10.0320   -2.1510   -0.9605 H   0  0  0  0  0  0  0  0  0  0  0  0
  -10.0221   -0.5199   -0.2708 H   0  0  0  0  0  0  0  0  0  0  0  0
   -9.2832   -1.3514    1.7054 H   0  0  0  0  0  0  0  0  0  0  0  0
   -9.1502   -2.9856    1.0359 H   0  0  0  0  0  0  0  0  0  0  0  0
   -6.9395   -1.4877    1.7585 H   0  0  0  0  0  0  0  0  0  0  0  0
   -6.9047   -2.7264    0.4808 H   0  0  0  0  0  0  0  0  0  0  0  0
   -1.9876    1.9056   -2.5368 H   0  0  0  0  0  0  0  0  0  0  0  0
   -2.6288    0.2900   -2.8274 H   0  0  0  0  0  0  0  0  0  0  0  0
   -0.9603   -0.7783   -1.6116 H   0  0  0  0  0  0  0  0  0  0  0  0
   -0.0959    0.5794   -2.2899 H   0  0  0  0  0  0  0  0  0  0  0  0
  1  2  2  0
  2  3  1  0
  3  4  1  0
  4  5  1  0
  5  6  2  0
  6  7  1  0
  7  8  2  0
  8  9  1  0
  9 10  1  0
 10 11  1  0
  8 12  1  0
 12 13  2  0
  3 14  2  0
 14 15  1  0
 15 16  1  0
 16 17  1  0
 17 18  1  0
 18 19  1  0
 19 20  1  0
 20 21  1  0
 21 22  1  0
 22 23  1  0
 23 24  1  0
 24 25  1  0
 25 26  1  0
 26 27  1  0
 27 28  1  0
 20 29  1  0
 29 30  1  0
 16  2  1  0
 30 17  1  0
 13  5  1  0
 28 24  1  0
 11  9  1  0
  6 31  1  0
  7 32  1  0
  9 33  1  0
 10 34  1  0
 10 35  1  0
 11 36  1  0
 11 37  1  0
 12 38  1  0
 13 39  1  0
 14 40  1  0
 15 41  1  0
 15 42  1  0
 17 43  1  1
 18 44  1  0
 18 45  1  0
 19 46  1  0
 19 47  1  0
 20 48  1  6
 22 49  1  0
 22 50  1  0
 23 51  1  0
 23 52  1  0
 25 53  1  0
 25 54  1  0
 26 55  1  0
 26 56  1  0
 27 57  1  0
 27 58  1  0
 28 59  1  0
 28 60  1  0
 29 61  1  0
 29 62  1  0
 30 63  1  0
 30 64  1  0
M  END
>  <mol_id>  (1) 
106648

>  <source_index>  (1) 
7

>  <layer>  (1) 
L4

>  <uniprot>  (1) 
Q99705

>  <paff>  (1) 
7.6576000000000004

>  <smiles>  (1) 
O=C1N(CC=C1Oc1ccc(cc1)C1CC1)[C@H]1CC[C@@H](CC1)OCCN1CCCC1 |r,wU:16.18,wD:19.25,c:4,(-.66,2.73,;-1.43,1.39,;-.53,.15,;-1.43,-1.1,;-2.9,-.62,;-2.9,.92,;-4.23,1.69,;-5.56,.92,;-5.56,-.62,;-6.9,-1.39,;-8.23,-.62,;-8.23,.92,;-6.9,1.69,;-9.56,-1.39,;-11.1,-1.39,;-10.33,-2.73,;.96,.55,;1.36,2.03,;2.85,2.43,;3.94,1.34,;3.54,-.14,;2.05,-.54,;5.42,1.74,;6.51,.65,;8,1.05,;9.09,-.04,;8.61,-1.5,;9.86,-2.41,;11.1,-1.5,;10.63,-.04,)|

$$$$
