L4:Q99705:121682
     RDKit          3D

 67 72  0  0  0  0  0  0  0  0999 V2000
    1.6122   -2.3399   -1.9372 C   0  0  0  0  0  0  0  0  0  0  0  0
    2.2604   -1.6719   -0.8618 O   0  0  0  0  0  0  0  0  0  0  0  0
    1.4810   -0.9720    0.0223 C   0  0  0  0  0  0  0  0  0  0  0  0
    0.0808   -0.8784   -0.0691 C   0  0  0  0  0  0  0  0  0  0  0  0
   -0.6856   -0.1947    0.8893 C   0  0  0  0  0  0  0  0  0  0  0  0
   -2.1037   -0.1006    0.7938 N   0  0  0  0  0  0  0  0  0  0  0  0
   -2.8972    0.5930    1.7785 C   0  0  0  0  0  0  0  0  0  0  0  0
   -4.2796    0.4273    1.2664 C   0  0  0  0  0  0  0  0  0  0  0  0
   -4.3162   -0.2723    0.1250 C   0  0  0  0  0  0  0  0  0  0  0  0
   -5.3668   -0.6490   -0.6715 O   0  0  0  0  0  0  0  0  0  0  0  0
   -6.6260   -0.2749   -0.2823 C   0  0  0  0  0  0  0  0  0  0  0  0
   -7.3789   -1.1236    0.5229 C   0  0  0  0  0  0  0  0  0  0  0  0
   -8.6715   -0.7481    0.8972 C   0  0  0  0  0  0  0  0  0  0  0  0
   -9.2398    0.4621    0.4605 C   0  0  0  0  0  0  0  0  0  0  0  0
  -10.6319    0.8692    0.8798 C   0  0  0  0  0  0  0  0  0  0  0  0
  -11.8016   -0.0519    0.6186 C   0  0  0  0  0  0  0  0  0  0  0  0
  -11.6666    1.2173   -0.1656 C   0  0  0  0  0  0  0  0  0  0  0  0
   -8.4548    1.2899   -0.3621 C   0  0  0  0  0  0  0  0  0  0  0  0
   -7.1611    0.9241   -0.7424 C   0  0  0  0  0  0  0  0  0  0  0  0
   -2.9153   -0.6332   -0.2147 C   0  0  0  0  0  0  0  0  0  0  0  0
   -2.6168   -1.2757   -1.2075 O   0  0  0  0  0  0  0  0  0  0  0  0
   -0.0070    0.3950    1.9643 C   0  0  0  0  0  0  0  0  0  0  0  0
    1.3838    0.3154    2.0671 C   0  0  0  0  0  0  0  0  0  0  0  0
    2.1323   -0.3422    1.0915 C   0  0  0  0  0  0  0  0  0  0  0  0
    3.4827   -0.3490    1.3289 O   0  0  0  0  0  0  0  0  0  0  0  0
    4.2988   -0.0779    0.1809 C   0  0  0  0  0  0  0  0  0  0  0  0
    5.5886    0.6006    0.6690 C   0  0  0  0  0  0  0  0  0  0  0  0
    6.4933    0.9350   -0.4459 N   0  0  0  0  0  0  0  0  0  0  0  0
    7.7005    1.6088    0.0699 C   0  0  0  0  0  0  0  0  0  0  0  0
    8.5269    0.2841   -0.0368 C   0  0  0  0  0  0  0  0  0  0  0  0
    8.6977   -0.3929    1.2453 O   0  0  0  0  0  0  0  0  0  0  0  0
    9.8774    0.4065   -0.7430 C   0  0  0  0  0  0  0  0  0  0  0  0
   10.1000    0.6234   -2.2139 C   0  0  0  0  0  0  0  0  0  0  0  0
   10.4729   -0.6915   -1.5842 C   0  0  0  0  0  0  0  0  0  0  0  0
    7.2906   -0.2399   -0.8454 C   0  0  0  0  0  0  0  0  0  0  0  0
    1.1031   -1.6279   -2.5951 H   0  0  0  0  0  0  0  0  0  0  0  0
    0.9237   -3.1075   -1.5690 H   0  0  0  0  0  0  0  0  0  0  0  0
    2.3831   -2.8433   -2.5286 H   0  0  0  0  0  0  0  0  0  0  0  0
   -0.4204   -1.3569   -0.9000 H   0  0  0  0  0  0  0  0  0  0  0  0
   -2.7858    0.1204    2.7594 H   0  0  0  0  0  0  0  0  0  0  0  0
   -2.6195    1.6510    1.8155 H   0  0  0  0  0  0  0  0  0  0  0  0
   -5.1415    0.8338    1.7743 H   0  0  0  0  0  0  0  0  0  0  0  0
   -6.9665   -2.0709    0.8577 H   0  0  0  0  0  0  0  0  0  0  0  0
   -9.2513   -1.4128    1.5345 H   0  0  0  0  0  0  0  0  0  0  0  0
  -10.6802    1.4446    1.8028 H   0  0  0  0  0  0  0  0  0  0  0  0
  -12.5803   -0.1054    1.3707 H   0  0  0  0  0  0  0  0  0  0  0  0
  -11.6307   -0.9853    0.0938 H   0  0  0  0  0  0  0  0  0  0  0  0
  -12.3536    2.0267    0.0533 H   0  0  0  0  0  0  0  0  0  0  0  0
  -11.4055    1.1324   -1.2147 H   0  0  0  0  0  0  0  0  0  0  0  0
   -8.8636    2.2333   -0.7184 H   0  0  0  0  0  0  0  0  0  0  0  0
   -6.5792    1.5708   -1.3924 H   0  0  0  0  0  0  0  0  0  0  0  0
   -0.5308    0.9300    2.7499 H   0  0  0  0  0  0  0  0  0  0  0  0
    1.8905    0.7783    2.9105 H   0  0  0  0  0  0  0  0  0  0  0  0
    4.5452   -1.0256   -0.3090 H   0  0  0  0  0  0  0  0  0  0  0  0
    3.7871    0.5858   -0.5285 H   0  0  0  0  0  0  0  0  0  0  0  0
    6.0636   -0.0233    1.4380 H   0  0  0  0  0  0  0  0  0  0  0  0
    5.2966    1.5268    1.1825 H   0  0  0  0  0  0  0  0  0  0  0  0
    8.0544    2.4096   -0.5915 H   0  0  0  0  0  0  0  0  0  0  0  0
    7.6298    2.0319    1.0791 H   0  0  0  0  0  0  0  0  0  0  0  0
    9.0317   -1.2737    1.0054 H   0  0  0  0  0  0  0  0  0  0  0  0
   10.5480    0.9352   -0.0707 H   0  0  0  0  0  0  0  0  0  0  0  0
   10.9035    1.2895   -2.5103 H   0  0  0  0  0  0  0  0  0  0  0  0
    9.2486    0.6502   -2.8829 H   0  0  0  0  0  0  0  0  0  0  0  0
    9.8654   -1.5554   -1.8274 H   0  0  0  0  0  0  0  0  0  0  0  0
   11.5268   -0.9124   -1.4566 H   0  0  0  0  0  0  0  0  0  0  0  0
    7.4314   -0.3033   -1.9297 H   0  0  0  0  0  0  0  0  0  0  0  0
    6.9165   -1.2184   -0.5206 H   0  0  0  0  0  0  0  0  0  0  0  0
  1  2  1  0
  2  3  1  0
  3  4  2  0
  4  5  1  0
  5  6  1  0
  6  7  1  0
  7  8  1  0
  8  9  2  0
  9 10  1  0
 10 11  1  0
 11 12  2  0
 12 13  1  0
 13 14  2  0
 14 15  1  0
 15 16  1  0
 16 17  1  0
 14 18  1  0
 18 19  2  0
  9 20  1  0
 20 21  2  0
  5 22  2  0
 22 23  1  0
 23 24  2  0
 24 25  1  0
 25 26  1  0
 26 27  1  0
 27 28  1  0
 28 29  1  0
 29 30  1  0
 30 31  1  0
 30 32  1  0
 32 33  1  0
 33 34  1  0
 30 35  1  0
 24  3  1  0
 35 28  1  0
 20  6  1  0
 34 32  1  0
 19 11  1  0
 17 15  1  0
  1 36  1  0
  1 37  1  0
  1 38  1  0
  4 39  1  0
  7 40  1  0
  7 41  1  0
  8 42  1  0
 12 43  1  0
 13 44  1  0
 15 45  1  0
 16 46  1  0
 16 47  1  0
 17 48  1  0
 17 49  1  0
 18 50  1  0
 19 51  1  0
 22 52  1  0
 23 53  1  0
 26 54  1  0
 26 55  1  0
 27 56  1  0
 27 57  1  0
 29 58  1  0
 29 59  1  0
 31 60  1  0
 32 61  1  0
 33 62  1  0
 33 63  1  0
 34 64  1  0
 34 65  1  0
 35 66  1  0
 35 67  1  0
M  END
>  <mol_id>  (1) 
121682

>  <source_index>  (1) 
8

>  <layer>  (1) 
L4

>  <uniprot>  (1) 
Q99705

>  <paff>  (1) 
9.4088999999999992

>  <smiles>  (1) 
COc1cc(N2CC=C(Oc3ccc(C4CC4)cc3)C2=O)ccc1OCCN1CC(O)(C2CC2)C1

$$$$
