L4:Q99705:121682


 36 41  0  0  0  0  0  0  0  0999 V2000
  135.5279  147.3583   97.5586 C   0  0  0  0  0  0  0  0  0  0  0  0
  135.7096  146.0637   98.0769 C   0  0  0  0  0  0  0  0  0  0  0  0
  136.2245  145.8409   99.3648 C   0  0  0  0  0  0  0  0  0  0  0  0
  136.5677  146.9630  100.1309 C   0  0  0  0  0  0  0  0  0  0  0  0
  136.3887  148.2556   99.6327 C   0  0  0  0  0  0  0  0  0  0  0  0
  135.8490  148.4599   98.3632 C   0  0  0  0  0  0  0  0  0  0  0  0
  136.4067  144.5285   99.8877 N   0  0  0  0  0  0  0  0  0  0  0  0
  137.6414  143.8004   99.7272 C   0  0  0  0  0  0  0  0  0  0  0  0
  137.3628  142.5189  100.4205 C   0  0  0  0  0  0  0  0  0  0  0  0
  136.1256  142.4784  100.9317 C   0  0  0  0  0  0  0  0  0  0  0  0
  135.4721  143.7722  100.6046 C   0  0  0  0  0  0  0  0  0  0  0  0
  134.3306  144.0430  100.9381 O   0  0  0  0  0  0  0  0  0  0  0  0
  135.4700  141.5021  101.6368 O   0  0  0  0  0  0  0  0  0  0  0  0
  135.7363  141.3978  102.9767 C   0  0  0  0  0  0  0  0  0  0  0  0
  136.3731  142.4443  103.6361 C   0  0  0  0  0  0  0  0  0  0  0  0
  136.6639  142.3230  104.9972 C   0  0  0  0  0  0  0  0  0  0  0  0
  136.3462  141.1557  105.7146 C   0  0  0  0  0  0  0  0  0  0  0  0
  135.7138  140.1132  105.0135 C   0  0  0  0  0  0  0  0  0  0  0  0
  135.4185  140.2239  103.6524 C   0  0  0  0  0  0  0  0  0  0  0  0
  136.6501  141.0359  107.1886 C   0  0  0  0  0  0  0  0  0  0  0  0
  135.5556  141.2545  108.2080 C   0  0  0  0  0  0  0  0  0  0  0  0
  136.6497  142.2676  108.0647 C   0  0  0  0  0  0  0  0  0  0  0  0
  135.5897  146.8261   95.2260 C   0  0  0  0  0  0  0  0  0  0  0  0
  135.0776  147.6185   96.2903 O   0  0  0  0  0  0  0  0  0  0  0  0
  135.7412  149.7787   98.0040 O   0  0  0  0  0  0  0  0  0  0  0  0
  136.2289  150.7116   98.9782 C   0  0  0  0  0  0  0  0  0  0  0  0
  135.2531  151.8981   99.0247 C   0  0  0  0  0  0  0  0  0  0  0  0
  134.1957  151.7049  100.0337 N   0  0  0  0  0  0  0  0  0  0  0  0
  134.7435  151.0000  101.2086 C   0  0  0  0  0  0  0  0  0  0  0  0
  134.8566  152.3429  102.0041 C   0  0  0  0  0  0  0  0  0  0  0  0
  136.2147  152.8773  102.0417 O   0  0  0  0  0  0  0  0  0  0  0  0
  134.0002  152.9308  100.8304 C   0  0  0  0  0  0  0  0  0  0  0  0
  136.1031  153.7850  102.3711 H   0  0  0  0  0  0  0  0  0  0  0  0
  134.2675  152.3234  103.4148 C   0  0  0  0  0  0  0  0  0  0  0  0
  135.0259  152.4897  104.7022 C   0  0  0  0  0  0  0  0  0  0  0  0
  134.4164  151.1579  104.3568 C   0  0  0  0  0  0  0  0  0  0  0  0
 23 24  1  0  0  0
 24  1  1  0  0  0
  1  2  2  0  0  0
  2  3  1  0  0  0
  3  7  1  0  0  0
  7  8  1  0  0  0
  8  9  1  0  0  0
  9 10  2  0  0  0
 10 13  1  0  0  0
 13 14  1  0  0  0
 14 15  2  0  0  0
 15 16  1  0  0  0
 16 17  2  0  0  0
 17 20  1  0  0  0
 20 21  1  0  0  0
 21 22  1  0  0  0
 17 18  1  0  0  0
 18 19  2  0  0  0
 10 11  1  0  0  0
 11 12  2  0  0  0
  3  4  2  0  0  0
  4  5  1  0  0  0
  5  6  2  0  0  0
  6 25  1  0  0  0
 25 26  1  0  0  0
 26 27  1  0  0  0
 27 28  1  0  0  0
 28 29  1  0  0  0
 29 30  1  0  0  0
 30 31  1  0  0  0
 30 34  1  0  0  0
 34 35  1  0  0  0
 35 36  1  0  0  0
 30 32  1  0  0  0
  6  1  1  0  0  0
 32 28  1  0  0  0
 11  7  1  0  0  0
 36 34  1  0  0  0
 19 14  1  0  0  0
 22 20  1  0  0  0
 31 33  1  0  0  0
M  END
> <minimizedAffinity>
-8.92534

$$$$
