L4:Q99705:124879


 32 36  0  0  0  0  0  0  0  0999 V2000
  135.8658  141.2535  103.9302 C   0  0  0  0  0  0  0  0  0  0  0  0
  135.9673  142.4774  103.2342 C   0  0  0  0  0  0  0  0  0  0  0  0
  135.4079  142.6559  101.9645 C   0  0  0  0  0  0  0  0  0  0  0  0
  134.7387  141.5615  101.3999 C   0  0  0  0  0  0  0  0  0  0  0  0
  134.6373  140.3356  102.0737 C   0  0  0  0  0  0  0  0  0  0  0  0
  135.2054  140.1679  103.3348 C   0  0  0  0  0  0  0  0  0  0  0  0
  135.5064  143.8881  101.2589 N   0  0  0  0  0  0  0  0  0  0  0  0
  136.7215  144.3020  100.6009 C   0  0  0  0  0  0  0  0  0  0  0  0
  136.3511  145.6129  100.0174 C   0  0  0  0  0  0  0  0  0  0  0  0
  135.0935  145.9560  100.3036 C   0  0  0  0  0  0  0  0  0  0  0  0
  134.4894  144.8378  101.0811 C   0  0  0  0  0  0  0  0  0  0  0  0
  133.3270  144.8074  101.4450 O   0  0  0  0  0  0  0  0  0  0  0  0
  134.4737  147.0997   99.8651 O   0  0  0  0  0  0  0  0  0  0  0  0
  134.6581  148.2561  100.5801 C   0  0  0  0  0  0  0  0  0  0  0  0
  135.6068  149.1587  100.1098 C   0  0  0  0  0  0  0  0  0  0  0  0
  135.8692  150.3286  100.8282 C   0  0  0  0  0  0  0  0  0  0  0  0
  135.2104  150.6103  102.0371 C   0  0  0  0  0  0  0  0  0  0  0  0
  134.2671  149.6739  102.4941 C   0  0  0  0  0  0  0  0  0  0  0  0
  133.9978  148.5006  101.7827 C   0  0  0  0  0  0  0  0  0  0  0  0
  135.4805  151.8857  102.7980 C   0  0  0  0  0  0  0  0  0  0  0  0
  134.7439  152.1704  104.0868 C   0  0  0  0  0  0  0  0  0  0  0  0
  134.4285  152.9694  102.8595 C   0  0  0  0  0  0  0  0  0  0  0  0
  136.9618  142.4909  105.8244 C   0  0  0  0  0  0  0  0  0  0  0  0
  136.5075  141.1386  105.2957 C   0  0  0  0  0  0  0  0  0  0  0  0
  135.1589  139.0171  104.0726 O   0  0  0  0  0  0  0  0  0  0  0  0
  134.4106  137.9021  103.5788 C   0  0  0  0  0  0  0  0  0  0  0  0
  135.3073  136.6561  103.4634 C   0  0  0  0  0  0  0  0  0  0  0  0
  134.6691  135.3398  103.5114 N   0  0  0  0  0  0  0  0  0  0  0  0
  134.9349  134.4772  102.3657 C   0  0  0  0  0  0  0  0  0  0  0  0
  133.9785  133.3170  102.6012 C   0  0  0  0  0  0  0  0  0  0  0  0
  132.8398  133.9005  103.4338 C   0  0  0  0  0  0  0  0  0  0  0  0
  133.2197  135.3562  103.6696 C   0  0  0  0  0  0  0  0  0  0  0  0
 23 24  1  0  0  0
 24  1  1  0  0  0
  1  2  2  0  0  0
  2  3  1  0  0  0
  3  7  1  0  0  0
  7  8  1  0  0  0
  8  9  1  0  0  0
  9 10  2  0  0  0
 10 13  1  0  0  0
 13 14  1  0  0  0
 14 15  2  0  0  0
 15 16  1  0  0  0
 16 17  2  0  0  0
 17 20  1  0  0  0
 20 21  1  0  0  0
 21 22  1  0  0  0
 17 18  1  0  0  0
 18 19  2  0  0  0
 10 11  1  0  0  0
 11 12  2  0  0  0
  3  4  2  0  0  0
  4  5  1  0  0  0
  5  6  2  0  0  0
  6 25  1  0  0  0
 25 26  1  0  0  0
 26 27  1  0  0  0
 27 28  1  0  0  0
 28 29  1  0  0  0
 29 30  1  0  0  0
 30 31  1  0  0  0
 31 32  1  0  0  0
  6  1  1  0  0  0
 32 28  1  0  0  0
 11  7  1  0  0  0
 19 14  1  0  0  0
 22 20  1  0  0  0
M  END
> <minimizedAffinity>
-9.75805

$$$$
