L4:Q99705:124879
     RDKit          3D

 64 68  0  0  0  0  0  0  0  0999 V2000
   -0.6927   -2.0186   -2.9035 C   0  0  0  0  0  0  0  0  0  0  0  0
   -0.8289   -2.5188   -1.4731 C   0  0  0  0  0  0  0  0  0  0  0  0
   -1.0756   -1.3861   -0.5006 C   0  0  0  0  0  0  0  0  0  0  0  0
    0.0289   -0.8091    0.1624 C   0  0  0  0  0  0  0  0  0  0  0  0
   -0.1198    0.2470    1.0677 C   0  0  0  0  0  0  0  0  0  0  0  0
    0.9904    0.8316    1.7397 N   0  0  0  0  0  0  0  0  0  0  0  0
    0.8375    1.9215    2.6721 C   0  0  0  0  0  0  0  0  0  0  0  0
    2.2303    2.1837    3.1050 C   0  0  0  0  0  0  0  0  0  0  0  0
    3.1072    1.3800    2.4998 C   0  0  0  0  0  0  0  0  0  0  0  0
    4.4598    1.3774    2.7341 O   0  0  0  0  0  0  0  0  0  0  0  0
    5.3010    1.0751    1.6932 C   0  0  0  0  0  0  0  0  0  0  0  0
    6.2869    0.1197    1.9195 C   0  0  0  0  0  0  0  0  0  0  0  0
    7.2013   -0.1885    0.9083 C   0  0  0  0  0  0  0  0  0  0  0  0
    7.1658    0.4633   -0.3362 C   0  0  0  0  0  0  0  0  0  0  0  0
    8.1411    0.1112   -1.4332 C   0  0  0  0  0  0  0  0  0  0  0  0
    9.6290    0.1783   -1.1755 C   0  0  0  0  0  0  0  0  0  0  0  0
    8.9847    1.1900   -2.0731 C   0  0  0  0  0  0  0  0  0  0  0  0
    6.1673    1.4330   -0.5312 C   0  0  0  0  0  0  0  0  0  0  0  0
    5.2482    1.7485    0.4742 C   0  0  0  0  0  0  0  0  0  0  0  0
    2.3359    0.4511    1.6268 C   0  0  0  0  0  0  0  0  0  0  0  0
    2.8350   -0.4537    0.9812 O   0  0  0  0  0  0  0  0  0  0  0  0
   -1.4199    0.7198    1.2922 C   0  0  0  0  0  0  0  0  0  0  0  0
   -2.5270    0.1643    0.6343 C   0  0  0  0  0  0  0  0  0  0  0  0
   -2.3650   -0.8823   -0.2711 C   0  0  0  0  0  0  0  0  0  0  0  0
   -3.3778   -1.4921   -0.9590 O   0  0  0  0  0  0  0  0  0  0  0  0
   -4.6759   -0.8906   -0.9673 C   0  0  0  0  0  0  0  0  0  0  0  0
   -5.5395   -1.4496    0.1780 C   0  0  0  0  0  0  0  0  0  0  0  0
   -6.9004   -0.9332    0.3314 N   0  0  0  0  0  0  0  0  0  0  0  0
   -7.7764   -1.1370   -0.8169 C   0  0  0  0  0  0  0  0  0  0  0  0
   -9.0011   -0.3141   -0.4438 C   0  0  0  0  0  0  0  0  0  0  0  0
   -8.4835    0.7663    0.5023 C   0  0  0  0  0  0  0  0  0  0  0  0
   -6.9951    0.4847    0.6576 C   0  0  0  0  0  0  0  0  0  0  0  0
    0.1392   -1.3124   -2.9985 H   0  0  0  0  0  0  0  0  0  0  0  0
   -0.5043   -2.8576   -3.5809 H   0  0  0  0  0  0  0  0  0  0  0  0
   -1.6033   -1.5111   -3.2388 H   0  0  0  0  0  0  0  0  0  0  0  0
    0.0824   -3.0592   -1.1883 H   0  0  0  0  0  0  0  0  0  0  0  0
   -1.6379   -3.2560   -1.4068 H   0  0  0  0  0  0  0  0  0  0  0  0
    1.0107   -1.2183   -0.0587 H   0  0  0  0  0  0  0  0  0  0  0  0
    0.4127    2.7965    2.1704 H   0  0  0  0  0  0  0  0  0  0  0  0
    0.2180    1.6125    3.5199 H   0  0  0  0  0  0  0  0  0  0  0  0
    2.5010    2.9413    3.8250 H   0  0  0  0  0  0  0  0  0  0  0  0
    6.3385   -0.3964    2.8735 H   0  0  0  0  0  0  0  0  0  0  0  0
    7.9534   -0.9528    1.0918 H   0  0  0  0  0  0  0  0  0  0  0  0
    7.8108   -0.6873   -2.0957 H   0  0  0  0  0  0  0  0  0  0  0  0
    9.9802    0.5177   -0.2075 H   0  0  0  0  0  0  0  0  0  0  0  0
   10.2537   -0.5821   -1.6298 H   0  0  0  0  0  0  0  0  0  0  0  0
    9.1711    1.1182   -3.1385 H   0  0  0  0  0  0  0  0  0  0  0  0
    8.9047    2.2071   -1.7063 H   0  0  0  0  0  0  0  0  0  0  0  0
    6.1047    1.9515   -1.4855 H   0  0  0  0  0  0  0  0  0  0  0  0
    4.5017    2.5151    0.2933 H   0  0  0  0  0  0  0  0  0  0  0  0
   -1.6169    1.5316    1.9858 H   0  0  0  0  0  0  0  0  0  0  0  0
   -3.5042    0.5730    0.8679 H   0  0  0  0  0  0  0  0  0  0  0  0
   -5.1249   -1.1725   -1.9260 H   0  0  0  0  0  0  0  0  0  0  0  0
   -4.6146    0.2025   -0.9761 H   0  0  0  0  0  0  0  0  0  0  0  0
   -5.0125   -1.3162    1.1308 H   0  0  0  0  0  0  0  0  0  0  0  0
   -5.5936   -2.5404    0.0609 H   0  0  0  0  0  0  0  0  0  0  0  0
   -8.0307   -2.1910   -0.9651 H   0  0  0  0  0  0  0  0  0  0  0  0
   -7.3453   -0.7447   -1.7450 H   0  0  0  0  0  0  0  0  0  0  0  0
   -9.4824    0.1165   -1.3277 H   0  0  0  0  0  0  0  0  0  0  0  0
   -9.7425   -0.9345    0.0736 H   0  0  0  0  0  0  0  0  0  0  0  0
   -8.9983    0.6923    1.4674 H   0  0  0  0  0  0  0  0  0  0  0  0
   -8.6606    1.7704    0.1035 H   0  0  0  0  0  0  0  0  0  0  0  0
   -6.6501    0.7005    1.6736 H   0  0  0  0  0  0  0  0  0  0  0  0
   -6.4327    1.1128   -0.0424 H   0  0  0  0  0  0  0  0  0  0  0  0
  1  2  1  0
  2  3  1  0
  3  4  2  0
  4  5  1  0
  5  6  1  0
  6  7  1  0
  7  8  1  0
  8  9  2  0
  9 10  1  0
 10 11  1  0
 11 12  2  0
 12 13  1  0
 13 14  2  0
 14 15  1  0
 15 16  1  0
 16 17  1  0
 14 18  1  0
 18 19  2  0
  9 20  1  0
 20 21  2  0
  5 22  2  0
 22 23  1  0
 23 24  2  0
 24 25  1  0
 25 26  1  0
 26 27  1  0
 27 28  1  0
 28 29  1  0
 29 30  1  0
 30 31  1  0
 31 32  1  0
 24  3  1  0
 32 28  1  0
 20  6  1  0
 19 11  1  0
 17 15  1  0
  1 33  1  0
  1 34  1  0
  1 35  1  0
  2 36  1  0
  2 37  1  0
  4 38  1  0
  7 39  1  0
  7 40  1  0
  8 41  1  0
 12 42  1  0
 13 43  1  0
 15 44  1  0
 16 45  1  0
 16 46  1  0
 17 47  1  0
 17 48  1  0
 18 49  1  0
 19 50  1  0
 22 51  1  0
 23 52  1  0
 26 53  1  0
 26 54  1  0
 27 55  1  0
 27 56  1  0
 29 57  1  0
 29 58  1  0
 30 59  1  0
 30 60  1  0
 31 61  1  0
 31 62  1  0
 32 63  1  0
 32 64  1  0
M  END
>  <mol_id>  (1) 
124879

>  <source_index>  (1) 
9

>  <layer>  (1) 
L4

>  <uniprot>  (1) 
Q99705

>  <paff>  (1) 
9.3278999999999996

>  <smiles>  (1) 
CCc1cc(ccc1OCCN1CCCC1)N1CC=C(Oc2ccc(cc2)C2CC2)C1=O |t:20|

$$$$
