L4:Q99705:17978


 36 41  0  0  0  0  0  0  0  0999 V2000
  135.8052  141.0356  103.9967 C   0  0  0  0  0  0  0  0  0  0  0  0
  135.9161  142.2461  103.2805 C   0  0  0  0  0  0  0  0  0  0  0  0
  135.3759  142.4031  101.9939 C   0  0  0  0  0  0  0  0  0  0  0  0
  134.6989  141.3119  101.4470 C   0  0  0  0  0  0  0  0  0  0  0  0
  134.5733  140.1033  102.1489 C   0  0  0  0  0  0  0  0  0  0  0  0
  135.1285  139.9526  103.4185 C   0  0  0  0  0  0  0  0  0  0  0  0
  135.5280  143.6283  101.2864 N   0  0  0  0  0  0  0  0  0  0  0  0
  136.7789  144.0205  100.6862 C   0  0  0  0  0  0  0  0  0  0  0  0
  136.4445  145.3116  100.0399 C   0  0  0  0  0  0  0  0  0  0  0  0
  135.1632  145.6529  100.2270 C   0  0  0  0  0  0  0  0  0  0  0  0
  134.5360  144.5860  101.0490 C   0  0  0  0  0  0  0  0  0  0  0  0
  133.3666  144.6116  101.3990 O   0  0  0  0  0  0  0  0  0  0  0  0
  134.4625  146.7608   99.8222 O   0  0  0  0  0  0  0  0  0  0  0  0
  134.6961  147.9314  100.4980 C   0  0  0  0  0  0  0  0  0  0  0  0
  135.7287  148.7623  100.0753 C   0  0  0  0  0  0  0  0  0  0  0  0
  135.9775  149.9535  100.7616 C   0  0  0  0  0  0  0  0  0  0  0  0
  135.2228  150.3218  101.8900 C   0  0  0  0  0  0  0  0  0  0  0  0
  134.2003  149.4485  102.3029 C   0  0  0  0  0  0  0  0  0  0  0  0
  133.9395  148.2573  101.6204 C   0  0  0  0  0  0  0  0  0  0  0  0
  135.4785  151.6220  102.6113 C   0  0  0  0  0  0  0  0  0  0  0  0
  134.3559  152.3082  103.3552 C   0  0  0  0  0  0  0  0  0  0  0  0
  135.4730  151.6694  104.1224 C   0  0  0  0  0  0  0  0  0  0  0  0
  136.8326  142.3090  105.9047 C   0  0  0  0  0  0  0  0  0  0  0  0
  136.3925  140.9473  105.3886 C   0  0  0  0  0  0  0  0  0  0  0  0
  135.0593  138.8153  104.1740 O   0  0  0  0  0  0  0  0  0  0  0  0
  134.3548  137.6950  103.6283 C   0  0  0  0  0  0  0  0  0  0  0  0
  135.3676  136.5605  103.4174 C   0  0  0  0  0  0  0  0  0  0  0  0
  134.7787  135.2250  103.6039 N   0  0  0  0  0  0  0  0  0  0  0  0
  133.3132  135.2920  103.5152 C   0  0  0  0  0  0  0  0  0  0  0  0
  132.7113  133.8994  103.3741 C   0  0  0  0  0  0  0  0  0  0  0  0
  133.1500  133.2922  102.0376 C   0  0  0  0  0  0  0  0  0  0  0  0
  134.4889  133.8376  101.5389 C   0  0  0  0  0  0  0  0  0  0  0  0
  135.3760  134.2061  102.7255 C   0  0  0  0  0  0  0  0  0  0  0  0
  132.0573  133.2686  100.9457 C   0  0  0  0  0  0  0  0  0  0  0  0
  131.7485  131.8806  101.2327 O   0  0  0  0  0  0  0  0  0  0  0  0
  132.9789  131.7552  101.9935 C   0  0  0  0  0  0  0  0  0  0  0  0
 23 24  1  0  0  0
 24  1  1  0  0  0
  1  2  2  0  0  0
  2  3  1  0  0  0
  3  7  1  0  0  0
  7  8  1  0  0  0
  8  9  1  0  0  0
  9 10  2  0  0  0
 10 13  1  0  0  0
 13 14  1  0  0  0
 14 15  2  0  0  0
 15 16  1  0  0  0
 16 17  2  0  0  0
 17 20  1  0  0  0
 20 21  1  0  0  0
 21 22  1  0  0  0
 17 18  1  0  0  0
 18 19  2  0  0  0
 10 11  1  0  0  0
 11 12  2  0  0  0
  3  4  2  0  0  0
  4  5  1  0  0  0
  5  6  2  0  0  0
  6 25  1  0  0  0
 25 26  1  0  0  0
 26 27  1  0  0  0
 27 28  1  0  0  0
 28 29  1  0  0  0
 29 30  1  0  0  0
 30 31  1  0  0  0
 31 32  1  0  0  0
 32 33  1  0  0  0
 31 34  1  0  0  0
 34 35  1  0  0  0
 35 36  1  0  0  0
  6  1  1  0  0  0
 33 28  1  0  0  0
 11  7  1  0  0  0
 36 31  1  0  0  0
 19 14  1  0  0  0
 22 20  1  0  0  0
M  END
> <minimizedAffinity>
-10.44016

$$$$
