L4:Q99705:17978
     RDKit          3D

 72 77  0  0  0  0  0  0  0  0999 V2000
   -1.7107   -1.2599   -3.8615 C   0  0  0  0  0  0  0  0  0  0  0  0
   -1.1905    0.0650   -3.3245 C   0  0  0  0  0  0  0  0  0  0  0  0
   -0.6787   -0.0642   -1.9063 C   0  0  0  0  0  0  0  0  0  0  0  0
    0.6962   -0.2966   -1.6913 C   0  0  0  0  0  0  0  0  0  0  0  0
    1.2342   -0.4472   -0.4030 C   0  0  0  0  0  0  0  0  0  0  0  0
    2.6298   -0.6538   -0.2178 N   0  0  0  0  0  0  0  0  0  0  0  0
    3.5575   -0.6783   -1.3213 C   0  0  0  0  0  0  0  0  0  0  0  0
    4.8645   -0.8707   -0.6496 C   0  0  0  0  0  0  0  0  0  0  0  0
    4.7409   -0.9530    0.6813 C   0  0  0  0  0  0  0  0  0  0  0  0
    5.6836   -1.1491    1.6586 O   0  0  0  0  0  0  0  0  0  0  0  0
    6.9870   -0.8668    1.3377 C   0  0  0  0  0  0  0  0  0  0  0  0
    7.8749   -1.9170    1.1278 C   0  0  0  0  0  0  0  0  0  0  0  0
    9.2058   -1.6384    0.8066 C   0  0  0  0  0  0  0  0  0  0  0  0
    9.6776   -0.3165    0.7155 C   0  0  0  0  0  0  0  0  0  0  0  0
   11.1093   -0.0212    0.3424 C   0  0  0  0  0  0  0  0  0  0  0  0
   11.9647    0.8380    1.2449 C   0  0  0  0  0  0  0  0  0  0  0  0
   12.2445   -0.6297    1.1341 C   0  0  0  0  0  0  0  0  0  0  0  0
    8.7582    0.7210    0.9545 C   0  0  0  0  0  0  0  0  0  0  0  0
    7.4237    0.4535    1.2711 C   0  0  0  0  0  0  0  0  0  0  0  0
    3.2950   -0.8309    1.0003 C   0  0  0  0  0  0  0  0  0  0  0  0
    2.8549   -0.8761    2.1383 O   0  0  0  0  0  0  0  0  0  0  0  0
    0.3474   -0.3774    0.6725 C   0  0  0  0  0  0  0  0  0  0  0  0
   -1.0240   -0.1541    0.4757 C   0  0  0  0  0  0  0  0  0  0  0  0
   -1.5447    0.0114   -0.8066 C   0  0  0  0  0  0  0  0  0  0  0  0
   -2.8624    0.2352   -1.0943 O   0  0  0  0  0  0  0  0  0  0  0  0
   -3.7620    0.4193    0.0039 C   0  0  0  0  0  0  0  0  0  0  0  0
   -5.1248    0.8333   -0.5695 C   0  0  0  0  0  0  0  0  0  0  0  0
   -6.1285    1.0978    0.4734 N   0  0  0  0  0  0  0  0  0  0  0  0
   -7.1395    2.0466   -0.0143 C   0  0  0  0  0  0  0  0  0  0  0  0
   -8.3494    2.0778    0.9112 C   0  0  0  0  0  0  0  0  0  0  0  0
   -9.0502    0.7159    0.8730 C   0  0  0  0  0  0  0  0  0  0  0  0
   -8.1064   -0.4377    0.5303 C   0  0  0  0  0  0  0  0  0  0  0  0
   -6.7017   -0.1319    1.0441 C   0  0  0  0  0  0  0  0  0  0  0  0
  -10.3669    0.6860    0.0655 C   0  0  0  0  0  0  0  0  0  0  0  0
  -11.1553    0.8201    1.2757 O   0  0  0  0  0  0  0  0  0  0  0  0
   -9.9917    0.4932    2.0803 C   0  0  0  0  0  0  0  0  0  0  0  0
   -2.0521   -1.1382   -4.8959 H   0  0  0  0  0  0  0  0  0  0  0  0
   -0.9264   -2.0281   -3.8459 H   0  0  0  0  0  0  0  0  0  0  0  0
   -2.5555   -1.6306   -3.2687 H   0  0  0  0  0  0  0  0  0  0  0  0
   -1.9769    0.8272   -3.3780 H   0  0  0  0  0  0  0  0  0  0  0  0
   -0.3862    0.4297   -3.9736 H   0  0  0  0  0  0  0  0  0  0  0  0
    1.3344   -0.3594   -2.5675 H   0  0  0  0  0  0  0  0  0  0  0  0
    3.5334    0.2733   -1.8607 H   0  0  0  0  0  0  0  0  0  0  0  0
    3.3341   -1.5163   -1.9890 H   0  0  0  0  0  0  0  0  0  0  0  0
    5.7948   -0.9419   -1.1904 H   0  0  0  0  0  0  0  0  0  0  0  0
    7.5336   -2.9454    1.2031 H   0  0  0  0  0  0  0  0  0  0  0  0
    9.8896   -2.4657    0.6246 H   0  0  0  0  0  0  0  0  0  0  0  0
   11.2858    0.0921   -0.7266 H   0  0  0  0  0  0  0  0  0  0  0  0
   11.5468    1.2024    2.1771 H   0  0  0  0  0  0  0  0  0  0  0  0
   12.6614    1.5243    0.7784 H   0  0  0  0  0  0  0  0  0  0  0  0
   13.1309   -0.9369    0.5923 H   0  0  0  0  0  0  0  0  0  0  0  0
   12.0168   -1.2476    1.9950 H   0  0  0  0  0  0  0  0  0  0  0  0
    9.0903    1.7556    0.8948 H   0  0  0  0  0  0  0  0  0  0  0  0
    6.7331    1.2712    1.4643 H   0  0  0  0  0  0  0  0  0  0  0  0
    0.6861   -0.4928    1.6977 H   0  0  0  0  0  0  0  0  0  0  0  0
   -1.6520   -0.1189    1.3584 H   0  0  0  0  0  0  0  0  0  0  0  0
   -3.8490   -0.5210    0.5631 H   0  0  0  0  0  0  0  0  0  0  0  0
   -3.3992    1.2187    0.6629 H   0  0  0  0  0  0  0  0  0  0  0  0
   -5.4798    0.0845   -1.2879 H   0  0  0  0  0  0  0  0  0  0  0  0
   -4.9498    1.7401   -1.1658 H   0  0  0  0  0  0  0  0  0  0  0  0
   -6.6926    3.0456   -0.0548 H   0  0  0  0  0  0  0  0  0  0  0  0
   -7.4665    1.7900   -1.0332 H   0  0  0  0  0  0  0  0  0  0  0  0
   -9.0261    2.8834    0.6161 H   0  0  0  0  0  0  0  0  0  0  0  0
   -8.0187    2.3106    1.9315 H   0  0  0  0  0  0  0  0  0  0  0  0
   -8.4651   -1.3777    0.9593 H   0  0  0  0  0  0  0  0  0  0  0  0
   -8.0678   -0.5886   -0.5576 H   0  0  0  0  0  0  0  0  0  0  0  0
   -6.7392   -0.0039    2.1332 H   0  0  0  0  0  0  0  0  0  0  0  0
   -6.0582   -0.9998    0.8683 H   0  0  0  0  0  0  0  0  0  0  0  0
  -10.5346    1.5204   -0.6255 H   0  0  0  0  0  0  0  0  0  0  0  0
  -10.6004   -0.2539   -0.4449 H   0  0  0  0  0  0  0  0  0  0  0  0
  -10.0615   -0.5284    2.4659 H   0  0  0  0  0  0  0  0  0  0  0  0
   -9.8759    1.1825    2.9211 H   0  0  0  0  0  0  0  0  0  0  0  0
  1  2  1  0
  2  3  1  0
  3  4  2  0
  4  5  1  0
  5  6  1  0
  6  7  1  0
  7  8  1  0
  8  9  2  0
  9 10  1  0
 10 11  1  0
 11 12  2  0
 12 13  1  0
 13 14  2  0
 14 15  1  0
 15 16  1  0
 16 17  1  0
 14 18  1  0
 18 19  2  0
  9 20  1  0
 20 21  2  0
  5 22  2  0
 22 23  1  0
 23 24  2  0
 24 25  1  0
 25 26  1  0
 26 27  1  0
 27 28  1  0
 28 29  1  0
 29 30  1  0
 30 31  1  0
 31 32  1  0
 32 33  1  0
 31 34  1  0
 34 35  1  0
 35 36  1  0
 24  3  1  0
 33 28  1  0
 20  6  1  0
 36 31  1  0
 19 11  1  0
 17 15  1  0
  1 37  1  0
  1 38  1  0
  1 39  1  0
  2 40  1  0
  2 41  1  0
  4 42  1  0
  7 43  1  0
  7 44  1  0
  8 45  1  0
 12 46  1  0
 13 47  1  0
 15 48  1  0
 16 49  1  0
 16 50  1  0
 17 51  1  0
 17 52  1  0
 18 53  1  0
 19 54  1  0
 22 55  1  0
 23 56  1  0
 26 57  1  0
 26 58  1  0
 27 59  1  0
 27 60  1  0
 29 61  1  0
 29 62  1  0
 30 63  1  0
 30 64  1  0
 32 65  1  0
 32 66  1  0
 33 67  1  0
 33 68  1  0
 34 69  1  0
 34 70  1  0
 36 71  1  0
 36 72  1  0
M  END
>  <mol_id>  (1) 
17978

>  <source_index>  (1) 
0

>  <layer>  (1) 
L4

>  <uniprot>  (1) 
Q99705

>  <paff>  (1) 
9.3565000000000005

>  <smiles>  (1) 
CCc1cc(ccc1OCCN1CCC2(COC2)CC1)N1CC=C(Oc2ccc(cc2)C2CC2)C1=O |t:25|

$$$$
