L4:Q99705:30174


 29 32  0  0  0  0  0  0  0  0999 V2000
  135.5955  144.0052  101.2927 N   0  0  0  0  0  0  0  0  0  0  0  0
  136.7311  144.3808  100.4864 C   0  0  0  0  0  0  0  0  0  0  0  0
  136.3194  145.6904   99.9242 C   0  0  0  0  0  0  0  0  0  0  0  0
  135.0988  146.0569  100.3355 C   0  0  0  0  0  0  0  0  0  0  0  0
  134.5952  144.9824  101.2298 C   0  0  0  0  0  0  0  0  0  0  0  0
  133.5016  145.0236  101.7681 O   0  0  0  0  0  0  0  0  0  0  0  0
  136.2260  141.4216  103.9673 C   0  0  0  0  0  0  0  0  0  0  0  0
  136.2613  142.6227  103.2334 C   0  0  0  0  0  0  0  0  0  0  0  0
  135.5561  142.7875  102.0304 C   0  0  0  0  0  0  0  0  0  0  0  0
  134.8067  141.7006  101.5654 C   0  0  0  0  0  0  0  0  0  0  0  0
  134.7561  140.5037  102.2844 C   0  0  0  0  0  0  0  0  0  0  0  0
  135.4418  140.3605  103.4927 C   0  0  0  0  0  0  0  0  0  0  0  0
  136.5802  141.9644  106.2749 C   0  0  0  0  0  0  0  0  0  0  0  0
  136.9427  141.2193  105.1180 O   0  0  0  0  0  0  0  0  0  0  0  0
  135.2795  139.1226  104.0591 O   0  0  0  0  0  0  0  0  0  0  0  0
  134.4520  138.1891  103.3539 C   0  0  0  0  0  0  0  0  0  0  0  0
  135.0261  136.7954  103.5998 C   0  0  0  0  0  0  0  0  0  0  0  0
  135.8074  136.3749  102.4811 O   0  0  0  0  0  0  0  0  0  0  0  0
  136.4022  137.1211  102.2787 H   0  0  0  0  0  0  0  0  0  0  0  0
  134.3494  147.1721  100.0624 O   0  0  0  0  0  0  0  0  0  0  0  0
  134.6392  148.3184  100.7548 C   0  0  0  0  0  0  0  0  0  0  0  0
  133.8556  148.6802  101.8460 C   0  0  0  0  0  0  0  0  0  0  0  0
  134.1401  149.8623  102.5343 C   0  0  0  0  0  0  0  0  0  0  0  0
  135.1903  150.7090  102.1361 C   0  0  0  0  0  0  0  0  0  0  0  0
  135.9540  150.3182  101.0215 C   0  0  0  0  0  0  0  0  0  0  0  0
  135.6781  149.1382  100.3260 C   0  0  0  0  0  0  0  0  0  0  0  0
  135.5020  151.9780  102.8922 C   0  0  0  0  0  0  0  0  0  0  0  0
  135.2399  152.0581  104.3787 C   0  0  0  0  0  0  0  0  0  0  0  0
  134.3788  152.8346  103.4302 C   0  0  0  0  0  0  0  0  0  0  0  0
 13 14  1  0  0  0
 14  7  1  0  0  0
  7  8  2  0  0  0
  8  9  1  0  0  0
  9  1  1  0  0  0
  1  2  1  0  0  0
  2  3  1  0  0  0
  3  4  2  0  0  0
  4 20  1  0  0  0
 20 21  1  0  0  0
 21 22  2  0  0  0
 22 23  1  0  0  0
 23 24  2  0  0  0
 24 27  1  0  0  0
 27 28  1  0  0  0
 28 29  1  0  0  0
 24 25  1  0  0  0
 25 26  2  0  0  0
  4  5  1  0  0  0
  5  6  2  0  0  0
  9 10  2  0  0  0
 10 11  1  0  0  0
 11 12  2  0  0  0
 12 15  1  0  0  0
 15 16  1  0  0  0
 16 17  1  0  0  0
 17 18  1  0  0  0
 12  7  1  0  0  0
  5  1  1  0  0  0
 26 21  1  0  0  0
 29 27  1  0  0  0
 18 19  1  0  0  0
M  END
> <minimizedAffinity>
-8.55206

$$$$
