L4:Q99705:54330


 33 37  0  0  0  0  0  0  0  0999 V2000
  135.8547  140.8301  104.0347 C   0  0  0  0  0  0  0  0  0  0  0  0
  136.0251  142.0278  103.3178 C   0  0  0  0  0  0  0  0  0  0  0  0
  135.5122  142.2017  102.0239 C   0  0  0  0  0  0  0  0  0  0  0  0
  134.7980  141.1362  101.4720 C   0  0  0  0  0  0  0  0  0  0  0  0
  134.5997  139.9447  102.1843 C   0  0  0  0  0  0  0  0  0  0  0  0
  135.1271  139.7766  103.4671 C   0  0  0  0  0  0  0  0  0  0  0  0
  135.7112  143.4234  101.3221 N   0  0  0  0  0  0  0  0  0  0  0  0
  136.9576  143.7383  100.6668 C   0  0  0  0  0  0  0  0  0  0  0  0
  136.6959  145.0790  100.0907 C   0  0  0  0  0  0  0  0  0  0  0  0
  135.4700  145.5220  100.3772 C   0  0  0  0  0  0  0  0  0  0  0  0
  134.7752  144.4523  101.1465 C   0  0  0  0  0  0  0  0  0  0  0  0
  133.6119  144.5106  101.5054 O   0  0  0  0  0  0  0  0  0  0  0  0
  134.9454  146.7148   99.9456 O   0  0  0  0  0  0  0  0  0  0  0  0
  134.7902  147.7267  100.8593 C   0  0  0  0  0  0  0  0  0  0  0  0
  135.8700  148.2910  101.5357 C   0  0  0  0  0  0  0  0  0  0  0  0
  135.6554  149.3567  102.4153 C   0  0  0  0  0  0  0  0  0  0  0  0
  134.3728  149.8935  102.6204 C   0  0  0  0  0  0  0  0  0  0  0  0
  133.3066  149.3115  101.9137 C   0  0  0  0  0  0  0  0  0  0  0  0
  133.5110  148.2459  101.0324 C   0  0  0  0  0  0  0  0  0  0  0  0
  134.1444  151.0297  103.5876 C   0  0  0  0  0  0  0  0  0  0  0  0
  135.3198  151.7999  104.1440 C   0  0  0  0  0  0  0  0  0  0  0  0
  134.4027  152.4555  103.1573 C   0  0  0  0  0  0  0  0  0  0  0  0
  136.9096  142.1282  105.7292 C   0  0  0  0  0  0  0  0  0  0  0  0
  136.4332  140.8640  105.2796 O   0  0  0  0  0  0  0  0  0  0  0  0
  134.8968  138.6586  104.2194 O   0  0  0  0  0  0  0  0  0  0  0  0
  134.3898  137.5094  103.5340 C   0  0  0  0  0  0  0  0  0  0  0  0
  135.4304  136.3742  103.6147 C   0  0  0  0  0  0  0  0  0  0  0  0
  135.6817  135.6930  102.3219 N   0  0  0  0  0  0  0  0  0  0  0  0
  136.9766  134.9924  102.3387 C   0  0  0  0  0  0  0  0  0  0  0  0
  136.7282  133.6432  102.9957 C   0  0  0  0  0  0  0  0  0  0  0  0
  135.2586  133.3590  102.7442 C   0  0  0  0  0  0  0  0  0  0  0  0
  134.6341  133.1824  103.9411 F   0  0  0  0  0  0  0  0  0  0  0  0
  134.7102  134.6091  102.0633 C   0  0  0  0  0  0  0  0  0  0  0  0
 23 24  1  0  0  0
 24  1  1  0  0  0
  1  2  2  0  0  0
  2  3  1  0  0  0
  3  7  1  0  0  0
  7  8  1  0  0  0
  8  9  1  0  0  0
  9 10  2  0  0  0
 10 13  1  0  0  0
 13 14  1  0  0  0
 14 15  2  0  0  0
 15 16  1  0  0  0
 16 17  2  0  0  0
 17 20  1  0  0  0
 20 21  1  0  0  0
 21 22  1  0  0  0
 17 18  1  0  0  0
 18 19  2  0  0  0
 10 11  1  0  0  0
 11 12  2  0  0  0
  3  4  2  0  0  0
  4  5  1  0  0  0
  5  6  2  0  0  0
  6 25  1  0  0  0
 25 26  1  0  0  0
 26 27  1  0  0  0
 27 28  1  0  0  0
 28 29  1  0  0  0
 29 30  1  0  0  0
 30 31  1  0  0  0
 31 32  1  0  0  0
 31 33  1  0  0  0
  6  1  1  0  0  0
 33 28  1  0  0  0
 11  7  1  0  0  0
 19 14  1  0  0  0
 22 20  1  0  0  0
M  END
> <minimizedAffinity>
-9.03148

$$$$
