L4:Q99705:54330
     RDKit          3D

 62 66  0  0  0  0  0  0  0  0999 V2000
   -4.3604   -2.1520    1.8023 C   0  0  0  0  0  0  0  0  0  0  0  0
   -2.9766   -2.2993    2.1035 O   0  0  0  0  0  0  0  0  0  0  0  0
   -2.1064   -1.4873    1.4185 C   0  0  0  0  0  0  0  0  0  0  0  0
   -0.8308   -2.0583    1.2626 C   0  0  0  0  0  0  0  0  0  0  0  0
    0.2062   -1.3943    0.5908 C   0  0  0  0  0  0  0  0  0  0  0  0
    1.4828   -2.0049    0.4418 N   0  0  0  0  0  0  0  0  0  0  0  0
    1.7772   -3.3106    0.9807 C   0  0  0  0  0  0  0  0  0  0  0  0
    3.1917   -3.5167    0.5876 C   0  0  0  0  0  0  0  0  0  0  0  0
    3.6893   -2.4715   -0.0767 C   0  0  0  0  0  0  0  0  0  0  0  0
    4.9603   -2.4005   -0.5903 O   0  0  0  0  0  0  0  0  0  0  0  0
    5.5846   -1.1789   -0.6171 C   0  0  0  0  0  0  0  0  0  0  0  0
    5.7110   -0.3824    0.5194 C   0  0  0  0  0  0  0  0  0  0  0  0
    6.4055    0.8288    0.4421 C   0  0  0  0  0  0  0  0  0  0  0  0
    7.0040    1.2577   -0.7551 C   0  0  0  0  0  0  0  0  0  0  0  0
    7.7338    2.5765   -0.8377 C   0  0  0  0  0  0  0  0  0  0  0  0
    8.8708    2.8749    0.1124 C   0  0  0  0  0  0  0  0  0  0  0  0
    9.1600    2.6241   -1.3360 C   0  0  0  0  0  0  0  0  0  0  0  0
    6.8703    0.4262   -1.8801 C   0  0  0  0  0  0  0  0  0  0  0  0
    6.1780   -0.7863   -1.8128 C   0  0  0  0  0  0  0  0  0  0  0  0
    2.5926   -1.4754   -0.2317 C   0  0  0  0  0  0  0  0  0  0  0  0
    2.6961   -0.4322   -0.8533 O   0  0  0  0  0  0  0  0  0  0  0  0
   -0.0696   -0.1192    0.0928 C   0  0  0  0  0  0  0  0  0  0  0  0
   -1.3297    0.4725    0.2616 C   0  0  0  0  0  0  0  0  0  0  0  0
   -2.3600   -0.2034    0.9200 C   0  0  0  0  0  0  0  0  0  0  0  0
   -3.5784    0.3663    1.1649 O   0  0  0  0  0  0  0  0  0  0  0  0
   -4.0279    1.3588    0.2374 C   0  0  0  0  0  0  0  0  0  0  0  0
   -5.5415    1.5815    0.4310 C   0  0  0  0  0  0  0  0  0  0  0  0
   -6.3735    0.4030    0.0886 N   0  0  0  0  0  0  0  0  0  0  0  0
   -7.7688    0.6015    0.5148 C   0  0  0  0  0  0  0  0  0  0  0  0
   -8.4481    1.3960   -0.5902 C   0  0  0  0  0  0  0  0  0  0  0  0
   -7.6523    1.0708   -1.8411 C   0  0  1  0  0  0  0  0  0  0  0  0
   -7.1725    2.2299   -2.3703 F   0  0  0  0  0  0  0  0  0  0  0  0
   -6.4874    0.2047   -1.3719 C   0  0  0  0  0  0  0  0  0  0  0  0
   -4.5389   -2.0257    0.7291 H   0  0  0  0  0  0  0  0  0  0  0  0
   -4.8623   -3.0756    2.1078 H   0  0  0  0  0  0  0  0  0  0  0  0
   -4.7983   -1.3388    2.3881 H   0  0  0  0  0  0  0  0  0  0  0  0
   -0.6863   -3.0496    1.6819 H   0  0  0  0  0  0  0  0  0  0  0  0
    1.1318   -4.0661    0.5218 H   0  0  0  0  0  0  0  0  0  0  0  0
    1.6700   -3.3072    2.0699 H   0  0  0  0  0  0  0  0  0  0  0  0
    3.7521   -4.4101    0.8184 H   0  0  0  0  0  0  0  0  0  0  0  0
    5.2772   -0.6891    1.4658 H   0  0  0  0  0  0  0  0  0  0  0  0
    6.4820    1.4511    1.3311 H   0  0  0  0  0  0  0  0  0  0  0  0
    7.1085    3.4254   -1.1097 H   0  0  0  0  0  0  0  0  0  0  0  0
    8.9649    3.8892    0.4828 H   0  0  0  0  0  0  0  0  0  0  0  0
    9.1752    2.1152    0.8235 H   0  0  0  0  0  0  0  0  0  0  0  0
    9.4508    3.4677   -1.9513 H   0  0  0  0  0  0  0  0  0  0  0  0
    9.6578    1.6964   -1.5949 H   0  0  0  0  0  0  0  0  0  0  0  0
    7.3114    0.7302   -2.8268 H   0  0  0  0  0  0  0  0  0  0  0  0
    6.0928   -1.4123   -2.6960 H   0  0  0  0  0  0  0  0  0  0  0  0
    0.6841    0.4668   -0.4248 H   0  0  0  0  0  0  0  0  0  0  0  0
   -1.4623    1.4821   -0.1147 H   0  0  0  0  0  0  0  0  0  0  0  0
   -3.5157    2.3032    0.4567 H   0  0  0  0  0  0  0  0  0  0  0  0
   -3.8082    1.0656   -0.7952 H   0  0  0  0  0  0  0  0  0  0  0  0
   -5.6936    1.8068    1.4946 H   0  0  0  0  0  0  0  0  0  0  0  0
   -5.8491    2.4672   -0.1376 H   0  0  0  0  0  0  0  0  0  0  0  0
   -7.8642    1.0817    1.4948 H   0  0  0  0  0  0  0  0  0  0  0  0
   -8.2454   -0.3832    0.6028 H   0  0  0  0  0  0  0  0  0  0  0  0
   -8.4138    2.4711   -0.3818 H   0  0  0  0  0  0  0  0  0  0  0  0
   -9.4972    1.1007   -0.6925 H   0  0  0  0  0  0  0  0  0  0  0  0
   -8.2552    0.5739   -2.6066 H   0  0  0  0  0  0  0  0  0  0  0  0
   -6.7326   -0.8511   -1.5413 H   0  0  0  0  0  0  0  0  0  0  0  0
   -5.5662    0.4145   -1.9220 H   0  0  0  0  0  0  0  0  0  0  0  0
  1  2  1  0
  2  3  1  0
  3  4  2  0
  4  5  1  0
  5  6  1  0
  6  7  1  0
  7  8  1  0
  8  9  2  0
  9 10  1  0
 10 11  1  0
 11 12  2  0
 12 13  1  0
 13 14  2  0
 14 15  1  0
 15 16  1  0
 16 17  1  0
 14 18  1  0
 18 19  2  0
  9 20  1  0
 20 21  2  0
  5 22  2  0
 22 23  1  0
 23 24  2  0
 24 25  1  0
 25 26  1  0
 26 27  1  0
 27 28  1  0
 28 29  1  0
 29 30  1  0
 30 31  1  0
 31 32  1  0
 31 33  1  0
 24  3  1  0
 33 28  1  0
 20  6  1  0
 19 11  1  0
 17 15  1  0
  1 34  1  0
  1 35  1  0
  1 36  1  0
  4 37  1  0
  7 38  1  0
  7 39  1  0
  8 40  1  0
 12 41  1  0
 13 42  1  0
 15 43  1  0
 16 44  1  0
 16 45  1  0
 17 46  1  0
 17 47  1  0
 18 48  1  0
 19 49  1  0
 22 50  1  0
 23 51  1  0
 26 52  1  0
 26 53  1  0
 27 54  1  0
 27 55  1  0
 29 56  1  0
 29 57  1  0
 30 58  1  0
 30 59  1  0
 31 60  1  6
 33 61  1  0
 33 62  1  0
M  END
>  <mol_id>  (1) 
54330

>  <source_index>  (1) 
2

>  <layer>  (1) 
L4

>  <uniprot>  (1) 
Q99705

>  <paff>  (1) 
9.1937999999999995

>  <smiles>  (1) 
COc1cc(N2CC=C(Oc3ccc(C4CC4)cc3)C2=O)ccc1OCCN1CC[C@@H](F)C1

$$$$
