L4:Q99705:55671
     RDKit          3D

 65 69  0  0  0  0  0  0  0  0999 V2000
    3.2802   -0.3291   -1.5231 O   0  0  0  0  0  0  0  0  0  0  0  0
    2.6704   -1.2747   -1.0598 C   0  0  0  0  0  0  0  0  0  0  0  0
    3.2492   -2.4842   -0.4185 C   0  0  0  0  0  0  0  0  0  0  0  0
    4.5749   -2.8051   -0.2665 O   0  0  0  0  0  0  0  0  0  0  0  0
    5.4751   -1.7879   -0.0799 C   0  0  0  0  0  0  0  0  0  0  0  0
    6.5864   -1.7452   -0.9133 C   0  0  0  0  0  0  0  0  0  0  0  0
    7.5595   -0.7584   -0.7238 C   0  0  0  0  0  0  0  0  0  0  0  0
    7.4607    0.1973    0.3055 C   0  0  0  0  0  0  0  0  0  0  0  0
    8.5441    1.2496    0.4622 C   0  0  0  0  0  0  0  0  0  0  0  0
    8.9602    1.7525    1.8234 C   0  0  0  0  0  0  0  0  0  0  0  0
    8.2086    2.6581    0.8899 C   0  0  0  0  0  0  0  0  0  0  0  0
    6.3331    0.1085    1.1437 C   0  0  0  0  0  0  0  0  0  0  0  0
    5.3533   -0.8746    0.9636 C   0  0  0  0  0  0  0  0  0  0  0  0
    2.2260   -3.2708   -0.0666 C   0  0  0  0  0  0  0  0  0  0  0  0
    0.9054   -2.6725   -0.3862 C   0  0  0  0  0  0  0  0  0  0  0  0
    1.2910   -1.4417   -1.0275 N   0  0  0  0  0  0  0  0  0  0  0  0
    0.3491   -0.4158   -1.4774 C   0  0  1  0  0  0  0  0  0  0  0  0
   -0.8490   -0.9834   -2.2612 C   0  0  0  0  0  0  0  0  0  0  0  0
   -2.0971   -1.1288   -1.3911 C   0  0  0  0  0  0  0  0  0  0  0  0
   -2.5456    0.2188   -0.7990 C   0  0  2  0  0  0  0  0  0  0  0  0
   -3.4729    0.8564   -1.6837 O   0  0  0  0  0  0  0  0  0  0  0  0
   -4.8353    0.4607   -1.4875 C   0  0  0  0  0  0  0  0  0  0  0  0
   -5.5054    1.3487   -0.4231 C   0  0  0  0  0  0  0  0  0  0  0  0
   -6.9141    0.9830   -0.1890 N   0  0  0  0  0  0  0  0  0  0  0  0
   -7.6290    2.0398    0.5496 C   0  0  0  0  0  0  0  0  0  0  0  0
   -7.2913    1.8231    2.0161 C   0  0  0  0  0  0  0  0  0  0  0  0
   -7.1177    0.3157    2.1348 C   0  0  1  0  0  0  0  0  0  0  0  0
   -8.2287   -0.2341    2.8339 O   0  0  0  0  0  0  0  0  0  0  0  0
   -7.0485   -0.1958    0.6875 C   0  0  0  0  0  0  0  0  0  0  0  0
   -1.3801    1.1975   -0.5972 C   0  0  0  0  0  0  0  0  0  0  0  0
   -0.0778    0.4718   -0.2940 C   0  0  0  0  0  0  0  0  0  0  0  0
    6.6951   -2.4677   -1.7165 H   0  0  0  0  0  0  0  0  0  0  0  0
    8.4130   -0.7347   -1.3983 H   0  0  0  0  0  0  0  0  0  0  0  0
    9.3559    1.1781   -0.2624 H   0  0  0  0  0  0  0  0  0  0  0  0
    8.4492    1.3851    2.7050 H   0  0  0  0  0  0  0  0  0  0  0  0
   10.0140    1.9512    1.9850 H   0  0  0  0  0  0  0  0  0  0  0  0
    7.1820    2.9084    1.1290 H   0  0  0  0  0  0  0  0  0  0  0  0
    8.7529    3.4689    0.4182 H   0  0  0  0  0  0  0  0  0  0  0  0
    6.2055    0.8180    1.9575 H   0  0  0  0  0  0  0  0  0  0  0  0
    4.5060   -0.9152    1.6406 H   0  0  0  0  0  0  0  0  0  0  0  0
    2.3435   -4.2371    0.4005 H   0  0  0  0  0  0  0  0  0  0  0  0
    0.3272   -2.4655    0.5178 H   0  0  0  0  0  0  0  0  0  0  0  0
    0.3378   -3.3002   -1.0773 H   0  0  0  0  0  0  0  0  0  0  0  0
    0.9045    0.2238   -2.1765 H   0  0  0  0  0  0  0  0  0  0  0  0
   -1.0880   -0.2957   -3.0836 H   0  0  0  0  0  0  0  0  0  0  0  0
   -0.5985   -1.9401   -2.7332 H   0  0  0  0  0  0  0  0  0  0  0  0
   -2.8966   -1.5790   -1.9897 H   0  0  0  0  0  0  0  0  0  0  0  0
   -1.8798   -1.8246   -0.5724 H   0  0  0  0  0  0  0  0  0  0  0  0
   -3.0236    0.0360    0.1716 H   0  0  0  0  0  0  0  0  0  0  0  0
   -5.3480    0.5996   -2.4459 H   0  0  0  0  0  0  0  0  0  0  0  0
   -4.8941   -0.6041   -1.2387 H   0  0  0  0  0  0  0  0  0  0  0  0
   -4.9198    1.3418    0.5044 H   0  0  0  0  0  0  0  0  0  0  0  0
   -5.4475    2.3799   -0.7969 H   0  0  0  0  0  0  0  0  0  0  0  0
   -8.7072    1.9055    0.3945 H   0  0  0  0  0  0  0  0  0  0  0  0
   -7.3847    3.0514    0.2080 H   0  0  0  0  0  0  0  0  0  0  0  0
   -6.3458    2.3252    2.2534 H   0  0  0  0  0  0  0  0  0  0  0  0
   -8.0685    2.2245    2.6739 H   0  0  0  0  0  0  0  0  0  0  0  0
   -6.2059    0.0798    2.6940 H   0  0  0  0  0  0  0  0  0  0  0  0
   -8.1344   -1.2018    2.8262 H   0  0  0  0  0  0  0  0  0  0  0  0
   -6.2376   -0.9215    0.5638 H   0  0  0  0  0  0  0  0  0  0  0  0
   -7.9744   -0.7230    0.4255 H   0  0  0  0  0  0  0  0  0  0  0  0
   -1.6275    1.8840    0.2217 H   0  0  0  0  0  0  0  0  0  0  0  0
   -1.2505    1.8323   -1.4839 H   0  0  0  0  0  0  0  0  0  0  0  0
   -0.2050   -0.1241    0.6185 H   0  0  0  0  0  0  0  0  0  0  0  0
    0.7161    1.1963   -0.0752 H   0  0  0  0  0  0  0  0  0  0  0  0
  1  2  2  0
  2  3  1  0
  3  4  1  0
  4  5  1  0
  5  6  2  0
  6  7  1  0
  7  8  2  0
  8  9  1  0
  9 10  1  0
 10 11  1  0
  8 12  1  0
 12 13  2  0
  3 14  2  0
 14 15  1  0
 15 16  1  0
 16 17  1  0
 17 18  1  0
 18 19  1  0
 19 20  1  0
 20 21  1  0
 21 22  1  0
 22 23  1  0
 23 24  1  0
 24 25  1  0
 25 26  1  0
 26 27  1  0
 27 28  1  0
 27 29  1  0
 20 30  1  0
 30 31  1  0
 16  2  1  0
 31 17  1  0
 13  5  1  0
 29 24  1  0
 11  9  1  0
  6 32  1  0
  7 33  1  0
  9 34  1  0
 10 35  1  0
 10 36  1  0
 11 37  1  0
 11 38  1  0
 12 39  1  0
 13 40  1  0
 14 41  1  0
 15 42  1  0
 15 43  1  0
 17 44  1  6
 18 45  1  0
 18 46  1  0
 19 47  1  0
 19 48  1  0
 20 49  1  1
 22 50  1  0
 22 51  1  0
 23 52  1  0
 23 53  1  0
 25 54  1  0
 25 55  1  0
 26 56  1  0
 26 57  1  0
 27 58  1  1
 28 59  1  0
 29 60  1  0
 29 61  1  0
 30 62  1  0
 30 63  1  0
 31 64  1  0
 31 65  1  0
M  END
>  <mol_id>  (1) 
55671

>  <source_index>  (1) 
3

>  <layer>  (1) 
L4

>  <uniprot>  (1) 
Q99705

>  <paff>  (1) 
7.3872

>  <smiles>  (1) 
O[C@@H]1CCN(CCO[C@H]2CC[C@@H](CC2)N2CC=C(Oc3ccc(cc3)C3CC3)C2=O)C1 |r,wU:11.14,wD:8.7,1.0,t:17,(11.77,-.73,;10.44,-1.5,;9.19,-2.41,;7.95,-1.5,;8.42,-.04,;7.33,1.05,;5.85,.65,;4.76,1.74,;3.27,1.34,;2.18,2.43,;.69,2.03,;.29,.55,;1.38,-.54,;2.87,-.14,;-1.19,.15,;-2.1,-1.1,;-3.56,-.62,;-3.56,.92,;-4.9,1.69,;-6.23,.92,;-6.23,-.62,;-7.56,-1.39,;-8.9,-.62,;-8.9,.92,;-7.56,1.69,;-10.23,-1.39,;-11.77,-1.39,;-11,-2.73,;-2.1,1.39,;-1.33,2.73,;9.96,-.04,)|

$$$$
