L4:Q99705:55671
 OpenBabel09212618003D

 65 69  0  0  0  0  0  0  0  0999 V2000
  134.4136  144.3751  101.9793 O   0  0  0  0  0  0  0  0  0  0  0  0
  135.1298  144.4023  100.9960 C   0  0  0  0  0  0  0  0  0  0  0  0
  135.1476  145.4394   99.9314 C   0  0  0  0  0  0  0  0  0  0  0  0
  136.0736  145.0712   99.0389 C   0  0  0  0  0  0  0  0  0  0  0  0
  136.7737  143.8191   99.4211 C   0  0  0  0  0  0  0  0  0  0  0  0
  136.0941  143.4664  100.6412 N   0  0  0  0  0  0  0  0  0  0  0  0
  136.4570  142.3295  101.4884 C   0  0  1  0  0  0  0  0  0  0  0  0
  137.4036  142.7027  102.6445 C   0  0  0  0  0  0  0  0  0  0  0  0
  136.6606  142.8922  103.9666 C   0  0  0  0  0  0  0  0  0  0  0  0
  135.9114  141.6176  104.3932 C   0  0  1  0  0  0  0  0  0  0  0  0
  135.4806  140.7531  103.1999 C   0  0  0  0  0  0  0  0  0  0  0  0
  135.1910  141.5952  101.9663 C   0  0  0  0  0  0  0  0  0  0  0  0
  136.7593  140.8030  105.2096 O   0  0  0  0  0  0  0  0  0  0  0  0
  136.1013  140.2262  106.3433 C   0  0  0  0  0  0  0  0  0  0  0  0
  136.8728  140.5505  107.6357 C   0  0  0  0  0  0  0  0  0  0  0  0
  136.4998  141.8593  108.2019 N   0  0  0  0  0  0  0  0  0  0  0  0
  136.7516  141.9093  109.6537 C   0  0  0  0  0  0  0  0  0  0  0  0
  135.5507  141.2438  110.3069 C   0  0  0  0  0  0  0  0  0  0  0  0
  134.3945  141.5736  109.3736 C   0  0  1  0  0  0  0  0  0  0  0  0
  133.5522  142.5417  109.9890 O   0  0  0  0  0  0  0  0  0  0  0  0
  135.0521  142.1225  108.0979 C   0  0  0  0  0  0  0  0  0  0  0  0
  132.8698  142.7938  109.3439 H   0  0  0  0  0  0  0  0  0  0  0  0
  134.3339  146.5380   99.8111 O   0  0  0  0  0  0  0  0  0  0  0  0
  134.7087  147.6991  100.4365 C   0  0  0  0  0  0  0  0  0  0  0  0
  133.9666  148.1108  101.5371 C   0  0  0  0  0  0  0  0  0  0  0  0
  134.2775  149.3174  102.1727 C   0  0  0  0  0  0  0  0  0  0  0  0
  135.3198  150.1499  101.7220 C   0  0  0  0  0  0  0  0  0  0  0  0
  136.0343  149.7112  100.5910 C   0  0  0  0  0  0  0  0  0  0  0  0
  135.7319  148.5059   99.9469 C   0  0  0  0  0  0  0  0  0  0  0  0
  135.6171  151.4469  102.4534 C   0  0  0  0  0  0  0  0  0  0  0  0
  134.9474  151.7812  103.7643 C   0  0  0  0  0  0  0  0  0  0  0  0
  134.5939  152.5547  102.5261 C   0  0  0  0  0  0  0  0  0  0  0  0
  136.2792  145.6007   98.1773 H   0  0  0  0  0  0  0  0  0  0  0  0
  137.8161  143.9911   99.5907 H   0  0  0  0  0  0  0  0  0  0  0  0
  136.7428  143.0572   98.6704 H   0  0  0  0  0  0  0  0  0  0  0  0
  137.0260  141.6524  100.8862 H   0  0  0  0  0  0  0  0  0  0  0  0
  137.9045  143.6155  102.3977 H   0  0  0  0  0  0  0  0  0  0  0  0
  138.0968  141.8977  102.7719 H   0  0  0  0  0  0  0  0  0  0  0  0
  135.9537  143.6876  103.8549 H   0  0  0  0  0  0  0  0  0  0  0  0
  137.3828  143.1203  104.7224 H   0  0  0  0  0  0  0  0  0  0  0  0
  135.0413  141.9487  104.9207 H   0  0  0  0  0  0  0  0  0  0  0  0
  134.5962  140.2125  103.4654 H   0  0  0  0  0  0  0  0  0  0  0  0
  136.2838  140.0861  102.9657 H   0  0  0  0  0  0  0  0  0  0  0  0
  134.4373  142.3164  102.2043 H   0  0  0  0  0  0  0  0  0  0  0  0
  134.8569  140.9476  101.1828 H   0  0  0  0  0  0  0  0  0  0  0  0
  136.0518  139.1645  106.2195 H   0  0  0  0  0  0  0  0  0  0  0  0
  135.1151  140.6348  106.4166 H   0  0  0  0  0  0  0  0  0  0  0  0
  137.9203  140.5568  107.4177 H   0  0  0  0  0  0  0  0  0  0  0  0
  136.6261  139.8011  108.3585 H   0  0  0  0  0  0  0  0  0  0  0  0
  136.8392  142.9240  109.9817 H   0  0  0  0  0  0  0  0  0  0  0  0
  137.6643  141.4142  109.9118 H   0  0  0  0  0  0  0  0  0  0  0  0
  135.3777  141.6454  111.2835 H   0  0  0  0  0  0  0  0  0  0  0  0
  135.6852  140.1907  110.4400 H   0  0  0  0  0  0  0  0  0  0  0  0
  133.7797  140.7266  109.1513 H   0  0  0  0  0  0  0  0  0  0  0  0
  134.8761  143.1750  108.0191 H   0  0  0  0  0  0  0  0  0  0  0  0
  134.6432  141.6516  107.2285 H   0  0  0  0  0  0  0  0  0  0  0  0
  133.1887  147.5282  101.8843 H   0  0  0  0  0  0  0  0  0  0  0  0
  133.7267  149.6060  102.9963 H   0  0  0  0  0  0  0  0  0  0  0  0
  136.8031  150.2951  100.2264 H   0  0  0  0  0  0  0  0  0  0  0  0
  136.2654  148.2165   99.1123 H   0  0  0  0  0  0  0  0  0  0  0  0
  136.6305  151.3692  102.1188 H   0  0  0  0  0  0  0  0  0  0  0  0
  135.5072  152.2505  104.5461 H   0  0  0  0  0  0  0  0  0  0  0  0
  134.3935  151.2268  104.4928 H   0  0  0  0  0  0  0  0  0  0  0  0
  134.9022  153.5745  102.4266 H   0  0  0  0  0  0  0  0  0  0  0  0
  133.6844  152.7785  102.0088 H   0  0  0  0  0  0  0  0  0  0  0  0
  1  2  2  0  0  0  0
  2  3  1  0  0  0  0
  3 23  1  0  0  0  0
  3  4  2  0  0  0  0
  4  5  1  0  0  0  0
  4 33  1  0  0  0  0
  5  6  1  0  0  0  0
  5 34  1  0  0  0  0
  5 35  1  0  0  0  0
  6  7  1  0  0  0  0
  6  2  1  0  0  0  0
  7  8  1  0  0  0  0
  7 36  1  6  0  0  0
  8  9  1  0  0  0  0
  8 37  1  0  0  0  0
  8 38  1  0  0  0  0
  9 10  1  0  0  0  0
  9 39  1  0  0  0  0
  9 40  1  0  0  0  0
 10 13  1  0  0  0  0
 10 11  1  0  0  0  0
 10 41  1  1  0  0  0
 11 12  1  0  0  0  0
 11 42  1  0  0  0  0
 11 43  1  0  0  0  0
 12  7  1  0  0  0  0
 12 44  1  0  0  0  0
 12 45  1  0  0  0  0
 13 14  1  0  0  0  0
 14 15  1  0  0  0  0
 14 46  1  0  0  0  0
 14 47  1  0  0  0  0
 15 16  1  0  0  0  0
 15 48  1  0  0  0  0
 15 49  1  0  0  0  0
 16 17  1  0  0  0  0
 17 18  1  0  0  0  0
 17 50  1  0  0  0  0
 17 51  1  0  0  0  0
 18 19  1  0  0  0  0
 18 52  1  0  0  0  0
 18 53  1  0  0  0  0
 19 20  1  0  0  0  0
 19 21  1  0  0  0  0
 19 54  1  6  0  0  0
 20 22  1  0  0  0  0
 21 16  1  0  0  0  0
 21 55  1  0  0  0  0
 21 56  1  0  0  0  0
 23 24  1  0  0  0  0
 24 25  2  0  0  0  0
 25 26  1  0  0  0  0
 25 57  1  0  0  0  0
 26 27  2  0  0  0  0
 26 58  1  0  0  0  0
 27 30  1  0  0  0  0
 27 28  1  0  0  0  0
 28 29  2  0  0  0  0
 28 59  1  0  0  0  0
 29 24  1  0  0  0  0
 29 60  1  0  0  0  0
 30 31  1  0  0  0  0
 30 61  1  0  0  0  0
 31 32  1  0  0  0  0
 31 62  1  0  0  0  0
 31 63  1  0  0  0  0
 32 30  1  0  0  0  0
 32 64  1  0  0  0  0
 32 65  1  0  0  0  0
M  END
>  <minimizedAffinity>
-9.52076

$$$$
