L4:Q99705:55671


 32 36  0  0  0  0  0  0  0  0999 V2000
  134.4136  144.3751  101.9793 O   0  0  0  0  0  0  0  0  0  0  0  0
  135.1298  144.4023  100.9960 C   0  0  0  0  0  0  0  0  0  0  0  0
  135.1476  145.4394   99.9314 C   0  0  0  0  0  0  0  0  0  0  0  0
  136.0736  145.0712   99.0389 C   0  0  0  0  0  0  0  0  0  0  0  0
  136.7737  143.8191   99.4211 C   0  0  0  0  0  0  0  0  0  0  0  0
  136.0941  143.4664  100.6412 N   0  0  0  0  0  0  0  0  0  0  0  0
  136.4570  142.3295  101.4884 C   0  0  0  0  0  0  0  0  0  0  0  0
  137.4036  142.7027  102.6445 C   0  0  0  0  0  0  0  0  0  0  0  0
  136.6606  142.8922  103.9666 C   0  0  0  0  0  0  0  0  0  0  0  0
  135.9114  141.6176  104.3932 C   0  0  0  0  0  0  0  0  0  0  0  0
  135.4806  140.7531  103.1999 C   0  0  0  0  0  0  0  0  0  0  0  0
  135.1910  141.5952  101.9663 C   0  0  0  0  0  0  0  0  0  0  0  0
  136.7593  140.8030  105.2096 O   0  0  0  0  0  0  0  0  0  0  0  0
  136.1013  140.2262  106.3433 C   0  0  0  0  0  0  0  0  0  0  0  0
  136.8728  140.5505  107.6357 C   0  0  0  0  0  0  0  0  0  0  0  0
  136.4998  141.8593  108.2019 N   0  0  0  0  0  0  0  0  0  0  0  0
  136.7516  141.9093  109.6537 C   0  0  0  0  0  0  0  0  0  0  0  0
  135.5507  141.2438  110.3069 C   0  0  0  0  0  0  0  0  0  0  0  0
  134.3945  141.5736  109.3736 C   0  0  0  0  0  0  0  0  0  0  0  0
  133.5522  142.5417  109.9890 O   0  0  0  0  0  0  0  0  0  0  0  0
  135.0521  142.1225  108.0979 C   0  0  0  0  0  0  0  0  0  0  0  0
  132.8698  142.7938  109.3439 H   0  0  0  0  0  0  0  0  0  0  0  0
  134.3339  146.5380   99.8111 O   0  0  0  0  0  0  0  0  0  0  0  0
  134.7087  147.6991  100.4365 C   0  0  0  0  0  0  0  0  0  0  0  0
  133.9666  148.1108  101.5371 C   0  0  0  0  0  0  0  0  0  0  0  0
  134.2775  149.3174  102.1727 C   0  0  0  0  0  0  0  0  0  0  0  0
  135.3198  150.1499  101.7220 C   0  0  0  0  0  0  0  0  0  0  0  0
  136.0343  149.7112  100.5910 C   0  0  0  0  0  0  0  0  0  0  0  0
  135.7319  148.5059   99.9469 C   0  0  0  0  0  0  0  0  0  0  0  0
  135.6171  151.4469  102.4534 C   0  0  0  0  0  0  0  0  0  0  0  0
  134.9474  151.7812  103.7643 C   0  0  0  0  0  0  0  0  0  0  0  0
  134.5939  152.5547  102.5261 C   0  0  0  0  0  0  0  0  0  0  0  0
  1  2  2  0  0  0
  2  3  1  0  0  0
  3 23  1  0  0  0
 23 24  1  0  0  0
 24 25  2  0  0  0
 25 26  1  0  0  0
 26 27  2  0  0  0
 27 30  1  0  0  0
 30 31  1  0  0  0
 31 32  1  0  0  0
 27 28  1  0  0  0
 28 29  2  0  0  0
  3  4  2  0  0  0
  4  5  1  0  0  0
  5  6  1  0  0  0
  6  7  1  0  0  0
  7  8  1  0  0  0
  8  9  1  0  0  0
  9 10  1  0  0  0
 10 13  1  0  0  0
 13 14  1  0  0  0
 14 15  1  0  0  0
 15 16  1  0  0  0
 16 17  1  0  0  0
 17 18  1  0  0  0
 18 19  1  0  0  0
 19 20  1  0  0  0
 19 21  1  0  0  0
 10 11  1  0  0  0
 11 12  1  0  0  0
  6  2  1  0  0  0
 12  7  1  0  0  0
 29 24  1  0  0  0
 21 16  1  0  0  0
 32 30  1  0  0  0
 20 22  1  0  0  0
M  END
> <minimizedAffinity>
-9.52076

$$$$
