L4:Q99705:66091
     RDKit          3D

 66 70  0  0  0  0  0  0  0  0999 V2000
   -0.1593    2.0961   -1.4489 C   0  0  0  0  0  0  0  0  0  0  0  0
   -1.1645    1.5685   -0.5944 O   0  0  0  0  0  0  0  0  0  0  0  0
   -0.8964    0.3875    0.0553 C   0  0  0  0  0  0  0  0  0  0  0  0
    0.3344   -0.2871   -0.0054 C   0  0  0  0  0  0  0  0  0  0  0  0
    0.5508   -1.4881    0.6844 C   0  0  0  0  0  0  0  0  0  0  0  0
    1.7966   -2.1776    0.6301 N   0  0  0  0  0  0  0  0  0  0  0  0
    2.0324   -3.3991    1.3609 C   0  0  0  0  0  0  0  0  0  0  0  0
    3.4324   -3.7314    1.0060 C   0  0  0  0  0  0  0  0  0  0  0  0
    3.9756   -2.8257    0.1902 C   0  0  0  0  0  0  0  0  0  0  0  0
    5.2455   -2.8961   -0.3262 O   0  0  0  0  0  0  0  0  0  0  0  0
    5.9247   -1.7250   -0.5468 C   0  0  0  0  0  0  0  0  0  0  0  0
    6.0996   -0.7666    0.4479 C   0  0  0  0  0  0  0  0  0  0  0  0
    6.8486    0.3850    0.1791 C   0  0  0  0  0  0  0  0  0  0  0  0
    7.4529    0.6040   -1.0733 C   0  0  0  0  0  0  0  0  0  0  0  0
    8.2691    1.8398   -1.4084 C   0  0  0  0  0  0  0  0  0  0  0  0
    7.8950    3.1959   -0.8606 C   0  0  0  0  0  0  0  0  0  0  0  0
    9.1395    2.5104   -0.3732 C   0  0  0  0  0  0  0  0  0  0  0  0
    7.2727   -0.3985   -2.0453 C   0  0  0  0  0  0  0  0  0  0  0  0
    6.5262   -1.5531   -1.7879 C   0  0  0  0  0  0  0  0  0  0  0  0
    2.9271   -1.8130   -0.1167 C   0  0  0  0  0  0  0  0  0  0  0  0
    3.0778   -0.8845   -0.8913 O   0  0  0  0  0  0  0  0  0  0  0  0
   -0.5092   -1.9957    1.4488 C   0  0  0  0  0  0  0  0  0  0  0  0
   -1.7417   -1.3334    1.5203 C   0  0  0  0  0  0  0  0  0  0  0  0
   -1.9462   -0.1418    0.8259 C   0  0  0  0  0  0  0  0  0  0  0  0
   -3.1148    0.5757    0.8367 O   0  0  0  0  0  0  0  0  0  0  0  0
   -4.2207    0.0462    1.5671 C   0  0  0  0  0  0  0  0  0  0  0  0
   -5.4314    0.9911    1.4378 C   0  0  0  0  0  0  0  0  0  0  0  0
   -5.9954    1.0927    0.0873 N   0  0  0  0  0  0  0  0  0  0  0  0
   -7.0368    2.1117   -0.0050 C   0  0  0  0  0  0  0  0  0  0  0  0
   -7.7282    1.8198   -1.3277 C   0  0  0  0  0  0  0  0  0  0  0  0
   -7.2816    0.4170   -1.7235 C   0  0  0  0  0  0  0  0  0  0  0  0
   -6.5265   -0.1391   -0.5137 C   0  0  2  0  0  0  0  0  0  0  0  0
   -7.4171   -1.0556    0.3632 C   0  0  0  0  0  0  0  0  0  0  0  0
   -8.5718   -0.4152    0.8948 O   0  0  0  0  0  0  0  0  0  0  0  0
   -0.5578    3.0043   -1.9113 H   0  0  0  0  0  0  0  0  0  0  0  0
    0.7327    2.3786   -0.8803 H   0  0  0  0  0  0  0  0  0  0  0  0
    0.0861    1.3952   -2.2536 H   0  0  0  0  0  0  0  0  0  0  0  0
    1.1340    0.1403   -0.5953 H   0  0  0  0  0  0  0  0  0  0  0  0
    1.3485   -4.1834    1.0214 H   0  0  0  0  0  0  0  0  0  0  0  0
    1.9320   -3.2256    2.4368 H   0  0  0  0  0  0  0  0  0  0  0  0
    3.9513   -4.6050    1.3711 H   0  0  0  0  0  0  0  0  0  0  0  0
    5.6635   -0.9002    1.4328 H   0  0  0  0  0  0  0  0  0  0  0  0
    6.9577    1.1231    0.9700 H   0  0  0  0  0  0  0  0  0  0  0  0
    8.6737    1.8570   -2.4210 H   0  0  0  0  0  0  0  0  0  0  0  0
    8.0087    4.0515   -1.5172 H   0  0  0  0  0  0  0  0  0  0  0  0
    7.0538    3.2802   -0.1830 H   0  0  0  0  0  0  0  0  0  0  0  0
    9.1518    2.1274    0.6400 H   0  0  0  0  0  0  0  0  0  0  0  0
   10.0965    2.9029   -0.6993 H   0  0  0  0  0  0  0  0  0  0  0  0
    7.7214   -0.2789   -3.0294 H   0  0  0  0  0  0  0  0  0  0  0  0
    6.4084   -2.3064   -2.5612 H   0  0  0  0  0  0  0  0  0  0  0  0
   -0.4137   -2.9191    2.0118 H   0  0  0  0  0  0  0  0  0  0  0  0
   -2.5192   -1.7781    2.1318 H   0  0  0  0  0  0  0  0  0  0  0  0
   -3.9553   -0.0134    2.6299 H   0  0  0  0  0  0  0  0  0  0  0  0
   -4.4762   -0.9555    1.2048 H   0  0  0  0  0  0  0  0  0  0  0  0
   -6.2009    0.6834    2.1558 H   0  0  0  0  0  0  0  0  0  0  0  0
   -5.0948    1.9920    1.7381 H   0  0  0  0  0  0  0  0  0  0  0  0
   -7.7579    2.0433    0.8180 H   0  0  0  0  0  0  0  0  0  0  0  0
   -6.6132    3.1215    0.0032 H   0  0  0  0  0  0  0  0  0  0  0  0
   -7.4342    2.5405   -2.0990 H   0  0  0  0  0  0  0  0  0  0  0  0
   -8.8167    1.8730   -1.2189 H   0  0  0  0  0  0  0  0  0  0  0  0
   -8.1261   -0.2077   -2.0322 H   0  0  0  0  0  0  0  0  0  0  0  0
   -6.6021    0.4906   -2.5825 H   0  0  0  0  0  0  0  0  0  0  0  0
   -5.6921   -0.7525   -0.8753 H   0  0  0  0  0  0  0  0  0  0  0  0
   -6.8458   -1.4555    1.2063 H   0  0  0  0  0  0  0  0  0  0  0  0
   -7.7563   -1.9151   -0.2260 H   0  0  0  0  0  0  0  0  0  0  0  0
   -9.1170   -0.1231    0.1457 H   0  0  0  0  0  0  0  0  0  0  0  0
  1  2  1  0
  2  3  1  0
  3  4  2  0
  4  5  1  0
  5  6  1  0
  6  7  1  0
  7  8  1  0
  8  9  2  0
  9 10  1  0
 10 11  1  0
 11 12  2  0
 12 13  1  0
 13 14  2  0
 14 15  1  0
 15 16  1  0
 16 17  1  0
 14 18  1  0
 18 19  2  0
  9 20  1  0
 20 21  2  0
  5 22  2  0
 22 23  1  0
 23 24  2  0
 24 25  1  0
 25 26  1  0
 26 27  1  0
 27 28  1  0
 28 29  1  0
 29 30  1  0
 30 31  1  0
 31 32  1  0
 32 33  1  0
 33 34  1  0
 24  3  1  0
 32 28  1  0
 20  6  1  0
 19 11  1  0
 17 15  1  0
  1 35  1  0
  1 36  1  0
  1 37  1  0
  4 38  1  0
  7 39  1  0
  7 40  1  0
  8 41  1  0
 12 42  1  0
 13 43  1  0
 15 44  1  0
 16 45  1  0
 16 46  1  0
 17 47  1  0
 17 48  1  0
 18 49  1  0
 19 50  1  0
 22 51  1  0
 23 52  1  0
 26 53  1  0
 26 54  1  0
 27 55  1  0
 27 56  1  0
 29 57  1  0
 29 58  1  0
 30 59  1  0
 30 60  1  0
 31 61  1  0
 31 62  1  0
 32 63  1  6
 33 64  1  0
 33 65  1  0
 34 66  1  0
M  END
>  <mol_id>  (1) 
66091

>  <source_index>  (1) 
4

>  <layer>  (1) 
L4

>  <uniprot>  (1) 
Q99705

>  <paff>  (1) 
9.1870999999999992

>  <smiles>  (1) 
COc1cc(N2CC=C(Oc3ccc(C4CC4)cc3)C2=O)ccc1OCCN1CCC[C@@H]1CO

$$$$
