L4:Q99705:66091
 OpenBabel09212618013D

 66 70  0  0  0  0  0  0  0  0999 V2000
  135.8315  141.1447  103.9519 C   0  0  0  0  0  0  0  0  0  0  0  0
  135.9395  142.3578  103.2517 C   0  0  0  0  0  0  0  0  0  0  0  0
  135.4057  142.5157  101.9652 C   0  0  0  0  0  0  0  0  0  0  0  0
  134.7596  141.4112  101.3923 C   0  0  0  0  0  0  0  0  0  0  0  0
  134.6455  140.1946  102.0776 C   0  0  0  0  0  0  0  0  0  0  0  0
  135.1766  140.0513  103.3587 C   0  0  0  0  0  0  0  0  0  0  0  0
  135.5127  143.7418  101.2472 N   0  0  0  0  0  0  0  0  0  0  0  0
  136.7342  144.1476  100.5953 C   0  0  0  0  0  0  0  0  0  0  0  0
  136.3727  145.4564  100.0013 C   0  0  0  0  0  0  0  0  0  0  0  0
  135.1135  145.8044  100.2735 C   0  0  0  0  0  0  0  0  0  0  0  0
  134.4991  144.6919  101.0506 C   0  0  0  0  0  0  0  0  0  0  0  0
  133.3317  144.6631  101.3990 O   0  0  0  0  0  0  0  0  0  0  0  0
  134.5004  146.9473   99.8238 O   0  0  0  0  0  0  0  0  0  0  0  0
  134.6704  148.1033  100.5422 C   0  0  0  0  0  0  0  0  0  0  0  0
  133.9879  148.3490  101.7306 C   0  0  0  0  0  0  0  0  0  0  0  0
  134.2429  149.5234  102.4483 C   0  0  0  0  0  0  0  0  0  0  0  0
  135.1894  150.4704  102.0135 C   0  0  0  0  0  0  0  0  0  0  0  0
  135.8755  150.1752  100.8200 C   0  0  0  0  0  0  0  0  0  0  0  0
  135.6287  149.0050  100.0946 C   0  0  0  0  0  0  0  0  0  0  0  0
  135.4936  151.7582  102.7582 C   0  0  0  0  0  0  0  0  0  0  0  0
  134.4979  152.8923  102.7975 C   0  0  0  0  0  0  0  0  0  0  0  0
  134.7858  152.1069  104.0452 C   0  0  0  0  0  0  0  0  0  0  0  0
  137.0055  142.0107  105.8484 C   0  0  0  0  0  0  0  0  0  0  0  0
  136.3385  140.9301  105.2111 O   0  0  0  0  0  0  0  0  0  0  0  0
  135.1145  138.9019  104.1040 O   0  0  0  0  0  0  0  0  0  0  0  0
  134.5277  137.7459  103.5071 C   0  0  0  0  0  0  0  0  0  0  0  0
  135.5463  136.5894  103.4984 C   0  0  0  0  0  0  0  0  0  0  0  0
  135.2209  135.4851  102.5891 N   0  0  0  0  0  0  0  0  0  0  0  0
  134.4526  134.4319  103.2463 C   0  0  0  0  0  0  0  0  0  0  0  0
  134.5321  133.2566  102.2845 C   0  0  0  0  0  0  0  0  0  0  0  0
  135.6611  133.5936  101.3171 C   0  0  0  0  0  0  0  0  0  0  0  0
  136.3395  134.8431  101.8840 C   0  0  2  0  0  0  0  0  0  0  0  0
  137.6154  134.5013  102.6948 C   0  0  0  0  0  0  0  0  0  0  0  0
  138.7665  135.2488  102.3179 O   0  0  0  0  0  0  0  0  0  0  0  0
  138.5727  136.1873  102.4771 H   0  0  0  0  0  0  0  0  0  0  0  0
  136.4243  143.1532  103.6959 H   0  0  0  0  0  0  0  0  0  0  0  0
  134.3592  141.4962  100.4449 H   0  0  0  0  0  0  0  0  0  0  0  0
  134.1646  139.3983  101.6307 H   0  0  0  0  0  0  0  0  0  0  0  0
  137.0180  143.4465   99.8385 H   0  0  0  0  0  0  0  0  0  0  0  0
  137.5706  144.2017  101.2604 H   0  0  0  0  0  0  0  0  0  0  0  0
  137.0205  146.0325   99.4414 H   0  0  0  0  0  0  0  0  0  0  0  0
  133.2965  147.6677  102.0811 H   0  0  0  0  0  0  0  0  0  0  0  0
  133.7220  149.7001  103.3215 H   0  0  0  0  0  0  0  0  0  0  0  0
  136.5813  150.8419  100.4701 H   0  0  0  0  0  0  0  0  0  0  0  0
  136.1568  148.8116   99.2293 H   0  0  0  0  0  0  0  0  0  0  0  0
  136.5159  151.6550  102.4596 H   0  0  0  0  0  0  0  0  0  0  0  0
  133.5519  152.7903  102.3080 H   0  0  0  0  0  0  0  0  0  0  0  0
  134.5228  153.9292  102.5347 H   0  0  0  0  0  0  0  0  0  0  0  0
  134.0447  151.4459  104.4437 H   0  0  0  0  0  0  0  0  0  0  0  0
  135.1004  152.3536  105.0377 H   0  0  0  0  0  0  0  0  0  0  0  0
  137.3444  141.7005  106.8148 H   0  0  0  0  0  0  0  0  0  0  0  0
  136.3302  142.8339  105.9545 H   0  0  0  0  0  0  0  0  0  0  0  0
  137.8442  142.3114  105.2559 H   0  0  0  0  0  0  0  0  0  0  0  0
  134.2391  137.9727  102.5020 H   0  0  0  0  0  0  0  0  0  0  0  0
  133.6670  137.4546  104.0721 H   0  0  0  0  0  0  0  0  0  0  0  0
  135.6093  136.1948  104.4910 H   0  0  0  0  0  0  0  0  0  0  0  0
  136.4680  137.0046  103.1477 H   0  0  0  0  0  0  0  0  0  0  0  0
  133.4370  134.7365  103.3902 H   0  0  0  0  0  0  0  0  0  0  0  0
  134.8323  134.1929  104.2177 H   0  0  0  0  0  0  0  0  0  0  0  0
  133.6087  133.1435  101.7559 H   0  0  0  0  0  0  0  0  0  0  0  0
  134.7132  132.3359  102.7988 H   0  0  0  0  0  0  0  0  0  0  0  0
  135.2686  133.7931  100.3419 H   0  0  0  0  0  0  0  0  0  0  0  0
  136.3510  132.7815  101.2200 H   0  0  0  0  0  0  0  0  0  0  0  0
  136.7680  135.5180  101.1727 H   0  0  0  0  0  0  0  0  0  0  0  0
  137.8310  133.4622  102.5581 H   0  0  0  0  0  0  0  0  0  0  0  0
  137.4072  134.7522  103.7139 H   0  0  0  0  0  0  0  0  0  0  0  0
  1  2  2  0  0  0  0
  2  3  1  0  0  0  0
  2 36  1  0  0  0  0
  3  7  1  0  0  0  0
  3  4  2  0  0  0  0
  4  5  1  0  0  0  0
  4 37  1  0  0  0  0
  5  6  2  0  0  0  0
  5 38  1  0  0  0  0
  6 25  1  0  0  0  0
  6  1  1  0  0  0  0
  7  8  1  0  0  0  0
  8  9  1  0  0  0  0
  8 39  1  0  0  0  0
  8 40  1  0  0  0  0
  9 10  2  0  0  0  0
  9 41  1  0  0  0  0
 10 13  1  0  0  0  0
 10 11  1  0  0  0  0
 11 12  2  0  0  0  0
 11  7  1  0  0  0  0
 13 14  1  0  0  0  0
 14 15  2  0  0  0  0
 15 16  1  0  0  0  0
 15 42  1  0  0  0  0
 16 17  2  0  0  0  0
 16 43  1  0  0  0  0
 17 20  1  0  0  0  0
 17 18  1  0  0  0  0
 18 19  2  0  0  0  0
 18 44  1  0  0  0  0
 19 14  1  0  0  0  0
 19 45  1  0  0  0  0
 20 21  1  0  0  0  0
 20 46  1  0  0  0  0
 21 22  1  0  0  0  0
 21 47  1  0  0  0  0
 21 48  1  0  0  0  0
 22 20  1  0  0  0  0
 22 49  1  0  0  0  0
 22 50  1  0  0  0  0
 23 24  1  0  0  0  0
 23 51  1  0  0  0  0
 23 52  1  0  0  0  0
 23 53  1  0  0  0  0
 24  1  1  0  0  0  0
 25 26  1  0  0  0  0
 26 27  1  0  0  0  0
 26 54  1  0  0  0  0
 26 55  1  0  0  0  0
 27 28  1  0  0  0  0
 27 56  1  0  0  0  0
 27 57  1  0  0  0  0
 28 29  1  0  0  0  0
 29 30  1  0  0  0  0
 29 58  1  0  0  0  0
 29 59  1  0  0  0  0
 30 31  1  0  0  0  0
 30 60  1  0  0  0  0
 30 61  1  0  0  0  0
 31 32  1  0  0  0  0
 31 62  1  0  0  0  0
 31 63  1  0  0  0  0
 32 33  1  0  0  0  0
 32 28  1  0  0  0  0
 32 64  1  6  0  0  0
 33 34  1  0  0  0  0
 33 65  1  0  0  0  0
 33 66  1  0  0  0  0
 34 35  1  0  0  0  0
M  END
>  <minimizedAffinity>
-9.40932

$$$$
