L4:Q99705:66091


 35 39  0  0  0  0  0  0  0  0999 V2000
  135.8315  141.1447  103.9519 C   0  0  0  0  0  0  0  0  0  0  0  0
  135.9395  142.3578  103.2517 C   0  0  0  0  0  0  0  0  0  0  0  0
  135.4057  142.5157  101.9652 C   0  0  0  0  0  0  0  0  0  0  0  0
  134.7596  141.4112  101.3923 C   0  0  0  0  0  0  0  0  0  0  0  0
  134.6455  140.1946  102.0776 C   0  0  0  0  0  0  0  0  0  0  0  0
  135.1766  140.0513  103.3587 C   0  0  0  0  0  0  0  0  0  0  0  0
  135.5127  143.7418  101.2472 N   0  0  0  0  0  0  0  0  0  0  0  0
  136.7342  144.1476  100.5953 C   0  0  0  0  0  0  0  0  0  0  0  0
  136.3727  145.4564  100.0013 C   0  0  0  0  0  0  0  0  0  0  0  0
  135.1135  145.8044  100.2735 C   0  0  0  0  0  0  0  0  0  0  0  0
  134.4991  144.6919  101.0506 C   0  0  0  0  0  0  0  0  0  0  0  0
  133.3317  144.6631  101.3990 O   0  0  0  0  0  0  0  0  0  0  0  0
  134.5004  146.9473   99.8238 O   0  0  0  0  0  0  0  0  0  0  0  0
  134.6704  148.1033  100.5422 C   0  0  0  0  0  0  0  0  0  0  0  0
  133.9879  148.3490  101.7306 C   0  0  0  0  0  0  0  0  0  0  0  0
  134.2429  149.5234  102.4483 C   0  0  0  0  0  0  0  0  0  0  0  0
  135.1894  150.4704  102.0135 C   0  0  0  0  0  0  0  0  0  0  0  0
  135.8755  150.1752  100.8200 C   0  0  0  0  0  0  0  0  0  0  0  0
  135.6287  149.0050  100.0946 C   0  0  0  0  0  0  0  0  0  0  0  0
  135.4936  151.7582  102.7582 C   0  0  0  0  0  0  0  0  0  0  0  0
  134.4979  152.8923  102.7975 C   0  0  0  0  0  0  0  0  0  0  0  0
  134.7858  152.1069  104.0452 C   0  0  0  0  0  0  0  0  0  0  0  0
  137.0055  142.0107  105.8484 C   0  0  0  0  0  0  0  0  0  0  0  0
  136.3385  140.9301  105.2111 O   0  0  0  0  0  0  0  0  0  0  0  0
  135.1145  138.9019  104.1040 O   0  0  0  0  0  0  0  0  0  0  0  0
  134.5277  137.7459  103.5071 C   0  0  0  0  0  0  0  0  0  0  0  0
  135.5463  136.5894  103.4984 C   0  0  0  0  0  0  0  0  0  0  0  0
  135.2209  135.4851  102.5891 N   0  0  0  0  0  0  0  0  0  0  0  0
  134.4526  134.4319  103.2463 C   0  0  0  0  0  0  0  0  0  0  0  0
  134.5321  133.2566  102.2845 C   0  0  0  0  0  0  0  0  0  0  0  0
  135.6611  133.5936  101.3171 C   0  0  0  0  0  0  0  0  0  0  0  0
  136.3395  134.8431  101.8840 C   0  0  0  0  0  0  0  0  0  0  0  0
  137.6154  134.5013  102.6948 C   0  0  0  0  0  0  0  0  0  0  0  0
  138.7665  135.2488  102.3179 O   0  0  0  0  0  0  0  0  0  0  0  0
  138.5727  136.1873  102.4771 H   0  0  0  0  0  0  0  0  0  0  0  0
 23 24  1  0  0  0
 24  1  1  0  0  0
  1  2  2  0  0  0
  2  3  1  0  0  0
  3  7  1  0  0  0
  7  8  1  0  0  0
  8  9  1  0  0  0
  9 10  2  0  0  0
 10 13  1  0  0  0
 13 14  1  0  0  0
 14 15  2  0  0  0
 15 16  1  0  0  0
 16 17  2  0  0  0
 17 20  1  0  0  0
 20 21  1  0  0  0
 21 22  1  0  0  0
 17 18  1  0  0  0
 18 19  2  0  0  0
 10 11  1  0  0  0
 11 12  2  0  0  0
  3  4  2  0  0  0
  4  5  1  0  0  0
  5  6  2  0  0  0
  6 25  1  0  0  0
 25 26  1  0  0  0
 26 27  1  0  0  0
 27 28  1  0  0  0
 28 29  1  0  0  0
 29 30  1  0  0  0
 30 31  1  0  0  0
 31 32  1  0  0  0
 32 33  1  0  0  0
 33 34  1  0  0  0
  6  1  1  0  0  0
 32 28  1  0  0  0
 11  7  1  0  0  0
 19 14  1  0  0  0
 22 20  1  0  0  0
 34 35  1  0  0  0
M  END
> <minimizedAffinity>
-9.40932

$$$$
