L4:Q99705:87356
     RDKit          3D

 63 67  0  0  0  0  0  0  0  0999 V2000
   -2.9821   -1.0145   -2.2668 C   0  0  0  0  0  0  0  0  0  0  0  0
   -3.4225   -0.6612   -0.9623 O   0  0  0  0  0  0  0  0  0  0  0  0
   -2.4638   -0.3611   -0.0301 C   0  0  0  0  0  0  0  0  0  0  0  0
   -1.0849   -0.3087   -0.2795 C   0  0  0  0  0  0  0  0  0  0  0  0
   -0.1650    0.0324    0.7275 C   0  0  0  0  0  0  0  0  0  0  0  0
    1.2369    0.0854    0.4789 N   0  0  0  0  0  0  0  0  0  0  0  0
    2.1876    0.4498    1.5005 C   0  0  0  0  0  0  0  0  0  0  0  0
    3.4866    0.3678    0.7891 C   0  0  0  0  0  0  0  0  0  0  0  0
    3.3405    0.0021   -0.4909 C   0  0  0  0  0  0  0  0  0  0  0  0
    4.2630   -0.1934   -1.4863 O   0  0  0  0  0  0  0  0  0  0  0  0
    5.5808    0.0251   -1.1836 C   0  0  0  0  0  0  0  0  0  0  0  0
    6.3728   -1.0331   -0.7548 C   0  0  0  0  0  0  0  0  0  0  0  0
    7.7231   -0.8098   -0.4694 C   0  0  0  0  0  0  0  0  0  0  0  0
    8.3160    0.4601   -0.6165 C   0  0  0  0  0  0  0  0  0  0  0  0
    9.7880    0.6445   -0.2924 C   0  0  0  0  0  0  0  0  0  0  0  0
   10.6593    1.5624   -1.1154 C   0  0  0  0  0  0  0  0  0  0  0  0
   10.3080    1.9332    0.2972 C   0  0  0  0  0  0  0  0  0  0  0  0
    7.4833    1.4995   -1.0755 C   0  0  0  0  0  0  0  0  0  0  0  0
    6.1312    1.2887   -1.3643 C   0  0  0  0  0  0  0  0  0  0  0  0
    1.8869   -0.1931   -0.7293 C   0  0  0  0  0  0  0  0  0  0  0  0
    1.4305   -0.5347   -1.8074 O   0  0  0  0  0  0  0  0  0  0  0  0
   -0.6700    0.3319    2.0040 C   0  0  0  0  0  0  0  0  0  0  0  0
   -2.0406    0.2833    2.2686 C   0  0  0  0  0  0  0  0  0  0  0  0
   -2.9261   -0.0810    1.2602 C   0  0  0  0  0  0  0  0  0  0  0  0
   -4.2647   -0.0828    1.5585 O   0  0  0  0  0  0  0  0  0  0  0  0
   -4.7158   -1.4184    1.8338 C   0  0  0  0  0  0  0  0  0  0  0  0
   -6.2542   -1.4380    1.8715 C   0  0  0  0  0  0  0  0  0  0  0  0
   -6.8504   -1.7500    0.5570 N   0  0  0  0  0  0  0  0  0  0  0  0
   -6.8504   -0.5689   -0.3381 C   0  0  0  0  0  0  0  0  0  0  0  0
   -8.2938   -0.2318    0.0950 C   0  0  0  0  0  0  0  0  0  0  0  0
   -9.2495    0.0916   -0.9430 O   0  0  0  0  0  0  0  0  0  0  0  0
   -9.0910    1.3695   -1.5421 C   0  0  0  0  0  0  0  0  0  0  0  0
   -8.3290   -1.6803    0.6279 C   0  0  0  0  0  0  0  0  0  0  0  0
   -2.3483   -1.9071   -2.2429 H   0  0  0  0  0  0  0  0  0  0  0  0
   -3.8677   -1.2524   -2.8640 H   0  0  0  0  0  0  0  0  0  0  0  0
   -2.4710   -0.1759   -2.7508 H   0  0  0  0  0  0  0  0  0  0  0  0
   -0.7270   -0.5285   -1.2767 H   0  0  0  0  0  0  0  0  0  0  0  0
    2.1509   -0.2657    2.3280 H   0  0  0  0  0  0  0  0  0  0  0  0
    1.9986    1.4693    1.8508 H   0  0  0  0  0  0  0  0  0  0  0  0
    4.4291    0.5825    1.2705 H   0  0  0  0  0  0  0  0  0  0  0  0
    5.9480   -2.0266   -0.6442 H   0  0  0  0  0  0  0  0  0  0  0  0
    8.3288   -1.6486   -0.1313 H   0  0  0  0  0  0  0  0  0  0  0  0
   10.2908   -0.2533    0.0690 H   0  0  0  0  0  0  0  0  0  0  0  0
   11.6753    1.2420   -1.3194 H   0  0  0  0  0  0  0  0  0  0  0  0
   10.2163    2.1334   -1.9225 H   0  0  0  0  0  0  0  0  0  0  0  0
    9.6267    2.7602    0.4564 H   0  0  0  0  0  0  0  0  0  0  0  0
   11.0873    1.8643    1.0485 H   0  0  0  0  0  0  0  0  0  0  0  0
    7.8910    2.4971   -1.2218 H   0  0  0  0  0  0  0  0  0  0  0  0
    5.5176    2.1069   -1.7300 H   0  0  0  0  0  0  0  0  0  0  0  0
   -0.0182    0.6147    2.8247 H   0  0  0  0  0  0  0  0  0  0  0  0
   -2.4159    0.5298    3.2575 H   0  0  0  0  0  0  0  0  0  0  0  0
   -4.3383   -2.1475    1.1049 H   0  0  0  0  0  0  0  0  0  0  0  0
   -4.3397   -1.7035    2.8247 H   0  0  0  0  0  0  0  0  0  0  0  0
   -6.6337   -0.4986    2.2936 H   0  0  0  0  0  0  0  0  0  0  0  0
   -6.5494   -2.2464    2.5523 H   0  0  0  0  0  0  0  0  0  0  0  0
   -6.7582   -0.8410   -1.3970 H   0  0  0  0  0  0  0  0  0  0  0  0
   -6.1189    0.2179   -0.1346 H   0  0  0  0  0  0  0  0  0  0  0  0
   -8.3387    0.5075    0.9062 H   0  0  0  0  0  0  0  0  0  0  0  0
   -9.8820    1.5065   -2.2838 H   0  0  0  0  0  0  0  0  0  0  0  0
   -8.1210    1.4352   -2.0427 H   0  0  0  0  0  0  0  0  0  0  0  0
   -9.1753    2.1539   -0.7846 H   0  0  0  0  0  0  0  0  0  0  0  0
   -8.8214   -2.3886   -0.0499 H   0  0  0  0  0  0  0  0  0  0  0  0
   -8.7762   -1.8035    1.6205 H   0  0  0  0  0  0  0  0  0  0  0  0
  1  2  1  0
  2  3  1  0
  3  4  2  0
  4  5  1  0
  5  6  1  0
  6  7  1  0
  7  8  1  0
  8  9  2  0
  9 10  1  0
 10 11  1  0
 11 12  2  0
 12 13  1  0
 13 14  2  0
 14 15  1  0
 15 16  1  0
 16 17  1  0
 14 18  1  0
 18 19  2  0
  9 20  1  0
 20 21  2  0
  5 22  2  0
 22 23  1  0
 23 24  2  0
 24 25  1  0
 25 26  1  0
 26 27  1  0
 27 28  1  0
 28 29  1  0
 29 30  1  0
 30 31  1  0
 31 32  1  0
 30 33  1  0
 24  3  1  0
 33 28  1  0
 20  6  1  0
 19 11  1  0
 17 15  1  0
  1 34  1  0
  1 35  1  0
  1 36  1  0
  4 37  1  0
  7 38  1  0
  7 39  1  0
  8 40  1  0
 12 41  1  0
 13 42  1  0
 15 43  1  0
 16 44  1  0
 16 45  1  0
 17 46  1  0
 17 47  1  0
 18 48  1  0
 19 49  1  0
 22 50  1  0
 23 51  1  0
 26 52  1  0
 26 53  1  0
 27 54  1  0
 27 55  1  0
 29 56  1  0
 29 57  1  0
 30 58  1  0
 32 59  1  0
 32 60  1  0
 32 61  1  0
 33 62  1  0
 33 63  1  0
M  END
>  <mol_id>  (1) 
87356

>  <source_index>  (1) 
5

>  <layer>  (1) 
L4

>  <uniprot>  (1) 
Q99705

>  <paff>  (1) 
9.3278999999999996

>  <smiles>  (1) 
COC1CN(CCOc2ccc(cc2OC)N2CC=C(Oc3ccc(cc3)C3CC3)C2=O)C1 |t:19|

$$$$
