L4:Q99705:87356


 33 37  0  0  0  0  0  0  0  0999 V2000
  135.9651  141.0408  104.1425 C   0  0  0  0  0  0  0  0  0  0  0  0
  136.0893  142.2160  103.3877 C   0  0  0  0  0  0  0  0  0  0  0  0
  135.4932  142.3464  102.1211 C   0  0  0  0  0  0  0  0  0  0  0  0
  134.7682  141.2517  101.6209 C   0  0  0  0  0  0  0  0  0  0  0  0
  134.6345  140.0746  102.3608 C   0  0  0  0  0  0  0  0  0  0  0  0
  135.2140  139.9818  103.6215 C   0  0  0  0  0  0  0  0  0  0  0  0
  135.6156  143.5392  101.3515 N   0  0  0  0  0  0  0  0  0  0  0  0
  136.8383  143.8987  100.6762 C   0  0  0  0  0  0  0  0  0  0  0  0
  136.4919  145.1862  100.0263 C   0  0  0  0  0  0  0  0  0  0  0  0
  135.2288  145.5551  100.2750 C   0  0  0  0  0  0  0  0  0  0  0  0
  134.6249  144.5042  101.1346 C   0  0  0  0  0  0  0  0  0  0  0  0
  133.4727  144.5515  101.5313 O   0  0  0  0  0  0  0  0  0  0  0  0
  134.5123  146.6537   99.8752 O   0  0  0  0  0  0  0  0  0  0  0  0
  134.7529  147.8384  100.5190 C   0  0  0  0  0  0  0  0  0  0  0  0
  135.7001  148.7183  100.0095 C   0  0  0  0  0  0  0  0  0  0  0  0
  135.9255  149.9366  100.6571 C   0  0  0  0  0  0  0  0  0  0  0  0
  135.2086  150.3113  101.8110 C   0  0  0  0  0  0  0  0  0  0  0  0
  134.2419  149.4006  102.2807 C   0  0  0  0  0  0  0  0  0  0  0  0
  134.0072  148.1788  101.6417 C   0  0  0  0  0  0  0  0  0  0  0  0
  135.4948  151.6476  102.4729 C   0  0  0  0  0  0  0  0  0  0  0  0
  134.4602  152.7469  102.4913 C   0  0  0  0  0  0  0  0  0  0  0  0
  134.8261  152.0434  103.7671 C   0  0  0  0  0  0  0  0  0  0  0  0
  136.3517  141.8320  106.3613 C   0  0  0  0  0  0  0  0  0  0  0  0
  136.5348  140.8290  105.3708 O   0  0  0  0  0  0  0  0  0  0  0  0
  135.0835  138.7950  104.2962 O   0  0  0  0  0  0  0  0  0  0  0  0
  134.5058  137.7938  103.4437 C   0  0  0  0  0  0  0  0  0  0  0  0
  135.2401  136.4583  103.6575 C   0  0  0  0  0  0  0  0  0  0  0  0
  135.6725  135.8387  102.3887 N   0  0  0  0  0  0  0  0  0  0  0  0
  135.0927  134.4860  102.2147 C   0  0  0  0  0  0  0  0  0  0  0  0
  136.3691  133.8543  102.8116 C   0  0  0  0  0  0  0  0  0  0  0  0
  137.0152  135.2298  102.5395 C   0  0  0  0  0  0  0  0  0  0  0  0
  136.9498  132.7256  102.1158 O   0  0  0  0  0  0  0  0  0  0  0  0
  137.0721  131.5346  102.8798 C   0  0  0  0  0  0  0  0  0  0  0  0
 23 24  1  0  0  0
 24  1  1  0  0  0
  1  2  2  0  0  0
  2  3  1  0  0  0
  3  7  1  0  0  0
  7  8  1  0  0  0
  8  9  1  0  0  0
  9 10  2  0  0  0
 10 13  1  0  0  0
 13 14  1  0  0  0
 14 15  2  0  0  0
 15 16  1  0  0  0
 16 17  2  0  0  0
 17 20  1  0  0  0
 20 21  1  0  0  0
 21 22  1  0  0  0
 17 18  1  0  0  0
 18 19  2  0  0  0
 10 11  1  0  0  0
 11 12  2  0  0  0
  3  4  2  0  0  0
  4  5  1  0  0  0
  5  6  2  0  0  0
  6 25  1  0  0  0
 25 26  1  0  0  0
 26 27  1  0  0  0
 27 28  1  0  0  0
 28 29  1  0  0  0
 29 30  1  0  0  0
 30 32  1  0  0  0
 32 33  1  0  0  0
 30 31  1  0  0  0
  6  1  1  0  0  0
 31 28  1  0  0  0
 11  7  1  0  0  0
 19 14  1  0  0  0
 22 20  1  0  0  0
M  END
> <minimizedAffinity>
-8.83095

$$$$
