L4:Q99705:93256
 OpenBabel09212618013D

 58 62  0  0  0  0  0  0  0  0999 V2000
  136.3793  142.9428  102.0426 N   0  0  0  0  0  0  0  0  0  0  0  0
  137.4088  142.7454  101.0527 C   0  0  0  0  0  0  0  0  0  0  0  0
  136.9915  143.6516   99.9550 C   0  0  0  0  0  0  0  0  0  0  0  0
  135.8588  144.3058  100.2423 C   0  0  0  0  0  0  0  0  0  0  0  0
  135.4284  143.8677  101.5955 C   0  0  0  0  0  0  0  0  0  0  0  0
  134.4198  144.2862  102.1387 O   0  0  0  0  0  0  0  0  0  0  0  0
  135.7377  140.3478  104.6925 C   0  0  0  0  0  0  0  0  0  0  0  0
  135.7252  141.0275  103.4629 C   0  0  0  0  0  0  0  0  0  0  0  0
  136.3818  142.2546  103.2899 C   0  0  0  0  0  0  0  0  0  0  0  0
  137.0472  142.7964  104.3983 C   0  0  0  0  0  0  0  0  0  0  0  0
  137.0576  142.1358  105.6307 C   0  0  0  0  0  0  0  0  0  0  0  0
  136.4073  140.9051  105.7935 C   0  0  0  0  0  0  0  0  0  0  0  0
  134.7277  138.3972  103.7717 C   0  0  0  0  0  0  0  0  0  0  0  0
  135.0854  139.1614  104.9169 O   0  0  0  0  0  0  0  0  0  0  0  0
  136.4506  140.2071  107.1405 C   0  0  0  0  0  0  0  0  0  0  0  0
  136.7976  141.1068  108.2569 N   0  0  0  0  0  0  0  0  0  0  0  0
  136.4171  140.5165  109.5482 C   0  0  0  0  0  0  0  0  0  0  0  0
  134.9539  140.8788  109.7563 C   0  0  0  0  0  0  0  0  0  0  0  0
  134.7259  142.1107  108.8909 C   0  0  0  0  0  0  0  0  0  0  0  0
  136.0689  142.3810  108.2274 C   0  0  0  0  0  0  0  0  0  0  0  0
  135.1364  145.2220   99.5217 O   0  0  0  0  0  0  0  0  0  0  0  0
  135.2020  146.5331   99.9136 C   0  0  0  0  0  0  0  0  0  0  0  0
  136.3872  147.2424   99.7484 C   0  0  0  0  0  0  0  0  0  0  0  0
  136.4567  148.5722  100.1713 C   0  0  0  0  0  0  0  0  0  0  0  0
  135.3553  149.2108  100.7690 C   0  0  0  0  0  0  0  0  0  0  0  0
  134.1836  148.4540  100.9490 C   0  0  0  0  0  0  0  0  0  0  0  0
  134.1033  147.1237  100.5298 C   0  0  0  0  0  0  0  0  0  0  0  0
  135.4423  150.6421  101.2407 C   0  0  0  0  0  0  0  0  0  0  0  0
  134.2039  151.3534  101.7358 C   0  0  0  0  0  0  0  0  0  0  0  0
  134.8130  151.7484  100.4253 C   0  0  0  0  0  0  0  0  0  0  0  0
  137.4355  141.7279  100.7227 H   0  0  0  0  0  0  0  0  0  0  0  0
  138.3926  142.9513  101.4195 H   0  0  0  0  0  0  0  0  0  0  0  0
  137.5136  143.7648   99.0721 H   0  0  0  0  0  0  0  0  0  0  0  0
  135.2190  140.6124  102.6651 H   0  0  0  0  0  0  0  0  0  0  0  0
  137.5383  143.6991  104.3031 H   0  0  0  0  0  0  0  0  0  0  0  0
  137.5510  142.5604  106.4315 H   0  0  0  0  0  0  0  0  0  0  0  0
  134.2290  137.5026  104.0814 H   0  0  0  0  0  0  0  0  0  0  0  0
  135.6103  138.1420  103.2233 H   0  0  0  0  0  0  0  0  0  0  0  0
  134.0747  138.9722  103.1489 H   0  0  0  0  0  0  0  0  0  0  0  0
  137.1811  139.4266  107.0945 H   0  0  0  0  0  0  0  0  0  0  0  0
  135.4675  139.8309  107.3325 H   0  0  0  0  0  0  0  0  0  0  0  0
  137.0171  140.9238  110.3350 H   0  0  0  0  0  0  0  0  0  0  0  0
  136.5646  139.4567  109.5548 H   0  0  0  0  0  0  0  0  0  0  0  0
  134.7644  141.1019  110.7855 H   0  0  0  0  0  0  0  0  0  0  0  0
  134.2993  140.0749  109.4915 H   0  0  0  0  0  0  0  0  0  0  0  0
  134.4298  142.9439  109.4934 H   0  0  0  0  0  0  0  0  0  0  0  0
  133.9468  141.9589  108.1734 H   0  0  0  0  0  0  0  0  0  0  0  0
  136.6074  143.1301  108.7694 H   0  0  0  0  0  0  0  0  0  0  0  0
  135.9469  142.7400  107.2268 H   0  0  0  0  0  0  0  0  0  0  0  0
  137.2084  146.7901   99.3170 H   0  0  0  0  0  0  0  0  0  0  0  0
  137.3356  149.0975  100.0423 H   0  0  0  0  0  0  0  0  0  0  0  0
  133.3651  148.8910  101.4007 H   0  0  0  0  0  0  0  0  0  0  0  0
  133.2362  146.5836  100.6760 H   0  0  0  0  0  0  0  0  0  0  0  0
  136.4178  150.4503  101.6362 H   0  0  0  0  0  0  0  0  0  0  0  0
  134.2669  152.0142  102.5750 H   0  0  0  0  0  0  0  0  0  0  0  0
  133.2304  151.0422  102.0525 H   0  0  0  0  0  0  0  0  0  0  0  0
  135.3104  152.6909  100.3299 H   0  0  0  0  0  0  0  0  0  0  0  0
  134.4534  151.8353   99.4213 H   0  0  0  0  0  0  0  0  0  0  0  0
  1  2  1  0  0  0  0
  2  3  1  0  0  0  0
  2 31  1  0  0  0  0
  2 32  1  0  0  0  0
  3  4  2  0  0  0  0
  3 33  1  0  0  0  0
  4 21  1  0  0  0  0
  4  5  1  0  0  0  0
  5  6  2  0  0  0  0
  5  1  1  0  0  0  0
  7  8  2  0  0  0  0
  8  9  1  0  0  0  0
  8 34  1  0  0  0  0
  9  1  1  0  0  0  0
  9 10  2  0  0  0  0
 10 11  1  0  0  0  0
 10 35  1  0  0  0  0
 11 12  2  0  0  0  0
 11 36  1  0  0  0  0
 12 15  1  0  0  0  0
 12  7  1  0  0  0  0
 13 14  1  0  0  0  0
 13 37  1  0  0  0  0
 13 38  1  0  0  0  0
 13 39  1  0  0  0  0
 14  7  1  0  0  0  0
 15 16  1  0  0  0  0
 15 40  1  0  0  0  0
 15 41  1  0  0  0  0
 16 17  1  0  0  0  0
 17 18  1  0  0  0  0
 17 42  1  0  0  0  0
 17 43  1  0  0  0  0
 18 19  1  0  0  0  0
 18 44  1  0  0  0  0
 18 45  1  0  0  0  0
 19 20  1  0  0  0  0
 19 46  1  0  0  0  0
 19 47  1  0  0  0  0
 20 16  1  0  0  0  0
 20 48  1  0  0  0  0
 20 49  1  0  0  0  0
 21 22  1  0  0  0  0
 22 23  2  0  0  0  0
 23 24  1  0  0  0  0
 23 50  1  0  0  0  0
 24 25  2  0  0  0  0
 24 51  1  0  0  0  0
 25 28  1  0  0  0  0
 25 26  1  0  0  0  0
 26 27  2  0  0  0  0
 26 52  1  0  0  0  0
 27 22  1  0  0  0  0
 27 53  1  0  0  0  0
 28 29  1  0  0  0  0
 28 54  1  0  0  0  0
 29 30  1  0  0  0  0
 29 55  1  0  0  0  0
 29 56  1  0  0  0  0
 30 28  1  0  0  0  0
 30 57  1  0  0  0  0
 30 58  1  0  0  0  0
M  END
>  <minimizedAffinity>
-9.18730

$$$$
