L4:Q99705:93256


 30 34  0  0  0  0  0  0  0  0999 V2000
  136.3793  142.9428  102.0426 N   0  0  0  0  0  0  0  0  0  0  0  0
  137.4088  142.7454  101.0527 C   0  0  0  0  0  0  0  0  0  0  0  0
  136.9915  143.6516   99.9550 C   0  0  0  0  0  0  0  0  0  0  0  0
  135.8588  144.3058  100.2423 C   0  0  0  0  0  0  0  0  0  0  0  0
  135.4284  143.8677  101.5955 C   0  0  0  0  0  0  0  0  0  0  0  0
  134.4198  144.2862  102.1387 O   0  0  0  0  0  0  0  0  0  0  0  0
  135.7377  140.3478  104.6925 C   0  0  0  0  0  0  0  0  0  0  0  0
  135.7252  141.0275  103.4629 C   0  0  0  0  0  0  0  0  0  0  0  0
  136.3818  142.2546  103.2899 C   0  0  0  0  0  0  0  0  0  0  0  0
  137.0472  142.7964  104.3983 C   0  0  0  0  0  0  0  0  0  0  0  0
  137.0576  142.1358  105.6307 C   0  0  0  0  0  0  0  0  0  0  0  0
  136.4073  140.9051  105.7935 C   0  0  0  0  0  0  0  0  0  0  0  0
  134.7277  138.3972  103.7717 C   0  0  0  0  0  0  0  0  0  0  0  0
  135.0854  139.1614  104.9169 O   0  0  0  0  0  0  0  0  0  0  0  0
  136.4506  140.2071  107.1405 C   0  0  0  0  0  0  0  0  0  0  0  0
  136.7976  141.1068  108.2569 N   0  0  0  0  0  0  0  0  0  0  0  0
  136.4171  140.5165  109.5482 C   0  0  0  0  0  0  0  0  0  0  0  0
  134.9539  140.8788  109.7563 C   0  0  0  0  0  0  0  0  0  0  0  0
  134.7259  142.1107  108.8909 C   0  0  0  0  0  0  0  0  0  0  0  0
  136.0689  142.3810  108.2274 C   0  0  0  0  0  0  0  0  0  0  0  0
  135.1364  145.2220   99.5217 O   0  0  0  0  0  0  0  0  0  0  0  0
  135.2020  146.5331   99.9136 C   0  0  0  0  0  0  0  0  0  0  0  0
  136.3872  147.2424   99.7484 C   0  0  0  0  0  0  0  0  0  0  0  0
  136.4567  148.5722  100.1713 C   0  0  0  0  0  0  0  0  0  0  0  0
  135.3553  149.2108  100.7690 C   0  0  0  0  0  0  0  0  0  0  0  0
  134.1836  148.4540  100.9490 C   0  0  0  0  0  0  0  0  0  0  0  0
  134.1033  147.1237  100.5298 C   0  0  0  0  0  0  0  0  0  0  0  0
  135.4423  150.6421  101.2407 C   0  0  0  0  0  0  0  0  0  0  0  0
  134.2039  151.3534  101.7358 C   0  0  0  0  0  0  0  0  0  0  0  0
  134.8130  151.7484  100.4253 C   0  0  0  0  0  0  0  0  0  0  0  0
 13 14  1  0  0  0
 14  7  1  0  0  0
  7  8  2  0  0  0
  8  9  1  0  0  0
  9  1  1  0  0  0
  1  2  1  0  0  0
  2  3  1  0  0  0
  3  4  2  0  0  0
  4 21  1  0  0  0
 21 22  1  0  0  0
 22 23  2  0  0  0
 23 24  1  0  0  0
 24 25  2  0  0  0
 25 28  1  0  0  0
 28 29  1  0  0  0
 29 30  1  0  0  0
 25 26  1  0  0  0
 26 27  2  0  0  0
  4  5  1  0  0  0
  5  6  2  0  0  0
  9 10  2  0  0  0
 10 11  1  0  0  0
 11 12  2  0  0  0
 12 15  1  0  0  0
 15 16  1  0  0  0
 16 17  1  0  0  0
 17 18  1  0  0  0
 18 19  1  0  0  0
 19 20  1  0  0  0
 12  7  1  0  0  0
 20 16  1  0  0  0
  5  1  1  0  0  0
 27 22  1  0  0  0
 30 28  1  0  0  0
M  END
> <minimizedAffinity>
-9.18730

$$$$
