L4:Q99705:93256
     RDKit          3D

 58 62  0  0  0  0  0  0  0  0999 V2000
   -3.5982    2.3840    2.6490 C   0  0  0  0  0  0  0  0  0  0  0  0
   -4.1413    1.1727    2.1377 O   0  0  0  0  0  0  0  0  0  0  0  0
   -3.3325    0.4277    1.3167 C   0  0  0  0  0  0  0  0  0  0  0  0
   -1.9331    0.5479    1.2778 C   0  0  0  0  0  0  0  0  0  0  0  0
   -1.1449   -0.2581    0.4436 C   0  0  0  0  0  0  0  0  0  0  0  0
    0.2734   -0.1335    0.3943 N   0  0  0  0  0  0  0  0  0  0  0  0
    1.0904   -0.9691   -0.4500 C   0  0  0  0  0  0  0  0  0  0  0  0
    2.4634   -0.4835   -0.1683 C   0  0  0  0  0  0  0  0  0  0  0  0
    2.4735    0.5150    0.7242 C   0  0  0  0  0  0  0  0  0  0  0  0
    3.5079    1.2403    1.2575 O   0  0  0  0  0  0  0  0  0  0  0  0
    4.7773    0.9383    0.8400 C   0  0  0  0  0  0  0  0  0  0  0  0
    5.5314    0.0075    1.5473 C   0  0  0  0  0  0  0  0  0  0  0  0
    6.8340   -0.2797    1.1318 C   0  0  0  0  0  0  0  0  0  0  0  0
    7.4058    0.3575    0.0159 C   0  0  0  0  0  0  0  0  0  0  0  0
    8.8202    0.0565   -0.4171 C   0  0  0  0  0  0  0  0  0  0  0  0
    9.1026   -0.3708   -1.8392 C   0  0  0  0  0  0  0  0  0  0  0  0
    9.2321   -1.3647   -0.7257 C   0  0  0  0  0  0  0  0  0  0  0  0
    6.6261    1.3159   -0.6561 C   0  0  0  0  0  0  0  0  0  0  0  0
    5.3225    1.6107   -0.2491 C   0  0  0  0  0  0  0  0  0  0  0  0
    1.0624    0.7726    1.1126 C   0  0  0  0  0  0  0  0  0  0  0  0
    0.7418    1.6341    1.9141 O   0  0  0  0  0  0  0  0  0  0  0  0
   -1.8019   -1.2090   -0.3494 C   0  0  0  0  0  0  0  0  0  0  0  0
   -3.1930   -1.3467   -0.3116 C   0  0  0  0  0  0  0  0  0  0  0  0
   -3.9750   -0.5311    0.5173 C   0  0  0  0  0  0  0  0  0  0  0  0
   -5.4837   -0.6963    0.5234 C   0  0  0  0  0  0  0  0  0  0  0  0
   -6.1885    0.3183   -0.2829 N   0  0  0  0  0  0  0  0  0  0  0  0
   -7.6376    0.2717   -0.0403 C   0  0  0  0  0  0  0  0  0  0  0  0
   -8.1817   -0.7990   -0.9747 C   0  0  0  0  0  0  0  0  0  0  0  0
   -7.1518   -0.9085   -2.0909 C   0  0  0  0  0  0  0  0  0  0  0  0
   -6.0697    0.0992   -1.7297 C   0  0  0  0  0  0  0  0  0  0  0  0
   -4.4172    2.9504    3.1026 H   0  0  0  0  0  0  0  0  0  0  0  0
   -2.8631    2.1795    3.4338 H   0  0  0  0  0  0  0  0  0  0  0  0
   -3.1683    3.0014    1.8528 H   0  0  0  0  0  0  0  0  0  0  0  0
   -1.4570    1.2742    1.9233 H   0  0  0  0  0  0  0  0  0  0  0  0
    0.8319   -0.8166   -1.5026 H   0  0  0  0  0  0  0  0  0  0  0  0
    0.9824   -2.0203   -0.1649 H   0  0  0  0  0  0  0  0  0  0  0  0
    3.3386   -0.9029   -0.6417 H   0  0  0  0  0  0  0  0  0  0  0  0
    5.1133   -0.4892    2.4179 H   0  0  0  0  0  0  0  0  0  0  0  0
    7.4188   -1.0076    1.6906 H   0  0  0  0  0  0  0  0  0  0  0  0
    9.5818    0.6790    0.0499 H   0  0  0  0  0  0  0  0  0  0  0  0
   10.0112   -0.0058   -2.3043 H   0  0  0  0  0  0  0  0  0  0  0  0
    8.2736   -0.4930   -2.5271 H   0  0  0  0  0  0  0  0  0  0  0  0
    8.4898   -2.1527   -0.6675 H   0  0  0  0  0  0  0  0  0  0  0  0
   10.2287   -1.6755   -0.4337 H   0  0  0  0  0  0  0  0  0  0  0  0
    7.0469    1.8468   -1.5077 H   0  0  0  0  0  0  0  0  0  0  0  0
    4.7419    2.3618   -0.7765 H   0  0  0  0  0  0  0  0  0  0  0  0
   -1.2581   -1.8689   -1.0178 H   0  0  0  0  0  0  0  0  0  0  0  0
   -3.6673   -2.0950   -0.9428 H   0  0  0  0  0  0  0  0  0  0  0  0
   -5.8118   -0.6327    1.5699 H   0  0  0  0  0  0  0  0  0  0  0  0
   -5.7428   -1.7163    0.2089 H   0  0  0  0  0  0  0  0  0  0  0  0
   -7.9063    0.0919    1.0064 H   0  0  0  0  0  0  0  0  0  0  0  0
   -8.0669    1.2449   -0.3104 H   0  0  0  0  0  0  0  0  0  0  0  0
   -9.1704   -0.5307   -1.3603 H   0  0  0  0  0  0  0  0  0  0  0  0
   -8.2720   -1.7601   -0.4557 H   0  0  0  0  0  0  0  0  0  0  0  0
   -7.5913   -0.6908   -3.0695 H   0  0  0  0  0  0  0  0  0  0  0  0
   -6.7438   -1.9252   -2.1236 H   0  0  0  0  0  0  0  0  0  0  0  0
   -5.0779   -0.2157   -2.0654 H   0  0  0  0  0  0  0  0  0  0  0  0
   -6.2767    1.0492   -2.2392 H   0  0  0  0  0  0  0  0  0  0  0  0
  1  2  1  0
  2  3  1  0
  3  4  2  0
  4  5  1  0
  5  6  1  0
  6  7  1  0
  7  8  1  0
  8  9  2  0
  9 10  1  0
 10 11  1  0
 11 12  2  0
 12 13  1  0
 13 14  2  0
 14 15  1  0
 15 16  1  0
 16 17  1  0
 14 18  1  0
 18 19  2  0
  9 20  1  0
 20 21  2  0
  5 22  2  0
 22 23  1  0
 23 24  2  0
 24 25  1  0
 25 26  1  0
 26 27  1  0
 27 28  1  0
 28 29  1  0
 29 30  1  0
 24  3  1  0
 30 26  1  0
 20  6  1  0
 19 11  1  0
 17 15  1  0
  1 31  1  0
  1 32  1  0
  1 33  1  0
  4 34  1  0
  7 35  1  0
  7 36  1  0
  8 37  1  0
 12 38  1  0
 13 39  1  0
 15 40  1  0
 16 41  1  0
 16 42  1  0
 17 43  1  0
 17 44  1  0
 18 45  1  0
 19 46  1  0
 22 47  1  0
 23 48  1  0
 25 49  1  0
 25 50  1  0
 27 51  1  0
 27 52  1  0
 28 53  1  0
 28 54  1  0
 29 55  1  0
 29 56  1  0
 30 57  1  0
 30 58  1  0
M  END
>  <mol_id>  (1) 
93256

>  <source_index>  (1) 
6

>  <layer>  (1) 
L4

>  <uniprot>  (1) 
Q99705

>  <paff>  (1) 
7.0044000000000004

>  <smiles>  (1) 
COc1cc(ccc1CN1CCCC1)N1CC=C(Oc2ccc(cc2)C2CC2)C1=O |t:18|

$$$$
