L2:P31645:103500


 34 38  0  0  0  0  0  0  0  0999 V2000
  136.1184  129.4964  118.3356 N   0  0  0  0  0  0  0  0  0  0  0  0
  137.5730  129.7068  118.2987 C   0  0  0  0  0  0  0  0  0  0  0  0
  138.3301  128.4212  118.7161 C   0  0  0  0  0  0  0  0  0  0  0  0
  137.9116  127.1689  118.0412 N   0  0  0  0  0  0  0  0  0  0  0  0
  136.4380  127.0469  118.1808 C   0  0  0  0  0  0  0  0  0  0  0  0
  135.6277  128.2724  117.6935 C   0  0  0  0  0  0  0  0  0  0  0  0
  132.6369  130.9217  121.3279 C   0  0  0  0  0  0  0  0  0  0  0  0
  132.6287  132.0753  120.5747 C   0  0  0  0  0  0  0  0  0  0  0  0
  133.5696  132.0584  119.4862 C   0  0  0  0  0  0  0  0  0  0  0  0
  133.8144  133.0507  118.5091 C   0  0  0  0  0  0  0  0  0  0  0  0
  134.7698  132.8442  117.5223 C   0  0  0  0  0  0  0  0  0  0  0  0
  135.4931  131.6606  117.5017 C   0  0  0  0  0  0  0  0  0  0  0  0
  135.3097  130.6301  118.4518 C   0  0  0  0  0  0  0  0  0  0  0  0
  134.3118  130.8687  119.4458 C   0  0  0  0  0  0  0  0  0  0  0  0
  133.7763  129.8143  120.7115 S   0  0  0  0  0  0  0  0  0  0  0  0
  130.5533  130.1793  122.2569 N   0  0  0  0  0  0  0  0  0  0  0  0
  131.8511  130.5471  122.4916 C   0  0  0  0  0  0  0  0  0  0  0  0
  132.2531  130.5360  123.6531 O   0  0  0  0  0  0  0  0  0  0  0  0
  130.1228  130.1618  121.3472 H   0  0  0  0  0  0  0  0  0  0  0  0
  130.0026  129.9192  123.0637 H   0  0  0  0  0  0  0  0  0  0  0  0
  138.3165  127.1153  116.6231 C   0  0  0  0  0  0  0  0  0  0  0  0
  137.5267  126.0983  115.7748 C   0  0  0  0  0  0  0  0  0  0  0  0
  138.1913  124.7442  115.6709 C   0  0  0  0  0  0  0  0  0  0  0  0
  139.5898  124.6366  115.6734 C   0  0  0  0  0  0  0  0  0  0  0  0
  140.2122  123.3879  115.5858 C   0  0  0  0  0  0  0  0  0  0  0  0
  139.4406  122.2289  115.4956 C   0  0  0  0  0  0  0  0  0  0  0  0
  140.0554  120.9043  115.4031 C   0  0  0  0  0  0  0  0  0  0  0  0
  139.2840  119.8122  115.3201 C   0  0  0  0  0  0  0  0  0  0  0  0
  137.8036  119.9110  115.3198 C   0  0  0  0  0  0  0  0  0  0  0  0
  137.1080  118.9042  115.2421 O   0  0  0  0  0  0  0  0  0  0  0  0
  137.2689  121.1674  115.4091 N   0  0  0  0  0  0  0  0  0  0  0  0
  138.0432  122.3325  115.4972 C   0  0  0  0  0  0  0  0  0  0  0  0
  137.4183  123.5771  115.5859 C   0  0  0  0  0  0  0  0  0  0  0  0
  136.2602  121.2215  115.4093 H   0  0  0  0  0  0  0  0  0  0  0  0
 16 17  1  0  0  0
 17 18  2  0  0  0
 17  7  1  0  0  0
  7  8  2  0  0  0
  8  9  1  0  0  0
  9 10  2  0  0  0
 10 11  1  0  0  0
 11 12  2  0  0  0
 12 13  1  0  0  0
 13  1  1  0  0  0
  1  2  1  0  0  0
  2  3  1  0  0  0
  3  4  1  0  0  0
  4 21  1  0  0  0
 21 22  1  0  0  0
 22 23  1  0  0  0
 23 24  2  0  0  0
 24 25  1  0  0  0
 25 26  2  0  0  0
 26 27  1  0  0  0
 27 28  2  0  0  0
 28 29  1  0  0  0
 29 30  2  0  0  0
 29 31  1  0  0  0
 31 32  1  0  0  0
 32 33  2  0  0  0
  4  5  1  0  0  0
  5  6  1  0  0  0
 13 14  2  0  0  0
 14 15  1  0  0  0
 15  7  1  0  0  0
 14  9  1  0  0  0
  6  1  1  0  0  0
 33 23  1  0  0  0
 32 26  1  0  0  0
 16 19  1  0  0  0
 16 20  1  0  0  0
 31 34  1  0  0  0
M  END
> <minimizedAffinity>
-10.62083

$$$$
