L2:P31645:103879
     RDKit          3D

 54 57  0  0  0  0  0  0  0  0999 V2000
    3.0150    4.1467    0.8839 C   0  0  0  0  0  0  0  0  0  0  0  0
    2.9182    2.7609    0.5872 O   0  0  0  0  0  0  0  0  0  0  0  0
    1.6805    2.2759    0.2588 C   0  0  0  0  0  0  0  0  0  0  0  0
    0.4906    2.9964    0.3260 C   0  0  0  0  0  0  0  0  0  0  0  0
   -0.7238    2.3985   -0.0429 C   0  0  0  0  0  0  0  0  0  0  0  0
   -0.7922    1.0654   -0.4978 C   0  0  0  0  0  0  0  0  0  0  0  0
   -2.1603    0.4557   -0.9141 C   0  0  1  0  0  0  0  0  0  0  0  0
   -2.6890    1.3060   -2.0997 C   0  0  0  0  0  0  0  0  0  0  0  0
   -3.9353    0.7747   -2.7889 C   0  0  0  0  0  0  0  0  0  0  0  0
   -3.7438   -0.6744   -3.1369 C   0  0  0  0  0  0  0  0  0  0  0  0
   -3.9419   -1.1051   -4.2704 O   0  0  0  0  0  0  0  0  0  0  0  0
   -3.4053   -1.5779   -1.9864 C   0  0  0  0  0  0  0  0  0  0  0  0
   -2.1493   -1.0713   -1.2589 C   0  0  2  0  0  0  0  0  0  0  0  0
   -1.9897   -1.6636    0.0804 N   0  0  0  0  0  0  0  0  0  0  0  0
   -2.1297   -3.1029    0.1869 C   0  0  0  0  0  0  0  0  0  0  0  0
   -2.8374   -0.9081    1.0040 C   0  0  0  0  0  0  0  0  0  0  0  0
   -3.0959    0.4412    0.3188 C   0  0  0  0  0  0  0  0  0  0  0  0
    0.4145    0.3551   -0.5611 C   0  0  0  0  0  0  0  0  0  0  0  0
    1.6220    0.9436   -0.1659 C   0  0  0  0  0  0  0  0  0  0  0  0
    2.7559    0.1765   -0.2785 O   0  0  0  0  0  0  0  0  0  0  0  0
    3.1699   -0.3165    0.9946 C   0  0  0  0  0  0  0  0  0  0  0  0
    2.6590   -1.7340    1.2366 C   0  0  0  0  0  0  0  0  0  0  0  0
    3.6269   -2.3184    2.2589 C   0  0  0  0  0  0  0  0  0  0  0  0
    4.9168   -1.5056    2.1349 C   0  0  0  0  0  0  0  0  0  0  0  0
    4.6805   -0.5216    0.9975 C   0  0  0  0  0  0  0  0  0  0  0  0
    2.4694    4.3908    1.8012 H   0  0  0  0  0  0  0  0  0  0  0  0
    4.0707    4.3791    1.0539 H   0  0  0  0  0  0  0  0  0  0  0  0
    2.6708    4.7587    0.0435 H   0  0  0  0  0  0  0  0  0  0  0  0
    0.4651    4.0273    0.6623 H   0  0  0  0  0  0  0  0  0  0  0  0
   -1.6268    3.0019    0.0301 H   0  0  0  0  0  0  0  0  0  0  0  0
   -2.8972    2.3339   -1.7789 H   0  0  0  0  0  0  0  0  0  0  0  0
   -1.8956    1.3766   -2.8581 H   0  0  0  0  0  0  0  0  0  0  0  0
   -4.1237    1.3423   -3.7066 H   0  0  0  0  0  0  0  0  0  0  0  0
   -4.8223    0.8681   -2.1546 H   0  0  0  0  0  0  0  0  0  0  0  0
   -3.2375   -2.5907   -2.3709 H   0  0  0  0  0  0  0  0  0  0  0  0
   -4.2859   -1.6178   -1.3350 H   0  0  0  0  0  0  0  0  0  0  0  0
   -1.2906   -1.3165   -1.8946 H   0  0  0  0  0  0  0  0  0  0  0  0
   -3.1506   -3.4467   -0.0095 H   0  0  0  0  0  0  0  0  0  0  0  0
   -1.4537   -3.6072   -0.5118 H   0  0  0  0  0  0  0  0  0  0  0  0
   -1.8514   -3.4355    1.1929 H   0  0  0  0  0  0  0  0  0  0  0  0
   -3.7943   -1.4047    1.2046 H   0  0  0  0  0  0  0  0  0  0  0  0
   -2.3178   -0.7689    1.9578 H   0  0  0  0  0  0  0  0  0  0  0  0
   -2.9393    1.2696    1.0168 H   0  0  0  0  0  0  0  0  0  0  0  0
   -4.1476    0.4826    0.0125 H   0  0  0  0  0  0  0  0  0  0  0  0
    0.4545   -0.6767   -0.8951 H   0  0  0  0  0  0  0  0  0  0  0  0
    2.8896    0.3415    1.8297 H   0  0  0  0  0  0  0  0  0  0  0  0
    2.6819   -2.3174    0.3075 H   0  0  0  0  0  0  0  0  0  0  0  0
    1.6244   -1.7453    1.5943 H   0  0  0  0  0  0  0  0  0  0  0  0
    3.7994   -3.3837    2.0750 H   0  0  0  0  0  0  0  0  0  0  0  0
    3.2215   -2.2215    3.2725 H   0  0  0  0  0  0  0  0  0  0  0  0
    5.1056   -0.9666    3.0706 H   0  0  0  0  0  0  0  0  0  0  0  0
    5.7853   -2.1429    1.9413 H   0  0  0  0  0  0  0  0  0  0  0  0
    5.2233    0.4184    1.1384 H   0  0  0  0  0  0  0  0  0  0  0  0
    5.0168   -0.9459    0.0431 H   0  0  0  0  0  0  0  0  0  0  0  0
  1  2  1  0
  2  3  1  0
  3  4  2  0
  4  5  1  0
  5  6  2  0
  7  6  1  1
  7  8  1  0
  8  9  1  0
  9 10  1  0
 10 11  2  0
 10 12  1  0
 12 13  1  0
 13 14  1  0
 14 15  1  0
 14 16  1  0
 16 17  1  0
  6 18  1  0
 18 19  2  0
 19 20  1  0
 20 21  1  0
 21 22  1  0
 22 23  1  0
 23 24  1  0
 24 25  1  0
 19  3  1  0
 25 21  1  0
 13  7  1  0
 17  7  1  0
  1 26  1  0
  1 27  1  0
  1 28  1  0
  4 29  1  0
  5 30  1  0
  8 31  1  0
  8 32  1  0
  9 33  1  0
  9 34  1  0
 12 35  1  0
 12 36  1  0
 13 37  1  6
 15 38  1  0
 15 39  1  0
 15 40  1  0
 16 41  1  0
 16 42  1  0
 17 43  1  0
 17 44  1  0
 18 45  1  0
 21 46  1  0
 22 47  1  0
 22 48  1  0
 23 49  1  0
 23 50  1  0
 24 51  1  0
 24 52  1  0
 25 53  1  0
 25 54  1  0
M  END
>  <mol_id>  (1) 
103879

>  <source_index>  (1) 
8

>  <layer>  (1) 
L2

>  <uniprot>  (1) 
P31645

>  <paff>  (1) 
6.0968999999999998

>  <smiles>  (1) 
COc1ccc([C@@]23CCC(=O)C[C@@H]2N(C)CC3)cc1OC1CCCC1

$$$$
