L2:P31645:103879


 25 28  0  0  0  0  0  0  0  0999 V2000
  135.4319  129.0669  119.7585 C   0  0  0  0  0  0  0  0  0  0  0  0
  134.7452  128.8090  120.9423 C   0  0  0  0  0  0  0  0  0  0  0  0
  133.4953  129.3996  121.1817 C   0  0  0  0  0  0  0  0  0  0  0  0
  132.8914  130.2723  120.2531 C   0  0  0  0  0  0  0  0  0  0  0  0
  133.5965  130.5225  119.0678 C   0  0  0  0  0  0  0  0  0  0  0  0
  134.8307  129.9105  118.8173 C   0  0  0  0  0  0  0  0  0  0  0  0
  131.5139  130.9172  120.5750 C   0  0  0  0  0  0  0  0  0  0  0  0
  130.4322  130.0139  119.9252 C   0  0  0  0  0  0  0  0  0  0  0  0
  128.9920  130.3571  120.2696 C   0  0  0  0  0  0  0  0  0  0  0  0
  128.8429  130.4835  121.7594 C   0  0  0  0  0  0  0  0  0  0  0  0
  127.9746  129.8771  122.3822 O   0  0  0  0  0  0  0  0  0  0  0  0
  129.7489  131.4829  122.4188 C   0  0  0  0  0  0  0  0  0  0  0  0
  131.2184  131.1720  122.0910 C   0  0  0  0  0  0  0  0  0  0  0  0
  132.1156  132.3069  122.3683 N   0  0  0  0  0  0  0  0  0  0  0  0
  131.9777  132.9584  123.6564 C   0  0  0  0  0  0  0  0  0  0  0  0
  132.0463  133.2176  121.2245 C   0  0  0  0  0  0  0  0  0  0  0  0
  131.5126  132.3757  120.0569 C   0  0  0  0  0  0  0  0  0  0  0  0
  136.6749  127.2769  118.7980 C   0  0  0  0  0  0  0  0  0  0  0  0
  136.6559  128.5510  119.4259 O   0  0  0  0  0  0  0  0  0  0  0  0
  135.4564  130.2287  117.6366 O   0  0  0  0  0  0  0  0  0  0  0  0
  136.3724  131.3076  117.8163 C   0  0  0  0  0  0  0  0  0  0  0  0
  137.6076  131.1429  116.9354 C   0  0  0  0  0  0  0  0  0  0  0  0
  138.1461  132.5588  116.7658 C   0  0  0  0  0  0  0  0  0  0  0  0
  136.9650  133.4957  117.0246 C   0  0  0  0  0  0  0  0  0  0  0  0
  135.7635  132.5929  117.2674 C   0  0  0  0  0  0  0  0  0  0  0  0
 18 19  1  0  0  0
 19  1  1  0  0  0
  1  2  2  0  0  0
  2  3  1  0  0  0
  3  4  2  0  0  0
  7  4  1  0  0  0
  7  8  1  0  0  0
  8  9  1  0  0  0
  9 10  1  0  0  0
 10 11  2  0  0  0
 10 12  1  0  0  0
 12 13  1  0  0  0
 13 14  1  0  0  0
 14 15  1  0  0  0
 14 16  1  0  0  0
 16 17  1  0  0  0
  4  5  1  0  0  0
  5  6  2  0  0  0
  6 20  1  0  0  0
 20 21  1  0  0  0
 21 22  1  0  0  0
 22 23  1  0  0  0
 23 24  1  0  0  0
 24 25  1  0  0  0
  6  1  1  0  0  0
 25 21  1  0  0  0
 13  7  1  0  0  0
 17  7  1  0  0  0
M  END
> <minimizedAffinity>
-8.05964

$$$$
