L2:P31645:103879
 OpenBabel09212617453D

 54 57  0  0  0  0  0  0  0  0999 V2000
  135.4319  129.0669  119.7585 C   0  0  0  0  0  0  0  0  0  0  0  0
  134.7452  128.8090  120.9423 C   0  0  0  0  0  0  0  0  0  0  0  0
  133.4953  129.3996  121.1817 C   0  0  0  0  0  0  0  0  0  0  0  0
  132.8914  130.2723  120.2531 C   0  0  0  0  0  0  0  0  0  0  0  0
  133.5965  130.5225  119.0678 C   0  0  0  0  0  0  0  0  0  0  0  0
  134.8307  129.9105  118.8173 C   0  0  0  0  0  0  0  0  0  0  0  0
  131.5139  130.9172  120.5750 C   0  0  1  0  0  0  0  0  0  0  0  0
  130.4322  130.0139  119.9252 C   0  0  0  0  0  0  0  0  0  0  0  0
  128.9920  130.3571  120.2696 C   0  0  0  0  0  0  0  0  0  0  0  0
  128.8429  130.4835  121.7594 C   0  0  0  0  0  0  0  0  0  0  0  0
  127.9746  129.8771  122.3822 O   0  0  0  0  0  0  0  0  0  0  0  0
  129.7489  131.4829  122.4188 C   0  0  0  0  0  0  0  0  0  0  0  0
  131.2184  131.1720  122.0910 C   0  0  2  0  0  0  0  0  0  0  0  0
  132.1156  132.3069  122.3683 N   0  0  0  0  0  0  0  0  0  0  0  0
  131.9777  132.9584  123.6564 C   0  0  0  0  0  0  0  0  0  0  0  0
  132.0463  133.2176  121.2245 C   0  0  0  0  0  0  0  0  0  0  0  0
  131.5126  132.3757  120.0569 C   0  0  0  0  0  0  0  0  0  0  0  0
  136.6749  127.2769  118.7980 C   0  0  0  0  0  0  0  0  0  0  0  0
  136.6559  128.5510  119.4259 O   0  0  0  0  0  0  0  0  0  0  0  0
  135.4564  130.2287  117.6366 O   0  0  0  0  0  0  0  0  0  0  0  0
  136.3724  131.3076  117.8163 C   0  0  0  0  0  0  0  0  0  0  0  0
  137.6076  131.1429  116.9354 C   0  0  0  0  0  0  0  0  0  0  0  0
  138.1461  132.5588  116.7658 C   0  0  0  0  0  0  0  0  0  0  0  0
  136.9650  133.4957  117.0246 C   0  0  0  0  0  0  0  0  0  0  0  0
  135.7635  132.5929  117.2674 C   0  0  0  0  0  0  0  0  0  0  0  0
  135.1584  128.1794  121.6480 H   0  0  0  0  0  0  0  0  0  0  0  0
  133.0030  129.1890  122.0639 H   0  0  0  0  0  0  0  0  0  0  0  0
  133.1993  131.1686  118.3680 H   0  0  0  0  0  0  0  0  0  0  0  0
  130.6138  129.0069  120.2380 H   0  0  0  0  0  0  0  0  0  0  0  0
  130.5230  130.1640  118.8697 H   0  0  0  0  0  0  0  0  0  0  0  0
  128.3466  129.5821  119.9122 H   0  0  0  0  0  0  0  0  0  0  0  0
  128.7292  131.2857  119.8075 H   0  0  0  0  0  0  0  0  0  0  0  0
  129.6077  131.4414  123.4786 H   0  0  0  0  0  0  0  0  0  0  0  0
  129.5112  132.4604  122.0543 H   0  0  0  0  0  0  0  0  0  0  0  0
  131.3873  130.3064  122.6969 H   0  0  0  0  0  0  0  0  0  0  0  0
  132.0393  132.2266  124.4346 H   0  0  0  0  0  0  0  0  0  0  0  0
  131.0303  133.4532  123.7062 H   0  0  0  0  0  0  0  0  0  0  0  0
  132.7618  133.6761  123.7788 H   0  0  0  0  0  0  0  0  0  0  0  0
  133.0179  133.6021  120.9940 H   0  0  0  0  0  0  0  0  0  0  0  0
  131.4163  134.0586  121.4261 H   0  0  0  0  0  0  0  0  0  0  0  0
  132.1503  132.4712  119.2031 H   0  0  0  0  0  0  0  0  0  0  0  0
  130.5371  132.6903  119.7499 H   0  0  0  0  0  0  0  0  0  0  0  0
  137.6867  126.9948  118.5941 H   0  0  0  0  0  0  0  0  0  0  0  0
  136.1257  127.3230  117.8808 H   0  0  0  0  0  0  0  0  0  0  0  0
  136.2266  126.5531  119.4461 H   0  0  0  0  0  0  0  0  0  0  0  0
  136.6005  131.3283  118.8615 H   0  0  0  0  0  0  0  0  0  0  0  0
  137.3430  130.7227  115.9876 H   0  0  0  0  0  0  0  0  0  0  0  0
  138.3299  130.4815  117.3665 H   0  0  0  0  0  0  0  0  0  0  0  0
  138.5195  132.6976  115.7727 H   0  0  0  0  0  0  0  0  0  0  0  0
  138.9541  132.7531  117.4398 H   0  0  0  0  0  0  0  0  0  0  0  0
  136.7939  134.1228  116.1747 H   0  0  0  0  0  0  0  0  0  0  0  0
  137.1488  134.1390  117.8596 H   0  0  0  0  0  0  0  0  0  0  0  0
  135.2382  132.4051  116.3543 H   0  0  0  0  0  0  0  0  0  0  0  0
  135.0497  133.0282  117.9352 H   0  0  0  0  0  0  0  0  0  0  0  0
  1  2  2  0  0  0  0
  2  3  1  0  0  0  0
  2 26  1  0  0  0  0
  3  4  2  0  0  0  0
  3 27  1  0  0  0  0
  4  5  1  0  0  0  0
  5  6  2  0  0  0  0
  5 28  1  0  0  0  0
  6 20  1  0  0  0  0
  6  1  1  0  0  0  0
  7  4  1  6  0  0  0
  7  8  1  0  0  0  0
  8  9  1  0  0  0  0
  8 29  1  0  0  0  0
  8 30  1  0  0  0  0
  9 10  1  0  0  0  0
  9 31  1  0  0  0  0
  9 32  1  0  0  0  0
 10 11  2  0  0  0  0
 10 12  1  0  0  0  0
 12 13  1  0  0  0  0
 12 33  1  0  0  0  0
 12 34  1  0  0  0  0
 13 14  1  0  0  0  0
 13  7  1  0  0  0  0
 13 35  1  1  0  0  0
 14 15  1  0  0  0  0
 14 16  1  0  0  0  0
 15 36  1  0  0  0  0
 15 37  1  0  0  0  0
 15 38  1  0  0  0  0
 16 17  1  0  0  0  0
 16 39  1  0  0  0  0
 16 40  1  0  0  0  0
 17  7  1  0  0  0  0
 17 41  1  0  0  0  0
 17 42  1  0  0  0  0
 18 19  1  0  0  0  0
 18 43  1  0  0  0  0
 18 44  1  0  0  0  0
 18 45  1  0  0  0  0
 19  1  1  0  0  0  0
 20 21  1  0  0  0  0
 21 22  1  0  0  0  0
 21 46  1  0  0  0  0
 22 23  1  0  0  0  0
 22 47  1  0  0  0  0
 22 48  1  0  0  0  0
 23 24  1  0  0  0  0
 23 49  1  0  0  0  0
 23 50  1  0  0  0  0
 24 25  1  0  0  0  0
 24 51  1  0  0  0  0
 24 52  1  0  0  0  0
 25 21  1  0  0  0  0
 25 53  1  0  0  0  0
 25 54  1  0  0  0  0
M  END
>  <minimizedAffinity>
-8.05964

$$$$
