L2:P31645:122886


 21 23  0  0  0  0  0  0  0  0999 V2000
  131.3279  130.7124  120.3637 C   0  0  0  0  0  0  0  0  0  0  0  0
  131.6996  129.9243  121.6567 C   0  0  0  0  0  0  0  0  0  0  0  0
  132.1680  130.8266  122.7859 C   0  0  0  0  0  0  0  0  0  0  0  0
  131.0771  131.8131  123.1026 C   0  0  0  0  0  0  0  0  0  0  0  0
  130.6577  131.9637  124.2490 O   0  0  0  0  0  0  0  0  0  0  0  0
  130.6039  132.6783  121.9649 C   0  0  0  0  0  0  0  0  0  0  0  0
  130.3423  131.8889  120.6763 C   0  0  0  0  0  0  0  0  0  0  0  0
  128.9709  131.3639  120.4957 N   0  0  0  0  0  0  0  0  0  0  0  0
  128.3198  130.7574  121.6489 C   0  0  0  0  0  0  0  0  0  0  0  0
  129.0763  130.4385  119.3672 C   0  0  0  0  0  0  0  0  0  0  0  0
  130.4607  129.8023  119.4432 C   0  0  0  0  0  0  0  0  0  0  0  0
  135.0907  131.7169  118.3402 C   0  0  0  0  0  0  0  0  0  0  0  0
  134.1646  132.7184  118.6338 C   0  0  0  0  0  0  0  0  0  0  0  0
  132.9560  132.4137  119.2745 C   0  0  0  0  0  0  0  0  0  0  0  0
  132.6354  131.1007  119.6394 C   0  0  0  0  0  0  0  0  0  0  0  0
  133.5849  130.0985  119.3354 C   0  0  0  0  0  0  0  0  0  0  0  0
  134.7980  130.3901  118.6947 C   0  0  0  0  0  0  0  0  0  0  0  0
  136.5894  133.2463  117.2796 C   0  0  0  0  0  0  0  0  0  0  0  0
  136.2953  131.9281  117.7180 O   0  0  0  0  0  0  0  0  0  0  0  0
  135.7535  129.4565  118.3775 O   0  0  0  0  0  0  0  0  0  0  0  0
  135.4640  128.5370  117.3352 C   0  0  0  0  0  0  0  0  0  0  0  0
 18 19  1  0  0  0
 19 12  1  0  0  0
 12 13  2  0  0  0
 13 14  1  0  0  0
 14 15  2  0  0  0
  1 15  1  0  0  0
  1  2  1  0  0  0
  2  3  1  0  0  0
  3  4  1  0  0  0
  4  5  2  0  0  0
  4  6  1  0  0  0
  6  7  1  0  0  0
  7  8  1  0  0  0
  8  9  1  0  0  0
  8 10  1  0  0  0
 10 11  1  0  0  0
 15 16  1  0  0  0
 16 17  2  0  0  0
 17 20  1  0  0  0
 20 21  1  0  0  0
 17 12  1  0  0  0
  7  1  1  0  0  0
 11  1  1  0  0  0
M  END
> <minimizedAffinity>
-7.09238

$$$$
