L2:P31645:2227


 22 24  0  0  0  0  0  0  0  0999 V2000
  130.0368  130.0306  121.4912 N   0  0  0  0  0  0  0  0  0  0  0  0
  129.8574  129.7698  120.0589 C   0  0  0  0  0  0  0  0  0  0  0  0
  131.2500  129.8047  119.4517 C   0  0  0  0  0  0  0  0  0  0  0  0
  132.0220  130.8224  120.3152 C   0  0  0  0  0  0  0  0  0  0  0  0
  131.6214  132.2786  119.9167 C   0  0  0  0  0  0  0  0  0  0  0  0
  132.0536  133.3054  120.9529 C   0  0  0  0  0  0  0  0  0  0  0  0
  131.4379  132.9512  122.2814 C   0  0  0  0  0  0  0  0  0  0  0  0
  130.8323  133.7830  122.9555 O   0  0  0  0  0  0  0  0  0  0  0  0
  131.6968  131.5572  122.7895 C   0  0  0  0  0  0  0  0  0  0  0  0
  131.4319  130.4834  121.7232 C   0  0  0  0  0  0  0  0  0  0  0  0
  133.5319  130.6073  120.1086 C   0  0  0  0  0  0  0  0  0  0  0  0
  134.3123  129.7826  120.9274 C   0  0  0  0  0  0  0  0  0  0  0  0
  135.6859  129.6196  120.7028 C   0  0  0  0  0  0  0  0  0  0  0  0
  136.3191  130.2722  119.6449 C   0  0  0  0  0  0  0  0  0  0  0  0
  135.5593  131.0928  118.7956 C   0  0  0  0  0  0  0  0  0  0  0  0
  134.1849  131.2461  119.0310 C   0  0  0  0  0  0  0  0  0  0  0  0
  137.6565  130.1707  119.3555 O   0  0  0  0  0  0  0  0  0  0  0  0
  138.1318  128.9278  118.8598 C   0  0  0  0  0  0  0  0  0  0  0  0
  136.2441  131.6960  117.7696 O   0  0  0  0  0  0  0  0  0  0  0  0
  136.0957  133.0982  117.6050 C   0  0  0  0  0  0  0  0  0  0  0  0
  127.5826  130.1334  121.8841 C   0  0  0  0  0  0  0  0  0  0  0  0
  128.9452  130.7905  122.0970 C   0  0  0  0  0  0  0  0  0  0  0  0
 21 22  1  0  0  0
 22  1  1  0  0  0
  1  2  1  0  0  0
  2  3  1  0  0  0
  3  4  1  0  0  0
  4 11  1  0  0  0
 11 12  2  0  0  0
 12 13  1  0  0  0
 13 14  2  0  0  0
 14 17  1  0  0  0
 17 18  1  0  0  0
 14 15  1  0  0  0
 15 19  1  0  0  0
 19 20  1  0  0  0
 15 16  2  0  0  0
  4  5  1  0  0  0
  5  6  1  0  0  0
  6  7  1  0  0  0
  7  8  2  0  0  0
  7  9  1  0  0  0
  9 10  1  0  0  0
 10  1  1  0  0  0
 10  4  1  0  0  0
 16 11  1  0  0  0
M  END
> <minimizedAffinity>
-7.36637

$$$$
