L2:P31645:2227
 OpenBabel09212617453D

 47 49  0  0  0  0  0  0  0  0999 V2000
  130.0368  130.0306  121.4912 N   0  0  0  0  0  0  0  0  0  0  0  0
  129.8574  129.7698  120.0589 C   0  0  0  0  0  0  0  0  0  0  0  0
  131.2500  129.8047  119.4517 C   0  0  0  0  0  0  0  0  0  0  0  0
  132.0220  130.8224  120.3152 C   0  0  1  0  0  0  0  0  0  0  0  0
  131.6214  132.2786  119.9167 C   0  0  0  0  0  0  0  0  0  0  0  0
  132.0536  133.3054  120.9529 C   0  0  0  0  0  0  0  0  0  0  0  0
  131.4379  132.9512  122.2814 C   0  0  0  0  0  0  0  0  0  0  0  0
  130.8323  133.7830  122.9555 O   0  0  0  0  0  0  0  0  0  0  0  0
  131.6968  131.5572  122.7895 C   0  0  0  0  0  0  0  0  0  0  0  0
  131.4319  130.4834  121.7232 C   0  0  1  0  0  0  0  0  0  0  0  0
  133.5319  130.6073  120.1086 C   0  0  0  0  0  0  0  0  0  0  0  0
  134.3123  129.7826  120.9274 C   0  0  0  0  0  0  0  0  0  0  0  0
  135.6859  129.6196  120.7028 C   0  0  0  0  0  0  0  0  0  0  0  0
  136.3191  130.2722  119.6449 C   0  0  0  0  0  0  0  0  0  0  0  0
  135.5593  131.0928  118.7956 C   0  0  0  0  0  0  0  0  0  0  0  0
  134.1849  131.2461  119.0310 C   0  0  0  0  0  0  0  0  0  0  0  0
  137.6565  130.1707  119.3555 O   0  0  0  0  0  0  0  0  0  0  0  0
  138.1318  128.9278  118.8598 C   0  0  0  0  0  0  0  0  0  0  0  0
  136.2441  131.6960  117.7696 O   0  0  0  0  0  0  0  0  0  0  0  0
  136.0957  133.0982  117.6050 C   0  0  0  0  0  0  0  0  0  0  0  0
  127.5826  130.1334  121.8841 C   0  0  0  0  0  0  0  0  0  0  0  0
  128.9452  130.7905  122.0970 C   0  0  0  0  0  0  0  0  0  0  0  0
  129.2400  130.5241  119.6177 H   0  0  0  0  0  0  0  0  0  0  0  0
  129.3777  128.8287  119.8880 H   0  0  0  0  0  0  0  0  0  0  0  0
  131.2101  130.1269  118.4322 H   0  0  0  0  0  0  0  0  0  0  0  0
  131.7152  128.8411  119.4447 H   0  0  0  0  0  0  0  0  0  0  0  0
  130.5577  132.3251  119.8103 H   0  0  0  0  0  0  0  0  0  0  0  0
  132.1189  132.5133  118.9989 H   0  0  0  0  0  0  0  0  0  0  0  0
  131.7242  134.2782  120.6529 H   0  0  0  0  0  0  0  0  0  0  0  0
  133.1202  133.3063  121.0377 H   0  0  0  0  0  0  0  0  0  0  0  0
  131.0577  131.3733  123.6277 H   0  0  0  0  0  0  0  0  0  0  0  0
  132.7299  131.4971  123.0616 H   0  0  0  0  0  0  0  0  0  0  0  0
  131.9466  129.6767  122.2020 H   0  0  0  0  0  0  0  0  0  0  0  0
  133.8665  129.2840  121.7133 H   0  0  0  0  0  0  0  0  0  0  0  0
  136.2357  129.0094  121.3276 H   0  0  0  0  0  0  0  0  0  0  0  0
  133.6332  131.8447  118.3967 H   0  0  0  0  0  0  0  0  0  0  0  0
  139.1844  128.9946  118.6798 H   0  0  0  0  0  0  0  0  0  0  0  0
  137.6279  128.6921  117.9458 H   0  0  0  0  0  0  0  0  0  0  0  0
  137.9412  128.1601  119.5803 H   0  0  0  0  0  0  0  0  0  0  0  0
  136.6838  133.4238  116.7725 H   0  0  0  0  0  0  0  0  0  0  0  0
  136.4252  133.5983  118.4917 H   0  0  0  0  0  0  0  0  0  0  0  0
  135.0663  133.3294  117.4267 H   0  0  0  0  0  0  0  0  0  0  0  0
  126.8233  130.7292  122.3460 H   0  0  0  0  0  0  0  0  0  0  0  0
  127.5853  129.1569  122.3216 H   0  0  0  0  0  0  0  0  0  0  0  0
  127.3849  130.0539  120.8355 H   0  0  0  0  0  0  0  0  0  0  0  0
  129.1262  130.8711  123.1485 H   0  0  0  0  0  0  0  0  0  0  0  0
  128.9188  131.7510  121.6261 H   0  0  0  0  0  0  0  0  0  0  0  0
  1  2  1  0  0  0  0
  2  3  1  0  0  0  0
  2 23  1  0  0  0  0
  2 24  1  0  0  0  0
  3  4  1  0  0  0  0
  3 25  1  0  0  0  0
  3 26  1  0  0  0  0
  4 11  1  6  0  0  0
  4  5  1  0  0  0  0
  5  6  1  0  0  0  0
  5 27  1  0  0  0  0
  5 28  1  0  0  0  0
  6  7  1  0  0  0  0
  6 29  1  0  0  0  0
  6 30  1  0  0  0  0
  7  8  2  0  0  0  0
  7  9  1  0  0  0  0
  9 10  1  0  0  0  0
  9 31  1  0  0  0  0
  9 32  1  0  0  0  0
 10  1  1  0  0  0  0
 10  4  1  0  0  0  0
 10 33  1  1  0  0  0
 11 12  2  0  0  0  0
 12 13  1  0  0  0  0
 12 34  1  0  0  0  0
 13 14  2  0  0  0  0
 13 35  1  0  0  0  0
 14 17  1  0  0  0  0
 14 15  1  0  0  0  0
 15 19  1  0  0  0  0
 15 16  2  0  0  0  0
 16 11  1  0  0  0  0
 16 36  1  0  0  0  0
 17 18  1  0  0  0  0
 18 37  1  0  0  0  0
 18 38  1  0  0  0  0
 18 39  1  0  0  0  0
 19 20  1  0  0  0  0
 20 40  1  0  0  0  0
 20 41  1  0  0  0  0
 20 42  1  0  0  0  0
 21 22  1  0  0  0  0
 21 43  1  0  0  0  0
 21 44  1  0  0  0  0
 21 45  1  0  0  0  0
 22  1  1  0  0  0  0
 22 46  1  0  0  0  0
 22 47  1  0  0  0  0
M  END
>  <minimizedAffinity>
-7.36637

$$$$
