L2:P31645:2227
     RDKit          3D

 47 49  0  0  0  0  0  0  0  0999 V2000
   -5.3024    0.6229   -0.6268 C   0  0  0  0  0  0  0  0  0  0  0  0
   -4.1066   -0.0190    0.0744 C   0  0  0  0  0  0  0  0  0  0  0  0
   -2.8939    0.0111   -0.7409 N   0  0  0  0  0  0  0  0  0  0  0  0
   -2.4751    1.3604   -1.1352 C   0  0  0  0  0  0  0  0  0  0  0  0
   -0.9559    1.3343   -1.1598 C   0  0  0  0  0  0  0  0  0  0  0  0
   -0.5698    0.3181   -0.0664 C   0  0  1  0  0  0  0  0  0  0  0  0
    0.8802   -0.1408   -0.3023 C   0  0  0  0  0  0  0  0  0  0  0  0
    1.2313   -1.4618   -0.6048 C   0  0  0  0  0  0  0  0  0  0  0  0
    2.5668   -1.8343   -0.8083 C   0  0  0  0  0  0  0  0  0  0  0  0
    3.5921   -0.8922   -0.7231 C   0  0  0  0  0  0  0  0  0  0  0  0
    4.9232   -1.1709   -0.9051 O   0  0  0  0  0  0  0  0  0  0  0  0
    5.2823   -2.5136   -1.1962 C   0  0  0  0  0  0  0  0  0  0  0  0
    3.2696    0.4445   -0.4382 C   0  0  0  0  0  0  0  0  0  0  0  0
    4.3260    1.3197   -0.3791 O   0  0  0  0  0  0  0  0  0  0  0  0
    4.0460    2.6816   -0.0925 C   0  0  0  0  0  0  0  0  0  0  0  0
    1.9285    0.8040   -0.2379 C   0  0  0  0  0  0  0  0  0  0  0  0
   -0.7102    0.9694    1.3463 C   0  0  0  0  0  0  0  0  0  0  0  0
   -0.7041   -0.0612    2.4656 C   0  0  0  0  0  0  0  0  0  0  0  0
   -1.8281   -1.0384    2.2391 C   0  0  0  0  0  0  0  0  0  0  0  0
   -2.6241   -1.3263    3.1316 O   0  0  0  0  0  0  0  0  0  0  0  0
   -1.8594   -1.7247    0.8988 C   0  0  0  0  0  0  0  0  0  0  0  0
   -1.7027   -0.7404   -0.2703 C   0  0  1  0  0  0  0  0  0  0  0  0
   -6.2048    0.4890   -0.0210 H   0  0  0  0  0  0  0  0  0  0  0  0
   -5.4821    0.1590   -1.6025 H   0  0  0  0  0  0  0  0  0  0  0  0
   -5.1625    1.6981   -0.7753 H   0  0  0  0  0  0  0  0  0  0  0  0
   -3.9471    0.4760    1.0389 H   0  0  0  0  0  0  0  0  0  0  0  0
   -4.3953   -1.0553    0.2761 H   0  0  0  0  0  0  0  0  0  0  0  0
   -2.8806    1.6300   -2.1158 H   0  0  0  0  0  0  0  0  0  0  0  0
   -2.8079    2.1180   -0.4154 H   0  0  0  0  0  0  0  0  0  0  0  0
   -0.6134    0.9934   -2.1465 H   0  0  0  0  0  0  0  0  0  0  0  0
   -0.5359    2.3318   -0.9892 H   0  0  0  0  0  0  0  0  0  0  0  0
    0.4883   -2.2464   -0.7069 H   0  0  0  0  0  0  0  0  0  0  0  0
    2.7691   -2.8754   -1.0383 H   0  0  0  0  0  0  0  0  0  0  0  0
    6.3705   -2.5527   -1.3052 H   0  0  0  0  0  0  0  0  0  0  0  0
    4.8419   -2.8440   -2.1427 H   0  0  0  0  0  0  0  0  0  0  0  0
    5.0067   -3.1835   -0.3752 H   0  0  0  0  0  0  0  0  0  0  0  0
    3.5893    2.7918    0.8966 H   0  0  0  0  0  0  0  0  0  0  0  0
    3.4192    3.1284   -0.8712 H   0  0  0  0  0  0  0  0  0  0  0  0
    4.9966    3.2234   -0.0808 H   0  0  0  0  0  0  0  0  0  0  0  0
    1.6772    1.8398   -0.0334 H   0  0  0  0  0  0  0  0  0  0  0  0
   -1.6490    1.5320    1.4186 H   0  0  0  0  0  0  0  0  0  0  0  0
    0.0799    1.7047    1.5344 H   0  0  0  0  0  0  0  0  0  0  0  0
   -0.8554    0.4368    3.4293 H   0  0  0  0  0  0  0  0  0  0  0  0
    0.2406   -0.6116    2.5140 H   0  0  0  0  0  0  0  0  0  0  0  0
   -2.7710   -2.3228    0.8073 H   0  0  0  0  0  0  0  0  0  0  0  0
   -1.0351   -2.4460    0.9064 H   0  0  0  0  0  0  0  0  0  0  0  0
   -1.4526   -1.3567   -1.1446 H   0  0  0  0  0  0  0  0  0  0  0  0
  1  2  1  0
  2  3  1  0
  3  4  1  0
  4  5  1  0
  5  6  1  0
  6  7  1  6
  7  8  2  0
  8  9  1  0
  9 10  2  0
 10 11  1  0
 11 12  1  0
 10 13  1  0
 13 14  1  0
 14 15  1  0
 13 16  2  0
  6 17  1  0
 17 18  1  0
 18 19  1  0
 19 20  2  0
 19 21  1  0
 21 22  1  0
 22  3  1  0
 22  6  1  0
 16  7  1  0
  1 23  1  0
  1 24  1  0
  1 25  1  0
  2 26  1  0
  2 27  1  0
  4 28  1  0
  4 29  1  0
  5 30  1  0
  5 31  1  0
  8 32  1  0
  9 33  1  0
 12 34  1  0
 12 35  1  0
 12 36  1  0
 15 37  1  0
 15 38  1  0
 15 39  1  0
 16 40  1  0
 17 41  1  0
 17 42  1  0
 18 43  1  0
 18 44  1  0
 21 45  1  0
 21 46  1  0
 22 47  1  6
M  END
>  <mol_id>  (1) 
2227

>  <source_index>  (1) 
0

>  <layer>  (1) 
L2

>  <uniprot>  (1) 
P31645

>  <paff>  (1) 
7.3010000000000002

>  <smiles>  (1) 
CCN1CC[C@@]2(c3ccc(OC)c(OC)c3)CCC(=O)C[C@@H]12

$$$$
