L2:P31645:24100


 23 25  0  0  0  0  0  0  0  0999 V2000
  140.4652  125.6230  116.2769 C   0  0  0  0  0  0  0  0  0  0  0  0
  139.8715  126.8911  116.3874 C   0  0  0  0  0  0  0  0  0  0  0  0
  138.5125  127.1202  116.0767 C   0  0  0  0  0  0  0  0  0  0  0  0
  137.7534  126.0142  115.6719 C   0  0  0  0  0  0  0  0  0  0  0  0
  138.3260  124.7418  115.5712 C   0  0  0  0  0  0  0  0  0  0  0  0
  139.6684  124.5400  115.8950 C   0  0  0  0  0  0  0  0  0  0  0  0
  137.9343  128.5372  116.2153 C   0  0  0  0  0  0  0  0  0  0  0  0
  136.4446  128.5771  115.7435 C   0  0  0  0  0  0  0  0  0  0  0  0
  135.4954  127.9411  116.7455 C   0  0  0  0  0  0  0  0  0  0  0  0
  135.6342  128.6203  118.0832 C   0  0  0  0  0  0  0  0  0  0  0  0
  134.6467  128.9326  118.7492 O   0  0  0  0  0  0  0  0  0  0  0  0
  137.0289  128.7395  118.6435 C   0  0  0  0  0  0  0  0  0  0  0  0
  138.0574  129.2209  117.6131 C   0  0  0  0  0  0  0  0  0  0  0  0
  137.9241  130.6496  117.2608 N   0  0  0  0  0  0  0  0  0  0  0  0
  138.2866  131.5730  118.3305 C   0  0  0  0  0  0  0  0  0  0  0  0
  138.7678  130.8471  116.0772 C   0  0  0  0  0  0  0  0  0  0  0  0
  138.7609  129.5113  115.3371 C   0  0  0  0  0  0  0  0  0  0  0  0
  142.0721  124.8750  118.3877 C   0  0  0  0  0  0  0  0  0  0  0  0
  142.2026  125.4908  116.6878 S   0  0  0  0  0  0  0  0  0  0  0  0
  140.2135  123.2888  115.7723 O   0  0  0  0  0  0  0  0  0  0  0  0
  139.3623  122.2500  116.2849 C   0  0  0  0  0  0  0  0  0  0  0  0
  139.6001  122.1404  117.7876 C   0  0  0  0  0  0  0  0  0  0  0  0
  139.7440  120.9481  115.5886 C   0  0  0  0  0  0  0  0  0  0  0  0
 18 19  1  0  0  0
 19  1  1  0  0  0
  1  2  2  0  0  0
  2  3  1  0  0  0
  7  3  1  0  0  0
  7  8  1  0  0  0
  8  9  1  0  0  0
  9 10  1  0  0  0
 10 11  2  0  0  0
 10 12  1  0  0  0
 12 13  1  0  0  0
 13 14  1  0  0  0
 14 15  1  0  0  0
 14 16  1  0  0  0
 16 17  1  0  0  0
  3  4  2  0  0  0
  4  5  1  0  0  0
  5  6  2  0  0  0
  6 20  1  0  0  0
 20 21  1  0  0  0
 21 22  1  0  0  0
 21 23  1  0  0  0
  6  1  1  0  0  0
 13  7  1  0  0  0
 17  7  1  0  0  0
M  END
> <minimizedAffinity>
-7.44552

$$$$
