L2:P31645:24100
     RDKit          3D

 50 52  0  0  0  0  0  0  0  0999 V2000
    3.5162   -2.3983   -2.1858 C   0  0  0  0  0  0  0  0  0  0  0  0
    3.0415   -0.6624   -2.4035 S   0  0  0  0  0  0  0  0  0  0  0  0
    1.9299   -0.4734   -1.0129 C   0  0  0  0  0  0  0  0  0  0  0  0
    0.6052   -0.1000   -1.2930 C   0  0  0  0  0  0  0  0  0  0  0  0
   -0.3650    0.0653   -0.2793 C   0  0  0  0  0  0  0  0  0  0  0  0
   -1.7972    0.4689   -0.6629 C   0  0  1  0  0  0  0  0  0  0  0  0
   -2.4184   -0.5667   -1.6553 C   0  0  0  0  0  0  0  0  0  0  0  0
   -2.8178   -1.8648   -0.9736 C   0  0  0  0  0  0  0  0  0  0  0  0
   -3.7825   -1.5776    0.1475 C   0  0  0  0  0  0  0  0  0  0  0  0
   -4.7924   -2.2619    0.3154 O   0  0  0  0  0  0  0  0  0  0  0  0
   -3.3661   -0.5327    1.1515 C   0  0  0  0  0  0  0  0  0  0  0  0
   -2.7969    0.7362    0.5057 C   0  0  2  0  0  0  0  0  0  0  0  0
   -3.8158    1.5758   -0.1576 N   0  0  0  0  0  0  0  0  0  0  0  0
   -4.7458    2.2327    0.7545 C   0  0  0  0  0  0  0  0  0  0  0  0
   -3.0672    2.5553   -0.9525 C   0  0  0  0  0  0  0  0  0  0  0  0
   -1.7669    1.8591   -1.3484 C   0  0  0  0  0  0  0  0  0  0  0  0
    0.0517   -0.1333    1.0437 C   0  0  0  0  0  0  0  0  0  0  0  0
    1.3712   -0.4907    1.3404 C   0  0  0  0  0  0  0  0  0  0  0  0
    2.3133   -0.6367    0.3212 C   0  0  0  0  0  0  0  0  0  0  0  0
    3.5960   -1.0046    0.6328 O   0  0  0  0  0  0  0  0  0  0  0  0
    4.3085    0.0029    1.3701 C   0  0  0  0  0  0  0  0  0  0  0  0
    5.4660    0.4931    0.5062 C   0  0  0  0  0  0  0  0  0  0  0  0
    4.8332   -0.6391    2.6499 C   0  0  0  0  0  0  0  0  0  0  0  0
    4.1809   -2.5234   -1.3283 H   0  0  0  0  0  0  0  0  0  0  0  0
    2.6314   -3.0283   -2.0587 H   0  0  0  0  0  0  0  0  0  0  0  0
    4.0510   -2.7321   -3.0793 H   0  0  0  0  0  0  0  0  0  0  0  0
    0.3267    0.0666   -2.3331 H   0  0  0  0  0  0  0  0  0  0  0  0
   -3.3141   -0.1419   -2.1295 H   0  0  0  0  0  0  0  0  0  0  0  0
   -1.7371   -0.7951   -2.4826 H   0  0  0  0  0  0  0  0  0  0  0  0
   -1.9509   -2.3924   -0.5634 H   0  0  0  0  0  0  0  0  0  0  0  0
   -3.3052   -2.5259   -1.6982 H   0  0  0  0  0  0  0  0  0  0  0  0
   -2.6168   -1.0051    1.7951 H   0  0  0  0  0  0  0  0  0  0  0  0
   -4.2204   -0.3023    1.7959 H   0  0  0  0  0  0  0  0  0  0  0  0
   -2.3144    1.3383    1.2888 H   0  0  0  0  0  0  0  0  0  0  0  0
   -4.2300    2.8330    1.5123 H   0  0  0  0  0  0  0  0  0  0  0  0
   -5.3811    1.5027    1.2647 H   0  0  0  0  0  0  0  0  0  0  0  0
   -5.4220    2.8916    0.1979 H   0  0  0  0  0  0  0  0  0  0  0  0
   -3.6409    2.8561   -1.8353 H   0  0  0  0  0  0  0  0  0  0  0  0
   -2.8287    3.4590   -0.3773 H   0  0  0  0  0  0  0  0  0  0  0  0
   -0.9231    2.4655   -0.9936 H   0  0  0  0  0  0  0  0  0  0  0  0
   -1.6735    1.7793   -2.4379 H   0  0  0  0  0  0  0  0  0  0  0  0
   -0.6230   -0.0109    1.8849 H   0  0  0  0  0  0  0  0  0  0  0  0
    1.6582   -0.6555    2.3754 H   0  0  0  0  0  0  0  0  0  0  0  0
    3.6772    0.8628    1.6310 H   0  0  0  0  0  0  0  0  0  0  0  0
    6.0854    1.2168    1.0449 H   0  0  0  0  0  0  0  0  0  0  0  0
    6.0982   -0.3414    0.1833 H   0  0  0  0  0  0  0  0  0  0  0  0
    5.0886    0.9734   -0.4023 H   0  0  0  0  0  0  0  0  0  0  0  0
    5.4663   -1.5046    2.4246 H   0  0  0  0  0  0  0  0  0  0  0  0
    4.0043   -1.0081    3.2629 H   0  0  0  0  0  0  0  0  0  0  0  0
    5.4127    0.0745    3.2437 H   0  0  0  0  0  0  0  0  0  0  0  0
  1  2  1  0
  2  3  1  0
  3  4  2  0
  4  5  1  0
  6  5  1  1
  6  7  1  0
  7  8  1  0
  8  9  1  0
  9 10  2  0
  9 11  1  0
 11 12  1  0
 12 13  1  0
 13 14  1  0
 13 15  1  0
 15 16  1  0
  5 17  2  0
 17 18  1  0
 18 19  2  0
 19 20  1  0
 20 21  1  0
 21 22  1  0
 21 23  1  0
 19  3  1  0
 12  6  1  0
 16  6  1  0
  1 24  1  0
  1 25  1  0
  1 26  1  0
  4 27  1  0
  7 28  1  0
  7 29  1  0
  8 30  1  0
  8 31  1  0
 11 32  1  0
 11 33  1  0
 12 34  1  1
 14 35  1  0
 14 36  1  0
 14 37  1  0
 15 38  1  0
 15 39  1  0
 16 40  1  0
 16 41  1  0
 17 42  1  0
 18 43  1  0
 21 44  1  0
 22 45  1  0
 22 46  1  0
 22 47  1  0
 23 48  1  0
 23 49  1  0
 23 50  1  0
M  END
>  <mol_id>  (1) 
24100

>  <source_index>  (1) 
1

>  <layer>  (1) 
L2

>  <uniprot>  (1) 
P31645

>  <paff>  (1) 
6.5228999999999999

>  <smiles>  (1) 
CSc1cc([C@@]23CCC(=O)C[C@@H]2N(C)CC3)ccc1OC(C)C

$$$$
