L2:P31645:24100
 OpenBabel09212617453D

 50 52  0  0  0  0  0  0  0  0999 V2000
  140.4652  125.6230  116.2769 C   0  0  0  0  0  0  0  0  0  0  0  0
  139.8715  126.8911  116.3874 C   0  0  0  0  0  0  0  0  0  0  0  0
  138.5125  127.1202  116.0767 C   0  0  0  0  0  0  0  0  0  0  0  0
  137.7534  126.0142  115.6719 C   0  0  0  0  0  0  0  0  0  0  0  0
  138.3260  124.7418  115.5712 C   0  0  0  0  0  0  0  0  0  0  0  0
  139.6684  124.5400  115.8950 C   0  0  0  0  0  0  0  0  0  0  0  0
  137.9343  128.5372  116.2153 C   0  0  1  0  0  0  0  0  0  0  0  0
  136.4446  128.5771  115.7435 C   0  0  0  0  0  0  0  0  0  0  0  0
  135.4954  127.9411  116.7455 C   0  0  0  0  0  0  0  0  0  0  0  0
  135.6342  128.6203  118.0832 C   0  0  0  0  0  0  0  0  0  0  0  0
  134.6467  128.9326  118.7492 O   0  0  0  0  0  0  0  0  0  0  0  0
  137.0289  128.7395  118.6435 C   0  0  0  0  0  0  0  0  0  0  0  0
  138.0574  129.2209  117.6131 C   0  0  2  0  0  0  0  0  0  0  0  0
  137.9241  130.6496  117.2608 N   0  0  0  0  0  0  0  0  0  0  0  0
  138.2866  131.5730  118.3305 C   0  0  0  0  0  0  0  0  0  0  0  0
  138.7678  130.8471  116.0772 C   0  0  0  0  0  0  0  0  0  0  0  0
  138.7609  129.5113  115.3371 C   0  0  0  0  0  0  0  0  0  0  0  0
  142.0721  124.8750  118.3877 C   0  0  0  0  0  0  0  0  0  0  0  0
  142.2026  125.4908  116.6878 S   0  0  0  0  0  0  0  0  0  0  0  0
  140.2135  123.2888  115.7723 O   0  0  0  0  0  0  0  0  0  0  0  0
  139.3623  122.2500  116.2849 C   0  0  0  0  0  0  0  0  0  0  0  0
  139.6001  122.1404  117.7876 C   0  0  0  0  0  0  0  0  0  0  0  0
  139.7440  120.9481  115.5886 C   0  0  0  0  0  0  0  0  0  0  0  0
  140.4490  127.6843  116.7072 H   0  0  0  0  0  0  0  0  0  0  0  0
  136.7548  126.1404  115.4441 H   0  0  0  0  0  0  0  0  0  0  0  0
  137.7508  123.9455  115.2548 H   0  0  0  0  0  0  0  0  0  0  0  0
  136.3652  128.0511  114.8151 H   0  0  0  0  0  0  0  0  0  0  0  0
  136.1653  129.6049  115.6408 H   0  0  0  0  0  0  0  0  0  0  0  0
  135.7314  126.9025  116.8484 H   0  0  0  0  0  0  0  0  0  0  0  0
  134.4896  128.0498  116.3971 H   0  0  0  0  0  0  0  0  0  0  0  0
  137.3333  127.7792  119.0040 H   0  0  0  0  0  0  0  0  0  0  0  0
  136.9956  129.4711  119.4236 H   0  0  0  0  0  0  0  0  0  0  0  0
  138.9722  128.9867  118.1163 H   0  0  0  0  0  0  0  0  0  0  0  0
  137.6546  131.4038  119.1772 H   0  0  0  0  0  0  0  0  0  0  0  0
  138.1640  132.5797  117.9894 H   0  0  0  0  0  0  0  0  0  0  0  0
  139.3071  131.4127  118.6095 H   0  0  0  0  0  0  0  0  0  0  0  0
  139.7640  131.1071  116.3684 H   0  0  0  0  0  0  0  0  0  0  0  0
  138.4033  131.6420  115.4606 H   0  0  0  0  0  0  0  0  0  0  0  0
  139.7601  129.1474  115.2185 H   0  0  0  0  0  0  0  0  0  0  0  0
  138.3392  129.6089  114.3585 H   0  0  0  0  0  0  0  0  0  0  0  0
  143.0526  124.7375  118.7935 H   0  0  0  0  0  0  0  0  0  0  0  0
  141.5511  123.9404  118.3895 H   0  0  0  0  0  0  0  0  0  0  0  0
  141.5356  125.5836  118.9835 H   0  0  0  0  0  0  0  0  0  0  0  0
  138.3284  122.4602  116.1068 H   0  0  0  0  0  0  0  0  0  0  0  0
  140.6331  121.9302  117.9708 H   0  0  0  0  0  0  0  0  0  0  0  0
  138.9990  121.3505  118.1871 H   0  0  0  0  0  0  0  0  0  0  0  0
  139.3349  123.0637  118.2589 H   0  0  0  0  0  0  0  0  0  0  0  0
  140.7779  120.7381  115.7668 H   0  0  0  0  0  0  0  0  0  0  0  0
  139.5757  121.0438  114.5363 H   0  0  0  0  0  0  0  0  0  0  0  0
  139.1461  120.1488  115.9741 H   0  0  0  0  0  0  0  0  0  0  0  0
  1  2  2  0  0  0  0
  2  3  1  0  0  0  0
  2 24  1  0  0  0  0
  3  4  2  0  0  0  0
  4  5  1  0  0  0  0
  4 25  1  0  0  0  0
  5  6  2  0  0  0  0
  5 26  1  0  0  0  0
  6 20  1  0  0  0  0
  6  1  1  0  0  0  0
  7  3  1  6  0  0  0
  7  8  1  0  0  0  0
  8  9  1  0  0  0  0
  8 27  1  0  0  0  0
  8 28  1  0  0  0  0
  9 10  1  0  0  0  0
  9 29  1  0  0  0  0
  9 30  1  0  0  0  0
 10 11  2  0  0  0  0
 10 12  1  0  0  0  0
 12 13  1  0  0  0  0
 12 31  1  0  0  0  0
 12 32  1  0  0  0  0
 13 14  1  0  0  0  0
 13  7  1  0  0  0  0
 13 33  1  1  0  0  0
 14 15  1  0  0  0  0
 14 16  1  0  0  0  0
 15 34  1  0  0  0  0
 15 35  1  0  0  0  0
 15 36  1  0  0  0  0
 16 17  1  0  0  0  0
 16 37  1  0  0  0  0
 16 38  1  0  0  0  0
 17  7  1  0  0  0  0
 17 39  1  0  0  0  0
 17 40  1  0  0  0  0
 18 19  1  0  0  0  0
 18 41  1  0  0  0  0
 18 42  1  0  0  0  0
 18 43  1  0  0  0  0
 19  1  1  0  0  0  0
 20 21  1  0  0  0  0
 21 22  1  0  0  0  0
 21 23  1  0  0  0  0
 21 44  1  0  0  0  0
 22 45  1  0  0  0  0
 22 46  1  0  0  0  0
 22 47  1  0  0  0  0
 23 48  1  0  0  0  0
 23 49  1  0  0  0  0
 23 50  1  0  0  0  0
M  END
>  <minimizedAffinity>
-7.44552

$$$$
