L2:P31645:33467
 OpenBabel09212617453D

 46 48  0  0  0  0  0  0  0  0999 V2000
  131.7803  131.3173  120.5670 C   0  0  2  0  0  0  0  0  0  0  0  0
  130.7867  130.4135  119.7801 C   0  0  0  0  0  0  0  0  0  0  0  0
  129.3087  130.6370  120.0761 C   0  0  0  0  0  0  0  0  0  0  0  0
  129.1172  130.5922  121.5694 C   0  0  0  0  0  0  0  0  0  0  0  0
  128.3801  129.7496  122.2267 N   0  0  0  0  0  0  0  0  0  0  0  0
  127.7481  128.8389  121.3776 O   0  0  0  0  0  0  0  0  0  0  0  0
  129.8785  131.6383  122.3350 C   0  0  0  0  0  0  0  0  0  0  0  0
  131.3843  131.4460  122.0794 C   0  0  2  0  0  0  0  0  0  0  0  0
  132.1884  132.6100  122.4915 N   0  0  0  0  0  0  0  0  0  0  0  0
  131.9189  133.1644  123.8041 C   0  0  0  0  0  0  0  0  0  0  0  0
  132.1305  133.5924  121.4072 C   0  0  0  0  0  0  0  0  0  0  0  0
  131.7279  132.8073  120.1515 C   0  0  0  0  0  0  0  0  0  0  0  0
  127.2504  128.2789  122.0027 H   0  0  0  0  0  0  0  0  0  0  0  0
  135.8280  129.7396  119.8480 C   0  0  0  0  0  0  0  0  0  0  0  0
  134.9956  129.1799  120.8168 C   0  0  0  0  0  0  0  0  0  0  0  0
  133.7092  129.6888  121.0256 C   0  0  0  0  0  0  0  0  0  0  0  0
  133.2128  130.7756  120.2816 C   0  0  0  0  0  0  0  0  0  0  0  0
  134.0639  131.3235  119.3052 C   0  0  0  0  0  0  0  0  0  0  0  0
  135.3539  130.8155  119.0776 C   0  0  0  0  0  0  0  0  0  0  0  0
  137.2446  128.0471  118.9348 C   0  0  0  0  0  0  0  0  0  0  0  0
  137.1012  129.3078  119.5717 O   0  0  0  0  0  0  0  0  0  0  0  0
  136.2254  131.3115  118.1370 O   0  0  0  0  0  0  0  0  0  0  0  0
  135.8258  132.4694  117.4183 C   0  0  0  0  0  0  0  0  0  0  0  0
  131.0171  129.3943  120.0106 H   0  0  0  0  0  0  0  0  0  0  0  0
  130.9178  130.6673  118.7489 H   0  0  0  0  0  0  0  0  0  0  0  0
  128.7260  129.8685  119.6127 H   0  0  0  0  0  0  0  0  0  0  0  0
  128.9931  131.5840  119.6907 H   0  0  0  0  0  0  0  0  0  0  0  0
  129.6758  131.5367  123.3807 H   0  0  0  0  0  0  0  0  0  0  0  0
  129.5778  132.6135  122.0134 H   0  0  0  0  0  0  0  0  0  0  0  0
  131.5774  130.5525  122.6356 H   0  0  0  0  0  0  0  0  0  0  0  0
  131.9797  132.3885  124.5383 H   0  0  0  0  0  0  0  0  0  0  0  0
  130.9377  133.5911  123.8165 H   0  0  0  0  0  0  0  0  0  0  0  0
  132.6404  133.9227  124.0260 H   0  0  0  0  0  0  0  0  0  0  0  0
  133.0872  134.0512  121.2688 H   0  0  0  0  0  0  0  0  0  0  0  0
  131.4333  134.3751  121.6222 H   0  0  0  0  0  0  0  0  0  0  0  0
  132.4150  132.9983  119.3538 H   0  0  0  0  0  0  0  0  0  0  0  0
  130.7578  133.0892  119.7988 H   0  0  0  0  0  0  0  0  0  0  0  0
  135.3307  128.3851  121.3834 H   0  0  0  0  0  0  0  0  0  0  0  0
  133.1083  129.2558  121.7442 H   0  0  0  0  0  0  0  0  0  0  0  0
  133.7317  132.1207  118.7403 H   0  0  0  0  0  0  0  0  0  0  0  0
  138.2834  127.8407  118.7823 H   0  0  0  0  0  0  0  0  0  0  0  0
  136.7422  128.0655  117.9903 H   0  0  0  0  0  0  0  0  0  0  0  0
  136.8164  127.2850  119.5518 H   0  0  0  0  0  0  0  0  0  0  0  0
  136.5943  132.7421  116.7256 H   0  0  0  0  0  0  0  0  0  0  0  0
  135.6606  133.2749  118.1030 H   0  0  0  0  0  0  0  0  0  0  0  0
  134.9214  132.2636  116.8848 H   0  0  0  0  0  0  0  0  0  0  0  0
  1 17  1  6  0  0  0
  1  2  1  0  0  0  0
  2  3  1  0  0  0  0
  2 24  1  0  0  0  0
  2 25  1  0  0  0  0
  3  4  1  0  0  0  0
  3 26  1  0  0  0  0
  3 27  1  0  0  0  0
  4  5  2  0  0  0  0
  4  7  1  0  0  0  0
  5  6  1  0  0  0  0
  6 13  1  0  0  0  0
  7  8  1  0  0  0  0
  7 28  1  0  0  0  0
  7 29  1  0  0  0  0
  8  9  1  0  0  0  0
  8  1  1  0  0  0  0
  8 30  1  1  0  0  0
  9 10  1  0  0  0  0
  9 11  1  0  0  0  0
 10 31  1  0  0  0  0
 10 32  1  0  0  0  0
 10 33  1  0  0  0  0
 11 12  1  0  0  0  0
 11 34  1  0  0  0  0
 11 35  1  0  0  0  0
 12  1  1  0  0  0  0
 12 36  1  0  0  0  0
 12 37  1  0  0  0  0
 14 15  2  0  0  0  0
 15 16  1  0  0  0  0
 15 38  1  0  0  0  0
 16 17  2  0  0  0  0
 16 39  1  0  0  0  0
 17 18  1  0  0  0  0
 18 19  2  0  0  0  0
 18 40  1  0  0  0  0
 19 22  1  0  0  0  0
 19 14  1  0  0  0  0
 20 21  1  0  0  0  0
 20 41  1  0  0  0  0
 20 42  1  0  0  0  0
 20 43  1  0  0  0  0
 21 14  1  0  0  0  0
 22 23  1  0  0  0  0
 23 44  1  0  0  0  0
 23 45  1  0  0  0  0
 23 46  1  0  0  0  0
M  END
>  <minimizedAffinity>
-7.76673

$$$$
