L2:P31645:33467
     RDKit          3D

 46 48  0  0  0  0  0  0  0  0999 V2000
   -5.6073    0.3037   -1.7715 C   0  0  0  0  0  0  0  0  0  0  0  0
   -4.8672    0.4427   -0.5680 O   0  0  0  0  0  0  0  0  0  0  0  0
   -3.5071    0.2704   -0.6343 C   0  0  0  0  0  0  0  0  0  0  0  0
   -2.8080   -0.0672   -1.7927 C   0  0  0  0  0  0  0  0  0  0  0  0
   -1.4180   -0.2230   -1.7616 C   0  0  0  0  0  0  0  0  0  0  0  0
   -0.6786   -0.0408   -0.5779 C   0  0  0  0  0  0  0  0  0  0  0  0
    0.8702   -0.2065   -0.6012 C   0  0  1  0  0  0  0  0  0  0  0  0
    1.4216    0.8134   -1.6400 C   0  0  0  0  0  0  0  0  0  0  0  0
    2.9371    0.9672   -1.6797 C   0  0  0  0  0  0  0  0  0  0  0  0
    3.4210    1.2112   -0.2744 C   0  0  0  0  0  0  0  0  0  0  0  0
    4.0482    2.2646    0.1525 N   0  0  0  0  0  0  0  0  0  0  0  0
    4.2427    3.2017   -0.8642 O   0  0  0  0  0  0  0  0  0  0  0  0
    3.1201    0.1046    0.6977 C   0  0  0  0  0  0  0  0  0  0  0  0
    1.5944   -0.0815    0.7847 C   0  0  2  0  0  0  0  0  0  0  0  0
    1.2079   -1.3491    1.4290 N   0  0  0  0  0  0  0  0  0  0  0  0
    1.8756   -1.6860    2.6715 C   0  0  0  0  0  0  0  0  0  0  0  0
    1.2775   -2.4002    0.4120 C   0  0  0  0  0  0  0  0  0  0  0  0
    1.2006   -1.6799   -0.9410 C   0  0  0  0  0  0  0  0  0  0  0  0
   -1.4008    0.2938    0.5816 C   0  0  0  0  0  0  0  0  0  0  0  0
   -2.7978    0.4428    0.5670 C   0  0  0  0  0  0  0  0  0  0  0  0
   -3.5524    0.7671    1.6696 O   0  0  0  0  0  0  0  0  0  0  0  0
   -2.9064    0.7518    2.9343 C   0  0  0  0  0  0  0  0  0  0  0  0
   -5.5304   -0.7144   -2.1670 H   0  0  0  0  0  0  0  0  0  0  0  0
   -5.2951    1.0431   -2.5164 H   0  0  0  0  0  0  0  0  0  0  0  0
   -6.6604    0.4907   -1.5402 H   0  0  0  0  0  0  0  0  0  0  0  0
   -3.3122   -0.2205   -2.7405 H   0  0  0  0  0  0  0  0  0  0  0  0
   -0.9182   -0.4943   -2.6893 H   0  0  0  0  0  0  0  0  0  0  0  0
    0.9935    1.8020   -1.4194 H   0  0  0  0  0  0  0  0  0  0  0  0
    1.0890    0.5528   -2.6520 H   0  0  0  0  0  0  0  0  0  0  0  0
    3.4148    0.0562   -2.0550 H   0  0  0  0  0  0  0  0  0  0  0  0
    3.2095    1.7756   -2.3623 H   0  0  0  0  0  0  0  0  0  0  0  0
    4.7065    3.9233   -0.3993 H   0  0  0  0  0  0  0  0  0  0  0  0
    3.6308   -0.7970    0.3400 H   0  0  0  0  0  0  0  0  0  0  0  0
    3.5373    0.3510    1.6808 H   0  0  0  0  0  0  0  0  0  0  0  0
    1.1999    0.7727    1.3476 H   0  0  0  0  0  0  0  0  0  0  0  0
    1.7741   -0.8704    3.3954 H   0  0  0  0  0  0  0  0  0  0  0  0
    1.4101   -2.5694    3.1223 H   0  0  0  0  0  0  0  0  0  0  0  0
    2.9412   -1.9005    2.5380 H   0  0  0  0  0  0  0  0  0  0  0  0
    0.4381   -3.0927    0.5340 H   0  0  0  0  0  0  0  0  0  0  0  0
    2.2076   -2.9790    0.4636 H   0  0  0  0  0  0  0  0  0  0  0  0
    2.1756   -1.7588   -1.4355 H   0  0  0  0  0  0  0  0  0  0  0  0
    0.4738   -2.1649   -1.6006 H   0  0  0  0  0  0  0  0  0  0  0  0
   -0.8701    0.4299    1.5151 H   0  0  0  0  0  0  0  0  0  0  0  0
   -3.6677    0.9293    3.7001 H   0  0  0  0  0  0  0  0  0  0  0  0
   -2.4516   -0.2233    3.1392 H   0  0  0  0  0  0  0  0  0  0  0  0
   -2.1692    1.5578    3.0080 H   0  0  0  0  0  0  0  0  0  0  0  0
  1  2  1  0
  2  3  1  0
  3  4  2  0
  4  5  1  0
  5  6  2  0
  7  6  1  1
  7  8  1  0
  8  9  1  0
  9 10  1  0
 10 11  2  0
 11 12  1  0
 10 13  1  0
 13 14  1  0
 14 15  1  0
 15 16  1  0
 15 17  1  0
 17 18  1  0
  6 19  1  0
 19 20  2  0
 20 21  1  0
 21 22  1  0
 20  3  1  0
 14  7  1  0
 18  7  1  0
  1 23  1  0
  1 24  1  0
  1 25  1  0
  4 26  1  0
  5 27  1  0
  8 28  1  0
  8 29  1  0
  9 30  1  0
  9 31  1  0
 12 32  1  0
 13 33  1  0
 13 34  1  0
 14 35  1  1
 16 36  1  0
 16 37  1  0
 16 38  1  0
 17 39  1  0
 17 40  1  0
 18 41  1  0
 18 42  1  0
 19 43  1  0
 22 44  1  0
 22 45  1  0
 22 46  1  0
M  END
>  <mol_id>  (1) 
33467

>  <source_index>  (1) 
2

>  <layer>  (1) 
L2

>  <uniprot>  (1) 
P31645

>  <paff>  (1) 
7.3010000000000002

>  <smiles>  (1) 
COc3ccc([C@@]12CC/C(=N\O)C[C@@H]1N(C)CC2)cc3OC

$$$$
