L2:P31645:33467


 23 25  0  0  0  0  0  0  0  0999 V2000
  131.7803  131.3173  120.5670 C   0  0  0  0  0  0  0  0  0  0  0  0
  130.7867  130.4135  119.7801 C   0  0  0  0  0  0  0  0  0  0  0  0
  129.3087  130.6370  120.0761 C   0  0  0  0  0  0  0  0  0  0  0  0
  129.1172  130.5922  121.5694 C   0  0  0  0  0  0  0  0  0  0  0  0
  128.3801  129.7496  122.2267 N   0  0  0  0  0  0  0  0  0  0  0  0
  127.7481  128.8389  121.3776 O   0  0  0  0  0  0  0  0  0  0  0  0
  129.8785  131.6383  122.3350 C   0  0  0  0  0  0  0  0  0  0  0  0
  131.3843  131.4460  122.0794 C   0  0  0  0  0  0  0  0  0  0  0  0
  132.1884  132.6100  122.4915 N   0  0  0  0  0  0  0  0  0  0  0  0
  131.9189  133.1644  123.8041 C   0  0  0  0  0  0  0  0  0  0  0  0
  132.1305  133.5924  121.4072 C   0  0  0  0  0  0  0  0  0  0  0  0
  131.7279  132.8073  120.1515 C   0  0  0  0  0  0  0  0  0  0  0  0
  127.2504  128.2789  122.0027 H   0  0  0  0  0  0  0  0  0  0  0  0
  135.8280  129.7396  119.8480 C   0  0  0  0  0  0  0  0  0  0  0  0
  134.9956  129.1799  120.8168 C   0  0  0  0  0  0  0  0  0  0  0  0
  133.7092  129.6888  121.0256 C   0  0  0  0  0  0  0  0  0  0  0  0
  133.2128  130.7756  120.2816 C   0  0  0  0  0  0  0  0  0  0  0  0
  134.0639  131.3235  119.3052 C   0  0  0  0  0  0  0  0  0  0  0  0
  135.3539  130.8155  119.0776 C   0  0  0  0  0  0  0  0  0  0  0  0
  137.2446  128.0471  118.9348 C   0  0  0  0  0  0  0  0  0  0  0  0
  137.1012  129.3078  119.5717 O   0  0  0  0  0  0  0  0  0  0  0  0
  136.2254  131.3115  118.1370 O   0  0  0  0  0  0  0  0  0  0  0  0
  135.8258  132.4694  117.4183 C   0  0  0  0  0  0  0  0  0  0  0  0
 20 21  1  0  0  0
 21 14  1  0  0  0
 14 15  2  0  0  0
 15 16  1  0  0  0
 16 17  2  0  0  0
  1 17  1  0  0  0
  1  2  1  0  0  0
  2  3  1  0  0  0
  3  4  1  0  0  0
  4  5  2  0  0  0
  5  6  1  0  0  0
  4  7  1  0  0  0
  7  8  1  0  0  0
  8  9  1  0  0  0
  9 10  1  0  0  0
  9 11  1  0  0  0
 11 12  1  0  0  0
 17 18  1  0  0  0
 18 19  2  0  0  0
 19 22  1  0  0  0
 22 23  1  0  0  0
 19 14  1  0  0  0
  8  1  1  0  0  0
 12  1  1  0  0  0
  6 13  1  0  0  0
M  END
> <minimizedAffinity>
-7.76673

$$$$
