L2:P31645:67792
 OpenBabel09212617453D

 51 54  0  0  0  0  0  0  0  0999 V2000
  139.5962  124.5209  115.6291 C   0  0  0  0  0  0  0  0  0  0  0  0
  139.3172  125.8689  115.9045 C   0  0  0  0  0  0  0  0  0  0  0  0
  137.9967  126.3579  116.0055 C   0  0  0  0  0  0  0  0  0  0  0  0
  136.9631  125.4386  115.7708 C   0  0  0  0  0  0  0  0  0  0  0  0
  137.2269  124.0910  115.4920 C   0  0  0  0  0  0  0  0  0  0  0  0
  138.5379  123.6209  115.4252 C   0  0  0  0  0  0  0  0  0  0  0  0
  137.7254  127.8538  116.2955 C   0  0  1  0  0  0  0  0  0  0  0  0
  136.3375  128.3327  115.7611 C   0  0  0  0  0  0  0  0  0  0  0  0
  135.8715  129.6546  116.3652 C   0  0  0  0  0  0  0  0  0  0  0  0
  135.7019  129.4883  117.8560 C   0  0  0  0  0  0  0  0  0  0  0  0
  134.8916  130.1670  118.4879 O   0  0  0  0  0  0  0  0  0  0  0  0
  136.5336  128.4234  118.5314 C   0  0  0  0  0  0  0  0  0  0  0  0
  137.8752  128.2170  117.8218 C   0  0  2  0  0  0  0  0  0  0  0  0
  138.7095  129.4377  117.8210 N   0  0  0  0  0  0  0  0  0  0  0  0
  139.3618  129.7017  119.0998 C   0  0  0  0  0  0  0  0  0  0  0  0
  139.6886  129.2474  116.7520 C   0  0  0  0  0  0  0  0  0  0  0  0
  138.8442  128.6964  115.6156 C   0  0  0  0  0  0  0  0  0  0  0  0
  141.6594  123.9528  116.7016 C   0  0  0  0  0  0  0  0  0  0  0  0
  140.8608  123.9950  115.5288 O   0  0  0  0  0  0  0  0  0  0  0  0
  138.8891  122.3217  115.1605 O   0  0  0  0  0  0  0  0  0  0  0  0
  138.0081  121.5439  114.3564 C   0  0  0  0  0  0  0  0  0  0  0  0
  138.1577  120.1085  114.7613 C   0  0  0  0  0  0  0  0  0  0  0  0
  137.6230  119.0028  113.8871 C   0  0  0  0  0  0  0  0  0  0  0  0
  136.9593  119.3076  115.2026 C   0  0  0  0  0  0  0  0  0  0  0  0
  140.1034  126.5241  116.0375 H   0  0  0  0  0  0  0  0  0  0  0  0
  135.9840  125.7631  115.8043 H   0  0  0  0  0  0  0  0  0  0  0  0
  136.4424  123.4393  115.3344 H   0  0  0  0  0  0  0  0  0  0  0  0
  135.6101  127.5818  115.9891 H   0  0  0  0  0  0  0  0  0  0  0  0
  136.4447  128.4901  114.7082 H   0  0  0  0  0  0  0  0  0  0  0  0
  134.9367  129.9376  115.9283 H   0  0  0  0  0  0  0  0  0  0  0  0
  136.5986  130.4148  116.1693 H   0  0  0  0  0  0  0  0  0  0  0  0
  135.9907  127.5014  118.5216 H   0  0  0  0  0  0  0  0  0  0  0  0
  136.7320  128.7411  119.5337 H   0  0  0  0  0  0  0  0  0  0  0  0
  138.3208  127.4173  118.3758 H   0  0  0  0  0  0  0  0  0  0  0  0
  138.6189  129.8357  119.8581 H   0  0  0  0  0  0  0  0  0  0  0  0
  139.9552  130.5886  119.0211 H   0  0  0  0  0  0  0  0  0  0  0  0
  139.9894  128.8743  119.3576 H   0  0  0  0  0  0  0  0  0  0  0  0
  140.4458  128.5496  117.0428 H   0  0  0  0  0  0  0  0  0  0  0  0
  140.2131  130.1436  116.4938 H   0  0  0  0  0  0  0  0  0  0  0  0
  139.4383  128.0798  114.9738 H   0  0  0  0  0  0  0  0  0  0  0  0
  138.4375  129.4787  115.0093 H   0  0  0  0  0  0  0  0  0  0  0  0
  142.6105  123.5207  116.4701 H   0  0  0  0  0  0  0  0  0  0  0  0
  141.1697  123.3597  117.4454 H   0  0  0  0  0  0  0  0  0  0  0  0
  141.8000  124.9463  117.0733 H   0  0  0  0  0  0  0  0  0  0  0  0
  138.2628  121.6583  113.3235 H   0  0  0  0  0  0  0  0  0  0  0  0
  136.9970  121.8657  114.4944 H   0  0  0  0  0  0  0  0  0  0  0  0
  139.1112  120.3429  115.1866 H   0  0  0  0  0  0  0  0  0  0  0  0
  138.1819  118.0983  113.7669 H   0  0  0  0  0  0  0  0  0  0  0  0
  137.2931  118.9341  112.8716 H   0  0  0  0  0  0  0  0  0  0  0  0
  137.0464  118.6198  116.0176 H   0  0  0  0  0  0  0  0  0  0  0  0
  135.9622  119.5453  115.5094 H   0  0  0  0  0  0  0  0  0  0  0  0
  1  2  2  0  0  0  0
  2  3  1  0  0  0  0
  2 25  1  0  0  0  0
  3  4  2  0  0  0  0
  4  5  1  0  0  0  0
  4 26  1  0  0  0  0
  5  6  2  0  0  0  0
  5 27  1  0  0  0  0
  6 20  1  0  0  0  0
  6  1  1  0  0  0  0
  7  3  1  6  0  0  0
  7  8  1  0  0  0  0
  8  9  1  0  0  0  0
  8 28  1  0  0  0  0
  8 29  1  0  0  0  0
  9 10  1  0  0  0  0
  9 30  1  0  0  0  0
  9 31  1  0  0  0  0
 10 11  2  0  0  0  0
 10 12  1  0  0  0  0
 12 13  1  0  0  0  0
 12 32  1  0  0  0  0
 12 33  1  0  0  0  0
 13 14  1  0  0  0  0
 13  7  1  0  0  0  0
 13 34  1  1  0  0  0
 14 15  1  0  0  0  0
 14 16  1  0  0  0  0
 15 35  1  0  0  0  0
 15 36  1  0  0  0  0
 15 37  1  0  0  0  0
 16 17  1  0  0  0  0
 16 38  1  0  0  0  0
 16 39  1  0  0  0  0
 17  7  1  0  0  0  0
 17 40  1  0  0  0  0
 17 41  1  0  0  0  0
 18 19  1  0  0  0  0
 18 42  1  0  0  0  0
 18 43  1  0  0  0  0
 18 44  1  0  0  0  0
 19  1  1  0  0  0  0
 20 21  1  0  0  0  0
 21 22  1  0  0  0  0
 21 45  1  0  0  0  0
 21 46  1  0  0  0  0
 22 23  1  0  0  0  0
 22 47  1  0  0  0  0
 23 24  1  0  0  0  0
 23 48  1  0  0  0  0
 23 49  1  0  0  0  0
 24 22  1  0  0  0  0
 24 50  1  0  0  0  0
 24 51  1  0  0  0  0
M  END
>  <minimizedAffinity>
-8.03607

$$$$
