L2:P31645:67792
     RDKit          3D

 51 54  0  0  0  0  0  0  0  0999 V2000
    1.0165    3.4987    0.1774 C   0  0  0  0  0  0  0  0  0  0  0  0
    1.9250    2.4103    0.1059 O   0  0  0  0  0  0  0  0  0  0  0  0
    1.4056    1.1435   -0.0008 C   0  0  0  0  0  0  0  0  0  0  0  0
    0.0373    0.8550   -0.1238 C   0  0  0  0  0  0  0  0  0  0  0  0
   -0.4463   -0.4677   -0.2221 C   0  0  0  0  0  0  0  0  0  0  0  0
   -1.9609   -0.7489   -0.3719 C   0  0  1  0  0  0  0  0  0  0  0  0
   -2.3082   -2.2687   -0.2686 C   0  0  0  0  0  0  0  0  0  0  0  0
   -3.7875   -2.5429   -0.0115 C   0  0  0  0  0  0  0  0  0  0  0  0
   -4.1821   -1.9408    1.3154 C   0  0  0  0  0  0  0  0  0  0  0  0
   -5.0966   -2.4177    1.9883 O   0  0  0  0  0  0  0  0  0  0  0  0
   -3.3784   -0.7587    1.8040 C   0  0  0  0  0  0  0  0  0  0  0  0
   -2.8390    0.0796    0.6412 C   0  0  2  0  0  0  0  0  0  0  0  0
   -3.9173    0.6461   -0.1970 N   0  0  0  0  0  0  0  0  0  0  0  0
   -4.5797    1.8003    0.4026 C   0  0  0  0  0  0  0  0  0  0  0  0
   -3.2880    0.9939   -1.4700 C   0  0  0  0  0  0  0  0  0  0  0  0
   -2.4231   -0.2205   -1.7615 C   0  0  0  0  0  0  0  0  0  0  0  0
    0.5131   -1.4914   -0.2381 C   0  0  0  0  0  0  0  0  0  0  0  0
    1.8822   -1.2179   -0.1191 C   0  0  0  0  0  0  0  0  0  0  0  0
    2.3382    0.0938    0.0063 C   0  0  0  0  0  0  0  0  0  0  0  0
    3.6559    0.4541    0.1293 O   0  0  0  0  0  0  0  0  0  0  0  0
    4.6295   -0.5843    0.1706 C   0  0  0  0  0  0  0  0  0  0  0  0
    5.9790    0.0520    0.3142 C   0  0  0  0  0  0  0  0  0  0  0  0
    7.1258   -0.7071    0.9317 C   0  0  0  0  0  0  0  0  0  0  0  0
    6.5012    0.4436    1.6730 C   0  0  0  0  0  0  0  0  0  0  0  0
    1.6013    4.4149    0.3049 H   0  0  0  0  0  0  0  0  0  0  0  0
    0.4456    3.5965   -0.7517 H   0  0  0  0  0  0  0  0  0  0  0  0
    0.3526    3.4056    1.0433 H   0  0  0  0  0  0  0  0  0  0  0  0
   -0.6721    1.6738   -0.1603 H   0  0  0  0  0  0  0  0  0  0  0  0
   -1.7530   -2.7206    0.5649 H   0  0  0  0  0  0  0  0  0  0  0  0
   -1.9934   -2.7958   -1.1784 H   0  0  0  0  0  0  0  0  0  0  0  0
   -4.4277   -2.1324   -0.7971 H   0  0  0  0  0  0  0  0  0  0  0  0
   -3.9524   -3.6246    0.0385 H   0  0  0  0  0  0  0  0  0  0  0  0
   -4.0116   -0.1548    2.4623 H   0  0  0  0  0  0  0  0  0  0  0  0
   -2.5475   -1.1444    2.4059 H   0  0  0  0  0  0  0  0  0  0  0  0
   -2.2622    0.9002    1.0831 H   0  0  0  0  0  0  0  0  0  0  0  0
   -5.3452    2.1930   -0.2759 H   0  0  0  0  0  0  0  0  0  0  0  0
   -5.0966    1.5204    1.3257 H   0  0  0  0  0  0  0  0  0  0  0  0
   -3.8780    2.6104    0.6317 H   0  0  0  0  0  0  0  0  0  0  0  0
   -2.6690    1.8956   -1.3899 H   0  0  0  0  0  0  0  0  0  0  0  0
   -4.0278    1.1524   -2.2614 H   0  0  0  0  0  0  0  0  0  0  0  0
   -1.5961    0.0389   -2.4324 H   0  0  0  0  0  0  0  0  0  0  0  0
   -3.0278   -0.9683   -2.2900 H   0  0  0  0  0  0  0  0  0  0  0  0
    0.2328   -2.5350   -0.3561 H   0  0  0  0  0  0  0  0  0  0  0  0
    2.5653   -2.0608   -0.1358 H   0  0  0  0  0  0  0  0  0  0  0  0
    4.6142   -1.1539   -0.7661 H   0  0  0  0  0  0  0  0  0  0  0  0
    4.4326   -1.2548    1.0161 H   0  0  0  0  0  0  0  0  0  0  0  0
    6.1979    0.7136   -0.5168 H   0  0  0  0  0  0  0  0  0  0  0  0
    6.9490   -1.7072    1.3103 H   0  0  0  0  0  0  0  0  0  0  0  0
    8.1145   -0.5610    0.5111 H   0  0  0  0  0  0  0  0  0  0  0  0
    5.8916    0.2249    2.5425 H   0  0  0  0  0  0  0  0  0  0  0  0
    7.0610    1.3690    1.7485 H   0  0  0  0  0  0  0  0  0  0  0  0
  1  2  1  0
  2  3  1  0
  3  4  2  0
  4  5  1  0
  6  5  1  1
  6  7  1  0
  7  8  1  0
  8  9  1  0
  9 10  2  0
  9 11  1  0
 11 12  1  0
 12 13  1  0
 13 14  1  0
 13 15  1  0
 15 16  1  0
  5 17  2  0
 17 18  1  0
 18 19  2  0
 19 20  1  0
 20 21  1  0
 21 22  1  0
 22 23  1  0
 23 24  1  0
 19  3  1  0
 24 22  1  0
 12  6  1  0
 16  6  1  0
  1 25  1  0
  1 26  1  0
  1 27  1  0
  4 28  1  0
  7 29  1  0
  7 30  1  0
  8 31  1  0
  8 32  1  0
 11 33  1  0
 11 34  1  0
 12 35  1  1
 14 36  1  0
 14 37  1  0
 14 38  1  0
 15 39  1  0
 15 40  1  0
 16 41  1  0
 16 42  1  0
 17 43  1  0
 18 44  1  0
 21 45  1  0
 21 46  1  0
 22 47  1  0
 23 48  1  0
 23 49  1  0
 24 50  1  0
 24 51  1  0
M  END
>  <mol_id>  (1) 
67792

>  <source_index>  (1) 
3

>  <layer>  (1) 
L2

>  <uniprot>  (1) 
P31645

>  <paff>  (1) 
6.0457999999999998

>  <smiles>  (1) 
COc1cc([C@@]23CCC(=O)C[C@@H]2N(C)CC3)ccc1OCC1CC1

$$$$
