L2:P31645:76063


 25 27  0  0  0  0  0  0  0  0999 V2000
  139.6384  122.1473  115.8503 C   0  0  0  0  0  0  0  0  0  0  0  0
  140.5067  123.1112  116.3649 C   0  0  0  0  0  0  0  0  0  0  0  0
  140.1034  124.4476  116.4850 C   0  0  0  0  0  0  0  0  0  0  0  0
  138.8131  124.8670  116.1163 C   0  0  0  0  0  0  0  0  0  0  0  0
  137.9641  123.8956  115.5678 C   0  0  0  0  0  0  0  0  0  0  0  0
  138.3698  122.5591  115.4189 C   0  0  0  0  0  0  0  0  0  0  0  0
  138.4152  126.3487  116.2548 C   0  0  0  0  0  0  0  0  0  0  0  0
  137.0096  126.5029  115.5947 C   0  0  0  0  0  0  0  0  0  0  0  0
  136.2515  127.7422  116.0557 C   0  0  0  0  0  0  0  0  0  0  0  0
  136.0298  127.6778  117.5487 C   0  0  0  0  0  0  0  0  0  0  0  0
  135.0480  128.2063  118.0721 O   0  0  0  0  0  0  0  0  0  0  0  0
  137.0377  126.9068  118.3704 C   0  0  0  0  0  0  0  0  0  0  0  0
  138.4235  126.9192  117.7198 C   0  0  0  0  0  0  0  0  0  0  0  0
  138.9694  128.2858  117.5716 N   0  0  0  0  0  0  0  0  0  0  0  0
  139.4370  128.8684  118.8266 C   0  0  0  0  0  0  0  0  0  0  0  0
  140.0653  128.1386  116.6184 C   0  0  0  0  0  0  0  0  0  0  0  0
  139.4471  127.2723  115.5347 C   0  0  0  0  0  0  0  0  0  0  0  0
  140.3877  120.3454  114.4751 C   0  0  0  0  0  0  0  0  0  0  0  0
  139.9443  120.8177  115.7414 O   0  0  0  0  0  0  0  0  0  0  0  0
  137.4027  121.7428  114.8862 O   0  0  0  0  0  0  0  0  0  0  0  0
  136.8439  120.7855  115.7984 C   0  0  0  0  0  0  0  0  0  0  0  0
  136.8143  119.4066  115.1599 C   0  0  0  0  0  0  0  0  0  0  0  0
  135.6096  118.8100  115.2982 F   0  0  0  0  0  0  0  0  0  0  0  0
  137.1043  119.4599  113.8401 F   0  0  0  0  0  0  0  0  0  0  0  0
  137.7328  118.5966  115.7399 F   0  0  0  0  0  0  0  0  0  0  0  0
 18 19  1  0  0  0
 19  1  1  0  0  0
  1  2  2  0  0  0
  2  3  1  0  0  0
  3  4  2  0  0  0
  7  4  1  0  0  0
  7  8  1  0  0  0
  8  9  1  0  0  0
  9 10  1  0  0  0
 10 11  2  0  0  0
 10 12  1  0  0  0
 12 13  1  0  0  0
 13 14  1  0  0  0
 14 15  1  0  0  0
 14 16  1  0  0  0
 16 17  1  0  0  0
  4  5  1  0  0  0
  5  6  2  0  0  0
  6 20  1  0  0  0
 20 21  1  0  0  0
 21 22  1  0  0  0
 22 23  1  0  0  0
 22 24  1  0  0  0
 22 25  1  0  0  0
  6  1  1  0  0  0
 13  7  1  0  0  0
 17  7  1  0  0  0
M  END
> <minimizedAffinity>
-7.97834

$$$$
