L2:P31645:76063
     RDKit          3D

 47 49  0  0  0  0  0  0  0  0999 V2000
    3.4211    1.5126   -3.9771 C   0  0  0  0  0  0  0  0  0  0  0  0
    3.3504    0.6706   -2.8329 O   0  0  0  0  0  0  0  0  0  0  0  0
    2.1540    0.5984   -2.1721 C   0  0  0  0  0  0  0  0  0  0  0  0
    0.9631    1.1511   -2.6455 C   0  0  0  0  0  0  0  0  0  0  0  0
   -0.2134    1.0734   -1.8886 C   0  0  0  0  0  0  0  0  0  0  0  0
   -0.2400    0.4608   -0.6234 C   0  0  0  0  0  0  0  0  0  0  0  0
   -1.5583    0.3879    0.1701 C   0  0  1  0  0  0  0  0  0  0  0  0
   -2.4837   -0.6186   -0.5822 C   0  0  0  0  0  0  0  0  0  0  0  0
   -3.5998   -1.1876    0.2859 C   0  0  0  0  0  0  0  0  0  0  0  0
   -3.0044   -1.9318    1.4581 C   0  0  0  0  0  0  0  0  0  0  0  0
   -3.5881   -2.8875    1.9711 O   0  0  0  0  0  0  0  0  0  0  0  0
   -1.6476   -1.4836    1.9518 C   0  0  0  0  0  0  0  0  0  0  0  0
   -1.4158    0.0067    1.6887 C   0  0  2  0  0  0  0  0  0  0  0  0
   -2.4084    0.8652    2.3708 N   0  0  0  0  0  0  0  0  0  0  0  0
   -2.1933    0.9778    3.8110 C   0  0  0  0  0  0  0  0  0  0  0  0
   -2.2783    2.1633    1.7156 C   0  0  0  0  0  0  0  0  0  0  0  0
   -2.2424    1.7889    0.2439 C   0  0  0  0  0  0  0  0  0  0  0  0
    0.9544   -0.1213   -0.1764 C   0  0  0  0  0  0  0  0  0  0  0  0
    2.1317   -0.0715   -0.9409 C   0  0  0  0  0  0  0  0  0  0  0  0
    3.2093   -0.6723   -0.3382 O   0  0  0  0  0  0  0  0  0  0  0  0
    4.0284   -1.4677   -1.2084 C   0  0  0  0  0  0  0  0  0  0  0  0
    4.6562   -2.6155   -0.4350 C   0  0  0  0  0  0  0  0  0  0  0  0
    5.4400   -2.1771    0.5749 F   0  0  0  0  0  0  0  0  0  0  0  0
    3.7190   -3.4365    0.0907 F   0  0  0  0  0  0  0  0  0  0  0  0
    5.4348   -3.3664   -1.2512 F   0  0  0  0  0  0  0  0  0  0  0  0
    2.8097    1.1153   -4.7937 H   0  0  0  0  0  0  0  0  0  0  0  0
    3.1383    2.5420   -3.7328 H   0  0  0  0  0  0  0  0  0  0  0  0
    4.4610    1.5255   -4.3174 H   0  0  0  0  0  0  0  0  0  0  0  0
    0.9076    1.6540   -3.6056 H   0  0  0  0  0  0  0  0  0  0  0  0
   -1.1198    1.5068   -2.3096 H   0  0  0  0  0  0  0  0  0  0  0  0
   -1.8842   -1.4642   -0.9505 H   0  0  0  0  0  0  0  0  0  0  0  0
   -2.9191   -0.1499   -1.4741 H   0  0  0  0  0  0  0  0  0  0  0  0
   -4.1949   -1.8929   -0.3042 H   0  0  0  0  0  0  0  0  0  0  0  0
   -4.2664   -0.4044    0.6582 H   0  0  0  0  0  0  0  0  0  0  0  0
   -1.5727   -1.7100    3.0204 H   0  0  0  0  0  0  0  0  0  0  0  0
   -0.8931   -2.0850    1.4329 H   0  0  0  0  0  0  0  0  0  0  0  0
   -0.4220    0.2849    2.0620 H   0  0  0  0  0  0  0  0  0  0  0  0
   -2.9225    1.6682    4.2497 H   0  0  0  0  0  0  0  0  0  0  0  0
   -1.1889    1.3404    4.0570 H   0  0  0  0  0  0  0  0  0  0  0  0
   -2.3433    0.0134    4.3061 H   0  0  0  0  0  0  0  0  0  0  0  0
   -3.1216    2.8249    1.9380 H   0  0  0  0  0  0  0  0  0  0  0  0
   -1.3481    2.6737    1.9969 H   0  0  0  0  0  0  0  0  0  0  0  0
   -1.7251    2.5759   -0.3141 H   0  0  0  0  0  0  0  0  0  0  0  0
   -3.2687    1.7442   -0.1422 H   0  0  0  0  0  0  0  0  0  0  0  0
    1.0087   -0.6498    0.7713 H   0  0  0  0  0  0  0  0  0  0  0  0
    3.4434   -1.8904   -2.0345 H   0  0  0  0  0  0  0  0  0  0  0  0
    4.8330   -0.8423   -1.6085 H   0  0  0  0  0  0  0  0  0  0  0  0
  1  2  1  0
  2  3  1  0
  3  4  2  0
  4  5  1  0
  5  6  2  0
  7  6  1  6
  7  8  1  0
  8  9  1  0
  9 10  1  0
 10 11  2  0
 10 12  1  0
 12 13  1  0
 13 14  1  0
 14 15  1  0
 14 16  1  0
 16 17  1  0
  6 18  1  0
 18 19  2  0
 19 20  1  0
 20 21  1  0
 21 22  1  0
 22 23  1  0
 22 24  1  0
 22 25  1  0
 19  3  1  0
 13  7  1  0
 17  7  1  0
  1 26  1  0
  1 27  1  0
  1 28  1  0
  4 29  1  0
  5 30  1  0
  8 31  1  0
  8 32  1  0
  9 33  1  0
  9 34  1  0
 12 35  1  0
 12 36  1  0
 13 37  1  1
 15 38  1  0
 15 39  1  0
 15 40  1  0
 16 41  1  0
 16 42  1  0
 17 43  1  0
 17 44  1  0
 18 45  1  0
 21 46  1  0
 21 47  1  0
M  END
>  <mol_id>  (1) 
76063

>  <source_index>  (1) 
4

>  <layer>  (1) 
L2

>  <uniprot>  (1) 
P31645

>  <paff>  (1) 
7

>  <smiles>  (1) 
COc1ccc([C@@]23CCC(=O)C[C@@H]2N(C)CC3)cc1OCC(F)(F)F

$$$$
