L2:P31645:76063
 OpenBabel09212617453D

 47 49  0  0  0  0  0  0  0  0999 V2000
  139.6384  122.1473  115.8503 C   0  0  0  0  0  0  0  0  0  0  0  0
  140.5067  123.1112  116.3649 C   0  0  0  0  0  0  0  0  0  0  0  0
  140.1034  124.4476  116.4850 C   0  0  0  0  0  0  0  0  0  0  0  0
  138.8131  124.8670  116.1163 C   0  0  0  0  0  0  0  0  0  0  0  0
  137.9641  123.8956  115.5678 C   0  0  0  0  0  0  0  0  0  0  0  0
  138.3698  122.5591  115.4189 C   0  0  0  0  0  0  0  0  0  0  0  0
  138.4152  126.3487  116.2548 C   0  0  1  0  0  0  0  0  0  0  0  0
  137.0096  126.5029  115.5947 C   0  0  0  0  0  0  0  0  0  0  0  0
  136.2515  127.7422  116.0557 C   0  0  0  0  0  0  0  0  0  0  0  0
  136.0298  127.6778  117.5487 C   0  0  0  0  0  0  0  0  0  0  0  0
  135.0480  128.2063  118.0721 O   0  0  0  0  0  0  0  0  0  0  0  0
  137.0377  126.9068  118.3704 C   0  0  0  0  0  0  0  0  0  0  0  0
  138.4235  126.9192  117.7198 C   0  0  2  0  0  0  0  0  0  0  0  0
  138.9694  128.2858  117.5716 N   0  0  0  0  0  0  0  0  0  0  0  0
  139.4370  128.8684  118.8266 C   0  0  0  0  0  0  0  0  0  0  0  0
  140.0653  128.1386  116.6184 C   0  0  0  0  0  0  0  0  0  0  0  0
  139.4471  127.2723  115.5347 C   0  0  0  0  0  0  0  0  0  0  0  0
  140.3877  120.3454  114.4751 C   0  0  0  0  0  0  0  0  0  0  0  0
  139.9443  120.8177  115.7414 O   0  0  0  0  0  0  0  0  0  0  0  0
  137.4027  121.7428  114.8862 O   0  0  0  0  0  0  0  0  0  0  0  0
  136.8439  120.7855  115.7984 C   0  0  0  0  0  0  0  0  0  0  0  0
  136.8143  119.4066  115.1599 C   0  0  0  0  0  0  0  0  0  0  0  0
  135.6096  118.8100  115.2982 F   0  0  0  0  0  0  0  0  0  0  0  0
  137.1043  119.4599  113.8401 F   0  0  0  0  0  0  0  0  0  0  0  0
  137.7328  118.5966  115.7399 F   0  0  0  0  0  0  0  0  0  0  0  0
  141.4566  122.8365  116.6603 H   0  0  0  0  0  0  0  0  0  0  0  0
  140.7712  125.1426  116.8539 H   0  0  0  0  0  0  0  0  0  0  0  0
  137.0162  124.1696  115.2655 H   0  0  0  0  0  0  0  0  0  0  0  0
  136.4256  125.6396  115.8368 H   0  0  0  0  0  0  0  0  0  0  0  0
  137.1672  126.6053  114.5413 H   0  0  0  0  0  0  0  0  0  0  0  0
  135.3057  127.7864  115.5573 H   0  0  0  0  0  0  0  0  0  0  0  0
  136.8232  128.6153  115.8198 H   0  0  0  0  0  0  0  0  0  0  0  0
  136.7071  125.8935  118.4638 H   0  0  0  0  0  0  0  0  0  0  0  0
  137.1145  127.3739  119.3300 H   0  0  0  0  0  0  0  0  0  0  0  0
  139.0124  126.3176  118.3802 H   0  0  0  0  0  0  0  0  0  0  0  0
  138.6142  128.9640  119.5039 H   0  0  0  0  0  0  0  0  0  0  0  0
  139.8569  129.8341  118.6369 H   0  0  0  0  0  0  0  0  0  0  0  0
  140.1825  128.2339  119.2584 H   0  0  0  0  0  0  0  0  0  0  0  0
  140.9061  127.6532  117.0683 H   0  0  0  0  0  0  0  0  0  0  0  0
  140.4413  129.0719  116.2545 H   0  0  0  0  0  0  0  0  0  0  0  0
  140.2008  126.6836  115.0549 H   0  0  0  0  0  0  0  0  0  0  0  0
  138.9784  127.8671  114.7788 H   0  0  0  0  0  0  0  0  0  0  0  0
  140.5890  119.2963  114.5362 H   0  0  0  0  0  0  0  0  0  0  0  0
  141.2803  120.8640  114.1936 H   0  0  0  0  0  0  0  0  0  0  0  0
  139.6274  120.5206  113.7429 H   0  0  0  0  0  0  0  0  0  0  0  0
  135.8466  121.0791  116.0517 H   0  0  0  0  0  0  0  0  0  0  0  0
  137.4492  120.7489  116.6800 H   0  0  0  0  0  0  0  0  0  0  0  0
  1  2  2  0  0  0  0
  2  3  1  0  0  0  0
  2 26  1  0  0  0  0
  3  4  2  0  0  0  0
  3 27  1  0  0  0  0
  4  5  1  0  0  0  0
  5  6  2  0  0  0  0
  5 28  1  0  0  0  0
  6 20  1  0  0  0  0
  6  1  1  0  0  0  0
  7  4  1  6  0  0  0
  7  8  1  0  0  0  0
  8  9  1  0  0  0  0
  8 29  1  0  0  0  0
  8 30  1  0  0  0  0
  9 10  1  0  0  0  0
  9 31  1  0  0  0  0
  9 32  1  0  0  0  0
 10 11  2  0  0  0  0
 10 12  1  0  0  0  0
 12 13  1  0  0  0  0
 12 33  1  0  0  0  0
 12 34  1  0  0  0  0
 13 14  1  0  0  0  0
 13  7  1  0  0  0  0
 13 35  1  1  0  0  0
 14 15  1  0  0  0  0
 14 16  1  0  0  0  0
 15 36  1  0  0  0  0
 15 37  1  0  0  0  0
 15 38  1  0  0  0  0
 16 17  1  0  0  0  0
 16 39  1  0  0  0  0
 16 40  1  0  0  0  0
 17  7  1  0  0  0  0
 17 41  1  0  0  0  0
 17 42  1  0  0  0  0
 18 19  1  0  0  0  0
 18 43  1  0  0  0  0
 18 44  1  0  0  0  0
 18 45  1  0  0  0  0
 19  1  1  0  0  0  0
 20 21  1  0  0  0  0
 21 22  1  0  0  0  0
 21 46  1  0  0  0  0
 21 47  1  0  0  0  0
 22 23  1  0  0  0  0
 22 24  1  0  0  0  0
 22 25  1  0  0  0  0
M  END
>  <minimizedAffinity>
-7.97834

$$$$
