L2:P31645:78423
     RDKit          3D

 60 63  0  0  0  0  0  0  0  0999 V2000
    4.3273   -2.0661   -4.2350 C   0  0  0  0  0  0  0  0  0  0  0  0
    2.9703   -1.7155   -3.6462 C   0  0  0  0  0  0  0  0  0  0  0  0
    3.1096   -1.0325   -2.2886 C   0  0  0  0  0  0  0  0  0  0  0  0
    1.7494   -0.6739   -1.6965 C   0  0  0  0  0  0  0  0  0  0  0  0
    1.9749   -0.0639   -0.4163 O   0  0  0  0  0  0  0  0  0  0  0  0
    0.8564    0.5974    0.0228 C   0  0  0  0  0  0  0  0  0  0  0  0
   -0.2836   -0.1472    0.3689 C   0  0  0  0  0  0  0  0  0  0  0  0
   -1.4738    0.4753    0.7831 C   0  0  0  0  0  0  0  0  0  0  0  0
   -2.7741   -0.3019    1.0945 C   0  0  1  0  0  0  0  0  0  0  0  0
   -3.7598   -0.0707   -0.0849 C   0  0  0  0  0  0  0  0  0  0  0  0
   -3.2592   -0.7003   -1.3885 C   0  0  0  0  0  0  0  0  0  0  0  0
   -2.6407   -2.0584   -1.1342 C   0  0  0  0  0  0  0  0  0  0  0  0
   -1.9123   -2.5996   -1.9642 O   0  0  0  0  0  0  0  0  0  0  0  0
   -3.0167   -2.7367    0.1584 C   0  0  0  0  0  0  0  0  0  0  0  0
   -2.6097   -1.8514    1.3464 C   0  0  2  0  0  0  0  0  0  0  0  0
   -3.2533   -2.1655    2.6492 N   0  0  0  0  0  0  0  0  0  0  0  0
   -4.6415   -2.6124    2.5907 C   0  0  0  0  0  0  0  0  0  0  0  0
   -3.1188   -0.9269    3.4231 C   0  0  0  0  0  0  0  0  0  0  0  0
   -3.4000    0.1864    2.4284 C   0  0  0  0  0  0  0  0  0  0  0  0
   -1.4735    1.8833    0.8198 C   0  0  0  0  0  0  0  0  0  0  0  0
   -0.3276    2.6244    0.5124 C   0  0  0  0  0  0  0  0  0  0  0  0
    0.8545    1.9873    0.1419 C   0  0  0  0  0  0  0  0  0  0  0  0
    1.8936    2.8310   -0.1404 O   0  0  0  0  0  0  0  0  0  0  0  0
    3.1857    2.3647    0.2524 C   0  0  0  0  0  0  0  0  0  0  0  0
    4.0575    3.5672    0.4689 C   0  0  0  0  0  0  0  0  0  0  0  0
    4.0188    4.3134    1.7781 C   0  0  0  0  0  0  0  0  0  0  0  0
    5.2330    3.5047    1.4104 C   0  0  0  0  0  0  0  0  0  0  0  0
    4.8775   -2.7451   -3.5758 H   0  0  0  0  0  0  0  0  0  0  0  0
    4.2039   -2.5593   -5.2043 H   0  0  0  0  0  0  0  0  0  0  0  0
    4.9334   -1.1670   -4.3861 H   0  0  0  0  0  0  0  0  0  0  0  0
    2.4356   -1.0578   -4.3413 H   0  0  0  0  0  0  0  0  0  0  0  0
    2.3758   -2.6307   -3.5428 H   0  0  0  0  0  0  0  0  0  0  0  0
    3.7157   -0.1227   -2.3820 H   0  0  0  0  0  0  0  0  0  0  0  0
    3.6502   -1.6828   -1.5894 H   0  0  0  0  0  0  0  0  0  0  0  0
    1.2240    0.0166   -2.3693 H   0  0  0  0  0  0  0  0  0  0  0  0
    1.1518   -1.5846   -1.5724 H   0  0  0  0  0  0  0  0  0  0  0  0
   -0.2082   -1.2262    0.2774 H   0  0  0  0  0  0  0  0  0  0  0  0
   -3.9517    0.9968   -0.2494 H   0  0  0  0  0  0  0  0  0  0  0  0
   -4.7355   -0.5118    0.1587 H   0  0  0  0  0  0  0  0  0  0  0  0
   -4.0906   -0.8179   -2.0905 H   0  0  0  0  0  0  0  0  0  0  0  0
   -2.5018   -0.0607   -1.8539 H   0  0  0  0  0  0  0  0  0  0  0  0
   -2.5234   -3.7127    0.2225 H   0  0  0  0  0  0  0  0  0  0  0  0
   -4.0943   -2.9201    0.1002 H   0  0  0  0  0  0  0  0  0  0  0  0
   -1.5555   -2.0739    1.5438 H   0  0  0  0  0  0  0  0  0  0  0  0
   -5.2948   -1.9252    2.0442 H   0  0  0  0  0  0  0  0  0  0  0  0
   -5.0469   -2.7305    3.6025 H   0  0  0  0  0  0  0  0  0  0  0  0
   -4.7084   -3.6032    2.1296 H   0  0  0  0  0  0  0  0  0  0  0  0
   -2.0898   -0.8470    3.7956 H   0  0  0  0  0  0  0  0  0  0  0  0
   -3.7788   -0.8833    4.2963 H   0  0  0  0  0  0  0  0  0  0  0  0
   -4.4844    0.3189    2.3258 H   0  0  0  0  0  0  0  0  0  0  0  0
   -3.0016    1.1301    2.8115 H   0  0  0  0  0  0  0  0  0  0  0  0
   -2.3743    2.4341    1.0845 H   0  0  0  0  0  0  0  0  0  0  0  0
   -0.3577    3.7102    0.5647 H   0  0  0  0  0  0  0  0  0  0  0  0
    3.1370    1.7638    1.1695 H   0  0  0  0  0  0  0  0  0  0  0  0
    3.6205    1.7711   -0.5582 H   0  0  0  0  0  0  0  0  0  0  0  0
    4.1679    4.1488   -0.4393 H   0  0  0  0  0  0  0  0  0  0  0  0
    4.0950    5.3941    1.7442 H   0  0  0  0  0  0  0  0  0  0  0  0
    3.3743    3.9393    2.5656 H   0  0  0  0  0  0  0  0  0  0  0  0
    6.1337    4.0400    1.1320 H   0  0  0  0  0  0  0  0  0  0  0  0
    5.4147    2.5867    1.9578 H   0  0  0  0  0  0  0  0  0  0  0  0
  1  2  1  0
  2  3  1  0
  3  4  1  0
  4  5  1  0
  5  6  1  0
  6  7  2  0
  7  8  1  0
  9  8  1  6
  9 10  1  0
 10 11  1  0
 11 12  1  0
 12 13  2  0
 12 14  1  0
 14 15  1  0
 15 16  1  0
 16 17  1  0
 16 18  1  0
 18 19  1  0
  8 20  2  0
 20 21  1  0
 21 22  2  0
 22 23  1  0
 23 24  1  0
 24 25  1  0
 25 26  1  0
 26 27  1  0
 22  6  1  0
 27 25  1  0
 15  9  1  0
 19  9  1  0
  1 28  1  0
  1 29  1  0
  1 30  1  0
  2 31  1  0
  2 32  1  0
  3 33  1  0
  3 34  1  0
  4 35  1  0
  4 36  1  0
  7 37  1  0
 10 38  1  0
 10 39  1  0
 11 40  1  0
 11 41  1  0
 14 42  1  0
 14 43  1  0
 15 44  1  1
 17 45  1  0
 17 46  1  0
 17 47  1  0
 18 48  1  0
 18 49  1  0
 19 50  1  0
 19 51  1  0
 20 52  1  0
 21 53  1  0
 24 54  1  0
 24 55  1  0
 25 56  1  0
 26 57  1  0
 26 58  1  0
 27 59  1  0
 27 60  1  0
M  END
>  <mol_id>  (1) 
78423

>  <source_index>  (1) 
5

>  <layer>  (1) 
L2

>  <uniprot>  (1) 
P31645

>  <paff>  (1) 
6.0968999999999998

>  <smiles>  (1) 
CCCCOc1cc([C@@]23CCC(=O)C[C@@H]2N(C)CC3)ccc1OCC1CC1

$$$$
