L2:P31645:78423
 OpenBabel09212617453D

 60 63  0  0  0  0  0  0  0  0999 V2000
  134.4833  131.2236  119.6798 C   0  0  0  0  0  0  0  0  0  0  0  0
  135.2892  130.3254  118.9605 C   0  0  0  0  0  0  0  0  0  0  0  0
  135.7730  130.6331  117.6772 C   0  0  0  0  0  0  0  0  0  0  0  0
  135.4233  131.8927  117.1528 C   0  0  0  0  0  0  0  0  0  0  0  0
  134.5895  132.7719  117.8518 C   0  0  0  0  0  0  0  0  0  0  0  0
  134.0879  132.4322  119.1061 C   0  0  0  0  0  0  0  0  0  0  0  0
  136.7277  129.7088  116.8860 C   0  0  1  0  0  0  0  0  0  0  0  0
  137.9558  130.5558  116.4497 C   0  0  0  0  0  0  0  0  0  0  0  0
  138.7961  131.0141  117.6456 C   0  0  0  0  0  0  0  0  0  0  0  0
  138.9261  129.9107  118.6738 C   0  0  0  0  0  0  0  0  0  0  0  0
  139.2852  130.1441  119.8266 O   0  0  0  0  0  0  0  0  0  0  0  0
  138.6552  128.5082  118.1924 C   0  0  0  0  0  0  0  0  0  0  0  0
  137.2231  128.4156  117.6434 C   0  0  2  0  0  0  0  0  0  0  0  0
  136.9279  127.2456  116.7751 N   0  0  0  0  0  0  0  0  0  0  0  0
  138.0103  126.8016  115.9026 C   0  0  0  0  0  0  0  0  0  0  0  0
  135.7507  127.6594  116.0044 C   0  0  0  0  0  0  0  0  0  0  0  0
  136.0115  129.1122  115.6448 C   0  0  0  0  0  0  0  0  0  0  0  0
  134.0775  130.8863  120.9458 O   0  0  0  0  0  0  0  0  0  0  0  0
  133.5536  129.5499  120.9852 C   0  0  0  0  0  0  0  0  0  0  0  0
  132.0306  129.6449  120.9574 C   0  0  0  0  0  0  0  0  0  0  0  0
  129.9994  129.8663  119.4861 C   0  0  0  0  0  0  0  0  0  0  0  0
  131.4868  129.5560  119.5343 C   0  0  0  0  0  0  0  0  0  0  0  0
  133.2943  133.3864  119.6813 O   0  0  0  0  0  0  0  0  0  0  0  0
  131.9076  133.0552  119.7751 C   0  0  0  0  0  0  0  0  0  0  0  0
  131.3724  133.6856  121.0277 C   0  0  0  0  0  0  0  0  0  0  0  0
  130.3063  132.9921  121.8369 C   0  0  0  0  0  0  0  0  0  0  0  0
  131.7043  133.1092  122.3804 C   0  0  0  0  0  0  0  0  0  0  0  0
  135.5321  129.4167  119.3851 H   0  0  0  0  0  0  0  0  0  0  0  0
  135.7911  132.1738  116.2305 H   0  0  0  0  0  0  0  0  0  0  0  0
  134.3432  133.6826  117.4334 H   0  0  0  0  0  0  0  0  0  0  0  0
  137.6089  131.4190  115.9211 H   0  0  0  0  0  0  0  0  0  0  0  0
  138.5746  129.9421  115.8290 H   0  0  0  0  0  0  0  0  0  0  0  0
  138.3256  131.8612  118.0994 H   0  0  0  0  0  0  0  0  0  0  0  0
  139.7743  131.2703  117.2959 H   0  0  0  0  0  0  0  0  0  0  0  0
  138.7683  127.8245  119.0076 H   0  0  0  0  0  0  0  0  0  0  0  0
  139.3486  128.2603  117.4161 H   0  0  0  0  0  0  0  0  0  0  0  0
  136.6802  128.2959  118.5576 H   0  0  0  0  0  0  0  0  0  0  0  0
  138.8501  126.5082  116.4972 H   0  0  0  0  0  0  0  0  0  0  0  0
  138.2957  127.6022  115.2527 H   0  0  0  0  0  0  0  0  0  0  0  0
  137.6786  125.9689  115.3183 H   0  0  0  0  0  0  0  0  0  0  0  0
  134.8633  127.5712  116.5957 H   0  0  0  0  0  0  0  0  0  0  0  0
  135.6014  127.0499  115.1377 H   0  0  0  0  0  0  0  0  0  0  0  0
  135.0910  129.6250  115.4587 H   0  0  0  0  0  0  0  0  0  0  0  0
  136.5995  129.2077  114.7560 H   0  0  0  0  0  0  0  0  0  0  0  0
  133.8994  128.9982  120.1362 H   0  0  0  0  0  0  0  0  0  0  0  0
  133.8806  129.0462  121.8708 H   0  0  0  0  0  0  0  0  0  0  0  0
  131.6223  128.8426  121.5357 H   0  0  0  0  0  0  0  0  0  0  0  0
  131.7475  130.5930  121.3647 H   0  0  0  0  0  0  0  0  0  0  0  0
  129.6527  129.7949  118.4764 H   0  0  0  0  0  0  0  0  0  0  0  0
  129.8297  130.8573  119.8522 H   0  0  0  0  0  0  0  0  0  0  0  0
  129.4688  129.1651  120.0958 H   0  0  0  0  0  0  0  0  0  0  0  0
  132.0086  130.2581  118.9182 H   0  0  0  0  0  0  0  0  0  0  0  0
  131.6330  128.5567  119.1808 H   0  0  0  0  0  0  0  0  0  0  0  0
  131.7889  131.9928  119.8222 H   0  0  0  0  0  0  0  0  0  0  0  0
  131.3773  133.4147  118.9181 H   0  0  0  0  0  0  0  0  0  0  0  0
  131.4719  134.6479  120.5706 H   0  0  0  0  0  0  0  0  0  0  0  0
  129.9321  132.0397  121.5240 H   0  0  0  0  0  0  0  0  0  0  0  0
  129.3324  133.2586  122.1911 H   0  0  0  0  0  0  0  0  0  0  0  0
  132.3241  132.2401  122.4540 H   0  0  0  0  0  0  0  0  0  0  0  0
  132.1358  133.4935  123.2810 H   0  0  0  0  0  0  0  0  0  0  0  0
  1  2  2  0  0  0  0
  2  3  1  0  0  0  0
  2 28  1  0  0  0  0
  3  4  2  0  0  0  0
  4  5  1  0  0  0  0
  4 29  1  0  0  0  0
  5  6  2  0  0  0  0
  5 30  1  0  0  0  0
  6 23  1  0  0  0  0
  6  1  1  0  0  0  0
  7  3  1  1  0  0  0
  7  8  1  0  0  0  0
  8  9  1  0  0  0  0
  8 31  1  0  0  0  0
  8 32  1  0  0  0  0
  9 10  1  0  0  0  0
  9 33  1  0  0  0  0
  9 34  1  0  0  0  0
 10 11  2  0  0  0  0
 10 12  1  0  0  0  0
 12 13  1  0  0  0  0
 12 35  1  0  0  0  0
 12 36  1  0  0  0  0
 13 14  1  0  0  0  0
 13  7  1  0  0  0  0
 13 37  1  1  0  0  0
 14 15  1  0  0  0  0
 14 16  1  0  0  0  0
 15 38  1  0  0  0  0
 15 39  1  0  0  0  0
 15 40  1  0  0  0  0
 16 17  1  0  0  0  0
 16 41  1  0  0  0  0
 16 42  1  0  0  0  0
 17  7  1  0  0  0  0
 17 43  1  0  0  0  0
 17 44  1  0  0  0  0
 18  1  1  0  0  0  0
 19 18  1  0  0  0  0
 19 45  1  0  0  0  0
 19 46  1  0  0  0  0
 20 19  1  0  0  0  0
 20 47  1  0  0  0  0
 20 48  1  0  0  0  0
 21 22  1  0  0  0  0
 21 49  1  0  0  0  0
 21 50  1  0  0  0  0
 21 51  1  0  0  0  0
 22 20  1  0  0  0  0
 22 52  1  0  0  0  0
 22 53  1  0  0  0  0
 23 24  1  0  0  0  0
 24 25  1  0  0  0  0
 24 54  1  0  0  0  0
 24 55  1  0  0  0  0
 25 26  1  0  0  0  0
 25 56  1  0  0  0  0
 26 27  1  0  0  0  0
 26 57  1  0  0  0  0
 26 58  1  0  0  0  0
 27 25  1  0  0  0  0
 27 59  1  0  0  0  0
 27 60  1  0  0  0  0
M  END
>  <minimizedAffinity>
-7.48672

$$$$
