L2:P31645:78423


 27 30  0  0  0  0  0  0  0  0999 V2000
  134.4833  131.2236  119.6798 C   0  0  0  0  0  0  0  0  0  0  0  0
  135.2892  130.3254  118.9605 C   0  0  0  0  0  0  0  0  0  0  0  0
  135.7730  130.6331  117.6772 C   0  0  0  0  0  0  0  0  0  0  0  0
  135.4233  131.8927  117.1528 C   0  0  0  0  0  0  0  0  0  0  0  0
  134.5895  132.7719  117.8518 C   0  0  0  0  0  0  0  0  0  0  0  0
  134.0879  132.4322  119.1061 C   0  0  0  0  0  0  0  0  0  0  0  0
  136.7277  129.7088  116.8860 C   0  0  0  0  0  0  0  0  0  0  0  0
  137.9558  130.5558  116.4497 C   0  0  0  0  0  0  0  0  0  0  0  0
  138.7961  131.0141  117.6456 C   0  0  0  0  0  0  0  0  0  0  0  0
  138.9261  129.9107  118.6738 C   0  0  0  0  0  0  0  0  0  0  0  0
  139.2852  130.1441  119.8266 O   0  0  0  0  0  0  0  0  0  0  0  0
  138.6552  128.5082  118.1924 C   0  0  0  0  0  0  0  0  0  0  0  0
  137.2231  128.4156  117.6434 C   0  0  0  0  0  0  0  0  0  0  0  0
  136.9279  127.2456  116.7751 N   0  0  0  0  0  0  0  0  0  0  0  0
  138.0103  126.8016  115.9026 C   0  0  0  0  0  0  0  0  0  0  0  0
  135.7507  127.6594  116.0044 C   0  0  0  0  0  0  0  0  0  0  0  0
  136.0115  129.1122  115.6448 C   0  0  0  0  0  0  0  0  0  0  0  0
  134.0775  130.8863  120.9458 O   0  0  0  0  0  0  0  0  0  0  0  0
  133.5536  129.5499  120.9852 C   0  0  0  0  0  0  0  0  0  0  0  0
  132.0306  129.6449  120.9574 C   0  0  0  0  0  0  0  0  0  0  0  0
  129.9994  129.8663  119.4861 C   0  0  0  0  0  0  0  0  0  0  0  0
  131.4868  129.5560  119.5343 C   0  0  0  0  0  0  0  0  0  0  0  0
  133.2943  133.3864  119.6813 O   0  0  0  0  0  0  0  0  0  0  0  0
  131.9076  133.0552  119.7751 C   0  0  0  0  0  0  0  0  0  0  0  0
  131.3724  133.6856  121.0277 C   0  0  0  0  0  0  0  0  0  0  0  0
  130.3063  132.9921  121.8369 C   0  0  0  0  0  0  0  0  0  0  0  0
  131.7043  133.1092  122.3804 C   0  0  0  0  0  0  0  0  0  0  0  0
 21 22  1  0  0  0
 22 20  1  0  0  0
 20 19  1  0  0  0
 19 18  1  0  0  0
 18  1  1  0  0  0
  1  2  2  0  0  0
  2  3  1  0  0  0
  7  3  1  0  0  0
  7  8  1  0  0  0
  8  9  1  0  0  0
  9 10  1  0  0  0
 10 11  2  0  0  0
 10 12  1  0  0  0
 12 13  1  0  0  0
 13 14  1  0  0  0
 14 15  1  0  0  0
 14 16  1  0  0  0
 16 17  1  0  0  0
  3  4  2  0  0  0
  4  5  1  0  0  0
  5  6  2  0  0  0
  6 23  1  0  0  0
 23 24  1  0  0  0
 24 25  1  0  0  0
 25 26  1  0  0  0
 26 27  1  0  0  0
  6  1  1  0  0  0
 27 25  1  0  0  0
 13  7  1  0  0  0
 17  7  1  0  0  0
M  END
> <minimizedAffinity>
-7.48672

$$$$
