L2:P31645:96347
 OpenBabel09212617453D

 60 63  0  0  0  0  0  0  0  0999 V2000
  138.1286  127.4120  116.2224 C   0  0  2  0  0  0  0  0  0  0  0  0
  136.6685  127.5140  115.7117 C   0  0  0  0  0  0  0  0  0  0  0  0
  135.9343  128.8063  116.0582 C   0  0  0  0  0  0  0  0  0  0  0  0
  135.9951  129.1049  117.5592 C   0  0  1  0  0  0  0  0  0  0  0  0
  137.4637  129.2318  117.9792 C   0  0  0  0  0  0  0  0  0  0  0  0
  138.2659  127.9421  117.6843 C   0  0  2  0  0  0  0  0  0  0  0  0
  139.7208  128.1339  117.7976 N   0  0  0  0  0  0  0  0  0  0  0  0
  140.2098  128.8318  118.9700 C   0  0  0  0  0  0  0  0  0  0  0  0
  140.1899  128.6981  116.5305 C   0  0  0  0  0  0  0  0  0  0  0  0
  139.1048  128.3690  115.4976 C   0  0  0  0  0  0  0  0  0  0  0  0
  135.1136  130.3293  117.9336 C   0  0  2  0  0  0  0  0  0  0  0  0
  135.4819  131.6349  117.1961 C   0  0  0  0  0  0  0  0  0  0  0  0
  134.9971  132.9007  117.9121 C   0  0  0  0  0  0  0  0  0  0  0  0
  133.7318  132.6658  118.7240 C   0  0  0  0  0  0  0  0  0  0  0  0
  133.9785  131.5930  119.7629 C   0  0  0  0  0  0  0  0  0  0  0  0
  133.3450  131.5626  120.8172 O   0  0  0  0  0  0  0  0  0  0  0  0
  135.0416  130.5592  119.4497 C   0  0  0  0  0  0  0  0  0  0  0  0
  139.5556  123.2884  115.5672 C   0  0  0  0  0  0  0  0  0  0  0  0
  138.1954  123.5937  115.4648 C   0  0  0  0  0  0  0  0  0  0  0  0
  137.7268  124.9009  115.6660 C   0  0  0  0  0  0  0  0  0  0  0  0
  138.5982  125.9494  115.9838 C   0  0  0  0  0  0  0  0  0  0  0  0
  139.9663  125.6273  116.0796 C   0  0  0  0  0  0  0  0  0  0  0  0
  140.4494  124.3293  115.8516 C   0  0  0  0  0  0  0  0  0  0  0  0
  139.3752  120.9574  116.0567 C   0  0  0  0  0  0  0  0  0  0  0  0
  140.0674  122.0265  115.4257 O   0  0  0  0  0  0  0  0  0  0  0  0
  141.8101  124.2157  115.9977 O   0  0  0  0  0  0  0  0  0  0  0  0
  142.3729  124.9600  117.0729 C   0  0  0  0  0  0  0  0  0  0  0  0
  136.1159  126.6995  116.1313 H   0  0  0  0  0  0  0  0  0  0  0  0
  136.7311  127.4918  114.6438 H   0  0  0  0  0  0  0  0  0  0  0  0
  134.9098  128.7131  115.7640 H   0  0  0  0  0  0  0  0  0  0  0  0
  136.4099  129.6111  115.5376 H   0  0  0  0  0  0  0  0  0  0  0  0
  135.5737  128.2948  118.1170 H   0  0  0  0  0  0  0  0  0  0  0  0
  137.5063  129.4323  119.0294 H   0  0  0  0  0  0  0  0  0  0  0  0
  137.9007  130.0286  117.4143 H   0  0  0  0  0  0  0  0  0  0  0  0
  137.8536  127.2684  118.4061 H   0  0  0  0  0  0  0  0  0  0  0  0
  139.8250  128.3621  119.8510 H   0  0  0  0  0  0  0  0  0  0  0  0
  139.8862  129.8512  118.9390 H   0  0  0  0  0  0  0  0  0  0  0  0
  141.2791  128.7973  118.9854 H   0  0  0  0  0  0  0  0  0  0  0  0
  141.1210  128.2535  116.2470 H   0  0  0  0  0  0  0  0  0  0  0  0
  140.3537  129.7528  116.6063 H   0  0  0  0  0  0  0  0  0  0  0  0
  139.5341  127.8897  114.6427 H   0  0  0  0  0  0  0  0  0  0  0  0
  138.6110  129.2496  115.1432 H   0  0  0  0  0  0  0  0  0  0  0  0
  134.1371  130.0620  117.5872 H   0  0  0  0  0  0  0  0  0  0  0  0
  135.0424  131.6083  116.2209 H   0  0  0  0  0  0  0  0  0  0  0  0
  136.5501  131.6843  117.1592 H   0  0  0  0  0  0  0  0  0  0  0  0
  134.7988  133.6544  117.1790 H   0  0  0  0  0  0  0  0  0  0  0  0
  135.7664  133.2034  118.5914 H   0  0  0  0  0  0  0  0  0  0  0  0
  132.9441  132.3529  118.0709 H   0  0  0  0  0  0  0  0  0  0  0  0
  133.4544  133.5750  119.2153 H   0  0  0  0  0  0  0  0  0  0  0  0
  134.7964  129.6388  119.9372 H   0  0  0  0  0  0  0  0  0  0  0  0
  135.9899  130.9110  119.7988 H   0  0  0  0  0  0  0  0  0  0  0  0
  137.5236  122.8441  115.2371 H   0  0  0  0  0  0  0  0  0  0  0  0
  136.7168  125.0937  115.5777 H   0  0  0  0  0  0  0  0  0  0  0  0
  140.6370  126.3719  116.3261 H   0  0  0  0  0  0  0  0  0  0  0  0
  139.8859  120.0375  115.8618 H   0  0  0  0  0  0  0  0  0  0  0  0
  138.3787  120.9008  115.6711 H   0  0  0  0  0  0  0  0  0  0  0  0
  139.3399  121.1290  117.1123 H   0  0  0  0  0  0  0  0  0  0  0  0
  143.4311  124.8037  117.0994 H   0  0  0  0  0  0  0  0  0  0  0  0
  141.9411  124.6348  117.9963 H   0  0  0  0  0  0  0  0  0  0  0  0
  142.1695  126.0009  116.9311 H   0  0  0  0  0  0  0  0  0  0  0  0
  1 21  1  6  0  0  0
  1  2  1  0  0  0  0
  2  3  1  0  0  0  0
  2 28  1  0  0  0  0
  2 29  1  0  0  0  0
  3  4  1  0  0  0  0
  3 30  1  0  0  0  0
  3 31  1  0  0  0  0
  4 11  1  0  0  0  0
  4  5  1  0  0  0  0
  4 32  1  1  0  0  0
  5  6  1  0  0  0  0
  5 33  1  0  0  0  0
  5 34  1  0  0  0  0
  6  7  1  0  0  0  0
  6  1  1  0  0  0  0
  6 35  1  1  0  0  0
  7  8  1  0  0  0  0
  7  9  1  0  0  0  0
  8 36  1  0  0  0  0
  8 37  1  0  0  0  0
  8 38  1  0  0  0  0
  9 10  1  0  0  0  0
  9 39  1  0  0  0  0
  9 40  1  0  0  0  0
 10  1  1  0  0  0  0
 10 41  1  0  0  0  0
 10 42  1  0  0  0  0
 11 12  1  0  0  0  0
 11 43  1  6  0  0  0
 12 13  1  0  0  0  0
 12 44  1  0  0  0  0
 12 45  1  0  0  0  0
 13 14  1  0  0  0  0
 13 46  1  0  0  0  0
 13 47  1  0  0  0  0
 14 15  1  0  0  0  0
 14 48  1  0  0  0  0
 14 49  1  0  0  0  0
 15 16  2  0  0  0  0
 15 17  1  0  0  0  0
 17 11  1  0  0  0  0
 17 50  1  0  0  0  0
 17 51  1  0  0  0  0
 18 19  2  0  0  0  0
 19 20  1  0  0  0  0
 19 52  1  0  0  0  0
 20 21  2  0  0  0  0
 20 53  1  0  0  0  0
 21 22  1  0  0  0  0
 22 23  2  0  0  0  0
 22 54  1  0  0  0  0
 23 26  1  0  0  0  0
 23 18  1  0  0  0  0
 24 25  1  0  0  0  0
 24 55  1  0  0  0  0
 24 56  1  0  0  0  0
 24 57  1  0  0  0  0
 25 18  1  0  0  0  0
 26 27  1  0  0  0  0
 27 58  1  0  0  0  0
 27 59  1  0  0  0  0
 27 60  1  0  0  0  0
M  END
>  <minimizedAffinity>
-9.22423

$$$$
