L2:P31645:96347


 27 30  0  0  0  0  0  0  0  0999 V2000
  138.1286  127.4120  116.2224 C   0  0  0  0  0  0  0  0  0  0  0  0
  136.6685  127.5140  115.7117 C   0  0  0  0  0  0  0  0  0  0  0  0
  135.9343  128.8063  116.0582 C   0  0  0  0  0  0  0  0  0  0  0  0
  135.9951  129.1049  117.5592 C   0  0  0  0  0  0  0  0  0  0  0  0
  137.4637  129.2318  117.9792 C   0  0  0  0  0  0  0  0  0  0  0  0
  138.2659  127.9421  117.6843 C   0  0  0  0  0  0  0  0  0  0  0  0
  139.7208  128.1339  117.7976 N   0  0  0  0  0  0  0  0  0  0  0  0
  140.2098  128.8318  118.9700 C   0  0  0  0  0  0  0  0  0  0  0  0
  140.1899  128.6981  116.5305 C   0  0  0  0  0  0  0  0  0  0  0  0
  139.1048  128.3690  115.4976 C   0  0  0  0  0  0  0  0  0  0  0  0
  135.1136  130.3293  117.9336 C   0  0  0  0  0  0  0  0  0  0  0  0
  135.4819  131.6349  117.1961 C   0  0  0  0  0  0  0  0  0  0  0  0
  134.9971  132.9007  117.9121 C   0  0  0  0  0  0  0  0  0  0  0  0
  133.7318  132.6658  118.7240 C   0  0  0  0  0  0  0  0  0  0  0  0
  133.9785  131.5930  119.7629 C   0  0  0  0  0  0  0  0  0  0  0  0
  133.3450  131.5626  120.8172 O   0  0  0  0  0  0  0  0  0  0  0  0
  135.0416  130.5592  119.4497 C   0  0  0  0  0  0  0  0  0  0  0  0
  139.5556  123.2884  115.5672 C   0  0  0  0  0  0  0  0  0  0  0  0
  138.1954  123.5937  115.4648 C   0  0  0  0  0  0  0  0  0  0  0  0
  137.7268  124.9009  115.6660 C   0  0  0  0  0  0  0  0  0  0  0  0
  138.5982  125.9494  115.9838 C   0  0  0  0  0  0  0  0  0  0  0  0
  139.9663  125.6273  116.0796 C   0  0  0  0  0  0  0  0  0  0  0  0
  140.4494  124.3293  115.8516 C   0  0  0  0  0  0  0  0  0  0  0  0
  139.3752  120.9574  116.0567 C   0  0  0  0  0  0  0  0  0  0  0  0
  140.0674  122.0265  115.4257 O   0  0  0  0  0  0  0  0  0  0  0  0
  141.8101  124.2157  115.9977 O   0  0  0  0  0  0  0  0  0  0  0  0
  142.3729  124.9600  117.0729 C   0  0  0  0  0  0  0  0  0  0  0  0
 24 25  1  0  0  0
 25 18  1  0  0  0
 18 19  2  0  0  0
 19 20  1  0  0  0
 20 21  2  0  0  0
  1 21  1  0  0  0
  1  2  1  0  0  0
  2  3  1  0  0  0
  3  4  1  0  0  0
  4 11  1  0  0  0
 11 12  1  0  0  0
 12 13  1  0  0  0
 13 14  1  0  0  0
 14 15  1  0  0  0
 15 16  2  0  0  0
 15 17  1  0  0  0
  4  5  1  0  0  0
  5  6  1  0  0  0
  6  7  1  0  0  0
  7  8  1  0  0  0
  7  9  1  0  0  0
  9 10  1  0  0  0
 21 22  1  0  0  0
 22 23  2  0  0  0
 23 26  1  0  0  0
 26 27  1  0  0  0
 23 18  1  0  0  0
  6  1  1  0  0  0
 10  1  1  0  0  0
 17 11  1  0  0  0
M  END
> <minimizedAffinity>
-9.22423

$$$$
