L2:P31645:96347
     RDKit          3D

 60 63  0  0  0  0  0  0  0  0999 V2000
    6.0561   -1.2198   -3.4969 C   0  0  0  0  0  0  0  0  0  0  0  0
    5.7714   -0.1203   -2.6424 O   0  0  0  0  0  0  0  0  0  0  0  0
    4.5612   -0.1074   -2.0025 C   0  0  0  0  0  0  0  0  0  0  0  0
    3.5407   -1.0309   -2.2466 C   0  0  0  0  0  0  0  0  0  0  0  0
    2.3384   -0.9933   -1.5242 C   0  0  0  0  0  0  0  0  0  0  0  0
    2.1140   -0.0370   -0.5269 C   0  0  0  0  0  0  0  0  0  0  0  0
    0.8033    0.0426    0.3053 C   0  0  1  0  0  0  0  0  0  0  0  0
    0.1989    1.4514    0.0753 C   0  0  0  0  0  0  0  0  0  0  0  0
   -1.2111    1.6642    0.6192 C   0  0  0  0  0  0  0  0  0  0  0  0
   -2.1764    0.5835    0.1231 C   0  0  2  0  0  0  0  0  0  0  0  0
   -3.6412    0.8902    0.5436 C   0  0  2  0  0  0  0  0  0  0  0  0
   -3.8499    1.0629    2.0637 C   0  0  0  0  0  0  0  0  0  0  0  0
   -5.2997    0.8454    2.5117 C   0  0  0  0  0  0  0  0  0  0  0  0
   -6.3071    1.2067    1.4301 C   0  0  0  0  0  0  0  0  0  0  0  0
   -6.0575    0.3699    0.1938 C   0  0  0  0  0  0  0  0  0  0  0  0
   -6.9651    0.0974   -0.5909 O   0  0  0  0  0  0  0  0  0  0  0  0
   -4.6417   -0.1205   -0.0344 C   0  0  0  0  0  0  0  0  0  0  0  0
   -1.6620   -0.7864    0.5792 C   0  0  0  0  0  0  0  0  0  0  0  0
   -0.2435   -1.0841    0.0377 C   0  0  2  0  0  0  0  0  0  0  0  0
    0.3884   -2.2412    0.6922 N   0  0  0  0  0  0  0  0  0  0  0  0
   -0.4107   -3.4419    0.8354 C   0  0  0  0  0  0  0  0  0  0  0  0
    0.9814   -1.7682    1.9446 C   0  0  0  0  0  0  0  0  0  0  0  0
    1.1399   -0.2508    1.7868 C   0  0  0  0  0  0  0  0  0  0  0  0
    3.1497    0.8894   -0.2949 C   0  0  0  0  0  0  0  0  0  0  0  0
    4.3444    0.8793   -1.0316 C   0  0  0  0  0  0  0  0  0  0  0  0
    5.2314    1.8572   -0.6537 O   0  0  0  0  0  0  0  0  0  0  0  0
    5.9614    2.4627   -1.7154 C   0  0  0  0  0  0  0  0  0  0  0  0
    5.3964   -1.2192   -4.3706 H   0  0  0  0  0  0  0  0  0  0  0  0
    7.0829   -1.1044   -3.8575 H   0  0  0  0  0  0  0  0  0  0  0  0
    5.9994   -2.1702   -2.9559 H   0  0  0  0  0  0  0  0  0  0  0  0
    3.6450   -1.8131   -2.9914 H   0  0  0  0  0  0  0  0  0  0  0  0
    1.5998   -1.7566   -1.7530 H   0  0  0  0  0  0  0  0  0  0  0  0
    0.1700    1.6542   -1.0049 H   0  0  0  0  0  0  0  0  0  0  0  0
    0.8427    2.2249    0.5121 H   0  0  0  0  0  0  0  0  0  0  0  0
   -1.5641    2.6527    0.3004 H   0  0  0  0  0  0  0  0  0  0  0  0
   -1.1799    1.6842    1.7144 H   0  0  0  0  0  0  0  0  0  0  0  0
   -2.1557    0.5960   -0.9763 H   0  0  0  0  0  0  0  0  0  0  0  0
   -3.8873    1.8636    0.0910 H   0  0  0  0  0  0  0  0  0  0  0  0
   -3.2124    0.3846    2.6399 H   0  0  0  0  0  0  0  0  0  0  0  0
   -3.5428    2.0788    2.3434 H   0  0  0  0  0  0  0  0  0  0  0  0
   -5.4951    1.4244    3.4214 H   0  0  0  0  0  0  0  0  0  0  0  0
   -5.4282   -0.2113    2.7806 H   0  0  0  0  0  0  0  0  0  0  0  0
   -6.2292    2.2643    1.1579 H   0  0  0  0  0  0  0  0  0  0  0  0
   -7.3224    1.0085    1.7885 H   0  0  0  0  0  0  0  0  0  0  0  0
   -4.5475   -1.1029    0.4394 H   0  0  0  0  0  0  0  0  0  0  0  0
   -4.4881   -0.2322   -1.1133 H   0  0  0  0  0  0  0  0  0  0  0  0
   -1.6723   -0.8402    1.6737 H   0  0  0  0  0  0  0  0  0  0  0  0
   -2.3386   -1.5718    0.2236 H   0  0  0  0  0  0  0  0  0  0  0  0
   -0.3485   -1.2680   -1.0380 H   0  0  0  0  0  0  0  0  0  0  0  0
    0.2106   -4.2670    1.2008 H   0  0  0  0  0  0  0  0  0  0  0  0
   -1.2456   -3.3181    1.5332 H   0  0  0  0  0  0  0  0  0  0  0  0
   -0.8127   -3.7542   -0.1344 H   0  0  0  0  0  0  0  0  0  0  0  0
    1.9531   -2.2483    2.1009 H   0  0  0  0  0  0  0  0  0  0  0  0
    0.3523   -1.9795    2.8177 H   0  0  0  0  0  0  0  0  0  0  0  0
    2.1398    0.0717    2.0946 H   0  0  0  0  0  0  0  0  0  0  0  0
    0.4286    0.2466    2.4563 H   0  0  0  0  0  0  0  0  0  0  0  0
    3.0404    1.6508    0.4749 H   0  0  0  0  0  0  0  0  0  0  0  0
    6.8987    1.9262   -1.8886 H   0  0  0  0  0  0  0  0  0  0  0  0
    5.3742    2.5467   -2.6367 H   0  0  0  0  0  0  0  0  0  0  0  0
    6.2215    3.4779   -1.3993 H   0  0  0  0  0  0  0  0  0  0  0  0
  1  2  1  0
  2  3  1  0
  3  4  2  0
  4  5  1  0
  5  6  2  0
  7  6  1  6
  7  8  1  0
  8  9  1  0
  9 10  1  0
 10 11  1  0
 11 12  1  0
 12 13  1  0
 13 14  1  0
 14 15  1  0
 15 16  2  0
 15 17  1  0
 10 18  1  0
 18 19  1  0
 19 20  1  0
 20 21  1  0
 20 22  1  0
 22 23  1  0
  6 24  1  0
 24 25  2  0
 25 26  1  0
 26 27  1  0
 25  3  1  0
 19  7  1  0
 23  7  1  0
 17 11  1  0
  1 28  1  0
  1 29  1  0
  1 30  1  0
  4 31  1  0
  5 32  1  0
  8 33  1  0
  8 34  1  0
  9 35  1  0
  9 36  1  0
 10 37  1  6
 11 38  1  6
 12 39  1  0
 12 40  1  0
 13 41  1  0
 13 42  1  0
 14 43  1  0
 14 44  1  0
 17 45  1  0
 17 46  1  0
 18 47  1  0
 18 48  1  0
 19 49  1  6
 21 50  1  0
 21 51  1  0
 21 52  1  0
 22 53  1  0
 22 54  1  0
 23 55  1  0
 23 56  1  0
 24 57  1  0
 27 58  1  0
 27 59  1  0
 27 60  1  0
M  END
>  <mol_id>  (1) 
96347

>  <source_index>  (1) 
6

>  <layer>  (1) 
L2

>  <uniprot>  (1) 
P31645

>  <paff>  (1) 
7.3010000000000002

>  <smiles>  (1) 
COc1ccc([C@@]23CC[C@H](C4CCCC(=O)C4)C[C@@H]2N(C)CC3)cc1OC

$$$$
