L1:P51532:130236
     RDKit          3D

 45 47  0  0  0  0  0  0  0  0999 V2000
    7.7135    1.5191   -0.0443 C   0  0  0  0  0  0  0  0  0  0  0  0
    7.1032    1.4755    1.2390 O   0  0  0  0  0  0  0  0  0  0  0  0
    5.7785    1.1355    1.2887 C   0  0  0  0  0  0  0  0  0  0  0  0
    5.2423    1.0858    2.5768 C   0  0  0  0  0  0  0  0  0  0  0  0
    3.9065    0.7445    2.7748 C   0  0  0  0  0  0  0  0  0  0  0  0
    3.0958    0.4553    1.6777 C   0  0  0  0  0  0  0  0  0  0  0  0
    3.6084    0.5084    0.3729 C   0  0  0  0  0  0  0  0  0  0  0  0
    2.7245    0.2012   -0.7508 C   0  0  0  0  0  0  0  0  0  0  0  0
    2.9530    0.5745   -2.0615 C   0  0  0  0  0  0  0  0  0  0  0  0
    1.6742    0.0193   -3.0593 S   0  0  0  0  0  0  0  0  0  0  0  0
    0.9087   -0.6511   -1.6953 C   0  0  0  0  0  0  0  0  0  0  0  0
   -0.2844   -1.3186   -1.7613 N   0  0  0  0  0  0  0  0  0  0  0  0
   -1.0710   -1.5262   -2.8723 C   0  0  0  0  0  0  0  0  0  0  0  0
   -0.8638   -1.1356   -4.0180 O   0  0  0  0  0  0  0  0  0  0  0  0
   -2.3236   -2.3510   -2.5552 C   0  0  0  0  0  0  0  0  0  0  0  0
   -3.2655   -1.6032   -1.7392 N   0  0  0  0  0  0  0  0  0  0  0  0
   -3.1248   -1.5332   -0.3714 C   0  0  0  0  0  0  0  0  0  0  0  0
   -2.1540   -2.0168    0.2036 O   0  0  0  0  0  0  0  0  0  0  0  0
   -4.1660   -0.7827    0.3797 C   0  0  0  0  0  0  0  0  0  0  0  0
   -3.8155   -0.2060    1.6045 C   0  0  0  0  0  0  0  0  0  0  0  0
   -4.7642    0.5087    2.3426 C   0  0  0  0  0  0  0  0  0  0  0  0
   -6.0700    0.6588    1.8718 C   0  0  0  0  0  0  0  0  0  0  0  0
   -7.0122    1.3399    2.6178 N   0  0  0  0  0  0  0  0  0  0  0  0
   -6.4218    0.0545    0.6626 C   0  0  0  0  0  0  0  0  0  0  0  0
   -5.4797   -0.6621   -0.0847 C   0  0  0  0  0  0  0  0  0  0  0  0
    1.5389   -0.4955   -0.5554 N   0  0  0  0  0  0  0  0  0  0  0  0
    4.9616    0.8455    0.1910 C   0  0  0  0  0  0  0  0  0  0  0  0
    7.6901    0.5362   -0.5263 H   0  0  0  0  0  0  0  0  0  0  0  0
    8.7629    1.7969    0.0938 H   0  0  0  0  0  0  0  0  0  0  0  0
    7.2478    2.2819   -0.6769 H   0  0  0  0  0  0  0  0  0  0  0  0
    5.8740    1.3098    3.4330 H   0  0  0  0  0  0  0  0  0  0  0  0
    3.4973    0.7013    3.7805 H   0  0  0  0  0  0  0  0  0  0  0  0
    2.0540    0.1873    1.8461 H   0  0  0  0  0  0  0  0  0  0  0  0
    3.7718    1.1347   -2.4868 H   0  0  0  0  0  0  0  0  0  0  0  0
   -0.6212   -1.6544   -0.8588 H   0  0  0  0  0  0  0  0  0  0  0  0
   -2.0326   -3.2732   -2.0409 H   0  0  0  0  0  0  0  0  0  0  0  0
   -2.8278   -2.6143   -3.4900 H   0  0  0  0  0  0  0  0  0  0  0  0
   -3.9799   -1.0661   -2.2123 H   0  0  0  0  0  0  0  0  0  0  0  0
   -2.8033   -0.3084    1.9907 H   0  0  0  0  0  0  0  0  0  0  0  0
   -4.4705    0.9466    3.2932 H   0  0  0  0  0  0  0  0  0  0  0  0
   -7.9414    1.4995    2.2540 H   0  0  0  0  0  0  0  0  0  0  0  0
   -6.7434    1.8213    3.4652 H   0  0  0  0  0  0  0  0  0  0  0  0
   -7.4417    0.1304    0.2936 H   0  0  0  0  0  0  0  0  0  0  0  0
   -5.8013   -1.1396   -1.0049 H   0  0  0  0  0  0  0  0  0  0  0  0
    5.3726    0.8653   -0.8112 H   0  0  0  0  0  0  0  0  0  0  0  0
  1  2  1  0
  2  3  1  0
  3  4  2  0
  4  5  1  0
  5  6  2  0
  6  7  1  0
  7  8  1  0
  8  9  2  0
  9 10  1  0
 10 11  1  0
 11 12  1  0
 12 13  1  0
 13 14  2  0
 13 15  1  0
 15 16  1  0
 16 17  1  0
 17 18  2  0
 17 19  1  0
 19 20  2  0
 20 21  1  0
 21 22  2  0
 22 23  1  0
 22 24  1  0
 24 25  2  0
 11 26  2  0
  7 27  2  0
 27  3  1  0
 26  8  1  0
 25 19  1  0
  1 28  1  0
  1 29  1  0
  1 30  1  0
  4 31  1  0
  5 32  1  0
  6 33  1  0
  9 34  1  0
 12 35  1  0
 15 36  1  0
 15 37  1  0
 16 38  1  0
 20 39  1  0
 21 40  1  0
 23 41  1  0
 23 42  1  0
 24 43  1  0
 25 44  1  0
 27 45  1  0
M  END
>  <mol_id>  (1) 
130236

>  <source_index>  (1) 
8

>  <layer>  (1) 
L1

>  <uniprot>  (1) 
P51532

>  <paff>  (1) 
6.4908000000000001

>  <smiles>  (1) 
COc1cccc(-c2csc(NC(=O)CNC(=O)c3ccc(N)cc3)n2)c1

$$$$
