L1:P51532:130236


 31 33  0  0  0  0  0  0  0  0999 V2000
  -11.1744    1.0138   20.9679 N   0  0  0  0  0  0  0  0  0  0  0  0
  -11.6557   -0.2590   20.7570 C   0  0  0  0  0  0  0  0  0  0  0  0
  -12.4865   -0.6155   19.9258 O   0  0  0  0  0  0  0  0  0  0  0  0
  -10.5279    1.1659   21.7422 H   0  0  0  0  0  0  0  0  0  0  0  0
  -11.7243    3.4928   18.5314 C   0  0  0  0  0  0  0  0  0  0  0  0
  -12.2195    4.3243   19.5177 C   0  0  0  0  0  0  0  0  0  0  0  0
  -12.1809    3.5225   21.0326 S   0  0  0  0  0  0  0  0  0  0  0  0
  -11.5002    2.1540   20.2844 C   0  0  0  0  0  0  0  0  0  0  0  0
  -11.3059    2.2505   18.9907 N   0  0  0  0  0  0  0  0  0  0  0  0
  -12.3113    3.6663   14.7917 C   0  0  0  0  0  0  0  0  0  0  0  0
  -11.3213    4.5806   14.4266 C   0  0  0  0  0  0  0  0  0  0  0  0
  -10.4713    5.1245   15.3866 C   0  0  0  0  0  0  0  0  0  0  0  0
  -10.6130    4.7578   16.7245 C   0  0  0  0  0  0  0  0  0  0  0  0
  -11.6066    3.8490   17.1180 C   0  0  0  0  0  0  0  0  0  0  0  0
  -12.4505    3.3018   16.1349 C   0  0  0  0  0  0  0  0  0  0  0  0
  -12.4835    3.2459   12.4547 C   0  0  0  0  0  0  0  0  0  0  0  0
  -13.0690    3.2051   13.7496 O   0  0  0  0  0  0  0  0  0  0  0  0
  -11.0272   -1.2857   21.7061 C   0  0  0  0  0  0  0  0  0  0  0  0
   -9.5792   -1.1670   21.7415 N   0  0  0  0  0  0  0  0  0  0  0  0
   -8.8240   -1.9133   22.6180 C   0  0  0  0  0  0  0  0  0  0  0  0
   -9.3283   -2.7719   23.3359 O   0  0  0  0  0  0  0  0  0  0  0  0
   -9.1347   -0.5820   21.0466 H   0  0  0  0  0  0  0  0  0  0  0  0
   -7.3543   -1.6862   22.6100 C   0  0  0  0  0  0  0  0  0  0  0  0
   -6.5277   -2.6662   23.1685 C   0  0  0  0  0  0  0  0  0  0  0  0
   -5.1402   -2.4925   23.1810 C   0  0  0  0  0  0  0  0  0  0  0  0
   -4.5593   -1.3446   22.6385 C   0  0  0  0  0  0  0  0  0  0  0  0
   -3.1906   -1.1629   22.6795 N   0  0  0  0  0  0  0  0  0  0  0  0
   -5.3923   -0.3558   22.1099 C   0  0  0  0  0  0  0  0  0  0  0  0
   -6.7824   -0.5201   22.0913 C   0  0  0  0  0  0  0  0  0  0  0  0
   -2.7630   -0.3612   22.2371 H   0  0  0  0  0  0  0  0  0  0  0  0
   -2.5862   -1.9014   23.0133 H   0  0  0  0  0  0  0  0  0  0  0  0
 16 17  1  0  0  0
 17 10  1  0  0  0
 10 11  2  0  0  0
 11 12  1  0  0  0
 12 13  2  0  0  0
 13 14  1  0  0  0
 14  5  1  0  0  0
  5  6  2  0  0  0
  6  7  1  0  0  0
  7  8  1  0  0  0
  8  1  1  0  0  0
  1  2  1  0  0  0
  2  3  2  0  0  0
  2 18  1  0  0  0
 18 19  1  0  0  0
 19 20  1  0  0  0
 20 21  2  0  0  0
 20 23  1  0  0  0
 23 24  2  0  0  0
 24 25  1  0  0  0
 25 26  2  0  0  0
 26 27  1  0  0  0
 26 28  1  0  0  0
 28 29  2  0  0  0
  8  9  2  0  0  0
 14 15  2  0  0  0
 15 10  1  0  0  0
  9  5  1  0  0  0
 29 23  1  0  0  0
  1  4  1  0  0  0
 19 22  1  0  0  0
 27 30  1  0  0  0
 27 31  1  0  0  0
M  END
> <minimizedAffinity>
-7.87823

$$$$
