L1:P51532:13433
 OpenBabel09212617493D

 33 35  0  0  0  0  0  0  0  0999 V2000
  -11.0331   -3.7833   25.0893 N   0  0  0  0  0  0  0  0  0  0  0  0
  -10.0712   -3.0245   24.4439 C   0  0  0  0  0  0  0  0  0  0  0  0
   -8.8385   -3.5596   24.3458 N   0  0  0  0  0  0  0  0  0  0  0  0
   -7.8167   -2.8677   23.7401 N   0  0  0  0  0  0  0  0  0  0  0  0
   -8.0186   -1.6273   23.2452 C   0  0  0  0  0  0  0  0  0  0  0  0
   -9.2724   -1.0415   23.3551 C   0  0  0  0  0  0  0  0  0  0  0  0
  -10.3304   -1.7367   23.9651 C   0  0  0  0  0  0  0  0  0  0  0  0
  -10.7164   -4.6970   25.3862 H   0  0  0  0  0  0  0  0  0  0  0  0
  -11.9951   -3.6819   24.7978 H   0  0  0  0  0  0  0  0  0  0  0  0
   -6.8418   -0.9713   22.6391 C   0  0  0  0  0  0  0  0  0  0  0  0
   -6.9810    0.1929   21.8539 C   0  0  0  0  0  0  0  0  0  0  0  0
   -5.8736    0.8383   21.2904 C   0  0  0  0  0  0  0  0  0  0  0  0
   -4.5938    0.3347   21.4951 C   0  0  0  0  0  0  0  0  0  0  0  0
   -4.4224   -0.8181   22.2540 C   0  0  0  0  0  0  0  0  0  0  0  0
   -5.5304   -1.4630   22.8082 C   0  0  0  0  0  0  0  0  0  0  0  0
   -5.2437   -2.5949   23.5291 O   0  0  0  0  0  0  0  0  0  0  0  0
   -6.0849   -3.0614   23.7123 H   0  0  0  0  0  0  0  0  0  0  0  0
  -11.6490   -1.0916   24.0774 C   0  0  0  0  0  0  0  0  0  0  0  0
  -12.3200   -0.6244   22.9350 C   0  0  0  0  0  0  0  0  0  0  0  0
  -13.5694   -0.0084   23.0398 C   0  0  0  0  0  0  0  0  0  0  0  0
  -14.1654    0.1519   24.2886 C   0  0  0  0  0  0  0  0  0  0  0  0
  -13.5141   -0.3031   25.4325 C   0  0  0  0  0  0  0  0  0  0  0  0
  -12.2651   -0.9193   25.3274 C   0  0  0  0  0  0  0  0  0  0  0  0
   -9.4283   -0.0902   22.9868 H   0  0  0  0  0  0  0  0  0  0  0  0
   -7.9241    0.5789   21.6907 H   0  0  0  0  0  0  0  0  0  0  0  0
   -6.0075    1.6893   20.7221 H   0  0  0  0  0  0  0  0  0  0  0  0
   -3.7760    0.8135   21.0864 H   0  0  0  0  0  0  0  0  0  0  0  0
   -3.4751   -1.1976   22.4079 H   0  0  0  0  0  0  0  0  0  0  0  0
  -11.8843   -0.7377   22.0064 H   0  0  0  0  0  0  0  0  0  0  0  0
  -14.0512    0.3281   22.1915 H   0  0  0  0  0  0  0  0  0  0  0  0
  -15.0883    0.6072   24.3661 H   0  0  0  0  0  0  0  0  0  0  0  0
  -13.9546   -0.1849   26.3582 H   0  0  0  0  0  0  0  0  0  0  0  0
  -11.7886   -1.2525   26.1800 H   0  0  0  0  0  0  0  0  0  0  0  0
  1  2  1  0  0  0  0
  1  8  1  0  0  0  0
  1  9  1  0  0  0  0
  2  3  2  0  0  0  0
  3  4  1  0  0  0  0
  4  5  2  0  0  0  0
  5 10  1  0  0  0  0
  5  6  1  0  0  0  0
  6  7  2  0  0  0  0
  6 24  1  0  0  0  0
  7 18  1  0  0  0  0
  7  2  1  0  0  0  0
 10 11  2  0  0  0  0
 11 12  1  0  0  0  0
 11 25  1  0  0  0  0
 12 13  2  0  0  0  0
 12 26  1  0  0  0  0
 13 14  1  0  0  0  0
 13 27  1  0  0  0  0
 14 15  2  0  0  0  0
 14 28  1  0  0  0  0
 15 16  1  0  0  0  0
 15 10  1  0  0  0  0
 16 17  1  0  0  0  0
 18 19  2  0  0  0  0
 19 20  1  0  0  0  0
 19 29  1  0  0  0  0
 20 21  2  0  0  0  0
 20 30  1  0  0  0  0
 21 22  1  0  0  0  0
 21 31  1  0  0  0  0
 22 23  2  0  0  0  0
 22 32  1  0  0  0  0
 23 18  1  0  0  0  0
 23 33  1  0  0  0  0
M  END
>  <minimizedAffinity>
-9.38365

$$$$
