L1:P51532:13433
     RDKit          3D

 33 35  0  0  0  0  0  0  0  0999 V2000
    2.2488    1.4855   -2.4683 N   0  0  0  0  0  0  0  0  0  0  0  0
    1.0961    1.0698   -1.8233 C   0  0  0  0  0  0  0  0  0  0  0  0
   -0.0746    1.5094   -2.3252 N   0  0  0  0  0  0  0  0  0  0  0  0
   -1.2674    1.1641   -1.7357 N   0  0  0  0  0  0  0  0  0  0  0  0
   -1.2943    0.3912   -0.6283 C   0  0  0  0  0  0  0  0  0  0  0  0
   -2.6314    0.1058   -0.0688 C   0  0  0  0  0  0  0  0  0  0  0  0
   -2.8789   -1.0776    0.6588 C   0  0  0  0  0  0  0  0  0  0  0  0
   -4.1348   -1.3525    1.2135 C   0  0  0  0  0  0  0  0  0  0  0  0
   -5.1808   -0.4505    1.0533 C   0  0  0  0  0  0  0  0  0  0  0  0
   -4.9741    0.7201    0.3313 C   0  0  0  0  0  0  0  0  0  0  0  0
   -3.7218    0.9870   -0.2266 C   0  0  0  0  0  0  0  0  0  0  0  0
   -3.6357    2.1652   -0.9248 O   0  0  0  0  0  0  0  0  0  0  0  0
   -0.1017   -0.0549   -0.0751 C   0  0  0  0  0  0  0  0  0  0  0  0
    1.1267    0.2826   -0.6682 C   0  0  0  0  0  0  0  0  0  0  0  0
    2.3787   -0.1955   -0.0587 C   0  0  0  0  0  0  0  0  0  0  0  0
    2.6844   -1.5662   -0.0263 C   0  0  0  0  0  0  0  0  0  0  0  0
    3.8699   -2.0223    0.5552 C   0  0  0  0  0  0  0  0  0  0  0  0
    4.7662   -1.1148    1.1151 C   0  0  0  0  0  0  0  0  0  0  0  0
    4.4790    0.2479    1.0941 C   0  0  0  0  0  0  0  0  0  0  0  0
    3.2938    0.7036    0.5123 C   0  0  0  0  0  0  0  0  0  0  0  0
    2.0877    2.0502   -3.2920 H   0  0  0  0  0  0  0  0  0  0  0  0
    3.0486    0.8683   -2.4604 H   0  0  0  0  0  0  0  0  0  0  0  0
   -2.0959   -1.8205    0.7952 H   0  0  0  0  0  0  0  0  0  0  0  0
   -4.2939   -2.2741    1.7680 H   0  0  0  0  0  0  0  0  0  0  0  0
   -6.1567   -0.6593    1.4830 H   0  0  0  0  0  0  0  0  0  0  0  0
   -5.7870    1.4284    0.1941 H   0  0  0  0  0  0  0  0  0  0  0  0
   -2.7906    2.1659   -1.4194 H   0  0  0  0  0  0  0  0  0  0  0  0
   -0.1040   -0.6408    0.8394 H   0  0  0  0  0  0  0  0  0  0  0  0
    2.0006   -2.2911   -0.4639 H   0  0  0  0  0  0  0  0  0  0  0  0
    4.0936   -3.0861    0.5701 H   0  0  0  0  0  0  0  0  0  0  0  0
    5.6885   -1.4694    1.5683 H   0  0  0  0  0  0  0  0  0  0  0  0
    5.1761    0.9582    1.5316 H   0  0  0  0  0  0  0  0  0  0  0  0
    3.0848    1.7724    0.5063 H   0  0  0  0  0  0  0  0  0  0  0  0
  1  2  1  0
  2  3  2  0
  3  4  1  0
  4  5  2  0
  5  6  1  0
  6  7  2  0
  7  8  1  0
  8  9  2  0
  9 10  1  0
 10 11  2  0
 11 12  1  0
  5 13  1  0
 13 14  2  0
 14 15  1  0
 15 16  2  0
 16 17  1  0
 17 18  2  0
 18 19  1  0
 19 20  2  0
 14  2  1  0
 20 15  1  0
 11  6  1  0
  1 21  1  0
  1 22  1  0
  7 23  1  0
  8 24  1  0
  9 25  1  0
 10 26  1  0
 12 27  1  0
 13 28  1  0
 16 29  1  0
 17 30  1  0
 18 31  1  0
 19 32  1  0
 20 33  1  0
M  END
>  <mol_id>  (1) 
13433

>  <source_index>  (1) 
0

>  <layer>  (1) 
L1

>  <uniprot>  (1) 
P51532

>  <paff>  (1) 
7.1426999999999996

>  <smiles>  (1) 
Nc1nnc(cc1-c1ccccc1)-c1ccccc1O

$$$$
