L1:P51532:143316
 OpenBabel09212617503D

 42 44  0  0  0  0  0  0  0  0999 V2000
  -11.0628    0.9646   20.6544 N   0  0  0  0  0  0  0  0  0  0  0  0
  -11.7022   -0.2492   20.5375 C   0  0  0  0  0  0  0  0  0  0  0  0
  -12.6131   -0.5382   19.7663 O   0  0  0  0  0  0  0  0  0  0  0  0
  -10.3262    1.0764   21.3488 H   0  0  0  0  0  0  0  0  0  0  0  0
  -11.6555    3.5432   18.2952 C   0  0  0  0  0  0  0  0  0  0  0  0
  -12.3242    4.1915   19.3186 C   0  0  0  0  0  0  0  0  0  0  0  0
  -12.2877    3.2361   20.7474 S   0  0  0  0  0  0  0  0  0  0  0  0
  -11.3934    2.0539   19.9061 C   0  0  0  0  0  0  0  0  0  0  0  0
  -11.1241    2.3124   18.6548 N   0  0  0  0  0  0  0  0  0  0  0  0
  -12.0375    4.1148   14.5615 C   0  0  0  0  0  0  0  0  0  0  0  0
  -11.0751    5.1054   14.3494 C   0  0  0  0  0  0  0  0  0  0  0  0
  -10.3155    5.5727   15.4188 C   0  0  0  0  0  0  0  0  0  0  0  0
  -10.5189    5.0507   16.6986 C   0  0  0  0  0  0  0  0  0  0  0  0
  -11.4828    4.0560   16.9350 C   0  0  0  0  0  0  0  0  0  0  0  0
  -12.2395    3.5928   15.8485 C   0  0  0  0  0  0  0  0  0  0  0  0
  -13.4604    3.2397   12.5766 N   0  0  0  0  0  0  0  0  0  0  0  0
  -12.8201    3.6290   13.4628 C   0  0  0  0  0  0  0  0  0  0  0  0
  -11.1167   -1.3089   21.4776 C   0  0  0  0  0  0  0  0  0  0  0  0
   -9.6631   -1.2603   21.5366 N   0  0  0  0  0  0  0  0  0  0  0  0
   -8.9596   -1.8411   22.5671 C   0  0  0  0  0  0  0  0  0  0  0  0
   -9.5112   -2.5376   23.4153 O   0  0  0  0  0  0  0  0  0  0  0  0
   -9.1774   -0.8335   20.7590 H   0  0  0  0  0  0  0  0  0  0  0  0
   -7.4837   -1.6545   22.5706 C   0  0  0  0  0  0  0  0  0  0  0  0
   -6.8773   -0.4921   22.0833 C   0  0  0  0  0  0  0  0  0  0  0  0
   -5.4834   -0.3662   22.1116 C   0  0  0  0  0  0  0  0  0  0  0  0
   -4.6800   -1.3898   22.6194 C   0  0  0  0  0  0  0  0  0  0  0  0
   -3.3072   -1.2461   22.6709 N   0  0  0  0  0  0  0  0  0  0  0  0
   -5.2944   -2.5340   23.1314 C   0  0  0  0  0  0  0  0  0  0  0  0
   -6.6862   -2.6696   23.1088 C   0  0  0  0  0  0  0  0  0  0  0  0
   -2.7238   -2.0082   22.9885 H   0  0  0  0  0  0  0  0  0  0  0  0
   -2.8560   -0.4459   22.2496 H   0  0  0  0  0  0  0  0  0  0  0  0
  -12.7787    5.1143   19.2361 H   0  0  0  0  0  0  0  0  0  0  0  0
  -10.9277    5.4896   13.4030 H   0  0  0  0  0  0  0  0  0  0  0  0
   -9.6032    6.3037   15.2662 H   0  0  0  0  0  0  0  0  0  0  0  0
   -9.9506    5.4022   17.4851 H   0  0  0  0  0  0  0  0  0  0  0  0
  -12.9518    2.8609   15.9970 H   0  0  0  0  0  0  0  0  0  0  0  0
  -11.4138   -2.2767   21.1311 H   0  0  0  0  0  0  0  0  0  0  0  0
  -11.4886   -1.1117   22.4613 H   0  0  0  0  0  0  0  0  0  0  0  0
   -7.4571    0.2723   21.7031 H   0  0  0  0  0  0  0  0  0  0  0  0
   -5.0431    0.4952   21.7522 H   0  0  0  0  0  0  0  0  0  0  0  0
   -4.7149   -3.2885   23.5312 H   0  0  0  0  0  0  0  0  0  0  0  0
   -7.1262   -3.5215   23.4905 H   0  0  0  0  0  0  0  0  0  0  0  0
  1  2  1  0  0  0  0
  1  4  1  0  0  0  0
  2  3  2  0  0  0  0
  2 18  1  0  0  0  0
  5  6  2  0  0  0  0
  6  7  1  0  0  0  0
  6 32  1  0  0  0  0
  7  8  1  0  0  0  0
  8  1  1  0  0  0  0
  8  9  2  0  0  0  0
  9  5  1  0  0  0  0
 10 11  2  0  0  0  0
 11 12  1  0  0  0  0
 11 33  1  0  0  0  0
 12 13  2  0  0  0  0
 12 34  1  0  0  0  0
 13 14  1  0  0  0  0
 13 35  1  0  0  0  0
 14  5  1  0  0  0  0
 14 15  2  0  0  0  0
 15 10  1  0  0  0  0
 15 36  1  0  0  0  0
 16 17  3  0  0  0  0
 17 10  1  0  0  0  0
 18 19  1  0  0  0  0
 18 37  1  0  0  0  0
 18 38  1  0  0  0  0
 19 20  1  0  0  0  0
 19 22  1  0  0  0  0
 20 21  2  0  0  0  0
 20 23  1  0  0  0  0
 23 24  2  0  0  0  0
 24 25  1  0  0  0  0
 24 39  1  0  0  0  0
 25 26  2  0  0  0  0
 25 40  1  0  0  0  0
 26 27  1  0  0  0  0
 26 28  1  0  0  0  0
 27 30  1  0  0  0  0
 27 31  1  0  0  0  0
 28 29  2  0  0  0  0
 28 41  1  0  0  0  0
 29 23  1  0  0  0  0
 29 42  1  0  0  0  0
M  END
>  <minimizedAffinity>
-7.97893

$$$$
