L1:P51532:143316
     RDKit          3D

 42 44  0  0  0  0  0  0  0  0999 V2000
   -8.4173    3.5748    0.3928 N   0  0  0  0  0  0  0  0  0  0  0  0
   -7.6629    2.7185    0.6038 C   0  0  0  0  0  0  0  0  0  0  0  0
   -6.7247    1.6643    0.8570 C   0  0  0  0  0  0  0  0  0  0  0  0
   -6.9920    0.7141    1.8460 C   0  0  0  0  0  0  0  0  0  0  0  0
   -6.0770   -0.3067    2.0904 C   0  0  0  0  0  0  0  0  0  0  0  0
   -4.8970   -0.3776    1.3459 C   0  0  0  0  0  0  0  0  0  0  0  0
   -4.6091    0.5657    0.3451 C   0  0  0  0  0  0  0  0  0  0  0  0
   -3.3581    0.4457   -0.4056 C   0  0  0  0  0  0  0  0  0  0  0  0
   -2.9791    1.2480   -1.4674 C   0  0  0  0  0  0  0  0  0  0  0  0
   -1.4387    0.7615   -2.0559 S   0  0  0  0  0  0  0  0  0  0  0  0
   -1.3996   -0.4642   -0.8722 C   0  0  0  0  0  0  0  0  0  0  0  0
   -0.2743   -1.2316   -0.8983 N   0  0  0  0  0  0  0  0  0  0  0  0
   -0.0439   -2.2575   -0.0094 C   0  0  0  0  0  0  0  0  0  0  0  0
   -0.7851   -2.6408    0.8916 O   0  0  0  0  0  0  0  0  0  0  0  0
    1.2848   -2.9733   -0.2776 C   0  0  0  0  0  0  0  0  0  0  0  0
    2.4366   -2.1084   -0.0679 N   0  0  0  0  0  0  0  0  0  0  0  0
    2.8557   -1.2141   -1.0264 C   0  0  0  0  0  0  0  0  0  0  0  0
    2.2058   -1.0092   -2.0484 O   0  0  0  0  0  0  0  0  0  0  0  0
    4.0955   -0.4436   -0.7394 C   0  0  0  0  0  0  0  0  0  0  0  0
    5.1046   -0.9369    0.0940 C   0  0  0  0  0  0  0  0  0  0  0  0
    6.2530   -0.1718    0.3296 C   0  0  0  0  0  0  0  0  0  0  0  0
    6.4097    1.0870   -0.2551 C   0  0  0  0  0  0  0  0  0  0  0  0
    7.5586    1.8233   -0.0412 N   0  0  0  0  0  0  0  0  0  0  0  0
    5.4118    1.5592   -1.1095 C   0  0  0  0  0  0  0  0  0  0  0  0
    4.2609    0.8026   -1.3524 C   0  0  0  0  0  0  0  0  0  0  0  0
   -2.4342   -0.5373   -0.0790 N   0  0  0  0  0  0  0  0  0  0  0  0
   -5.5385    1.5900    0.1108 C   0  0  0  0  0  0  0  0  0  0  0  0
   -7.9088    0.7630    2.4303 H   0  0  0  0  0  0  0  0  0  0  0  0
   -6.2752   -1.0501    2.8590 H   0  0  0  0  0  0  0  0  0  0  0  0
   -4.1927   -1.1844    1.5539 H   0  0  0  0  0  0  0  0  0  0  0  0
   -3.4964    2.0736   -1.9317 H   0  0  0  0  0  0  0  0  0  0  0  0
    0.4337   -1.0055   -1.5947 H   0  0  0  0  0  0  0  0  0  0  0  0
    1.3804   -3.8219    0.4065 H   0  0  0  0  0  0  0  0  0  0  0  0
    1.2894   -3.3475   -1.3072 H   0  0  0  0  0  0  0  0  0  0  0  0
    2.8890   -2.1428    0.8359 H   0  0  0  0  0  0  0  0  0  0  0  0
    5.0362   -1.9215    0.5459 H   0  0  0  0  0  0  0  0  0  0  0  0
    7.0330   -0.5737    0.9717 H   0  0  0  0  0  0  0  0  0  0  0  0
    7.6476    2.7560   -0.4211 H   0  0  0  0  0  0  0  0  0  0  0  0
    8.2558    1.5112    0.6205 H   0  0  0  0  0  0  0  0  0  0  0  0
    5.5211    2.5238   -1.5987 H   0  0  0  0  0  0  0  0  0  0  0  0
    3.4972    1.1926   -2.0219 H   0  0  0  0  0  0  0  0  0  0  0  0
   -5.3558    2.3456   -0.6491 H   0  0  0  0  0  0  0  0  0  0  0  0
  1  2  3  0
  2  3  1  0
  3  4  2  0
  4  5  1  0
  5  6  2  0
  6  7  1  0
  7  8  1  0
  8  9  2  0
  9 10  1  0
 10 11  1  0
 11 12  1  0
 12 13  1  0
 13 14  2  0
 13 15  1  0
 15 16  1  0
 16 17  1  0
 17 18  2  0
 17 19  1  0
 19 20  2  0
 20 21  1  0
 21 22  2  0
 22 23  1  0
 22 24  1  0
 24 25  2  0
 11 26  2  0
  7 27  2  0
 27  3  1  0
 26  8  1  0
 25 19  1  0
  4 28  1  0
  5 29  1  0
  6 30  1  0
  9 31  1  0
 12 32  1  0
 15 33  1  0
 15 34  1  0
 16 35  1  0
 20 36  1  0
 21 37  1  0
 23 38  1  0
 23 39  1  0
 24 40  1  0
 25 41  1  0
 27 42  1  0
M  END
>  <mol_id>  (1) 
143316

>  <source_index>  (1) 
9

>  <layer>  (1) 
L1

>  <uniprot>  (1) 
P51532

>  <paff>  (1) 
6.4814999999999996

>  <smiles>  (1) 
N#Cc1cccc(-c2csc(NC(=O)CNC(=O)c3ccc(N)cc3)n2)c1

$$$$
