L1:P51532:20704
     RDKit          3D

 54 58  0  0  0  0  0  0  0  0999 V2000
   -5.6496    3.0801    1.6825 C   0  0  0  0  0  0  0  0  0  0  0  0
   -4.9145    1.8629    1.7553 O   0  0  0  0  0  0  0  0  0  0  0  0
   -4.4440    1.4418    0.5255 C   0  0  0  0  0  0  0  0  0  0  0  0
   -3.7224    0.2532    0.5228 C   0  0  0  0  0  0  0  0  0  0  0  0
   -3.1931   -0.2488   -0.6705 C   0  0  0  0  0  0  0  0  0  0  0  0
   -2.4789   -1.4209   -0.7216 N   0  0  0  0  0  0  0  0  0  0  0  0
   -1.5637   -1.8171   -1.8081 C   0  0  2  0  0  0  0  0  0  0  0  0
   -1.5182   -3.3477   -1.6420 C   0  0  0  0  0  0  0  0  0  0  0  0
   -1.8374   -3.5959   -0.1617 C   0  0  0  0  0  0  0  0  0  0  0  0
   -2.0132   -2.1926    0.4471 C   0  0  1  0  0  0  0  0  0  0  0  0
   -0.6381   -1.6236    0.9188 C   0  0  0  0  0  0  0  0  0  0  0  0
    0.3516   -1.5930   -0.1952 N   0  0  0  0  0  0  0  0  0  0  0  0
    1.6640   -1.2670    0.1722 C   0  0  0  0  0  0  0  0  0  0  0  0
    2.2252   -0.0245   -0.1408 C   0  0  0  0  0  0  0  0  0  0  0  0
    3.5227    0.2821    0.2571 C   0  0  0  0  0  0  0  0  0  0  0  0
    4.1851    1.5769   -0.0062 C   0  0  0  0  0  0  0  0  0  0  0  0
    3.8713    2.3347   -1.1544 C   0  0  0  0  0  0  0  0  0  0  0  0
    4.4735    3.5731   -1.4067 C   0  0  0  0  0  0  0  0  0  0  0  0
    5.4102    4.0875   -0.5170 C   0  0  0  0  0  0  0  0  0  0  0  0
    5.7518    3.3601    0.6182 C   0  0  0  0  0  0  0  0  0  0  0  0
    5.1541    2.1216    0.8623 C   0  0  0  0  0  0  0  0  0  0  0  0
    5.5733    1.4883    2.0052 O   0  0  0  0  0  0  0  0  0  0  0  0
    4.2475   -0.6169    0.9616 N   0  0  0  0  0  0  0  0  0  0  0  0
    3.7221   -1.8385    1.2832 N   0  0  0  0  0  0  0  0  0  0  0  0
    2.4769   -2.1673    0.8864 C   0  0  0  0  0  0  0  0  0  0  0  0
    2.0054   -3.4310    1.2266 N   0  0  0  0  0  0  0  0  0  0  0  0
   -0.1633   -1.1875   -1.5254 C   0  0  0  0  0  0  0  0  0  0  0  0
   -3.4680    0.5021   -1.8180 C   0  0  0  0  0  0  0  0  0  0  0  0
   -4.2019    1.6792   -1.7261 C   0  0  0  0  0  0  0  0  0  0  0  0
   -4.6917    2.1733   -0.5758 N   0  0  0  0  0  0  0  0  0  0  0  0
   -5.0207    3.9035    1.3268 H   0  0  0  0  0  0  0  0  0  0  0  0
   -5.9811    3.3295    2.6952 H   0  0  0  0  0  0  0  0  0  0  0  0
   -6.5433    2.9681    1.0588 H   0  0  0  0  0  0  0  0  0  0  0  0
   -3.5876   -0.2549    1.4689 H   0  0  0  0  0  0  0  0  0  0  0  0
   -1.9135   -1.5600   -2.8119 H   0  0  0  0  0  0  0  0  0  0  0  0
   -0.5563   -3.7781   -1.9388 H   0  0  0  0  0  0  0  0  0  0  0  0
   -2.2933   -3.8166   -2.2602 H   0  0  0  0  0  0  0  0  0  0  0  0
   -2.7774   -4.1561   -0.0872 H   0  0  0  0  0  0  0  0  0  0  0  0
   -1.0639   -4.1853    0.3402 H   0  0  0  0  0  0  0  0  0  0  0  0
   -2.7307   -2.2321    1.2722 H   0  0  0  0  0  0  0  0  0  0  0  0
   -0.7773   -0.6017    1.2939 H   0  0  0  0  0  0  0  0  0  0  0  0
   -0.2774   -2.2356    1.7525 H   0  0  0  0  0  0  0  0  0  0  0  0
    1.6284    0.7225   -0.6499 H   0  0  0  0  0  0  0  0  0  0  0  0
    3.1573    1.9634   -1.8863 H   0  0  0  0  0  0  0  0  0  0  0  0
    4.2112    4.1331   -2.3010 H   0  0  0  0  0  0  0  0  0  0  0  0
    5.8792    5.0489   -0.7080 H   0  0  0  0  0  0  0  0  0  0  0  0
    6.4882    3.7497    1.3162 H   0  0  0  0  0  0  0  0  0  0  0  0
    5.2414    0.5672    1.9823 H   0  0  0  0  0  0  0  0  0  0  0  0
    2.6793   -4.0170    1.6987 H   0  0  0  0  0  0  0  0  0  0  0  0
    1.3743   -3.8406    0.5521 H   0  0  0  0  0  0  0  0  0  0  0  0
   -0.2530   -0.0960   -1.5763 H   0  0  0  0  0  0  0  0  0  0  0  0
    0.5378   -1.5118   -2.3038 H   0  0  0  0  0  0  0  0  0  0  0  0
   -3.1372    0.1884   -2.7999 H   0  0  0  0  0  0  0  0  0  0  0  0
   -4.4211    2.2669   -2.6129 H   0  0  0  0  0  0  0  0  0  0  0  0
  1  2  1  0
  2  3  1  0
  3  4  2  0
  4  5  1  0
  5  6  1  0
  6  7  1  0
  7  8  1  0
  8  9  1  0
  9 10  1  0
 10 11  1  0
 11 12  1  0
 12 13  1  0
 13 14  2  0
 14 15  1  0
 15 16  1  0
 16 17  2  0
 17 18  1  0
 18 19  2  0
 19 20  1  0
 20 21  2  0
 21 22  1  0
 15 23  2  0
 23 24  1  0
 24 25  2  0
 25 26  1  0
 12 27  1  0
  5 28  2  0
 28 29  1  0
 29 30  2  0
 30  3  1  0
 10  6  1  0
 25 13  1  0
 27  7  1  0
 21 16  1  0
  1 31  1  0
  1 32  1  0
  1 33  1  0
  4 34  1  0
  7 35  1  6
  8 36  1  0
  8 37  1  0
  9 38  1  0
  9 39  1  0
 10 40  1  1
 11 41  1  0
 11 42  1  0
 14 43  1  0
 17 44  1  0
 18 45  1  0
 19 46  1  0
 20 47  1  0
 22 48  1  0
 26 49  1  0
 26 50  1  0
 27 51  1  0
 27 52  1  0
 28 53  1  0
 29 54  1  0
M  END
>  <mol_id>  (1) 
20704

>  <source_index>  (1) 
1

>  <layer>  (1) 
L1

>  <uniprot>  (1) 
P51532

>  <paff>  (1) 
8.4815000000000005

>  <smiles>  (1) 
COc1cc(N2C3CCC2CN(c2cc(-c4ccccc4O)nnc2N)C3)ccn1

$$$$
