L1:P51532:31548
     RDKit          3D

 37 39  0  0  0  0  0  0  0  0999 V2000
   -1.9082   -0.6921   -2.7378 N   0  0  0  0  0  0  0  0  0  0  0  0
   -0.7316   -0.5559   -2.0067 C   0  0  0  0  0  0  0  0  0  0  0  0
    0.4272   -0.7579   -2.6669 N   0  0  0  0  0  0  0  0  0  0  0  0
    1.6229   -0.5990   -2.0253 N   0  0  0  0  0  0  0  0  0  0  0  0
    1.6598   -0.2439   -0.7214 C   0  0  0  0  0  0  0  0  0  0  0  0
    3.0077   -0.0759   -0.1406 C   0  0  0  0  0  0  0  0  0  0  0  0
    3.2532   -0.3475    1.2218 C   0  0  0  0  0  0  0  0  0  0  0  0
    4.5197   -0.1685    1.7909 C   0  0  0  0  0  0  0  0  0  0  0  0
    5.5774    0.2857    1.0105 C   0  0  0  0  0  0  0  0  0  0  0  0
    5.3721    0.5498   -0.3397 C   0  0  0  0  0  0  0  0  0  0  0  0
    4.1093    0.3614   -0.9052 C   0  0  0  0  0  0  0  0  0  0  0  0
    4.0222    0.6395   -2.2461 O   0  0  0  0  0  0  0  0  0  0  0  0
    0.4771   -0.0386   -0.0170 C   0  0  0  0  0  0  0  0  0  0  0  0
   -0.7636   -0.2135   -0.6401 C   0  0  0  0  0  0  0  0  0  0  0  0
   -1.9559   -0.0366    0.0587 N   0  0  0  0  0  0  0  0  0  0  0  0
   -2.9052   -1.1562    0.1466 C   0  0  0  0  0  0  0  0  0  0  0  0
   -4.3624   -0.6296    0.0990 C   0  0  0  0  0  0  0  0  0  0  0  0
   -4.5856    0.7344    0.6358 N   0  0  0  0  0  0  0  0  0  0  0  0
   -3.5515    1.0468    1.6401 C   0  0  0  0  0  0  0  0  0  0  0  0
   -2.1110    1.0242    1.0649 C   0  0  0  0  0  0  0  0  0  0  0  0
   -2.6407   -0.0465   -2.4774 H   0  0  0  0  0  0  0  0  0  0  0  0
   -1.7633   -0.8988   -3.7165 H   0  0  0  0  0  0  0  0  0  0  0  0
    2.4595   -0.7232    1.8642 H   0  0  0  0  0  0  0  0  0  0  0  0
    4.6785   -0.3890    2.8437 H   0  0  0  0  0  0  0  0  0  0  0  0
    6.5619    0.4264    1.4483 H   0  0  0  0  0  0  0  0  0  0  0  0
    6.1943    0.8962   -0.9603 H   0  0  0  0  0  0  0  0  0  0  0  0
    3.1748    0.2763   -2.5767 H   0  0  0  0  0  0  0  0  0  0  0  0
    0.5212    0.2489    1.0260 H   0  0  0  0  0  0  0  0  0  0  0  0
   -2.7369   -1.6711    1.1016 H   0  0  0  0  0  0  0  0  0  0  0  0
   -2.7671   -1.9102   -0.6356 H   0  0  0  0  0  0  0  0  0  0  0  0
   -4.7078   -0.6327   -0.9420 H   0  0  0  0  0  0  0  0  0  0  0  0
   -5.0096   -1.3326    0.6360 H   0  0  0  0  0  0  0  0  0  0  0  0
   -4.4410    1.3823   -0.1410 H   0  0  0  0  0  0  0  0  0  0  0  0
   -3.7512    2.0351    2.0689 H   0  0  0  0  0  0  0  0  0  0  0  0
   -3.6321    0.3318    2.4689 H   0  0  0  0  0  0  0  0  0  0  0  0
   -1.9014    1.9913    0.5921 H   0  0  0  0  0  0  0  0  0  0  0  0
   -1.4127    0.8891    1.8980 H   0  0  0  0  0  0  0  0  0  0  0  0
  1  2  1  0
  2  3  2  0
  3  4  1  0
  4  5  2  0
  5  6  1  0
  6  7  2  0
  7  8  1  0
  8  9  2  0
  9 10  1  0
 10 11  2  0
 11 12  1  0
  5 13  1  0
 13 14  2  0
 14 15  1  0
 15 16  1  0
 16 17  1  0
 17 18  1  0
 18 19  1  0
 19 20  1  0
 14  2  1  0
 20 15  1  0
 11  6  1  0
  1 21  1  0
  1 22  1  0
  7 23  1  0
  8 24  1  0
  9 25  1  0
 10 26  1  0
 12 27  1  0
 13 28  1  0
 16 29  1  0
 16 30  1  0
 17 31  1  0
 17 32  1  0
 18 33  1  0
 19 34  1  0
 19 35  1  0
 20 36  1  0
 20 37  1  0
M  END
>  <mol_id>  (1) 
31548

>  <source_index>  (1) 
2

>  <layer>  (1) 
L1

>  <uniprot>  (1) 
P51532

>  <paff>  (1) 
6.5934999999999997

>  <smiles>  (1) 
Nc1nnc(cc1N1CCNCC1)-c1ccccc1O

$$$$
