L1:P51532:31548


 24 26  0  0  0  0  0  0  0  0999 V2000
  -10.9212   -3.8900   25.0071 N   0  0  0  0  0  0  0  0  0  0  0  0
   -9.9549   -3.0799   24.4175 C   0  0  0  0  0  0  0  0  0  0  0  0
   -8.6698   -3.4711   24.5390 N   0  0  0  0  0  0  0  0  0  0  0  0
   -7.6708   -2.7495   23.9492 N   0  0  0  0  0  0  0  0  0  0  0  0
   -7.9564   -1.6328   23.2428 C   0  0  0  0  0  0  0  0  0  0  0  0
   -9.2741   -1.2045   23.1111 C   0  0  0  0  0  0  0  0  0  0  0  0
  -10.3177   -1.9101   23.7204 C   0  0  0  0  0  0  0  0  0  0  0  0
  -11.7873   -3.9532   24.4904 H   0  0  0  0  0  0  0  0  0  0  0  0
  -10.5500   -4.7226   25.4437 H   0  0  0  0  0  0  0  0  0  0  0  0
   -6.7998   -0.9494   22.6284 C   0  0  0  0  0  0  0  0  0  0  0  0
   -6.9687    0.2227   21.8618 C   0  0  0  0  0  0  0  0  0  0  0  0
   -5.8846    0.8662   21.2531 C   0  0  0  0  0  0  0  0  0  0  0  0
   -4.5993    0.3548   21.3970 C   0  0  0  0  0  0  0  0  0  0  0  0
   -4.3966   -0.7919   22.1579 C   0  0  0  0  0  0  0  0  0  0  0  0
   -5.4797   -1.4254   22.7706 C   0  0  0  0  0  0  0  0  0  0  0  0
   -5.1647   -2.5396   23.5069 O   0  0  0  0  0  0  0  0  0  0  0  0
   -5.9433   -2.7717   24.0540 H   0  0  0  0  0  0  0  0  0  0  0  0
  -11.6388   -1.4795   23.6189 N   0  0  0  0  0  0  0  0  0  0  0  0
  -12.2982   -0.9119   24.8045 C   0  0  0  0  0  0  0  0  0  0  0  0
  -13.7936   -1.3192   24.8337 C   0  0  0  0  0  0  0  0  0  0  0  0
  -14.4365   -1.5525   23.5181 N   0  0  0  0  0  0  0  0  0  0  0  0
  -13.7409   -0.7679   22.4808 C   0  0  0  0  0  0  0  0  0  0  0  0
  -12.2463   -1.1512   22.3209 C   0  0  0  0  0  0  0  0  0  0  0  0
  -14.2850   -2.5365   23.2883 H   0  0  0  0  0  0  0  0  0  0  0  0
  1  2  1  0  0  0
  2  3  2  0  0  0
  3  4  1  0  0  0
  4  5  2  0  0  0
  5 10  1  0  0  0
 10 11  2  0  0  0
 11 12  1  0  0  0
 12 13  2  0  0  0
 13 14  1  0  0  0
 14 15  2  0  0  0
 15 16  1  0  0  0
  5  6  1  0  0  0
  6  7  2  0  0  0
  7 18  1  0  0  0
 18 19  1  0  0  0
 19 20  1  0  0  0
 20 21  1  0  0  0
 21 22  1  0  0  0
 22 23  1  0  0  0
  7  2  1  0  0  0
 23 18  1  0  0  0
 15 10  1  0  0  0
  1  8  1  0  0  0
  1  9  1  0  0  0
 16 17  1  0  0  0
 21 24  1  0  0  0
M  END
> <minimizedAffinity>
-8.62895

$$$$
