L1:P51532:35235
     RDKit          3D

 61 65  0  0  0  0  0  0  0  0999 V2000
    6.1055   -1.5814   -4.5306 C   0  0  0  0  0  0  0  0  0  0  0  0
    6.3765   -0.5213   -3.6236 O   0  0  0  0  0  0  0  0  0  0  0  0
    5.3299   -0.3771   -2.6604 C   0  0  0  0  0  0  0  0  0  0  0  0
    5.6517    0.7923   -1.7324 C   0  0  0  0  0  0  0  0  0  0  0  0
    4.7354    0.8693   -0.6375 O   0  0  0  0  0  0  0  0  0  0  0  0
    3.5677    1.5539   -0.9100 C   0  0  0  0  0  0  0  0  0  0  0  0
    2.7083    1.7467    0.1659 C   0  0  0  0  0  0  0  0  0  0  0  0
    1.4883    2.4072   -0.0131 C   0  0  0  0  0  0  0  0  0  0  0  0
    0.6139    2.6272    1.0231 N   0  0  0  0  0  0  0  0  0  0  0  0
   -0.8115    2.9779    0.8808 C   0  0  2  0  0  0  0  0  0  0  0  0
   -1.1124    3.6388    2.2392 C   0  0  0  0  0  0  0  0  0  0  0  0
   -0.0984    3.0234    3.2126 C   0  0  0  0  0  0  0  0  0  0  0  0
    0.7074    2.0216    2.3654 C   0  0  1  0  0  0  0  0  0  0  0  0
    0.0023    0.6286    2.3446 C   0  0  0  0  0  0  0  0  0  0  0  0
   -1.4021    0.7336    1.8532 N   0  0  0  0  0  0  0  0  0  0  0  0
   -2.1741   -0.4304    1.9703 C   0  0  0  0  0  0  0  0  0  0  0  0
   -2.5762   -1.1582    0.8476 C   0  0  0  0  0  0  0  0  0  0  0  0
   -3.3230   -2.3219    0.9982 C   0  0  0  0  0  0  0  0  0  0  0  0
   -3.7721   -3.1274   -0.1429 C   0  0  0  0  0  0  0  0  0  0  0  0
   -3.4596   -4.4990   -0.1926 C   0  0  0  0  0  0  0  0  0  0  0  0
   -3.8171   -5.2864   -1.2913 C   0  0  0  0  0  0  0  0  0  0  0  0
   -4.4965   -4.7166   -2.3647 C   0  0  0  0  0  0  0  0  0  0  0  0
   -4.8332   -3.3656   -2.3326 C   0  0  0  0  0  0  0  0  0  0  0  0
   -4.4885   -2.5885   -1.2264 C   0  0  0  0  0  0  0  0  0  0  0  0
   -4.9114   -1.2849   -1.2569 O   0  0  0  0  0  0  0  0  0  0  0  0
   -3.6648   -2.7741    2.2222 N   0  0  0  0  0  0  0  0  0  0  0  0
   -3.2915   -2.0746    3.3375 N   0  0  0  0  0  0  0  0  0  0  0  0
   -2.5860   -0.9302    3.2218 C   0  0  0  0  0  0  0  0  0  0  0  0
   -2.2682   -0.2544    4.3958 N   0  0  0  0  0  0  0  0  0  0  0  0
   -1.6290    1.6585    0.7143 C   0  0  0  0  0  0  0  0  0  0  0  0
    1.2309    2.8608   -1.3106 C   0  0  0  0  0  0  0  0  0  0  0  0
    2.1452    2.6225   -2.3302 C   0  0  0  0  0  0  0  0  0  0  0  0
    3.3070    1.9676   -2.1611 N   0  0  0  0  0  0  0  0  0  0  0  0
    6.0208   -2.5319   -3.9951 H   0  0  0  0  0  0  0  0  0  0  0  0
    5.1874   -1.3809   -5.0912 H   0  0  0  0  0  0  0  0  0  0  0  0
    6.9371   -1.6513   -5.2369 H   0  0  0  0  0  0  0  0  0  0  0  0
    4.3756   -0.2159   -3.1733 H   0  0  0  0  0  0  0  0  0  0  0  0
    5.2390   -1.2993   -2.0737 H   0  0  0  0  0  0  0  0  0  0  0  0
    6.6448    0.6262   -1.2969 H   0  0  0  0  0  0  0  0  0  0  0  0
    5.7424    1.7409   -2.2779 H   0  0  0  0  0  0  0  0  0  0  0  0
    3.0197    1.3698    1.1315 H   0  0  0  0  0  0  0  0  0  0  0  0
   -1.0263    3.6784    0.0689 H   0  0  0  0  0  0  0  0  0  0  0  0
   -0.9409    4.7202    2.1778 H   0  0  0  0  0  0  0  0  0  0  0  0
   -2.1468    3.4881    2.5644 H   0  0  0  0  0  0  0  0  0  0  0  0
   -0.5788    2.5599    4.0798 H   0  0  0  0  0  0  0  0  0  0  0  0
    0.5635    3.8138    3.5872 H   0  0  0  0  0  0  0  0  0  0  0  0
    1.7277    1.9435    2.7527 H   0  0  0  0  0  0  0  0  0  0  0  0
    0.5562   -0.0487    1.6821 H   0  0  0  0  0  0  0  0  0  0  0  0
    0.0426    0.2077    3.3544 H   0  0  0  0  0  0  0  0  0  0  0  0
   -2.2810   -0.8492   -0.1494 H   0  0  0  0  0  0  0  0  0  0  0  0
   -2.9189   -4.9618    0.6325 H   0  0  0  0  0  0  0  0  0  0  0  0
   -3.5600   -6.3426   -1.3076 H   0  0  0  0  0  0  0  0  0  0  0  0
   -4.7725   -5.3258   -3.2214 H   0  0  0  0  0  0  0  0  0  0  0  0
   -5.3790   -2.9205   -3.1600 H   0  0  0  0  0  0  0  0  0  0  0  0
   -5.0731   -1.0023   -0.3394 H   0  0  0  0  0  0  0  0  0  0  0  0
   -2.2467    0.7521    4.3104 H   0  0  0  0  0  0  0  0  0  0  0  0
   -2.6481   -0.6742    5.2327 H   0  0  0  0  0  0  0  0  0  0  0  0
   -1.3287    1.1775   -0.2240 H   0  0  0  0  0  0  0  0  0  0  0  0
   -2.6956    1.9054    0.6500 H   0  0  0  0  0  0  0  0  0  0  0  0
    0.3324    3.4120   -1.5573 H   0  0  0  0  0  0  0  0  0  0  0  0
    1.9526    2.9709   -3.3409 H   0  0  0  0  0  0  0  0  0  0  0  0
  1  2  1  0
  2  3  1  0
  3  4  1  0
  4  5  1  0
  5  6  1  0
  6  7  2  0
  7  8  1  0
  8  9  1  0
  9 10  1  0
 10 11  1  0
 11 12  1  0
 12 13  1  0
 13 14  1  0
 14 15  1  0
 15 16  1  0
 16 17  2  0
 17 18  1  0
 18 19  1  0
 19 20  2  0
 20 21  1  0
 21 22  2  0
 22 23  1  0
 23 24  2  0
 24 25  1  0
 18 26  2  0
 26 27  1  0
 27 28  2  0
 28 29  1  0
 15 30  1  0
  8 31  2  0
 31 32  1  0
 32 33  2  0
 33  6  1  0
 13  9  1  0
 28 16  1  0
 30 10  1  0
 24 19  1  0
  1 34  1  0
  1 35  1  0
  1 36  1  0
  3 37  1  0
  3 38  1  0
  4 39  1  0
  4 40  1  0
  7 41  1  0
 10 42  1  6
 11 43  1  0
 11 44  1  0
 12 45  1  0
 12 46  1  0
 13 47  1  1
 14 48  1  0
 14 49  1  0
 17 50  1  0
 20 51  1  0
 21 52  1  0
 22 53  1  0
 23 54  1  0
 25 55  1  0
 29 56  1  0
 29 57  1  0
 30 58  1  0
 30 59  1  0
 31 60  1  0
 32 61  1  0
M  END
>  <mol_id>  (1) 
35235

>  <source_index>  (1) 
3

>  <layer>  (1) 
L1

>  <uniprot>  (1) 
P51532

>  <paff>  (1) 
8.5527999999999995

>  <smiles>  (1) 
COCCOc1cc(N2C3CCC2CN(c2cc(-c4ccccc4O)nnc2N)C3)ccn1

$$$$
