L1:P51532:35615
     RDKit          3D

 45 47  0  0  0  0  0  0  0  0999 V2000
   -8.8755    0.2023   -0.8752 C   0  0  0  0  0  0  0  0  0  0  0  0
   -7.7513    1.0132   -1.1905 O   0  0  0  0  0  0  0  0  0  0  0  0
   -6.5585    0.6668   -0.6195 C   0  0  0  0  0  0  0  0  0  0  0  0
   -6.3394   -0.4100    0.2379 C   0  0  0  0  0  0  0  0  0  0  0  0
   -5.0585   -0.6550    0.7563 C   0  0  0  0  0  0  0  0  0  0  0  0
   -3.9751    0.1712    0.4254 C   0  0  0  0  0  0  0  0  0  0  0  0
   -2.6239   -0.0490    0.9430 C   0  0  0  0  0  0  0  0  0  0  0  0
   -2.2259   -1.1370    1.6998 C   0  0  0  0  0  0  0  0  0  0  0  0
   -0.5588   -1.0045    2.0961 S   0  0  0  0  0  0  0  0  0  0  0  0
   -0.4956    0.4663    1.2365 C   0  0  0  0  0  0  0  0  0  0  0  0
    0.7321    1.0571    1.2315 N   0  0  0  0  0  0  0  0  0  0  0  0
    0.9989    2.2310    0.5633 C   0  0  0  0  0  0  0  0  0  0  0  0
    0.2165    2.9049   -0.1010 O   0  0  0  0  0  0  0  0  0  0  0  0
    2.4492    2.6888    0.7517 C   0  0  0  0  0  0  0  0  0  0  0  0
    3.4000    1.7776    0.1325 N   0  0  0  0  0  0  0  0  0  0  0  0
    3.8039    0.6195    0.7570 C   0  0  0  0  0  0  0  0  0  0  0  0
    3.2933    0.2382    1.8071 O   0  0  0  0  0  0  0  0  0  0  0  0
    4.8381   -0.1975    0.0671 C   0  0  0  0  0  0  0  0  0  0  0  0
    4.8842   -1.5707    0.3282 C   0  0  0  0  0  0  0  0  0  0  0  0
    5.8412   -2.3747   -0.2993 C   0  0  0  0  0  0  0  0  0  0  0  0
    6.7608   -1.8242   -1.1938 C   0  0  0  0  0  0  0  0  0  0  0  0
    7.7252   -2.6158   -1.7868 N   0  0  0  0  0  0  0  0  0  0  0  0
    6.7303   -0.4472   -1.4258 C   0  0  0  0  0  0  0  0  0  0  0  0
    5.7761    0.3665   -0.8037 C   0  0  0  0  0  0  0  0  0  0  0  0
   -1.6098    0.8639    0.6842 N   0  0  0  0  0  0  0  0  0  0  0  0
   -4.2105    1.2525   -0.4353 C   0  0  0  0  0  0  0  0  0  0  0  0
   -5.4875    1.4956   -0.9518 C   0  0  0  0  0  0  0  0  0  0  0  0
   -9.0959    0.2323    0.1970 H   0  0  0  0  0  0  0  0  0  0  0  0
   -8.7295   -0.8265   -1.2207 H   0  0  0  0  0  0  0  0  0  0  0  0
   -9.7417    0.6110   -1.4044 H   0  0  0  0  0  0  0  0  0  0  0  0
   -7.1414   -1.0807    0.5275 H   0  0  0  0  0  0  0  0  0  0  0  0
   -4.9378   -1.5017    1.4253 H   0  0  0  0  0  0  0  0  0  0  0  0
   -2.7956   -1.9887    2.0378 H   0  0  0  0  0  0  0  0  0  0  0  0
    1.4867    0.5776    1.7192 H   0  0  0  0  0  0  0  0  0  0  0  0
    2.6644    2.7739    1.8224 H   0  0  0  0  0  0  0  0  0  0  0  0
    2.5801    3.6707    0.2868 H   0  0  0  0  0  0  0  0  0  0  0  0
    3.7051    1.9883   -0.8085 H   0  0  0  0  0  0  0  0  0  0  0  0
    4.1773   -2.0234    1.0204 H   0  0  0  0  0  0  0  0  0  0  0  0
    5.8610   -3.4391   -0.0792 H   0  0  0  0  0  0  0  0  0  0  0  0
    7.7098   -3.6193   -1.6643 H   0  0  0  0  0  0  0  0  0  0  0  0
    8.3511   -2.2318   -2.4813 H   0  0  0  0  0  0  0  0  0  0  0  0
    7.4592    0.0081   -2.0917 H   0  0  0  0  0  0  0  0  0  0  0  0
    5.8051    1.4354   -0.9909 H   0  0  0  0  0  0  0  0  0  0  0  0
   -3.3953    1.9203   -0.7130 H   0  0  0  0  0  0  0  0  0  0  0  0
   -5.6424    2.3410   -1.6175 H   0  0  0  0  0  0  0  0  0  0  0  0
  1  2  1  0
  2  3  1  0
  3  4  2  0
  4  5  1  0
  5  6  2  0
  6  7  1  0
  7  8  2  0
  8  9  1  0
  9 10  1  0
 10 11  1  0
 11 12  1  0
 12 13  2  0
 12 14  1  0
 14 15  1  0
 15 16  1  0
 16 17  2  0
 16 18  1  0
 18 19  2  0
 19 20  1  0
 20 21  2  0
 21 22  1  0
 21 23  1  0
 23 24  2  0
 10 25  2  0
  6 26  1  0
 26 27  2  0
 27  3  1  0
 25  7  1  0
 24 18  1  0
  1 28  1  0
  1 29  1  0
  1 30  1  0
  4 31  1  0
  5 32  1  0
  8 33  1  0
 11 34  1  0
 14 35  1  0
 14 36  1  0
 15 37  1  0
 19 38  1  0
 20 39  1  0
 22 40  1  0
 22 41  1  0
 23 42  1  0
 24 43  1  0
 26 44  1  0
 27 45  1  0
M  END
>  <mol_id>  (1) 
35615

>  <source_index>  (1) 
4

>  <layer>  (1) 
L1

>  <uniprot>  (1) 
P51532

>  <paff>  (1) 
6.6904000000000003

>  <smiles>  (1) 
COc1ccc(-c2csc(NC(=O)CNC(=O)c3ccc(N)cc3)n2)cc1

$$$$
