L1:P51532:35615
 OpenBabel09212617503D

 45 47  0  0  0  0  0  0  0  0999 V2000
  -11.0257    0.9164   20.6862 N   0  0  0  0  0  0  0  0  0  0  0  0
  -11.6927   -0.2857   20.6100 C   0  0  0  0  0  0  0  0  0  0  0  0
  -12.6545   -0.5606   19.8980 O   0  0  0  0  0  0  0  0  0  0  0  0
  -10.2603    1.0216   21.3497 H   0  0  0  0  0  0  0  0  0  0  0  0
  -11.6395    3.5115   18.3498 C   0  0  0  0  0  0  0  0  0  0  0  0
  -12.3496    4.1243   19.3671 C   0  0  0  0  0  0  0  0  0  0  0  0
  -12.3101    3.1536   20.7849 S   0  0  0  0  0  0  0  0  0  0  0  0
  -11.3697    2.0065   19.9446 C   0  0  0  0  0  0  0  0  0  0  0  0
  -11.0837    2.2886   18.7024 N   0  0  0  0  0  0  0  0  0  0  0  0
  -11.1884    5.0434   14.3642 C   0  0  0  0  0  0  0  0  0  0  0  0
  -10.3025    5.4422   15.3636 C   0  0  0  0  0  0  0  0  0  0  0  0
  -10.4382    4.9487   16.6703 C   0  0  0  0  0  0  0  0  0  0  0  0
  -11.4621    4.0495   17.0003 C   0  0  0  0  0  0  0  0  0  0  0  0
  -12.3439    3.6543   15.9846 C   0  0  0  0  0  0  0  0  0  0  0  0
  -12.2081    4.1471   14.6825 C   0  0  0  0  0  0  0  0  0  0  0  0
   -9.9163    5.3811   12.3850 C   0  0  0  0  0  0  0  0  0  0  0  0
  -11.1664    5.4480   13.0586 O   0  0  0  0  0  0  0  0  0  0  0  0
  -11.0776   -1.3492   21.5260 C   0  0  0  0  0  0  0  0  0  0  0  0
   -9.6261   -1.2592   21.5784 N   0  0  0  0  0  0  0  0  0  0  0  0
   -8.8965   -1.8993   22.5543 C   0  0  0  0  0  0  0  0  0  0  0  0
   -9.4205   -2.6725   23.3521 O   0  0  0  0  0  0  0  0  0  0  0  0
   -9.1607   -0.7643   20.8291 H   0  0  0  0  0  0  0  0  0  0  0  0
   -7.4259   -1.6747   22.5582 C   0  0  0  0  0  0  0  0  0  0  0  0
   -6.6034   -2.6647   23.1053 C   0  0  0  0  0  0  0  0  0  0  0  0
   -5.2156   -2.4929   23.1290 C   0  0  0  0  0  0  0  0  0  0  0  0
   -4.6301   -1.3377   22.6080 C   0  0  0  0  0  0  0  0  0  0  0  0
   -3.2616   -1.1571   22.6624 N   0  0  0  0  0  0  0  0  0  0  0  0
   -5.4589   -0.3387   22.0922 C   0  0  0  0  0  0  0  0  0  0  0  0
   -6.8490   -0.5008   22.0629 C   0  0  0  0  0  0  0  0  0  0  0  0
   -2.6592   -1.9039   22.9814 H   0  0  0  0  0  0  0  0  0  0  0  0
   -2.8308   -0.3514   22.2303 H   0  0  0  0  0  0  0  0  0  0  0  0
  -12.8329    5.0326   19.2862 H   0  0  0  0  0  0  0  0  0  0  0  0
   -9.5425    6.1041   15.1414 H   0  0  0  0  0  0  0  0  0  0  0  0
   -9.7741    5.2523   17.3996 H   0  0  0  0  0  0  0  0  0  0  0  0
  -13.1039    2.9904   16.2006 H   0  0  0  0  0  0  0  0  0  0  0  0
  -12.8692    3.8443   13.9501 H   0  0  0  0  0  0  0  0  0  0  0  0
  -10.0349    5.7233   11.3782 H   0  0  0  0  0  0  0  0  0  0  0  0
   -9.5680    4.3694   12.3792 H   0  0  0  0  0  0  0  0  0  0  0  0
   -9.2051    6.0003   12.8907 H   0  0  0  0  0  0  0  0  0  0  0  0
  -11.3495   -2.3174   21.1604 H   0  0  0  0  0  0  0  0  0  0  0  0
  -11.4520   -1.1861   22.5150 H   0  0  0  0  0  0  0  0  0  0  0  0
   -7.0219   -3.5248   23.4928 H   0  0  0  0  0  0  0  0  0  0  0  0
   -4.6175   -3.2287   23.5364 H   0  0  0  0  0  0  0  0  0  0  0  0
   -5.0405    0.5313   21.7275 H   0  0  0  0  0  0  0  0  0  0  0  0
   -7.4478    0.2454   21.6761 H   0  0  0  0  0  0  0  0  0  0  0  0
  1  2  1  0  0  0  0
  1  4  1  0  0  0  0
  2  3  2  0  0  0  0
  2 18  1  0  0  0  0
  5  6  2  0  0  0  0
  6  7  1  0  0  0  0
  6 32  1  0  0  0  0
  7  8  1  0  0  0  0
  8  1  1  0  0  0  0
  8  9  2  0  0  0  0
  9  5  1  0  0  0  0
 10 11  2  0  0  0  0
 11 12  1  0  0  0  0
 11 33  1  0  0  0  0
 12 13  2  0  0  0  0
 12 34  1  0  0  0  0
 13  5  1  0  0  0  0
 13 14  1  0  0  0  0
 14 15  2  0  0  0  0
 14 35  1  0  0  0  0
 15 10  1  0  0  0  0
 15 36  1  0  0  0  0
 16 17  1  0  0  0  0
 16 37  1  0  0  0  0
 16 38  1  0  0  0  0
 16 39  1  0  0  0  0
 17 10  1  0  0  0  0
 18 19  1  0  0  0  0
 18 40  1  0  0  0  0
 18 41  1  0  0  0  0
 19 20  1  0  0  0  0
 19 22  1  0  0  0  0
 20 21  2  0  0  0  0
 20 23  1  0  0  0  0
 23 24  2  0  0  0  0
 24 25  1  0  0  0  0
 24 42  1  0  0  0  0
 25 26  2  0  0  0  0
 25 43  1  0  0  0  0
 26 27  1  0  0  0  0
 26 28  1  0  0  0  0
 27 30  1  0  0  0  0
 27 31  1  0  0  0  0
 28 29  2  0  0  0  0
 28 44  1  0  0  0  0
 29 23  1  0  0  0  0
 29 45  1  0  0  0  0
M  END
>  <minimizedAffinity>
-7.96209

$$$$
