L1:P51532:57296
 OpenBabel09212617503D

 52 55  0  0  0  0  0  0  0  0999 V2000
  -11.9799    1.3034   21.4321 C   0  0  2  0  0  0  0  0  0  0  0  0
  -10.6540    0.7245   21.6635 N   0  0  0  0  0  0  0  0  0  0  0  0
  -10.5384   -0.3806   22.3212 C   0  0  0  0  0  0  0  0  0  0  0  0
  -11.6820   -1.1487   22.9150 C   0  0  0  0  0  0  0  0  0  0  0  0
  -11.5166   -1.6402   24.2212 C   0  0  0  0  0  0  0  0  0  0  0  0
  -12.4828   -2.4529   24.8170 C   0  0  0  0  0  0  0  0  0  0  0  0
  -13.6344   -2.7733   24.1044 C   0  0  0  0  0  0  0  0  0  0  0  0
  -13.8279   -2.2717   22.8117 C   0  0  0  0  0  0  0  0  0  0  0  0
  -12.8617   -1.4510   22.2102 C   0  0  0  0  0  0  0  0  0  0  0  0
  -13.1222   -0.8837   20.9371 N   0  0  0  0  0  0  0  0  0  0  0  0
  -13.8432   -1.3849   19.8640 C   0  0  0  0  0  0  0  0  0  0  0  0
  -14.3709   -2.7628   19.7256 C   0  0  0  0  0  0  0  0  0  0  0  0
  -13.9051   -0.4711   18.9158 N   0  0  0  0  0  0  0  0  0  0  0  0
  -13.2007    0.6220   19.3257 N   0  0  0  0  0  0  0  0  0  0  0  0
  -12.7386    0.3794   20.5352 C   0  0  0  0  0  0  0  0  0  0  0  0
   -9.1492   -0.9233   22.4822 C   0  0  0  0  0  0  0  0  0  0  0  0
   -8.0616   -0.0464   22.3702 C   0  0  0  0  0  0  0  0  0  0  0  0
   -6.7559   -0.5249   22.5043 C   0  0  0  0  0  0  0  0  0  0  0  0
   -6.5373   -1.8810   22.7396 C   0  0  0  0  0  0  0  0  0  0  0  0
   -4.9304   -2.4720   22.9056 Cl  0  0  0  0  0  0  0  0  0  0  0  0
   -7.6123   -2.7642   22.8358 C   0  0  0  0  0  0  0  0  0  0  0  0
   -8.9200   -2.2883   22.7017 C   0  0  0  0  0  0  0  0  0  0  0  0
  -12.1786   -2.8645   26.0834 O   0  0  0  0  0  0  0  0  0  0  0  0
  -13.2611   -3.0178   26.9937 C   0  0  0  0  0  0  0  0  0  0  0  0
  -11.7823    2.6875   20.8111 C   0  0  0  0  0  0  0  0  0  0  0  0
  -11.6885    4.9692   21.6393 N   0  0  0  0  0  0  0  0  0  0  0  0
  -12.3281    3.7572   21.7299 C   0  0  0  0  0  0  0  0  0  0  0  0
  -13.2864    3.5491   22.4691 O   0  0  0  0  0  0  0  0  0  0  0  0
  -10.9949    5.0990   20.9026 H   0  0  0  0  0  0  0  0  0  0  0  0
  -13.2271    6.8678   21.7715 C   0  0  0  0  0  0  0  0  0  0  0  0
  -12.0782    6.1191   22.4225 C   0  0  0  0  0  0  0  0  0  0  0  0
  -12.5409    1.4191   22.3358 H   0  0  0  0  0  0  0  0  0  0  0  0
  -10.6647   -1.3957   24.7500 H   0  0  0  0  0  0  0  0  0  0  0  0
  -14.3491   -3.3835   24.5308 H   0  0  0  0  0  0  0  0  0  0  0  0
  -14.6900   -2.5080   22.2959 H   0  0  0  0  0  0  0  0  0  0  0  0
  -14.1975   -3.3039   20.6323 H   0  0  0  0  0  0  0  0  0  0  0  0
  -13.8743   -3.2553   18.9158 H   0  0  0  0  0  0  0  0  0  0  0  0
  -15.4219   -2.7241   19.5288 H   0  0  0  0  0  0  0  0  0  0  0  0
   -8.2258    0.9560   22.1881 H   0  0  0  0  0  0  0  0  0  0  0  0
   -5.9564    0.1233   22.4294 H   0  0  0  0  0  0  0  0  0  0  0  0
   -7.4427   -3.7679   23.0058 H   0  0  0  0  0  0  0  0  0  0  0  0
   -9.7162   -2.9419   22.7643 H   0  0  0  0  0  0  0  0  0  0  0  0
  -12.8864   -3.3421   27.9420 H   0  0  0  0  0  0  0  0  0  0  0  0
  -13.9467   -3.7458   26.6132 H   0  0  0  0  0  0  0  0  0  0  0  0
  -13.7643   -2.0808   27.1105 H   0  0  0  0  0  0  0  0  0  0  0  0
  -10.7379    2.8575   20.6526 H   0  0  0  0  0  0  0  0  0  0  0  0
  -12.3058    2.7289   19.8788 H   0  0  0  0  0  0  0  0  0  0  0  0
  -13.4906    7.7112   22.3749 H   0  0  0  0  0  0  0  0  0  0  0  0
  -14.0712    6.2166   21.6806 H   0  0  0  0  0  0  0  0  0  0  0  0
  -12.9293    7.2033   20.8001 H   0  0  0  0  0  0  0  0  0  0  0  0
  -12.3823    5.7915   23.3947 H   0  0  0  0  0  0  0  0  0  0  0  0
  -11.2400    6.7807   22.4903 H   0  0  0  0  0  0  0  0  0  0  0  0
  1  2  1  0  0  0  0
  1 32  1  1  0  0  0
  2  3  2  0  0  0  0
  3 16  1  0  0  0  0
  3  4  1  0  0  0  0
  4  5  2  0  0  0  0
  5  6  1  0  0  0  0
  5 33  1  0  0  0  0
  6 23  1  0  0  0  0
  6  7  2  0  0  0  0
  7  8  1  0  0  0  0
  7 34  1  0  0  0  0
  8  9  2  0  0  0  0
  8 35  1  0  0  0  0
  9 10  1  0  0  0  0
  9  4  1  0  0  0  0
 10 11  1  0  0  0  0
 11 12  1  0  0  0  0
 11 13  2  0  0  0  0
 12 36  1  0  0  0  0
 12 37  1  0  0  0  0
 12 38  1  0  0  0  0
 13 14  1  0  0  0  0
 14 15  2  0  0  0  0
 15  1  1  0  0  0  0
 15 10  1  0  0  0  0
 16 17  2  0  0  0  0
 17 18  1  0  0  0  0
 17 39  1  0  0  0  0
 18 19  2  0  0  0  0
 18 40  1  0  0  0  0
 19 20  1  0  0  0  0
 19 21  1  0  0  0  0
 21 22  2  0  0  0  0
 21 41  1  0  0  0  0
 22 16  1  0  0  0  0
 22 42  1  0  0  0  0
 23 24  1  0  0  0  0
 24 43  1  0  0  0  0
 24 44  1  0  0  0  0
 24 45  1  0  0  0  0
 25  1  1  0  0  0  0
 25 46  1  0  0  0  0
 25 47  1  0  0  0  0
 26 27  1  0  0  0  0
 26 29  1  0  0  0  0
 27 28  2  0  0  0  0
 27 25  1  0  0  0  0
 30 31  1  0  0  0  0
 30 48  1  0  0  0  0
 30 49  1  0  0  0  0
 30 50  1  0  0  0  0
 31 26  1  0  0  0  0
 31 51  1  0  0  0  0
 31 52  1  0  0  0  0
M  END
>  <minimizedAffinity>
-7.37202

$$$$
