L1:P51532:57296
     RDKit          3D

 52 55  0  0  0  0  0  0  0  0999 V2000
    4.5411   -2.9912    1.2590 C   0  0  0  0  0  0  0  0  0  0  0  0
    5.3074   -2.0707    0.3263 C   0  0  0  0  0  0  0  0  0  0  0  0
    4.4575   -1.0266   -0.1980 N   0  0  0  0  0  0  0  0  0  0  0  0
    3.6883   -1.1901   -1.3240 C   0  0  0  0  0  0  0  0  0  0  0  0
    3.6464   -2.2324   -1.9719 O   0  0  0  0  0  0  0  0  0  0  0  0
    2.8529    0.0143   -1.6956 C   0  0  0  0  0  0  0  0  0  0  0  0
    1.5107   -0.0245   -0.9624 C   0  0  2  0  0  0  0  0  0  0  0  0
    0.6071    0.9121   -1.6355 N   0  0  0  0  0  0  0  0  0  0  0  0
   -0.6400    0.9563   -1.3041 C   0  0  0  0  0  0  0  0  0  0  0  0
   -1.4881    1.9679   -2.0166 C   0  0  0  0  0  0  0  0  0  0  0  0
   -1.2198    2.2498   -3.3630 C   0  0  0  0  0  0  0  0  0  0  0  0
   -1.9856    3.1953   -4.0496 C   0  0  0  0  0  0  0  0  0  0  0  0
   -3.0120    3.8662   -3.3875 C   0  0  0  0  0  0  0  0  0  0  0  0
   -3.9564    5.0303   -4.2313 Cl  0  0  0  0  0  0  0  0  0  0  0  0
   -3.2757    3.6049   -2.0432 C   0  0  0  0  0  0  0  0  0  0  0  0
   -2.5108    2.6595   -1.3535 C   0  0  0  0  0  0  0  0  0  0  0  0
   -1.2825    0.0857   -0.2650 C   0  0  0  0  0  0  0  0  0  0  0  0
   -2.5272   -0.4837   -0.5839 C   0  0  0  0  0  0  0  0  0  0  0  0
   -3.2481   -1.2219    0.3565 C   0  0  0  0  0  0  0  0  0  0  0  0
   -4.4454   -1.7020   -0.0929 O   0  0  0  0  0  0  0  0  0  0  0  0
   -5.1997   -2.5078    0.8047 C   0  0  0  0  0  0  0  0  0  0  0  0
   -2.7174   -1.4028    1.6301 C   0  0  0  0  0  0  0  0  0  0  0  0
   -1.4671   -0.8645    1.9576 C   0  0  0  0  0  0  0  0  0  0  0  0
   -0.7367   -0.1255    1.0146 C   0  0  0  0  0  0  0  0  0  0  0  0
    0.5649    0.3318    1.3423 N   0  0  0  0  0  0  0  0  0  0  0  0
    1.0913    0.7380    2.5590 C   0  0  0  0  0  0  0  0  0  0  0  0
    0.3331    0.9761    3.8099 C   0  0  0  0  0  0  0  0  0  0  0  0
    2.3775    0.9890    2.4153 N   0  0  0  0  0  0  0  0  0  0  0  0
    2.7101    0.7929    1.1076 N   0  0  0  0  0  0  0  0  0  0  0  0
    1.6302    0.3939    0.4674 C   0  0  0  0  0  0  0  0  0  0  0  0
    5.2041   -3.7605    1.6662 H   0  0  0  0  0  0  0  0  0  0  0  0
    4.1107   -2.4297    2.0950 H   0  0  0  0  0  0  0  0  0  0  0  0
    3.7186   -3.4891    0.7349 H   0  0  0  0  0  0  0  0  0  0  0  0
    5.7327   -2.6443   -0.5038 H   0  0  0  0  0  0  0  0  0  0  0  0
    6.1264   -1.5841    0.8650 H   0  0  0  0  0  0  0  0  0  0  0  0
    4.3293   -0.1822    0.3599 H   0  0  0  0  0  0  0  0  0  0  0  0
    3.4102    0.9373   -1.4934 H   0  0  0  0  0  0  0  0  0  0  0  0
    2.6978   -0.0225   -2.7816 H   0  0  0  0  0  0  0  0  0  0  0  0
    1.1135   -1.0469   -1.0240 H   0  0  0  0  0  0  0  0  0  0  0  0
   -0.4135    1.7346   -3.8816 H   0  0  0  0  0  0  0  0  0  0  0  0
   -1.7721    3.4049   -5.0945 H   0  0  0  0  0  0  0  0  0  0  0  0
   -4.0692    4.1385   -1.5261 H   0  0  0  0  0  0  0  0  0  0  0  0
   -2.7166    2.4877   -0.3005 H   0  0  0  0  0  0  0  0  0  0  0  0
   -2.9552   -0.3562   -1.5774 H   0  0  0  0  0  0  0  0  0  0  0  0
   -4.6452   -3.4086    1.0879 H   0  0  0  0  0  0  0  0  0  0  0  0
   -5.5022   -1.9353    1.6877 H   0  0  0  0  0  0  0  0  0  0  0  0
   -6.1091   -2.8253    0.2855 H   0  0  0  0  0  0  0  0  0  0  0  0
   -3.2391   -1.9796    2.3882 H   0  0  0  0  0  0  0  0  0  0  0  0
   -1.0665   -1.0996    2.9399 H   0  0  0  0  0  0  0  0  0  0  0  0
    0.2525    0.0558    4.3953 H   0  0  0  0  0  0  0  0  0  0  0  0
   -0.6677    1.3705    3.6119 H   0  0  0  0  0  0  0  0  0  0  0  0
    0.8548    1.7141    4.4286 H   0  0  0  0  0  0  0  0  0  0  0  0
  1  2  1  0
  2  3  1  0
  3  4  1  0
  4  5  2  0
  4  6  1  0
  6  7  1  0
  7  8  1  0
  8  9  2  0
  9 10  1  0
 10 11  2  0
 11 12  1  0
 12 13  2  0
 13 14  1  0
 13 15  1  0
 15 16  2  0
  9 17  1  0
 17 18  2  0
 18 19  1  0
 19 20  1  0
 20 21  1  0
 19 22  2  0
 22 23  1  0
 23 24  2  0
 24 25  1  0
 25 26  1  0
 26 27  1  0
 26 28  2  0
 28 29  1  0
 29 30  2  0
 30  7  1  0
 16 10  1  0
 24 17  1  0
 30 25  1  0
  1 31  1  0
  1 32  1  0
  1 33  1  0
  2 34  1  0
  2 35  1  0
  3 36  1  0
  6 37  1  0
  6 38  1  0
  7 39  1  1
 11 40  1  0
 12 41  1  0
 15 42  1  0
 16 43  1  0
 18 44  1  0
 21 45  1  0
 21 46  1  0
 21 47  1  0
 22 48  1  0
 23 49  1  0
 27 50  1  0
 27 51  1  0
 27 52  1  0
M  END
>  <mol_id>  (1) 
57296

>  <source_index>  (1) 
5

>  <layer>  (1) 
L1

>  <uniprot>  (1) 
P51532

>  <paff>  (1) 
7.5228999999999999

>  <smiles>  (1) 
CCNC(=O)C[C@@H]1N=C(c2ccc(Cl)cc2)c2cc(OC)ccc2-n2c(C)nnc21

$$$$
