L1:P51532:78268


 23 25  0  0  0  0  0  0  0  0999 V2000
  -10.2459   -1.7314   23.9120 C   0  0  0  0  0  0  0  0  0  0  0  0
   -9.1981   -1.0204   23.3115 C   0  0  0  0  0  0  0  0  0  0  0  0
   -7.9445   -1.6023   23.1915 C   0  0  0  0  0  0  0  0  0  0  0  0
   -7.7356   -2.8482   23.6720 N   0  0  0  0  0  0  0  0  0  0  0  0
   -8.7593   -3.5559   24.2639 N   0  0  0  0  0  0  0  0  0  0  0  0
   -9.9851   -3.0143   24.3981 C   0  0  0  0  0  0  0  0  0  0  0  0
  -10.9497   -3.8063   25.0031 N   0  0  0  0  0  0  0  0  0  0  0  0
  -11.6148   -3.3488   25.6113 H   0  0  0  0  0  0  0  0  0  0  0  0
  -10.6028   -4.7129   25.2908 H   0  0  0  0  0  0  0  0  0  0  0  0
   -6.7735   -0.9324   22.5943 C   0  0  0  0  0  0  0  0  0  0  0  0
   -6.9557    0.2523   21.8506 C   0  0  0  0  0  0  0  0  0  0  0  0
   -5.8808    0.9245   21.2614 C   0  0  0  0  0  0  0  0  0  0  0  0
   -4.5896    0.4291   21.4053 C   0  0  0  0  0  0  0  0  0  0  0  0
   -4.3725   -0.7327   22.1421 C   0  0  0  0  0  0  0  0  0  0  0  0
   -5.4530   -1.4002   22.7309 C   0  0  0  0  0  0  0  0  0  0  0  0
   -5.1997   -2.5250   23.4724 O   0  0  0  0  0  0  0  0  0  0  0  0
   -4.2404   -2.6090   23.6017 H   0  0  0  0  0  0  0  0  0  0  0  0
  -14.5165    0.4989   22.7197 C   0  0  0  0  0  0  0  0  0  0  0  0
  -13.4416   -0.1319   23.4461 N   0  0  0  0  0  0  0  0  0  0  0  0
  -12.2725   -0.6133   22.9314 C   0  0  0  0  0  0  0  0  0  0  0  0
  -11.5622   -1.1215   24.0001 C   0  0  0  0  0  0  0  0  0  0  0  0
  -12.4057   -0.8991   25.1122 C   0  0  0  0  0  0  0  0  0  0  0  0
  -13.5440   -0.2847   24.7783 N   0  0  0  0  0  0  0  0  0  0  0  0
 18 19  1  0  0  0
 19 20  1  0  0  0
 20 21  2  0  0  0
 21  1  1  0  0  0
  1  2  2  0  0  0
  2  3  1  0  0  0
  3 10  1  0  0  0
 10 11  2  0  0  0
 11 12  1  0  0  0
 12 13  2  0  0  0
 13 14  1  0  0  0
 14 15  2  0  0  0
 15 16  1  0  0  0
  3  4  2  0  0  0
  4  5  1  0  0  0
  5  6  2  0  0  0
  6  7  1  0  0  0
 21 22  1  0  0  0
 22 23  2  0  0  0
 23 19  1  0  0  0
  6  1  1  0  0  0
 15 10  1  0  0  0
 16 17  1  0  0  0
  7  8  1  0  0  0
  7  9  1  0  0  0
M  END
> <minimizedAffinity>
-8.97989

$$$$
