L1:P51532:78268
     RDKit          3D

 33 35  0  0  0  0  0  0  0  0999 V2000
   -4.9106    1.9720    0.0457 C   0  0  0  0  0  0  0  0  0  0  0  0
   -3.9926    0.9337   -0.3544 N   0  0  0  0  0  0  0  0  0  0  0  0
   -2.7691    0.6640    0.1875 C   0  0  0  0  0  0  0  0  0  0  0  0
   -2.2647   -0.4103   -0.5171 C   0  0  0  0  0  0  0  0  0  0  0  0
   -0.9786   -1.0403   -0.2693 C   0  0  0  0  0  0  0  0  0  0  0  0
    0.1529   -0.2374   -0.0720 C   0  0  0  0  0  0  0  0  0  0  0  0
    1.3928   -0.8249    0.1336 C   0  0  0  0  0  0  0  0  0  0  0  0
    2.6385   -0.0705    0.3695 C   0  0  0  0  0  0  0  0  0  0  0  0
    3.5686   -0.5450    1.3180 C   0  0  0  0  0  0  0  0  0  0  0  0
    4.7623    0.1332    1.5818 C   0  0  0  0  0  0  0  0  0  0  0  0
    5.0598    1.3063    0.8973 C   0  0  0  0  0  0  0  0  0  0  0  0
    4.1685    1.7975   -0.0536 C   0  0  0  0  0  0  0  0  0  0  0  0
    2.9756    1.1128   -0.3142 C   0  0  0  0  0  0  0  0  0  0  0  0
    2.1348    1.6093   -1.2763 O   0  0  0  0  0  0  0  0  0  0  0  0
    1.4995   -2.1720    0.1604 N   0  0  0  0  0  0  0  0  0  0  0  0
    0.3930   -2.9704   -0.0328 N   0  0  0  0  0  0  0  0  0  0  0  0
   -0.8237   -2.4276   -0.2298 C   0  0  0  0  0  0  0  0  0  0  0  0
   -1.8742   -3.3133   -0.4187 N   0  0  0  0  0  0  0  0  0  0  0  0
   -3.2689   -0.7013   -1.4683 C   0  0  0  0  0  0  0  0  0  0  0  0
   -4.3269    0.1074   -1.3615 N   0  0  0  0  0  0  0  0  0  0  0  0
   -5.0844    2.6274   -0.8114 H   0  0  0  0  0  0  0  0  0  0  0  0
   -4.4771    2.5432    0.8702 H   0  0  0  0  0  0  0  0  0  0  0  0
   -5.8436    1.5022    0.3670 H   0  0  0  0  0  0  0  0  0  0  0  0
   -2.3745    1.2400    1.0130 H   0  0  0  0  0  0  0  0  0  0  0  0
    0.0642    0.8441   -0.0899 H   0  0  0  0  0  0  0  0  0  0  0  0
    3.3606   -1.4637    1.8665 H   0  0  0  0  0  0  0  0  0  0  0  0
    5.4563   -0.2608    2.3200 H   0  0  0  0  0  0  0  0  0  0  0  0
    5.9881    1.8339    1.1006 H   0  0  0  0  0  0  0  0  0  0  0  0
    4.4186    2.7120   -0.5833 H   0  0  0  0  0  0  0  0  0  0  0  0
    2.5897    2.3206   -1.7572 H   0  0  0  0  0  0  0  0  0  0  0  0
   -2.7697   -3.0669   -0.0200 H   0  0  0  0  0  0  0  0  0  0  0  0
   -1.5944   -4.2851   -0.3699 H   0  0  0  0  0  0  0  0  0  0  0  0
   -3.2706   -1.4701   -2.2313 H   0  0  0  0  0  0  0  0  0  0  0  0
  1  2  1  0
  2  3  1  0
  3  4  2  0
  4  5  1  0
  5  6  2  0
  6  7  1  0
  7  8  1  0
  8  9  2  0
  9 10  1  0
 10 11  2  0
 11 12  1  0
 12 13  2  0
 13 14  1  0
  7 15  2  0
 15 16  1  0
 16 17  2  0
 17 18  1  0
  4 19  1  0
 19 20  2  0
 20  2  1  0
 17  5  1  0
 13  8  1  0
  1 21  1  0
  1 22  1  0
  1 23  1  0
  3 24  1  0
  6 25  1  0
  9 26  1  0
 10 27  1  0
 11 28  1  0
 12 29  1  0
 14 30  1  0
 18 31  1  0
 18 32  1  0
 19 33  1  0
M  END
>  <mol_id>  (1) 
78268

>  <source_index>  (1) 
6

>  <layer>  (1) 
L1

>  <uniprot>  (1) 
P51532

>  <paff>  (1) 
7.8928000000000003

>  <smiles>  (1) 
Cn1cc(-c2cc(-c3ccccc3O)nnc2N)cn1

$$$$
