L1:P51532:93381
 OpenBabel09212617503D

 51 53  0  0  0  0  0  0  0  0999 V2000
  -10.7558   -0.4210   21.9174 C   0  0  2  0  0  0  0  0  0  0  0  0
   -9.3144   -0.3939   22.1000 N   0  0  0  0  0  0  0  0  0  0  0  0
   -8.5266   -1.4917   21.8465 C   0  0  0  0  0  0  0  0  0  0  0  0
   -8.9790   -2.5384   21.3930 O   0  0  0  0  0  0  0  0  0  0  0  0
   -8.9157    0.4840   22.4156 H   0  0  0  0  0  0  0  0  0  0  0  0
   -7.0672   -1.3526   22.1113 C   0  0  0  0  0  0  0  0  0  0  0  0
   -6.3327   -0.2303   21.7153 C   0  0  0  0  0  0  0  0  0  0  0  0
   -4.9625   -0.1548   21.9938 C   0  0  0  0  0  0  0  0  0  0  0  0
   -4.3072   -1.1906   22.6631 C   0  0  0  0  0  0  0  0  0  0  0  0
   -2.9609   -1.0957   22.9597 N   0  0  0  0  0  0  0  0  0  0  0  0
   -5.0513   -2.2947   23.0818 C   0  0  0  0  0  0  0  0  0  0  0  0
   -6.4207   -2.3788   22.8092 C   0  0  0  0  0  0  0  0  0  0  0  0
   -2.4114   -0.3245   22.6072 H   0  0  0  0  0  0  0  0  0  0  0  0
   -2.4773   -1.8693   23.3945 H   0  0  0  0  0  0  0  0  0  0  0  0
  -11.2018    0.8479   21.1607 C   0  0  0  0  0  0  0  0  0  0  0  0
  -11.1046    1.9568   21.6819 O   0  0  0  0  0  0  0  0  0  0  0  0
  -11.7362    0.5580   19.9239 N   0  0  0  0  0  0  0  0  0  0  0  0
  -11.7299   -0.3930   19.5805 H   0  0  0  0  0  0  0  0  0  0  0  0
  -12.2797    1.4392   19.0266 C   0  0  0  0  0  0  0  0  0  0  0  0
  -11.5071    2.1679   18.2577 N   0  0  0  0  0  0  0  0  0  0  0  0
  -12.2801    2.9863   17.4414 C   0  0  0  0  0  0  0  0  0  0  0  0
  -13.6431    2.8271   17.6073 C   0  0  0  0  0  0  0  0  0  0  0  0
  -13.9527    1.6515   18.8165 S   0  0  0  0  0  0  0  0  0  0  0  0
  -11.6572    3.9048   16.4895 C   0  0  0  0  0  0  0  0  0  0  0  0
  -10.8004    4.9103   16.9637 C   0  0  0  0  0  0  0  0  0  0  0  0
  -10.1867    5.8057   16.0835 C   0  0  0  0  0  0  0  0  0  0  0  0
  -10.4249    5.7100   14.7152 C   0  0  0  0  0  0  0  0  0  0  0  0
  -11.2781    4.7230   14.2277 C   0  0  0  0  0  0  0  0  0  0  0  0
  -11.8921    3.8263   15.1085 C   0  0  0  0  0  0  0  0  0  0  0  0
  -11.5239   -0.5950   23.2407 C   0  0  0  0  0  0  0  0  0  0  0  0
  -12.2354   -1.9374   23.4551 C   0  0  0  0  0  0  0  0  0  0  0  0
  -10.1103   -3.1698   24.6942 C   0  0  0  0  0  0  0  0  0  0  0  0
  -11.8332   -2.7397   25.0382 S   0  0  0  0  0  0  0  0  0  0  0  0
  -10.9975   -1.2831   21.3315 H   0  0  0  0  0  0  0  0  0  0  0  0
   -6.8010    0.5429   21.2174 H   0  0  0  0  0  0  0  0  0  0  0  0
   -4.4291    0.6784   21.7002 H   0  0  0  0  0  0  0  0  0  0  0  0
   -4.5860   -3.0575   23.5982 H   0  0  0  0  0  0  0  0  0  0  0  0
   -6.9571   -3.2021   23.1245 H   0  0  0  0  0  0  0  0  0  0  0  0
  -14.3675    3.3401   17.0810 H   0  0  0  0  0  0  0  0  0  0  0  0
  -10.6210    4.9896   17.9769 H   0  0  0  0  0  0  0  0  0  0  0  0
   -9.5570    6.5377   16.4478 H   0  0  0  0  0  0  0  0  0  0  0  0
   -9.9704    6.3688   14.0637 H   0  0  0  0  0  0  0  0  0  0  0  0
  -11.4578    4.6530   13.2139 H   0  0  0  0  0  0  0  0  0  0  0  0
  -12.5245    3.0994   14.7386 H   0  0  0  0  0  0  0  0  0  0  0  0
  -10.8244   -0.4678   24.0403 H   0  0  0  0  0  0  0  0  0  0  0  0
  -12.3057    0.1349   23.2092 H   0  0  0  0  0  0  0  0  0  0  0  0
  -13.2914   -1.7682   23.4217 H   0  0  0  0  0  0  0  0  0  0  0  0
  -11.9002   -2.5942   22.6798 H   0  0  0  0  0  0  0  0  0  0  0  0
   -9.6908   -3.6681   25.5431 H   0  0  0  0  0  0  0  0  0  0  0  0
   -9.5536   -2.2785   24.4926 H   0  0  0  0  0  0  0  0  0  0  0  0
  -10.0673   -3.8172   23.8434 H   0  0  0  0  0  0  0  0  0  0  0  0
  1  2  1  0  0  0  0
  1 15  1  0  0  0  0
  1 34  1  6  0  0  0
  2  3  1  0  0  0  0
  2  5  1  0  0  0  0
  3  4  2  0  0  0  0
  3  6  1  0  0  0  0
  6  7  2  0  0  0  0
  7  8  1  0  0  0  0
  7 35  1  0  0  0  0
  8  9  2  0  0  0  0
  8 36  1  0  0  0  0
  9 10  1  0  0  0  0
  9 11  1  0  0  0  0
 10 13  1  0  0  0  0
 10 14  1  0  0  0  0
 11 12  2  0  0  0  0
 11 37  1  0  0  0  0
 12  6  1  0  0  0  0
 12 38  1  0  0  0  0
 15 16  2  0  0  0  0
 15 17  1  0  0  0  0
 17 19  1  0  0  0  0
 17 18  1  0  0  0  0
 19 20  2  0  0  0  0
 20 21  1  0  0  0  0
 21 24  1  0  0  0  0
 21 22  2  0  0  0  0
 22 23  1  0  0  0  0
 22 39  1  0  0  0  0
 23 19  1  0  0  0  0
 24 25  2  0  0  0  0
 25 26  1  0  0  0  0
 25 40  1  0  0  0  0
 26 27  2  0  0  0  0
 26 41  1  0  0  0  0
 27 28  1  0  0  0  0
 27 42  1  0  0  0  0
 28 29  2  0  0  0  0
 28 43  1  0  0  0  0
 29 24  1  0  0  0  0
 29 44  1  0  0  0  0
 30  1  1  0  0  0  0
 30 45  1  0  0  0  0
 30 46  1  0  0  0  0
 31 30  1  0  0  0  0
 31 47  1  0  0  0  0
 31 48  1  0  0  0  0
 32 33  1  0  0  0  0
 32 49  1  0  0  0  0
 32 50  1  0  0  0  0
 32 51  1  0  0  0  0
 33 31  1  0  0  0  0
M  END
>  <minimizedAffinity>
-7.76801

$$$$
