cdk8_000
     RDKit          3D

 48 52  0  0  1  0  0  0  0  0999 V2000
   -6.4700   12.8233  -12.2233 C   0  0  0  0  0  0  0  0  0  0  0  0
   -6.4889   12.3382  -10.9279 C   0  0  0  0  0  0  0  0  0  0  0  0
   -8.1313   11.1762  -12.9069 C   0  0  0  0  0  0  0  0  0  0  0  0
   -7.3929   12.3007  -13.1623 C   0  0  0  0  0  0  0  0  0  0  0  0
   -7.8925   10.5157  -11.6990 C   0  0  0  0  0  0  0  0  0  0  0  0
   -7.1426   11.1308  -10.6707 C   0  0  0  0  0  0  0  0  0  0  0  0
   -7.2456   10.2321   -9.5692 C   0  0  0  0  0  0  0  0  0  0  0  0
   -7.9143    9.1441   -9.9152 N   0  0  0  0  0  0  0  0  0  0  0  0
   -8.2842    9.3092  -11.2154 N   0  0  0  0  0  0  0  0  0  0  0  0
   -6.7677   10.4612   -8.1840 C   0  0  0  0  0  0  0  0  0  0  0  0
   -4.4283   14.1367  -11.9620 N   0  0  0  0  0  0  0  0  0  0  0  0
   -5.5184   13.8407  -12.7196 C   0  0  0  0  0  0  0  0  0  0  0  0
   -5.7171   14.4126  -13.8002 O   0  0  0  0  0  0  0  0  0  0  0  0
   -5.4453   11.1817   -8.0761 C   0  0  0  0  0  0  0  0  0  0  0  0
   -5.3347   12.3991   -7.4388 C   0  0  0  0  0  0  0  0  0  0  0  0
   -4.0664   12.8254   -7.0164 C   0  0  0  0  0  0  0  0  0  0  0  0
   -2.9215   12.1219   -7.4463 C   0  0  0  0  0  0  0  0  0  0  0  0
   -3.0199   11.0192   -8.2889 C   0  0  0  0  0  0  0  0  0  0  0  0
   -4.2832   10.5586   -8.5741 C   0  0  0  0  0  0  0  0  0  0  0  0
   -3.5562   13.8165   -6.1392 C   0  0  0  0  0  0  0  0  0  0  0  0
   -2.2387   13.7429   -6.0464 N   0  0  0  0  0  0  0  0  0  0  0  0
   -1.8475   12.7210   -6.8490 N   0  0  0  0  0  0  0  0  0  0  0  0
   -0.5113   12.1995   -6.7539 C   0  0  0  0  0  0  0  0  0  0  0  0
   -3.7613   13.2718  -10.9959 C   0  0  0  0  0  0  0  0  0  0  0  0
   -2.2881   13.5536  -11.2351 C   0  0  0  0  0  0  0  0  0  0  0  0
   -2.2134   14.9879  -11.7052 C   0  0  0  0  0  0  0  0  0  0  0  0
   -3.5530   15.2402  -12.3892 C   0  0  0  0  0  0  0  0  0  0  0  0
   -1.8238   12.6555  -12.1814 F   0  0  0  0  0  0  0  0  0  0  0  0
   -1.5306   13.3377  -10.1148 F   0  0  0  0  0  0  0  0  0  0  0  0
   -6.0158   12.8795  -10.1272 H   0  0  0  0  0  0  0  0  0  0  0  0
   -8.8384   10.8013  -13.6189 H   0  0  0  0  0  0  0  0  0  0  0  0
   -7.4912   12.8200  -14.1048 H   0  0  0  0  0  0  0  0  0  0  0  0
   -8.8877    8.6207  -11.6442 H   0  0  0  0  0  0  0  0  0  0  0  0
   -7.5275   11.0332   -7.6484 H   0  0  0  0  0  0  0  0  0  0  0  0
   -6.7193    9.5014   -7.6766 H   0  0  0  0  0  0  0  0  0  0  0  0
   -6.2101   13.0118   -7.2792 H   0  0  0  0  0  0  0  0  0  0  0  0
   -2.1393   10.5255   -8.6679 H   0  0  0  0  0  0  0  0  0  0  0  0
   -4.4032    9.6659   -9.1655 H   0  0  0  0  0  0  0  0  0  0  0  0
   -4.0859   14.5017   -5.5089 H   0  0  0  0  0  0  0  0  0  0  0  0
    0.1509   13.0078   -6.4564 H   0  0  0  0  0  0  0  0  0  0  0  0
   -0.2109   11.7877   -7.7132 H   0  0  0  0  0  0  0  0  0  0  0  0
   -0.4543   11.4027   -6.0110 H   0  0  0  0  0  0  0  0  0  0  0  0
   -4.0113   13.5517   -9.9751 H   0  0  0  0  0  0  0  0  0  0  0  0
   -3.9908   12.2238  -11.1443 H   0  0  0  0  0  0  0  0  0  0  0  0
   -2.1130   15.6146  -10.8232 H   0  0  0  0  0  0  0  0  0  0  0  0
   -1.3648   15.1746  -12.3560 H   0  0  0  0  0  0  0  0  0  0  0  0
   -3.4705   15.2307  -13.4679 H   0  0  0  0  0  0  0  0  0  0  0  0
   -4.0076   16.1885  -12.1178 H   0  0  0  0  0  0  0  0  0  0  0  0
  1  2  2  0
  1  4  1  0
  1 12  1  0
  2  6  1  0
  2 30  1  0
  3  4  2  0
  3  5  1  0
  3 31  1  0
  4 32  1  0
  5  6  2  0
  5  9  1  0
  6  7  1  0
  7  8  2  0
  7 10  1  0
  8  9  1  0
  9 33  1  0
 10 14  1  0
 10 34  1  0
 10 35  1  0
 11 12  1  0
 11 24  1  0
 11 27  1  0
 12 13  2  0
 14 15  2  0
 14 19  1  0
 15 16  1  0
 15 36  1  0
 16 17  2  0
 16 20  1  0
 17 18  1  0
 17 22  1  0
 18 19  2  0
 18 37  1  0
 19 38  1  0
 20 21  2  0
 20 39  1  0
 21 22  1  0
 22 23  1  0
 23 40  1  0
 23 41  1  0
 23 42  1  0
 24 25  1  0
 24 43  1  0
 24 44  1  0
 25 26  1  0
 25 28  1  0
 25 29  1  0
 26 27  1  0
 26 45  1  0
 26 46  1  0
 27 47  1  0
 27 48  1  0
M  END
>  <r_exp_dg>  (1) 
-11.938

>  <mol_id>  (1) 
0

>  <source_index>  (1) 
0

>  <paff>  (1) 
8.7521635542167591

>  <source_r_exp_dg>  (1) 
-11.938000000000001

>  <smiles>  (1) 
Cn1ncc2cc(Cc3n[nH]c4ccc(C(=O)N5CCC(F)(F)C5)cc34)ccc21

>  <aimnet_interaction_kcal_mol>  (1) 
-53.854209237674958

$$$$
cdk8_001
     RDKit          3D

 48 52  0  0  1  0  0  0  0  0999 V2000
   -6.0696   12.7109  -12.1404 C   0  0  0  0  0  0  0  0  0  0  0  0
   -6.0902   12.0537  -10.9198 C   0  0  0  0  0  0  0  0  0  0  0  0
   -7.8846   11.3067  -12.9791 C   0  0  0  0  0  0  0  0  0  0  0  0
   -7.0272   12.3640  -13.1265 C   0  0  0  0  0  0  0  0  0  0  0  0
   -7.7542   10.5239  -11.8288 C   0  0  0  0  0  0  0  0  0  0  0  0
   -6.9194   10.9388  -10.7607 C   0  0  0  0  0  0  0  0  0  0  0  0
   -7.1558    9.9645   -9.7446 C   0  0  0  0  0  0  0  0  0  0  0  0
   -7.9774    9.0248  -10.1775 N   0  0  0  0  0  0  0  0  0  0  0  0
   -8.3242    9.3505  -11.4402 N   0  0  0  0  0  0  0  0  0  0  0  0
   -6.6267    9.9001   -8.3632 C   0  0  0  0  0  0  0  0  0  0  0  0
   -5.1249   13.7714  -12.4319 C   0  0  0  0  0  0  0  0  0  0  0  0
   -5.5161   10.8649   -8.0543 C   0  0  0  0  0  0  0  0  0  0  0  0
   -5.7135   11.9364   -7.1984 C   0  0  0  0  0  0  0  0  0  0  0  0
   -4.6532   12.6642   -6.6904 C   0  0  0  0  0  0  0  0  0  0  0  0
   -3.3452   12.3768   -7.0797 C   0  0  0  0  0  0  0  0  0  0  0  0
   -3.1676   11.4023   -8.0657 C   0  0  0  0  0  0  0  0  0  0  0  0
   -4.2359   10.6797   -8.5582 C   0  0  0  0  0  0  0  0  0  0  0  0
   -2.2017   13.0132   -6.4456 C   0  0  0  0  0  0  0  0  0  0  0  0
   -2.1238   13.5449   -5.1679 C   0  0  0  0  0  0  0  0  0  0  0  0
   -0.8416   13.9455   -4.9887 N   0  0  0  0  0  0  0  0  0  0  0  0
   -0.0741   13.7183   -6.0755 N   0  0  0  0  0  0  0  0  0  0  0  0
   -0.8976   13.1553   -6.9585 C   0  0  0  0  0  0  0  0  0  0  0  0
   -0.2284   14.4303   -3.7729 C   0  0  0  0  0  0  0  0  0  0  0  0
   -3.8213   13.7993  -11.9990 N   0  0  0  0  0  0  0  0  0  0  0  0
   -3.2951   15.0089  -12.3784 C   0  0  0  0  0  0  0  0  0  0  0  0
   -4.2885   15.6591  -13.0511 C   0  0  0  0  0  0  0  0  0  0  0  0
   -5.4134   14.8820  -13.1113 N   0  0  0  0  0  0  0  0  0  0  0  0
   -3.0536   12.7367  -11.3767 C   0  0  0  0  0  0  0  0  0  0  0  0
   -5.4767   12.4055  -10.1088 H   0  0  0  0  0  0  0  0  0  0  0  0
   -8.6060   11.0788  -13.7376 H   0  0  0  0  0  0  0  0  0  0  0  0
   -7.0677   12.9847  -14.0112 H   0  0  0  0  0  0  0  0  0  0  0  0
   -8.9934    8.7539  -11.9054 H   0  0  0  0  0  0  0  0  0  0  0  0
   -6.2935    8.8815   -8.1840 H   0  0  0  0  0  0  0  0  0  0  0  0
   -7.4474   10.0356   -7.6591 H   0  0  0  0  0  0  0  0  0  0  0  0
   -6.7225   12.1875   -6.9233 H   0  0  0  0  0  0  0  0  0  0  0  0
   -4.8342   13.4484   -5.9684 H   0  0  0  0  0  0  0  0  0  0  0  0
   -2.1713   11.1822   -8.4206 H   0  0  0  0  0  0  0  0  0  0  0  0
   -4.0752    9.9423   -9.3240 H   0  0  0  0  0  0  0  0  0  0  0  0
   -2.8713   13.6712   -4.4050 H   0  0  0  0  0  0  0  0  0  0  0  0
   -0.5329   12.8609   -7.9279 H   0  0  0  0  0  0  0  0  0  0  0  0
    0.2606   13.6218   -3.2313 H   0  0  0  0  0  0  0  0  0  0  0  0
   -0.9946   14.8681   -3.1401 H   0  0  0  0  0  0  0  0  0  0  0  0
    0.5117   15.1791   -4.0342 H   0  0  0  0  0  0  0  0  0  0  0  0
   -2.2689   15.2784  -12.2121 H   0  0  0  0  0  0  0  0  0  0  0  0
   -4.2239   16.6428  -13.4806 H   0  0  0  0  0  0  0  0  0  0  0  0
   -2.0413   12.7387  -11.7770 H   0  0  0  0  0  0  0  0  0  0  0  0
   -3.5182   11.7832  -11.6015 H   0  0  0  0  0  0  0  0  0  0  0  0
   -3.0067   12.8555  -10.2938 H   0  0  0  0  0  0  0  0  0  0  0  0
  1  2  2  0
  1  4  1  0
  1 11  1  0
  2  6  1  0
  2 29  1  0
  3  4  2  0
  3  5  1  0
  3 30  1  0
  4 31  1  0
  5  6  2  0
  5  9  1  0
  6  7  1  0
  7  8  2  0
  7 10  1  0
  8  9  1  0
  9 32  1  0
 10 12  1  0
 10 33  1  0
 10 34  1  0
 11 24  1  0
 11 27  2  0
 12 13  2  0
 12 17  1  0
 13 14  1  0
 13 35  1  0
 14 15  2  0
 14 36  1  0
 15 16  1  0
 15 18  1  0
 16 17  2  0
 16 37  1  0
 17 38  1  0
 18 19  2  0
 18 22  1  0
 19 20  1  0
 19 39  1  0
 20 21  1  0
 20 23  1  0
 21 22  2  0
 22 40  1  0
 23 41  1  0
 23 42  1  0
 23 43  1  0
 24 25  1  0
 24 28  1  0
 25 26  2  0
 25 44  1  0
 26 27  1  0
 26 45  1  0
 28 46  1  0
 28 47  1  0
 28 48  1  0
M  END
>  <r_exp_dg>  (2) 
-10.2855

>  <mol_id>  (2) 
1

>  <source_index>  (2) 
3

>  <paff>  (2) 
7.5406804462332175

>  <source_r_exp_dg>  (2) 
-10.285500000000001

>  <smiles>  (2) 
Cn1cc(-c2ccc(Cc3n[nH]c4ccc(-c5nccn5C)cc34)cc2)cn1

>  <aimnet_interaction_kcal_mol>  (2) 
-59.397769886099148

$$$$
cdk8_002
     RDKit          3D

 53 57  0  0  1  0  0  0  0  0999 V2000
   -6.4753   12.7546  -12.1266 C   0  0  0  0  0  0  0  0  0  0  0  0
   -6.5285   12.1996  -10.8627 C   0  0  0  0  0  0  0  0  0  0  0  0
   -8.1457   11.1728  -12.9323 C   0  0  0  0  0  0  0  0  0  0  0  0
   -7.3737   12.2883  -13.1158 C   0  0  0  0  0  0  0  0  0  0  0  0
   -7.9728   10.4578  -11.7452 C   0  0  0  0  0  0  0  0  0  0  0  0
   -7.2279   11.0050  -10.6722 C   0  0  0  0  0  0  0  0  0  0  0  0
   -7.3962   10.0644   -9.6142 C   0  0  0  0  0  0  0  0  0  0  0  0
   -8.0925    9.0204  -10.0282 N   0  0  0  0  0  0  0  0  0  0  0  0
   -8.4249    9.2479  -11.3230 N   0  0  0  0  0  0  0  0  0  0  0  0
   -6.9380   10.1790   -8.2092 C   0  0  0  0  0  0  0  0  0  0  0  0
   -4.4192   14.0301  -11.7758 N   0  0  0  0  0  0  0  0  0  0  0  0
   -5.5298   13.8254  -12.5269 C   0  0  0  0  0  0  0  0  0  0  0  0
   -5.7539   14.5211  -13.5277 O   0  0  0  0  0  0  0  0  0  0  0  0
   -5.6952   11.0115   -8.0302 C   0  0  0  0  0  0  0  0  0  0  0  0
   -4.4611   10.5617   -8.4779 C   0  0  0  0  0  0  0  0  0  0  0  0
   -3.2942   11.2056   -8.1144 C   0  0  0  0  0  0  0  0  0  0  0  0
   -3.3175   12.2817   -7.2224 C   0  0  0  0  0  0  0  0  0  0  0  0
   -4.5641   12.8290   -6.9155 C   0  0  0  0  0  0  0  0  0  0  0  0
   -5.7268   12.2392   -7.3796 C   0  0  0  0  0  0  0  0  0  0  0  0
   -2.0994   12.7588   -6.5867 C   0  0  0  0  0  0  0  0  0  0  0  0
   -1.9576   13.3805   -5.3537 C   0  0  0  0  0  0  0  0  0  0  0  0
   -0.6262   13.5456   -5.1493 N   0  0  0  0  0  0  0  0  0  0  0  0
    0.1099   13.0872   -6.1854 N   0  0  0  0  0  0  0  0  0  0  0  0
   -0.7807   12.6026   -7.0507 C   0  0  0  0  0  0  0  0  0  0  0  0
    0.0560   14.0775   -3.9896 C   0  0  0  0  0  0  0  0  0  0  0  0
   -3.7764   13.1391  -10.8092 C   0  0  0  0  0  0  0  0  0  0  0  0
   -2.3059   13.5150  -10.8777 C   0  0  2  0  0  0  0  0  0  0  0  0
   -2.3616   15.0079  -11.1666 C   0  0  0  0  0  0  0  0  0  0  0  0
   -3.5628   15.1747  -12.0900 C   0  0  0  0  0  0  0  0  0  0  0  0
   -1.6608   12.7677  -11.9010 O   0  0  0  0  0  0  0  0  0  0  0  0
   -6.0430   12.6782  -10.0324 H   0  0  0  0  0  0  0  0  0  0  0  0
   -8.8242   10.8385  -13.6884 H   0  0  0  0  0  0  0  0  0  0  0  0
   -7.4273   12.8496  -14.0366 H   0  0  0  0  0  0  0  0  0  0  0  0
   -9.0568    8.5945  -11.7710 H   0  0  0  0  0  0  0  0  0  0  0  0
   -7.7450   10.6053   -7.6104 H   0  0  0  0  0  0  0  0  0  0  0  0
   -6.7908    9.1787   -7.8116 H   0  0  0  0  0  0  0  0  0  0  0  0
   -4.4139    9.6745   -9.0887 H   0  0  0  0  0  0  0  0  0  0  0  0
   -2.3475   10.8343   -8.4794 H   0  0  0  0  0  0  0  0  0  0  0  0
   -4.6134   13.7040   -6.2803 H   0  0  0  0  0  0  0  0  0  0  0  0
   -6.6753   12.7360   -7.2562 H   0  0  0  0  0  0  0  0  0  0  0  0
   -2.6936   13.7053   -4.6363 H   0  0  0  0  0  0  0  0  0  0  0  0
   -0.4470   12.1424   -7.9636 H   0  0  0  0  0  0  0  0  0  0  0  0
   -0.6813   14.4297   -3.2750 H   0  0  0  0  0  0  0  0  0  0  0  0
    0.7017   14.8956   -4.2980 H   0  0  0  0  0  0  0  0  0  0  0  0
    0.6637   13.3041   -3.5244 H   0  0  0  0  0  0  0  0  0  0  0  0
   -4.1538   13.3217   -9.8048 H   0  0  0  0  0  0  0  0  0  0  0  0
   -3.9321   12.0958  -11.0582 H   0  0  0  0  0  0  0  0  0  0  0  0
   -1.7909   13.2858   -9.9491 H   0  0  0  0  0  0  0  0  0  0  0  0
   -2.5225   15.5427  -10.2324 H   0  0  0  0  0  0  0  0  0  0  0  0
   -1.4426   15.3744  -11.6119 H   0  0  0  0  0  0  0  0  0  0  0  0
   -3.2820   15.1552  -13.1402 H   0  0  0  0  0  0  0  0  0  0  0  0
   -4.1196   16.0942  -11.9424 H   0  0  0  0  0  0  0  0  0  0  0  0
   -1.7102   13.2953  -12.7108 H   0  0  0  0  0  0  0  0  0  0  0  0
  1  2  2  0
  1  4  1  0
  1 12  1  0
  2  6  1  0
  2 31  1  0
  3  4  2  0
  3  5  1  0
  3 32  1  0
  4 33  1  0
  5  6  2  0
  5  9  1  0
  6  7  1  0
  7  8  2  0
  7 10  1  0
  8  9  1  0
  9 34  1  0
 10 14  1  0
 10 35  1  0
 10 36  1  0
 11 12  1  0
 11 26  1  0
 11 29  1  0
 12 13  2  0
 14 15  2  0
 14 19  1  0
 15 16  1  0
 15 37  1  0
 16 17  2  0
 16 38  1  0
 17 18  1  0
 17 20  1  0
 18 19  2  0
 18 39  1  0
 19 40  1  0
 20 21  2  0
 20 24  1  0
 21 22  1  0
 21 41  1  0
 22 23  1  0
 22 25  1  0
 23 24  2  0
 24 42  1  0
 25 43  1  0
 25 44  1  0
 25 45  1  0
 26 27  1  0
 26 46  1  0
 26 47  1  0
 27 28  1  0
 27 30  1  0
 27 48  1  1
 28 29  1  0
 28 49  1  0
 28 50  1  0
 29 51  1  0
 29 52  1  0
 30 53  1  0
M  END
>  <r_exp_dg>  (3) 
-11.6963

>  <mol_id>  (3) 
2

>  <source_index>  (3) 
5

>  <paff>  (3) 
8.5749954771785788

>  <source_r_exp_dg>  (3) 
-11.696300000000001

>  <smiles>  (3) 
Cn1cc(-c2ccc(Cc3n[nH]c4ccc(C(=O)N5CC[C@H](O)C5)cc34)cc2)cn1

>  <aimnet_interaction_kcal_mol>  (3) 
-63.00924049607827

$$$$
cdk8_003
     RDKit          3D

 48 52  0  0  1  0  0  0  0  0999 V2000
   -6.2455   12.7813  -12.0101 C   0  0  0  0  0  0  0  0  0  0  0  0
   -6.3470   12.1605  -10.7757 C   0  0  0  0  0  0  0  0  0  0  0  0
   -7.9538   11.3016  -12.9325 C   0  0  0  0  0  0  0  0  0  0  0  0
   -7.1323   12.3956  -13.0448 C   0  0  0  0  0  0  0  0  0  0  0  0
   -7.8520   10.5289  -11.7707 C   0  0  0  0  0  0  0  0  0  0  0  0
   -7.0978   10.9871  -10.6634 C   0  0  0  0  0  0  0  0  0  0  0  0
   -7.2996    9.9888   -9.6684 C   0  0  0  0  0  0  0  0  0  0  0  0
   -8.0470    9.0038  -10.1389 N   0  0  0  0  0  0  0  0  0  0  0  0
   -8.3672    9.3188  -11.4121 N   0  0  0  0  0  0  0  0  0  0  0  0
   -6.7788    9.9341   -8.2831 C   0  0  0  0  0  0  0  0  0  0  0  0
   -5.1847   13.7466  -12.2481 C   0  0  0  0  0  0  0  0  0  0  0  0
   -5.6250   10.8509   -7.9871 C   0  0  0  0  0  0  0  0  0  0  0  0
   -5.7047   11.8093   -6.9885 C   0  0  0  0  0  0  0  0  0  0  0  0
   -4.6017   12.5424   -6.5901 C   0  0  0  0  0  0  0  0  0  0  0  0
   -3.3532   12.3191   -7.1701 C   0  0  0  0  0  0  0  0  0  0  0  0
   -3.3011   11.4388   -8.2560 C   0  0  0  0  0  0  0  0  0  0  0  0
   -4.4145   10.7300   -8.6578 C   0  0  0  0  0  0  0  0  0  0  0  0
   -2.1426   12.8965   -6.6072 C   0  0  0  0  0  0  0  0  0  0  0  0
   -1.9545   13.4176   -5.3345 C   0  0  0  0  0  0  0  0  0  0  0  0
   -0.6363   13.7185   -5.2234 N   0  0  0  0  0  0  0  0  0  0  0  0
    0.0484   13.4411   -6.3535 N   0  0  0  0  0  0  0  0  0  0  0  0
   -0.8627   12.9484   -7.1919 C   0  0  0  0  0  0  0  0  0  0  0  0
    0.0926   14.1493   -4.0500 C   0  0  0  0  0  0  0  0  0  0  0  0
   -4.0011   13.8297  -11.5540 C   0  0  0  0  0  0  0  0  0  0  0  0
   -3.2843   14.8377  -12.1387 N   0  0  0  0  0  0  0  0  0  0  0  0
   -4.0462   15.3385  -13.1550 C   0  0  0  0  0  0  0  0  0  0  0  0
   -5.2026   14.7026  -13.2501 N   0  0  0  0  0  0  0  0  0  0  0  0
   -1.9389   15.2151  -11.7465 C   0  0  0  0  0  0  0  0  0  0  0  0
   -5.8287   12.5697   -9.9261 H   0  0  0  0  0  0  0  0  0  0  0  0
   -8.6191   11.0372  -13.7295 H   0  0  0  0  0  0  0  0  0  0  0  0
   -7.1334   12.9931  -13.9466 H   0  0  0  0  0  0  0  0  0  0  0  0
   -9.0075    8.7050  -11.8962 H   0  0  0  0  0  0  0  0  0  0  0  0
   -6.4911    8.9053   -8.0809 H   0  0  0  0  0  0  0  0  0  0  0  0
   -7.5942   10.1193   -7.5849 H   0  0  0  0  0  0  0  0  0  0  0  0
   -6.6420   11.9509   -6.4838 H   0  0  0  0  0  0  0  0  0  0  0  0
   -4.7051   13.2762   -5.8022 H   0  0  0  0  0  0  0  0  0  0  0  0
   -2.3644   11.2777   -8.7685 H   0  0  0  0  0  0  0  0  0  0  0  0
   -4.3421   10.0626   -9.5001 H   0  0  0  0  0  0  0  0  0  0  0  0
   -2.6524   13.5980   -4.5332 H   0  0  0  0  0  0  0  0  0  0  0  0
   -0.5670   12.6287   -8.1762 H   0  0  0  0  0  0  0  0  0  0  0  0
    0.7597   14.9597   -4.3281 H   0  0  0  0  0  0  0  0  0  0  0  0
    0.6836   13.3276   -3.6477 H   0  0  0  0  0  0  0  0  0  0  0  0
   -0.6113   14.4828   -3.2940 H   0  0  0  0  0  0  0  0  0  0  0  0
   -3.6130   13.2577  -10.7309 H   0  0  0  0  0  0  0  0  0  0  0  0
   -3.6683   16.0984  -13.8162 H   0  0  0  0  0  0  0  0  0  0  0  0
   -1.9393   15.4960  -10.6959 H   0  0  0  0  0  0  0  0  0  0  0  0
   -1.5784   16.0334  -12.3607 H   0  0  0  0  0  0  0  0  0  0  0  0
   -1.2632   14.3737  -11.8911 H   0  0  0  0  0  0  0  0  0  0  0  0
  1  2  2  0
  1  4  1  0
  1 11  1  0
  2  6  1  0
  2 29  1  0
  3  4  2  0
  3  5  1  0
  3 30  1  0
  4 31  1  0
  5  6  2  0
  5  9  1  0
  6  7  1  0
  7  8  2  0
  7 10  1  0
  8  9  1  0
  9 32  1  0
 10 12  1  0
 10 33  1  0
 10 34  1  0
 11 24  2  0
 11 27  1  0
 12 13  2  0
 12 17  1  0
 13 14  1  0
 13 35  1  0
 14 15  2  0
 14 36  1  0
 15 16  1  0
 15 18  1  0
 16 17  2  0
 16 37  1  0
 17 38  1  0
 18 19  2  0
 18 22  1  0
 19 20  1  0
 19 39  1  0
 20 21  1  0
 20 23  1  0
 21 22  2  0
 22 40  1  0
 23 41  1  0
 23 42  1  0
 23 43  1  0
 24 25  1  0
 24 44  1  0
 25 26  1  0
 25 28  1  0
 26 27  2  0
 26 45  1  0
 28 46  1  0
 28 47  1  0
 28 48  1  0
M  END
>  <r_exp_dg>  (4) 
-9.75447

>  <mol_id>  (4) 
3

>  <source_index>  (4) 
6

>  <paff>  (4) 
7.1513694751996795

>  <source_r_exp_dg>  (4) 
-9.7544699999999995

>  <smiles>  (4) 
Cn1cnc(-c2ccc3[nH]nc(Cc4ccc(-c5cnn(C)c5)cc4)c3c2)c1

>  <aimnet_interaction_kcal_mol>  (4) 
-62.241842035456081

$$$$
cdk8_004
     RDKit          3D

 45 48  0  0  1  0  0  0  0  0999 V2000
   -6.2880   12.7031  -12.0238 C   0  0  0  0  0  0  0  0  0  0  0  0
   -6.3324   12.0684  -10.7964 C   0  0  0  0  0  0  0  0  0  0  0  0
   -8.0244   11.2513  -12.9035 C   0  0  0  0  0  0  0  0  0  0  0  0
   -7.1971   12.3390  -13.0428 C   0  0  0  0  0  0  0  0  0  0  0  0
   -7.9032   10.4729  -11.7502 C   0  0  0  0  0  0  0  0  0  0  0  0
   -7.1153   10.9199  -10.6640 C   0  0  0  0  0  0  0  0  0  0  0  0
   -7.3188    9.9405   -9.6539 C   0  0  0  0  0  0  0  0  0  0  0  0
   -8.0949    8.9669  -10.1052 N   0  0  0  0  0  0  0  0  0  0  0  0
   -8.4304    9.2732  -11.3743 N   0  0  0  0  0  0  0  0  0  0  0  0
   -6.7723    9.8991   -8.2792 C   0  0  0  0  0  0  0  0  0  0  0  0
   -4.9599   14.4417  -13.2903 C   0  0  0  0  0  0  0  0  0  0  0  0
   -3.8671   15.4315  -13.0049 C   0  0  0  0  0  0  0  0  0  0  0  0
   -5.3015   13.6934  -12.1950 N   0  0  0  0  0  0  0  0  0  0  0  0
   -5.6294   10.8338   -7.9986 C   0  0  0  0  0  0  0  0  0  0  0  0
   -5.7175   11.8007   -7.0090 C   0  0  0  0  0  0  0  0  0  0  0  0
   -4.6223   12.5521   -6.6217 C   0  0  0  0  0  0  0  0  0  0  0  0
   -3.3742   12.3445   -7.2080 C   0  0  0  0  0  0  0  0  0  0  0  0
   -3.3171   11.4605   -8.2905 C   0  0  0  0  0  0  0  0  0  0  0  0
   -4.4179   10.7204   -8.6692 C   0  0  0  0  0  0  0  0  0  0  0  0
   -2.1664   12.9338   -6.6492 C   0  0  0  0  0  0  0  0  0  0  0  0
   -1.9786   13.4517   -5.3755 C   0  0  0  0  0  0  0  0  0  0  0  0
   -0.6598   13.7509   -5.2639 N   0  0  0  0  0  0  0  0  0  0  0  0
    0.0249   13.4770   -6.3944 N   0  0  0  0  0  0  0  0  0  0  0  0
   -0.8864   12.9879   -7.2348 C   0  0  0  0  0  0  0  0  0  0  0  0
    0.0677   14.1777   -4.0888 C   0  0  0  0  0  0  0  0  0  0  0  0
   -5.5084   14.3237  -14.3884 O   0  0  0  0  0  0  0  0  0  0  0  0
   -5.7739   12.4389   -9.9538 H   0  0  0  0  0  0  0  0  0  0  0  0
   -8.7096   10.9976  -13.6865 H   0  0  0  0  0  0  0  0  0  0  0  0
   -7.2205   12.9332  -13.9403 H   0  0  0  0  0  0  0  0  0  0  0  0
   -9.0927    8.6667  -11.8420 H   0  0  0  0  0  0  0  0  0  0  0  0
   -7.5781   10.0685   -7.5663 H   0  0  0  0  0  0  0  0  0  0  0  0
   -6.4615    8.8769   -8.0811 H   0  0  0  0  0  0  0  0  0  0  0  0
   -3.0328   14.9593  -12.4887 H   0  0  0  0  0  0  0  0  0  0  0  0
   -4.2230   16.2406  -12.3651 H   0  0  0  0  0  0  0  0  0  0  0  0
   -3.4774   15.8532  -13.9287 H   0  0  0  0  0  0  0  0  0  0  0  0
   -4.7184   13.8327  -11.3837 H   0  0  0  0  0  0  0  0  0  0  0  0
   -6.6540   11.9340   -6.5006 H   0  0  0  0  0  0  0  0  0  0  0  0
   -4.7307   13.2890   -5.8375 H   0  0  0  0  0  0  0  0  0  0  0  0
   -2.3851   11.3235   -8.8183 H   0  0  0  0  0  0  0  0  0  0  0  0
   -4.3309   10.0267   -9.4884 H   0  0  0  0  0  0  0  0  0  0  0  0
   -2.6763   13.6345   -4.5746 H   0  0  0  0  0  0  0  0  0  0  0  0
   -0.5932   12.6750   -8.2220 H   0  0  0  0  0  0  0  0  0  0  0  0
   -0.6371   14.5035   -3.3303 H   0  0  0  0  0  0  0  0  0  0  0  0
    0.7315   14.9927   -4.3611 H   0  0  0  0  0  0  0  0  0  0  0  0
    0.6624   13.3563   -3.6918 H   0  0  0  0  0  0  0  0  0  0  0  0
  1  2  2  0
  1  4  1  0
  1 13  1  0
  2  6  1  0
  2 27  1  0
  3  4  2  0
  3  5  1  0
  3 28  1  0
  4 29  1  0
  5  6  2  0
  5  9  1  0
  6  7  1  0
  7  8  2  0
  7 10  1  0
  8  9  1  0
  9 30  1  0
 10 14  1  0
 10 31  1  0
 10 32  1  0
 11 12  1  0
 11 13  1  0
 11 26  2  0
 12 33  1  0
 12 34  1  0
 12 35  1  0
 13 36  1  0
 14 15  2  0
 14 19  1  0
 15 16  1  0
 15 37  1  0
 16 17  2  0
 16 38  1  0
 17 18  1  0
 17 20  1  0
 18 19  2  0
 18 39  1  0
 19 40  1  0
 20 21  2  0
 20 24  1  0
 21 22  1  0
 21 41  1  0
 22 23  1  0
 22 25  1  0
 23 24  2  0
 24 42  1  0
 25 43  1  0
 25 44  1  0
 25 45  1  0
M  END
>  <r_exp_dg>  (5) 
-10.3442

>  <mol_id>  (5) 
4

>  <source_index>  (5) 
7

>  <paff>  (5) 
7.5836936749321273

>  <source_r_exp_dg>  (5) 
-10.344200000000001

>  <smiles>  (5) 
CC(=O)Nc1ccc2[nH]nc(Cc3ccc(-c4cnn(C)c4)cc3)c2c1

>  <aimnet_interaction_kcal_mol>  (5) 
-58.882718464360558

$$$$
cdk8_005
     RDKit          3D

 52 56  0  0  1  0  0  0  0  0999 V2000
   -6.5349   12.7640  -12.2216 C   0  0  0  0  0  0  0  0  0  0  0  0
   -6.5501   12.2514  -10.9362 C   0  0  0  0  0  0  0  0  0  0  0  0
   -8.2091   11.1434  -12.9310 C   0  0  0  0  0  0  0  0  0  0  0  0
   -7.4671   12.2685  -13.1659 C   0  0  0  0  0  0  0  0  0  0  0  0
   -7.9821   10.4616  -11.7348 C   0  0  0  0  0  0  0  0  0  0  0  0
   -7.2314   11.0547  -10.6919 C   0  0  0  0  0  0  0  0  0  0  0  0
   -7.3729   10.1465   -9.6009 C   0  0  0  0  0  0  0  0  0  0  0  0
   -8.0463    9.0718   -9.9731 N   0  0  0  0  0  0  0  0  0  0  0  0
   -8.3951    9.2534  -11.2738 N   0  0  0  0  0  0  0  0  0  0  0  0
   -6.9439   10.3498   -8.1977 C   0  0  0  0  0  0  0  0  0  0  0  0
   -4.4831   14.0710  -11.9745 N   0  0  0  0  0  0  0  0  0  0  0  0
   -5.5875   13.7891  -12.7151 C   0  0  0  0  0  0  0  0  0  0  0  0
   -5.8011   14.3802  -13.7823 O   0  0  0  0  0  0  0  0  0  0  0  0
   -5.6775   11.1499   -8.0497 C   0  0  0  0  0  0  0  0  0  0  0  0
   -4.4640   10.6496   -8.5021 C   0  0  0  0  0  0  0  0  0  0  0  0
   -3.2696   11.2448   -8.1430 C   0  0  0  0  0  0  0  0  0  0  0  0
   -3.2503   12.3057   -7.2322 C   0  0  0  0  0  0  0  0  0  0  0  0
   -4.4699   12.9233   -6.9502 C   0  0  0  0  0  0  0  0  0  0  0  0
   -5.6573   12.3911   -7.4234 C   0  0  0  0  0  0  0  0  0  0  0  0
   -2.0293   12.6909   -6.5428 C   0  0  0  0  0  0  0  0  0  0  0  0
   -1.8987   13.3979   -5.3549 C   0  0  0  0  0  0  0  0  0  0  0  0
   -0.5715   13.4524   -5.0757 N   0  0  0  0  0  0  0  0  0  0  0  0
    0.1738   12.8354   -6.0179 N   0  0  0  0  0  0  0  0  0  0  0  0
   -0.7074   12.3581   -6.8947 C   0  0  0  0  0  0  0  0  0  0  0  0
    0.0926   14.0422   -3.9343 C   0  0  0  0  0  0  0  0  0  0  0  0
   -3.8182   13.2161  -11.0017 C   0  0  0  0  0  0  0  0  0  0  0  0
   -2.3469   13.5305  -11.2074 C   0  0  0  0  0  0  0  0  0  0  0  0
   -2.2891   14.9627  -11.6861 C   0  0  0  0  0  0  0  0  0  0  0  0
   -3.6230   15.1909  -12.3877 C   0  0  0  0  0  0  0  0  0  0  0  0
   -1.8347   12.6390  -12.1344 F   0  0  0  0  0  0  0  0  0  0  0  0
   -1.6175   13.3435  -10.0647 F   0  0  0  0  0  0  0  0  0  0  0  0
   -6.0516   12.7617  -10.1306 H   0  0  0  0  0  0  0  0  0  0  0  0
   -8.9090   10.7772  -13.6517 H   0  0  0  0  0  0  0  0  0  0  0  0
   -7.5685   12.8060  -14.0977 H   0  0  0  0  0  0  0  0  0  0  0  0
   -9.0133    8.5775  -11.7059 H   0  0  0  0  0  0  0  0  0  0  0  0
   -7.7510   10.8556   -7.6648 H   0  0  0  0  0  0  0  0  0  0  0  0
   -6.8451    9.3830   -7.7120 H   0  0  0  0  0  0  0  0  0  0  0  0
   -4.4592    9.7602   -9.1122 H   0  0  0  0  0  0  0  0  0  0  0  0
   -2.3412   10.8520   -8.5308 H   0  0  0  0  0  0  0  0  0  0  0  0
   -4.4843   13.8016   -6.3183 H   0  0  0  0  0  0  0  0  0  0  0  0
   -6.5774   12.9443   -7.3172 H   0  0  0  0  0  0  0  0  0  0  0  0
   -2.6387   13.8396   -4.7068 H   0  0  0  0  0  0  0  0  0  0  0  0
   -0.3673   11.7828   -7.7380 H   0  0  0  0  0  0  0  0  0  0  0  0
   -0.6562   14.4446   -3.2592 H   0  0  0  0  0  0  0  0  0  0  0  0
    0.7581   14.8340   -4.2710 H   0  0  0  0  0  0  0  0  0  0  0  0
    0.6763   13.2877   -3.4130 H   0  0  0  0  0  0  0  0  0  0  0  0
   -4.0996   13.4897   -9.9877 H   0  0  0  0  0  0  0  0  0  0  0  0
   -4.0173   12.1626  -11.1589 H   0  0  0  0  0  0  0  0  0  0  0  0
   -2.2069   15.5997  -10.8099 H   0  0  0  0  0  0  0  0  0  0  0  0
   -1.4353   15.1529  -12.3293 H   0  0  0  0  0  0  0  0  0  0  0  0
   -3.5242   15.1888  -13.4656 H   0  0  0  0  0  0  0  0  0  0  0  0
   -4.1006   16.1289  -12.1172 H   0  0  0  0  0  0  0  0  0  0  0  0
  1  2  2  0
  1  4  1  0
  1 12  1  0
  2  6  1  0
  2 32  1  0
  3  4  2  0
  3  5  1  0
  3 33  1  0
  4 34  1  0
  5  6  2  0
  5  9  1  0
  6  7  1  0
  7  8  2  0
  7 10  1  0
  8  9  1  0
  9 35  1  0
 10 14  1  0
 10 36  1  0
 10 37  1  0
 11 12  1  0
 11 26  1  0
 11 29  1  0
 12 13  2  0
 14 15  2  0
 14 19  1  0
 15 16  1  0
 15 38  1  0
 16 17  2  0
 16 39  1  0
 17 18  1  0
 17 20  1  0
 18 19  2  0
 18 40  1  0
 19 41  1  0
 20 21  2  0
 20 24  1  0
 21 22  1  0
 21 42  1  0
 22 23  1  0
 22 25  1  0
 23 24  2  0
 24 43  1  0
 25 44  1  0
 25 45  1  0
 25 46  1  0
 26 27  1  0
 26 47  1  0
 26 48  1  0
 27 28  1  0
 27 30  1  0
 27 31  1  0
 28 29  1  0
 28 49  1  0
 28 50  1  0
 29 51  1  0
 29 52  1  0
M  END
>  <r_exp_dg>  (6) 
-11.3918

>  <mol_id>  (6) 
5

>  <source_index>  (6) 
8

>  <paff>  (6) 
8.3517902407827957

>  <source_r_exp_dg>  (6) 
-11.3918

>  <smiles>  (6) 
Cn1cc(-c2ccc(Cc3n[nH]c4ccc(C(=O)N5CCC(F)(F)C5)cc34)cc2)cn1

>  <aimnet_interaction_kcal_mol>  (6) 
-62.525427531387379

$$$$
cdk8_006
     RDKit          3D

 53 57  0  0  1  0  0  0  0  0999 V2000
   -6.1344   12.7301  -12.2055 C   0  0  0  0  0  0  0  0  0  0  0  0
   -6.1553   12.1570  -10.9489 C   0  0  0  0  0  0  0  0  0  0  0  0
   -7.9149   11.2530  -12.9683 C   0  0  0  0  0  0  0  0  0  0  0  0
   -7.0777   12.3179  -13.1728 C   0  0  0  0  0  0  0  0  0  0  0  0
   -7.7631   10.5373  -11.7785 C   0  0  0  0  0  0  0  0  0  0  0  0
   -6.9734   11.0482  -10.7189 C   0  0  0  0  0  0  0  0  0  0  0  0
   -7.2340   10.1604   -9.6324 C   0  0  0  0  0  0  0  0  0  0  0  0
   -7.9937    9.1521  -10.0225 N   0  0  0  0  0  0  0  0  0  0  0  0
   -8.2964    9.3696  -11.3270 N   0  0  0  0  0  0  0  0  0  0  0  0
   -6.8350   10.3231   -8.2145 C   0  0  0  0  0  0  0  0  0  0  0  0
   -4.0049   13.8496  -11.9342 N   0  0  0  0  0  0  0  0  0  0  0  0
   -5.2006   13.8252  -12.5715 C   0  0  0  0  0  0  0  0  0  0  0  0
   -5.5160   14.6856  -13.4041 O   0  0  0  0  0  0  0  0  0  0  0  0
   -5.5721   11.1175   -8.0116 C   0  0  0  0  0  0  0  0  0  0  0  0
   -4.3409   10.6013   -8.3901 C   0  0  0  0  0  0  0  0  0  0  0  0
   -3.1644   11.2075   -7.9922 C   0  0  0  0  0  0  0  0  0  0  0  0
   -3.1840   12.3284   -7.1575 C   0  0  0  0  0  0  0  0  0  0  0  0
   -4.4186   12.9347   -6.9261 C   0  0  0  0  0  0  0  0  0  0  0  0
   -5.5854   12.3689   -7.4069 C   0  0  0  0  0  0  0  0  0  0  0  0
   -1.9794   12.7856   -6.4821 C   0  0  0  0  0  0  0  0  0  0  0  0
   -1.8685   13.4169   -5.2507 C   0  0  0  0  0  0  0  0  0  0  0  0
   -0.5419   13.5517   -5.0004 N   0  0  0  0  0  0  0  0  0  0  0  0
    0.2206   13.0659   -6.0041 N   0  0  0  0  0  0  0  0  0  0  0  0
   -0.6497   12.5941   -6.8967 C   0  0  0  0  0  0  0  0  0  0  0  0
    0.1086   14.0852   -3.8231 C   0  0  0  0  0  0  0  0  0  0  0  0
   -3.1938   15.0591  -12.0031 C   0  0  0  0  0  0  0  0  0  0  0  0
   -1.8982   14.6833  -11.2734 C   0  0  1  0  0  0  0  0  0  0  0  0
   -1.7811   13.1854  -11.5532 C   0  0  0  0  0  0  0  0  0  0  0  0
   -3.2154   12.7099  -11.4332 C   0  0  0  0  0  0  0  0  0  0  0  0
   -0.7559   15.4420  -11.5693 O   0  0  0  0  0  0  0  0  0  0  0  0
   -5.5494   12.5711  -10.1617 H   0  0  0  0  0  0  0  0  0  0  0  0
   -8.6401   10.9767  -13.7071 H   0  0  0  0  0  0  0  0  0  0  0  0
   -7.1266   12.8868  -14.0904 H   0  0  0  0  0  0  0  0  0  0  0  0
   -8.9356    8.7312  -11.7790 H   0  0  0  0  0  0  0  0  0  0  0  0
   -7.6523   10.8124   -7.6814 H   0  0  0  0  0  0  0  0  0  0  0  0
   -6.7461    9.3413   -7.7586 H   0  0  0  0  0  0  0  0  0  0  0  0
   -4.3101    9.6931   -8.9716 H   0  0  0  0  0  0  0  0  0  0  0  0
   -2.2158   10.7857   -8.2963 H   0  0  0  0  0  0  0  0  0  0  0  0
   -4.4555   13.8384   -6.3317 H   0  0  0  0  0  0  0  0  0  0  0  0
   -6.5185   12.9044   -7.3251 H   0  0  0  0  0  0  0  0  0  0  0  0
   -2.6240   13.7625   -4.5631 H   0  0  0  0  0  0  0  0  0  0  0  0
   -0.3001   12.1160   -7.7953 H   0  0  0  0  0  0  0  0  0  0  0  0
   -0.6473   14.4778   -3.1502 H   0  0  0  0  0  0  0  0  0  0  0  0
    0.7916   14.8758   -4.1228 H   0  0  0  0  0  0  0  0  0  0  0  0
    0.6706   13.3042   -3.3162 H   0  0  0  0  0  0  0  0  0  0  0  0
   -3.0030   15.3304  -13.0383 H   0  0  0  0  0  0  0  0  0  0  0  0
   -3.7382   15.8849  -11.5576 H   0  0  0  0  0  0  0  0  0  0  0  0
   -2.0816   14.8035  -10.1967 H   0  0  0  0  0  0  0  0  0  0  0  0
   -1.4209   13.0284  -12.5619 H   0  0  0  0  0  0  0  0  0  0  0  0
   -1.0964   12.6831  -10.8758 H   0  0  0  0  0  0  0  0  0  0  0  0
   -3.4486   12.5010  -10.3908 H   0  0  0  0  0  0  0  0  0  0  0  0
   -3.4369   11.8132  -12.0072 H   0  0  0  0  0  0  0  0  0  0  0  0
   -0.6635   15.6097  -12.5392 H   0  0  0  0  0  0  0  0  0  0  0  0
  1  2  2  0
  1  4  1  0
  1 12  1  0
  2  6  1  0
  2 31  1  0
  3  4  2  0
  3  5  1  0
  3 32  1  0
  4 33  1  0
  5  6  2  0
  5  9  1  0
  6  7  1  0
  7  8  2  0
  7 10  1  0
  8  9  1  0
  9 34  1  0
 10 14  1  0
 10 35  1  0
 10 36  1  0
 11 12  1  0
 11 26  1  0
 11 29  1  0
 12 13  2  0
 14 15  2  0
 14 19  1  0
 15 16  1  0
 15 37  1  0
 16 17  2  0
 16 38  1  0
 17 18  1  0
 17 20  1  0
 18 19  2  0
 18 39  1  0
 19 40  1  0
 20 21  2  0
 20 24  1  0
 21 22  1  0
 21 41  1  0
 22 23  1  0
 22 25  1  0
 23 24  2  0
 24 42  1  0
 25 43  1  0
 25 44  1  0
 25 45  1  0
 26 27  1  0
 26 46  1  0
 26 47  1  0
 27 28  1  0
 27 30  1  0
 27 48  1  1
 28 29  1  0
 28 49  1  0
 28 50  1  0
 29 51  1  0
 29 52  1  0
 30 53  1  0
M  END
>  <r_exp_dg>  (7) 
-11.938

>  <mol_id>  (7) 
6

>  <source_index>  (7) 
9

>  <paff>  (7) 
8.7521635542167591

>  <source_r_exp_dg>  (7) 
-11.938000000000001

>  <smiles>  (7) 
Cn1cc(-c2ccc(Cc3n[nH]c4ccc(C(=O)N5CC[C@@H](O)C5)cc34)cc2)cn1

>  <aimnet_interaction_kcal_mol>  (7) 
-74.347061594218417

$$$$
cdk8_007
     RDKit          3D

 55 59  0  0  1  0  0  0  0  0999 V2000
   -6.2796   12.7352  -12.1371 C   0  0  0  0  0  0  0  0  0  0  0  0
   -6.3879   12.2029  -10.8690 C   0  0  0  0  0  0  0  0  0  0  0  0
   -7.9909   11.2137  -12.9612 C   0  0  0  0  0  0  0  0  0  0  0  0
   -7.1674   12.2951  -13.1432 C   0  0  0  0  0  0  0  0  0  0  0  0
   -7.8661   10.5019  -11.7639 C   0  0  0  0  0  0  0  0  0  0  0  0
   -7.1318   11.0372  -10.6788 C   0  0  0  0  0  0  0  0  0  0  0  0
   -7.3434   10.1097   -9.6171 C   0  0  0  0  0  0  0  0  0  0  0  0
   -8.0524    9.0764  -10.0357 N   0  0  0  0  0  0  0  0  0  0  0  0
   -8.3540    9.3050  -11.3389 N   0  0  0  0  0  0  0  0  0  0  0  0
   -6.9111   10.2423   -8.2051 C   0  0  0  0  0  0  0  0  0  0  0  0
   -4.1306   13.8020  -11.7550 N   0  0  0  0  0  0  0  0  0  0  0  0
   -5.2785   13.7788  -12.4801 C   0  0  0  0  0  0  0  0  0  0  0  0
   -5.5143   14.6058  -13.3706 O   0  0  0  0  0  0  0  0  0  0  0  0
   -5.6534   11.0539   -8.0192 C   0  0  0  0  0  0  0  0  0  0  0  0
   -5.6788   12.3056   -7.4153 C   0  0  0  0  0  0  0  0  0  0  0  0
   -4.5152   12.8952   -6.9564 C   0  0  0  0  0  0  0  0  0  0  0  0
   -3.2724   12.3223   -7.2239 C   0  0  0  0  0  0  0  0  0  0  0  0
   -3.2471   11.2001   -8.0573 C   0  0  0  0  0  0  0  0  0  0  0  0
   -4.4189   10.5617   -8.4189 C   0  0  0  0  0  0  0  0  0  0  0  0
   -2.0580   12.8400   -6.6135 C   0  0  0  0  0  0  0  0  0  0  0  0
   -1.9104   13.4213   -5.3631 C   0  0  0  0  0  0  0  0  0  0  0  0
   -0.5835   13.6515   -5.1937 N   0  0  0  0  0  0  0  0  0  0  0  0
    0.1418   13.2715   -6.2676 N   0  0  0  0  0  0  0  0  0  0  0  0
   -0.7511   12.7824   -7.1279 C   0  0  0  0  0  0  0  0  0  0  0  0
    0.1064   14.1316   -4.0157 C   0  0  0  0  0  0  0  0  0  0  0  0
   -3.5184   15.0906  -11.4579 C   0  0  0  0  0  0  0  0  0  0  0  0
   -2.0104   15.0591  -11.5700 C   0  0  0  0  0  0  0  0  0  0  0  0
   -1.4175   13.9053  -10.7874 C   0  0  0  0  0  0  0  0  0  0  0  0
   -2.0591   12.6051  -11.2282 C   0  0  0  0  0  0  0  0  0  0  0  0
   -3.5558   12.6792  -11.0229 C   0  0  0  0  0  0  0  0  0  0  0  0
   -5.8989   12.6836  -10.0390 H   0  0  0  0  0  0  0  0  0  0  0  0
   -8.6778   10.9131  -13.7248 H   0  0  0  0  0  0  0  0  0  0  0  0
   -7.1774   12.8488  -14.0710 H   0  0  0  0  0  0  0  0  0  0  0  0
   -8.9747    8.6553  -11.8011 H   0  0  0  0  0  0  0  0  0  0  0  0
   -7.7214   10.7028   -7.6360 H   0  0  0  0  0  0  0  0  0  0  0  0
   -6.7938    9.2505   -7.7780 H   0  0  0  0  0  0  0  0  0  0  0  0
   -6.6202   12.8233   -7.3217 H   0  0  0  0  0  0  0  0  0  0  0  0
   -4.5581   13.7906   -6.3494 H   0  0  0  0  0  0  0  0  0  0  0  0
   -2.2957   10.8026   -8.3832 H   0  0  0  0  0  0  0  0  0  0  0  0
   -4.3799    9.6502   -8.9937 H   0  0  0  0  0  0  0  0  0  0  0  0
   -2.6421   13.6836   -4.6151 H   0  0  0  0  0  0  0  0  0  0  0  0
   -0.4322   12.4048   -8.0828 H   0  0  0  0  0  0  0  0  0  0  0  0
   -0.6234   14.5087   -3.3061 H   0  0  0  0  0  0  0  0  0  0  0  0
    0.7927   14.9217   -4.3064 H   0  0  0  0  0  0  0  0  0  0  0  0
    0.6720   13.3248   -3.5525 H   0  0  0  0  0  0  0  0  0  0  0  0
   -3.8117   15.3702  -10.4405 H   0  0  0  0  0  0  0  0  0  0  0  0
   -3.9566   15.8085  -12.1431 H   0  0  0  0  0  0  0  0  0  0  0  0
   -1.7239   15.0017  -12.6099 H   0  0  0  0  0  0  0  0  0  0  0  0
   -1.6048   16.0039  -11.2174 H   0  0  0  0  0  0  0  0  0  0  0  0
   -1.6011   14.0417   -9.7180 H   0  0  0  0  0  0  0  0  0  0  0  0
   -0.3368   13.8613  -10.9188 H   0  0  0  0  0  0  0  0  0  0  0  0
   -1.8531   12.4105  -12.2799 H   0  0  0  0  0  0  0  0  0  0  0  0
   -1.6559   11.7719  -10.6619 H   0  0  0  0  0  0  0  0  0  0  0  0
   -3.7572   12.8127   -9.9595 H   0  0  0  0  0  0  0  0  0  0  0  0
   -4.0313   11.7602  -11.3431 H   0  0  0  0  0  0  0  0  0  0  0  0
  1  2  2  0
  1  4  1  0
  1 12  1  0
  2  6  1  0
  2 31  1  0
  3  4  2  0
  3  5  1  0
  3 32  1  0
  4 33  1  0
  5  6  2  0
  5  9  1  0
  6  7  1  0
  7  8  2  0
  7 10  1  0
  8  9  1  0
  9 34  1  0
 10 14  1  0
 10 35  1  0
 10 36  1  0
 11 12  1  0
 11 26  1  0
 11 30  1  0
 12 13  2  0
 14 15  2  0
 14 19  1  0
 15 16  1  0
 15 37  1  0
 16 17  2  0
 16 38  1  0
 17 18  1  0
 17 20  1  0
 18 19  2  0
 18 39  1  0
 19 40  1  0
 20 21  2  0
 20 24  1  0
 21 22  1  0
 21 41  1  0
 22 23  1  0
 22 25  1  0
 23 24  2  0
 24 42  1  0
 25 43  1  0
 25 44  1  0
 25 45  1  0
 26 27  1  0
 26 46  1  0
 26 47  1  0
 27 28  1  0
 27 48  1  0
 27 49  1  0
 28 29  1  0
 28 50  1  0
 28 51  1  0
 29 30  1  0
 29 52  1  0
 29 53  1  0
 30 54  1  0
 30 55  1  0
M  END
>  <r_exp_dg>  (8) 
-11.2832

>  <mol_id>  (8) 
7

>  <source_index>  (8) 
10

>  <paff>  (8) 
8.2721241758016539

>  <source_r_exp_dg>  (8) 
-11.283200000000001

>  <smiles>  (8) 
Cn1cc(-c2ccc(Cc3n[nH]c4ccc(C(=O)N5CCCCC5)cc34)cc2)cn1

>  <aimnet_interaction_kcal_mol>  (8) 
-62.017524506471709

$$$$
cdk8_008
     RDKit          3D

 50 54  0  0  1  0  0  0  0  0999 V2000
   -6.3562   12.6299  -12.1239 C   0  0  0  0  0  0  0  0  0  0  0  0
   -6.2959   12.0102  -10.9013 C   0  0  0  0  0  0  0  0  0  0  0  0
   -8.1562   11.2316  -12.9090 C   0  0  0  0  0  0  0  0  0  0  0  0
   -7.3389   12.3177  -13.0836 C   0  0  0  0  0  0  0  0  0  0  0  0
   -7.9640   10.4531  -11.7654 C   0  0  0  0  0  0  0  0  0  0  0  0
   -7.1177   10.8935  -10.7180 C   0  0  0  0  0  0  0  0  0  0  0  0
   -7.3101    9.9281   -9.6881 C   0  0  0  0  0  0  0  0  0  0  0  0
   -8.1082    8.9597  -10.1058 N   0  0  0  0  0  0  0  0  0  0  0  0
   -8.4837    9.2597  -11.3675 N   0  0  0  0  0  0  0  0  0  0  0  0
   -6.7593    9.9011   -8.3166 C   0  0  0  0  0  0  0  0  0  0  0  0
   -5.0815   13.7363  -12.6902 S   0  0  0  0  0  0  0  0  0  0  0  0
   -5.5938   10.8166   -8.0735 C   0  0  0  0  0  0  0  0  0  0  0  0
   -5.6996   11.9031   -7.2193 C   0  0  0  0  0  0  0  0  0  0  0  0
   -4.5817   12.5825   -6.7706 C   0  0  0  0  0  0  0  0  0  0  0  0
   -3.3070   12.2080   -7.1960 C   0  0  0  0  0  0  0  0  0  0  0  0
   -3.2318   11.2628   -8.2240 C   0  0  0  0  0  0  0  0  0  0  0  0
   -4.3519   10.5721   -8.6426 C   0  0  0  0  0  0  0  0  0  0  0  0
   -2.1051   12.7103   -6.5503 C   0  0  0  0  0  0  0  0  0  0  0  0
   -2.0026   13.4719   -5.3943 C   0  0  0  0  0  0  0  0  0  0  0  0
   -0.6785   13.6334   -5.1465 N   0  0  0  0  0  0  0  0  0  0  0  0
    0.0936   13.0210   -6.0710 N   0  0  0  0  0  0  0  0  0  0  0  0
   -0.7685   12.4522   -6.9136 C   0  0  0  0  0  0  0  0  0  0  0  0
   -0.0514   14.2609   -4.0057 C   0  0  0  0  0  0  0  0  0  0  0  0
   -4.1697   12.9618  -13.5492 O   0  0  0  0  0  0  0  0  0  0  0  0
   -5.7105   14.9733  -13.2228 O   0  0  0  0  0  0  0  0  0  0  0  0
   -4.3312   14.2283  -11.2609 N   0  0  0  0  0  0  0  0  0  0  0  0
   -3.0976   13.5678  -10.8999 C   0  0  0  0  0  0  0  0  0  0  0  0
   -1.7643   14.0728  -11.3456 C   0  0  0  0  0  0  0  0  0  0  0  0
   -2.1824   14.2442   -9.9342 C   0  0  0  0  0  0  0  0  0  0  0  0
   -5.6434   12.3775  -10.1284 H   0  0  0  0  0  0  0  0  0  0  0  0
   -8.8833   10.9629  -13.6476 H   0  0  0  0  0  0  0  0  0  0  0  0
   -7.4267   12.9347  -13.9658 H   0  0  0  0  0  0  0  0  0  0  0  0
   -9.1647    8.6530  -11.8126 H   0  0  0  0  0  0  0  0  0  0  0  0
   -7.5543   10.1115   -7.6021 H   0  0  0  0  0  0  0  0  0  0  0  0
   -6.4717    8.8773   -8.0974 H   0  0  0  0  0  0  0  0  0  0  0  0
   -6.6809   12.2008   -6.8926 H   0  0  0  0  0  0  0  0  0  0  0  0
   -4.6982   13.3976   -6.0678 H   0  0  0  0  0  0  0  0  0  0  0  0
   -2.2736   11.0318   -8.6639 H   0  0  0  0  0  0  0  0  0  0  0  0
   -4.2576    9.8009   -9.3872 H   0  0  0  0  0  0  0  0  0  0  0  0
   -2.7524   13.8877   -4.7428 H   0  0  0  0  0  0  0  0  0  0  0  0
   -0.3997   11.8541   -7.7275 H   0  0  0  0  0  0  0  0  0  0  0  0
    0.7958   14.8443   -4.3522 H   0  0  0  0  0  0  0  0  0  0  0  0
    0.3001   13.5159   -3.2942 H   0  0  0  0  0  0  0  0  0  0  0  0
   -0.7750   14.9061   -3.5172 H   0  0  0  0  0  0  0  0  0  0  0  0
   -4.2503   15.2347  -11.3513 H   0  0  0  0  0  0  0  0  0  0  0  0
   -3.2201   12.4986  -10.8057 H   0  0  0  0  0  0  0  0  0  0  0  0
   -1.0146   13.3226  -11.5450 H   0  0  0  0  0  0  0  0  0  0  0  0
   -1.7091   14.9269  -12.0021 H   0  0  0  0  0  0  0  0  0  0  0  0
   -2.4689   15.2261   -9.5832 H   0  0  0  0  0  0  0  0  0  0  0  0
   -1.7069   13.6367   -9.1772 H   0  0  0  0  0  0  0  0  0  0  0  0
  1  2  2  0
  1  4  1  0
  1 11  1  0
  2  6  1  0
  2 30  1  0
  3  4  2  0
  3  5  1  0
  3 31  1  0
  4 32  1  0
  5  6  2  0
  5  9  1  0
  6  7  1  0
  7  8  2  0
  7 10  1  0
  8  9  1  0
  9 33  1  0
 10 12  1  0
 10 34  1  0
 10 35  1  0
 11 24  2  0
 11 25  2  0
 11 26  1  0
 12 13  2  0
 12 17  1  0
 13 14  1  0
 13 36  1  0
 14 15  2  0
 14 37  1  0
 15 16  1  0
 15 18  1  0
 16 17  2  0
 16 38  1  0
 17 39  1  0
 18 19  2  0
 18 22  1  0
 19 20  1  0
 19 40  1  0
 20 21  1  0
 20 23  1  0
 21 22  2  0
 22 41  1  0
 23 42  1  0
 23 43  1  0
 23 44  1  0
 26 27  1  0
 26 45  1  0
 27 28  1  0
 27 29  1  0
 27 46  1  0
 28 29  1  0
 28 47  1  0
 28 48  1  0
 29 49  1  0
 29 50  1  0
M  END
>  <r_exp_dg>  (9) 
-9.25606

>  <mol_id>  (9) 
8

>  <source_index>  (9) 
11

>  <paff>  (9) 
6.7859709787228937

>  <source_r_exp_dg>  (9) 
-9.2560599999999997

>  <smiles>  (9) 
Cn1cc(-c2ccc(Cc3n[nH]c4ccc(S(=O)(=O)NC5CC5)cc34)cc2)cn1

>  <aimnet_interaction_kcal_mol>  (9) 
-64.429223414222193

$$$$
cdk8_009
     RDKit          3D

 49 53  0  0  1  0  0  0  0  0999 V2000
   -6.2738   12.5164  -12.2657 C   0  0  0  0  0  0  0  0  0  0  0  0
   -6.2279   11.8900  -11.0329 C   0  0  0  0  0  0  0  0  0  0  0  0
   -8.1608   11.1507  -12.9557 C   0  0  0  0  0  0  0  0  0  0  0  0
   -7.3042   12.1950  -13.1840 C   0  0  0  0  0  0  0  0  0  0  0  0
   -7.9661   10.3762  -11.8131 C   0  0  0  0  0  0  0  0  0  0  0  0
   -7.0835   10.8066  -10.7964 C   0  0  0  0  0  0  0  0  0  0  0  0
   -7.2883    9.8742   -9.7438 C   0  0  0  0  0  0  0  0  0  0  0  0
   -8.1248    8.9209  -10.1294 N   0  0  0  0  0  0  0  0  0  0  0  0
   -8.5128    9.2042  -11.3876 N   0  0  0  0  0  0  0  0  0  0  0  0
   -6.7278    9.8615   -8.3741 C   0  0  0  0  0  0  0  0  0  0  0  0
   -5.2169   14.2220  -13.7510 C   0  0  0  0  0  0  0  0  0  0  0  0
   -4.3415   15.4270  -13.4805 C   0  0  0  0  0  0  0  0  0  0  0  0
   -5.2957   13.4805  -12.5965 N   0  0  0  0  0  0  0  0  0  0  0  0
   -5.5973   10.8183   -8.1225 C   0  0  0  0  0  0  0  0  0  0  0  0
   -5.7477   11.9030   -7.2734 C   0  0  0  0  0  0  0  0  0  0  0  0
   -4.6581   12.6222   -6.8141 C   0  0  0  0  0  0  0  0  0  0  0  0
   -3.3709   12.3211   -7.2586 C   0  0  0  0  0  0  0  0  0  0  0  0
   -3.2500   11.3489   -8.2562 C   0  0  0  0  0  0  0  0  0  0  0  0
   -4.3390   10.6101   -8.6717 C   0  0  0  0  0  0  0  0  0  0  0  0
   -2.1891   12.9275   -6.6649 C   0  0  0  0  0  0  0  0  0  0  0  0
   -2.0466   13.4611   -5.3926 C   0  0  0  0  0  0  0  0  0  0  0  0
   -0.7366   13.7817   -5.2464 N   0  0  0  0  0  0  0  0  0  0  0  0
   -0.0149   13.5063   -6.3539 N   0  0  0  0  0  0  0  0  0  0  0  0
   -0.8939   12.9933   -7.2137 C   0  0  0  0  0  0  0  0  0  0  0  0
   -0.0513   14.2365   -4.0572 C   0  0  0  0  0  0  0  0  0  0  0  0
   -5.7733   13.9677  -14.8219 O   0  0  0  0  0  0  0  0  0  0  0  0
   -4.3343   13.9212  -11.5840 C   0  0  0  0  0  0  0  0  0  0  0  0
   -3.5387   15.0527  -12.2412 C   0  0  0  0  0  0  0  0  0  0  0  0
   -5.5549   12.2066  -10.2594 H   0  0  0  0  0  0  0  0  0  0  0  0
   -8.9251   10.9018  -13.6611 H   0  0  0  0  0  0  0  0  0  0  0  0
   -7.3797   12.7827  -14.0813 H   0  0  0  0  0  0  0  0  0  0  0  0
   -9.2079    8.5979  -11.8152 H   0  0  0  0  0  0  0  0  0  0  0  0
   -7.5287   10.0363   -7.6569 H   0  0  0  0  0  0  0  0  0  0  0  0
   -6.4006    8.8490   -8.1612 H   0  0  0  0  0  0  0  0  0  0  0  0
   -5.0044   16.2776  -13.3071 H   0  0  0  0  0  0  0  0  0  0  0  0
   -3.7032   15.6868  -14.3260 H   0  0  0  0  0  0  0  0  0  0  0  0
   -6.7417   12.1733   -6.9630 H   0  0  0  0  0  0  0  0  0  0  0  0
   -4.8025   13.4114   -6.0877 H   0  0  0  0  0  0  0  0  0  0  0  0
   -2.2782   11.1429   -8.6797 H   0  0  0  0  0  0  0  0  0  0  0  0
   -4.2096    9.8403   -9.4107 H   0  0  0  0  0  0  0  0  0  0  0  0
   -2.7701   13.6415   -4.6158 H   0  0  0  0  0  0  0  0  0  0  0  0
   -0.5712   12.6744   -8.1900 H   0  0  0  0  0  0  0  0  0  0  0  0
    0.5853   15.0781   -4.3137 H   0  0  0  0  0  0  0  0  0  0  0  0
    0.5669   13.4395   -3.6473 H   0  0  0  0  0  0  0  0  0  0  0  0
   -0.7851   14.5324   -3.3145 H   0  0  0  0  0  0  0  0  0  0  0  0
   -4.8740   14.2701  -10.7045 H   0  0  0  0  0  0  0  0  0  0  0  0
   -3.7091   13.0871  -11.2712 H   0  0  0  0  0  0  0  0  0  0  0  0
   -2.5402   14.7204  -12.5089 H   0  0  0  0  0  0  0  0  0  0  0  0
   -3.4245   15.8854  -11.5582 H   0  0  0  0  0  0  0  0  0  0  0  0
  1  2  2  0
  1  4  1  0
  1 13  1  0
  2  6  1  0
  2 29  1  0
  3  4  2  0
  3  5  1  0
  3 30  1  0
  4 31  1  0
  5  6  2  0
  5  9  1  0
  6  7  1  0
  7  8  2  0
  7 10  1  0
  8  9  1  0
  9 32  1  0
 10 14  1  0
 10 33  1  0
 10 34  1  0
 11 12  1  0
 11 13  1  0
 11 26  2  0
 12 28  1  0
 12 35  1  0
 12 36  1  0
 13 27  1  0
 14 15  2  0
 14 19  1  0
 15 16  1  0
 15 37  1  0
 16 17  2  0
 16 38  1  0
 17 18  1  0
 17 20  1  0
 18 19  2  0
 18 39  1  0
 19 40  1  0
 20 21  2  0
 20 24  1  0
 21 22  1  0
 21 41  1  0
 22 23  1  0
 22 25  1  0
 23 24  2  0
 24 42  1  0
 25 43  1  0
 25 44  1  0
 25 45  1  0
 27 28  1  0
 27 46  1  0
 27 47  1  0
 28 48  1  0
 28 49  1  0
M  END
>  <r_exp_dg>  (10) 
-10.2153

>  <mol_id>  (10) 
9

>  <source_index>  (10) 
12

>  <paff>  (10) 
7.489214894359062

>  <source_r_exp_dg>  (10) 
-10.215299999999999

>  <smiles>  (10) 
Cn1cc(-c2ccc(Cc3n[nH]c4ccc(N5CCCC5=O)cc34)cc2)cn1

>  <aimnet_interaction_kcal_mol>  (10) 
-60.999228621926562

$$$$
cdk8_010
     RDKit          3D

 55 58  0  0  1  0  0  0  0  0999 V2000
   -6.4051   12.7418  -12.1571 C   0  0  0  0  0  0  0  0  0  0  0  0
   -6.3487   12.1352  -10.9167 C   0  0  0  0  0  0  0  0  0  0  0  0
   -8.1378   11.2012  -12.9002 C   0  0  0  0  0  0  0  0  0  0  0  0
   -7.3655   12.3140  -13.1024 C   0  0  0  0  0  0  0  0  0  0  0  0
   -7.9106   10.4648  -11.7360 C   0  0  0  0  0  0  0  0  0  0  0  0
   -7.0910   10.9687  -10.6953 C   0  0  0  0  0  0  0  0  0  0  0  0
   -7.2495   10.0203   -9.6376 C   0  0  0  0  0  0  0  0  0  0  0  0
   -8.0065    9.0108  -10.0351 N   0  0  0  0  0  0  0  0  0  0  0  0
   -8.3837    9.2655  -11.3071 N   0  0  0  0  0  0  0  0  0  0  0  0
   -6.7250   10.0343   -8.2497 C   0  0  0  0  0  0  0  0  0  0  0  0
   -4.3105   13.9075  -11.9173 N   0  0  0  0  0  0  0  0  0  0  0  0
   -3.3674   14.9788  -12.1690 C   0  0  0  0  0  0  0  0  0  0  0  0
   -5.4935   13.8378  -12.5644 C   0  0  0  0  0  0  0  0  0  0  0  0
   -5.8048   14.6333  -13.4545 O   0  0  0  0  0  0  0  0  0  0  0  0
   -5.5546   10.9428   -7.9974 C   0  0  0  0  0  0  0  0  0  0  0  0
   -5.5618   11.8780   -6.9714 C   0  0  0  0  0  0  0  0  0  0  0  0
   -4.4397   12.6291   -6.6641 C   0  0  0  0  0  0  0  0  0  0  0  0
   -3.2435   12.4304   -7.3490 C   0  0  0  0  0  0  0  0  0  0  0  0
   -3.2650   11.5642   -8.4450 C   0  0  0  0  0  0  0  0  0  0  0  0
   -4.3931   10.8314   -8.7513 C   0  0  0  0  0  0  0  0  0  0  0  0
   -1.9932   13.0330   -6.9051 C   0  0  0  0  0  0  0  0  0  0  0  0
   -1.7829   14.1833   -6.1592 C   0  0  0  0  0  0  0  0  0  0  0  0
   -0.4396   14.3703   -6.0789 N   0  0  0  0  0  0  0  0  0  0  0  0
    0.2363   13.3844   -6.7072 N   0  0  0  0  0  0  0  0  0  0  0  0
   -0.6945   12.5657   -7.1884 C   0  0  0  0  0  0  0  0  0  0  0  0
    0.2812   15.5155   -5.5530 C   0  0  0  0  0  0  0  0  0  0  0  0
    1.5762   15.1697   -4.7966 C   0  0  0  0  0  0  0  0  0  0  0  0
    2.5421   14.6298   -5.6995 O   0  0  0  0  0  0  0  0  0  0  0  0
    1.2936   14.2255   -3.6364 C   0  0  0  0  0  0  0  0  0  0  0  0
    2.1808   16.4676   -4.2869 C   0  0  0  0  0  0  0  0  0  0  0  0
   -5.7666   12.5711  -10.1220 H   0  0  0  0  0  0  0  0  0  0  0  0
   -8.8608   10.8854  -13.6247 H   0  0  0  0  0  0  0  0  0  0  0  0
   -7.4626   12.9029  -14.0029 H   0  0  0  0  0  0  0  0  0  0  0  0
   -9.0403    8.6329  -11.7472 H   0  0  0  0  0  0  0  0  0  0  0  0
   -6.4633    9.0095   -7.9932 H   0  0  0  0  0  0  0  0  0  0  0  0
   -7.5379   10.2756   -7.5660 H   0  0  0  0  0  0  0  0  0  0  0  0
   -4.0493   13.1573  -11.3021 H   0  0  0  0  0  0  0  0  0  0  0  0
   -2.3796   14.6985  -11.8133 H   0  0  0  0  0  0  0  0  0  0  0  0
   -3.6796   15.8930  -11.6716 H   0  0  0  0  0  0  0  0  0  0  0  0
   -3.3096   15.1821  -13.2321 H   0  0  0  0  0  0  0  0  0  0  0  0
   -6.4478   11.9895   -6.3703 H   0  0  0  0  0  0  0  0  0  0  0  0
   -4.4844   13.3541   -5.8624 H   0  0  0  0  0  0  0  0  0  0  0  0
   -2.3775   11.4550   -9.0524 H   0  0  0  0  0  0  0  0  0  0  0  0
   -4.3710   10.1537   -9.5898 H   0  0  0  0  0  0  0  0  0  0  0  0
   -2.4716   14.8448   -5.6641 H   0  0  0  0  0  0  0  0  0  0  0  0
   -0.3974   11.6760   -7.7156 H   0  0  0  0  0  0  0  0  0  0  0  0
   -0.4005   16.0385   -4.8849 H   0  0  0  0  0  0  0  0  0  0  0  0
    0.5220   16.1809   -6.3826 H   0  0  0  0  0  0  0  0  0  0  0  0
    2.1403   13.8374   -6.0957 H   0  0  0  0  0  0  0  0  0  0  0  0
    0.8952   13.2757   -3.9811 H   0  0  0  0  0  0  0  0  0  0  0  0
    0.5774   14.6653   -2.9407 H   0  0  0  0  0  0  0  0  0  0  0  0
    2.2092   14.0107   -3.0945 H   0  0  0  0  0  0  0  0  0  0  0  0
    2.4026   17.1480   -5.1080 H   0  0  0  0  0  0  0  0  0  0  0  0
    3.1118   16.2447   -3.7725 H   0  0  0  0  0  0  0  0  0  0  0  0
    1.5099   16.9670   -3.5885 H   0  0  0  0  0  0  0  0  0  0  0  0
  1  2  2  0
  1  4  1  0
  1 13  1  0
  2  6  1  0
  2 31  1  0
  3  4  2  0
  3  5  1  0
  3 32  1  0
  4 33  1  0
  5  6  2  0
  5  9  1  0
  6  7  1  0
  7  8  2  0
  7 10  1  0
  8  9  1  0
  9 34  1  0
 10 15  1  0
 10 35  1  0
 10 36  1  0
 11 12  1  0
 11 13  1  0
 11 37  1  0
 12 38  1  0
 12 39  1  0
 12 40  1  0
 13 14  2  0
 15 16  2  0
 15 20  1  0
 16 17  1  0
 16 41  1  0
 17 18  2  0
 17 42  1  0
 18 19  1  0
 18 21  1  0
 19 20  2  0
 19 43  1  0
 20 44  1  0
 21 22  2  0
 21 25  1  0
 22 23  1  0
 22 45  1  0
 23 24  1  0
 23 26  1  0
 24 25  2  0
 25 46  1  0
 26 27  1  0
 26 47  1  0
 26 48  1  0
 27 28  1  0
 27 29  1  0
 27 30  1  0
 28 49  1  0
 29 50  1  0
 29 51  1  0
 29 52  1  0
 30 53  1  0
 30 54  1  0
 30 55  1  0
M  END
>  <r_exp_dg>  (11) 
-10.6986

>  <mol_id>  (11) 
10

>  <source_index>  (11) 
13

>  <paff>  (11) 
7.8435510484354234

>  <source_r_exp_dg>  (11) 
-10.698600000000001

>  <smiles>  (11) 
CNC(=O)c1ccc2[nH]nc(Cc3ccc(-c4cnn(CC(C)(C)O)c4)cc3)c2c1

>  <aimnet_interaction_kcal_mol>  (11) 
-57.893318186156726

$$$$
cdk8_011
     RDKit          3D

 50 54  0  0  1  0  0  0  0  0999 V2000
   -6.1826   12.6592  -12.1782 C   0  0  0  0  0  0  0  0  0  0  0  0
   -6.1402   11.9950  -10.9673 C   0  0  0  0  0  0  0  0  0  0  0  0
   -8.0132   11.2548  -12.9620 C   0  0  0  0  0  0  0  0  0  0  0  0
   -7.1725   12.3231  -13.1304 C   0  0  0  0  0  0  0  0  0  0  0  0
   -7.8388   10.4767  -11.8137 C   0  0  0  0  0  0  0  0  0  0  0  0
   -6.9902   10.9037  -10.7600 C   0  0  0  0  0  0  0  0  0  0  0  0
   -7.2376    9.9602   -9.7163 C   0  0  0  0  0  0  0  0  0  0  0  0
   -8.0501    9.0051  -10.1352 N   0  0  0  0  0  0  0  0  0  0  0  0
   -8.3958    9.3054  -11.4070 N   0  0  0  0  0  0  0  0  0  0  0  0
   -6.7475    9.9620   -8.3201 C   0  0  0  0  0  0  0  0  0  0  0  0
   -4.1295   13.8024  -11.7597 N   0  0  0  0  0  0  0  0  0  0  0  0
   -5.2699   13.7758  -12.4939 C   0  0  0  0  0  0  0  0  0  0  0  0
   -5.5331   14.6438  -13.3322 O   0  0  0  0  0  0  0  0  0  0  0  0
   -5.5543   10.8395   -8.0653 C   0  0  0  0  0  0  0  0  0  0  0  0
   -4.3016   10.4846   -8.5432 C   0  0  0  0  0  0  0  0  0  0  0  0
   -3.1650   11.1466   -8.1237 C   0  0  0  0  0  0  0  0  0  0  0  0
   -3.2361   12.1735   -7.1780 C   0  0  0  0  0  0  0  0  0  0  0  0
   -4.5099   12.6430   -6.8470 C   0  0  0  0  0  0  0  0  0  0  0  0
   -5.6447   11.9975   -7.3079 C   0  0  0  0  0  0  0  0  0  0  0  0
   -2.0419   12.6513   -6.5033 C   0  0  0  0  0  0  0  0  0  0  0  0
   -1.9531   13.4251   -5.3539 C   0  0  0  0  0  0  0  0  0  0  0  0
   -0.6334   13.5451   -5.0633 N   0  0  0  0  0  0  0  0  0  0  0  0
    0.1497   12.9009   -5.9561 N   0  0  0  0  0  0  0  0  0  0  0  0
   -0.7033   12.3476   -6.8174 C   0  0  0  0  0  0  0  0  0  0  0  0
   -0.0204   14.1969   -3.9280 C   0  0  0  0  0  0  0  0  0  0  0  0
   -3.1176   12.7542  -11.5296 C   0  0  0  0  0  0  0  0  0  0  0  0
   -2.0487   13.8606  -11.4301 C   0  0  0  0  0  0  0  0  0  0  0  0
   -3.1399   14.8850  -11.7716 C   0  0  0  0  0  0  0  0  0  0  0  0
   -1.5259   14.0657  -10.1314 O   0  0  0  0  0  0  0  0  0  0  0  0
   -5.4708   12.3272  -10.1924 H   0  0  0  0  0  0  0  0  0  0  0  0
   -8.7482   11.0095  -13.7013 H   0  0  0  0  0  0  0  0  0  0  0  0
   -7.2452   12.9495  -14.0080 H   0  0  0  0  0  0  0  0  0  0  0  0
   -9.0725    8.7037  -11.8584 H   0  0  0  0  0  0  0  0  0  0  0  0
   -7.5628   10.2406   -7.6522 H   0  0  0  0  0  0  0  0  0  0  0  0
   -6.5196    8.9344   -8.0528 H   0  0  0  0  0  0  0  0  0  0  0  0
   -4.2222    9.6491   -9.2162 H   0  0  0  0  0  0  0  0  0  0  0  0
   -2.2027   10.8312   -8.5019 H   0  0  0  0  0  0  0  0  0  0  0  0
   -4.6119   13.5063   -6.2008 H   0  0  0  0  0  0  0  0  0  0  0  0
   -6.6237   12.3827   -7.0735 H   0  0  0  0  0  0  0  0  0  0  0  0
   -2.7131   13.8738   -4.7355 H   0  0  0  0  0  0  0  0  0  0  0  0
   -0.3277   11.7264   -7.6105 H   0  0  0  0  0  0  0  0  0  0  0  0
   -0.7596   14.8269   -3.4430 H   0  0  0  0  0  0  0  0  0  0  0  0
    0.8119   14.7993   -4.2789 H   0  0  0  0  0  0  0  0  0  0  0  0
    0.3498   13.4633   -3.2151 H   0  0  0  0  0  0  0  0  0  0  0  0
   -3.2641   12.1900  -10.6133 H   0  0  0  0  0  0  0  0  0  0  0  0
   -2.9916   12.0726  -12.3713 H   0  0  0  0  0  0  0  0  0  0  0  0
   -1.2492   13.7874  -12.1658 H   0  0  0  0  0  0  0  0  0  0  0  0
   -3.0455   15.3714  -12.7379 H   0  0  0  0  0  0  0  0  0  0  0  0
   -3.3158   15.6339  -11.0031 H   0  0  0  0  0  0  0  0  0  0  0  0
   -1.1249   13.2383   -9.8369 H   0  0  0  0  0  0  0  0  0  0  0  0
  1  2  2  0
  1  4  1  0
  1 12  1  0
  2  6  1  0
  2 30  1  0
  3  4  2  0
  3  5  1  0
  3 31  1  0
  4 32  1  0
  5  6  2  0
  5  9  1  0
  6  7  1  0
  7  8  2  0
  7 10  1  0
  8  9  1  0
  9 33  1  0
 10 14  1  0
 10 34  1  0
 10 35  1  0
 11 12  1  0
 11 26  1  0
 11 28  1  0
 12 13  2  0
 14 15  2  0
 14 19  1  0
 15 16  1  0
 15 36  1  0
 16 17  2  0
 16 37  1  0
 17 18  1  0
 17 20  1  0
 18 19  2  0
 18 38  1  0
 19 39  1  0
 20 21  2  0
 20 24  1  0
 21 22  1  0
 21 40  1  0
 22 23  1  0
 22 25  1  0
 23 24  2  0
 24 41  1  0
 25 42  1  0
 25 43  1  0
 25 44  1  0
 26 27  1  0
 26 45  1  0
 26 46  1  0
 27 28  1  0
 27 29  1  0
 27 47  1  0
 28 48  1  0
 28 49  1  0
 29 50  1  0
M  END
>  <r_exp_dg>  (12) 
-11.5248

>  <mol_id>  (12) 
11

>  <source_index>  (12) 
15

>  <paff>  (12) 
8.4492922528398342

>  <source_r_exp_dg>  (12) 
-11.524800000000001

>  <smiles>  (12) 
Cn1cc(-c2ccc(Cc3n[nH]c4ccc(C(=O)N5CC(O)C5)cc34)cc2)cn1

>  <aimnet_interaction_kcal_mol>  (12) 
-63.485592701799739

$$$$
cdk8_012
     RDKit          3D

 54 58  0  0  1  0  0  0  0  0999 V2000
   -6.2176   12.7531  -12.1688 C   0  0  0  0  0  0  0  0  0  0  0  0
   -6.3481   12.2469  -10.8913 C   0  0  0  0  0  0  0  0  0  0  0  0
   -7.9361   11.2329  -12.9829 C   0  0  0  0  0  0  0  0  0  0  0  0
   -7.0974   12.3002  -13.1760 C   0  0  0  0  0  0  0  0  0  0  0  0
   -7.8249   10.5374  -11.7752 C   0  0  0  0  0  0  0  0  0  0  0  0
   -7.0953   11.0839  -10.6926 C   0  0  0  0  0  0  0  0  0  0  0  0
   -7.3157   10.1693   -9.6214 C   0  0  0  0  0  0  0  0  0  0  0  0
   -8.0259    9.1333  -10.0294 N   0  0  0  0  0  0  0  0  0  0  0  0
   -8.3205    9.3482  -11.3371 N   0  0  0  0  0  0  0  0  0  0  0  0
   -6.8938   10.3244   -8.2088 C   0  0  0  0  0  0  0  0  0  0  0  0
   -4.0653   13.8378  -11.7935 N   0  0  0  0  0  0  0  0  0  0  0  0
   -5.2037   13.7803  -12.5321 C   0  0  0  0  0  0  0  0  0  0  0  0
   -5.4232   14.5692  -13.4612 O   0  0  0  0  0  0  0  0  0  0  0  0
   -5.6304   11.1273   -8.0233 C   0  0  0  0  0  0  0  0  0  0  0  0
   -4.3984   10.6225   -8.4166 C   0  0  0  0  0  0  0  0  0  0  0  0
   -3.2216   11.2273   -8.0142 C   0  0  0  0  0  0  0  0  0  0  0  0
   -3.2426   12.3291   -7.1529 C   0  0  0  0  0  0  0  0  0  0  0  0
   -4.4771   12.9336   -6.9174 C   0  0  0  0  0  0  0  0  0  0  0  0
   -5.6430   12.3765   -7.4125 C   0  0  0  0  0  0  0  0  0  0  0  0
   -2.0385   12.7870   -6.4779 C   0  0  0  0  0  0  0  0  0  0  0  0
   -1.9214   13.4007   -5.2392 C   0  0  0  0  0  0  0  0  0  0  0  0
   -0.5935   13.5507   -5.0008 N   0  0  0  0  0  0  0  0  0  0  0  0
    0.1641   13.0913   -6.0211 N   0  0  0  0  0  0  0  0  0  0  0  0
   -0.7116   12.6232   -6.9102 C   0  0  0  0  0  0  0  0  0  0  0  0
    0.0629   14.0802   -3.8251 C   0  0  0  0  0  0  0  0  0  0  0  0
   -3.5350   12.7748  -10.9465 C   0  0  0  0  0  0  0  0  0  0  0  0
   -2.0288   12.7217  -11.0406 C   0  0  0  0  0  0  0  0  0  0  0  0
   -1.4965   14.0190  -10.6470 N   0  0  0  0  0  0  0  0  0  0  0  0
   -1.9278   15.0407  -11.5964 C   0  0  0  0  0  0  0  0  0  0  0  0
   -3.4370   15.1354  -11.5697 C   0  0  0  0  0  0  0  0  0  0  0  0
   -5.8804   12.7454  -10.0597 H   0  0  0  0  0  0  0  0  0  0  0  0
   -8.6265   10.9351  -13.7446 H   0  0  0  0  0  0  0  0  0  0  0  0
   -7.0924   12.8339  -14.1155 H   0  0  0  0  0  0  0  0  0  0  0  0
   -8.9355    8.6928  -11.7985 H   0  0  0  0  0  0  0  0  0  0  0  0
   -7.7061   10.8031   -7.6580 H   0  0  0  0  0  0  0  0  0  0  0  0
   -6.7894    9.3403   -7.7606 H   0  0  0  0  0  0  0  0  0  0  0  0
   -4.3660    9.7239   -9.0125 H   0  0  0  0  0  0  0  0  0  0  0  0
   -2.2736   10.8089   -8.3218 H   0  0  0  0  0  0  0  0  0  0  0  0
   -4.5144   13.8257   -6.3063 H   0  0  0  0  0  0  0  0  0  0  0  0
   -6.5737   12.9170   -7.3398 H   0  0  0  0  0  0  0  0  0  0  0  0
   -2.6724   13.7267   -4.5382 H   0  0  0  0  0  0  0  0  0  0  0  0
   -0.3690   12.1732   -7.8241 H   0  0  0  0  0  0  0  0  0  0  0  0
   -0.6907   14.4511   -3.1374 H   0  0  0  0  0  0  0  0  0  0  0  0
    0.7286   14.8863   -4.1227 H   0  0  0  0  0  0  0  0  0  0  0  0
    0.6447   13.3028   -3.3354 H   0  0  0  0  0  0  0  0  0  0  0  0
   -3.9625   11.8213  -11.2345 H   0  0  0  0  0  0  0  0  0  0  0  0
   -3.8000   12.9756   -9.9098 H   0  0  0  0  0  0  0  0  0  0  0  0
   -1.7496   12.4215  -12.0591 H   0  0  0  0  0  0  0  0  0  0  0  0
   -1.6484   11.9682  -10.3587 H   0  0  0  0  0  0  0  0  0  0  0  0
   -0.4858   13.9649  -10.6347 H   0  0  0  0  0  0  0  0  0  0  0  0
   -1.5845   14.8614  -12.6111 H   0  0  0  0  0  0  0  0  0  0  0  0
   -1.5003   15.9938  -11.2985 H   0  0  0  0  0  0  0  0  0  0  0  0
   -3.7986   15.8247  -12.3248 H   0  0  0  0  0  0  0  0  0  0  0  0
   -3.7548   15.4969  -10.5896 H   0  0  0  0  0  0  0  0  0  0  0  0
  1  2  2  0
  1  4  1  0
  1 12  1  0
  2  6  1  0
  2 31  1  0
  3  4  2  0
  3  5  1  0
  3 32  1  0
  4 33  1  0
  5  6  2  0
  5  9  1  0
  6  7  1  0
  7  8  2  0
  7 10  1  0
  8  9  1  0
  9 34  1  0
 10 14  1  0
 10 35  1  0
 10 36  1  0
 11 12  1  0
 11 26  1  0
 11 30  1  0
 12 13  2  0
 14 15  2  0
 14 19  1  0
 15 16  1  0
 15 37  1  0
 16 17  2  0
 16 38  1  0
 17 18  1  0
 17 20  1  0
 18 19  2  0
 18 39  1  0
 19 40  1  0
 20 21  2  0
 20 24  1  0
 21 22  1  0
 21 41  1  0
 22 23  1  0
 22 25  1  0
 23 24  2  0
 24 42  1  0
 25 43  1  0
 25 44  1  0
 25 45  1  0
 26 27  1  0
 26 46  1  0
 26 47  1  0
 27 28  1  0
 27 48  1  0
 27 49  1  0
 28 29  1  0
 28 50  1  0
 29 30  1  0
 29 51  1  0
 29 52  1  0
 30 53  1  0
 30 54  1  0
M  END
>  <r_exp_dg>  (13) 
-11.1913

>  <mol_id>  (13) 
12

>  <source_index>  (13) 
18

>  <paff>  (13) 
8.2047684800939464

>  <source_r_exp_dg>  (13) 
-11.1913

>  <smiles>  (13) 
Cn1cc(-c2ccc(Cc3n[nH]c4ccc(C(=O)N5CCNCC5)cc34)cc2)cn1

>  <aimnet_interaction_kcal_mol>  (13) 
-63.27201648596948

$$$$
cdk8_013
     RDKit          3D

 45 48  0  0  1  0  0  0  0  0999 V2000
   -6.3350   12.7521  -12.1334 C   0  0  0  0  0  0  0  0  0  0  0  0
   -6.2791   12.1180  -10.9069 C   0  0  0  0  0  0  0  0  0  0  0  0
   -8.0775   11.2351  -12.9069 C   0  0  0  0  0  0  0  0  0  0  0  0
   -7.2901   12.3406  -13.0909 C   0  0  0  0  0  0  0  0  0  0  0  0
   -7.8653   10.4810  -11.7509 C   0  0  0  0  0  0  0  0  0  0  0  0
   -7.0295   10.9537  -10.7082 C   0  0  0  0  0  0  0  0  0  0  0  0
   -7.1883    9.9856   -9.6696 C   0  0  0  0  0  0  0  0  0  0  0  0
   -7.9758    9.0021  -10.0723 N   0  0  0  0  0  0  0  0  0  0  0  0
   -8.3617    9.2872  -11.3344 N   0  0  0  0  0  0  0  0  0  0  0  0
   -6.6224    9.9459   -8.3000 C   0  0  0  0  0  0  0  0  0  0  0  0
   -4.2906   13.9727  -11.7957 N   0  0  0  0  0  0  0  0  0  0  0  0
   -3.3596   15.0684  -11.9725 C   0  0  0  0  0  0  0  0  0  0  0  0
   -5.4379   13.8742  -12.5032 C   0  0  0  0  0  0  0  0  0  0  0  0
   -5.7382   14.6669  -13.3991 O   0  0  0  0  0  0  0  0  0  0  0  0
   -5.5233   10.9271   -7.9998 C   0  0  0  0  0  0  0  0  0  0  0  0
   -4.3045   10.8779   -8.6658 C   0  0  0  0  0  0  0  0  0  0  0  0
   -3.2297   11.6423   -8.2544 C   0  0  0  0  0  0  0  0  0  0  0  0
   -3.3259   12.4793   -7.1377 C   0  0  0  0  0  0  0  0  0  0  0  0
   -4.5870   12.6349   -6.5622 C   0  0  0  0  0  0  0  0  0  0  0  0
   -5.6543   11.8623   -6.9835 C   0  0  0  0  0  0  0  0  0  0  0  0
   -2.1452   13.0804   -6.5328 C   0  0  0  0  0  0  0  0  0  0  0  0
   -1.9834   13.5062   -5.2224 C   0  0  0  0  0  0  0  0  0  0  0  0
   -0.6826   13.8649   -5.0830 N   0  0  0  0  0  0  0  0  0  0  0  0
    0.0152   13.7158   -6.2274 N   0  0  0  0  0  0  0  0  0  0  0  0
   -0.8698   13.2482   -7.1066 C   0  0  0  0  0  0  0  0  0  0  0  0
    0.0199   14.2346   -3.8726 C   0  0  0  0  0  0  0  0  0  0  0  0
   -5.6995   12.5338  -10.1005 H   0  0  0  0  0  0  0  0  0  0  0  0
   -8.8005   10.9410  -13.6407 H   0  0  0  0  0  0  0  0  0  0  0  0
   -7.3758   12.9400  -13.9855 H   0  0  0  0  0  0  0  0  0  0  0  0
   -9.0274    8.6691  -11.7793 H   0  0  0  0  0  0  0  0  0  0  0  0
   -7.4329   10.0607   -7.5810 H   0  0  0  0  0  0  0  0  0  0  0  0
   -6.2681    8.9320   -8.1254 H   0  0  0  0  0  0  0  0  0  0  0  0
   -4.0038   13.1863  -11.2388 H   0  0  0  0  0  0  0  0  0  0  0  0
   -2.8435   15.2584  -11.0354 H   0  0  0  0  0  0  0  0  0  0  0  0
   -3.9212   15.9465  -12.2640 H   0  0  0  0  0  0  0  0  0  0  0  0
   -2.6216   14.8788  -12.7485 H   0  0  0  0  0  0  0  0  0  0  0  0
   -4.1890   10.2144   -9.5074 H   0  0  0  0  0  0  0  0  0  0  0  0
   -2.2917   11.5597   -8.7851 H   0  0  0  0  0  0  0  0  0  0  0  0
   -4.7259   13.3450   -5.7592 H   0  0  0  0  0  0  0  0  0  0  0  0
   -6.6006   11.9540   -6.4823 H   0  0  0  0  0  0  0  0  0  0  0  0
   -2.6888   13.5867   -4.4123 H   0  0  0  0  0  0  0  0  0  0  0  0
   -0.5662   13.0354   -8.1177 H   0  0  0  0  0  0  0  0  0  0  0  0
   -0.7012   14.5303   -3.1171 H   0  0  0  0  0  0  0  0  0  0  0  0
    0.6902   15.0583   -4.0970 H   0  0  0  0  0  0  0  0  0  0  0  0
    0.6044   13.3953   -3.4977 H   0  0  0  0  0  0  0  0  0  0  0  0
  1  2  2  0
  1  4  1  0
  1 13  1  0
  2  6  1  0
  2 27  1  0
  3  4  2  0
  3  5  1  0
  3 28  1  0
  4 29  1  0
  5  6  2  0
  5  9  1  0
  6  7  1  0
  7  8  2  0
  7 10  1  0
  8  9  1  0
  9 30  1  0
 10 15  1  0
 10 31  1  0
 10 32  1  0
 11 12  1  0
 11 13  1  0
 11 33  1  0
 12 34  1  0
 12 35  1  0
 12 36  1  0
 13 14  2  0
 15 16  2  0
 15 20  1  0
 16 17  1  0
 16 37  1  0
 17 18  2  0
 17 38  1  0
 18 19  1  0
 18 21  1  0
 19 20  2  0
 19 39  1  0
 20 40  1  0
 21 22  2  0
 21 25  1  0
 22 23  1  0
 22 41  1  0
 23 24  1  0
 23 26  1  0
 24 25  2  0
 25 42  1  0
 26 43  1  0
 26 44  1  0
 26 45  1  0
M  END
>  <r_exp_dg>  (14) 
-10.7371

>  <mol_id>  (14) 
13

>  <source_index>  (14) 
19

>  <paff>  (14) 
7.8717508623676906

>  <source_r_exp_dg>  (14) 
-10.7371

>  <smiles>  (14) 
CNC(=O)c1ccc2[nH]nc(Cc3ccc(-c4cnn(C)c4)cc3)c2c1

>  <aimnet_interaction_kcal_mol>  (14) 
-56.548114745332704

$$$$
cdk8_014
     RDKit          3D

 49 53  0  0  1  0  0  0  0  0999 V2000
   -6.2429   12.7870  -12.0543 C   0  0  0  0  0  0  0  0  0  0  0  0
   -6.2636   12.1431  -10.8307 C   0  0  0  0  0  0  0  0  0  0  0  0
   -7.9826   11.3166  -12.9178 C   0  0  0  0  0  0  0  0  0  0  0  0
   -7.1732   12.4164  -13.0502 C   0  0  0  0  0  0  0  0  0  0  0  0
   -7.8293   10.5361  -11.7670 C   0  0  0  0  0  0  0  0  0  0  0  0
   -7.0297   10.9812  -10.6858 C   0  0  0  0  0  0  0  0  0  0  0  0
   -7.2232    9.9907   -9.6760 C   0  0  0  0  0  0  0  0  0  0  0  0
   -8.0002    9.0189  -10.1234 N   0  0  0  0  0  0  0  0  0  0  0  0
   -8.3488    9.3364  -11.3890 N   0  0  0  0  0  0  0  0  0  0  0  0
   -6.6829    9.9295   -8.2987 C   0  0  0  0  0  0  0  0  0  0  0  0
   -4.0915   13.7253  -11.6746 N   0  0  0  0  0  0  0  0  0  0  0  0
   -5.2432   13.8402  -12.3785 C   0  0  0  0  0  0  0  0  0  0  0  0
   -5.4604   14.7195  -13.2157 O   0  0  0  0  0  0  0  0  0  0  0  0
   -5.5521   10.8737   -7.9958 C   0  0  0  0  0  0  0  0  0  0  0  0
   -5.6761   11.8565   -7.0261 C   0  0  0  0  0  0  0  0  0  0  0  0
   -4.5942   12.6122   -6.6107 C   0  0  0  0  0  0  0  0  0  0  0  0
   -3.3266   12.3928   -7.1489 C   0  0  0  0  0  0  0  0  0  0  0  0
   -3.2309   11.4957   -8.2182 C   0  0  0  0  0  0  0  0  0  0  0  0
   -4.3195   10.7513   -8.6252 C   0  0  0  0  0  0  0  0  0  0  0  0
   -2.1387   12.9929   -6.5600 C   0  0  0  0  0  0  0  0  0  0  0  0
   -1.9857   13.4860   -5.2726 C   0  0  0  0  0  0  0  0  0  0  0  0
   -0.6776   13.8173   -5.1321 N   0  0  0  0  0  0  0  0  0  0  0  0
    0.0328   13.5872   -6.2561 N   0  0  0  0  0  0  0  0  0  0  0  0
   -0.8520   13.0946   -7.1224 C   0  0  0  0  0  0  0  0  0  0  0  0
    0.0185   14.2332   -3.9336 C   0  0  0  0  0  0  0  0  0  0  0  0
   -2.9819   14.6340  -11.6830 C   0  0  0  0  0  0  0  0  0  0  0  0
   -1.6019   14.0834  -11.5267 C   0  0  0  0  0  0  0  0  0  0  0  0
   -2.2167   14.8465  -10.4063 C   0  0  0  0  0  0  0  0  0  0  0  0
   -5.7240   12.5474   -9.9898 H   0  0  0  0  0  0  0  0  0  0  0  0
   -8.6810   11.0551  -13.6881 H   0  0  0  0  0  0  0  0  0  0  0  0
   -7.2185   13.0337  -13.9362 H   0  0  0  0  0  0  0  0  0  0  0  0
   -8.9989    8.7240  -11.8617 H   0  0  0  0  0  0  0  0  0  0  0  0
   -7.4954   10.0784   -7.5881 H   0  0  0  0  0  0  0  0  0  0  0  0
   -6.3655    8.9053   -8.1181 H   0  0  0  0  0  0  0  0  0  0  0  0
   -3.9394   12.8540  -11.1921 H   0  0  0  0  0  0  0  0  0  0  0  0
   -6.6321   11.9989   -6.5568 H   0  0  0  0  0  0  0  0  0  0  0  0
   -4.7288   13.3600   -5.8410 H   0  0  0  0  0  0  0  0  0  0  0  0
   -2.2795   11.3467   -8.7081 H   0  0  0  0  0  0  0  0  0  0  0  0
   -4.2035   10.0387   -9.4247 H   0  0  0  0  0  0  0  0  0  0  0  0
   -2.7003   13.6302   -4.4795 H   0  0  0  0  0  0  0  0  0  0  0  0
   -0.5369   12.8173   -8.1127 H   0  0  0  0  0  0  0  0  0  0  0  0
   -0.7077   14.5526   -3.1928 H   0  0  0  0  0  0  0  0  0  0  0  0
    0.6881   15.0506   -4.1829 H   0  0  0  0  0  0  0  0  0  0  0  0
    0.6031   13.4090   -3.5268 H   0  0  0  0  0  0  0  0  0  0  0  0
   -3.1382   15.4644  -12.3559 H   0  0  0  0  0  0  0  0  0  0  0  0
   -0.8296   14.5666  -12.1028 H   0  0  0  0  0  0  0  0  0  0  0  0
   -1.4779   13.0160  -11.4099 H   0  0  0  0  0  0  0  0  0  0  0  0
   -2.5420   14.3233   -9.5147 H   0  0  0  0  0  0  0  0  0  0  0  0
   -1.8248   15.8313  -10.1962 H   0  0  0  0  0  0  0  0  0  0  0  0
  1  2  2  0
  1  4  1  0
  1 12  1  0
  2  6  1  0
  2 29  1  0
  3  4  2  0
  3  5  1  0
  3 30  1  0
  4 31  1  0
  5  6  2  0
  5  9  1  0
  6  7  1  0
  7  8  2  0
  7 10  1  0
  8  9  1  0
  9 32  1  0
 10 14  1  0
 10 33  1  0
 10 34  1  0
 11 12  1  0
 11 26  1  0
 11 35  1  0
 12 13  2  0
 14 15  2  0
 14 19  1  0
 15 16  1  0
 15 36  1  0
 16 17  2  0
 16 37  1  0
 17 18  1  0
 17 20  1  0
 18 19  2  0
 18 38  1  0
 19 39  1  0
 20 21  2  0
 20 24  1  0
 21 22  1  0
 21 40  1  0
 22 23  1  0
 22 25  1  0
 23 24  2  0
 24 41  1  0
 25 42  1  0
 25 43  1  0
 25 44  1  0
 26 27  1  0
 26 28  1  0
 26 45  1  0
 27 28  1  0
 27 46  1  0
 27 47  1  0
 28 48  1  0
 28 49  1  0
M  END
>  <r_exp_dg>  (15) 
-11.1117

>  <mol_id>  (15) 
14

>  <source_index>  (15) 
20

>  <paff>  (15) 
8.1464216506376292

>  <source_r_exp_dg>  (15) 
-11.111700000000001

>  <smiles>  (15) 
Cn1cc(-c2ccc(Cc3n[nH]c4ccc(C(=O)NC5CC5)cc34)cc2)cn1

>  <aimnet_interaction_kcal_mol>  (15) 
-59.612506597432592

$$$$
cdk8_015
     RDKit          3D

 53 56  0  0  1  0  0  0  0  0999 V2000
   -5.8160   12.7813  -12.1837 C   0  0  0  0  0  0  0  0  0  0  0  0
   -5.8968   12.1974  -10.9274 C   0  0  0  0  0  0  0  0  0  0  0  0
   -7.6449   11.3669  -12.9933 C   0  0  0  0  0  0  0  0  0  0  0  0
   -6.7462   12.3863  -13.1842 C   0  0  0  0  0  0  0  0  0  0  0  0
   -7.5841   10.6567  -11.7914 C   0  0  0  0  0  0  0  0  0  0  0  0
   -6.7888   11.1411  -10.7256 C   0  0  0  0  0  0  0  0  0  0  0  0
   -7.1115   10.2820   -9.6348 C   0  0  0  0  0  0  0  0  0  0  0  0
   -7.9234    9.3110  -10.0225 N   0  0  0  0  0  0  0  0  0  0  0  0
   -8.1942    9.5264  -11.3332 N   0  0  0  0  0  0  0  0  0  0  0  0
   -6.7194   10.4377   -8.2133 C   0  0  0  0  0  0  0  0  0  0  0  0
   -4.8957   13.7811  -12.4720 N   0  0  0  0  0  0  0  0  0  0  0  0
   -5.4437   11.2025   -7.9863 C   0  0  0  0  0  0  0  0  0  0  0  0
   -5.4168   12.3904   -7.2691 C   0  0  0  0  0  0  0  0  0  0  0  0
   -4.2225   12.9419   -6.8416 C   0  0  0  0  0  0  0  0  0  0  0  0
   -3.0042   12.3527   -7.1820 C   0  0  0  0  0  0  0  0  0  0  0  0
   -3.0384   11.2820   -8.0811 C   0  0  0  0  0  0  0  0  0  0  0  0
   -4.2365   10.7165   -8.4677 C   0  0  0  0  0  0  0  0  0  0  0  0
   -1.7606   12.7705   -6.5590 C   0  0  0  0  0  0  0  0  0  0  0  0
   -1.5836   13.5706   -5.4391 C   0  0  0  0  0  0  0  0  0  0  0  0
   -0.2520   13.6176   -5.1966 N   0  0  0  0  0  0  0  0  0  0  0  0
    0.4559   12.8991   -6.0923 N   0  0  0  0  0  0  0  0  0  0  0  0
   -0.4560   12.3738   -6.9083 C   0  0  0  0  0  0  0  0  0  0  0  0
    0.4274   14.1886   -4.0570 C   0  0  0  0  0  0  0  0  0  0  0  0
   -3.5771   13.8042  -11.8561 C   0  0  0  0  0  0  0  0  0  0  0  0
   -2.9746   15.1924  -12.0077 C   0  0  0  0  0  0  0  0  0  0  0  0
   -1.5462   15.2465  -11.7648 N   0  0  0  0  0  0  0  0  0  0  0  0
   -1.0002   15.4273  -10.5406 C   0  0  0  0  0  0  0  0  0  0  0  0
   -1.6328   15.6545   -9.5061 O   0  0  0  0  0  0  0  0  0  0  0  0
    0.5094   15.3203  -10.5251 C   0  0  0  0  0  0  0  0  0  0  0  0
   -5.2801   12.5656  -10.1289 H   0  0  0  0  0  0  0  0  0  0  0  0
   -8.3597   11.1243  -13.7582 H   0  0  0  0  0  0  0  0  0  0  0  0
   -6.7582   12.9273  -14.1258 H   0  0  0  0  0  0  0  0  0  0  0  0
   -8.8435    8.8977  -11.7848 H   0  0  0  0  0  0  0  0  0  0  0  0
   -7.5346   10.9348   -7.6841 H   0  0  0  0  0  0  0  0  0  0  0  0
   -6.6562    9.4503   -7.7613 H   0  0  0  0  0  0  0  0  0  0  0  0
   -4.8555   14.0026  -13.4533 H   0  0  0  0  0  0  0  0  0  0  0  0
   -6.3438   12.8935   -7.0459 H   0  0  0  0  0  0  0  0  0  0  0  0
   -4.2324   13.8251   -6.2159 H   0  0  0  0  0  0  0  0  0  0  0  0
   -2.1087   10.8605   -8.4393 H   0  0  0  0  0  0  0  0  0  0  0  0
   -4.2417    9.8663   -9.1309 H   0  0  0  0  0  0  0  0  0  0  0  0
   -2.2884   14.0882   -4.8109 H   0  0  0  0  0  0  0  0  0  0  0  0
   -0.1441   11.7200   -7.7032 H   0  0  0  0  0  0  0  0  0  0  0  0
   -0.2286   14.9122   -3.5829 H   0  0  0  0  0  0  0  0  0  0  0  0
    1.3342   14.6761   -4.4007 H   0  0  0  0  0  0  0  0  0  0  0  0
    0.6934   13.4131   -3.3404 H   0  0  0  0  0  0  0  0  0  0  0  0
   -2.9274   13.0490  -12.3069 H   0  0  0  0  0  0  0  0  0  0  0  0
   -3.6423   13.5684  -10.7958 H   0  0  0  0  0  0  0  0  0  0  0  0
   -3.4958   15.8614  -11.3340 H   0  0  0  0  0  0  0  0  0  0  0  0
   -3.1288   15.5590  -13.0197 H   0  0  0  0  0  0  0  0  0  0  0  0
   -0.9493   15.4757  -12.5710 H   0  0  0  0  0  0  0  0  0  0  0  0
    0.9216   15.4446  -11.5224 H   0  0  0  0  0  0  0  0  0  0  0  0
    0.8028   14.3391  -10.1490 H   0  0  0  0  0  0  0  0  0  0  0  0
    0.9177   16.0725   -9.8552 H   0  0  0  0  0  0  0  0  0  0  0  0
  1  2  2  0
  1  4  1  0
  1 11  1  0
  2  6  1  0
  2 30  1  0
  3  4  2  0
  3  5  1  0
  3 31  1  0
  4 32  1  0
  5  6  2  0
  5  9  1  0
  6  7  1  0
  7  8  2  0
  7 10  1  0
  8  9  1  0
  9 33  1  0
 10 12  1  0
 10 34  1  0
 10 35  1  0
 11 24  1  0
 11 36  1  0
 12 13  2  0
 12 17  1  0
 13 14  1  0
 13 37  1  0
 14 15  2  0
 14 38  1  0
 15 16  1  0
 15 18  1  0
 16 17  2  0
 16 39  1  0
 17 40  1  0
 18 19  2  0
 18 22  1  0
 19 20  1  0
 19 41  1  0
 20 21  1  0
 20 23  1  0
 21 22  2  0
 22 42  1  0
 23 43  1  0
 23 44  1  0
 23 45  1  0
 24 25  1  0
 24 46  1  0
 24 47  1  0
 25 26  1  0
 25 48  1  0
 25 49  1  0
 26 27  1  0
 26 50  1  0
 27 28  2  0
 27 29  1  0
 29 51  1  0
 29 52  1  0
 29 53  1  0
M  END
>  <r_exp_dg>  (16) 
-8.4639

>  <mol_id>  (16) 
15

>  <source_index>  (16) 
21

>  <paff>  (16) 
6.2052042952730506

>  <source_r_exp_dg>  (16) 
-8.4639000000000006

>  <smiles>  (16) 
CC(=O)NCCNc1ccc2[nH]nc(Cc3ccc(-c4cnn(C)c4)cc3)c2c1

>  <aimnet_interaction_kcal_mol>  (16) 
-68.024044136501914

$$$$
cdk8_016
     RDKit          3D

 47 50  0  0  1  0  0  0  0  0999 V2000
   -2.2133   12.9897  -11.2804 C   0  0  1  0  0  0  0  0  0  0  0  0
   -1.9604   14.4732  -11.5317 C   0  0  0  0  0  0  0  0  0  0  0  0
   -3.6911   12.9665  -10.9361 C   0  0  0  0  0  0  0  0  0  0  0  0
   -1.9851   12.1628  -12.4235 O   0  0  0  0  0  0  0  0  0  0  0  0
   -3.2553   14.9915  -12.1525 C   0  0  0  0  0  0  0  0  0  0  0  0
   -4.2590   13.9806  -11.8242 N   0  0  0  0  0  0  0  0  0  0  0  0
   -6.4401   12.9780  -12.0610 C   0  0  0  0  0  0  0  0  0  0  0  0
   -7.3064   12.4254  -13.0494 C   0  0  0  0  0  0  0  0  0  0  0  0
   -8.0200   11.2648  -12.8041 C   0  0  0  0  0  0  0  0  0  0  0  0
   -6.4733   12.4476  -10.7834 C   0  0  0  0  0  0  0  0  0  0  0  0
   -7.3745   13.0701  -14.2484 O   0  0  0  0  0  0  0  0  0  0  0  0
   -5.4954   14.0814  -12.3731 C   0  0  0  0  0  0  0  0  0  0  0  0
   -5.7910   15.0541  -13.0742 O   0  0  0  0  0  0  0  0  0  0  0  0
   -7.0918   11.2248  -10.5452 C   0  0  0  0  0  0  0  0  0  0  0  0
   -7.8128   10.6097  -11.5911 C   0  0  0  0  0  0  0  0  0  0  0  0
   -8.1912    9.3922  -11.1187 N   0  0  0  0  0  0  0  0  0  0  0  0
   -7.8233    9.2178   -9.8104 N   0  0  0  0  0  0  0  0  0  0  0  0
   -7.1670   10.3099   -9.4562 C   0  0  0  0  0  0  0  0  0  0  0  0
   -6.6656   10.5403   -8.0745 C   0  0  0  0  0  0  0  0  0  0  0  0
   -5.2701   11.1208   -7.9794 C   0  0  0  0  0  0  0  0  0  0  0  0
   -4.2180   10.4892   -8.6224 C   0  0  0  0  0  0  0  0  0  0  0  0
   -2.6527   12.0326   -7.6646 C   0  0  0  0  0  0  0  0  0  0  0  0
   -3.6872   12.7135   -7.0351 C   0  0  0  0  0  0  0  0  0  0  0  0
   -2.9158   10.9252   -8.4451 C   0  0  0  0  0  0  0  0  0  0  0  0
   -4.9873   12.2420   -7.2009 C   0  0  0  0  0  0  0  0  0  0  0  0
   -3.3825   13.9182   -6.2008 C   0  0  0  0  0  0  0  0  0  0  0  0
   -1.5967   12.5711  -10.4917 H   0  0  0  0  0  0  0  0  0  0  0  0
   -1.7778   14.9752  -10.5800 H   0  0  0  0  0  0  0  0  0  0  0  0
   -1.1005   14.6482  -12.1713 H   0  0  0  0  0  0  0  0  0  0  0  0
   -3.8384   13.2560   -9.8964 H   0  0  0  0  0  0  0  0  0  0  0  0
   -4.1186   11.9869  -11.0988 H   0  0  0  0  0  0  0  0  0  0  0  0
   -2.4453   12.5750  -13.1668 H   0  0  0  0  0  0  0  0  0  0  0  0
   -3.1973   15.1113  -13.2294 H   0  0  0  0  0  0  0  0  0  0  0  0
   -3.5778   15.9488  -11.7608 H   0  0  0  0  0  0  0  0  0  0  0  0
   -8.6798   10.8642  -13.5506 H   0  0  0  0  0  0  0  0  0  0  0  0
   -6.0058   12.9766   -9.9676 H   0  0  0  0  0  0  0  0  0  0  0  0
   -8.1256   12.7286  -14.7641 H   0  0  0  0  0  0  0  0  0  0  0  0
   -8.7966    8.7098  -11.5536 H   0  0  0  0  0  0  0  0  0  0  0  0
   -7.3638   11.2121   -7.5735 H   0  0  0  0  0  0  0  0  0  0  0  0
   -6.7269    9.6009   -7.5307 H   0  0  0  0  0  0  0  0  0  0  0  0
   -4.4123    9.6322   -9.2440 H   0  0  0  0  0  0  0  0  0  0  0  0
   -1.6300   12.3612   -7.5251 H   0  0  0  0  0  0  0  0  0  0  0  0
   -2.0938   10.3979   -8.8936 H   0  0  0  0  0  0  0  0  0  0  0  0
   -5.7925   12.7348   -6.6752 H   0  0  0  0  0  0  0  0  0  0  0  0
   -3.3122   14.8181   -6.8168 H   0  0  0  0  0  0  0  0  0  0  0  0
   -2.4265   13.8020   -5.6909 H   0  0  0  0  0  0  0  0  0  0  0  0
   -4.1430   14.0846   -5.4464 H   0  0  0  0  0  0  0  0  0  0  0  0
  1  2  1  0
  1  3  1  0
  1  4  1  0
  1 27  1  1
  2  5  1  0
  2 28  1  0
  2 29  1  0
  3  6  1  0
  3 30  1  0
  3 31  1  0
  4 32  1  0
  5  6  1  0
  5 33  1  0
  5 34  1  0
  6 12  1  0
  7  8  2  0
  7 10  1  0
  7 12  1  0
  8  9  1  0
  8 11  1  0
  9 15  2  0
  9 35  1  0
 10 14  2  0
 10 36  1  0
 11 37  1  0
 12 13  2  0
 14 15  1  0
 14 18  1  0
 15 16  1  0
 16 17  1  0
 16 38  1  0
 17 18  2  0
 18 19  1  0
 19 20  1  0
 19 39  1  0
 19 40  1  0
 20 21  2  0
 20 25  1  0
 21 24  1  0
 21 41  1  0
 22 23  1  0
 22 24  2  0
 22 42  1  0
 23 25  2  0
 23 26  1  0
 24 43  1  0
 25 44  1  0
 26 45  1  0
 26 46  1  0
 26 47  1  0
M  END
>  <r_exp_dg>  (17) 
-11.2832

>  <mol_id>  (17) 
16

>  <source_index>  (17) 
22

>  <paff>  (17) 
8.2721241758016539

>  <source_r_exp_dg>  (17) 
-11.283200000000001

>  <smiles>  (17) 
Cc1cccc(Cc2n[nH]c3cc(O)c(C(=O)N4CC[C@H](O)C4)cc23)c1

>  <aimnet_interaction_kcal_mol>  (17) 
-56.293228097469189

$$$$
cdk8_017
     RDKit          3D

 53 57  0  0  1  0  0  0  0  0999 V2000
   -6.1099   12.7825  -12.1938 C   0  0  0  0  0  0  0  0  0  0  0  0
   -6.2590   12.2888  -10.9121 C   0  0  0  0  0  0  0  0  0  0  0  0
   -7.8486   11.2798  -13.0073 C   0  0  0  0  0  0  0  0  0  0  0  0
   -6.9919   12.3309  -13.2026 C   0  0  0  0  0  0  0  0  0  0  0  0
   -7.7573   10.5925  -11.7933 C   0  0  0  0  0  0  0  0  0  0  0  0
   -7.0243   11.1375  -10.7117 C   0  0  0  0  0  0  0  0  0  0  0  0
   -7.2663   10.2359   -9.6340 C   0  0  0  0  0  0  0  0  0  0  0  0
   -7.9932    9.2096  -10.0347 N   0  0  0  0  0  0  0  0  0  0  0  0
   -8.2778    9.4171  -11.3464 N   0  0  0  0  0  0  0  0  0  0  0  0
   -6.8540   10.3932   -8.2186 C   0  0  0  0  0  0  0  0  0  0  0  0
   -3.9402   13.8738  -11.8556 N   0  0  0  0  0  0  0  0  0  0  0  0
   -5.0960   13.8048  -12.5723 C   0  0  0  0  0  0  0  0  0  0  0  0
   -5.3258   14.5806  -13.5093 O   0  0  0  0  0  0  0  0  0  0  0  0
   -5.5946   11.1972   -8.0201 C   0  0  0  0  0  0  0  0  0  0  0  0
   -5.6132   12.4446   -7.4059 C   0  0  0  0  0  0  0  0  0  0  0  0
   -4.4528   12.9961   -6.8921 C   0  0  0  0  0  0  0  0  0  0  0  0
   -3.2161   12.3908   -7.1158 C   0  0  0  0  0  0  0  0  0  0  0  0
   -3.1862   11.2918   -7.9811 C   0  0  0  0  0  0  0  0  0  0  0  0
   -4.3590   10.6927   -8.4028 C   0  0  0  0  0  0  0  0  0  0  0  0
   -2.0194   12.8490   -6.4253 C   0  0  0  0  0  0  0  0  0  0  0  0
   -1.9157   13.4126   -5.1613 C   0  0  0  0  0  0  0  0  0  0  0  0
   -0.5924   13.5848   -4.9162 N   0  0  0  0  0  0  0  0  0  0  0  0
    0.1753   13.1891   -5.9548 N   0  0  0  0  0  0  0  0  0  0  0  0
   -0.6888   12.7415   -6.8648 C   0  0  0  0  0  0  0  0  0  0  0  0
    0.0495   14.0868   -3.7200 C   0  0  0  0  0  0  0  0  0  0  0  0
   -3.2576   15.1577  -11.7435 C   0  0  0  0  0  0  0  0  0  0  0  0
   -1.7546   14.9990  -11.6795 C   0  0  0  0  0  0  0  0  0  0  0  0
   -1.3840   14.0679  -10.6669 O   0  0  0  0  0  0  0  0  0  0  0  0
   -1.9504   12.7988  -10.9546 C   0  0  0  0  0  0  0  0  0  0  0  0
   -3.4577   12.8730  -10.9118 C   0  0  0  0  0  0  0  0  0  0  0  0
   -5.8097   12.7921  -10.0730 H   0  0  0  0  0  0  0  0  0  0  0  0
   -8.5439   10.9938  -13.7700 H   0  0  0  0  0  0  0  0  0  0  0  0
   -6.9793   12.8562  -14.1468 H   0  0  0  0  0  0  0  0  0  0  0  0
   -8.8944    8.7612  -11.8055 H   0  0  0  0  0  0  0  0  0  0  0  0
   -7.6713   10.8675   -7.6726 H   0  0  0  0  0  0  0  0  0  0  0  0
   -6.7497    9.4084   -7.7722 H   0  0  0  0  0  0  0  0  0  0  0  0
   -6.5429   12.9884   -7.3432 H   0  0  0  0  0  0  0  0  0  0  0  0
   -4.4944   13.8820   -6.2736 H   0  0  0  0  0  0  0  0  0  0  0  0
   -2.2359   10.8687   -8.2741 H   0  0  0  0  0  0  0  0  0  0  0  0
   -4.3213    9.7970   -9.0034 H   0  0  0  0  0  0  0  0  0  0  0  0
   -2.6738   13.6909   -4.4478 H   0  0  0  0  0  0  0  0  0  0  0  0
   -0.3350   12.3545   -7.8037 H   0  0  0  0  0  0  0  0  0  0  0  0
   -0.7131   14.4329   -3.0295 H   0  0  0  0  0  0  0  0  0  0  0  0
    0.7090   14.9070   -3.9906 H   0  0  0  0  0  0  0  0  0  0  0  0
    0.6348   13.3027   -3.2461 H   0  0  0  0  0  0  0  0  0  0  0  0
   -3.5432   15.7733  -12.5890 H   0  0  0  0  0  0  0  0  0  0  0  0
   -3.6027   15.6466  -10.8309 H   0  0  0  0  0  0  0  0  0  0  0  0
   -1.3560   14.7031  -12.6409 H   0  0  0  0  0  0  0  0  0  0  0  0
   -1.2829   15.9431  -11.4268 H   0  0  0  0  0  0  0  0  0  0  0  0
   -1.6440   12.4304  -11.9400 H   0  0  0  0  0  0  0  0  0  0  0  0
   -1.5720   12.1157  -10.2030 H   0  0  0  0  0  0  0  0  0  0  0  0
   -3.8798   11.9016  -11.1449 H   0  0  0  0  0  0  0  0  0  0  0  0
   -3.7532   13.1471   -9.8999 H   0  0  0  0  0  0  0  0  0  0  0  0
  1  2  2  0
  1  4  1  0
  1 12  1  0
  2  6  1  0
  2 31  1  0
  3  4  2  0
  3  5  1  0
  3 32  1  0
  4 33  1  0
  5  6  2  0
  5  9  1  0
  6  7  1  0
  7  8  2  0
  7 10  1  0
  8  9  1  0
  9 34  1  0
 10 14  1  0
 10 35  1  0
 10 36  1  0
 11 12  1  0
 11 26  1  0
 11 30  1  0
 12 13  2  0
 14 15  2  0
 14 19  1  0
 15 16  1  0
 15 37  1  0
 16 17  2  0
 16 38  1  0
 17 18  1  0
 17 20  1  0
 18 19  2  0
 18 39  1  0
 19 40  1  0
 20 21  2  0
 20 24  1  0
 21 22  1  0
 21 41  1  0
 22 23  1  0
 22 25  1  0
 23 24  2  0
 24 42  1  0
 25 43  1  0
 25 44  1  0
 25 45  1  0
 26 27  1  0
 26 46  1  0
 26 47  1  0
 27 28  1  0
 27 48  1  0
 27 49  1  0
 28 29  1  0
 29 30  1  0
 29 50  1  0
 29 51  1  0
 30 52  1  0
 30 53  1  0
M  END
>  <r_exp_dg>  (18) 
-11.5248

>  <mol_id>  (18) 
17

>  <source_index>  (18) 
23

>  <paff>  (18) 
8.4492922528398342

>  <source_r_exp_dg>  (18) 
-11.524800000000001

>  <smiles>  (18) 
Cn1cc(-c2ccc(Cc3n[nH]c4ccc(C(=O)N5CCOCC5)cc34)cc2)cn1

>  <aimnet_interaction_kcal_mol>  (18) 
-63.637096350769205

$$$$
cdk8_018
     RDKit          3D

 42 45  0  0  1  0  0  0  0  0999 V2000
   -6.2250   12.6833  -12.2482 C   0  0  0  0  0  0  0  0  0  0  0  0
   -6.1415   12.0441  -11.0229 C   0  0  0  0  0  0  0  0  0  0  0  0
   -8.0577   11.2410  -12.9524 C   0  0  0  0  0  0  0  0  0  0  0  0
   -7.2308   12.3084  -13.1701 C   0  0  0  0  0  0  0  0  0  0  0  0
   -7.8341   10.4805  -11.8042 C   0  0  0  0  0  0  0  0  0  0  0  0
   -6.9461   10.9220  -10.7901 C   0  0  0  0  0  0  0  0  0  0  0  0
   -7.1191    9.9626   -9.7440 C   0  0  0  0  0  0  0  0  0  0  0  0
   -7.9516    9.0072  -10.1231 N   0  0  0  0  0  0  0  0  0  0  0  0
   -8.3612    9.3062  -11.3737 N   0  0  0  0  0  0  0  0  0  0  0  0
   -6.5437    9.9124   -8.3795 C   0  0  0  0  0  0  0  0  0  0  0  0
   -4.1806   13.9658  -11.9479 N   0  0  0  0  0  0  0  0  0  0  0  0
   -5.3120   13.7782  -12.6740 C   0  0  0  0  0  0  0  0  0  0  0  0
   -5.5719   14.5081  -13.6311 O   0  0  0  0  0  0  0  0  0  0  0  0
   -5.4648   10.9129   -8.0792 C   0  0  0  0  0  0  0  0  0  0  0  0
   -4.2000   10.8072   -8.6425 C   0  0  0  0  0  0  0  0  0  0  0  0
   -3.1461   11.5734   -8.1818 C   0  0  0  0  0  0  0  0  0  0  0  0
   -3.3207   12.4798   -7.1309 C   0  0  0  0  0  0  0  0  0  0  0  0
   -4.6225   12.6921   -6.6758 C   0  0  0  0  0  0  0  0  0  0  0  0
   -5.6691   11.9287   -7.1585 C   0  0  0  0  0  0  0  0  0  0  0  0
   -2.1821   13.1064   -6.4768 C   0  0  0  0  0  0  0  0  0  0  0  0
   -2.1055   13.5816   -5.1766 C   0  0  0  0  0  0  0  0  0  0  0  0
   -0.8246   13.9787   -4.9800 N   0  0  0  0  0  0  0  0  0  0  0  0
   -0.0569   13.8030   -6.0757 N   0  0  0  0  0  0  0  0  0  0  0  0
   -0.8790   13.2784   -6.9834 C   0  0  0  0  0  0  0  0  0  0  0  0
   -0.2162   14.4224   -3.7463 C   0  0  0  0  0  0  0  0  0  0  0  0
   -5.4970   12.4227  -10.2469 H   0  0  0  0  0  0  0  0  0  0  0  0
   -8.8185   10.9737  -13.6571 H   0  0  0  0  0  0  0  0  0  0  0  0
   -7.3209   12.9047  -14.0661 H   0  0  0  0  0  0  0  0  0  0  0  0
   -9.0480    8.7022  -11.8056 H   0  0  0  0  0  0  0  0  0  0  0  0
   -7.3527   10.0088   -7.6570 H   0  0  0  0  0  0  0  0  0  0  0  0
   -6.1711    8.9038   -8.2150 H   0  0  0  0  0  0  0  0  0  0  0  0
   -3.5141   14.6353  -12.3013 H   0  0  0  0  0  0  0  0  0  0  0  0
   -3.8208   13.2339  -11.3604 H   0  0  0  0  0  0  0  0  0  0  0  0
   -4.0332   10.0868   -9.4240 H   0  0  0  0  0  0  0  0  0  0  0  0
   -2.1634   11.4346   -8.6090 H   0  0  0  0  0  0  0  0  0  0  0  0
   -4.8100   13.4406   -5.9189 H   0  0  0  0  0  0  0  0  0  0  0  0
   -6.6679   12.0995   -6.7981 H   0  0  0  0  0  0  0  0  0  0  0  0
   -2.8526   13.6727   -4.4084 H   0  0  0  0  0  0  0  0  0  0  0  0
   -0.5178   13.0338   -7.9680 H   0  0  0  0  0  0  0  0  0  0  0  0
   -0.9881   14.8169   -3.0923 H   0  0  0  0  0  0  0  0  0  0  0  0
    0.5089   15.1957   -3.9766 H   0  0  0  0  0  0  0  0  0  0  0  0
    0.2899   13.6011   -3.2413 H   0  0  0  0  0  0  0  0  0  0  0  0
  1  2  2  0
  1  4  1  0
  1 12  1  0
  2  6  1  0
  2 26  1  0
  3  4  2  0
  3  5  1  0
  3 27  1  0
  4 28  1  0
  5  6  2  0
  5  9  1  0
  6  7  1  0
  7  8  2  0
  7 10  1  0
  8  9  1  0
  9 29  1  0
 10 14  1  0
 10 30  1  0
 10 31  1  0
 11 12  1  0
 11 32  1  0
 11 33  1  0
 12 13  2  0
 14 15  2  0
 14 19  1  0
 15 16  1  0
 15 34  1  0
 16 17  2  0
 16 35  1  0
 17 18  1  0
 17 20  1  0
 18 19  2  0
 18 36  1  0
 19 37  1  0
 20 21  2  0
 20 24  1  0
 21 22  1  0
 21 38  1  0
 22 23  1  0
 22 25  1  0
 23 24  2  0
 24 39  1  0
 25 40  1  0
 25 41  1  0
 25 42  1  0
M  END
>  <r_exp_dg>  (19) 
-9.54958

>  <mol_id>  (19) 
18

>  <source_index>  (19) 
24

>  <paff>  (19) 
7.0011587786185068

>  <source_r_exp_dg>  (19) 
-9.5495800000000006

>  <smiles>  (19) 
Cn1cc(-c2ccc(Cc3n[nH]c4ccc(C(N)=O)cc34)cc2)cn1

>  <aimnet_interaction_kcal_mol>  (19) 
-54.673080531657547

$$$$
cdk8_019
     RDKit          3D

 52 56  0  0  1  0  0  0  0  0999 V2000
   -6.4531   12.7190  -12.2210 C   0  0  0  0  0  0  0  0  0  0  0  0
   -6.4334   12.1803  -10.9480 C   0  0  0  0  0  0  0  0  0  0  0  0
   -8.1748   11.1452  -12.9195 C   0  0  0  0  0  0  0  0  0  0  0  0
   -7.4114   12.2571  -13.1538 C   0  0  0  0  0  0  0  0  0  0  0  0
   -7.9431   10.4485  -11.7332 C   0  0  0  0  0  0  0  0  0  0  0  0
   -7.1624   11.0132  -10.6949 C   0  0  0  0  0  0  0  0  0  0  0  0
   -7.3345   10.1107   -9.6032 C   0  0  0  0  0  0  0  0  0  0  0  0
   -8.0406    9.0565   -9.9762 N   0  0  0  0  0  0  0  0  0  0  0  0
   -8.3871    9.2499  -11.2738 N   0  0  0  0  0  0  0  0  0  0  0  0
   -6.9133   10.2968   -8.1951 C   0  0  0  0  0  0  0  0  0  0  0  0
   -4.3732   13.9528  -11.9953 N   0  0  0  0  0  0  0  0  0  0  0  0
   -5.5187   13.7674  -12.6923 C   0  0  0  0  0  0  0  0  0  0  0  0
   -5.7903   14.4527  -13.6897 O   0  0  0  0  0  0  0  0  0  0  0  0
   -5.6579   11.1093   -8.0217 C   0  0  0  0  0  0  0  0  0  0  0  0
   -4.4257   10.6124   -8.4240 C   0  0  0  0  0  0  0  0  0  0  0  0
   -3.2511   11.2309   -8.0385 C   0  0  0  0  0  0  0  0  0  0  0  0
   -3.2716   12.3307   -7.1752 C   0  0  0  0  0  0  0  0  0  0  0  0
   -4.5084   12.9235   -6.9260 C   0  0  0  0  0  0  0  0  0  0  0  0
   -5.6736   12.3590   -7.4132 C   0  0  0  0  0  0  0  0  0  0  0  0
   -2.0601   12.7946   -6.5161 C   0  0  0  0  0  0  0  0  0  0  0  0
   -1.9252   13.3767   -5.2638 C   0  0  0  0  0  0  0  0  0  0  0  0
   -0.5953   13.5448   -5.0525 N   0  0  0  0  0  0  0  0  0  0  0  0
    0.1456   13.1297   -6.1029 N   0  0  0  0  0  0  0  0  0  0  0  0
   -0.7413   12.6703   -6.9857 C   0  0  0  0  0  0  0  0  0  0  0  0
    0.0793   14.0595   -3.8804 C   0  0  0  0  0  0  0  0  0  0  0  0
   -3.5431   15.1212  -12.3091 C   0  0  0  0  0  0  0  0  0  0  0  0
   -2.1812   14.8266  -11.6904 C   0  0  0  0  0  0  0  0  0  0  0  0
   -2.1538   13.3070  -11.5580 C   0  0  0  0  0  0  0  0  0  0  0  0
   -3.5990   12.9596  -11.2416 C   0  0  0  0  0  0  0  0  0  0  0  0
   -5.8597   12.6518  -10.1683 H   0  0  0  0  0  0  0  0  0  0  0  0
   -8.8939   10.8009  -13.6335 H   0  0  0  0  0  0  0  0  0  0  0  0
   -7.5155   12.8146  -14.0733 H   0  0  0  0  0  0  0  0  0  0  0  0
   -9.0195    8.5886  -11.7073 H   0  0  0  0  0  0  0  0  0  0  0  0
   -7.7291   10.7853   -7.6583 H   0  0  0  0  0  0  0  0  0  0  0  0
   -6.8081    9.3229   -7.7256 H   0  0  0  0  0  0  0  0  0  0  0  0
   -4.3916    9.7128   -9.0182 H   0  0  0  0  0  0  0  0  0  0  0  0
   -2.3031   10.8330   -8.3731 H   0  0  0  0  0  0  0  0  0  0  0  0
   -4.5473   13.8124   -6.3108 H   0  0  0  0  0  0  0  0  0  0  0  0
   -6.6078   12.8918   -7.3301 H   0  0  0  0  0  0  0  0  0  0  0  0
   -2.6659   13.6733   -4.5389 H   0  0  0  0  0  0  0  0  0  0  0  0
   -0.4107   12.2593   -7.9232 H   0  0  0  0  0  0  0  0  0  0  0  0
    0.7254   14.8822   -4.1753 H   0  0  0  0  0  0  0  0  0  0  0  0
    0.6839   13.2812   -3.4203 H   0  0  0  0  0  0  0  0  0  0  0  0
   -0.6632   14.4034   -3.1673 H   0  0  0  0  0  0  0  0  0  0  0  0
   -3.4853   15.2337  -13.3861 H   0  0  0  0  0  0  0  0  0  0  0  0
   -4.0236   16.0180  -11.9268 H   0  0  0  0  0  0  0  0  0  0  0  0
   -2.1111   15.2830  -10.7024 H   0  0  0  0  0  0  0  0  0  0  0  0
   -1.3746   15.2196  -12.3018 H   0  0  0  0  0  0  0  0  0  0  0  0
   -1.8726   12.8409  -12.4986 H   0  0  0  0  0  0  0  0  0  0  0  0
   -1.4629   12.9420  -10.8031 H   0  0  0  0  0  0  0  0  0  0  0  0
   -3.7856   13.0760  -10.1751 H   0  0  0  0  0  0  0  0  0  0  0  0
   -3.8753   11.9498  -11.5260 H   0  0  0  0  0  0  0  0  0  0  0  0
  1  2  2  0
  1  4  1  0
  1 12  1  0
  2  6  1  0
  2 30  1  0
  3  4  2  0
  3  5  1  0
  3 31  1  0
  4 32  1  0
  5  6  2  0
  5  9  1  0
  6  7  1  0
  7  8  2  0
  7 10  1  0
  8  9  1  0
  9 33  1  0
 10 14  1  0
 10 34  1  0
 10 35  1  0
 11 12  1  0
 11 26  1  0
 11 29  1  0
 12 13  2  0
 14 15  2  0
 14 19  1  0
 15 16  1  0
 15 36  1  0
 16 17  2  0
 16 37  1  0
 17 18  1  0
 17 20  1  0
 18 19  2  0
 18 38  1  0
 19 39  1  0
 20 21  2  0
 20 24  1  0
 21 22  1  0
 21 40  1  0
 22 23  1  0
 22 25  1  0
 23 24  2  0
 24 41  1  0
 25 42  1  0
 25 43  1  0
 25 44  1  0
 26 27  1  0
 26 45  1  0
 26 46  1  0
 27 28  1  0
 27 47  1  0
 27 48  1  0
 28 29  1  0
 28 49  1  0
 28 50  1  0
 29 51  1  0
 29 52  1  0
M  END
>  <r_exp_dg>  (20) 
-11.5248

>  <mol_id>  (20) 
19

>  <source_index>  (20) 
25

>  <paff>  (20) 
8.4492922528398342

>  <source_r_exp_dg>  (20) 
-11.524800000000001

>  <smiles>  (20) 
Cn1cc(-c2ccc(Cc3n[nH]c4ccc(C(=O)N5CCCC5)cc34)cc2)cn1

>  <aimnet_interaction_kcal_mol>  (20) 
-62.918928046006371

$$$$
cdk8_020
     RDKit          3D

 49 53  0  0  1  0  0  0  0  0999 V2000
   -6.1561   12.7030  -12.0406 C   0  0  0  0  0  0  0  0  0  0  0  0
   -6.1391   12.0296  -10.8351 C   0  0  0  0  0  0  0  0  0  0  0  0
   -7.9470   11.2713  -12.8843 C   0  0  0  0  0  0  0  0  0  0  0  0
   -7.1200   12.3568  -13.0174 C   0  0  0  0  0  0  0  0  0  0  0  0
   -7.7900   10.4845  -11.7403 C   0  0  0  0  0  0  0  0  0  0  0  0
   -6.9552   10.9054  -10.6752 C   0  0  0  0  0  0  0  0  0  0  0  0
   -7.1728    9.9313   -9.6585 C   0  0  0  0  0  0  0  0  0  0  0  0
   -7.9917    8.9845  -10.0867 N   0  0  0  0  0  0  0  0  0  0  0  0
   -8.3427    9.3040  -11.3518 N   0  0  0  0  0  0  0  0  0  0  0  0
   -6.6140    9.8661   -8.2884 C   0  0  0  0  0  0  0  0  0  0  0  0
   -5.1940   13.7731  -12.3146 C   0  0  0  0  0  0  0  0  0  0  0  0
   -5.5189   10.8488   -7.9777 C   0  0  0  0  0  0  0  0  0  0  0  0
   -5.6957   11.8427   -7.0282 C   0  0  0  0  0  0  0  0  0  0  0  0
   -4.6430   12.6205   -6.5813 C   0  0  0  0  0  0  0  0  0  0  0  0
   -3.3552   12.4243   -7.0793 C   0  0  0  0  0  0  0  0  0  0  0  0
   -3.2081   11.5263   -8.1408 C   0  0  0  0  0  0  0  0  0  0  0  0
   -4.2677   10.7550   -8.5746 C   0  0  0  0  0  0  0  0  0  0  0  0
   -2.2004   13.0491   -6.4516 C   0  0  0  0  0  0  0  0  0  0  0  0
   -2.1106   13.5697   -5.1697 C   0  0  0  0  0  0  0  0  0  0  0  0
   -0.8227   13.9530   -4.9919 N   0  0  0  0  0  0  0  0  0  0  0  0
   -0.0612   13.7226   -6.0821 N   0  0  0  0  0  0  0  0  0  0  0  0
   -0.8952   13.1767   -6.9665 C   0  0  0  0  0  0  0  0  0  0  0  0
   -0.2014   14.4253   -3.7758 C   0  0  0  0  0  0  0  0  0  0  0  0
   -5.6637   14.8242  -13.0122 N   0  0  0  0  0  0  0  0  0  0  0  0
   -4.8157   15.8517  -13.1527 C   0  0  0  0  0  0  0  0  0  0  0  0
   -3.4987   15.8449  -12.7791 C   0  0  0  0  0  0  0  0  0  0  0  0
   -2.9823   14.7128  -12.1472 C   0  0  0  0  0  0  0  0  0  0  0  0
   -3.8839   13.6828  -11.8555 C   0  0  0  0  0  0  0  0  0  0  0  0
   -1.6453   14.6481  -11.8321 N   0  0  0  0  0  0  0  0  0  0  0  0
   -5.5155   12.3765  -10.0310 H   0  0  0  0  0  0  0  0  0  0  0  0
   -8.6608   11.0265  -13.6458 H   0  0  0  0  0  0  0  0  0  0  0  0
   -7.1911   13.0026  -13.8831 H   0  0  0  0  0  0  0  0  0  0  0  0
   -9.0169    8.7113  -11.8156 H   0  0  0  0  0  0  0  0  0  0  0  0
   -6.2514    8.8533   -8.1326 H   0  0  0  0  0  0  0  0  0  0  0  0
   -7.4245    9.9664   -7.5671 H   0  0  0  0  0  0  0  0  0  0  0  0
   -6.6727   11.9787   -6.6030 H   0  0  0  0  0  0  0  0  0  0  0  0
   -4.8144   13.3691   -5.8206 H   0  0  0  0  0  0  0  0  0  0  0  0
   -2.2408   11.3989   -8.6045 H   0  0  0  0  0  0  0  0  0  0  0  0
   -4.1180   10.0562   -9.3798 H   0  0  0  0  0  0  0  0  0  0  0  0
   -2.8512   13.6980   -4.4004 H   0  0  0  0  0  0  0  0  0  0  0  0
   -0.5351   12.8789   -7.9363 H   0  0  0  0  0  0  0  0  0  0  0  0
    0.5496   15.1634   -4.0364 H   0  0  0  0  0  0  0  0  0  0  0  0
    0.2765   13.6085   -3.2368 H   0  0  0  0  0  0  0  0  0  0  0  0
   -0.9599   14.8728   -3.1406 H   0  0  0  0  0  0  0  0  0  0  0  0
   -5.2181   16.7618  -13.5778 H   0  0  0  0  0  0  0  0  0  0  0  0
   -2.8559   16.6604  -13.0548 H   0  0  0  0  0  0  0  0  0  0  0  0
   -3.5592   12.8143  -11.2976 H   0  0  0  0  0  0  0  0  0  0  0  0
   -1.3166   13.7216  -11.6116 H   0  0  0  0  0  0  0  0  0  0  0  0
   -1.0238   15.1446  -12.4740 H   0  0  0  0  0  0  0  0  0  0  0  0
  1  2  2  0
  1  4  1  0
  1 11  1  0
  2  6  1  0
  2 30  1  0
  3  4  2  0
  3  5  1  0
  3 31  1  0
  4 32  1  0
  5  6  2  0
  5  9  1  0
  6  7  1  0
  7  8  2  0
  7 10  1  0
  8  9  1  0
  9 33  1  0
 10 12  1  0
 10 34  1  0
 10 35  1  0
 11 24  2  0
 11 28  1  0
 12 13  2  0
 12 17  1  0
 13 14  1  0
 13 36  1  0
 14 15  2  0
 14 37  1  0
 15 16  1  0
 15 18  1  0
 16 17  2  0
 16 38  1  0
 17 39  1  0
 18 19  2  0
 18 22  1  0
 19 20  1  0
 19 40  1  0
 20 21  1  0
 20 23  1  0
 21 22  2  0
 22 41  1  0
 23 42  1  0
 23 43  1  0
 23 44  1  0
 24 25  1  0
 25 26  2  0
 25 45  1  0
 26 27  1  0
 26 46  1  0
 27 28  2  0
 27 29  1  0
 28 47  1  0
 29 48  1  0
 29 49  1  0
M  END
>  <r_exp_dg>  (21) 
-9.01441

>  <mol_id>  (21) 
20

>  <source_index>  (21) 
26

>  <paff>  (21) 
6.6088029016847134

>  <source_r_exp_dg>  (21) 
-9.0144099999999998

>  <smiles>  (21) 
Cn1cc(-c2ccc(Cc3n[nH]c4ccc(-c5cc(N)ccn5)cc34)cc2)cn1

>  <aimnet_interaction_kcal_mol>  (21) 
-65.507182921972273

$$$$
cdk8_021
     RDKit          3D

 43 45  0  0  1  0  0  0  0  0999 V2000
   -6.1302   12.7877  -12.2962 C   0  0  0  0  0  0  0  0  0  0  0  0
   -6.1140   12.2769  -11.0129 C   0  0  0  0  0  0  0  0  0  0  0  0
   -7.9049   11.2496  -12.9436 C   0  0  0  0  0  0  0  0  0  0  0  0
   -7.0838   12.3131  -13.2221 C   0  0  0  0  0  0  0  0  0  0  0  0
   -7.7142   10.5947  -11.7253 C   0  0  0  0  0  0  0  0  0  0  0  0
   -6.9069   11.1689  -10.7167 C   0  0  0  0  0  0  0  0  0  0  0  0
   -7.1343   10.3560   -9.5684 C   0  0  0  0  0  0  0  0  0  0  0  0
   -7.8917    9.3165   -9.8752 N   0  0  0  0  0  0  0  0  0  0  0  0
   -8.2208    9.4493  -11.1929 N   0  0  0  0  0  0  0  0  0  0  0  0
   -6.6948   10.6585   -8.1790 C   0  0  0  0  0  0  0  0  0  0  0  0
   -4.0500   13.9300  -12.0207 N   0  0  0  0  0  0  0  0  0  0  0  0
   -3.1155   15.0302  -12.1208 C   0  0  0  0  0  0  0  0  0  0  0  0
   -5.1872   13.8418  -12.7409 C   0  0  0  0  0  0  0  0  0  0  0  0
   -5.4515   14.5760  -13.6973 O   0  0  0  0  0  0  0  0  0  0  0  0
   -5.3393   11.3170   -8.1149 C   0  0  0  0  0  0  0  0  0  0  0  0
   -5.1556   12.6246   -7.6856 C   0  0  0  0  0  0  0  0  0  0  0  0
   -3.8843   13.1805   -7.5571 C   0  0  0  0  0  0  0  0  0  0  0  0
   -2.7644   12.3853   -7.8291 C   0  0  0  0  0  0  0  0  0  0  0  0
   -2.9578   11.1216   -8.3607 C   0  0  0  0  0  0  0  0  0  0  0  0
   -4.2257   10.6015   -8.5206 C   0  0  0  0  0  0  0  0  0  0  0  0
   -3.8270   14.5098   -7.2139 O   0  0  0  0  0  0  0  0  0  0  0  0
   -2.7347   14.9579   -6.4076 C   0  0  0  0  0  0  0  0  0  0  0  0
   -1.5024   12.8674   -7.5646 O   0  0  0  0  0  0  0  0  0  0  0  0
   -0.6496   11.9341   -6.8812 C   0  0  0  0  0  0  0  0  0  0  0  0
   -5.5359   12.7410  -10.2328 H   0  0  0  0  0  0  0  0  0  0  0  0
   -8.6486   10.9317  -13.6479 H   0  0  0  0  0  0  0  0  0  0  0  0
   -7.1494   12.8257  -14.1717 H   0  0  0  0  0  0  0  0  0  0  0  0
   -8.8721    8.7931  -11.6014 H   0  0  0  0  0  0  0  0  0  0  0  0
   -7.4338   11.3065   -7.7062 H   0  0  0  0  0  0  0  0  0  0  0  0
   -6.7109    9.7344   -7.6065 H   0  0  0  0  0  0  0  0  0  0  0  0
   -3.8686   13.2161  -11.3343 H   0  0  0  0  0  0  0  0  0  0  0  0
   -2.1084   14.6873  -11.8979 H   0  0  0  0  0  0  0  0  0  0  0  0
   -3.3808   15.8317  -11.4336 H   0  0  0  0  0  0  0  0  0  0  0  0
   -3.1273   15.4302  -13.1268 H   0  0  0  0  0  0  0  0  0  0  0  0
   -6.0071   13.2540   -7.4605 H   0  0  0  0  0  0  0  0  0  0  0  0
   -2.0932   10.5372   -8.6307 H   0  0  0  0  0  0  0  0  0  0  0  0
   -4.3618    9.6178   -8.9430 H   0  0  0  0  0  0  0  0  0  0  0  0
   -2.9879   15.9605   -6.0766 H   0  0  0  0  0  0  0  0  0  0  0  0
   -1.8101   14.9852   -6.9717 H   0  0  0  0  0  0  0  0  0  0  0  0
   -2.6071   14.3119   -5.5378 H   0  0  0  0  0  0  0  0  0  0  0  0
    0.1437   12.5178   -6.4157 H   0  0  0  0  0  0  0  0  0  0  0  0
   -0.2229   11.2204   -7.5773 H   0  0  0  0  0  0  0  0  0  0  0  0
   -1.2060   11.3919   -6.1167 H   0  0  0  0  0  0  0  0  0  0  0  0
  1  2  2  0
  1  4  1  0
  1 13  1  0
  2  6  1  0
  2 25  1  0
  3  4  2  0
  3  5  1  0
  3 26  1  0
  4 27  1  0
  5  6  2  0
  5  9  1  0
  6  7  1  0
  7  8  2  0
  7 10  1  0
  8  9  1  0
  9 28  1  0
 10 15  1  0
 10 29  1  0
 10 30  1  0
 11 12  1  0
 11 13  1  0
 11 31  1  0
 12 32  1  0
 12 33  1  0
 12 34  1  0
 13 14  2  0
 15 16  2  0
 15 20  1  0
 16 17  1  0
 16 35  1  0
 17 18  2  0
 17 21  1  0
 18 19  1  0
 18 23  1  0
 19 20  2  0
 19 36  1  0
 20 37  1  0
 21 22  1  0
 22 38  1  0
 22 39  1  0
 22 40  1  0
 23 24  1  0
 24 41  1  0
 24 42  1  0
 24 43  1  0
M  END
>  <r_exp_dg>  (22) 
-7.68793

>  <mol_id>  (22) 
21

>  <source_index>  (22) 
27

>  <paff>  (22) 
5.6363158911204403

>  <source_r_exp_dg>  (22) 
-7.6879299999999997

>  <smiles>  (22) 
CNC(=O)c1ccc2[nH]nc(Cc3ccc(OC)c(OC)c3)c2c1

>  <aimnet_interaction_kcal_mol>  (22) 
-50.984655227275631

$$$$
cdk8_022
     RDKit          3D

 49 53  0  0  1  0  0  0  0  0999 V2000
   -6.4800   12.7548  -12.2795 C   0  0  0  0  0  0  0  0  0  0  0  0
   -6.4251   12.2229  -11.0018 C   0  0  0  0  0  0  0  0  0  0  0  0
   -8.1938   11.1542  -12.9387 C   0  0  0  0  0  0  0  0  0  0  0  0
   -7.4482   12.2707  -13.1952 C   0  0  0  0  0  0  0  0  0  0  0  0
   -7.9337   10.4708  -11.7505 C   0  0  0  0  0  0  0  0  0  0  0  0
   -7.1434   11.0533  -10.7298 C   0  0  0  0  0  0  0  0  0  0  0  0
   -7.3008   10.1639   -9.6230 C   0  0  0  0  0  0  0  0  0  0  0  0
   -8.0022    9.0991   -9.9753 N   0  0  0  0  0  0  0  0  0  0  0  0
   -8.3628    9.2760  -11.2724 N   0  0  0  0  0  0  0  0  0  0  0  0
   -6.8852   10.3763   -8.2173 C   0  0  0  0  0  0  0  0  0  0  0  0
   -4.6133   14.2487  -11.9241 N   0  0  0  0  0  0  0  0  0  0  0  0
   -5.5709   13.7972  -12.7816 C   0  0  0  0  0  0  0  0  0  0  0  0
   -5.6725   14.2756  -13.9154 O   0  0  0  0  0  0  0  0  0  0  0  0
   -5.6127   11.1612   -8.0468 C   0  0  0  0  0  0  0  0  0  0  0  0
   -4.3953   10.6363   -8.4569 C   0  0  0  0  0  0  0  0  0  0  0  0
   -3.2022   11.1989   -8.0414 C   0  0  0  0  0  0  0  0  0  0  0  0
   -3.1935   12.2889   -7.1649 C   0  0  0  0  0  0  0  0  0  0  0  0
   -4.4122   12.9237   -6.9200 C   0  0  0  0  0  0  0  0  0  0  0  0
   -5.5935   12.4038   -7.4223 C   0  0  0  0  0  0  0  0  0  0  0  0
   -1.9774   12.7039   -6.4858 C   0  0  0  0  0  0  0  0  0  0  0  0
   -1.8522   13.4067   -5.2950 C   0  0  0  0  0  0  0  0  0  0  0  0
   -0.5243   13.4922   -5.0300 N   0  0  0  0  0  0  0  0  0  0  0  0
    0.2266   12.9018   -5.9846 N   0  0  0  0  0  0  0  0  0  0  0  0
   -0.6517   12.4095   -6.8571 C   0  0  0  0  0  0  0  0  0  0  0  0
    0.1350   14.0660   -3.8774 C   0  0  0  0  0  0  0  0  0  0  0  0
   -3.7382   13.5365  -10.9852 C   0  0  0  0  0  0  0  0  0  0  0  0
   -2.6404   14.5465  -11.3385 C   0  0  0  0  0  0  0  0  0  0  0  0
   -3.6083   15.2505  -12.2970 C   0  0  0  0  0  0  0  0  0  0  0  0
   -2.2106   15.2914  -10.2695 F   0  0  0  0  0  0  0  0  0  0  0  0
   -1.5308   14.0005  -11.8981 F   0  0  0  0  0  0  0  0  0  0  0  0
   -5.8595   12.7036  -10.2241 H   0  0  0  0  0  0  0  0  0  0  0  0
   -8.9238   10.7958  -13.6345 H   0  0  0  0  0  0  0  0  0  0  0  0
   -7.5723   12.8081  -14.1244 H   0  0  0  0  0  0  0  0  0  0  0  0
   -8.9907    8.6052  -11.6971 H   0  0  0  0  0  0  0  0  0  0  0  0
   -7.6932   10.8958   -7.6993 H   0  0  0  0  0  0  0  0  0  0  0  0
   -6.8050    9.4117   -7.7247 H   0  0  0  0  0  0  0  0  0  0  0  0
   -4.3890    9.7523   -9.0750 H   0  0  0  0  0  0  0  0  0  0  0  0
   -2.2666   10.7580   -8.3593 H   0  0  0  0  0  0  0  0  0  0  0  0
   -4.4321   13.8099   -6.2989 H   0  0  0  0  0  0  0  0  0  0  0  0
   -6.5097   12.9668   -7.3323 H   0  0  0  0  0  0  0  0  0  0  0  0
   -2.5987   13.8273   -4.6398 H   0  0  0  0  0  0  0  0  0  0  0  0
   -0.3078   11.8423   -7.7055 H   0  0  0  0  0  0  0  0  0  0  0  0
   -0.6137   14.5031   -3.2242 H   0  0  0  0  0  0  0  0  0  0  0  0
    0.8358   14.8283   -4.2086 H   0  0  0  0  0  0  0  0  0  0  0  0
    0.6793   13.2963   -3.3356 H   0  0  0  0  0  0  0  0  0  0  0  0
   -3.5082   12.5071  -11.2426 H   0  0  0  0  0  0  0  0  0  0  0  0
   -4.0647   13.6091   -9.9566 H   0  0  0  0  0  0  0  0  0  0  0  0
   -3.8804   16.2704  -12.0430 H   0  0  0  0  0  0  0  0  0  0  0  0
   -3.3221   15.2028  -13.3410 H   0  0  0  0  0  0  0  0  0  0  0  0
  1  2  2  0
  1  4  1  0
  1 12  1  0
  2  6  1  0
  2 31  1  0
  3  4  2  0
  3  5  1  0
  3 32  1  0
  4 33  1  0
  5  6  2  0
  5  9  1  0
  6  7  1  0
  7  8  2  0
  7 10  1  0
  8  9  1  0
  9 34  1  0
 10 14  1  0
 10 35  1  0
 10 36  1  0
 11 12  1  0
 11 26  1  0
 11 28  1  0
 12 13  2  0
 14 15  2  0
 14 19  1  0
 15 16  1  0
 15 37  1  0
 16 17  2  0
 16 38  1  0
 17 18  1  0
 17 20  1  0
 18 19  2  0
 18 39  1  0
 19 40  1  0
 20 21  2  0
 20 24  1  0
 21 22  1  0
 21 41  1  0
 22 23  1  0
 22 25  1  0
 23 24  2  0
 24 42  1  0
 25 43  1  0
 25 44  1  0
 25 45  1  0
 26 27  1  0
 26 46  1  0
 26 47  1  0
 27 28  1  0
 27 29  1  0
 27 30  1  0
 28 48  1  0
 28 49  1  0
M  END
>  <r_exp_dg>  (23) 
-11.1913

>  <mol_id>  (23) 
22

>  <source_index>  (23) 
28

>  <paff>  (23) 
8.2047684800939464

>  <source_r_exp_dg>  (23) 
-11.1913

>  <smiles>  (23) 
Cn1cc(-c2ccc(Cc3n[nH]c4ccc(C(=O)N5CC(F)(F)C5)cc34)cc2)cn1

>  <aimnet_interaction_kcal_mol>  (23) 
-59.507947285197915

$$$$
cdk8_023
     RDKit          3D

 46 49  0  0  1  0  0  0  0  0999 V2000
   -5.8445   12.4562  -12.2511 C   0  0  0  0  0  0  0  0  0  0  0  0
   -5.8743   11.8825  -11.0008 C   0  0  0  0  0  0  0  0  0  0  0  0
   -7.8356   11.2494  -12.9460 C   0  0  0  0  0  0  0  0  0  0  0  0
   -6.8806   12.2075  -13.1747 C   0  0  0  0  0  0  0  0  0  0  0  0
   -7.7145   10.4846  -11.7834 C   0  0  0  0  0  0  0  0  0  0  0  0
   -6.8170   10.8719  -10.7574 C   0  0  0  0  0  0  0  0  0  0  0  0
   -7.1025    9.9683   -9.6919 C   0  0  0  0  0  0  0  0  0  0  0  0
   -7.9937    9.0637  -10.0730 N   0  0  0  0  0  0  0  0  0  0  0  0
   -8.3449    9.3615  -11.3409 N   0  0  0  0  0  0  0  0  0  0  0  0
   -6.5761    9.9245   -8.3076 C   0  0  0  0  0  0  0  0  0  0  0  0
   -4.5001   14.7518  -11.9054 S   0  0  0  0  0  0  0  0  0  0  0  0
   -2.7358   14.9522  -11.9179 C   0  0  0  0  0  0  0  0  0  0  0  0
   -4.7199   13.2335  -12.6762 N   0  0  0  0  0  0  0  0  0  0  0  0
   -5.4819   10.8973   -7.9652 C   0  0  0  0  0  0  0  0  0  0  0  0
   -4.2382   10.8229   -8.5786 C   0  0  0  0  0  0  0  0  0  0  0  0
   -3.1758   11.5859   -8.1427 C   0  0  0  0  0  0  0  0  0  0  0  0
   -3.3084   12.4492   -7.0520 C   0  0  0  0  0  0  0  0  0  0  0  0
   -4.5836   12.6113   -6.5117 C   0  0  0  0  0  0  0  0  0  0  0  0
   -5.6405   11.8380   -6.9571 C   0  0  0  0  0  0  0  0  0  0  0  0
   -2.1417   13.0660   -6.4380 C   0  0  0  0  0  0  0  0  0  0  0  0
   -1.9812   13.4587   -5.1179 C   0  0  0  0  0  0  0  0  0  0  0  0
   -0.6827   13.8225   -4.9697 N   0  0  0  0  0  0  0  0  0  0  0  0
    0.0107   13.7248   -6.1222 N   0  0  0  0  0  0  0  0  0  0  0  0
   -0.8727   13.2712   -7.0119 C   0  0  0  0  0  0  0  0  0  0  0  0
    0.0076   14.2095   -3.7578 C   0  0  0  0  0  0  0  0  0  0  0  0
   -5.1446   15.7505  -12.7968 O   0  0  0  0  0  0  0  0  0  0  0  0
   -4.8944   14.6034  -10.4924 O   0  0  0  0  0  0  0  0  0  0  0  0
   -5.2016   12.2248  -10.2390 H   0  0  0  0  0  0  0  0  0  0  0  0
   -8.6184   11.0851  -13.6606 H   0  0  0  0  0  0  0  0  0  0  0  0
   -6.9379   12.7957  -14.0831 H   0  0  0  0  0  0  0  0  0  0  0  0
   -9.0464    8.7860  -11.7839 H   0  0  0  0  0  0  0  0  0  0  0  0
   -6.2302    8.9088   -8.1255 H   0  0  0  0  0  0  0  0  0  0  0  0
   -7.4103   10.0362   -7.6166 H   0  0  0  0  0  0  0  0  0  0  0  0
   -2.5129   15.6899  -11.1581 H   0  0  0  0  0  0  0  0  0  0  0  0
   -2.4151   15.3103  -12.8893 H   0  0  0  0  0  0  0  0  0  0  0  0
   -2.2870   13.9962  -11.6719 H   0  0  0  0  0  0  0  0  0  0  0  0
   -4.8067   13.4633  -13.6561 H   0  0  0  0  0  0  0  0  0  0  0  0
   -4.0990   10.1543   -9.4106 H   0  0  0  0  0  0  0  0  0  0  0  0
   -2.2181   11.4855   -8.6327 H   0  0  0  0  0  0  0  0  0  0  0  0
   -4.7395   13.3294   -5.7189 H   0  0  0  0  0  0  0  0  0  0  0  0
   -6.6012   11.9369   -6.4846 H   0  0  0  0  0  0  0  0  0  0  0  0
   -2.6873   13.5058   -4.3055 H   0  0  0  0  0  0  0  0  0  0  0  0
   -0.5721   13.0955   -8.0315 H   0  0  0  0  0  0  0  0  0  0  0  0
    0.9759   13.7219   -3.7440 H   0  0  0  0  0  0  0  0  0  0  0  0
   -0.5604   13.8760   -2.8956 H   0  0  0  0  0  0  0  0  0  0  0  0
    0.1451   15.2883   -3.7221 H   0  0  0  0  0  0  0  0  0  0  0  0
  1  2  2  0
  1  4  1  0
  1 13  1  0
  2  6  1  0
  2 28  1  0
  3  4  2  0
  3  5  1  0
  3 29  1  0
  4 30  1  0
  5  6  2  0
  5  9  1  0
  6  7  1  0
  7  8  2  0
  7 10  1  0
  8  9  1  0
  9 31  1  0
 10 14  1  0
 10 32  1  0
 10 33  1  0
 11 12  1  0
 11 13  1  0
 11 26  2  0
 11 27  2  0
 12 34  1  0
 12 35  1  0
 12 36  1  0
 13 37  1  0
 14 15  2  0
 14 19  1  0
 15 16  1  0
 15 38  1  0
 16 17  2  0
 16 39  1  0
 17 18  1  0
 17 20  1  0
 18 19  2  0
 18 40  1  0
 19 41  1  0
 20 21  2  0
 20 24  1  0
 21 22  1  0
 21 42  1  0
 22 23  1  0
 22 25  1  0
 23 24  2  0
 24 43  1  0
 25 44  1  0
 25 45  1  0
 25 46  1  0
M  END
>  <r_exp_dg>  (24) 
-9.79395

>  <mol_id>  (24) 
23

>  <source_index>  (24) 
29

>  <paff>  (24) 
7.1803174060810342

>  <source_r_exp_dg>  (24) 
-9.7939500000000006

>  <smiles>  (24) 
Cn1cc(-c2ccc(Cc3n[nH]c4ccc(NS(C)(=O)=O)cc34)cc2)cn1

>  <aimnet_interaction_kcal_mol>  (24) 
-58.092487948762248

$$$$
cdk8_024
     RDKit          3D

 34 35  0  0  1  0  0  0  0  0999 V2000
   -6.2869   12.7020  -12.5398 C   0  0  0  0  0  0  0  0  0  0  0  0
   -6.1373   12.2094  -11.2540 C   0  0  0  0  0  0  0  0  0  0  0  0
   -8.1101   11.1454  -12.9586 C   0  0  0  0  0  0  0  0  0  0  0  0
   -7.3309   12.2025  -13.3491 C   0  0  0  0  0  0  0  0  0  0  0  0
   -7.7936   10.5290  -11.7521 C   0  0  0  0  0  0  0  0  0  0  0  0
   -6.9343   11.1500  -10.8127 C   0  0  0  0  0  0  0  0  0  0  0  0
   -7.1177   10.3888   -9.6080 C   0  0  0  0  0  0  0  0  0  0  0  0
   -7.8722    9.3257   -9.8574 N   0  0  0  0  0  0  0  0  0  0  0  0
   -8.2440    9.3931  -11.1629 N   0  0  0  0  0  0  0  0  0  0  0  0
   -6.7883   10.7046   -8.1899 C   0  0  0  0  0  0  0  0  0  0  0  0
   -4.3779   14.1601  -12.3879 N   0  0  0  0  0  0  0  0  0  0  0  0
   -3.5870   15.3427  -12.6740 C   0  0  0  0  0  0  0  0  0  0  0  0
   -5.4238   13.7534  -13.1358 C   0  0  0  0  0  0  0  0  0  0  0  0
   -5.6716   14.2259  -14.2517 O   0  0  0  0  0  0  0  0  0  0  0  0
   -5.3953   11.2403   -7.8356 C   0  0  0  0  0  0  0  0  0  0  0  0
   -4.3234   10.5273   -8.6255 C   0  0  0  0  0  0  0  0  0  0  0  0
   -5.2577   12.7553   -7.8527 C   0  0  0  0  0  0  0  0  0  0  0  0
   -5.4147   12.6414  -10.5873 H   0  0  0  0  0  0  0  0  0  0  0  0
   -8.9121   10.7841  -13.5727 H   0  0  0  0  0  0  0  0  0  0  0  0
   -7.4916   12.6775  -14.3063 H   0  0  0  0  0  0  0  0  0  0  0  0
   -8.8906    8.7106  -11.5352 H   0  0  0  0  0  0  0  0  0  0  0  0
   -7.5396   11.4000   -7.8175 H   0  0  0  0  0  0  0  0  0  0  0  0
   -6.9383    9.7775   -7.6468 H   0  0  0  0  0  0  0  0  0  0  0  0
   -4.1337   13.6058  -11.5874 H   0  0  0  0  0  0  0  0  0  0  0  0
   -2.5689   15.2039  -12.3223 H   0  0  0  0  0  0  0  0  0  0  0  0
   -4.0096   16.2246  -12.1929 H   0  0  0  0  0  0  0  0  0  0  0  0
   -3.5515   15.5202  -13.7403 H   0  0  0  0  0  0  0  0  0  0  0  0
   -5.2609   10.9623   -6.7912 H   0  0  0  0  0  0  0  0  0  0  0  0
   -3.3273   10.7343   -8.2385 H   0  0  0  0  0  0  0  0  0  0  0  0
   -4.3315   10.7957   -9.6786 H   0  0  0  0  0  0  0  0  0  0  0  0
   -4.4898    9.4545   -8.5794 H   0  0  0  0  0  0  0  0  0  0  0  0
   -4.2495   13.0523   -7.5602 H   0  0  0  0  0  0  0  0  0  0  0  0
   -5.9469   13.2134   -7.1464 H   0  0  0  0  0  0  0  0  0  0  0  0
   -5.4635   13.1952   -8.8245 H   0  0  0  0  0  0  0  0  0  0  0  0
  1  2  2  0
  1  4  1  0
  1 13  1  0
  2  6  1  0
  2 18  1  0
  3  4  2  0
  3  5  1  0
  3 19  1  0
  4 20  1  0
  5  6  2  0
  5  9  1  0
  6  7  1  0
  7  8  2  0
  7 10  1  0
  8  9  1  0
  9 21  1  0
 10 15  1  0
 10 22  1  0
 10 23  1  0
 11 12  1  0
 11 13  1  0
 11 24  1  0
 12 25  1  0
 12 26  1  0
 12 27  1  0
 13 14  2  0
 15 16  1  0
 15 17  1  0
 15 28  1  0
 16 29  1  0
 16 30  1  0
 16 31  1  0
 17 32  1  0
 17 33  1  0
 17 34  1  0
M  END
>  <r_exp_dg>  (25) 
-8.33796

>  <mol_id>  (25) 
24

>  <source_index>  (25) 
30

>  <paff>  (25) 
6.1128733794360564

>  <source_r_exp_dg>  (25) 
-8.3379600000000007

>  <smiles>  (25) 
CNC(=O)c1ccc2[nH]nc(CC(C)C)c2c1

>  <aimnet_interaction_kcal_mol>  (25) 
-43.645058574997982

$$$$
cdk8_025
     RDKit          3D

 53 57  0  0  1  0  0  0  0  0999 V2000
   -6.5321   12.7030  -12.2395 C   0  0  0  0  0  0  0  0  0  0  0  0
   -6.4633   12.0818  -11.0050 C   0  0  0  0  0  0  0  0  0  0  0  0
   -8.2839   11.1712  -12.9743 C   0  0  0  0  0  0  0  0  0  0  0  0
   -7.5120   12.2817  -13.1743 C   0  0  0  0  0  0  0  0  0  0  0  0
   -8.0460   10.4218  -11.8240 C   0  0  0  0  0  0  0  0  0  0  0  0
   -7.2044   10.9127  -10.7937 C   0  0  0  0  0  0  0  0  0  0  0  0
   -7.3419    9.9486   -9.7516 C   0  0  0  0  0  0  0  0  0  0  0  0
   -8.1084    8.9461  -10.1488 N   0  0  0  0  0  0  0  0  0  0  0  0
   -8.5157    9.2180  -11.4080 N   0  0  0  0  0  0  0  0  0  0  0  0
   -6.8011    9.9453   -8.3737 C   0  0  0  0  0  0  0  0  0  0  0  0
   -4.6755   14.2209  -11.8500 N   0  0  0  0  0  0  0  0  0  0  0  0
   -5.6291   13.7846  -12.7024 C   0  0  0  0  0  0  0  0  0  0  0  0
   -5.7494   14.2959  -13.8237 O   0  0  0  0  0  0  0  0  0  0  0  0
   -5.6353   10.8589   -8.1223 C   0  0  0  0  0  0  0  0  0  0  0  0
   -5.7613   11.9833   -7.3200 C   0  0  0  0  0  0  0  0  0  0  0  0
   -4.6488   12.6300   -6.8094 C   0  0  0  0  0  0  0  0  0  0  0  0
   -3.3629   12.2249   -7.1677 C   0  0  0  0  0  0  0  0  0  0  0  0
   -3.2536   11.2273   -8.1399 C   0  0  0  0  0  0  0  0  0  0  0  0
   -4.3706   10.5649   -8.6110 C   0  0  0  0  0  0  0  0  0  0  0  0
   -2.1776   12.7820   -6.5356 C   0  0  0  0  0  0  0  0  0  0  0  0
   -2.0387   13.2779   -5.2480 C   0  0  0  0  0  0  0  0  0  0  0  0
   -0.7290   13.5902   -5.0853 N   0  0  0  0  0  0  0  0  0  0  0  0
   -0.0046   13.3497   -6.2000 N   0  0  0  0  0  0  0  0  0  0  0  0
   -0.8810   12.8594   -7.0757 C   0  0  0  0  0  0  0  0  0  0  0  0
   -0.0528   14.0807   -3.9037 C   0  0  0  0  0  0  0  0  0  0  0  0
   -3.6334   15.1948  -12.1884 C   0  0  0  0  0  0  0  0  0  0  0  0
   -2.8111   14.6681  -10.9960 C   0  0  0  0  0  0  0  0  0  0  0  0
   -3.9015   13.6159  -10.7633 C   0  0  0  0  0  0  0  0  0  0  0  0
   -1.5641   14.0806  -11.2488 O   0  0  0  0  0  0  0  0  0  0  0  0
   -0.4969   15.0198  -11.3125 C   0  0  0  0  0  0  0  0  0  0  0  0
   -5.8725   12.4855  -10.2050 H   0  0  0  0  0  0  0  0  0  0  0  0
   -9.0087   10.8543  -13.6923 H   0  0  0  0  0  0  0  0  0  0  0  0
   -7.6202   12.8628  -14.0785 H   0  0  0  0  0  0  0  0  0  0  0  0
   -9.1897    8.5851  -11.8322 H   0  0  0  0  0  0  0  0  0  0  0  0
   -7.6043   10.1786   -7.6748 H   0  0  0  0  0  0  0  0  0  0  0  0
   -6.5277    8.9223   -8.1323 H   0  0  0  0  0  0  0  0  0  0  0  0
   -6.7519   12.3375   -7.0873 H   0  0  0  0  0  0  0  0  0  0  0  0
   -4.7747   13.4459   -6.1086 H   0  0  0  0  0  0  0  0  0  0  0  0
   -2.2763   10.9392   -8.4986 H   0  0  0  0  0  0  0  0  0  0  0  0
   -4.2620    9.7759   -9.3342 H   0  0  0  0  0  0  0  0  0  0  0  0
   -2.7656   13.4282   -4.4675 H   0  0  0  0  0  0  0  0  0  0  0  0
   -0.5577   12.5714   -8.0614 H   0  0  0  0  0  0  0  0  0  0  0  0
   -0.7925   14.3405   -3.1531 H   0  0  0  0  0  0  0  0  0  0  0  0
    0.5344   14.9547   -4.1706 H   0  0  0  0  0  0  0  0  0  0  0  0
    0.6108   13.3177   -3.5015 H   0  0  0  0  0  0  0  0  0  0  0  0
   -3.1911   15.0170  -13.1618 H   0  0  0  0  0  0  0  0  0  0  0  0
   -3.9489   16.2348  -12.1349 H   0  0  0  0  0  0  0  0  0  0  0  0
   -2.7470   15.3935  -10.1834 H   0  0  0  0  0  0  0  0  0  0  0  0
   -4.3844   13.6794   -9.7945 H   0  0  0  0  0  0  0  0  0  0  0  0
   -3.5720   12.5995  -10.9565 H   0  0  0  0  0  0  0  0  0  0  0  0
    0.4215   14.4518  -11.4644 H   0  0  0  0  0  0  0  0  0  0  0  0
   -0.4040   15.5689  -10.3659 H   0  0  0  0  0  0  0  0  0  0  0  0
   -0.6176   15.7068  -12.1522 H   0  0  0  0  0  0  0  0  0  0  0  0
  1  2  2  0
  1  4  1  0
  1 12  1  0
  2  6  1  0
  2 31  1  0
  3  4  2  0
  3  5  1  0
  3 32  1  0
  4 33  1  0
  5  6  2  0
  5  9  1  0
  6  7  1  0
  7  8  2  0
  7 10  1  0
  8  9  1  0
  9 34  1  0
 10 14  1  0
 10 35  1  0
 10 36  1  0
 11 12  1  0
 11 26  1  0
 11 28  1  0
 12 13  2  0
 14 15  2  0
 14 19  1  0
 15 16  1  0
 15 37  1  0
 16 17  2  0
 16 38  1  0
 17 18  1  0
 17 20  1  0
 18 19  2  0
 18 39  1  0
 19 40  1  0
 20 21  2  0
 20 24  1  0
 21 22  1  0
 21 41  1  0
 22 23  1  0
 22 25  1  0
 23 24  2  0
 24 42  1  0
 25 43  1  0
 25 44  1  0
 25 45  1  0
 26 27  1  0
 26 46  1  0
 26 47  1  0
 27 28  1  0
 27 29  1  0
 27 48  1  0
 28 49  1  0
 28 50  1  0
 29 30  1  0
 30 51  1  0
 30 52  1  0
 30 53  1  0
M  END
>  <r_exp_dg>  (26) 
-11.2832

>  <mol_id>  (26) 
25

>  <source_index>  (26) 
32

>  <paff>  (26) 
8.2721241758016539

>  <source_r_exp_dg>  (26) 
-11.283200000000001

>  <smiles>  (26) 
COC1CN(C(=O)c2ccc3[nH]nc(Cc4ccc(-c5cnn(C)c5)cc4)c3c2)C1

>  <aimnet_interaction_kcal_mol>  (26) 
-61.583944538601621

$$$$
cdk8_026
     RDKit          3D

 41 44  0  0  1  0  0  0  0  0999 V2000
   -6.0168   12.8591  -12.2046 C   0  0  0  0  0  0  0  0  0  0  0  0
   -5.9578   12.3126  -10.9350 C   0  0  0  0  0  0  0  0  0  0  0  0
   -7.7639   11.2912  -12.8674 C   0  0  0  0  0  0  0  0  0  0  0  0
   -6.9645   12.3720  -13.1330 C   0  0  0  0  0  0  0  0  0  0  0  0
   -7.5657   10.6355  -11.6495 C   0  0  0  0  0  0  0  0  0  0  0  0
   -6.7401   11.1939  -10.6444 C   0  0  0  0  0  0  0  0  0  0  0  0
   -6.9507   10.3618   -9.5041 C   0  0  0  0  0  0  0  0  0  0  0  0
   -7.7311    9.3371   -9.8129 N   0  0  0  0  0  0  0  0  0  0  0  0
   -8.0785    9.4938  -11.1204 N   0  0  0  0  0  0  0  0  0  0  0  0
   -6.5077   10.6144   -8.1062 C   0  0  0  0  0  0  0  0  0  0  0  0
   -4.0294   14.1595  -11.9052 N   0  0  0  0  0  0  0  0  0  0  0  0
   -3.1703   15.3157  -12.0444 C   0  0  0  0  0  0  0  0  0  0  0  0
   -5.1528   13.9864  -12.6325 C   0  0  0  0  0  0  0  0  0  0  0  0
   -5.4729   14.7184  -13.5727 O   0  0  0  0  0  0  0  0  0  0  0  0
   -5.1552   11.2678   -7.9382 C   0  0  0  0  0  0  0  0  0  0  0  0
   -4.9616   12.2933   -7.0376 C   0  0  0  0  0  0  0  0  0  0  0  0
   -3.6586   12.6670   -6.6832 C   0  0  0  0  0  0  0  0  0  0  0  0
   -2.5643   12.0090   -7.2802 C   0  0  0  0  0  0  0  0  0  0  0  0
   -2.7496   11.1014   -8.3220 C   0  0  0  0  0  0  0  0  0  0  0  0
   -4.0448   10.7606   -8.6384 C   0  0  0  0  0  0  0  0  0  0  0  0
   -3.0705   13.5218   -5.7176 C   0  0  0  0  0  0  0  0  0  0  0  0
   -1.7565   13.3786   -5.6889 N   0  0  0  0  0  0  0  0  0  0  0  0
   -1.4419   12.4612   -6.6406 N   0  0  0  0  0  0  0  0  0  0  0  0
   -0.1303   11.8721   -6.6386 C   0  0  0  0  0  0  0  0  0  0  0  0
   -5.3529   12.7617  -10.1638 H   0  0  0  0  0  0  0  0  0  0  0  0
   -8.5034   10.9705  -13.5777 H   0  0  0  0  0  0  0  0  0  0  0  0
   -7.0501   12.9006  -14.0729 H   0  0  0  0  0  0  0  0  0  0  0  0
   -8.7365    8.8471  -11.5297 H   0  0  0  0  0  0  0  0  0  0  0  0
   -7.2693   11.2347   -7.6255 H   0  0  0  0  0  0  0  0  0  0  0  0
   -6.5362    9.6675   -7.5705 H   0  0  0  0  0  0  0  0  0  0  0  0
   -3.7071   13.3925  -11.3405 H   0  0  0  0  0  0  0  0  0  0  0  0
   -2.7364   15.5638  -11.0799 H   0  0  0  0  0  0  0  0  0  0  0  0
   -3.7694   16.1458  -12.3965 H   0  0  0  0  0  0  0  0  0  0  0  0
   -2.3722   15.1588  -12.7650 H   0  0  0  0  0  0  0  0  0  0  0  0
   -5.8060   12.7673   -6.5614 H   0  0  0  0  0  0  0  0  0  0  0  0
   -1.9118   10.6524   -8.8304 H   0  0  0  0  0  0  0  0  0  0  0  0
   -4.2231   10.0558   -9.4328 H   0  0  0  0  0  0  0  0  0  0  0  0
   -3.5546   14.2073   -5.0415 H   0  0  0  0  0  0  0  0  0  0  0  0
    0.5959   12.6384   -6.3826 H   0  0  0  0  0  0  0  0  0  0  0  0
    0.0837   11.4543   -7.6158 H   0  0  0  0  0  0  0  0  0  0  0  0
   -0.0712   11.0641   -5.9121 H   0  0  0  0  0  0  0  0  0  0  0  0
  1  2  2  0
  1  4  1  0
  1 13  1  0
  2  6  1  0
  2 25  1  0
  3  4  2  0
  3  5  1  0
  3 26  1  0
  4 27  1  0
  5  6  2  0
  5  9  1  0
  6  7  1  0
  7  8  2  0
  7 10  1  0
  8  9  1  0
  9 28  1  0
 10 15  1  0
 10 29  1  0
 10 30  1  0
 11 12  1  0
 11 13  1  0
 11 31  1  0
 12 32  1  0
 12 33  1  0
 12 34  1  0
 13 14  2  0
 15 16  2  0
 15 20  1  0
 16 17  1  0
 16 35  1  0
 17 18  2  0
 17 21  1  0
 18 19  1  0
 18 23  1  0
 19 20  2  0
 19 36  1  0
 20 37  1  0
 21 22  2  0
 21 38  1  0
 22 23  1  0
 23 24  1  0
 24 39  1  0
 24 40  1  0
 24 41  1  0
M  END
>  <r_exp_dg>  (27) 
-10.9787

>  <mol_id>  (27) 
26

>  <source_index>  (27) 
17

>  <paff>  (27) 
8.0489189394058709

>  <source_r_exp_dg>  (27) 
-10.9787

>  <smiles>  (27) 
CNC(=O)c1ccc2[nH]nc(Cc3ccc4c(cnn4C)c3)c2c1

>  <aimnet_interaction_kcal_mol>  (27) 
-49.913802630033196

$$$$
cdk8_027
     RDKit          3D

 38 40  0  0  1  0  0  0  0  0999 V2000
   -6.0771   12.8149  -12.1889 C   0  0  0  0  0  0  0  0  0  0  0  0
   -6.0181   12.2793  -10.9156 C   0  0  0  0  0  0  0  0  0  0  0  0
   -7.8497   11.2701  -12.8307 C   0  0  0  0  0  0  0  0  0  0  0  0
   -7.0476   12.3484  -13.1028 C   0  0  0  0  0  0  0  0  0  0  0  0
   -7.6388   10.6107  -11.6168 C   0  0  0  0  0  0  0  0  0  0  0  0
   -6.8110   11.1702  -10.6153 C   0  0  0  0  0  0  0  0  0  0  0  0
   -7.0143   10.3399   -9.4727 C   0  0  0  0  0  0  0  0  0  0  0  0
   -7.7872    9.3106   -9.7793 N   0  0  0  0  0  0  0  0  0  0  0  0
   -8.1392    9.4627  -11.0870 N   0  0  0  0  0  0  0  0  0  0  0  0
   -6.5460   10.5965   -8.0822 C   0  0  0  0  0  0  0  0  0  0  0  0
   -3.9785   13.9374  -11.9877 N   0  0  0  0  0  0  0  0  0  0  0  0
   -3.0458   15.0369  -12.0931 C   0  0  0  0  0  0  0  0  0  0  0  0
   -5.1573   13.8875  -12.6413 C   0  0  0  0  0  0  0  0  0  0  0  0
   -5.4692   14.6674  -13.5446 O   0  0  0  0  0  0  0  0  0  0  0  0
   -5.1655   11.1975   -7.9754 C   0  0  0  0  0  0  0  0  0  0  0  0
   -4.8946   12.2816   -7.1454 C   0  0  0  0  0  0  0  0  0  0  0  0
   -3.6119   12.8129   -7.0317 C   0  0  0  0  0  0  0  0  0  0  0  0
   -2.5925   12.2482   -7.7886 C   0  0  0  0  0  0  0  0  0  0  0  0
   -2.8402   11.1689   -8.6160 C   0  0  0  0  0  0  0  0  0  0  0  0
   -4.1228   10.6510   -8.7061 C   0  0  0  0  0  0  0  0  0  0  0  0
   -3.2972   13.9523   -6.1141 C   0  0  0  0  0  0  0  0  0  0  0  0
   -5.3956   12.7239  -10.1543 H   0  0  0  0  0  0  0  0  0  0  0  0
   -8.5981   10.9527  -13.5335 H   0  0  0  0  0  0  0  0  0  0  0  0
   -7.1401   12.8870  -14.0362 H   0  0  0  0  0  0  0  0  0  0  0  0
   -8.7971    8.8160  -11.4979 H   0  0  0  0  0  0  0  0  0  0  0  0
   -7.2669   11.2606   -7.6011 H   0  0  0  0  0  0  0  0  0  0  0  0
   -6.6023    9.6628   -7.5281 H   0  0  0  0  0  0  0  0  0  0  0  0
   -3.7447   13.1726  -11.3783 H   0  0  0  0  0  0  0  0  0  0  0  0
   -2.0341   14.6909  -11.8979 H   0  0  0  0  0  0  0  0  0  0  0  0
   -3.2958   15.8265  -11.3874 H   0  0  0  0  0  0  0  0  0  0  0  0
   -3.0778   15.4529  -13.0920 H   0  0  0  0  0  0  0  0  0  0  0  0
   -5.6963   12.7082   -6.5578 H   0  0  0  0  0  0  0  0  0  0  0  0
   -1.5888   12.6473   -7.7081 H   0  0  0  0  0  0  0  0  0  0  0  0
   -2.0226   10.7256   -9.1606 H   0  0  0  0  0  0  0  0  0  0  0  0
   -4.3138    9.8062   -9.3464 H   0  0  0  0  0  0  0  0  0  0  0  0
   -3.1624   14.8844   -6.6678 H   0  0  0  0  0  0  0  0  0  0  0  0
   -2.3668   13.7655   -5.5775 H   0  0  0  0  0  0  0  0  0  0  0  0
   -4.0788   14.1052   -5.3788 H   0  0  0  0  0  0  0  0  0  0  0  0
  1  2  2  0
  1  4  1  0
  1 13  1  0
  2  6  1  0
  2 22  1  0
  3  4  2  0
  3  5  1  0
  3 23  1  0
  4 24  1  0
  5  6  2  0
  5  9  1  0
  6  7  1  0
  7  8  2  0
  7 10  1  0
  8  9  1  0
  9 25  1  0
 10 15  1  0
 10 26  1  0
 10 27  1  0
 11 12  1  0
 11 13  1  0
 11 28  1  0
 12 29  1  0
 12 30  1  0
 12 31  1  0
 13 14  2  0
 15 16  2  0
 15 20  1  0
 16 17  1  0
 16 32  1  0
 17 18  2  0
 17 21  1  0
 18 19  1  0
 18 33  1  0
 19 20  2  0
 19 34  1  0
 20 35  1  0
 21 36  1  0
 21 37  1  0
 21 38  1  0
M  END
>  <r_exp_dg>  (28) 
-9.29013

>  <mol_id>  (28) 
27

>  <source_index>  (28) 
4

>  <paff>  (28) 
6.8109461988521804

>  <source_r_exp_dg>  (28) 
-9.2901299999999996

>  <smiles>  (28) 
CNC(=O)c1ccc2[nH]nc(Cc3cccc(C)c3)c2c1

>  <aimnet_interaction_kcal_mol>  (28) 
-43.908149534035047

$$$$
cdk8_028
     RDKit          3D

 41 44  0  0  1  0  0  0  0  0999 V2000
   -5.9865   12.8766  -12.1535 C   0  0  0  0  0  0  0  0  0  0  0  0
   -5.9039   12.4108  -10.8532 C   0  0  0  0  0  0  0  0  0  0  0  0
   -7.7174   11.2466  -12.6955 C   0  0  0  0  0  0  0  0  0  0  0  0
   -6.9403   12.3241  -13.0378 C   0  0  0  0  0  0  0  0  0  0  0  0
   -7.5074   10.6841  -11.4320 C   0  0  0  0  0  0  0  0  0  0  0  0
   -6.6781   11.3130  -10.4784 C   0  0  0  0  0  0  0  0  0  0  0  0
   -6.8836   10.5741   -9.2726 C   0  0  0  0  0  0  0  0  0  0  0  0
   -7.6684    9.5309   -9.4935 N   0  0  0  0  0  0  0  0  0  0  0  0
   -8.0213    9.5918  -10.8114 N   0  0  0  0  0  0  0  0  0  0  0  0
   -6.4261   10.9773   -7.9119 C   0  0  0  0  0  0  0  0  0  0  0  0
   -3.9959   14.1785  -11.9449 N   0  0  0  0  0  0  0  0  0  0  0  0
   -3.1611   15.3519  -12.0777 C   0  0  0  0  0  0  0  0  0  0  0  0
   -5.1312   13.9856  -12.6477 C   0  0  0  0  0  0  0  0  0  0  0  0
   -5.4708   14.6813  -13.6076 O   0  0  0  0  0  0  0  0  0  0  0  0
   -4.9918   11.4593   -7.8387 C   0  0  0  0  0  0  0  0  0  0  0  0
   -4.5979   12.4965   -7.0048 C   0  0  0  0  0  0  0  0  0  0  0  0
   -3.2346   12.8348   -6.9682 C   0  0  0  0  0  0  0  0  0  0  0  0
   -2.2887   12.1251   -7.7386 C   0  0  0  0  0  0  0  0  0  0  0  0
   -2.7029   11.0909   -8.5688 C   0  0  0  0  0  0  0  0  0  0  0  0
   -4.0391   10.7949   -8.6308 C   0  0  0  0  0  0  0  0  0  0  0  0
   -2.5061   13.7736   -6.2818 N   0  0  0  0  0  0  0  0  0  0  0  0
   -1.1816   13.7038   -6.5826 N   0  0  0  0  0  0  0  0  0  0  0  0
   -1.0415   12.7104   -7.4392 C   0  0  0  0  0  0  0  0  0  0  0  0
   -5.2797   12.9031  -10.1229 H   0  0  0  0  0  0  0  0  0  0  0  0
   -8.4594   10.8643  -13.3731 H   0  0  0  0  0  0  0  0  0  0  0  0
   -7.0484   12.8010  -14.0039 H   0  0  0  0  0  0  0  0  0  0  0  0
   -8.6903    8.9335  -11.1834 H   0  0  0  0  0  0  0  0  0  0  0  0
   -7.0816   11.7769   -7.5612 H   0  0  0  0  0  0  0  0  0  0  0  0
   -6.5907   10.1463   -7.2296 H   0  0  0  0  0  0  0  0  0  0  0  0
   -3.6553   13.4178  -11.3828 H   0  0  0  0  0  0  0  0  0  0  0  0
   -2.7339   15.6033  -11.1111 H   0  0  0  0  0  0  0  0  0  0  0  0
   -3.7730   16.1737  -12.4270 H   0  0  0  0  0  0  0  0  0  0  0  0
   -2.3595   15.2118  -12.7962 H   0  0  0  0  0  0  0  0  0  0  0  0
   -5.3113   13.0010   -6.3646 H   0  0  0  0  0  0  0  0  0  0  0  0
   -1.9713   10.5300   -9.1229 H   0  0  0  0  0  0  0  0  0  0  0  0
   -4.3769   10.0243   -9.3039 H   0  0  0  0  0  0  0  0  0  0  0  0
   -0.0761   12.4256   -7.8172 H   0  0  0  0  0  0  0  0  0  0  0  0
   -2.9303   14.8427   -5.4265 C   0  0  0  0  0  0  0  0  0  0  0  0
   -2.1415   15.0276   -4.7022 H   0  0  0  0  0  0  0  0  0  0  0  0
   -3.0831   15.7510   -6.0131 H   0  0  0  0  0  0  0  0  0  0  0  0
   -3.8406   14.5847   -4.9009 H   0  0  0  0  0  0  0  0  0  0  0  0
  1  2  2  0
  1  4  1  0
  1 13  1  0
  2  6  1  0
  2 24  1  0
  3  4  2  0
  3  5  1  0
  3 25  1  0
  4 26  1  0
  5  6  2  0
  5  9  1  0
  6  7  1  0
  7  8  2  0
  7 10  1  0
  8  9  1  0
  9 27  1  0
 10 15  1  0
 10 28  1  0
 10 29  1  0
 11 12  1  0
 11 13  1  0
 11 30  1  0
 12 31  1  0
 12 32  1  0
 12 33  1  0
 13 14  2  0
 15 16  2  0
 15 20  1  0
 16 17  1  0
 16 34  1  0
 17 18  2  0
 17 21  1  0
 18 19  1  0
 18 23  1  0
 19 20  2  0
 19 35  1  0
 20 36  1  0
 21 22  1  0
 21 38  1  0
 22 23  2  0
 23 37  1  0
 38 39  1  0
 38 40  1  0
 38 41  1  0
M  END
>  <r_exp_dg>  (29) 
-8.99273

>  <mol_id>  (29) 
28

>  <source_index>  (29) 
1

>  <paff>  (29) 
6.5929120586764425

>  <source_r_exp_dg>  (29) 
-8.9927299999999999

>  <smiles>  (29) 
CNC(=O)c1ccc2[nH]nc(Cc3ccc4cnn(C)c4c3)c2c1

>  <aimnet_interaction_kcal_mol>  (29) 
-41.576384585950017

$$$$
cdk8_029
     RDKit          3D

 46 50  0  0  1  0  0  0  0  0999 V2000
   -5.9796   12.7189  -12.3671 C   0  0  0  0  0  0  0  0  0  0  0  0
   -5.8835   12.2553  -11.0665 C   0  0  0  0  0  0  0  0  0  0  0  0
   -7.8310   11.2026  -12.8486 C   0  0  0  0  0  0  0  0  0  0  0  0
   -6.9977   12.2224  -13.2176 C   0  0  0  0  0  0  0  0  0  0  0  0
   -7.5759   10.6001  -11.6160 C   0  0  0  0  0  0  0  0  0  0  0  0
   -6.7000   11.1892  -10.6700 C   0  0  0  0  0  0  0  0  0  0  0  0
   -6.8980   10.4141   -9.4825 C   0  0  0  0  0  0  0  0  0  0  0  0
   -7.6943    9.3798   -9.7232 N   0  0  0  0  0  0  0  0  0  0  0  0
   -8.0778    9.4858  -11.0266 N   0  0  0  0  0  0  0  0  0  0  0  0
   -6.4759   10.7392   -8.0919 C   0  0  0  0  0  0  0  0  0  0  0  0
   -4.1424   14.2674  -12.1169 N   0  0  0  0  0  0  0  0  0  0  0  0
   -5.1272   13.7937  -12.9170 C   0  0  0  0  0  0  0  0  0  0  0  0
   -5.3374   14.2815  -14.0360 O   0  0  0  0  0  0  0  0  0  0  0  0
   -5.1045   11.3474   -7.9139 C   0  0  0  0  0  0  0  0  0  0  0  0
   -4.8881   12.3626   -7.0061 C   0  0  0  0  0  0  0  0  0  0  0  0
   -3.5774   12.7138   -6.6578 C   0  0  0  0  0  0  0  0  0  0  0  0
   -2.4978   12.0225   -7.2443 C   0  0  0  0  0  0  0  0  0  0  0  0
   -2.7007   11.1005   -8.2695 C   0  0  0  0  0  0  0  0  0  0  0  0
   -4.0033   10.7964   -8.5941 C   0  0  0  0  0  0  0  0  0  0  0  0
   -2.9702   13.5773   -5.7122 C   0  0  0  0  0  0  0  0  0  0  0  0
   -1.6587   13.4106   -5.6859 N   0  0  0  0  0  0  0  0  0  0  0  0
   -1.3652   12.4666   -6.6159 N   0  0  0  0  0  0  0  0  0  0  0  0
   -0.0599   11.8642   -6.6172 C   0  0  0  0  0  0  0  0  0  0  0  0
   -3.3188   15.4265  -12.4662 C   0  0  0  0  0  0  0  0  0  0  0  0
   -2.1788   14.8634  -11.5797 C   0  0  0  0  0  0  0  0  0  0  0  0
   -3.0535   13.6072  -11.3633 C   0  0  0  0  0  0  0  0  0  0  0  0
   -0.9111   14.5940  -12.1001 O   0  0  0  0  0  0  0  0  0  0  0  0
   -5.2116   12.7150  -10.3618 H   0  0  0  0  0  0  0  0  0  0  0  0
   -8.6315   10.8847  -13.4925 H   0  0  0  0  0  0  0  0  0  0  0  0
   -7.1020   12.6896  -14.1864 H   0  0  0  0  0  0  0  0  0  0  0  0
   -8.7468    8.8304  -11.4025 H   0  0  0  0  0  0  0  0  0  0  0  0
   -7.2269   11.4166   -7.6766 H   0  0  0  0  0  0  0  0  0  0  0  0
   -6.5571    9.8308   -7.4987 H   0  0  0  0  0  0  0  0  0  0  0  0
   -5.7201   12.8452   -6.5137 H   0  0  0  0  0  0  0  0  0  0  0  0
   -1.8756   10.6222   -8.7722 H   0  0  0  0  0  0  0  0  0  0  0  0
   -4.1939   10.0892   -9.3839 H   0  0  0  0  0  0  0  0  0  0  0  0
   -3.4340   14.2854   -5.0453 H   0  0  0  0  0  0  0  0  0  0  0  0
    0.6744   12.6289   -6.3819 H   0  0  0  0  0  0  0  0  0  0  0  0
    0.1386   11.4269   -7.5889 H   0  0  0  0  0  0  0  0  0  0  0  0
   -0.0009   11.0691   -5.8774 H   0  0  0  0  0  0  0  0  0  0  0  0
   -3.1072   15.4628  -13.5231 H   0  0  0  0  0  0  0  0  0  0  0  0
   -3.7557   16.3749  -12.1673 H   0  0  0  0  0  0  0  0  0  0  0  0
   -2.0845   15.4300  -10.6500 H   0  0  0  0  0  0  0  0  0  0  0  0
   -3.2963   13.3978  -10.3272 H   0  0  0  0  0  0  0  0  0  0  0  0
   -2.6657   12.7105  -11.8410 H   0  0  0  0  0  0  0  0  0  0  0  0
   -0.6691   15.2434  -12.8283 H   0  0  0  0  0  0  0  0  0  0  0  0
  1  2  2  0
  1  4  1  0
  1 12  1  0
  2  6  1  0
  2 28  1  0
  3  4  2  0
  3  5  1  0
  3 29  1  0
  4 30  1  0
  5  6  2  0
  5  9  1  0
  6  7  1  0
  7  8  2  0
  7 10  1  0
  8  9  1  0
  9 31  1  0
 10 14  1  0
 10 32  1  0
 10 33  1  0
 11 12  1  0
 11 24  1  0
 11 26  1  0
 12 13  2  0
 14 15  2  0
 14 19  1  0
 15 16  1  0
 15 34  1  0
 16 17  2  0
 16 20  1  0
 17 18  1  0
 17 22  1  0
 18 19  2  0
 18 35  1  0
 19 36  1  0
 20 21  2  0
 20 37  1  0
 21 22  1  0
 22 23  1  0
 23 38  1  0
 23 39  1  0
 23 40  1  0
 24 25  1  0
 24 41  1  0
 24 42  1  0
 25 26  1  0
 25 27  1  0
 25 43  1  0
 26 44  1  0
 26 45  1  0
 27 46  1  0
M  END
>  <r_exp_dg>  (30) 
-11.5248

>  <mol_id>  (30) 
29

>  <source_index>  (30) 
16

>  <paff>  (30) 
8.4492922528398342

>  <source_r_exp_dg>  (30) 
-11.524800000000001

>  <smiles>  (30) 
Cn1ncc2cc(Cc3n[nH]c4ccc(C(=O)N5CC(O)C5)cc34)ccc21

>  <aimnet_interaction_kcal_mol>  (30) 
-69.455167676206088

$$$$
cdk8_030
     RDKit          3D

 49 53  0  0  1  0  0  0  0  0999 V2000
   -5.8282   12.7111  -12.2922 C   0  0  0  0  0  0  0  0  0  0  0  0
   -5.7510   12.1562  -11.0255 C   0  0  0  0  0  0  0  0  0  0  0  0
   -7.7073   11.2719  -12.8848 C   0  0  0  0  0  0  0  0  0  0  0  0
   -6.8452   12.2938  -13.1841 C   0  0  0  0  0  0  0  0  0  0  0  0
   -7.5148   10.6170  -11.6648 C   0  0  0  0  0  0  0  0  0  0  0  0
   -6.6357   11.1321  -10.6785 C   0  0  0  0  0  0  0  0  0  0  0  0
   -6.9096   10.3453   -9.5151 C   0  0  0  0  0  0  0  0  0  0  0  0
   -7.7514    9.3621   -9.8046 N   0  0  0  0  0  0  0  0  0  0  0  0
   -8.0921    9.5180  -11.1143 N   0  0  0  0  0  0  0  0  0  0  0  0
   -6.4891   10.6102   -8.1117 C   0  0  0  0  0  0  0  0  0  0  0  0
   -3.8872   14.0475  -11.9262 N   0  0  0  0  0  0  0  0  0  0  0  0
   -4.9935   13.8587  -12.6867 C   0  0  0  0  0  0  0  0  0  0  0  0
   -5.3102   14.6384  -13.5914 O   0  0  0  0  0  0  0  0  0  0  0  0
   -5.1213   11.2240   -7.9202 C   0  0  0  0  0  0  0  0  0  0  0  0
   -4.9198   12.2740   -7.0519 C   0  0  0  0  0  0  0  0  0  0  0  0
   -3.6171   12.6149   -6.6660 C   0  0  0  0  0  0  0  0  0  0  0  0
   -2.5295   11.8809   -7.1816 C   0  0  0  0  0  0  0  0  0  0  0  0
   -2.7119   10.9354   -8.1886 C   0  0  0  0  0  0  0  0  0  0  0  0
   -4.0046   10.6479   -8.5564 C   0  0  0  0  0  0  0  0  0  0  0  0
   -3.0251   13.5247   -5.7558 C   0  0  0  0  0  0  0  0  0  0  0  0
   -1.7138   13.3545   -5.6881 N   0  0  0  0  0  0  0  0  0  0  0  0
   -1.4098   12.3490   -6.5489 N   0  0  0  0  0  0  0  0  0  0  0  0
   -0.0752   11.8169   -6.5762 C   0  0  0  0  0  0  0  0  0  0  0  0
   -2.7336   13.1683  -11.6640 C   0  0  0  0  0  0  0  0  0  0  0  0
   -1.8338   14.4290  -11.5978 C   0  0  0  0  0  0  0  0  0  0  0  0
   -3.0847   15.2613  -11.9428 C   0  0  0  0  0  0  0  0  0  0  0  0
   -1.1382   14.7354  -10.4073 O   0  0  0  0  0  0  0  0  0  0  0  0
   -1.8426   14.4788   -9.2104 C   0  0  0  0  0  0  0  0  0  0  0  0
   -5.0410   12.5300  -10.3055 H   0  0  0  0  0  0  0  0  0  0  0  0
   -8.4886   10.9974  -13.5705 H   0  0  0  0  0  0  0  0  0  0  0  0
   -6.9355   12.8300  -14.1198 H   0  0  0  0  0  0  0  0  0  0  0  0
   -8.7787    8.8957  -11.5139 H   0  0  0  0  0  0  0  0  0  0  0  0
   -7.2427   11.2600   -7.6580 H   0  0  0  0  0  0  0  0  0  0  0  0
   -6.5578    9.6738   -7.5613 H   0  0  0  0  0  0  0  0  0  0  0  0
   -5.7631   12.7958   -6.6247 H   0  0  0  0  0  0  0  0  0  0  0  0
   -1.8769   10.4316   -8.6483 H   0  0  0  0  0  0  0  0  0  0  0  0
   -4.1771    9.9297   -9.3388 H   0  0  0  0  0  0  0  0  0  0  0  0
   -3.5028   14.2691   -5.1396 H   0  0  0  0  0  0  0  0  0  0  0  0
    0.6175   12.6287   -6.3755 H   0  0  0  0  0  0  0  0  0  0  0  0
    0.1219   11.3778   -7.5481 H   0  0  0  0  0  0  0  0  0  0  0  0
    0.0491   11.0400   -5.8265 H   0  0  0  0  0  0  0  0  0  0  0  0
   -2.8236   12.5650  -10.7686 H   0  0  0  0  0  0  0  0  0  0  0  0
   -2.5020   12.5082  -12.4999 H   0  0  0  0  0  0  0  0  0  0  0  0
   -1.0802   14.4724  -12.3729 H   0  0  0  0  0  0  0  0  0  0  0  0
   -3.0574   15.7446  -12.9156 H   0  0  0  0  0  0  0  0  0  0  0  0
   -3.3994   15.9760  -11.1924 H   0  0  0  0  0  0  0  0  0  0  0  0
   -1.2589   14.8904   -8.3921 H   0  0  0  0  0  0  0  0  0  0  0  0
   -1.9574   13.4118   -9.0428 H   0  0  0  0  0  0  0  0  0  0  0  0
   -2.8434   14.9188   -9.1798 H   0  0  0  0  0  0  0  0  0  0  0  0
  1  2  2  0
  1  4  1  0
  1 12  1  0
  2  6  1  0
  2 29  1  0
  3  4  2  0
  3  5  1  0
  3 30  1  0
  4 31  1  0
  5  6  2  0
  5  9  1  0
  6  7  1  0
  7  8  2  0
  7 10  1  0
  8  9  1  0
  9 32  1  0
 10 14  1  0
 10 33  1  0
 10 34  1  0
 11 12  1  0
 11 24  1  0
 11 26  1  0
 12 13  2  0
 14 15  2  0
 14 19  1  0
 15 16  1  0
 15 35  1  0
 16 17  2  0
 16 20  1  0
 17 18  1  0
 17 22  1  0
 18 19  2  0
 18 36  1  0
 19 37  1  0
 20 21  2  0
 20 38  1  0
 21 22  1  0
 22 23  1  0
 23 39  1  0
 23 40  1  0
 23 41  1  0
 24 25  1  0
 24 42  1  0
 24 43  1  0
 25 26  1  0
 25 27  1  0
 25 44  1  0
 26 45  1  0
 26 46  1  0
 27 28  1  0
 28 47  1  0
 28 48  1  0
 28 49  1  0
M  END
>  <r_exp_dg>  (31) 
-11.1913

>  <mol_id>  (31) 
30

>  <source_index>  (31) 
31

>  <paff>  (31) 
8.2047684800939464

>  <source_r_exp_dg>  (31) 
-11.1913

>  <smiles>  (31) 
COC1CN(C(=O)c2ccc3[nH]nc(Cc4ccc5c(cnn5C)c4)c3c2)C1

>  <aimnet_interaction_kcal_mol>  (31) 
-56.25767528930789

$$$$
cdk8_031
     RDKit          3D

 49 53  0  0  1  0  0  0  0  0999 V2000
   -6.4013   12.8447  -12.1644 C   0  0  0  0  0  0  0  0  0  0  0  0
   -6.4602   12.3481  -10.8766 C   0  0  0  0  0  0  0  0  0  0  0  0
   -8.0507   11.2084  -12.9053 C   0  0  0  0  0  0  0  0  0  0  0  0
   -7.2911   12.3262  -13.1351 C   0  0  0  0  0  0  0  0  0  0  0  0
   -7.8539   10.5383  -11.6939 C   0  0  0  0  0  0  0  0  0  0  0  0
   -7.1185   11.1396  -10.6478 C   0  0  0  0  0  0  0  0  0  0  0  0
   -7.2355   10.2322   -9.5571 C   0  0  0  0  0  0  0  0  0  0  0  0
   -7.9105    9.1532   -9.9189 N   0  0  0  0  0  0  0  0  0  0  0  0
   -8.2647    9.3319  -11.2221 N   0  0  0  0  0  0  0  0  0  0  0  0
   -6.7508   10.4454   -8.1700 C   0  0  0  0  0  0  0  0  0  0  0  0
   -4.3523   14.1178  -11.8180 N   0  0  0  0  0  0  0  0  0  0  0  0
   -5.4396   13.8866  -12.5963 C   0  0  0  0  0  0  0  0  0  0  0  0
   -5.6309   14.5292  -13.6386 O   0  0  0  0  0  0  0  0  0  0  0  0
   -5.4182   11.1507   -8.0533 C   0  0  0  0  0  0  0  0  0  0  0  0
   -5.2939   12.3595   -7.4034 C   0  0  0  0  0  0  0  0  0  0  0  0
   -4.0196   12.7773   -6.9880 C   0  0  0  0  0  0  0  0  0  0  0  0
   -2.8839   12.0607   -7.4186 C   0  0  0  0  0  0  0  0  0  0  0  0
   -2.9944   10.9679   -8.2735 C   0  0  0  0  0  0  0  0  0  0  0  0
   -4.2621   10.5218   -8.5599 C   0  0  0  0  0  0  0  0  0  0  0  0
   -3.4956   13.7713   -6.1204 C   0  0  0  0  0  0  0  0  0  0  0  0
   -2.1790   13.6830   -6.0277 N   0  0  0  0  0  0  0  0  0  0  0  0
   -1.8015   12.6456   -6.8192 N   0  0  0  0  0  0  0  0  0  0  0  0
   -0.4694   12.1097   -6.7189 C   0  0  0  0  0  0  0  0  0  0  0  0
   -3.7285   13.2413  -10.8249 C   0  0  0  0  0  0  0  0  0  0  0  0
   -2.2513   13.5849  -10.8997 C   0  0  2  0  0  0  0  0  0  0  0  0
   -2.2845   15.0738  -11.2126 C   0  0  0  0  0  0  0  0  0  0  0  0
   -3.4861   15.2528  -12.1338 C   0  0  0  0  0  0  0  0  0  0  0  0
   -1.6222   12.8064  -11.9092 O   0  0  0  0  0  0  0  0  0  0  0  0
   -6.0071   12.8789  -10.0588 H   0  0  0  0  0  0  0  0  0  0  0  0
   -8.7428   10.8506  -13.6409 H   0  0  0  0  0  0  0  0  0  0  0  0
   -7.3505   12.8495  -14.0782 H   0  0  0  0  0  0  0  0  0  0  0  0
   -8.8688    8.6506  -11.6608 H   0  0  0  0  0  0  0  0  0  0  0  0
   -7.5034   11.0220   -7.6285 H   0  0  0  0  0  0  0  0  0  0  0  0
   -6.7126    9.4813   -7.6694 H   0  0  0  0  0  0  0  0  0  0  0  0
   -6.1642   12.9749   -7.2309 H   0  0  0  0  0  0  0  0  0  0  0  0
   -2.1203   10.4679   -8.6594 H   0  0  0  0  0  0  0  0  0  0  0  0
   -4.3894    9.6388   -9.1636 H   0  0  0  0  0  0  0  0  0  0  0  0
   -4.0172   14.4741   -5.5018 H   0  0  0  0  0  0  0  0  0  0  0  0
    0.2012   12.9159   -6.4350 H   0  0  0  0  0  0  0  0  0  0  0  0
   -0.1731   11.6773   -7.6706 H   0  0  0  0  0  0  0  0  0  0  0  0
   -0.4176   11.3241   -5.9653 H   0  0  0  0  0  0  0  0  0  0  0  0
   -4.1034   13.4656   -9.8281 H   0  0  0  0  0  0  0  0  0  0  0  0
   -3.9115   12.1969  -11.0424 H   0  0  0  0  0  0  0  0  0  0  0  0
   -1.7366   13.3623   -9.9670 H   0  0  0  0  0  0  0  0  0  0  0  0
   -2.4355   15.6169  -10.2815 H   0  0  0  0  0  0  0  0  0  0  0  0
   -1.3638   15.4233  -11.6680 H   0  0  0  0  0  0  0  0  0  0  0  0
   -3.2121   15.2257  -13.1846 H   0  0  0  0  0  0  0  0  0  0  0  0
   -4.0309   16.1800  -11.9900 H   0  0  0  0  0  0  0  0  0  0  0  0
   -1.6715   13.3182  -12.7286 H   0  0  0  0  0  0  0  0  0  0  0  0
  1  2  2  0
  1  4  1  0
  1 12  1  0
  2  6  1  0
  2 29  1  0
  3  4  2  0
  3  5  1  0
  3 30  1  0
  4 31  1  0
  5  6  2  0
  5  9  1  0
  6  7  1  0
  7  8  2  0
  7 10  1  0
  8  9  1  0
  9 32  1  0
 10 14  1  0
 10 33  1  0
 10 34  1  0
 11 12  1  0
 11 24  1  0
 11 27  1  0
 12 13  2  0
 14 15  2  0
 14 19  1  0
 15 16  1  0
 15 35  1  0
 16 17  2  0
 16 20  1  0
 17 18  1  0
 17 22  1  0
 18 19  2  0
 18 36  1  0
 19 37  1  0
 20 21  2  0
 20 38  1  0
 21 22  1  0
 22 23  1  0
 23 39  1  0
 23 40  1  0
 23 41  1  0
 24 25  1  0
 24 42  1  0
 24 43  1  0
 25 26  1  0
 25 28  1  0
 25 44  1  1
 26 27  1  0
 26 45  1  0
 26 46  1  0
 27 47  1  0
 27 48  1  0
 28 49  1  0
M  END
>  <r_exp_dg>  (32) 
-11.5248

>  <mol_id>  (32) 
31

>  <source_index>  (32) 
14

>  <paff>  (32) 
8.4492922528398342

>  <source_r_exp_dg>  (32) 
-11.524800000000001

>  <smiles>  (32) 
Cn1ncc2cc(Cc3n[nH]c4ccc(C(=O)N5CC[C@H](O)C5)cc34)ccc21

>  <aimnet_interaction_kcal_mol>  (32) 
-54.806892050327548

$$$$
