L2:P36897:3771
     RDKit          3D

 53 57  0  0  0  0  0  0  0  0999 V2000
    7.1586   16.9210   11.4485 C   0  0  0  0  0  0  0  0  0  0  0  0
    5.8141   16.6908   11.4116 C   0  0  0  0  0  0  0  0  0  0  0  0
    4.8999   17.7877   11.7565 C   0  0  0  0  0  0  0  0  0  0  0  0
    5.3326   19.0078   12.1102 C   0  0  0  0  0  0  0  0  0  0  0  0
    6.7224   19.2598   12.1675 C   0  0  0  0  0  0  0  0  0  0  0  0
    7.3904   20.3424   12.4960 N   0  0  0  0  0  0  0  0  0  0  0  0
    8.6830   19.9448   12.3770 C   0  0  0  0  0  0  0  0  0  0  0  0
    8.8738   18.6839   11.9968 N   0  0  0  0  0  0  0  0  0  0  0  0
    7.5978   18.2150   11.8381 N   0  0  0  0  0  0  0  0  0  0  0  0
    5.2218   15.4512   11.0044 C   0  0  0  0  0  0  0  0  0  0  0  0
    4.3401   15.1657    9.8885 C   0  0  0  0  0  0  0  0  0  0  0  0
    4.0226   13.8431    9.8655 N   0  0  0  0  0  0  0  0  0  0  0  0
    4.6687   13.3618   10.9168 N   0  0  0  0  0  0  0  0  0  0  0  0
    5.3911   14.2487   11.6332 C   0  0  0  0  0  0  0  0  0  0  0  0
    6.0656   13.5837   12.7603 C   0  0  0  0  0  0  0  0  0  0  0  0
    5.3326   12.2146   12.8091 C   0  0  0  0  0  0  0  0  0  0  0  0
    4.7210   12.0009   11.4107 C   0  0  0  0  0  0  0  0  0  0  0  0
    3.8157   16.1042    8.8781 C   0  0  0  0  0  0  0  0  0  0  0  0
    4.6676   16.9559    8.1810 C   0  0  0  0  0  0  0  0  0  0  0  0
    4.1254   17.8351    7.2484 C   0  0  0  0  0  0  0  0  0  0  0  0
    2.7512   17.8416    7.0364 C   0  0  0  0  0  0  0  0  0  0  0  0
    1.9591   16.9597    7.7624 C   0  0  0  0  0  0  0  0  0  0  0  0
    0.4724   16.9453    7.5707 C   0  0  0  0  0  0  0  0  0  0  0  0
    2.4733   16.0969    8.6696 N   0  0  0  0  0  0  0  0  0  0  0  0
    8.9015   15.2105   12.0158 C   0  0  0  0  0  0  0  0  0  0  0  0
    8.1213   15.8549   11.1323 C   0  0  0  0  0  0  0  0  0  0  0  0
    9.8823   14.1647   11.6585 C   0  0  0  0  0  0  0  0  0  0  0  0
    9.7078   13.4059   10.7159 O   0  0  0  0  0  0  0  0  0  0  0  0
   10.9553   14.1751   12.4870 O   0  0  0  0  0  0  0  0  0  0  0  0
   10.7338   12.2123   13.8831 C   0  0  0  0  0  0  0  0  0  0  0  0
   10.7098   13.7281   13.8268 C   0  0  0  0  0  0  0  0  0  0  0  0
    3.8833   17.6129   11.7255 H   0  0  0  0  0  0  0  0  0  0  0  0
    4.6576   19.7545   12.3380 H   0  0  0  0  0  0  0  0  0  0  0  0
    9.4710   20.5827   12.5700 H   0  0  0  0  0  0  0  0  0  0  0  0
    5.9318   14.1295   13.6708 H   0  0  0  0  0  0  0  0  0  0  0  0
    7.1260   13.5026   12.6429 H   0  0  0  0  0  0  0  0  0  0  0  0
    4.5622   12.2331   13.5514 H   0  0  0  0  0  0  0  0  0  0  0  0
    6.0051   11.4225   13.0645 H   0  0  0  0  0  0  0  0  0  0  0  0
    3.7444   11.5679   11.4716 H   0  0  0  0  0  0  0  0  0  0  0  0
    5.2725   11.3281   10.7878 H   0  0  0  0  0  0  0  0  0  0  0  0
    5.6850   16.9358    8.3529 H   0  0  0  0  0  0  0  0  0  0  0  0
    4.7373   18.4760    6.7193 H   0  0  0  0  0  0  0  0  0  0  0  0
    2.3275   18.4887    6.3532 H   0  0  0  0  0  0  0  0  0  0  0  0
    0.2011   17.6696    6.8313 H   0  0  0  0  0  0  0  0  0  0  0  0
   -0.0089   17.1830    8.4963 H   0  0  0  0  0  0  0  0  0  0  0  0
    0.1638   15.9730    7.2476 H   0  0  0  0  0  0  0  0  0  0  0  0
    8.8096   15.4631   13.0122 H   0  0  0  0  0  0  0  0  0  0  0  0
    8.2050   15.5767   10.1420 H   0  0  0  0  0  0  0  0  0  0  0  0
   10.5497   11.8897   14.8866 H   0  0  0  0  0  0  0  0  0  0  0  0
   11.6923   11.8587   13.5650 H   0  0  0  0  0  0  0  0  0  0  0  0
    9.9764   11.8194   13.2375 H   0  0  0  0  0  0  0  0  0  0  0  0
   11.4669   14.1184   14.4744 H   0  0  0  0  0  0  0  0  0  0  0  0
    9.7477   14.0751   14.1411 H   0  0  0  0  0  0  0  0  0  0  0  0
  1  2  2  0
  2 10  1  0
  2  3  1  0
  3  4  2  0
  3 32  1  0
  4  5  1  0
  4 33  1  0
  5  6  2  0
  6  7  1  0
  7  8  2  0
  7 34  1  0
  8  9  1  0
  9  1  1  0
  9  5  1  0
 10 11  1  0
 11 18  1  0
 11 12  2  0
 12 13  1  0
 13 14  1  0
 14 15  1  0
 14 10  2  0
 15 16  1  0
 15 35  1  0
 15 36  1  0
 16 17  1  0
 16 37  1  0
 16 38  1  0
 17 13  1  0
 17 39  1  0
 17 40  1  0
 18 19  2  0
 19 20  1  0
 19 41  1  0
 20 21  2  0
 20 42  1  0
 21 22  1  0
 21 43  1  0
 22 23  1  0
 22 24  2  0
 23 44  1  0
 23 45  1  0
 23 46  1  0
 24 18  1  0
 25 26  2  0
 25 47  1  0
 26  1  1  0
 26 48  1  0
 27 28  2  0
 27 25  1  0
 29 27  1  0
 30 31  1  0
 30 49  1  0
 30 50  1  0
 30 51  1  0
 31 29  1  0
 31 52  1  0
 31 53  1  0
M  END
>  <minimizedAffinity>  (1) 
-9.78143

>  <mol_id>  (1) 
3771

>  <source_index>  (1) 
0

>  <layer>  (1) 
L2

>  <uniprot>  (1) 
P36897

>  <paff>  (1) 
6.4894999999999996

>  <smiles>  (1) 
CCOC(=O)/C=C/c1c(-c2c(-c3cccc(C)n3)nn3c2CCC3)ccc2ncnn12

$$$$
L2:P36897:32660
     RDKit          3D

 53 57  0  0  0  0  0  0  0  0999 V2000
    7.9307   14.0776   11.0512 N   0  0  0  0  0  0  0  0  0  0  0  0
    6.7386   13.7572   10.4793 C   0  0  0  0  0  0  0  0  0  0  0  0
    5.9603   14.8917   10.5578 C   0  0  0  0  0  0  0  0  0  0  0  0
    6.7748   15.8768   11.1965 C   0  0  0  0  0  0  0  0  0  0  0  0
    7.9955   15.3632   11.4595 N   0  0  0  0  0  0  0  0  0  0  0  0
    4.5969   14.9358   10.0610 C   0  0  0  0  0  0  0  0  0  0  0  0
    3.6852   14.0153   10.5781 C   0  0  0  0  0  0  0  0  0  0  0  0
    2.3902   14.0520   10.1080 C   0  0  0  0  0  0  0  0  0  0  0  0
    1.9542   14.9207    9.1724 N   0  0  0  0  0  0  0  0  0  0  0  0
    2.8310   15.8120    8.6768 C   0  0  0  0  0  0  0  0  0  0  0  0
    2.3808   16.7100    7.7171 C   0  0  0  0  0  0  0  0  0  0  0  0
    3.2205   17.6690    7.1451 C   0  0  0  0  0  0  0  0  0  0  0  0
    4.5491   17.7406    7.5387 C   0  0  0  0  0  0  0  0  0  0  0  0
    5.0280   16.8511    8.4994 C   0  0  0  0  0  0  0  0  0  0  0  0
    4.1821   15.8734    9.0834 C   0  0  0  0  0  0  0  0  0  0  0  0
    6.4267   17.2642   11.5496 C   0  0  0  0  0  0  0  0  0  0  0  0
    5.1081   17.6246   11.8239 C   0  0  0  0  0  0  0  0  0  0  0  0
    4.8212   18.9491   12.1462 C   0  0  0  0  0  0  0  0  0  0  0  0
    5.8530   19.8756   12.1937 C   0  0  0  0  0  0  0  0  0  0  0  0
    7.1358   19.4389   11.9081 C   0  0  0  0  0  0  0  0  0  0  0  0
    7.4418   18.1639   11.5874 N   0  0  0  0  0  0  0  0  0  0  0  0
    9.1199   13.2567   11.2172 C   0  0  0  0  0  0  0  0  0  0  0  0
    9.8573   12.8031   13.4622 O   0  0  0  0  0  0  0  0  0  0  0  0
    9.9027   13.5380   12.4786 C   0  0  0  0  0  0  0  0  0  0  0  0
   10.6749   14.6834   12.4340 N   0  0  0  0  0  0  0  0  0  0  0  0
   10.5361   15.3463   11.6827 H   0  0  0  0  0  0  0  0  0  0  0  0
   11.3704   15.1753   13.6040 C   0  0  0  0  0  0  0  0  0  0  0  0
   11.5680   16.6659   13.5096 C   0  0  0  0  0  0  0  0  0  0  0  0
   12.8166   17.2423   13.7850 C   0  0  0  0  0  0  0  0  0  0  0  0
   13.0021   18.6200   13.6596 C   0  0  0  0  0  0  0  0  0  0  0  0
   11.9441   19.4331   13.2546 C   0  0  0  0  0  0  0  0  0  0  0  0
   10.7002   18.8710   12.9765 C   0  0  0  0  0  0  0  0  0  0  0  0
   10.5131   17.4941   13.1009 C   0  0  0  0  0  0  0  0  0  0  0  0
    6.4713   12.8485   10.0696 H   0  0  0  0  0  0  0  0  0  0  0  0
    3.9720   13.3271   11.2917 H   0  0  0  0  0  0  0  0  0  0  0  0
    1.7140   13.3749   10.4945 H   0  0  0  0  0  0  0  0  0  0  0  0
    1.3943   16.6673    7.4170 H   0  0  0  0  0  0  0  0  0  0  0  0
    2.8545   18.3207    6.4335 H   0  0  0  0  0  0  0  0  0  0  0  0
    5.1774   18.4463    7.1238 H   0  0  0  0  0  0  0  0  0  0  0  0
    6.0164   16.9049    8.7912 H   0  0  0  0  0  0  0  0  0  0  0  0
    4.3550   16.9199   11.7887 H   0  0  0  0  0  0  0  0  0  0  0  0
    3.8512   19.2383   12.3476 H   0  0  0  0  0  0  0  0  0  0  0  0
    5.6697   20.8621   12.4350 H   0  0  0  0  0  0  0  0  0  0  0  0
    7.9027   20.1286   11.9425 H   0  0  0  0  0  0  0  0  0  0  0  0
    8.8182   12.2302   11.2327 H   0  0  0  0  0  0  0  0  0  0  0  0
    9.7678   13.4893   10.3980 H   0  0  0  0  0  0  0  0  0  0  0  0
   12.3249   14.6969   13.6738 H   0  0  0  0  0  0  0  0  0  0  0  0
   10.7853   14.9571   14.4729 H   0  0  0  0  0  0  0  0  0  0  0  0
   13.6032   16.6440   14.0822 H   0  0  0  0  0  0  0  0  0  0  0  0
   13.9230   19.0372   13.8668 H   0  0  0  0  0  0  0  0  0  0  0  0
   12.0826   20.4515   13.1609 H   0  0  0  0  0  0  0  0  0  0  0  0
    9.9169   19.4732   12.6784 H   0  0  0  0  0  0  0  0  0  0  0  0
    9.5907   17.0818   12.8904 H   0  0  0  0  0  0  0  0  0  0  0  0
  1  2  1  0
  2  3  2  0
  2 34  1  0
  3  6  1  0
  3  4  1  0
  4 16  1  0
  4  5  2  0
  5  1  1  0
  6  7  2  0
  7  8  1  0
  7 35  1  0
  8  9  2  0
  8 36  1  0
  9 10  1  0
 10 11  2  0
 11 12  1  0
 11 37  1  0
 12 13  2  0
 12 38  1  0
 13 14  1  0
 13 39  1  0
 14 15  2  0
 14 40  1  0
 15  6  1  0
 15 10  1  0
 16 17  2  0
 17 18  1  0
 17 41  1  0
 18 19  2  0
 18 42  1  0
 19 20  1  0
 19 43  1  0
 20 21  2  0
 20 44  1  0
 21 16  1  0
 22  1  1  0
 22 45  1  0
 22 46  1  0
 23 24  2  0
 24 22  1  0
 24 25  1  0
 25 27  1  0
 25 26  1  0
 27 28  1  0
 27 47  1  0
 27 48  1  0
 28 29  2  0
 29 30  1  0
 29 49  1  0
 30 31  2  0
 30 50  1  0
 31 32  1  0
 31 51  1  0
 32 33  2  0
 32 52  1  0
 33 28  1  0
 33 53  1  0
M  END
>  <minimizedAffinity>  (2) 
-9.80266

>  <mol_id>  (2) 
32660

>  <source_index>  (2) 
1

>  <layer>  (2) 
L2

>  <uniprot>  (2) 
P36897

>  <paff>  (2) 
7

>  <smiles>  (2) 
O=C(Cn1cc(-c2ccnc3ccccc23)c(-c2ccccn2)n1)NCc1ccccc1

$$$$
L2:P36897:43953
     RDKit          3D

 49 53  0  0  0  0  0  0  0  0999 V2000
   12.9640   12.3851   14.2513 C   0  0  0  0  0  0  0  0  0  0  0  0
   12.8527   11.4321   15.3636 C   0  0  0  0  0  0  0  0  0  0  0  0
   13.8563   10.6059   15.7138 C   0  0  0  0  0  0  0  0  0  0  0  0
   15.0706   10.6363   14.9880 C   0  0  0  0  0  0  0  0  0  0  0  0
   16.1840    9.9517   15.1221 N   0  0  0  0  0  0  0  0  0  0  0  0
   16.9587   10.4393   14.1191 C   0  0  0  0  0  0  0  0  0  0  0  0
   16.4091   11.3890   13.3640 N   0  0  0  0  0  0  0  0  0  0  0  0
   15.1652   11.5253   13.9143 N   0  0  0  0  0  0  0  0  0  0  0  0
   14.1139   12.3881   13.5206 C   0  0  0  0  0  0  0  0  0  0  0  0
   11.7388   14.6880   14.3614 C   0  0  0  0  0  0  0  0  0  0  0  0
   10.5368   15.1620   13.9346 N   0  0  0  0  0  0  0  0  0  0  0  0
    9.9679   14.0938   13.3965 N   0  0  0  0  0  0  0  0  0  0  0  0
   10.6880   12.9527   13.4256 C   0  0  0  0  0  0  0  0  0  0  0  0
   11.8722   13.2829   14.0254 C   0  0  0  0  0  0  0  0  0  0  0  0
    9.9392   11.8479   12.8029 C   0  0  0  0  0  0  0  0  0  0  0  0
    8.8099   12.6116   12.0561 C   0  0  0  0  0  0  0  0  0  0  0  0
    8.6700   13.9750   12.7617 C   0  0  0  0  0  0  0  0  0  0  0  0
   13.9658   15.8216   18.5198 C   0  0  0  0  0  0  0  0  0  0  0  0
   13.7740   16.1076   17.0588 C   0  0  0  0  0  0  0  0  0  0  0  0
   14.4630   17.1488   16.4506 C   0  0  0  0  0  0  0  0  0  0  0  0
   14.2516   17.3882   15.0974 C   0  0  0  0  0  0  0  0  0  0  0  0
   13.3682   16.5800   14.3883 C   0  0  0  0  0  0  0  0  0  0  0  0
   12.7023   15.5607   15.0626 C   0  0  0  0  0  0  0  0  0  0  0  0
   12.8982   15.3252   16.3851 N   0  0  0  0  0  0  0  0  0  0  0  0
   14.3525   13.2828   12.3888 C   0  0  0  0  0  0  0  0  0  0  0  0
   15.2725   14.2584   12.3742 C   0  0  0  0  0  0  0  0  0  0  0  0
   15.4446   15.1537   11.2107 C   0  0  0  0  0  0  0  0  0  0  0  0
   15.6542   16.3555   11.3596 O   0  0  0  0  0  0  0  0  0  0  0  0
   15.4470   14.5334    9.9863 N   0  0  0  0  0  0  0  0  0  0  0  0
   15.8486   15.3444    8.8951 O   0  0  0  0  0  0  0  0  0  0  0  0
   15.5819   13.5315    9.8841 H   0  0  0  0  0  0  0  0  0  0  0  0
   15.9196   16.2319    9.3144 H   0  0  0  0  0  0  0  0  0  0  0  0
   11.9704   11.3944   15.8976 H   0  0  0  0  0  0  0  0  0  0  0  0
   13.7408    9.9549   16.5062 H   0  0  0  0  0  0  0  0  0  0  0  0
   17.9168   10.0944   13.9517 H   0  0  0  0  0  0  0  0  0  0  0  0
    9.5390   11.1839   13.5404 H   0  0  0  0  0  0  0  0  0  0  0  0
   10.5339   11.2243   12.1686 H   0  0  0  0  0  0  0  0  0  0  0  0
    7.8910   12.0668   12.1172 H   0  0  0  0  0  0  0  0  0  0  0  0
    9.0423   12.7326   11.0187 H   0  0  0  0  0  0  0  0  0  0  0  0
    7.8796   13.9647   13.4828 H   0  0  0  0  0  0  0  0  0  0  0  0
    8.4231   14.7858   12.1086 H   0  0  0  0  0  0  0  0  0  0  0  0
   14.6788   16.5077   18.9270 H   0  0  0  0  0  0  0  0  0  0  0  0
   14.3232   14.8207   18.6434 H   0  0  0  0  0  0  0  0  0  0  0  0
   13.0321   15.9325   19.0305 H   0  0  0  0  0  0  0  0  0  0  0  0
   15.1188   17.7332   16.9923 H   0  0  0  0  0  0  0  0  0  0  0  0
   14.7461   18.1595   14.6224 H   0  0  0  0  0  0  0  0  0  0  0  0
   13.2096   16.7337   13.3802 H   0  0  0  0  0  0  0  0  0  0  0  0
   13.7737   13.1548   11.5441 H   0  0  0  0  0  0  0  0  0  0  0  0
   15.8782   14.3879   13.1997 H   0  0  0  0  0  0  0  0  0  0  0  0
  1  2  1  0
  2  3  2  0
  2 33  1  0
  3  4  1  0
  3 34  1  0
  4  5  2  0
  5  6  1  0
  6  7  2  0
  6 35  1  0
  7  8  1  0
  8  9  1  0
  8  4  1  0
  9 25  1  0
  9  1  2  0
 10 11  2  0
 11 12  1  0
 12 13  1  0
 13 14  2  0
 13 15  1  0
 14  1  1  0
 14 10  1  0
 15 16  1  0
 15 36  1  0
 15 37  1  0
 16 17  1  0
 16 38  1  0
 16 39  1  0
 17 12  1  0
 17 40  1  0
 17 41  1  0
 18 19  1  0
 18 42  1  0
 18 43  1  0
 18 44  1  0
 19 20  2  0
 20 21  1  0
 20 45  1  0
 21 22  2  0
 21 46  1  0
 22 23  1  0
 22 47  1  0
 23 10  1  0
 23 24  2  0
 24 19  1  0
 25 26  2  0
 25 48  1  0
 26 27  1  0
 26 49  1  0
 27 28  2  0
 27 29  1  0
 29 30  1  0
 29 31  1  0
 30 32  1  0
M  END
>  <minimizedAffinity>  (3) 
-5.67188

>  <mol_id>  (3) 
43953

>  <source_index>  (3) 
2

>  <layer>  (3) 
L2

>  <uniprot>  (3) 
P36897

>  <paff>  (3) 
7.3872

>  <smiles>  (3) 
Cc1cccc(-c2nn3c(c2-c2ccc4ncnn4c2/C=C/C(=O)NO)CCC3)n1

$$$$
L2:P36897:50724
     RDKit          3D

 71 76  0  0  0  0  0  0  0  0999 V2000
    5.3212   14.3621   10.9081 C   0  0  0  0  0  0  0  0  0  0  0  0
    4.6831   13.2269   11.4026 C   0  0  0  0  0  0  0  0  0  0  0  0
    5.4249   12.3192   12.1429 C   0  0  0  0  0  0  0  0  0  0  0  0
    6.7418   12.4588   12.4117 N   0  0  0  0  0  0  0  0  0  0  0  0
    7.3488   13.5639   11.9030 C   0  0  0  0  0  0  0  0  0  0  0  0
    6.6850   14.5270   11.1545 C   0  0  0  0  0  0  0  0  0  0  0  0
    8.7709   13.6936   12.2099 C   0  0  0  0  0  0  0  0  0  0  0  0
    9.7893   13.0895   11.5943 N   0  0  0  0  0  0  0  0  0  0  0  0
   10.8879   13.5623   12.2259 C   0  0  0  0  0  0  0  0  0  0  0  0
   10.5704   14.4416   13.2100 C   0  0  0  0  0  0  0  0  0  0  0  0
    9.2248   14.5304   13.2271 N   0  0  0  0  0  0  0  0  0  0  0  0
   11.7234   15.0182   13.8963 C   0  0  0  0  0  0  0  0  0  0  0  0
   12.8154   14.4064   13.0789 N   0  0  0  0  0  0  0  0  0  0  0  0
   14.1419   14.3875   13.4385 C   0  0  0  0  0  0  0  0  0  0  0  0
   14.9245   13.5378   13.0108 O   0  0  0  0  0  0  0  0  0  0  0  0
   14.5365   15.3697   14.3435 N   0  0  0  0  0  0  0  0  0  0  0  0
   15.7411   15.0471   15.1096 C   0  0  0  0  0  0  0  0  0  0  0  0
   15.9984   16.0781   16.2254 C   0  0  0  0  0  0  0  0  0  0  0  0
   16.0329   17.4862   15.7726 N   0  0  0  0  0  0  0  0  0  0  0  0
   17.2715   17.7953   15.0615 C   0  0  0  0  0  0  0  0  0  0  0  0
   14.8421   17.7724   14.9444 C   0  0  0  0  0  0  0  0  0  0  0  0
   14.5587   16.7428   13.8318 C   0  0  0  0  0  0  0  0  0  0  0  0
   12.3392   13.3856   12.0939 C   0  0  0  0  0  0  0  0  0  0  0  0
    8.6128   15.0868   13.8106 H   0  0  0  0  0  0  0  0  0  0  0  0
    4.6711   16.8004   10.1528 C   0  0  0  0  0  0  0  0  0  0  0  0
    3.8787   17.3149    9.1908 N   0  0  0  0  0  0  0  0  0  0  0  0
    3.2627   16.2495    8.6517 N   0  0  0  0  0  0  0  0  0  0  0  0
    3.6833   15.0612    9.1705 C   0  0  0  0  0  0  0  0  0  0  0  0
    4.5915   15.3712   10.1624 C   0  0  0  0  0  0  0  0  0  0  0  0
    9.1185   17.9112   11.7212 C   0  0  0  0  0  0  0  0  0  0  0  0
    7.6466   18.2070   11.7290 C   0  0  0  0  0  0  0  0  0  0  0  0
    7.1474   19.2581   12.4936 C   0  0  0  0  0  0  0  0  0  0  0  0
    5.7777   19.5037   12.4860 C   0  0  0  0  0  0  0  0  0  0  0  0
    4.9466   18.6952   11.7193 C   0  0  0  0  0  0  0  0  0  0  0  0
    5.5206   17.6736   10.9671 C   0  0  0  0  0  0  0  0  0  0  0  0
    6.8572   17.4208   10.9605 N   0  0  0  0  0  0  0  0  0  0  0  0
    2.2726   16.4548    7.6011 C   0  0  0  0  0  0  0  0  0  0  0  0
    0.8502   16.2885    8.1350 C   0  0  0  0  0  0  0  0  0  0  0  0
    2.4484   17.8088    6.9103 C   0  0  0  0  0  0  0  0  0  0  0  0
    3.6800   13.0650   11.2218 H   0  0  0  0  0  0  0  0  0  0  0  0
    4.9414   11.4853   12.5115 H   0  0  0  0  0  0  0  0  0  0  0  0
    7.1903   15.3486   10.7876 H   0  0  0  0  0  0  0  0  0  0  0  0
   11.7723   14.7154   14.9214 H   0  0  0  0  0  0  0  0  0  0  0  0
   11.7365   16.0866   13.9540 H   0  0  0  0  0  0  0  0  0  0  0  0
   16.5811   15.0360   14.4470 H   0  0  0  0  0  0  0  0  0  0  0  0
   15.6005   14.0894   15.5656 H   0  0  0  0  0  0  0  0  0  0  0  0
   16.9410   15.8507   16.6779 H   0  0  0  0  0  0  0  0  0  0  0  0
   15.1747   15.9998   16.9039 H   0  0  0  0  0  0  0  0  0  0  0  0
   18.1084   17.5759   15.6910 H   0  0  0  0  0  0  0  0  0  0  0  0
   17.2837   18.8330   14.8008 H   0  0  0  0  0  0  0  0  0  0  0  0
   17.3293   17.2034   14.1720 H   0  0  0  0  0  0  0  0  0  0  0  0
   14.9798   18.7286   14.4844 H   0  0  0  0  0  0  0  0  0  0  0  0
   14.0021   17.7361   15.6062 H   0  0  0  0  0  0  0  0  0  0  0  0
   15.3227   16.8210   13.0867 H   0  0  0  0  0  0  0  0  0  0  0  0
   13.5936   16.9574   13.4225 H   0  0  0  0  0  0  0  0  0  0  0  0
   12.6454   12.3973   12.3667 H   0  0  0  0  0  0  0  0  0  0  0  0
   12.7195   13.5054   11.1010 H   0  0  0  0  0  0  0  0  0  0  0  0
    3.3826   14.1178    8.8796 H   0  0  0  0  0  0  0  0  0  0  0  0
    9.6242   18.6002   12.3650 H   0  0  0  0  0  0  0  0  0  0  0  0
    9.4969   18.0102   10.7253 H   0  0  0  0  0  0  0  0  0  0  0  0
    9.2834   16.9124   12.0677 H   0  0  0  0  0  0  0  0  0  0  0  0
    7.7826   19.8452   13.0565 H   0  0  0  0  0  0  0  0  0  0  0  0
    5.3833   20.2775   13.0434 H   0  0  0  0  0  0  0  0  0  0  0  0
    3.9262   18.8488   11.7078 H   0  0  0  0  0  0  0  0  0  0  0  0
    2.4357   15.6970    6.8635 H   0  0  0  0  0  0  0  0  0  0  0  0
    0.6581   17.0353    8.8769 H   0  0  0  0  0  0  0  0  0  0  0  0
    0.7442   15.3171    8.5709 H   0  0  0  0  0  0  0  0  0  0  0  0
    0.1525   16.3967    7.3310 H   0  0  0  0  0  0  0  0  0  0  0  0
    2.2921   18.5942    7.6199 H   0  0  0  0  0  0  0  0  0  0  0  0
    1.7371   17.8990    6.1160 H   0  0  0  0  0  0  0  0  0  0  0  0
    3.4389   17.8800    6.5119 H   0  0  0  0  0  0  0  0  0  0  0  0
  1  2  2  0
  2  3  1  0
  2 40  1  0
  3  4  2  0
  3 41  1  0
  4  5  1  0
  5  7  1  0
  5  6  2  0
  6  1  1  0
  6 42  1  0
  7  8  2  0
  8  9  1  0
  9 10  2  0
 10 11  1  0
 10 12  1  0
 11  7  1  0
 11 24  1  0
 12 13  1  0
 12 43  1  0
 12 44  1  0
 13 14  1  0
 13 23  1  0
 14 15  2  0
 14 16  1  0
 16 17  1  0
 17 18  1  0
 17 45  1  0
 17 46  1  0
 18 19  1  0
 18 47  1  0
 18 48  1  0
 19 20  1  0
 19 21  1  0
 20 49  1  0
 20 50  1  0
 20 51  1  0
 21 22  1  0
 21 52  1  0
 21 53  1  0
 22 16  1  0
 22 54  1  0
 22 55  1  0
 23  9  1  0
 23 56  1  0
 23 57  1  0
 25 26  2  0
 26 27  1  0
 27 37  1  0
 27 28  1  0
 28 29  2  0
 28 58  1  0
 29  1  1  0
 29 25  1  0
 30 31  1  0
 30 59  1  0
 30 60  1  0
 30 61  1  0
 31 32  2  0
 32 33  1  0
 32 62  1  0
 33 34  2  0
 33 63  1  0
 34 35  1  0
 34 64  1  0
 35 25  1  0
 35 36  2  0
 36 31  1  0
 37 38  1  0
 37 39  1  0
 37 65  1  0
 38 66  1  0
 38 67  1  0
 38 68  1  0
 39 69  1  0
 39 70  1  0
 39 71  1  0
M  END
>  <minimizedAffinity>  (4) 
-10.67946

>  <mol_id>  (4) 
50724

>  <source_index>  (4) 
3

>  <layer>  (4) 
L2

>  <uniprot>  (4) 
P36897

>  <paff>  (4) 
8.1249000000000002

>  <smiles>  (4) 
Cc1cccc(-c2nn(C(C)C)cc2-c2ccnc(-c3nc4c([nH]3)CN(C(=O)N3CCN(C)CC3)C4)c2)n1

$$$$
L2:P36897:77306
     RDKit          3D

 36 39  0  0  0  0  0  0  0  0999 V2000
    2.3729   16.6047    7.7828 C   0  0  0  0  0  0  0  0  0  0  0  0
    3.5214   16.4447    8.7065 C   0  0  0  0  0  0  0  0  0  0  0  0
    4.2327   15.2708    9.0077 C   0  0  0  0  0  0  0  0  0  0  0  0
    5.2131   15.6477    9.9037 C   0  0  0  0  0  0  0  0  0  0  0  0
    5.0256   17.0091   10.1364 N   0  0  0  0  0  0  0  0  0  0  0  0
    4.0034   17.5004    9.3653 N   0  0  0  0  0  0  0  0  0  0  0  0
    6.2232   14.8107   10.4822 C   0  0  0  0  0  0  0  0  0  0  0  0
    7.5607   15.1020   10.6385 C   0  0  0  0  0  0  0  0  0  0  0  0
    8.2995   14.0424   11.2647 C   0  0  0  0  0  0  0  0  0  0  0  0
    9.6539   13.9543   11.6214 C   0  0  0  0  0  0  0  0  0  0  0  0
   10.1541   12.8450   12.2142 N   0  0  0  0  0  0  0  0  0  0  0  0
    9.3264   11.8123   12.4620 C   0  0  0  0  0  0  0  0  0  0  0  0
    7.9792   11.7958   12.1523 C   0  0  0  0  0  0  0  0  0  0  0  0
    7.4761   12.9499   11.5408 C   0  0  0  0  0  0  0  0  0  0  0  0
    5.8559   13.2400   11.0364 S   0  0  0  0  0  0  0  0  0  0  0  0
    5.7254   17.8756   11.0443 C   0  0  0  0  0  0  0  0  0  0  0  0
    4.9911   18.7779   11.8132 C   0  0  0  0  0  0  0  0  0  0  0  0
    5.6670   19.6123   12.6997 C   0  0  0  0  0  0  0  0  0  0  0  0
    7.0505   19.5257   12.8008 C   0  0  0  0  0  0  0  0  0  0  0  0
    7.7206   18.6028   12.0077 C   0  0  0  0  0  0  0  0  0  0  0  0
    9.2123   18.4769   12.0895 C   0  0  0  0  0  0  0  0  0  0  0  0
    7.0783   17.7885   11.1383 N   0  0  0  0  0  0  0  0  0  0  0  0
    2.1289   15.6572    7.3496 H   0  0  0  0  0  0  0  0  0  0  0  0
    2.6322   17.2952    7.0076 H   0  0  0  0  0  0  0  0  0  0  0  0
    1.5287   16.9772    8.3245 H   0  0  0  0  0  0  0  0  0  0  0  0
    4.0584   14.3238    8.6363 H   0  0  0  0  0  0  0  0  0  0  0  0
    7.9879   15.9914   10.3362 H   0  0  0  0  0  0  0  0  0  0  0  0
   10.2808   14.7509   11.4280 H   0  0  0  0  0  0  0  0  0  0  0  0
    9.7254   10.9750   12.9145 H   0  0  0  0  0  0  0  0  0  0  0  0
    7.3803   10.9813   12.3596 H   0  0  0  0  0  0  0  0  0  0  0  0
    3.9639   18.8264   11.7267 H   0  0  0  0  0  0  0  0  0  0  0  0
    5.1448   20.2897   13.2771 H   0  0  0  0  0  0  0  0  0  0  0  0
    7.5697   20.1350   13.4522 H   0  0  0  0  0  0  0  0  0  0  0  0
    9.5900   19.1728   12.8092 H   0  0  0  0  0  0  0  0  0  0  0  0
    9.6410   18.6863   11.1318 H   0  0  0  0  0  0  0  0  0  0  0  0
    9.4705   17.4817   12.3859 H   0  0  0  0  0  0  0  0  0  0  0  0
  1  2  1  0
  1 23  1  0
  1 24  1  0
  1 25  1  0
  2  3  1  0
  3  4  2  0
  3 26  1  0
  4  7  1  0
  4  5  1  0
  5  6  1  0
  5 16  1  0
  6  2  2  0
  7  8  2  0
  8  9  1  0
  8 27  1  0
  9 10  2  0
 10 11  1  0
 10 28  1  0
 11 12  2  0
 12 13  1  0
 12 29  1  0
 13 14  2  0
 13 30  1  0
 14 15  1  0
 14  9  1  0
 15  7  1  0
 16 17  2  0
 17 18  1  0
 17 31  1  0
 18 19  2  0
 18 32  1  0
 19 20  1  0
 19 33  1  0
 20 21  1  0
 20 22  2  0
 21 34  1  0
 21 35  1  0
 21 36  1  0
 22 16  1  0
M  END
>  <minimizedAffinity>  (5) 
-8.47706

>  <mol_id>  (5) 
77306

>  <source_index>  (5) 
4

>  <layer>  (5) 
L2

>  <uniprot>  (5) 
P36897

>  <paff>  (5) 
7.0263999999999998

>  <smiles>  (5) 
Cc1cc(-c2cc3cnccc3s2)n(n1)-c1cccc(C)n1

$$$$
L2:P36897:93720
     RDKit          3D

 49 52  0  0  0  0  0  0  0  0999 V2000
    5.9335   18.0662   11.0142 C   0  0  0  0  0  0  0  0  0  0  0  0
    6.2196   19.4053   11.6221 C   0  0  0  0  0  0  0  0  0  0  0  0
    7.3742   19.5212   12.2893 C   0  0  0  0  0  0  0  0  0  0  0  0
    8.2301   18.4343   12.4037 N   0  0  0  0  0  0  0  0  0  0  0  0
    9.4304   18.3973   13.0314 N   0  0  0  0  0  0  0  0  0  0  0  0
    9.8335   17.1362   12.8813 C   0  0  0  0  0  0  0  0  0  0  0  0
    8.9356   16.3385   12.1388 C   0  0  0  0  0  0  0  0  0  0  0  0
    7.8959   17.2018   11.8369 C   0  0  0  0  0  0  0  0  0  0  0  0
    6.7307   17.0336   11.1384 N   0  0  0  0  0  0  0  0  0  0  0  0
    9.0578   14.9543   11.7834 C   0  0  0  0  0  0  0  0  0  0  0  0
    9.4530   14.5057   10.6310 N   0  0  0  0  0  0  0  0  0  0  0  0
    9.4605   13.0777   10.7571 O   0  0  0  0  0  0  0  0  0  0  0  0
    9.1007   12.7557   12.1167 C   0  0  0  0  0  0  0  0  0  0  0  0
   10.3038   12.1251   12.8066 C   0  0  0  0  0  0  0  0  0  0  0  0
    7.8963   11.8262   12.1024 C   0  0  0  0  0  0  0  0  0  0  0  0
    8.7481   14.0215   12.7304 N   0  0  0  0  0  0  0  0  0  0  0  0
    9.1446   14.1924   13.6447 H   0  0  0  0  0  0  0  0  0  0  0  0
    4.7723   17.8388   10.3130 N   0  0  0  0  0  0  0  0  0  0  0  0
    4.1360   17.4078   10.9859 H   0  0  0  0  0  0  0  0  0  0  0  0
    4.7855   16.9786    9.1221 C   0  0  2  0  0  0  0  0  0  0  0  0
    4.7930   17.7846    7.8229 C   0  0  0  0  0  0  0  0  0  0  0  0
    3.6725   14.7816    9.8991 C   0  0  0  0  0  0  0  0  0  0  0  0
    2.5613   13.9300    9.9549 C   0  0  0  0  0  0  0  0  0  0  0  0
    1.3924   14.2642    9.2758 C   0  0  0  0  0  0  0  0  0  0  0  0
    1.3410   15.4490    8.5556 C   0  0  0  0  0  0  0  0  0  0  0  0
    0.2202   15.7728    7.8981 F   0  0  0  0  0  0  0  0  0  0  0  0
    2.4328   16.3120    8.5115 C   0  0  0  0  0  0  0  0  0  0  0  0
    3.6195   16.0021    9.2023 C   0  0  0  0  0  0  0  0  0  0  0  0
    5.5272   13.4077    9.9170 C   0  0  0  0  0  0  0  0  0  0  0  0
    4.8056   14.4415   10.5890 O   0  0  0  0  0  0  0  0  0  0  0  0
    5.5621   20.1955   11.5314 H   0  0  0  0  0  0  0  0  0  0  0  0
    7.6294   20.4232   12.7209 H   0  0  0  0  0  0  0  0  0  0  0  0
   10.7187   16.7763   13.2711 H   0  0  0  0  0  0  0  0  0  0  0  0
   10.5395   11.1950   12.3330 H   0  0  0  0  0  0  0  0  0  0  0  0
   10.0739   11.9524   13.8372 H   0  0  0  0  0  0  0  0  0  0  0  0
   11.1429   12.7850   12.7341 H   0  0  0  0  0  0  0  0  0  0  0  0
    8.1685   10.8966   11.6478 H   0  0  0  0  0  0  0  0  0  0  0  0
    7.1037   12.2780   11.5434 H   0  0  0  0  0  0  0  0  0  0  0  0
    7.5696   11.6502   13.1060 H   0  0  0  0  0  0  0  0  0  0  0  0
    5.6978   16.4197    9.1061 H   0  0  0  0  0  0  0  0  0  0  0  0
    3.9031   18.3758    7.7648 H   0  0  0  0  0  0  0  0  0  0  0  0
    4.8321   17.1159    6.9885 H   0  0  0  0  0  0  0  0  0  0  0  0
    5.6491   18.4262    7.8061 H   0  0  0  0  0  0  0  0  0  0  0  0
    2.6091   13.0547   10.4995 H   0  0  0  0  0  0  0  0  0  0  0  0
    0.5732   13.6374    9.3079 H   0  0  0  0  0  0  0  0  0  0  0  0
    2.3714   17.1868    7.9674 H   0  0  0  0  0  0  0  0  0  0  0  0
    6.4052   13.1633   10.4776 H   0  0  0  0  0  0  0  0  0  0  0  0
    5.8093   13.7456    8.9417 H   0  0  0  0  0  0  0  0  0  0  0  0
    4.9076   12.5399    9.8284 H   0  0  0  0  0  0  0  0  0  0  0  0
  1  2  1  0
  2  3  2  0
  2 31  1  0
  3  4  1  0
  3 32  1  0
  4  5  1  0
  5  6  2  0
  6  7  1  0
  6 33  1  0
  7 10  1  0
  7  8  2  0
  8  9  1  0
  8  4  1  0
  9  1  2  0
 10 11  2  0
 11 12  1  0
 12 13  1  0
 13 14  1  0
 13 15  1  0
 13 16  1  0
 14 34  1  0
 14 35  1  0
 14 36  1  0
 15 37  1  0
 15 38  1  0
 15 39  1  0
 16 10  1  0
 16 17  1  0
 18  1  1  0
 18 19  1  0
 20 21  1  0
 20 18  1  0
 20 40  1  1
 21 41  1  0
 21 42  1  0
 21 43  1  0
 22 23  2  0
 23 24  1  0
 23 44  1  0
 24 25  2  0
 24 45  1  0
 25 26  1  0
 25 27  1  0
 27 28  2  0
 27 46  1  0
 28 20  1  0
 28 22  1  0
 29 30  1  0
 29 47  1  0
 29 48  1  0
 29 49  1  0
 30 22  1  0
M  END
>  <minimizedAffinity>  (6) 
-8.15725

>  <mol_id>  (6) 
93720

>  <source_index>  (6) 
5

>  <layer>  (6) 
L2

>  <uniprot>  (6) 
P36897

>  <paff>  (6) 
7.3010000000000002

>  <smiles>  (6) 
COc1ccc(F)cc1[C@@H](C)Nc1ccn2ncc(C3=NOC(C)(C)N3)c2n1

$$$$
L2:P36897:102780
     RDKit          3D

 60 64  0  0  0  0  0  0  0  0999 V2000
    7.5151   17.8533   11.7782 C   0  0  0  0  0  0  0  0  0  0  0  0
    7.0173   16.6286   11.3267 C   0  0  0  0  0  0  0  0  0  0  0  0
    5.6441   16.4566   11.0874 C   0  0  0  0  0  0  0  0  0  0  0  0
    4.7672   17.5310   11.2913 C   0  0  0  0  0  0  0  0  0  0  0  0
    5.2549   18.7611   11.7315 C   0  0  0  0  0  0  0  0  0  0  0  0
    6.6175   18.9110   11.9698 C   0  0  0  0  0  0  0  0  0  0  0  0
    7.0721   20.1014   12.3940 F   0  0  0  0  0  0  0  0  0  0  0  0
    5.1344   15.1768   10.6146 C   0  0  0  0  0  0  0  0  0  0  0  0
    4.1646   14.8274    9.6691 C   0  0  0  0  0  0  0  0  0  0  0  0
    4.0119   13.4520    9.5549 N   0  0  0  0  0  0  0  0  0  0  0  0
    4.8400   12.9763   10.4364 C   0  0  0  0  0  0  0  0  0  0  0  0
    5.5352   13.9616   11.0644 N   0  0  0  0  0  0  0  0  0  0  0  0
    6.5133   13.4358   11.9915 C   0  0  0  0  0  0  0  0  0  0  0  0
    6.4793   11.9365   11.6201 C   0  0  0  0  0  0  0  0  0  0  0  0
    5.2418   11.7596   10.8451 N   0  0  0  0  0  0  0  0  0  0  0  0
    5.1955   11.0007   10.1718 H   0  0  0  0  0  0  0  0  0  0  0  0
    3.4303   15.7570    8.8397 C   0  0  0  0  0  0  0  0  0  0  0  0
    2.0321   15.8200    8.9236 C   0  0  0  0  0  0  0  0  0  0  0  0
    1.3297   16.7163    8.1182 C   0  0  0  0  0  0  0  0  0  0  0  0
   -0.3874   16.7846    8.2169 Cl  0  0  0  0  0  0  0  0  0  0  0  0
    2.0048   17.5555    7.2305 C   0  0  0  0  0  0  0  0  0  0  0  0
    3.3969   17.4975    7.1481 C   0  0  0  0  0  0  0  0  0  0  0  0
    4.1009   16.6016    7.9511 C   0  0  0  0  0  0  0  0  0  0  0  0
    5.4353   16.5475    7.8225 F   0  0  0  0  0  0  0  0  0  0  0  0
    9.3983   16.5154   13.6533 O   0  0  0  0  0  0  0  0  0  0  0  0
    9.7163   17.4349   12.9032 C   0  0  0  0  0  0  0  0  0  0  0  0
    8.8784   18.1018   12.0363 N   0  0  0  0  0  0  0  0  0  0  0  0
    9.2731   18.9333   11.5851 H   0  0  0  0  0  0  0  0  0  0  0  0
   11.1579   17.9100   12.8321 C   0  0  0  0  0  0  0  0  0  0  0  0
   12.1153   17.0637   13.6754 C   0  0  0  0  0  0  0  0  0  0  0  0
   13.2458   17.8444   14.2200 N   0  0  0  0  0  0  0  0  0  0  0  0
   14.1328   18.4054   13.1825 C   0  0  0  0  0  0  0  0  0  0  0  0
   15.0043   17.3713   12.4623 C   0  0  0  0  0  0  0  0  0  0  0  0
   15.7903   16.5137   13.4509 C   0  0  0  0  0  0  0  0  0  0  0  0
   14.8755   15.9463   14.5314 C   0  0  0  0  0  0  0  0  0  0  0  0
   14.0387   17.0519   15.1809 C   0  0  0  0  0  0  0  0  0  0  0  0
    7.6656   15.8417   11.1673 H   0  0  0  0  0  0  0  0  0  0  0  0
    3.7574   17.4113   11.1151 H   0  0  0  0  0  0  0  0  0  0  0  0
    4.6106   19.5536   11.8793 H   0  0  0  0  0  0  0  0  0  0  0  0
    6.2204   13.5973   13.0079 H   0  0  0  0  0  0  0  0  0  0  0  0
    7.4800   13.8894   11.9232 H   0  0  0  0  0  0  0  0  0  0  0  0
    6.4592   11.3316   12.5025 H   0  0  0  0  0  0  0  0  0  0  0  0
    7.3450   11.6423   11.0643 H   0  0  0  0  0  0  0  0  0  0  0  0
    1.5245   15.2053    9.5790 H   0  0  0  0  0  0  0  0  0  0  0  0
    1.4773   18.2156    6.6380 H   0  0  0  0  0  0  0  0  0  0  0  0
    3.9032   18.1157    6.4950 H   0  0  0  0  0  0  0  0  0  0  0  0
   11.2003   18.9206   13.1811 H   0  0  0  0  0  0  0  0  0  0  0  0
   11.4710   17.8228   11.8127 H   0  0  0  0  0  0  0  0  0  0  0  0
   12.5064   16.2783   13.0629 H   0  0  0  0  0  0  0  0  0  0  0  0
   11.5593   16.6817   14.5060 H   0  0  0  0  0  0  0  0  0  0  0  0
   14.7787   19.1211   13.6467 H   0  0  0  0  0  0  0  0  0  0  0  0
   13.4955   18.8361   12.4387 H   0  0  0  0  0  0  0  0  0  0  0  0
   15.6926   17.8825   11.8221 H   0  0  0  0  0  0  0  0  0  0  0  0
   14.3628   16.7280   11.8970 H   0  0  0  0  0  0  0  0  0  0  0  0
   16.5454   17.1151   13.9124 H   0  0  0  0  0  0  0  0  0  0  0  0
   16.2335   15.6988   12.9175 H   0  0  0  0  0  0  0  0  0  0  0  0
   15.4731   15.4733   15.2824 H   0  0  0  0  0  0  0  0  0  0  0  0
   14.2122   15.2393   14.0786 H   0  0  0  0  0  0  0  0  0  0  0  0
   14.6999   17.7144   15.6994 H   0  0  0  0  0  0  0  0  0  0  0  0
   13.3427   16.5707   15.8358 H   0  0  0  0  0  0  0  0  0  0  0  0
  1  2  2  0
  2  3  1  0
  2 37  1  0
  3  8  1  0
  3  4  2  0
  4  5  1  0
  4 38  1  0
  5  6  2  0
  5 39  1  0
  6  7  1  0
  6  1  1  0
  8  9  2  0
  9 17  1  0
  9 10  1  0
 10 11  2  0
 11 12  1  0
 12 13  1  0
 12  8  1  0
 13 14  1  0
 13 40  1  0
 13 41  1  0
 14 15  1  0
 14 42  1  0
 14 43  1  0
 15 11  1  0
 15 16  1  0
 17 18  2  0
 18 19  1  0
 18 44  1  0
 19 20  1  0
 19 21  2  0
 21 22  1  0
 21 45  1  0
 22 23  2  0
 22 46  1  0
 23 24  1  0
 23 17  1  0
 25 26  2  0
 26 29  1  0
 26 27  1  0
 27  1  1  0
 27 28  1  0
 29 30  1  0
 29 47  1  0
 29 48  1  0
 30 31  1  0
 30 49  1  0
 30 50  1  0
 31 32  1  0
 32 33  1  0
 32 51  1  0
 32 52  1  0
 33 34  1  0
 33 53  1  0
 33 54  1  0
 34 35  1  0
 34 55  1  0
 34 56  1  0
 35 36  1  0
 35 57  1  0
 35 58  1  0
 36 31  1  0
 36 59  1  0
 36 60  1  0
M  END
>  <minimizedAffinity>  (7) 
-9.54172

>  <mol_id>  (7) 
102780

>  <source_index>  (7) 
6

>  <layer>  (7) 
L2

>  <uniprot>  (7) 
P36897

>  <paff>  (7) 
9

>  <smiles>  (7) 
O=C(CCN1CCCCC1)Nc1cc(-c2c(-c3cc(Cl)ccc3F)nc3n2CCN3)ccc1F

$$$$
L2:P36897:105371
     RDKit          3D

 56 60  0  0  0  0  0  0  0  0999 V2000
    6.3313   13.8840   10.8244 N   0  0  0  0  0  0  0  0  0  0  0  0
    5.4325   14.1921    9.8503 C   0  0  0  0  0  0  0  0  0  0  0  0
    5.2365   15.5537    9.9417 C   0  0  0  0  0  0  0  0  0  0  0  0
    6.0684   15.9931   11.0182 C   0  0  0  0  0  0  0  0  0  0  0  0
    6.6887   14.9381   11.5830 N   0  0  0  0  0  0  0  0  0  0  0  0
    4.4429   16.2975    8.9825 C   0  0  0  0  0  0  0  0  0  0  0  0
    5.0690   17.3341    8.2906 C   0  0  0  0  0  0  0  0  0  0  0  0
    4.3173   18.0570    7.3913 C   0  0  0  0  0  0  0  0  0  0  0  0
    3.0119   17.8231    7.1471 N   0  0  0  0  0  0  0  0  0  0  0  0
    2.4072   16.8221    7.8097 C   0  0  0  0  0  0  0  0  0  0  0  0
    1.0627   16.5839    7.5574 C   0  0  0  0  0  0  0  0  0  0  0  0
    0.3563   15.5672    8.2039 C   0  0  0  0  0  0  0  0  0  0  0  0
    1.0033   14.7615    9.1294 C   0  0  0  0  0  0  0  0  0  0  0  0
    2.3521   14.9787    9.4026 C   0  0  0  0  0  0  0  0  0  0  0  0
    3.0763   16.0096    8.7501 C   0  0  0  0  0  0  0  0  0  0  0  0
    6.2988   17.3636   11.4958 C   0  0  0  0  0  0  0  0  0  0  0  0
    5.2429   18.1686   11.9167 C   0  0  0  0  0  0  0  0  0  0  0  0
    5.5178   19.4629   12.3527 C   0  0  0  0  0  0  0  0  0  0  0  0
    6.8318   19.9141   12.3620 C   0  0  0  0  0  0  0  0  0  0  0  0
    7.8233   19.0500   11.9308 C   0  0  0  0  0  0  0  0  0  0  0  0
    7.5896   17.7931   11.4959 N   0  0  0  0  0  0  0  0  0  0  0  0
    7.0086   12.6164   11.0225 C   0  0  0  0  0  0  0  0  0  0  0  0
    8.8127   12.5377   12.6629 N   0  0  0  0  0  0  0  0  0  0  0  0
    8.4684   12.8415   11.3608 C   0  0  0  0  0  0  0  0  0  0  0  0
    9.2767   13.2272   10.5178 O   0  0  0  0  0  0  0  0  0  0  0  0
    8.0334   12.4255   13.3161 H   0  0  0  0  0  0  0  0  0  0  0  0
   10.0496   13.0097   13.2372 C   0  0  0  0  0  0  0  0  0  0  0  0
   14.3261    9.2521   11.9926 C   0  0  0  0  0  0  0  0  0  0  0  0
   13.2412   10.2258   12.3405 C   0  0  0  0  0  0  0  0  0  0  0  0
   12.0791    9.7900   12.9864 C   0  0  0  0  0  0  0  0  0  0  0  0
   11.0533   10.6900   13.2861 C   0  0  0  0  0  0  0  0  0  0  0  0
   11.1705   12.0425   12.9438 C   0  0  0  0  0  0  0  0  0  0  0  0
   12.3227   12.4709   12.2708 C   0  0  0  0  0  0  0  0  0  0  0  0
   13.3474   11.5708   11.9705 C   0  0  0  0  0  0  0  0  0  0  0  0
    4.9898   13.5419    9.1822 H   0  0  0  0  0  0  0  0  0  0  0  0
    6.0653   17.5527    8.4478 H   0  0  0  0  0  0  0  0  0  0  0  0
    4.7795   18.8215    6.8747 H   0  0  0  0  0  0  0  0  0  0  0  0
    0.5701   17.1765    6.8709 H   0  0  0  0  0  0  0  0  0  0  0  0
   -0.6427   15.4160    7.9940 H   0  0  0  0  0  0  0  0  0  0  0  0
    0.4897   14.0074    9.6116 H   0  0  0  0  0  0  0  0  0  0  0  0
    2.8328   14.3793   10.0916 H   0  0  0  0  0  0  0  0  0  0  0  0
    4.2743   17.8126   11.9058 H   0  0  0  0  0  0  0  0  0  0  0  0
    4.7527   20.0806   12.6658 H   0  0  0  0  0  0  0  0  0  0  0  0
    7.0623   20.8678   12.6818 H   0  0  0  0  0  0  0  0  0  0  0  0
    8.7989   19.3862   11.9423 H   0  0  0  0  0  0  0  0  0  0  0  0
    6.5386   12.0878   11.8254 H   0  0  0  0  0  0  0  0  0  0  0  0
    6.9468   12.0463   10.1191 H   0  0  0  0  0  0  0  0  0  0  0  0
   10.2901   13.9649   12.8194 H   0  0  0  0  0  0  0  0  0  0  0  0
    9.9306   13.0908   14.2975 H   0  0  0  0  0  0  0  0  0  0  0  0
   14.0644    8.2810   12.3578 H   0  0  0  0  0  0  0  0  0  0  0  0
   15.2450    9.5664   12.4418 H   0  0  0  0  0  0  0  0  0  0  0  0
   14.4435    9.2137   10.9298 H   0  0  0  0  0  0  0  0  0  0  0  0
   11.9788    8.7956   13.2436 H   0  0  0  0  0  0  0  0  0  0  0  0
   10.2021   10.3550   13.7638 H   0  0  0  0  0  0  0  0  0  0  0  0
   12.4148   13.4609   11.9945 H   0  0  0  0  0  0  0  0  0  0  0  0
   14.1889   11.9002   11.4721 H   0  0  0  0  0  0  0  0  0  0  0  0
  1  2  1  0
  2  3  2  0
  2 35  1  0
  3  6  1  0
  3  4  1  0
  4 16  1  0
  4  5  2  0
  5  1  1  0
  6  7  2  0
  7  8  1  0
  7 36  1  0
  8  9  2  0
  8 37  1  0
  9 10  1  0
 10 11  2  0
 11 12  1  0
 11 38  1  0
 12 13  2  0
 12 39  1  0
 13 14  1  0
 13 40  1  0
 14 15  2  0
 14 41  1  0
 15  6  1  0
 15 10  1  0
 16 17  2  0
 17 18  1  0
 17 42  1  0
 18 19  2  0
 18 43  1  0
 19 20  1  0
 19 44  1  0
 20 21  2  0
 20 45  1  0
 21 16  1  0
 22  1  1  0
 22 46  1  0
 22 47  1  0
 23 24  1  0
 23 26  1  0
 24 25  2  0
 24 22  1  0
 27 23  1  0
 27 48  1  0
 27 49  1  0
 28 29  1  0
 28 50  1  0
 28 51  1  0
 28 52  1  0
 29 30  2  0
 30 31  1  0
 30 53  1  0
 31 32  2  0
 31 54  1  0
 32 27  1  0
 32 33  1  0
 33 34  2  0
 33 55  1  0
 34 29  1  0
 34 56  1  0
M  END
>  <minimizedAffinity>  (8) 
-10.15239

>  <mol_id>  (8) 
105371

>  <source_index>  (8) 
7

>  <layer>  (8) 
L2

>  <uniprot>  (8) 
P36897

>  <paff>  (8) 
6.3468

>  <smiles>  (8) 
Cc1ccc(CNC(=O)Cn2cc(-c3ccnc4ccccc34)c(-c3ccccn3)n2)cc1

$$$$
L2:P36897:108760
     RDKit          3D

 57 62  0  0  0  0  0  0  0  0999 V2000
    6.2248   16.8317   11.2301 C   0  0  0  0  0  0  0  0  0  0  0  0
    5.2899   17.8332   11.4794 C   0  0  0  0  0  0  0  0  0  0  0  0
    5.7322   19.0213   12.0384 C   0  0  0  0  0  0  0  0  0  0  0  0
    7.0205   19.2703   12.3591 N   0  0  0  0  0  0  0  0  0  0  0  0
    7.9195   18.2898   12.1074 C   0  0  0  0  0  0  0  0  0  0  0  0
    7.5643   17.0639   11.5512 C   0  0  0  0  0  0  0  0  0  0  0  0
    9.3120   18.5922   12.4528 C   0  0  0  0  0  0  0  0  0  0  0  0
    9.8593   19.7974   12.6451 N   0  0  0  0  0  0  0  0  0  0  0  0
   11.1339   19.5411   13.0058 C   0  0  0  0  0  0  0  0  0  0  0  0
   11.3935   18.2113   13.0271 C   0  0  0  0  0  0  0  0  0  0  0  0
   10.2602   17.5889   12.6446 N   0  0  0  0  0  0  0  0  0  0  0  0
   12.7295   17.8667   13.5002 C   0  0  0  0  0  0  0  0  0  0  0  0
   13.2366   19.2299   13.8330 N   0  0  0  0  0  0  0  0  0  0  0  0
   14.2252   19.3369   14.7810 C   0  0  0  0  0  0  0  0  0  0  0  0
   14.6274   18.3424   15.3917 O   0  0  0  0  0  0  0  0  0  0  0  0
   14.7538   20.5773   15.0449 N   0  0  0  0  0  0  0  0  0  0  0  0
   14.8659   21.6944   14.1181 C   0  0  0  0  0  0  0  0  0  0  0  0
   16.0940   22.4599   14.5927 C   0  0  0  0  0  0  0  0  0  0  0  0
   16.1135   22.1806   16.0876 C   0  0  0  0  0  0  0  0  0  0  0  0
   15.6973   20.7271   16.1404 C   0  0  0  0  0  0  0  0  0  0  0  0
   12.2846   20.3314   13.4597 C   0  0  0  0  0  0  0  0  0  0  0  0
   10.0941   16.5968   12.5435 H   0  0  0  0  0  0  0  0  0  0  0  0
    4.9615   15.1576    9.6547 C   0  0  0  0  0  0  0  0  0  0  0  0
    5.0446   13.7899    9.4460 N   0  0  0  0  0  0  0  0  0  0  0  0
    5.8989   13.3477   10.3358 C   0  0  0  0  0  0  0  0  0  0  0  0
    6.3902   14.3638   11.1008 N   0  0  0  0  0  0  0  0  0  0  0  0
    5.8307   15.5463   10.6684 C   0  0  0  0  0  0  0  0  0  0  0  0
    7.0579   14.2683   11.8533 H   0  0  0  0  0  0  0  0  0  0  0  0
    0.4948   16.2275    8.1335 C   0  0  0  0  0  0  0  0  0  0  0  0
    1.9613   16.5264    8.0934 C   0  0  0  0  0  0  0  0  0  0  0  0
    2.4457   17.5382    7.2754 C   0  0  0  0  0  0  0  0  0  0  0  0
    3.8144   17.7741    7.2490 C   0  0  0  0  0  0  0  0  0  0  0  0
    4.6561   16.9991    8.0383 C   0  0  0  0  0  0  0  0  0  0  0  0
    4.0971   16.0117    8.8466 C   0  0  0  0  0  0  0  0  0  0  0  0
    2.7597   15.7718    8.8879 N   0  0  0  0  0  0  0  0  0  0  0  0
    4.2926   17.6939   11.2535 H   0  0  0  0  0  0  0  0  0  0  0  0
    5.0355   19.7605   12.2207 H   0  0  0  0  0  0  0  0  0  0  0  0
    8.2785   16.3391   11.3791 H   0  0  0  0  0  0  0  0  0  0  0  0
   13.3147   17.3994   12.7359 H   0  0  0  0  0  0  0  0  0  0  0  0
   12.7583   17.1626   14.3054 H   0  0  0  0  0  0  0  0  0  0  0  0
   13.9937   22.3126   14.1633 H   0  0  0  0  0  0  0  0  0  0  0  0
   14.9539   21.3730   13.1013 H   0  0  0  0  0  0  0  0  0  0  0  0
   15.9934   23.5073   14.3983 H   0  0  0  0  0  0  0  0  0  0  0  0
   16.9942   22.1632   14.0962 H   0  0  0  0  0  0  0  0  0  0  0  0
   15.4171   22.8038   16.6088 H   0  0  0  0  0  0  0  0  0  0  0  0
   17.0577   22.3765   16.5512 H   0  0  0  0  0  0  0  0  0  0  0  0
   15.2293   20.5017   17.0758 H   0  0  0  0  0  0  0  0  0  0  0  0
   16.5310   20.0622   16.0524 H   0  0  0  0  0  0  0  0  0  0  0  0
   12.6771   20.9452   12.6761 H   0  0  0  0  0  0  0  0  0  0  0  0
   12.0699   21.0237   14.2468 H   0  0  0  0  0  0  0  0  0  0  0  0
    6.1658   12.3567   10.4438 H   0  0  0  0  0  0  0  0  0  0  0  0
   -0.0219   16.8865    7.4674 H   0  0  0  0  0  0  0  0  0  0  0  0
    0.1292   16.3682    9.1292 H   0  0  0  0  0  0  0  0  0  0  0  0
    0.3290   15.2142    7.8325 H   0  0  0  0  0  0  0  0  0  0  0  0
    1.8025   18.1032    6.6991 H   0  0  0  0  0  0  0  0  0  0  0  0
    4.2029   18.5182    6.6487 H   0  0  0  0  0  0  0  0  0  0  0  0
    5.6766   17.1524    8.0258 H   0  0  0  0  0  0  0  0  0  0  0  0
  1  2  2  0
  2  3  1  0
  2 36  1  0
  3  4  2  0
  3 37  1  0
  4  5  1  0
  5  7  1  0
  5  6  2  0
  6  1  1  0
  6 38  1  0
  7  8  2  0
  8  9  1  0
  9 10  2  0
 10 11  1  0
 10 12  1  0
 11  7  1  0
 11 22  1  0
 12 13  1  0
 12 39  1  0
 12 40  1  0
 13 14  1  0
 13 21  1  0
 14 15  2  0
 14 16  1  0
 16 17  1  0
 17 18  1  0
 17 41  1  0
 17 42  1  0
 18 19  1  0
 18 43  1  0
 18 44  1  0
 19 20  1  0
 19 45  1  0
 19 46  1  0
 20 16  1  0
 20 47  1  0
 20 48  1  0
 21  9  1  0
 21 49  1  0
 21 50  1  0
 23 24  1  0
 24 25  2  0
 25 26  1  0
 25 51  1  0
 26 27  1  0
 26 28  1  0
 27  1  1  0
 27 23  2  0
 29 30  1  0
 29 52  1  0
 29 53  1  0
 29 54  1  0
 30 31  2  0
 31 32  1  0
 31 55  1  0
 32 33  2  0
 32 56  1  0
 33 34  1  0
 33 57  1  0
 34 23  1  0
 34 35  2  0
 35 30  1  0
M  END
>  <minimizedAffinity>  (9) 
-10.19572

>  <mol_id>  (9) 
108760

>  <source_index>  (9) 
8

>  <layer>  (9) 
L2

>  <uniprot>  (9) 
P36897

>  <paff>  (9) 
7.6576000000000004

>  <smiles>  (9) 
Cc1cccc(-c2nc[nH]c2-c2ccnc(-c3nc4c([nH]3)CN(C(=O)N3CCCC3)C4)c2)n1

$$$$
L2:P36897:109621
     RDKit          3D

 42 47  0  0  0  0  0  0  0  0999 V2000
    4.5782   15.1008    9.4919 C   0  0  0  0  0  0  0  0  0  0  0  0
    4.5391   13.7077    9.3190 N   0  0  0  0  0  0  0  0  0  0  0  0
    5.3864   13.2686   10.1993 C   0  0  0  0  0  0  0  0  0  0  0  0
    5.9621   14.2648   10.9193 N   0  0  0  0  0  0  0  0  0  0  0  0
    5.4890   15.4643   10.4980 C   0  0  0  0  0  0  0  0  0  0  0  0
    6.9434   13.7949   11.8784 C   0  0  0  0  0  0  0  0  0  0  0  0
    6.9589   12.2744   11.6809 C   0  0  1  0  0  0  0  0  0  0  0  0
    5.7752   11.4051   12.0250 C   0  0  0  0  0  0  0  0  0  0  0  0
    5.9272   11.8912   10.6110 C   0  0  1  0  0  0  0  0  0  0  0  0
    5.9434   16.7376   11.0425 C   0  0  0  0  0  0  0  0  0  0  0  0
    5.0093   17.7220   11.3986 C   0  0  0  0  0  0  0  0  0  0  0  0
    5.4162   18.9459   11.9507 C   0  0  0  0  0  0  0  0  0  0  0  0
    6.7857   19.1752   12.1399 C   0  0  0  0  0  0  0  0  0  0  0  0
    7.4329   20.2731   12.6536 N   0  0  0  0  0  0  0  0  0  0  0  0
    8.7113   19.9772   12.5950 C   0  0  0  0  0  0  0  0  0  0  0  0
    8.9189   18.7329   12.0701 N   0  0  0  0  0  0  0  0  0  0  0  0
    7.6955   18.1893   11.7755 C   0  0  0  0  0  0  0  0  0  0  0  0
    7.3177   16.9604   11.2292 C   0  0  0  0  0  0  0  0  0  0  0  0
    9.8142   18.2915   11.9202 H   0  0  0  0  0  0  0  0  0  0  0  0
    0.1304   16.4671    8.1239 C   0  0  0  0  0  0  0  0  0  0  0  0
    1.6128   16.6633    8.0234 C   0  0  0  0  0  0  0  0  0  0  0  0
    2.1361   17.6423    7.1866 C   0  0  0  0  0  0  0  0  0  0  0  0
    3.5162   17.7896    7.1147 C   0  0  0  0  0  0  0  0  0  0  0  0
    4.3303   16.9560    7.8759 C   0  0  0  0  0  0  0  0  0  0  0  0
    3.7392   15.9969    8.6929 C   0  0  0  0  0  0  0  0  0  0  0  0
    2.3935   15.8510    8.7723 N   0  0  0  0  0  0  0  0  0  0  0  0
    6.6498   14.0456   12.8763 H   0  0  0  0  0  0  0  0  0  0  0  0
    7.9062   14.2384   11.7325 H   0  0  0  0  0  0  0  0  0  0  0  0
    7.9950   12.1574   11.9211 H   0  0  0  0  0  0  0  0  0  0  0  0
    4.9905   11.7945   12.6394 H   0  0  0  0  0  0  0  0  0  0  0  0
    5.6590   10.4427   12.4779 H   0  0  0  0  0  0  0  0  0  0  0  0
    5.7820   11.3453    9.7023 H   0  0  0  0  0  0  0  0  0  0  0  0
    4.0037   17.5424   11.2516 H   0  0  0  0  0  0  0  0  0  0  0  0
    4.7212   19.6626   12.2121 H   0  0  0  0  0  0  0  0  0  0  0  0
    9.4665   20.6074   12.9072 H   0  0  0  0  0  0  0  0  0  0  0  0
    8.0182   16.2469   10.9737 H   0  0  0  0  0  0  0  0  0  0  0  0
   -0.3662   17.1682    7.4861 H   0  0  0  0  0  0  0  0  0  0  0  0
   -0.1821   16.6217    9.1355 H   0  0  0  0  0  0  0  0  0  0  0  0
   -0.1189   15.4713    7.8219 H   0  0  0  0  0  0  0  0  0  0  0  0
    1.5124   18.2475    6.6300 H   0  0  0  0  0  0  0  0  0  0  0  0
    3.9328   18.5093    6.5035 H   0  0  0  0  0  0  0  0  0  0  0  0
    5.3574   17.0478    7.8351 H   0  0  0  0  0  0  0  0  0  0  0  0
  1  2  1  0
  2  3  2  0
  3  4  1  0
  4  5  1  0
  4  6  1  0
  5 10  1  0
  5  1  2  0
  6  7  1  0
  6 27  1  0
  6 28  1  0
  7  8  1  0
  7 29  1  6
  8  9  1  0
  8 30  1  0
  8 31  1  0
  9  7  1  0
  9  3  1  0
  9 32  1  6
 10 11  2  0
 11 12  1  0
 11 33  1  0
 12 13  2  0
 12 34  1  0
 13 14  1  0
 14 15  2  0
 15 16  1  0
 15 35  1  0
 16 17  1  0
 16 19  1  0
 17 18  2  0
 17 13  1  0
 18 10  1  0
 18 36  1  0
 20 21  1  0
 20 37  1  0
 20 38  1  0
 20 39  1  0
 21 22  2  0
 22 23  1  0
 22 40  1  0
 23 24  2  0
 23 41  1  0
 24 25  1  0
 24 42  1  0
 25  1  1  0
 25 26  2  0
 26 21  1  0
M  END
>  <minimizedAffinity>  (10) 
-9.99918

>  <mol_id>  (10) 
109621

>  <source_index>  (10) 
9

>  <layer>  (10) 
L2

>  <uniprot>  (10) 
P36897

>  <paff>  (10) 
7.9207999999999998

>  <smiles>  (10) 
Cc1cccc(-c2nc3n(c2-c2ccc4nc[nH]c4c2)CC2CC32)n1

$$$$
