L1:P51532:13433
     RDKit          3D

 33 35  0  0  0  0  0  0  0  0999 V2000
  -10.8559   -3.9553   24.7836 N   0  0  0  0  0  0  0  0  0  0  0  0
   -9.9175   -3.0956   24.3337 C   0  0  0  0  0  0  0  0  0  0  0  0
   -8.6519   -3.5207   24.3357 N   0  0  0  0  0  0  0  0  0  0  0  0
   -7.6974   -2.7880   23.8139 N   0  0  0  0  0  0  0  0  0  0  0  0
   -7.9290   -1.6219   23.2275 C   0  0  0  0  0  0  0  0  0  0  0  0
   -9.2291   -1.0803   23.2912 C   0  0  0  0  0  0  0  0  0  0  0  0
  -10.2414   -1.7831   23.8826 C   0  0  0  0  0  0  0  0  0  0  0  0
  -10.6213   -4.9408   24.9165 H   0  0  0  0  0  0  0  0  0  0  0  0
  -11.8184   -3.7424   24.5961 H   0  0  0  0  0  0  0  0  0  0  0  0
   -6.8085   -0.9677   22.5770 C   0  0  0  0  0  0  0  0  0  0  0  0
   -6.9985    0.1954   21.8259 C   0  0  0  0  0  0  0  0  0  0  0  0
   -5.9238    0.9686   21.4340 C   0  0  0  0  0  0  0  0  0  0  0  0
   -4.6342    0.5073   21.6758 C   0  0  0  0  0  0  0  0  0  0  0  0
   -4.4122   -0.7048   22.2943 C   0  0  0  0  0  0  0  0  0  0  0  0
   -5.4925   -1.4751   22.7279 C   0  0  0  0  0  0  0  0  0  0  0  0
   -5.2371   -2.6884   23.2381 O   0  0  0  0  0  0  0  0  0  0  0  0
   -6.1179   -3.0319   23.6062 H   0  0  0  0  0  0  0  0  0  0  0  0
  -11.5888   -1.2145   24.0272 C   0  0  0  0  0  0  0  0  0  0  0  0
  -12.1505   -0.4800   22.9824 C   0  0  0  0  0  0  0  0  0  0  0  0
  -13.3442    0.1994   23.1615 C   0  0  0  0  0  0  0  0  0  0  0  0
  -14.0138    0.1287   24.3760 C   0  0  0  0  0  0  0  0  0  0  0  0
  -13.4968   -0.6534   25.3981 C   0  0  0  0  0  0  0  0  0  0  0  0
  -12.2906   -1.3165   25.2292 C   0  0  0  0  0  0  0  0  0  0  0  0
   -9.4317   -0.1019   22.8823 H   0  0  0  0  0  0  0  0  0  0  0  0
   -7.9863    0.4743   21.4908 H   0  0  0  0  0  0  0  0  0  0  0  0
   -6.0835    1.9157   20.9388 H   0  0  0  0  0  0  0  0  0  0  0  0
   -3.7755    1.0876   21.3832 H   0  0  0  0  0  0  0  0  0  0  0  0
   -3.4131   -1.0818   22.4466 H   0  0  0  0  0  0  0  0  0  0  0  0
  -11.6522   -0.4432   22.0222 H   0  0  0  0  0  0  0  0  0  0  0  0
  -13.7551    0.7899   22.3536 H   0  0  0  0  0  0  0  0  0  0  0  0
  -14.9241    0.6900   24.5284 H   0  0  0  0  0  0  0  0  0  0  0  0
  -14.0253   -0.7341   26.3366 H   0  0  0  0  0  0  0  0  0  0  0  0
  -11.8684   -1.8694   26.0581 H   0  0  0  0  0  0  0  0  0  0  0  0
  1  2  1  0
  1  8  1  0
  1  9  1  0
  2  3  2  0
  3  4  1  0
  4  5  2  0
  5 10  1  0
  5  6  1  0
  6  7  2  0
  6 24  1  0
  7 18  1  0
  7  2  1  0
 10 11  2  0
 11 12  1  0
 11 25  1  0
 12 13  2  0
 12 26  1  0
 13 14  1  0
 13 27  1  0
 14 15  2  0
 14 28  1  0
 15 16  1  0
 15 10  1  0
 16 17  1  0
 18 19  2  0
 19 20  1  0
 19 29  1  0
 20 21  2  0
 20 30  1  0
 21 22  1  0
 21 31  1  0
 22 23  2  0
 22 32  1  0
 23 18  1  0
 23 33  1  0
M  END
>  <minimizedAffinity>  (1) 
-9.38365

>  <mol_id>  (1) 
13433

>  <source_index>  (1) 
0

>  <layer>  (1) 
L1

>  <uniprot>  (1) 
P51532

>  <paff>  (1) 
7.1426999999999996

>  <smiles>  (1) 
Nc1nnc(cc1-c1ccccc1)-c1ccccc1O

>  <aimnet_interaction_kcal_mol>  (1) 
-45.27741186275432

$$$$
L1:P51532:20704
     RDKit          3D

 54 58  0  0  0  0  0  0  0  0999 V2000
  -10.3280   -2.0664   23.2514 C   0  0  0  0  0  0  0  0  0  0  0  0
   -9.2798   -1.4438   22.6358 C   0  0  0  0  0  0  0  0  0  0  0  0
   -7.9585   -1.7813   22.9942 C   0  0  0  0  0  0  0  0  0  0  0  0
   -7.7466   -2.7899   23.8284 N   0  0  0  0  0  0  0  0  0  0  0  0
   -8.7307   -3.4699   24.3786 N   0  0  0  0  0  0  0  0  0  0  0  0
   -9.9990   -3.1460   24.1317 C   0  0  0  0  0  0  0  0  0  0  0  0
  -10.9658   -3.8875   24.7210 N   0  0  0  0  0  0  0  0  0  0  0  0
  -10.7412   -4.8469   24.9800 H   0  0  0  0  0  0  0  0  0  0  0  0
  -11.8969   -3.7210   24.3845 H   0  0  0  0  0  0  0  0  0  0  0  0
  -13.8618    0.0173   22.3923 N   0  0  0  0  0  0  0  0  0  0  0  0
  -13.4557   -1.0449   21.4824 C   0  0  2  0  0  0  0  0  0  0  0  0
  -14.3061   -2.2207   21.9817 C   0  0  0  0  0  0  0  0  0  0  0  0
  -14.5097   -1.9296   23.4844 C   0  0  0  0  0  0  0  0  0  0  0  0
  -13.7613   -0.6128   23.7120 C   0  0  1  0  0  0  0  0  0  0  0  0
  -12.2921   -0.8490   24.0175 C   0  0  0  0  0  0  0  0  0  0  0  0
  -11.6826   -1.7486   23.0167 N   0  0  0  0  0  0  0  0  0  0  0  0
  -11.9646   -1.3102   21.6491 C   0  0  0  0  0  0  0  0  0  0  0  0
  -12.7950    3.1832   20.8451 C   0  0  0  0  0  0  0  0  0  0  0  0
  -12.9762    1.8158   21.0168 C   0  0  0  0  0  0  0  0  0  0  0  0
  -13.6357    1.3601   22.1709 C   0  0  0  0  0  0  0  0  0  0  0  0
  -14.0995    2.3291   23.0680 C   0  0  0  0  0  0  0  0  0  0  0  0
  -13.8768    3.6622   22.7795 C   0  0  0  0  0  0  0  0  0  0  0  0
  -13.2333    4.0999   21.6946 N   0  0  0  0  0  0  0  0  0  0  0  0
  -11.4674    2.8263   18.8897 C   0  0  0  0  0  0  0  0  0  0  0  0
  -12.1475    3.7080   19.7703 O   0  0  0  0  0  0  0  0  0  0  0  0
   -6.7943   -1.0758   22.4863 C   0  0  0  0  0  0  0  0  0  0  0  0
   -6.9345    0.1218   21.7803 C   0  0  0  0  0  0  0  0  0  0  0  0
   -5.8327    0.8789   21.4347 C   0  0  0  0  0  0  0  0  0  0  0  0
   -4.5607    0.3843   21.7003 C   0  0  0  0  0  0  0  0  0  0  0  0
   -4.3834   -0.8384   22.3131 C   0  0  0  0  0  0  0  0  0  0  0  0
   -5.4913   -1.5853   22.7171 C   0  0  0  0  0  0  0  0  0  0  0  0
   -5.2805   -2.7789   23.2857 O   0  0  0  0  0  0  0  0  0  0  0  0
   -6.1722   -3.0647   23.6772 H   0  0  0  0  0  0  0  0  0  0  0  0
   -9.4516   -0.7200   21.8573 H   0  0  0  0  0  0  0  0  0  0  0  0
  -13.6787   -0.7884   20.4484 H   0  0  0  0  0  0  0  0  0  0  0  0
  -13.8126   -3.1690   21.7940 H   0  0  0  0  0  0  0  0  0  0  0  0
  -15.2589   -2.2417   21.4559 H   0  0  0  0  0  0  0  0  0  0  0  0
  -14.1166   -2.7179   24.1258 H   0  0  0  0  0  0  0  0  0  0  0  0
  -15.5632   -1.8118   23.7265 H   0  0  0  0  0  0  0  0  0  0  0  0
  -14.2138    0.0039   24.4834 H   0  0  0  0  0  0  0  0  0  0  0  0
  -12.1735   -1.2888   25.0090 H   0  0  0  0  0  0  0  0  0  0  0  0
  -11.7747    0.1105   24.0128 H   0  0  0  0  0  0  0  0  0  0  0  0
  -11.6456   -2.0841   20.9525 H   0  0  0  0  0  0  0  0  0  0  0  0
  -11.4132   -0.3979   21.4128 H   0  0  0  0  0  0  0  0  0  0  0  0
  -12.6334    1.1191   20.2735 H   0  0  0  0  0  0  0  0  0  0  0  0
  -14.6357    2.0821   23.9715 H   0  0  0  0  0  0  0  0  0  0  0  0
  -14.2148    4.4056   23.4962 H   0  0  0  0  0  0  0  0  0  0  0  0
  -10.9619    3.4562   18.1645 H   0  0  0  0  0  0  0  0  0  0  0  0
  -12.1590    2.1713   18.3550 H   0  0  0  0  0  0  0  0  0  0  0  0
  -10.7216    2.2276   19.4142 H   0  0  0  0  0  0  0  0  0  0  0  0
   -7.9093    0.4643   21.4695 H   0  0  0  0  0  0  0  0  0  0  0  0
   -5.9599    1.8418   20.9618 H   0  0  0  0  0  0  0  0  0  0  0  0
   -3.6838    0.9532   21.4415 H   0  0  0  0  0  0  0  0  0  0  0  0
   -3.3966   -1.2373   22.4916 H   0  0  0  0  0  0  0  0  0  0  0  0
  1  2  2  0
  2  3  1  0
  2 34  1  0
  3 26  1  0
  3  4  2  0
  4  5  1  0
  5  6  2  0
  6  7  1  0
  6  1  1  0
  7  8  1  0
  7  9  1  0
 10 11  1  0
 11 12  1  0
 11 35  1  6
 12 13  1  0
 12 36  1  0
 12 37  1  0
 13 14  1  0
 13 38  1  0
 13 39  1  0
 14 15  1  0
 14 10  1  0
 14 40  1  1
 15 16  1  0
 15 41  1  0
 15 42  1  0
 16  1  1  0
 16 17  1  0
 17 11  1  0
 17 43  1  0
 17 44  1  0
 18 19  2  0
 19 20  1  0
 19 45  1  0
 20 10  1  0
 20 21  2  0
 21 22  1  0
 21 46  1  0
 22 23  2  0
 22 47  1  0
 23 18  1  0
 24 25  1  0
 24 48  1  0
 24 49  1  0
 24 50  1  0
 25 18  1  0
 26 27  2  0
 27 28  1  0
 27 51  1  0
 28 29  2  0
 28 52  1  0
 29 30  1  0
 29 53  1  0
 30 31  2  0
 30 54  1  0
 31 32  1  0
 31 26  1  0
 32 33  1  0
M  END
>  <minimizedAffinity>  (2) 
-9.32500

>  <mol_id>  (2) 
20704

>  <source_index>  (2) 
1

>  <layer>  (2) 
L1

>  <uniprot>  (2) 
P51532

>  <paff>  (2) 
8.4815000000000005

>  <smiles>  (2) 
COc1cc(N2C3CCC2CN(c2cc(-c4ccccc4O)nnc2N)C3)ccn1

>  <aimnet_interaction_kcal_mol>  (2) 
-55.024481159722875

$$$$
L1:P51532:31548
     RDKit          3D

 37 39  0  0  0  0  0  0  0  0999 V2000
  -10.8696   -3.9568   24.7769 N   0  0  0  0  0  0  0  0  0  0  0  0
   -9.9149   -3.1300   24.2622 C   0  0  0  0  0  0  0  0  0  0  0  0
   -8.6499   -3.4926   24.3742 N   0  0  0  0  0  0  0  0  0  0  0  0
   -7.6846   -2.7961   23.8131 N   0  0  0  0  0  0  0  0  0  0  0  0
   -7.9343   -1.7254   23.0689 C   0  0  0  0  0  0  0  0  0  0  0  0
   -9.2607   -1.2923   22.9027 C   0  0  0  0  0  0  0  0  0  0  0  0
  -10.2733   -1.9054   23.6059 C   0  0  0  0  0  0  0  0  0  0  0  0
  -11.7744   -3.8581   24.3588 H   0  0  0  0  0  0  0  0  0  0  0  0
  -10.6040   -4.9291   24.9497 H   0  0  0  0  0  0  0  0  0  0  0  0
   -6.7843   -1.0441   22.4917 C   0  0  0  0  0  0  0  0  0  0  0  0
   -6.9433    0.1367   21.7615 C   0  0  0  0  0  0  0  0  0  0  0  0
   -5.8554    0.9127   21.4139 C   0  0  0  0  0  0  0  0  0  0  0  0
   -4.5747    0.4418   21.6824 C   0  0  0  0  0  0  0  0  0  0  0  0
   -4.3763   -0.7758   22.2967 C   0  0  0  0  0  0  0  0  0  0  0  0
   -5.4711   -1.5428   22.7006 C   0  0  0  0  0  0  0  0  0  0  0  0
   -5.2374   -2.7416   23.2454 O   0  0  0  0  0  0  0  0  0  0  0  0
   -6.1324   -3.0507   23.6263 H   0  0  0  0  0  0  0  0  0  0  0  0
  -11.5639   -1.4443   23.6394 N   0  0  0  0  0  0  0  0  0  0  0  0
  -12.3564   -1.3741   24.8636 C   0  0  0  0  0  0  0  0  0  0  0  0
  -13.7944   -1.8270   24.5888 C   0  0  0  0  0  0  0  0  0  0  0  0
  -14.2569   -1.4527   23.2564 N   0  0  0  0  0  0  0  0  0  0  0  0
  -13.5401   -0.3007   22.7451 C   0  0  0  0  0  0  0  0  0  0  0  0
  -12.0275   -0.5306   22.6021 C   0  0  0  0  0  0  0  0  0  0  0  0
  -14.1658   -2.2213   22.6088 H   0  0  0  0  0  0  0  0  0  0  0  0
   -9.4799   -0.4768   22.2302 H   0  0  0  0  0  0  0  0  0  0  0  0
   -7.9184    0.4432   21.4182 H   0  0  0  0  0  0  0  0  0  0  0  0
   -5.9995    1.8716   20.9372 H   0  0  0  0  0  0  0  0  0  0  0  0
   -3.7069    1.0224   21.4200 H   0  0  0  0  0  0  0  0  0  0  0  0
   -3.3824   -1.1565   22.4736 H   0  0  0  0  0  0  0  0  0  0  0  0
  -12.3708   -0.3437   25.2237 H   0  0  0  0  0  0  0  0  0  0  0  0
  -11.8809   -1.9727   25.6346 H   0  0  0  0  0  0  0  0  0  0  0  0
  -14.4508   -1.3863   25.3421 H   0  0  0  0  0  0  0  0  0  0  0  0
  -13.8729   -2.9093   24.6977 H   0  0  0  0  0  0  0  0  0  0  0  0
  -13.7341    0.5378   23.4132 H   0  0  0  0  0  0  0  0  0  0  0  0
  -13.9589   -0.0286   21.7781 H   0  0  0  0  0  0  0  0  0  0  0  0
  -11.5081    0.4322   22.6574 H   0  0  0  0  0  0  0  0  0  0  0  0
  -11.8036   -0.9705   21.6276 H   0  0  0  0  0  0  0  0  0  0  0  0
  1  2  1  0
  1  8  1  0
  1  9  1  0
  2  3  2  0
  3  4  1  0
  4  5  2  0
  5 10  1  0
  5  6  1  0
  6  7  2  0
  6 25  1  0
  7 18  1  0
  7  2  1  0
 10 11  2  0
 11 12  1  0
 11 26  1  0
 12 13  2  0
 12 27  1  0
 13 14  1  0
 13 28  1  0
 14 15  2  0
 14 29  1  0
 15 16  1  0
 15 10  1  0
 16 17  1  0
 18 19  1  0
 19 20  1  0
 19 30  1  0
 19 31  1  0
 20 21  1  0
 20 32  1  0
 20 33  1  0
 21 22  1  0
 21 24  1  0
 22 23  1  0
 22 34  1  0
 22 35  1  0
 23 18  1  0
 23 36  1  0
 23 37  1  0
M  END
>  <minimizedAffinity>  (3) 
-8.62895

>  <mol_id>  (3) 
31548

>  <source_index>  (3) 
2

>  <layer>  (3) 
L1

>  <uniprot>  (3) 
P51532

>  <paff>  (3) 
6.5934999999999997

>  <smiles>  (3) 
Nc1nnc(cc1N1CCNCC1)-c1ccccc1O

>  <aimnet_interaction_kcal_mol>  (3) 
-46.994393980172767

$$$$
L1:P51532:35235
     RDKit          3D

 61 65  0  0  0  0  0  0  0  0999 V2000
  -13.7734    0.1301   22.2955 N   0  0  0  0  0  0  0  0  0  0  0  0
  -13.3687   -0.9158   21.3688 C   0  0  2  0  0  0  0  0  0  0  0  0
  -14.2615   -2.0861   21.8042 C   0  0  0  0  0  0  0  0  0  0  0  0
  -14.5201   -1.8270   23.3041 C   0  0  0  0  0  0  0  0  0  0  0  0
  -13.7467   -0.5359   23.5963 C   0  0  1  0  0  0  0  0  0  0  0  0
  -12.2984   -0.8255   23.9541 C   0  0  0  0  0  0  0  0  0  0  0  0
  -11.6663   -1.6978   22.9418 N   0  0  0  0  0  0  0  0  0  0  0  0
  -11.8909   -1.2109   21.5806 C   0  0  0  0  0  0  0  0  0  0  0  0
  -10.3244   -2.0356   23.2135 C   0  0  0  0  0  0  0  0  0  0  0  0
   -9.2505   -1.4411   22.6139 C   0  0  0  0  0  0  0  0  0  0  0  0
   -7.9486   -1.7833   23.0301 C   0  0  0  0  0  0  0  0  0  0  0  0
   -7.7716   -2.7934   23.8709 N   0  0  0  0  0  0  0  0  0  0  0  0
   -8.7820   -3.4540   24.3997 N   0  0  0  0  0  0  0  0  0  0  0  0
  -10.0365   -3.1030   24.1215 C   0  0  0  0  0  0  0  0  0  0  0  0
  -11.0346   -3.8103   24.7089 N   0  0  0  0  0  0  0  0  0  0  0  0
  -11.9485   -3.6606   24.3201 H   0  0  0  0  0  0  0  0  0  0  0  0
  -10.8220   -4.7619   24.9935 H   0  0  0  0  0  0  0  0  0  0  0  0
   -6.7666   -1.0806   22.5643 C   0  0  0  0  0  0  0  0  0  0  0  0
   -6.8776    0.1680   21.9483 C   0  0  0  0  0  0  0  0  0  0  0  0
   -5.7631    0.8363   21.4844 C   0  0  0  0  0  0  0  0  0  0  0  0
   -4.5102    0.2487   21.6266 C   0  0  0  0  0  0  0  0  0  0  0  0
   -4.3652   -0.9869   22.2239 C   0  0  0  0  0  0  0  0  0  0  0  0
   -5.4844   -1.6588   22.7181 C   0  0  0  0  0  0  0  0  0  0  0  0
   -5.3049   -2.8494   23.3042 O   0  0  0  0  0  0  0  0  0  0  0  0
   -6.1944   -3.1006   23.7177 H   0  0  0  0  0  0  0  0  0  0  0  0
  -13.1090    3.3506   20.6607 C   0  0  0  0  0  0  0  0  0  0  0  0
  -13.0362    1.9841   20.9151 C   0  0  0  0  0  0  0  0  0  0  0  0
  -13.6492    1.4810   22.0812 C   0  0  0  0  0  0  0  0  0  0  0  0
  -14.1779    2.4185   22.9785 C   0  0  0  0  0  0  0  0  0  0  0  0
  -14.1402    3.7571   22.6374 C   0  0  0  0  0  0  0  0  0  0  0  0
  -13.6295    4.2337   21.4973 N   0  0  0  0  0  0  0  0  0  0  0  0
  -12.6587    3.9227   19.5071 O   0  0  0  0  0  0  0  0  0  0  0  0
  -12.2879    3.0980   18.4080 C   0  0  0  0  0  0  0  0  0  0  0  0
  -10.7850    2.9427   18.2832 C   0  0  0  0  0  0  0  0  0  0  0  0
  -10.5402    4.5483   16.5309 C   0  0  0  0  0  0  0  0  0  0  0  0
  -10.1140    4.1083   17.8062 O   0  0  0  0  0  0  0  0  0  0  0  0
  -13.5507   -0.6255   20.3367 H   0  0  0  0  0  0  0  0  0  0  0  0
  -13.7775   -3.0382   21.6116 H   0  0  0  0  0  0  0  0  0  0  0  0
  -15.1921   -2.0767   21.2398 H   0  0  0  0  0  0  0  0  0  0  0  0
  -14.1748   -2.6415   23.9400 H   0  0  0  0  0  0  0  0  0  0  0  0
  -15.5793   -1.6859   23.5063 H   0  0  0  0  0  0  0  0  0  0  0  0
  -14.2129    0.0701   24.3675 H   0  0  0  0  0  0  0  0  0  0  0  0
  -12.2356   -1.3100   24.9295 H   0  0  0  0  0  0  0  0  0  0  0  0
  -11.7550    0.1179   24.0129 H   0  0  0  0  0  0  0  0  0  0  0  0
  -11.5515   -1.9642   20.8707 H   0  0  0  0  0  0  0  0  0  0  0  0
  -11.3197   -0.2974   21.3988 H   0  0  0  0  0  0  0  0  0  0  0  0
   -9.3825   -0.7420   21.8047 H   0  0  0  0  0  0  0  0  0  0  0  0
   -7.8452    0.6368   21.8340 H   0  0  0  0  0  0  0  0  0  0  0  0
   -5.8681    1.8032   21.0147 H   0  0  0  0  0  0  0  0  0  0  0  0
   -3.6260    0.7691   21.2973 H   0  0  0  0  0  0  0  0  0  0  0  0
   -3.3992   -1.4607   22.3185 H   0  0  0  0  0  0  0  0  0  0  0  0
  -12.5024    1.3212   20.2567 H   0  0  0  0  0  0  0  0  0  0  0  0
  -14.6199    2.1452   23.9239 H   0  0  0  0  0  0  0  0  0  0  0  0
  -14.5406    4.4804   23.3373 H   0  0  0  0  0  0  0  0  0  0  0  0
  -12.7545    2.1154   18.4660 H   0  0  0  0  0  0  0  0  0  0  0  0
  -12.6873    3.5820   17.5191 H   0  0  0  0  0  0  0  0  0  0  0  0
  -10.3379    2.7359   19.2521 H   0  0  0  0  0  0  0  0  0  0  0  0
  -10.5721    2.1205   17.5972 H   0  0  0  0  0  0  0  0  0  0  0  0
   -9.8096    5.2752   16.1822 H   0  0  0  0  0  0  0  0  0  0  0  0
  -11.5059    5.0575   16.5909 H   0  0  0  0  0  0  0  0  0  0  0  0
  -10.6103    3.7281   15.8092 H   0  0  0  0  0  0  0  0  0  0  0  0
  1  2  1  0
  2  3  1  0
  2 37  1  6
  3  4  1  0
  3 38  1  0
  3 39  1  0
  4  5  1  0
  4 40  1  0
  4 41  1  0
  5  6  1  0
  5  1  1  0
  5 42  1  1
  6  7  1  0
  6 43  1  0
  6 44  1  0
  7  9  1  0
  7  8  1  0
  8  2  1  0
  8 45  1  0
  8 46  1  0
  9 10  2  0
 10 11  1  0
 10 47  1  0
 11 18  1  0
 11 12  2  0
 12 13  1  0
 13 14  2  0
 14 15  1  0
 14  9  1  0
 15 16  1  0
 15 17  1  0
 18 19  2  0
 19 20  1  0
 19 48  1  0
 20 21  2  0
 20 49  1  0
 21 22  1  0
 21 50  1  0
 22 23  2  0
 22 51  1  0
 23 24  1  0
 23 18  1  0
 24 25  1  0
 26 27  2  0
 27 28  1  0
 27 52  1  0
 28  1  1  0
 28 29  2  0
 29 30  1  0
 29 53  1  0
 30 31  2  0
 30 54  1  0
 31 26  1  0
 32 26  1  0
 33 32  1  0
 33 55  1  0
 33 56  1  0
 34 33  1  0
 34 57  1  0
 34 58  1  0
 35 36  1  0
 35 59  1  0
 35 60  1  0
 35 61  1  0
 36 34  1  0
M  END
>  <minimizedAffinity>  (4) 
-8.97341

>  <mol_id>  (4) 
35235

>  <source_index>  (4) 
3

>  <layer>  (4) 
L1

>  <uniprot>  (4) 
P51532

>  <paff>  (4) 
8.5527999999999995

>  <smiles>  (4) 
COCCOc1cc(N2C3CCC2CN(c2cc(-c4ccccc4O)nnc2N)C3)ccn1

>  <aimnet_interaction_kcal_mol>  (4) 
-60.868809847843934

$$$$
L1:P51532:35615
     RDKit          3D

 45 47  0  0  0  0  0  0  0  0999 V2000
  -11.1619    1.6642   20.4763 N   0  0  0  0  0  0  0  0  0  0  0  0
  -11.6109    0.3655   20.3451 C   0  0  0  0  0  0  0  0  0  0  0  0
  -12.2864   -0.0114   19.4127 O   0  0  0  0  0  0  0  0  0  0  0  0
  -10.5348    1.8411   21.2498 H   0  0  0  0  0  0  0  0  0  0  0  0
  -11.7681    3.8691   17.7660 C   0  0  0  0  0  0  0  0  0  0  0  0
  -12.0159    4.8617   18.6720 C   0  0  0  0  0  0  0  0  0  0  0  0
  -11.9092    4.2692   20.2879 S   0  0  0  0  0  0  0  0  0  0  0  0
  -11.4952    2.6889   19.6131 C   0  0  0  0  0  0  0  0  0  0  0  0
  -11.5073    2.6347   18.3239 N   0  0  0  0  0  0  0  0  0  0  0  0
  -11.5784    4.4163   13.5477 C   0  0  0  0  0  0  0  0  0  0  0  0
  -10.9950    5.3501   14.4011 C   0  0  0  0  0  0  0  0  0  0  0  0
  -11.0909    5.1819   15.7749 C   0  0  0  0  0  0  0  0  0  0  0  0
  -11.7275    4.0703   16.3159 C   0  0  0  0  0  0  0  0  0  0  0  0
  -12.3103    3.1466   15.4460 C   0  0  0  0  0  0  0  0  0  0  0  0
  -12.2599    3.3242   14.0789 C   0  0  0  0  0  0  0  0  0  0  0  0
  -10.6767    5.4603   11.6174 C   0  0  0  0  0  0  0  0  0  0  0  0
  -11.5306    4.4907   12.1827 O   0  0  0  0  0  0  0  0  0  0  0  0
  -11.1743   -0.5250   21.4995 C   0  0  0  0  0  0  0  0  0  0  0  0
   -9.7357   -0.4958   21.6531 N   0  0  0  0  0  0  0  0  0  0  0  0
   -9.1284   -1.1796   22.6655 C   0  0  0  0  0  0  0  0  0  0  0  0
   -9.7575   -1.7801   23.5350 O   0  0  0  0  0  0  0  0  0  0  0  0
   -9.2151   -0.3334   20.7924 H   0  0  0  0  0  0  0  0  0  0  0  0
   -7.6396   -1.1492   22.6389 C   0  0  0  0  0  0  0  0  0  0  0  0
   -6.9402   -2.1273   23.3491 C   0  0  0  0  0  0  0  0  0  0  0  0
   -5.5603   -2.1598   23.3664 C   0  0  0  0  0  0  0  0  0  0  0  0
   -4.8263   -1.1606   22.7111 C   0  0  0  0  0  0  0  0  0  0  0  0
   -3.4549   -1.1127   22.8487 N   0  0  0  0  0  0  0  0  0  0  0  0
   -5.5197   -0.1812   21.9862 C   0  0  0  0  0  0  0  0  0  0  0  0
   -6.9034   -0.1859   21.9473 C   0  0  0  0  0  0  0  0  0  0  0  0
   -2.9428   -1.9762   22.8215 H   0  0  0  0  0  0  0  0  0  0  0  0
   -2.9666   -0.3079   22.5001 H   0  0  0  0  0  0  0  0  0  0  0  0
  -12.2557    5.8906   18.4660 H   0  0  0  0  0  0  0  0  0  0  0  0
  -10.4762    6.2155   14.0150 H   0  0  0  0  0  0  0  0  0  0  0  0
  -10.6535    5.9250   16.4316 H   0  0  0  0  0  0  0  0  0  0  0  0
  -12.7889    2.2679   15.8537 H   0  0  0  0  0  0  0  0  0  0  0  0
  -12.7113    2.6008   13.4136 H   0  0  0  0  0  0  0  0  0  0  0  0
  -10.7007    5.2988   10.5440 H   0  0  0  0  0  0  0  0  0  0  0  0
   -9.6475    5.3494   11.9737 H   0  0  0  0  0  0  0  0  0  0  0  0
  -11.0182    6.4770   11.8304 H   0  0  0  0  0  0  0  0  0  0  0  0
  -11.5373   -1.5288   21.2948 H   0  0  0  0  0  0  0  0  0  0  0  0
  -11.6386   -0.2026   22.4324 H   0  0  0  0  0  0  0  0  0  0  0  0
   -7.5165   -2.8584   23.9028 H   0  0  0  0  0  0  0  0  0  0  0  0
   -5.0273   -2.9092   23.9313 H   0  0  0  0  0  0  0  0  0  0  0  0
   -4.9684    0.5784   21.4487 H   0  0  0  0  0  0  0  0  0  0  0  0
   -7.4071    0.5782   21.3691 H   0  0  0  0  0  0  0  0  0  0  0  0
  1  2  1  0
  1  4  1  0
  2  3  2  0
  2 18  1  0
  5  6  2  0
  6  7  1  0
  6 32  1  0
  7  8  1  0
  8  1  1  0
  8  9  2  0
  9  5  1  0
 10 11  2  0
 11 12  1  0
 11 33  1  0
 12 13  2  0
 12 34  1  0
 13  5  1  0
 13 14  1  0
 14 15  2  0
 14 35  1  0
 15 10  1  0
 15 36  1  0
 16 17  1  0
 16 37  1  0
 16 38  1  0
 16 39  1  0
 17 10  1  0
 18 19  1  0
 18 40  1  0
 18 41  1  0
 19 20  1  0
 19 22  1  0
 20 21  2  0
 20 23  1  0
 23 24  2  0
 24 25  1  0
 24 42  1  0
 25 26  2  0
 25 43  1  0
 26 27  1  0
 26 28  1  0
 27 30  1  0
 27 31  1  0
 28 29  2  0
 28 44  1  0
 29 23  1  0
 29 45  1  0
M  END
>  <minimizedAffinity>  (5) 
-7.96209

>  <mol_id>  (5) 
35615

>  <source_index>  (5) 
4

>  <layer>  (5) 
L1

>  <uniprot>  (5) 
P51532

>  <paff>  (5) 
6.6904000000000003

>  <smiles>  (5) 
COc1ccc(-c2csc(NC(=O)CNC(=O)c3ccc(N)cc3)n2)cc1

>  <aimnet_interaction_kcal_mol>  (5) 
-55.788097970935858

$$$$
L1:P51532:57296
     RDKit          3D

 52 55  0  0  0  0  0  0  0  0999 V2000
  -11.9464    1.0683   21.2727 C   0  0  2  0  0  0  0  0  0  0  0  0
  -10.6836    0.5574   21.7557 N   0  0  0  0  0  0  0  0  0  0  0  0
  -10.5202   -0.6002   22.2645 C   0  0  0  0  0  0  0  0  0  0  0  0
  -11.6338   -1.4265   22.8421 C   0  0  0  0  0  0  0  0  0  0  0  0
  -11.5006   -1.8944   24.1436 C   0  0  0  0  0  0  0  0  0  0  0  0
  -12.5376   -2.5748   24.7796 C   0  0  0  0  0  0  0  0  0  0  0  0
  -13.7158   -2.8190   24.0861 C   0  0  0  0  0  0  0  0  0  0  0  0
  -13.8638   -2.3454   22.7996 C   0  0  0  0  0  0  0  0  0  0  0  0
  -12.8492   -1.6439   22.1664 C   0  0  0  0  0  0  0  0  0  0  0  0
  -13.0777   -1.1316   20.8655 N   0  0  0  0  0  0  0  0  0  0  0  0
  -13.8255   -1.6636   19.8242 C   0  0  0  0  0  0  0  0  0  0  0  0
  -14.5359   -2.9570   19.8075 C   0  0  0  0  0  0  0  0  0  0  0  0
  -13.8182   -0.8238   18.8255 N   0  0  0  0  0  0  0  0  0  0  0  0
  -13.0817    0.2860   19.1920 N   0  0  0  0  0  0  0  0  0  0  0  0
  -12.6697    0.1058   20.4101 C   0  0  0  0  0  0  0  0  0  0  0  0
   -9.1087   -1.0506   22.3874 C   0  0  0  0  0  0  0  0  0  0  0  0
   -8.1033   -0.1746   21.9570 C   0  0  0  0  0  0  0  0  0  0  0  0
   -6.7669   -0.5111   22.0632 C   0  0  0  0  0  0  0  0  0  0  0  0
   -6.4208   -1.7410   22.5957 C   0  0  0  0  0  0  0  0  0  0  0  0
   -4.7245   -2.1388   22.7603 Cl  0  0  0  0  0  0  0  0  0  0  0  0
   -7.3889   -2.6468   22.9902 C   0  0  0  0  0  0  0  0  0  0  0  0
   -8.7304   -2.2987   22.8804 C   0  0  0  0  0  0  0  0  0  0  0  0
  -12.3185   -2.9598   26.0574 O   0  0  0  0  0  0  0  0  0  0  0  0
  -13.4377   -3.4107   26.8137 C   0  0  0  0  0  0  0  0  0  0  0  0
  -11.6830    2.3939   20.5590 C   0  0  0  0  0  0  0  0  0  0  0  0
  -11.7229    4.6773   21.3858 N   0  0  0  0  0  0  0  0  0  0  0  0
  -12.4087    3.5122   21.2664 C   0  0  0  0  0  0  0  0  0  0  0  0
  -13.5467    3.3479   21.6972 O   0  0  0  0  0  0  0  0  0  0  0  0
  -10.7256    4.6616   21.2337 H   0  0  0  0  0  0  0  0  0  0  0  0
  -13.2873    6.5568   21.0789 C   0  0  0  0  0  0  0  0  0  0  0  0
  -12.3386    5.8299   22.0110 C   0  0  0  0  0  0  0  0  0  0  0  0
  -12.5970    1.2866   22.1327 H   0  0  0  0  0  0  0  0  0  0  0  0
  -10.5981   -1.7033   24.7054 H   0  0  0  0  0  0  0  0  0  0  0  0
  -14.5327   -3.3537   24.5410 H   0  0  0  0  0  0  0  0  0  0  0  0
  -14.7976   -2.5025   22.2877 H   0  0  0  0  0  0  0  0  0  0  0  0
  -14.0189   -3.7252   20.3747 H   0  0  0  0  0  0  0  0  0  0  0  0
  -14.6208   -3.2746   18.7727 H   0  0  0  0  0  0  0  0  0  0  0  0
  -15.5479   -2.8694   20.2064 H   0  0  0  0  0  0  0  0  0  0  0  0
   -8.3836    0.7542   21.4850 H   0  0  0  0  0  0  0  0  0  0  0  0
   -5.9994    0.1703   21.7276 H   0  0  0  0  0  0  0  0  0  0  0  0
   -7.0937   -3.6132   23.3714 H   0  0  0  0  0  0  0  0  0  0  0  0
   -9.4813   -3.0191   23.1692 H   0  0  0  0  0  0  0  0  0  0  0  0
  -13.0920   -3.5375   27.8323 H   0  0  0  0  0  0  0  0  0  0  0  0
  -13.8009   -4.3665   26.4348 H   0  0  0  0  0  0  0  0  0  0  0  0
  -14.2352   -2.6673   26.8001 H   0  0  0  0  0  0  0  0  0  0  0  0
  -10.6133    2.5583   20.5125 H   0  0  0  0  0  0  0  0  0  0  0  0
  -12.0628    2.3522   19.5400 H   0  0  0  0  0  0  0  0  0  0  0  0
  -13.7234    7.4255   21.5734 H   0  0  0  0  0  0  0  0  0  0  0  0
  -14.0989    5.8967   20.7868 H   0  0  0  0  0  0  0  0  0  0  0  0
  -12.7721    6.8898   20.1783 H   0  0  0  0  0  0  0  0  0  0  0  0
  -12.8752    5.5014   22.8998 H   0  0  0  0  0  0  0  0  0  0  0  0
  -11.5354    6.4899   22.3382 H   0  0  0  0  0  0  0  0  0  0  0  0
  1  2  1  0
  1 32  1  1
  2  3  2  0
  3 16  1  0
  3  4  1  0
  4  5  2  0
  5  6  1  0
  5 33  1  0
  6 23  1  0
  6  7  2  0
  7  8  1  0
  7 34  1  0
  8  9  2  0
  8 35  1  0
  9 10  1  0
  9  4  1  0
 10 11  1  0
 11 12  1  0
 11 13  2  0
 12 36  1  0
 12 37  1  0
 12 38  1  0
 13 14  1  0
 14 15  2  0
 15  1  1  0
 15 10  1  0
 16 17  2  0
 17 18  1  0
 17 39  1  0
 18 19  2  0
 18 40  1  0
 19 20  1  0
 19 21  1  0
 21 22  2  0
 21 41  1  0
 22 16  1  0
 22 42  1  0
 23 24  1  0
 24 43  1  0
 24 44  1  0
 24 45  1  0
 25  1  1  0
 25 46  1  0
 25 47  1  0
 26 27  1  0
 26 29  1  0
 27 28  2  0
 27 25  1  0
 30 31  1  0
 30 48  1  0
 30 49  1  0
 30 50  1  0
 31 26  1  0
 31 51  1  0
 31 52  1  0
M  END
>  <minimizedAffinity>  (6) 
-7.37202

>  <mol_id>  (6) 
57296

>  <source_index>  (6) 
5

>  <layer>  (6) 
L1

>  <uniprot>  (6) 
P51532

>  <paff>  (6) 
7.5228999999999999

>  <smiles>  (6) 
CCNC(=O)C[C@@H]1N=C(c2ccc(Cl)cc2)c2cc(OC)ccc2-n2c(C)nnc21

>  <aimnet_interaction_kcal_mol>  (6) 
-34.052129449155586

$$$$
L1:P51532:78268
     RDKit          3D

 33 35  0  0  0  0  0  0  0  0999 V2000
  -10.6459   -1.8256   24.0716 C   0  0  0  0  0  0  0  0  0  0  0  0
   -9.6159   -1.1285   23.4899 C   0  0  0  0  0  0  0  0  0  0  0  0
   -8.3730   -1.7509   23.2791 C   0  0  0  0  0  0  0  0  0  0  0  0
   -8.2128   -3.0395   23.5711 N   0  0  0  0  0  0  0  0  0  0  0  0
   -9.1767   -3.7283   24.1266 N   0  0  0  0  0  0  0  0  0  0  0  0
  -10.3791   -3.1867   24.3618 C   0  0  0  0  0  0  0  0  0  0  0  0
  -11.3144   -4.0014   24.8944 N   0  0  0  0  0  0  0  0  0  0  0  0
  -12.2725   -3.7015   24.8978 H   0  0  0  0  0  0  0  0  0  0  0  0
  -11.0951   -4.9895   24.9828 H   0  0  0  0  0  0  0  0  0  0  0  0
   -7.2125   -1.0335   22.7681 C   0  0  0  0  0  0  0  0  0  0  0  0
   -7.3964    0.0798   21.9482 C   0  0  0  0  0  0  0  0  0  0  0  0
   -6.3361    0.8671   21.5370 C   0  0  0  0  0  0  0  0  0  0  0  0
   -5.0442    0.4601   21.8292 C   0  0  0  0  0  0  0  0  0  0  0  0
   -4.8245   -0.6702   22.5905 C   0  0  0  0  0  0  0  0  0  0  0  0
   -5.8927   -1.3915   23.1251 C   0  0  0  0  0  0  0  0  0  0  0  0
   -5.6465   -2.4313   23.9634 O   0  0  0  0  0  0  0  0  0  0  0  0
   -4.9484   -2.1923   24.6065 H   0  0  0  0  0  0  0  0  0  0  0  0
  -14.7378    1.0494   24.1702 C   0  0  0  0  0  0  0  0  0  0  0  0
  -13.7183    0.0545   24.4506 N   0  0  0  0  0  0  0  0  0  0  0  0
  -12.6708   -0.3082   23.6843 C   0  0  0  0  0  0  0  0  0  0  0  0
  -11.9259   -1.2249   24.4154 C   0  0  0  0  0  0  0  0  0  0  0  0
  -12.6462   -1.3514   25.6242 C   0  0  0  0  0  0  0  0  0  0  0  0
  -13.7251   -0.5778   25.6453 N   0  0  0  0  0  0  0  0  0  0  0  0
   -9.7639   -0.0947   23.2161 H   0  0  0  0  0  0  0  0  0  0  0  0
   -8.3840    0.3088   21.5740 H   0  0  0  0  0  0  0  0  0  0  0  0
   -6.5148    1.7716   20.9718 H   0  0  0  0  0  0  0  0  0  0  0  0
   -4.1921    1.0048   21.4500 H   0  0  0  0  0  0  0  0  0  0  0  0
   -3.8110   -1.0049   22.7740 H   0  0  0  0  0  0  0  0  0  0  0  0
  -14.6139    1.3988   23.1518 H   0  0  0  0  0  0  0  0  0  0  0  0
  -14.6550    1.8946   24.8531 H   0  0  0  0  0  0  0  0  0  0  0  0
  -15.7146    0.5952   24.2992 H   0  0  0  0  0  0  0  0  0  0  0  0
  -12.5263    0.0970   22.6969 H   0  0  0  0  0  0  0  0  0  0  0  0
  -12.3980   -1.9356   26.4951 H   0  0  0  0  0  0  0  0  0  0  0  0
  1  2  2  0
  2  3  1  0
  2 24  1  0
  3 10  1  0
  3  4  2  0
  4  5  1  0
  5  6  2  0
  6  7  1  0
  6  1  1  0
  7  8  1  0
  7  9  1  0
 10 11  2  0
 11 12  1  0
 11 25  1  0
 12 13  2  0
 12 26  1  0
 13 14  1  0
 13 27  1  0
 14 15  2  0
 14 28  1  0
 15 16  1  0
 15 10  1  0
 16 17  1  0
 18 19  1  0
 18 29  1  0
 18 30  1  0
 18 31  1  0
 19 20  1  0
 20 21  2  0
 20 32  1  0
 21  1  1  0
 21 22  1  0
 22 23  2  0
 22 33  1  0
 23 19  1  0
M  END
>  <minimizedAffinity>  (7) 
-8.97989

>  <mol_id>  (7) 
78268

>  <source_index>  (7) 
6

>  <layer>  (7) 
L1

>  <uniprot>  (7) 
P51532

>  <paff>  (7) 
7.8928000000000003

>  <smiles>  (7) 
Cn1cc(-c2cc(-c3ccccc3O)nnc2N)cn1

>  <aimnet_interaction_kcal_mol>  (7) 
-53.667606918068614

$$$$
L1:P51532:93381
     RDKit          3D

 51 53  0  0  0  0  0  0  0  0999 V2000
  -11.2092   -0.6520   21.5439 C   0  0  2  0  0  0  0  0  0  0  0  0
   -9.7684   -0.6589   21.6255 N   0  0  0  0  0  0  0  0  0  0  0  0
   -9.0991   -1.4709   22.4743 C   0  0  0  0  0  0  0  0  0  0  0  0
   -9.6632   -2.3247   23.1683 O   0  0  0  0  0  0  0  0  0  0  0  0
   -9.2981   -0.2260   20.8282 H   0  0  0  0  0  0  0  0  0  0  0  0
   -7.6267   -1.2853   22.5349 C   0  0  0  0  0  0  0  0  0  0  0  0
   -6.9446   -0.2470   21.8984 C   0  0  0  0  0  0  0  0  0  0  0  0
   -5.5639   -0.1614   21.9616 C   0  0  0  0  0  0  0  0  0  0  0  0
   -4.8224   -1.1137   22.6763 C   0  0  0  0  0  0  0  0  0  0  0  0
   -3.4572   -1.0040   22.8198 N   0  0  0  0  0  0  0  0  0  0  0  0
   -5.5035   -2.1620   23.3126 C   0  0  0  0  0  0  0  0  0  0  0  0
   -6.8805   -2.2195   23.2584 C   0  0  0  0  0  0  0  0  0  0  0  0
   -2.9920   -0.1774   22.4881 H   0  0  0  0  0  0  0  0  0  0  0  0
   -2.9129   -1.8470   22.7945 H   0  0  0  0  0  0  0  0  0  0  0  0
  -11.5504    0.3650   20.4543 C   0  0  0  0  0  0  0  0  0  0  0  0
  -10.8490    1.3196   20.2297 O   0  0  0  0  0  0  0  0  0  0  0  0
  -12.7187    0.0712   19.7573 N   0  0  0  0  0  0  0  0  0  0  0  0
  -13.2949   -0.6655   20.1327 H   0  0  0  0  0  0  0  0  0  0  0  0
  -13.0428    0.5860   18.5156 C   0  0  0  0  0  0  0  0  0  0  0  0
  -12.4980    1.6024   17.9411 N   0  0  0  0  0  0  0  0  0  0  0  0
  -12.9477    1.7696   16.6461 C   0  0  0  0  0  0  0  0  0  0  0  0
  -13.8614    0.8379   16.2360 C   0  0  0  0  0  0  0  0  0  0  0  0
  -14.2582   -0.2374   17.5349 S   0  0  0  0  0  0  0  0  0  0  0  0
  -12.4468    2.8868   15.8446 C   0  0  0  0  0  0  0  0  0  0  0  0
  -11.6344    3.8479   16.4470 C   0  0  0  0  0  0  0  0  0  0  0  0
  -11.0951    4.8828   15.7055 C   0  0  0  0  0  0  0  0  0  0  0  0
  -11.3729    4.9781   14.3481 C   0  0  0  0  0  0  0  0  0  0  0  0
  -12.1864    4.0303   13.7439 C   0  0  0  0  0  0  0  0  0  0  0  0
  -12.7193    2.9829   14.4800 C   0  0  0  0  0  0  0  0  0  0  0  0
  -11.8824   -0.3248   22.8906 C   0  0  0  0  0  0  0  0  0  0  0  0
  -12.8637   -1.4029   23.3264 C   0  0  0  0  0  0  0  0  0  0  0  0
  -11.9556   -2.0618   25.8609 C   0  0  0  0  0  0  0  0  0  0  0  0
  -13.3646   -1.2413   25.0614 S   0  0  0  0  0  0  0  0  0  0  0  0
  -11.5305   -1.6486   21.2307 H   0  0  0  0  0  0  0  0  0  0  0  0
   -7.4847    0.5089   21.3457 H   0  0  0  0  0  0  0  0  0  0  0  0
   -5.0530    0.6447   21.4527 H   0  0  0  0  0  0  0  0  0  0  0  0
   -4.9376   -2.8821   23.8832 H   0  0  0  0  0  0  0  0  0  0  0  0
   -7.4236   -2.9929   23.7865 H   0  0  0  0  0  0  0  0  0  0  0  0
  -14.2639    0.6820   15.2481 H   0  0  0  0  0  0  0  0  0  0  0  0
  -11.4144    3.7385   17.4980 H   0  0  0  0  0  0  0  0  0  0  0  0
  -10.4655    5.6216   16.1867 H   0  0  0  0  0  0  0  0  0  0  0  0
  -10.9580    5.7906   13.7651 H   0  0  0  0  0  0  0  0  0  0  0  0
  -12.4012    4.0986   12.6846 H   0  0  0  0  0  0  0  0  0  0  0  0
  -13.2997    2.2217   13.9754 H   0  0  0  0  0  0  0  0  0  0  0  0
  -11.0941   -0.2405   23.6295 H   0  0  0  0  0  0  0  0  0  0  0  0
  -12.3817    0.6436   22.8577 H   0  0  0  0  0  0  0  0  0  0  0  0
  -13.7859   -1.3683   22.7455 H   0  0  0  0  0  0  0  0  0  0  0  0
  -12.4151   -2.3844   23.1859 H   0  0  0  0  0  0  0  0  0  0  0  0
  -12.1520   -2.0018   26.9252 H   0  0  0  0  0  0  0  0  0  0  0  0
  -11.0201   -1.5629   25.6338 H   0  0  0  0  0  0  0  0  0  0  0  0
  -11.8964   -3.1063   25.5645 H   0  0  0  0  0  0  0  0  0  0  0  0
  1  2  1  0
  1 15  1  0
  1 34  1  6
  2  3  1  0
  2  5  1  0
  3  4  2  0
  3  6  1  0
  6  7  2  0
  7  8  1  0
  7 35  1  0
  8  9  2  0
  8 36  1  0
  9 10  1  0
  9 11  1  0
 10 13  1  0
 10 14  1  0
 11 12  2  0
 11 37  1  0
 12  6  1  0
 12 38  1  0
 15 16  2  0
 15 17  1  0
 17 19  1  0
 17 18  1  0
 19 20  2  0
 20 21  1  0
 21 24  1  0
 21 22  2  0
 22 23  1  0
 22 39  1  0
 23 19  1  0
 24 25  2  0
 25 26  1  0
 25 40  1  0
 26 27  2  0
 26 41  1  0
 27 28  1  0
 27 42  1  0
 28 29  2  0
 28 43  1  0
 29 24  1  0
 29 44  1  0
 30  1  1  0
 30 45  1  0
 30 46  1  0
 31 30  1  0
 31 47  1  0
 31 48  1  0
 32 33  1  0
 32 49  1  0
 32 50  1  0
 32 51  1  0
 33 31  1  0
M  END
>  <minimizedAffinity>  (8) 
-7.76801

>  <mol_id>  (8) 
93381

>  <source_index>  (8) 
7

>  <layer>  (8) 
L1

>  <uniprot>  (8) 
P51532

>  <paff>  (8) 
6.2789999999999999

>  <smiles>  (8) 
CSCC[C@H](NC(=O)c1ccc(N)cc1)C(=O)Nc1nc(-c2ccccc2)cs1

>  <aimnet_interaction_kcal_mol>  (8) 
-54.234874906498412

$$$$
L1:P51532:130236
     RDKit          3D

 45 47  0  0  0  0  0  0  0  0999 V2000
  -11.0802    1.7706   20.7142 N   0  0  0  0  0  0  0  0  0  0  0  0
  -11.5689    0.5032   20.4534 C   0  0  0  0  0  0  0  0  0  0  0  0
  -12.2463    0.2370   19.4848 O   0  0  0  0  0  0  0  0  0  0  0  0
  -10.4164    1.8316   21.4751 H   0  0  0  0  0  0  0  0  0  0  0  0
  -11.4619    4.1597   18.1253 C   0  0  0  0  0  0  0  0  0  0  0  0
  -11.7518    5.1017   19.0728 C   0  0  0  0  0  0  0  0  0  0  0  0
  -11.7803    4.4008   20.6465 S   0  0  0  0  0  0  0  0  0  0  0  0
  -11.3220    2.8624   19.9077 C   0  0  0  0  0  0  0  0  0  0  0  0
  -11.2248    2.8976   18.6193 N   0  0  0  0  0  0  0  0  0  0  0  0
  -12.0404    3.6750   14.4547 C   0  0  0  0  0  0  0  0  0  0  0  0
  -11.5495    4.8683   13.9269 C   0  0  0  0  0  0  0  0  0  0  0  0
  -10.9926    5.8128   14.7812 C   0  0  0  0  0  0  0  0  0  0  0  0
  -10.9357    5.5999   16.1475 C   0  0  0  0  0  0  0  0  0  0  0  0
  -11.4346    4.4025   16.6744 C   0  0  0  0  0  0  0  0  0  0  0  0
  -11.9448    3.4342   15.8243 C   0  0  0  0  0  0  0  0  0  0  0  0
  -12.9062    2.9250   12.3617 C   0  0  0  0  0  0  0  0  0  0  0  0
  -12.6099    2.6906   13.7288 O   0  0  0  0  0  0  0  0  0  0  0  0
  -11.1560   -0.5015   21.5196 C   0  0  0  0  0  0  0  0  0  0  0  0
   -9.7161   -0.5116   21.6658 N   0  0  0  0  0  0  0  0  0  0  0  0
   -9.1121   -1.1974   22.6780 C   0  0  0  0  0  0  0  0  0  0  0  0
   -9.7412   -1.7890   23.5536 O   0  0  0  0  0  0  0  0  0  0  0  0
   -9.1975   -0.3541   20.8031 H   0  0  0  0  0  0  0  0  0  0  0  0
   -7.6229   -1.1745   22.6434 C   0  0  0  0  0  0  0  0  0  0  0  0
   -6.9233   -2.1516   23.3544 C   0  0  0  0  0  0  0  0  0  0  0  0
   -5.5433   -2.1847   23.3701 C   0  0  0  0  0  0  0  0  0  0  0  0
   -4.8095   -1.1874   22.7114 C   0  0  0  0  0  0  0  0  0  0  0  0
   -3.4380   -1.1393   22.8467 N   0  0  0  0  0  0  0  0  0  0  0  0
   -5.5036   -0.2088   21.9855 C   0  0  0  0  0  0  0  0  0  0  0  0
   -6.8871   -0.2147   21.9467 C   0  0  0  0  0  0  0  0  0  0  0  0
   -2.9525   -0.3312   22.5023 H   0  0  0  0  0  0  0  0  0  0  0  0
   -2.9224   -2.0009   22.8172 H   0  0  0  0  0  0  0  0  0  0  0  0
  -11.9546    6.1451   18.9018 H   0  0  0  0  0  0  0  0  0  0  0  0
  -11.5990    5.0651   12.8656 H   0  0  0  0  0  0  0  0  0  0  0  0
  -10.6113    6.7360   14.3626 H   0  0  0  0  0  0  0  0  0  0  0  0
  -10.5188    6.3508   16.8021 H   0  0  0  0  0  0  0  0  0  0  0  0
  -12.2490    2.4753   16.2146 H   0  0  0  0  0  0  0  0  0  0  0  0
  -13.3805    2.0109   12.0143 H   0  0  0  0  0  0  0  0  0  0  0  0
  -11.9925    3.0997   11.7843 H   0  0  0  0  0  0  0  0  0  0  0  0
  -13.5815    3.7787   12.2440 H   0  0  0  0  0  0  0  0  0  0  0  0
  -11.5390   -1.4748   21.2243 H   0  0  0  0  0  0  0  0  0  0  0  0
  -11.6078   -0.2556   22.4812 H   0  0  0  0  0  0  0  0  0  0  0  0
   -7.5001   -2.8802   23.9106 H   0  0  0  0  0  0  0  0  0  0  0  0
   -5.0099   -2.9304   23.9390 H   0  0  0  0  0  0  0  0  0  0  0  0
   -4.9531    0.5505   21.4467 H   0  0  0  0  0  0  0  0  0  0  0  0
   -7.3909    0.5456   21.3641 H   0  0  0  0  0  0  0  0  0  0  0  0
  1  2  1  0
  1  4  1  0
  2  3  2  0
  2 18  1  0
  5  6  2  0
  6  7  1  0
  6 32  1  0
  7  8  1  0
  8  1  1  0
  8  9  2  0
  9  5  1  0
 10 11  2  0
 11 12  1  0
 11 33  1  0
 12 13  2  0
 12 34  1  0
 13 14  1  0
 13 35  1  0
 14  5  1  0
 14 15  2  0
 15 10  1  0
 15 36  1  0
 16 17  1  0
 16 37  1  0
 16 38  1  0
 16 39  1  0
 17 10  1  0
 18 19  1  0
 18 40  1  0
 18 41  1  0
 19 20  1  0
 19 22  1  0
 20 21  2  0
 20 23  1  0
 23 24  2  0
 24 25  1  0
 24 42  1  0
 25 26  2  0
 25 43  1  0
 26 27  1  0
 26 28  1  0
 27 30  1  0
 27 31  1  0
 28 29  2  0
 28 44  1  0
 29 23  1  0
 29 45  1  0
M  END
>  <minimizedAffinity>  (9) 
-7.87823

>  <mol_id>  (9) 
130236

>  <source_index>  (9) 
8

>  <layer>  (9) 
L1

>  <uniprot>  (9) 
P51532

>  <paff>  (9) 
6.4908000000000001

>  <smiles>  (9) 
COc1cccc(-c2csc(NC(=O)CNC(=O)c3ccc(N)cc3)n2)c1

>  <aimnet_interaction_kcal_mol>  (9) 
-56.886801260321974

$$$$
L1:P51532:143316
     RDKit          3D

 42 44  0  0  0  0  0  0  0  0999 V2000
  -10.7932    2.0715   20.2280 N   0  0  0  0  0  0  0  0  0  0  0  0
  -11.4344    0.8538   20.1486 C   0  0  0  0  0  0  0  0  0  0  0  0
  -12.1552    0.5496   19.2202 O   0  0  0  0  0  0  0  0  0  0  0  0
  -10.0733    2.1725   20.9359 H   0  0  0  0  0  0  0  0  0  0  0  0
  -11.2534    4.5090   17.6747 C   0  0  0  0  0  0  0  0  0  0  0  0
  -11.9699    5.2512   18.5739 C   0  0  0  0  0  0  0  0  0  0  0  0
  -12.0316    4.4783   20.1003 S   0  0  0  0  0  0  0  0  0  0  0  0
  -11.1003    3.1449   19.4127 C   0  0  0  0  0  0  0  0  0  0  0  0
  -10.7817    3.3077   18.1656 N   0  0  0  0  0  0  0  0  0  0  0  0
  -10.4989    4.5945   13.9833 C   0  0  0  0  0  0  0  0  0  0  0  0
  -10.2639    5.9581   13.7887 C   0  0  0  0  0  0  0  0  0  0  0  0
  -10.3590    6.8254   14.8608 C   0  0  0  0  0  0  0  0  0  0  0  0
  -10.6841    6.3473   16.1180 C   0  0  0  0  0  0  0  0  0  0  0  0
  -10.9296    4.9851   16.3216 C   0  0  0  0  0  0  0  0  0  0  0  0
  -10.8560    4.1071   15.2441 C   0  0  0  0  0  0  0  0  0  0  0  0
  -10.1027    3.0940   11.9223 N   0  0  0  0  0  0  0  0  0  0  0  0
  -10.3107    3.7289   12.8713 C   0  0  0  0  0  0  0  0  0  0  0  0
  -11.1591   -0.0578   21.3448 C   0  0  0  0  0  0  0  0  0  0  0  0
   -9.7398   -0.1458   21.6163 N   0  0  0  0  0  0  0  0  0  0  0  0
   -9.2362   -0.9306   22.6156 C   0  0  0  0  0  0  0  0  0  0  0  0
   -9.9383   -1.5406   23.4175 O   0  0  0  0  0  0  0  0  0  0  0  0
   -9.1699   -0.0546   20.7764 H   0  0  0  0  0  0  0  0  0  0  0  0
   -7.7450   -0.9826   22.6428 C   0  0  0  0  0  0  0  0  0  0  0  0
   -6.9469   -0.0627   21.9600 C   0  0  0  0  0  0  0  0  0  0  0  0
   -5.5672   -0.1361   22.0086 C   0  0  0  0  0  0  0  0  0  0  0  0
   -4.9366   -1.1436   22.7493 C   0  0  0  0  0  0  0  0  0  0  0  0
   -3.5625   -1.1635   22.8920 N   0  0  0  0  0  0  0  0  0  0  0  0
   -5.7323   -2.0911   23.4107 C   0  0  0  0  0  0  0  0  0  0  0  0
   -7.1102   -1.9838   23.3794 C   0  0  0  0  0  0  0  0  0  0  0  0
   -3.0893   -2.0485   22.8756 H   0  0  0  0  0  0  0  0  0  0  0  0
   -3.0393   -0.3912   22.5195 H   0  0  0  0  0  0  0  0  0  0  0  0
  -12.4490    6.1989   18.3970 H   0  0  0  0  0  0  0  0  0  0  0  0
   -9.9998    6.3158   12.8047 H   0  0  0  0  0  0  0  0  0  0  0  0
  -10.1717    7.8807   14.7163 H   0  0  0  0  0  0  0  0  0  0  0  0
  -10.7278    7.0298   16.9535 H   0  0  0  0  0  0  0  0  0  0  0  0
  -11.0412    3.0544   15.3895 H   0  0  0  0  0  0  0  0  0  0  0  0
  -11.5829   -1.0342   21.1128 H   0  0  0  0  0  0  0  0  0  0  0  0
  -11.6741    0.3085   22.2340 H   0  0  0  0  0  0  0  0  0  0  0  0
   -7.3984    0.7308   21.3811 H   0  0  0  0  0  0  0  0  0  0  0  0
   -4.9713    0.5865   21.4675 H   0  0  0  0  0  0  0  0  0  0  0  0
   -5.2474   -2.8672   23.9858 H   0  0  0  0  0  0  0  0  0  0  0  0
   -7.7330   -2.6700   23.9427 H   0  0  0  0  0  0  0  0  0  0  0  0
  1  2  1  0
  1  4  1  0
  2  3  2  0
  2 18  1  0
  5  6  2  0
  6  7  1  0
  6 32  1  0
  7  8  1  0
  8  1  1  0
  8  9  2  0
  9  5  1  0
 10 11  2  0
 11 12  1  0
 11 33  1  0
 12 13  2  0
 12 34  1  0
 13 14  1  0
 13 35  1  0
 14  5  1  0
 14 15  2  0
 15 10  1  0
 15 36  1  0
 16 17  3  0
 17 10  1  0
 18 19  1  0
 18 37  1  0
 18 38  1  0
 19 20  1  0
 19 22  1  0
 20 21  2  0
 20 23  1  0
 23 24  2  0
 24 25  1  0
 24 39  1  0
 25 26  2  0
 25 40  1  0
 26 27  1  0
 26 28  1  0
 27 30  1  0
 27 31  1  0
 28 29  2  0
 28 41  1  0
 29 23  1  0
 29 42  1  0
M  END
>  <minimizedAffinity>  (10) 
-7.97893

>  <mol_id>  (10) 
143316

>  <source_index>  (10) 
9

>  <layer>  (10) 
L1

>  <uniprot>  (10) 
P51532

>  <paff>  (10) 
6.4814999999999996

>  <smiles>  (10) 
N#Cc1cccc(-c2csc(NC(=O)CNC(=O)c3ccc(N)cc3)n2)c1

>  <aimnet_interaction_kcal_mol>  (10) 
-58.605129941099996

$$$$
