L1:P51532:13433
     RDKit          3D

 33 35  0  0  0  0  0  0  0  0999 V2000
  -11.0331   -3.7833   25.0893 N   0  0  0  0  0  0  0  0  0  0  0  0
  -10.0712   -3.0245   24.4439 C   0  0  0  0  0  0  0  0  0  0  0  0
   -8.8385   -3.5596   24.3458 N   0  0  0  0  0  0  0  0  0  0  0  0
   -7.8167   -2.8677   23.7401 N   0  0  0  0  0  0  0  0  0  0  0  0
   -8.0186   -1.6273   23.2452 C   0  0  0  0  0  0  0  0  0  0  0  0
   -9.2724   -1.0415   23.3551 C   0  0  0  0  0  0  0  0  0  0  0  0
  -10.3304   -1.7367   23.9651 C   0  0  0  0  0  0  0  0  0  0  0  0
  -10.7164   -4.6970   25.3862 H   0  0  0  0  0  0  0  0  0  0  0  0
  -11.9951   -3.6819   24.7978 H   0  0  0  0  0  0  0  0  0  0  0  0
   -6.8418   -0.9713   22.6391 C   0  0  0  0  0  0  0  0  0  0  0  0
   -6.9810    0.1929   21.8539 C   0  0  0  0  0  0  0  0  0  0  0  0
   -5.8736    0.8383   21.2904 C   0  0  0  0  0  0  0  0  0  0  0  0
   -4.5938    0.3347   21.4951 C   0  0  0  0  0  0  0  0  0  0  0  0
   -4.4224   -0.8181   22.2540 C   0  0  0  0  0  0  0  0  0  0  0  0
   -5.5304   -1.4630   22.8082 C   0  0  0  0  0  0  0  0  0  0  0  0
   -5.2437   -2.5949   23.5291 O   0  0  0  0  0  0  0  0  0  0  0  0
   -6.0849   -3.0614   23.7123 H   0  0  0  0  0  0  0  0  0  0  0  0
  -11.6490   -1.0916   24.0774 C   0  0  0  0  0  0  0  0  0  0  0  0
  -12.3200   -0.6244   22.9350 C   0  0  0  0  0  0  0  0  0  0  0  0
  -13.5694   -0.0084   23.0398 C   0  0  0  0  0  0  0  0  0  0  0  0
  -14.1654    0.1519   24.2886 C   0  0  0  0  0  0  0  0  0  0  0  0
  -13.5141   -0.3031   25.4325 C   0  0  0  0  0  0  0  0  0  0  0  0
  -12.2651   -0.9193   25.3274 C   0  0  0  0  0  0  0  0  0  0  0  0
   -9.4283   -0.0902   22.9868 H   0  0  0  0  0  0  0  0  0  0  0  0
   -7.9241    0.5789   21.6907 H   0  0  0  0  0  0  0  0  0  0  0  0
   -6.0075    1.6893   20.7221 H   0  0  0  0  0  0  0  0  0  0  0  0
   -3.7760    0.8135   21.0864 H   0  0  0  0  0  0  0  0  0  0  0  0
   -3.4751   -1.1976   22.4079 H   0  0  0  0  0  0  0  0  0  0  0  0
  -11.8843   -0.7377   22.0064 H   0  0  0  0  0  0  0  0  0  0  0  0
  -14.0512    0.3281   22.1915 H   0  0  0  0  0  0  0  0  0  0  0  0
  -15.0883    0.6072   24.3661 H   0  0  0  0  0  0  0  0  0  0  0  0
  -13.9546   -0.1849   26.3582 H   0  0  0  0  0  0  0  0  0  0  0  0
  -11.7886   -1.2525   26.1800 H   0  0  0  0  0  0  0  0  0  0  0  0
  1  2  1  0
  1  8  1  0
  1  9  1  0
  2  3  2  0
  3  4  1  0
  4  5  2  0
  5 10  1  0
  5  6  1  0
  6  7  2  0
  6 24  1  0
  7 18  1  0
  7  2  1  0
 10 11  2  0
 11 12  1  0
 11 25  1  0
 12 13  2  0
 12 26  1  0
 13 14  1  0
 13 27  1  0
 14 15  2  0
 14 28  1  0
 15 16  1  0
 15 10  1  0
 16 17  1  0
 18 19  2  0
 19 20  1  0
 19 29  1  0
 20 21  2  0
 20 30  1  0
 21 22  1  0
 21 31  1  0
 22 23  2  0
 22 32  1  0
 23 18  1  0
 23 33  1  0
M  END
>  <minimizedAffinity>  (1) 
-9.38365

>  <mol_id>  (1) 
13433

>  <source_index>  (1) 
0

>  <layer>  (1) 
L1

>  <uniprot>  (1) 
P51532

>  <paff>  (1) 
7.1426999999999996

>  <smiles>  (1) 
Nc1nnc(cc1-c1ccccc1)-c1ccccc1O

$$$$
L1:P51532:20704
     RDKit          3D

 54 58  0  0  0  0  0  0  0  0999 V2000
  -10.1236   -2.0204   23.4823 C   0  0  0  0  0  0  0  0  0  0  0  0
   -9.0451   -1.3614   22.8829 C   0  0  0  0  0  0  0  0  0  0  0  0
   -7.7400   -1.7695   23.1399 C   0  0  0  0  0  0  0  0  0  0  0  0
   -7.5043   -2.8010   23.9827 N   0  0  0  0  0  0  0  0  0  0  0  0
   -8.5406   -3.4615   24.5842 N   0  0  0  0  0  0  0  0  0  0  0  0
   -9.8139   -3.1004   24.3303 C   0  0  0  0  0  0  0  0  0  0  0  0
  -10.8248   -3.8224   24.9562 N   0  0  0  0  0  0  0  0  0  0  0  0
  -10.5017   -4.6045   25.5079 H   0  0  0  0  0  0  0  0  0  0  0  0
  -11.6753   -3.9096   24.4177 H   0  0  0  0  0  0  0  0  0  0  0  0
  -13.7669   -0.0062   22.6727 N   0  0  0  0  0  0  0  0  0  0  0  0
  -13.4841   -1.1959   21.8484 C   0  0  2  0  0  0  0  0  0  0  0  0
  -14.2367   -2.2993   22.6155 C   0  0  0  0  0  0  0  0  0  0  0  0
  -14.2957   -1.8041   24.0667 C   0  0  0  0  0  0  0  0  0  0  0  0
  -13.5427   -0.4611   24.0587 C   0  0  1  0  0  0  0  0  0  0  0  0
  -12.0141   -0.6885   24.2798 C   0  0  0  0  0  0  0  0  0  0  0  0
  -11.4465   -1.6154   23.2599 N   0  0  0  0  0  0  0  0  0  0  0  0
  -11.9449   -1.4561   21.8724 C   0  0  0  0  0  0  0  0  0  0  0  0
  -12.9720    2.9956   20.6803 C   0  0  0  0  0  0  0  0  0  0  0  0
  -13.0166    1.6636   21.0770 C   0  0  0  0  0  0  0  0  0  0  0  0
  -13.7010    1.2957   22.2399 C   0  0  0  0  0  0  0  0  0  0  0  0
  -14.2862    2.3451   22.9557 C   0  0  0  0  0  0  0  0  0  0  0  0
  -14.1902    3.6511   22.4889 C   0  0  0  0  0  0  0  0  0  0  0  0
  -13.5513    4.0019   21.3594 N   0  0  0  0  0  0  0  0  0  0  0  0
  -11.5287    2.1422   19.0480 C   0  0  0  0  0  0  0  0  0  0  0  0
  -12.2834    3.2574   19.5106 O   0  0  0  0  0  0  0  0  0  0  0  0
   -6.5416   -1.1162   22.5728 C   0  0  0  0  0  0  0  0  0  0  0  0
   -6.6534    0.0405   21.7723 C   0  0  0  0  0  0  0  0  0  0  0  0
   -5.5267    0.6836   21.2461 C   0  0  0  0  0  0  0  0  0  0  0  0
   -4.2546    0.1850   21.5044 C   0  0  0  0  0  0  0  0  0  0  0  0
   -4.1097   -0.9609   22.2793 C   0  0  0  0  0  0  0  0  0  0  0  0
   -5.2368   -1.6037   22.7962 C   0  0  0  0  0  0  0  0  0  0  0  0
   -4.9765   -2.7291   23.5369 O   0  0  0  0  0  0  0  0  0  0  0  0
   -5.8234   -3.1969   23.6882 H   0  0  0  0  0  0  0  0  0  0  0  0
   -9.2185   -0.5678   22.2463 H   0  0  0  0  0  0  0  0  0  0  0  0
  -13.7766   -1.1228   20.8217 H   0  0  0  0  0  0  0  0  0  0  0  0
  -13.7070   -3.2271   22.5559 H   0  0  0  0  0  0  0  0  0  0  0  0
  -15.2114   -2.4767   22.2113 H   0  0  0  0  0  0  0  0  0  0  0  0
  -13.8158   -2.5007   24.7219 H   0  0  0  0  0  0  0  0  0  0  0  0
  -15.3017   -1.6994   24.4157 H   0  0  0  0  0  0  0  0  0  0  0  0
  -13.8669    0.2193   24.8182 H   0  0  0  0  0  0  0  0  0  0  0  0
  -11.8620   -1.1069   25.2528 H   0  0  0  0  0  0  0  0  0  0  0  0
  -11.5178    0.2551   24.1890 H   0  0  0  0  0  0  0  0  0  0  0  0
  -11.7338   -2.3489   21.3217 H   0  0  0  0  0  0  0  0  0  0  0  0
  -11.4533   -0.6140   21.4318 H   0  0  0  0  0  0  0  0  0  0  0  0
  -12.5424    0.9430   20.5106 H   0  0  0  0  0  0  0  0  0  0  0  0
  -14.7914    2.1492   23.8340 H   0  0  0  0  0  0  0  0  0  0  0  0
  -14.6371    4.3976   23.0439 H   0  0  0  0  0  0  0  0  0  0  0  0
  -11.0207    2.4057   18.1439 H   0  0  0  0  0  0  0  0  0  0  0  0
  -12.1865    1.3194   18.8607 H   0  0  0  0  0  0  0  0  0  0  0  0
  -10.8118    1.8635   19.7918 H   0  0  0  0  0  0  0  0  0  0  0  0
   -7.5904    0.4224   21.5694 H   0  0  0  0  0  0  0  0  0  0  0  0
   -5.6404    1.5292   20.6655 H   0  0  0  0  0  0  0  0  0  0  0  0
   -3.4228    0.6624   21.1233 H   0  0  0  0  0  0  0  0  0  0  0  0
   -3.1682   -1.3367   22.4726 H   0  0  0  0  0  0  0  0  0  0  0  0
  1  2  2  0
  2  3  1  0
  2 34  1  0
  3 26  1  0
  3  4  2  0
  4  5  1  0
  5  6  2  0
  6  7  1  0
  6  1  1  0
  7  8  1  0
  7  9  1  0
 10 11  1  0
 11 12  1  0
 11 35  1  6
 12 13  1  0
 12 36  1  0
 12 37  1  0
 13 14  1  0
 13 38  1  0
 13 39  1  0
 14 15  1  0
 14 10  1  0
 14 40  1  1
 15 16  1  0
 15 41  1  0
 15 42  1  0
 16  1  1  0
 16 17  1  0
 17 11  1  0
 17 43  1  0
 17 44  1  0
 18 19  2  0
 19 20  1  0
 19 45  1  0
 20 10  1  0
 20 21  2  0
 21 22  1  0
 21 46  1  0
 22 23  2  0
 22 47  1  0
 23 18  1  0
 24 25  1  0
 24 48  1  0
 24 49  1  0
 24 50  1  0
 25 18  1  0
 26 27  2  0
 27 28  1  0
 27 51  1  0
 28 29  2  0
 28 52  1  0
 29 30  1  0
 29 53  1  0
 30 31  2  0
 30 54  1  0
 31 32  1  0
 31 26  1  0
 32 33  1  0
M  END
>  <minimizedAffinity>  (2) 
-9.32500

>  <mol_id>  (2) 
20704

>  <source_index>  (2) 
1

>  <layer>  (2) 
L1

>  <uniprot>  (2) 
P51532

>  <paff>  (2) 
8.4815000000000005

>  <smiles>  (2) 
COc1cc(N2C3CCC2CN(c2cc(-c4ccccc4O)nnc2N)C3)ccn1

$$$$
L1:P51532:31548
     RDKit          3D

 37 39  0  0  0  0  0  0  0  0999 V2000
  -10.9212   -3.8900   25.0071 N   0  0  0  0  0  0  0  0  0  0  0  0
   -9.9549   -3.0799   24.4175 C   0  0  0  0  0  0  0  0  0  0  0  0
   -8.6698   -3.4711   24.5390 N   0  0  0  0  0  0  0  0  0  0  0  0
   -7.6708   -2.7495   23.9492 N   0  0  0  0  0  0  0  0  0  0  0  0
   -7.9564   -1.6328   23.2428 C   0  0  0  0  0  0  0  0  0  0  0  0
   -9.2741   -1.2045   23.1111 C   0  0  0  0  0  0  0  0  0  0  0  0
  -10.3177   -1.9101   23.7204 C   0  0  0  0  0  0  0  0  0  0  0  0
  -11.7873   -3.9532   24.4904 H   0  0  0  0  0  0  0  0  0  0  0  0
  -10.5500   -4.7226   25.4437 H   0  0  0  0  0  0  0  0  0  0  0  0
   -6.7998   -0.9494   22.6284 C   0  0  0  0  0  0  0  0  0  0  0  0
   -6.9687    0.2227   21.8618 C   0  0  0  0  0  0  0  0  0  0  0  0
   -5.8846    0.8662   21.2531 C   0  0  0  0  0  0  0  0  0  0  0  0
   -4.5993    0.3548   21.3970 C   0  0  0  0  0  0  0  0  0  0  0  0
   -4.3966   -0.7919   22.1579 C   0  0  0  0  0  0  0  0  0  0  0  0
   -5.4797   -1.4254   22.7706 C   0  0  0  0  0  0  0  0  0  0  0  0
   -5.1647   -2.5396   23.5069 O   0  0  0  0  0  0  0  0  0  0  0  0
   -5.9433   -2.7717   24.0540 H   0  0  0  0  0  0  0  0  0  0  0  0
  -11.6388   -1.4795   23.6189 N   0  0  0  0  0  0  0  0  0  0  0  0
  -12.2982   -0.9119   24.8045 C   0  0  0  0  0  0  0  0  0  0  0  0
  -13.7936   -1.3192   24.8337 C   0  0  0  0  0  0  0  0  0  0  0  0
  -14.4365   -1.5525   23.5181 N   0  0  0  0  0  0  0  0  0  0  0  0
  -13.7409   -0.7679   22.4808 C   0  0  0  0  0  0  0  0  0  0  0  0
  -12.2463   -1.1512   22.3209 C   0  0  0  0  0  0  0  0  0  0  0  0
  -14.2850   -2.5365   23.2883 H   0  0  0  0  0  0  0  0  0  0  0  0
   -9.4836   -0.3583   22.5587 H   0  0  0  0  0  0  0  0  0  0  0  0
   -7.9159    0.6159   21.7467 H   0  0  0  0  0  0  0  0  0  0  0  0
   -6.0394    1.7215   20.6967 H   0  0  0  0  0  0  0  0  0  0  0  0
   -3.8004    0.8234   20.9418 H   0  0  0  0  0  0  0  0  0  0  0  0
   -3.4448   -1.1748   22.2697 H   0  0  0  0  0  0  0  0  0  0  0  0
  -12.2233    0.1550   24.7734 H   0  0  0  0  0  0  0  0  0  0  0  0
  -11.8176   -1.2871   25.6838 H   0  0  0  0  0  0  0  0  0  0  0  0
  -14.3345   -0.5389   25.3271 H   0  0  0  0  0  0  0  0  0  0  0  0
  -13.8225   -2.2631   25.3369 H   0  0  0  0  0  0  0  0  0  0  0  0
  -13.7998    0.2681   22.7420 H   0  0  0  0  0  0  0  0  0  0  0  0
  -14.2232   -0.9767   21.5487 H   0  0  0  0  0  0  0  0  0  0  0  0
  -11.7192   -0.3270   21.8876 H   0  0  0  0  0  0  0  0  0  0  0  0
  -12.1836   -2.0133   21.6902 H   0  0  0  0  0  0  0  0  0  0  0  0
  1  2  1  0
  1  8  1  0
  1  9  1  0
  2  3  2  0
  3  4  1  0
  4  5  2  0
  5 10  1  0
  5  6  1  0
  6  7  2  0
  6 25  1  0
  7 18  1  0
  7  2  1  0
 10 11  2  0
 11 12  1  0
 11 26  1  0
 12 13  2  0
 12 27  1  0
 13 14  1  0
 13 28  1  0
 14 15  2  0
 14 29  1  0
 15 16  1  0
 15 10  1  0
 16 17  1  0
 18 19  1  0
 19 20  1  0
 19 30  1  0
 19 31  1  0
 20 21  1  0
 20 32  1  0
 20 33  1  0
 21 22  1  0
 21 24  1  0
 22 23  1  0
 22 34  1  0
 22 35  1  0
 23 18  1  0
 23 36  1  0
 23 37  1  0
M  END
>  <minimizedAffinity>  (3) 
-8.62895

>  <mol_id>  (3) 
31548

>  <source_index>  (3) 
2

>  <layer>  (3) 
L1

>  <uniprot>  (3) 
P51532

>  <paff>  (3) 
6.5934999999999997

>  <smiles>  (3) 
Nc1nnc(cc1N1CCNCC1)-c1ccccc1O

$$$$
L1:P51532:35235
     RDKit          3D

 61 65  0  0  0  0  0  0  0  0999 V2000
  -13.7622   -0.0255   22.4098 N   0  0  0  0  0  0  0  0  0  0  0  0
  -13.3231   -1.0854   21.4831 C   0  0  2  0  0  0  0  0  0  0  0  0
  -14.0685   -2.3161   22.0331 C   0  0  0  0  0  0  0  0  0  0  0  0
  -14.2934   -2.0113   23.5200 C   0  0  0  0  0  0  0  0  0  0  0  0
  -13.6378   -0.6368   23.7470 C   0  0  1  0  0  0  0  0  0  0  0  0
  -12.1238   -0.8011   24.0918 C   0  0  0  0  0  0  0  0  0  0  0  0
  -11.4022   -1.5678   23.0352 N   0  0  0  0  0  0  0  0  0  0  0  0
  -11.7792   -1.2614   21.6323 C   0  0  0  0  0  0  0  0  0  0  0  0
  -10.0815   -1.9244   23.3400 C   0  0  0  0  0  0  0  0  0  0  0  0
   -8.9933   -1.2606   22.7682 C   0  0  0  0  0  0  0  0  0  0  0  0
   -7.6943   -1.6234   23.1083 C   0  0  0  0  0  0  0  0  0  0  0  0
   -7.4592   -2.6102   23.9973 N   0  0  0  0  0  0  0  0  0  0  0  0
   -8.5074   -3.2825   24.5646 N   0  0  0  0  0  0  0  0  0  0  0  0
   -9.7781   -2.9680   24.2370 C   0  0  0  0  0  0  0  0  0  0  0  0
  -10.7932   -3.7140   24.8280 N   0  0  0  0  0  0  0  0  0  0  0  0
  -11.6047   -3.8590   24.2438 H   0  0  0  0  0  0  0  0  0  0  0  0
  -10.4664   -4.4647   25.4200 H   0  0  0  0  0  0  0  0  0  0  0  0
   -6.5137   -0.9620   22.5415 C   0  0  0  0  0  0  0  0  0  0  0  0
   -6.6719    0.2091   21.7768 C   0  0  0  0  0  0  0  0  0  0  0  0
   -5.5782    0.8340   21.1698 C   0  0  0  0  0  0  0  0  0  0  0  0
   -4.3012    0.2991   21.3163 C   0  0  0  0  0  0  0  0  0  0  0  0
   -4.1149   -0.8489   22.0824 C   0  0  0  0  0  0  0  0  0  0  0  0
   -5.2076   -1.4588   22.6994 C   0  0  0  0  0  0  0  0  0  0  0  0
   -4.9213   -2.5486   23.4800 O   0  0  0  0  0  0  0  0  0  0  0  0
   -5.5762   -2.5802   24.1997 H   0  0  0  0  0  0  0  0  0  0  0  0
  -12.8058    3.2790   21.0758 C   0  0  0  0  0  0  0  0  0  0  0  0
  -12.7902    1.9083   21.3088 C   0  0  0  0  0  0  0  0  0  0  0  0
  -13.7462    1.3222   22.1450 C   0  0  0  0  0  0  0  0  0  0  0  0
  -14.6656    2.2032   22.7230 C   0  0  0  0  0  0  0  0  0  0  0  0
  -14.6112    3.5617   22.4334 C   0  0  0  0  0  0  0  0  0  0  0  0
  -13.7057    4.1202   21.6116 N   0  0  0  0  0  0  0  0  0  0  0  0
  -11.8374    3.7585   20.2164 O   0  0  0  0  0  0  0  0  0  0  0  0
  -12.0118    3.3787   18.8490 C   0  0  0  0  0  0  0  0  0  0  0  0
  -10.7512    2.7370   18.2732 C   0  0  0  0  0  0  0  0  0  0  0  0
  -10.4854    4.4989   16.7323 C   0  0  0  0  0  0  0  0  0  0  0  0
   -9.8793    3.7585   17.7832 O   0  0  0  0  0  0  0  0  0  0  0  0
  -13.5217   -0.9006   20.4481 H   0  0  0  0  0  0  0  0  0  0  0  0
  -13.4753   -3.1988   21.9155 H   0  0  0  0  0  0  0  0  0  0  0  0
  -14.9879   -2.4941   21.5154 H   0  0  0  0  0  0  0  0  0  0  0  0
  -13.8279   -2.7559   24.1314 H   0  0  0  0  0  0  0  0  0  0  0  0
  -15.3318   -2.0095   23.7779 H   0  0  0  0  0  0  0  0  0  0  0  0
  -14.0784   -0.0772   24.5455 H   0  0  0  0  0  0  0  0  0  0  0  0
  -12.0337   -1.3220   25.0221 H   0  0  0  0  0  0  0  0  0  0  0  0
  -11.6868    0.1734   24.1568 H   0  0  0  0  0  0  0  0  0  0  0  0
  -11.4578   -2.0642   21.0021 H   0  0  0  0  0  0  0  0  0  0  0  0
  -11.3067   -0.3441   21.3492 H   0  0  0  0  0  0  0  0  0  0  0  0
   -9.1538   -0.4985   22.0911 H   0  0  0  0  0  0  0  0  0  0  0  0
   -7.6139    0.6146   21.6618 H   0  0  0  0  0  0  0  0  0  0  0  0
   -5.7176    1.6918   20.6132 H   0  0  0  0  0  0  0  0  0  0  0  0
   -3.4949    0.7521   20.8584 H   0  0  0  0  0  0  0  0  0  0  0  0
   -3.1697   -1.2480   22.1936 H   0  0  0  0  0  0  0  0  0  0  0  0
  -12.0693    1.3201   20.8623 H   0  0  0  0  0  0  0  0  0  0  0  0
  -15.3873    1.8434   23.3670 H   0  0  0  0  0  0  0  0  0  0  0  0
  -15.3089    4.1796   22.8766 H   0  0  0  0  0  0  0  0  0  0  0  0
  -12.8177    2.6778   18.7843 H   0  0  0  0  0  0  0  0  0  0  0  0
  -12.2236    4.2617   18.2831 H   0  0  0  0  0  0  0  0  0  0  0  0
  -10.2530    2.1794   19.0386 H   0  0  0  0  0  0  0  0  0  0  0  0
  -11.0186    2.0807   17.4715 H   0  0  0  0  0  0  0  0  0  0  0  0
   -9.8075    5.2527   16.3901 H   0  0  0  0  0  0  0  0  0  0  0  0
  -11.3808    4.9612   17.0921 H   0  0  0  0  0  0  0  0  0  0  0  0
  -10.7242    3.8402   15.9236 H   0  0  0  0  0  0  0  0  0  0  0  0
  1  2  1  0
  2  3  1  0
  2 37  1  6
  3  4  1  0
  3 38  1  0
  3 39  1  0
  4  5  1  0
  4 40  1  0
  4 41  1  0
  5  6  1  0
  5  1  1  0
  5 42  1  1
  6  7  1  0
  6 43  1  0
  6 44  1  0
  7  9  1  0
  7  8  1  0
  8  2  1  0
  8 45  1  0
  8 46  1  0
  9 10  2  0
 10 11  1  0
 10 47  1  0
 11 18  1  0
 11 12  2  0
 12 13  1  0
 13 14  2  0
 14 15  1  0
 14  9  1  0
 15 16  1  0
 15 17  1  0
 18 19  2  0
 19 20  1  0
 19 48  1  0
 20 21  2  0
 20 49  1  0
 21 22  1  0
 21 50  1  0
 22 23  2  0
 22 51  1  0
 23 24  1  0
 23 18  1  0
 24 25  1  0
 26 27  2  0
 27 28  1  0
 27 52  1  0
 28  1  1  0
 28 29  2  0
 29 30  1  0
 29 53  1  0
 30 31  2  0
 30 54  1  0
 31 26  1  0
 32 26  1  0
 33 32  1  0
 33 55  1  0
 33 56  1  0
 34 33  1  0
 34 57  1  0
 34 58  1  0
 35 36  1  0
 35 59  1  0
 35 60  1  0
 35 61  1  0
 36 34  1  0
M  END
>  <minimizedAffinity>  (4) 
-8.97341

>  <mol_id>  (4) 
35235

>  <source_index>  (4) 
3

>  <layer>  (4) 
L1

>  <uniprot>  (4) 
P51532

>  <paff>  (4) 
8.5527999999999995

>  <smiles>  (4) 
COCCOc1cc(N2C3CCC2CN(c2cc(-c4ccccc4O)nnc2N)C3)ccn1

$$$$
L1:P51532:35615
     RDKit          3D

 45 47  0  0  0  0  0  0  0  0999 V2000
  -11.0257    0.9164   20.6862 N   0  0  0  0  0  0  0  0  0  0  0  0
  -11.6927   -0.2857   20.6100 C   0  0  0  0  0  0  0  0  0  0  0  0
  -12.6545   -0.5606   19.8980 O   0  0  0  0  0  0  0  0  0  0  0  0
  -10.2603    1.0216   21.3497 H   0  0  0  0  0  0  0  0  0  0  0  0
  -11.6395    3.5115   18.3498 C   0  0  0  0  0  0  0  0  0  0  0  0
  -12.3496    4.1243   19.3671 C   0  0  0  0  0  0  0  0  0  0  0  0
  -12.3101    3.1536   20.7849 S   0  0  0  0  0  0  0  0  0  0  0  0
  -11.3697    2.0065   19.9446 C   0  0  0  0  0  0  0  0  0  0  0  0
  -11.0837    2.2886   18.7024 N   0  0  0  0  0  0  0  0  0  0  0  0
  -11.1884    5.0434   14.3642 C   0  0  0  0  0  0  0  0  0  0  0  0
  -10.3025    5.4422   15.3636 C   0  0  0  0  0  0  0  0  0  0  0  0
  -10.4382    4.9487   16.6703 C   0  0  0  0  0  0  0  0  0  0  0  0
  -11.4621    4.0495   17.0003 C   0  0  0  0  0  0  0  0  0  0  0  0
  -12.3439    3.6543   15.9846 C   0  0  0  0  0  0  0  0  0  0  0  0
  -12.2081    4.1471   14.6825 C   0  0  0  0  0  0  0  0  0  0  0  0
   -9.9163    5.3811   12.3850 C   0  0  0  0  0  0  0  0  0  0  0  0
  -11.1664    5.4480   13.0586 O   0  0  0  0  0  0  0  0  0  0  0  0
  -11.0776   -1.3492   21.5260 C   0  0  0  0  0  0  0  0  0  0  0  0
   -9.6261   -1.2592   21.5784 N   0  0  0  0  0  0  0  0  0  0  0  0
   -8.8965   -1.8993   22.5543 C   0  0  0  0  0  0  0  0  0  0  0  0
   -9.4205   -2.6725   23.3521 O   0  0  0  0  0  0  0  0  0  0  0  0
   -9.1607   -0.7643   20.8291 H   0  0  0  0  0  0  0  0  0  0  0  0
   -7.4259   -1.6747   22.5582 C   0  0  0  0  0  0  0  0  0  0  0  0
   -6.6034   -2.6647   23.1053 C   0  0  0  0  0  0  0  0  0  0  0  0
   -5.2156   -2.4929   23.1290 C   0  0  0  0  0  0  0  0  0  0  0  0
   -4.6301   -1.3377   22.6080 C   0  0  0  0  0  0  0  0  0  0  0  0
   -3.2616   -1.1571   22.6624 N   0  0  0  0  0  0  0  0  0  0  0  0
   -5.4589   -0.3387   22.0922 C   0  0  0  0  0  0  0  0  0  0  0  0
   -6.8490   -0.5008   22.0629 C   0  0  0  0  0  0  0  0  0  0  0  0
   -2.6592   -1.9039   22.9814 H   0  0  0  0  0  0  0  0  0  0  0  0
   -2.8308   -0.3514   22.2303 H   0  0  0  0  0  0  0  0  0  0  0  0
  -12.8329    5.0326   19.2862 H   0  0  0  0  0  0  0  0  0  0  0  0
   -9.5425    6.1041   15.1414 H   0  0  0  0  0  0  0  0  0  0  0  0
   -9.7741    5.2523   17.3996 H   0  0  0  0  0  0  0  0  0  0  0  0
  -13.1039    2.9904   16.2006 H   0  0  0  0  0  0  0  0  0  0  0  0
  -12.8692    3.8443   13.9501 H   0  0  0  0  0  0  0  0  0  0  0  0
  -10.0349    5.7233   11.3782 H   0  0  0  0  0  0  0  0  0  0  0  0
   -9.5680    4.3694   12.3792 H   0  0  0  0  0  0  0  0  0  0  0  0
   -9.2051    6.0003   12.8907 H   0  0  0  0  0  0  0  0  0  0  0  0
  -11.3495   -2.3174   21.1604 H   0  0  0  0  0  0  0  0  0  0  0  0
  -11.4520   -1.1861   22.5150 H   0  0  0  0  0  0  0  0  0  0  0  0
   -7.0219   -3.5248   23.4928 H   0  0  0  0  0  0  0  0  0  0  0  0
   -4.6175   -3.2287   23.5364 H   0  0  0  0  0  0  0  0  0  0  0  0
   -5.0405    0.5313   21.7275 H   0  0  0  0  0  0  0  0  0  0  0  0
   -7.4478    0.2454   21.6761 H   0  0  0  0  0  0  0  0  0  0  0  0
  1  2  1  0
  1  4  1  0
  2  3  2  0
  2 18  1  0
  5  6  2  0
  6  7  1  0
  6 32  1  0
  7  8  1  0
  8  1  1  0
  8  9  2  0
  9  5  1  0
 10 11  2  0
 11 12  1  0
 11 33  1  0
 12 13  2  0
 12 34  1  0
 13  5  1  0
 13 14  1  0
 14 15  2  0
 14 35  1  0
 15 10  1  0
 15 36  1  0
 16 17  1  0
 16 37  1  0
 16 38  1  0
 16 39  1  0
 17 10  1  0
 18 19  1  0
 18 40  1  0
 18 41  1  0
 19 20  1  0
 19 22  1  0
 20 21  2  0
 20 23  1  0
 23 24  2  0
 24 25  1  0
 24 42  1  0
 25 26  2  0
 25 43  1  0
 26 27  1  0
 26 28  1  0
 27 30  1  0
 27 31  1  0
 28 29  2  0
 28 44  1  0
 29 23  1  0
 29 45  1  0
M  END
>  <minimizedAffinity>  (5) 
-7.96209

>  <mol_id>  (5) 
35615

>  <source_index>  (5) 
4

>  <layer>  (5) 
L1

>  <uniprot>  (5) 
P51532

>  <paff>  (5) 
6.6904000000000003

>  <smiles>  (5) 
COc1ccc(-c2csc(NC(=O)CNC(=O)c3ccc(N)cc3)n2)cc1

$$$$
L1:P51532:57296
     RDKit          3D

 52 55  0  0  0  0  0  0  0  0999 V2000
  -11.9799    1.3034   21.4321 C   0  0  2  0  0  0  0  0  0  0  0  0
  -10.6540    0.7245   21.6635 N   0  0  0  0  0  0  0  0  0  0  0  0
  -10.5384   -0.3806   22.3212 C   0  0  0  0  0  0  0  0  0  0  0  0
  -11.6820   -1.1487   22.9150 C   0  0  0  0  0  0  0  0  0  0  0  0
  -11.5166   -1.6402   24.2212 C   0  0  0  0  0  0  0  0  0  0  0  0
  -12.4828   -2.4529   24.8170 C   0  0  0  0  0  0  0  0  0  0  0  0
  -13.6344   -2.7733   24.1044 C   0  0  0  0  0  0  0  0  0  0  0  0
  -13.8279   -2.2717   22.8117 C   0  0  0  0  0  0  0  0  0  0  0  0
  -12.8617   -1.4510   22.2102 C   0  0  0  0  0  0  0  0  0  0  0  0
  -13.1222   -0.8837   20.9371 N   0  0  0  0  0  0  0  0  0  0  0  0
  -13.8432   -1.3849   19.8640 C   0  0  0  0  0  0  0  0  0  0  0  0
  -14.3709   -2.7628   19.7256 C   0  0  0  0  0  0  0  0  0  0  0  0
  -13.9051   -0.4711   18.9158 N   0  0  0  0  0  0  0  0  0  0  0  0
  -13.2007    0.6220   19.3257 N   0  0  0  0  0  0  0  0  0  0  0  0
  -12.7386    0.3794   20.5352 C   0  0  0  0  0  0  0  0  0  0  0  0
   -9.1492   -0.9233   22.4822 C   0  0  0  0  0  0  0  0  0  0  0  0
   -8.0616   -0.0464   22.3702 C   0  0  0  0  0  0  0  0  0  0  0  0
   -6.7559   -0.5249   22.5043 C   0  0  0  0  0  0  0  0  0  0  0  0
   -6.5373   -1.8810   22.7396 C   0  0  0  0  0  0  0  0  0  0  0  0
   -4.9304   -2.4720   22.9056 Cl  0  0  0  0  0  0  0  0  0  0  0  0
   -7.6123   -2.7642   22.8358 C   0  0  0  0  0  0  0  0  0  0  0  0
   -8.9200   -2.2883   22.7017 C   0  0  0  0  0  0  0  0  0  0  0  0
  -12.1786   -2.8645   26.0834 O   0  0  0  0  0  0  0  0  0  0  0  0
  -13.2611   -3.0178   26.9937 C   0  0  0  0  0  0  0  0  0  0  0  0
  -11.7823    2.6875   20.8111 C   0  0  0  0  0  0  0  0  0  0  0  0
  -11.6885    4.9692   21.6393 N   0  0  0  0  0  0  0  0  0  0  0  0
  -12.3281    3.7572   21.7299 C   0  0  0  0  0  0  0  0  0  0  0  0
  -13.2864    3.5491   22.4691 O   0  0  0  0  0  0  0  0  0  0  0  0
  -10.9949    5.0990   20.9026 H   0  0  0  0  0  0  0  0  0  0  0  0
  -13.2271    6.8678   21.7715 C   0  0  0  0  0  0  0  0  0  0  0  0
  -12.0782    6.1191   22.4225 C   0  0  0  0  0  0  0  0  0  0  0  0
  -12.5409    1.4191   22.3358 H   0  0  0  0  0  0  0  0  0  0  0  0
  -10.6647   -1.3957   24.7500 H   0  0  0  0  0  0  0  0  0  0  0  0
  -14.3491   -3.3835   24.5308 H   0  0  0  0  0  0  0  0  0  0  0  0
  -14.6900   -2.5080   22.2959 H   0  0  0  0  0  0  0  0  0  0  0  0
  -14.1975   -3.3039   20.6323 H   0  0  0  0  0  0  0  0  0  0  0  0
  -13.8743   -3.2553   18.9158 H   0  0  0  0  0  0  0  0  0  0  0  0
  -15.4219   -2.7241   19.5288 H   0  0  0  0  0  0  0  0  0  0  0  0
   -8.2258    0.9560   22.1881 H   0  0  0  0  0  0  0  0  0  0  0  0
   -5.9564    0.1233   22.4294 H   0  0  0  0  0  0  0  0  0  0  0  0
   -7.4427   -3.7679   23.0058 H   0  0  0  0  0  0  0  0  0  0  0  0
   -9.7162   -2.9419   22.7643 H   0  0  0  0  0  0  0  0  0  0  0  0
  -12.8864   -3.3421   27.9420 H   0  0  0  0  0  0  0  0  0  0  0  0
  -13.9467   -3.7458   26.6132 H   0  0  0  0  0  0  0  0  0  0  0  0
  -13.7643   -2.0808   27.1105 H   0  0  0  0  0  0  0  0  0  0  0  0
  -10.7379    2.8575   20.6526 H   0  0  0  0  0  0  0  0  0  0  0  0
  -12.3058    2.7289   19.8788 H   0  0  0  0  0  0  0  0  0  0  0  0
  -13.4906    7.7112   22.3749 H   0  0  0  0  0  0  0  0  0  0  0  0
  -14.0712    6.2166   21.6806 H   0  0  0  0  0  0  0  0  0  0  0  0
  -12.9293    7.2033   20.8001 H   0  0  0  0  0  0  0  0  0  0  0  0
  -12.3823    5.7915   23.3947 H   0  0  0  0  0  0  0  0  0  0  0  0
  -11.2400    6.7807   22.4903 H   0  0  0  0  0  0  0  0  0  0  0  0
  1  2  1  0
  1 32  1  1
  2  3  2  0
  3 16  1  0
  3  4  1  0
  4  5  2  0
  5  6  1  0
  5 33  1  0
  6 23  1  0
  6  7  2  0
  7  8  1  0
  7 34  1  0
  8  9  2  0
  8 35  1  0
  9 10  1  0
  9  4  1  0
 10 11  1  0
 11 12  1  0
 11 13  2  0
 12 36  1  0
 12 37  1  0
 12 38  1  0
 13 14  1  0
 14 15  2  0
 15  1  1  0
 15 10  1  0
 16 17  2  0
 17 18  1  0
 17 39  1  0
 18 19  2  0
 18 40  1  0
 19 20  1  0
 19 21  1  0
 21 22  2  0
 21 41  1  0
 22 16  1  0
 22 42  1  0
 23 24  1  0
 24 43  1  0
 24 44  1  0
 24 45  1  0
 25  1  1  0
 25 46  1  0
 25 47  1  0
 26 27  1  0
 26 29  1  0
 27 28  2  0
 27 25  1  0
 30 31  1  0
 30 48  1  0
 30 49  1  0
 30 50  1  0
 31 26  1  0
 31 51  1  0
 31 52  1  0
M  END
>  <minimizedAffinity>  (6) 
-7.37202

>  <mol_id>  (6) 
57296

>  <source_index>  (6) 
5

>  <layer>  (6) 
L1

>  <uniprot>  (6) 
P51532

>  <paff>  (6) 
7.5228999999999999

>  <smiles>  (6) 
CCNC(=O)C[C@@H]1N=C(c2ccc(Cl)cc2)c2cc(OC)ccc2-n2c(C)nnc21

$$$$
L1:P51532:78268
     RDKit          3D

 33 35  0  0  0  0  0  0  0  0999 V2000
  -10.2459   -1.7314   23.9120 C   0  0  0  0  0  0  0  0  0  0  0  0
   -9.1981   -1.0204   23.3115 C   0  0  0  0  0  0  0  0  0  0  0  0
   -7.9445   -1.6023   23.1915 C   0  0  0  0  0  0  0  0  0  0  0  0
   -7.7356   -2.8482   23.6720 N   0  0  0  0  0  0  0  0  0  0  0  0
   -8.7593   -3.5559   24.2639 N   0  0  0  0  0  0  0  0  0  0  0  0
   -9.9851   -3.0143   24.3981 C   0  0  0  0  0  0  0  0  0  0  0  0
  -10.9497   -3.8063   25.0031 N   0  0  0  0  0  0  0  0  0  0  0  0
  -11.6148   -3.3488   25.6113 H   0  0  0  0  0  0  0  0  0  0  0  0
  -10.6028   -4.7129   25.2908 H   0  0  0  0  0  0  0  0  0  0  0  0
   -6.7735   -0.9324   22.5943 C   0  0  0  0  0  0  0  0  0  0  0  0
   -6.9557    0.2523   21.8506 C   0  0  0  0  0  0  0  0  0  0  0  0
   -5.8808    0.9245   21.2614 C   0  0  0  0  0  0  0  0  0  0  0  0
   -4.5896    0.4291   21.4053 C   0  0  0  0  0  0  0  0  0  0  0  0
   -4.3725   -0.7327   22.1421 C   0  0  0  0  0  0  0  0  0  0  0  0
   -5.4530   -1.4002   22.7309 C   0  0  0  0  0  0  0  0  0  0  0  0
   -5.1997   -2.5250   23.4724 O   0  0  0  0  0  0  0  0  0  0  0  0
   -4.2404   -2.6090   23.6017 H   0  0  0  0  0  0  0  0  0  0  0  0
  -14.5165    0.4989   22.7197 C   0  0  0  0  0  0  0  0  0  0  0  0
  -13.4416   -0.1319   23.4461 N   0  0  0  0  0  0  0  0  0  0  0  0
  -12.2725   -0.6133   22.9314 C   0  0  0  0  0  0  0  0  0  0  0  0
  -11.5622   -1.1215   24.0001 C   0  0  0  0  0  0  0  0  0  0  0  0
  -12.4057   -0.8991   25.1122 C   0  0  0  0  0  0  0  0  0  0  0  0
  -13.5440   -0.2847   24.7783 N   0  0  0  0  0  0  0  0  0  0  0  0
   -9.3591   -0.0641   22.9586 H   0  0  0  0  0  0  0  0  0  0  0  0
   -7.9083    0.6331   21.7384 H   0  0  0  0  0  0  0  0  0  0  0  0
   -6.0455    1.7876   20.7202 H   0  0  0  0  0  0  0  0  0  0  0  0
   -3.7947    0.9207   20.9676 H   0  0  0  0  0  0  0  0  0  0  0  0
   -3.4151   -1.1015   22.2540 H   0  0  0  0  0  0  0  0  0  0  0  0
  -14.2695    0.5374   21.6793 H   0  0  0  0  0  0  0  0  0  0  0  0
  -14.6614    1.4927   23.0888 H   0  0  0  0  0  0  0  0  0  0  0  0
  -15.4159   -0.0655   22.8521 H   0  0  0  0  0  0  0  0  0  0  0  0
  -11.9788   -0.5999   21.9422 H   0  0  0  0  0  0  0  0  0  0  0  0
  -12.1683   -1.1805   26.0763 H   0  0  0  0  0  0  0  0  0  0  0  0
  1  2  2  0
  2  3  1  0
  2 24  1  0
  3 10  1  0
  3  4  2  0
  4  5  1  0
  5  6  2  0
  6  7  1  0
  6  1  1  0
  7  8  1  0
  7  9  1  0
 10 11  2  0
 11 12  1  0
 11 25  1  0
 12 13  2  0
 12 26  1  0
 13 14  1  0
 13 27  1  0
 14 15  2  0
 14 28  1  0
 15 16  1  0
 15 10  1  0
 16 17  1  0
 18 19  1  0
 18 29  1  0
 18 30  1  0
 18 31  1  0
 19 20  1  0
 20 21  2  0
 20 32  1  0
 21  1  1  0
 21 22  1  0
 22 23  2  0
 22 33  1  0
 23 19  1  0
M  END
>  <minimizedAffinity>  (7) 
-8.97989

>  <mol_id>  (7) 
78268

>  <source_index>  (7) 
6

>  <layer>  (7) 
L1

>  <uniprot>  (7) 
P51532

>  <paff>  (7) 
7.8928000000000003

>  <smiles>  (7) 
Cn1cc(-c2cc(-c3ccccc3O)nnc2N)cn1

$$$$
L1:P51532:93381
     RDKit          3D

 51 53  0  0  0  0  0  0  0  0999 V2000
  -10.7558   -0.4210   21.9174 C   0  0  2  0  0  0  0  0  0  0  0  0
   -9.3144   -0.3939   22.1000 N   0  0  0  0  0  0  0  0  0  0  0  0
   -8.5266   -1.4917   21.8465 C   0  0  0  0  0  0  0  0  0  0  0  0
   -8.9790   -2.5384   21.3930 O   0  0  0  0  0  0  0  0  0  0  0  0
   -8.9157    0.4840   22.4156 H   0  0  0  0  0  0  0  0  0  0  0  0
   -7.0672   -1.3526   22.1113 C   0  0  0  0  0  0  0  0  0  0  0  0
   -6.3327   -0.2303   21.7153 C   0  0  0  0  0  0  0  0  0  0  0  0
   -4.9625   -0.1548   21.9938 C   0  0  0  0  0  0  0  0  0  0  0  0
   -4.3072   -1.1906   22.6631 C   0  0  0  0  0  0  0  0  0  0  0  0
   -2.9609   -1.0957   22.9597 N   0  0  0  0  0  0  0  0  0  0  0  0
   -5.0513   -2.2947   23.0818 C   0  0  0  0  0  0  0  0  0  0  0  0
   -6.4207   -2.3788   22.8092 C   0  0  0  0  0  0  0  0  0  0  0  0
   -2.4114   -0.3245   22.6072 H   0  0  0  0  0  0  0  0  0  0  0  0
   -2.4773   -1.8693   23.3945 H   0  0  0  0  0  0  0  0  0  0  0  0
  -11.2018    0.8479   21.1607 C   0  0  0  0  0  0  0  0  0  0  0  0
  -11.1046    1.9568   21.6819 O   0  0  0  0  0  0  0  0  0  0  0  0
  -11.7362    0.5580   19.9239 N   0  0  0  0  0  0  0  0  0  0  0  0
  -11.7299   -0.3930   19.5805 H   0  0  0  0  0  0  0  0  0  0  0  0
  -12.2797    1.4392   19.0266 C   0  0  0  0  0  0  0  0  0  0  0  0
  -11.5071    2.1679   18.2577 N   0  0  0  0  0  0  0  0  0  0  0  0
  -12.2801    2.9863   17.4414 C   0  0  0  0  0  0  0  0  0  0  0  0
  -13.6431    2.8271   17.6073 C   0  0  0  0  0  0  0  0  0  0  0  0
  -13.9527    1.6515   18.8165 S   0  0  0  0  0  0  0  0  0  0  0  0
  -11.6572    3.9048   16.4895 C   0  0  0  0  0  0  0  0  0  0  0  0
  -10.8004    4.9103   16.9637 C   0  0  0  0  0  0  0  0  0  0  0  0
  -10.1867    5.8057   16.0835 C   0  0  0  0  0  0  0  0  0  0  0  0
  -10.4249    5.7100   14.7152 C   0  0  0  0  0  0  0  0  0  0  0  0
  -11.2781    4.7230   14.2277 C   0  0  0  0  0  0  0  0  0  0  0  0
  -11.8921    3.8263   15.1085 C   0  0  0  0  0  0  0  0  0  0  0  0
  -11.5239   -0.5950   23.2407 C   0  0  0  0  0  0  0  0  0  0  0  0
  -12.2354   -1.9374   23.4551 C   0  0  0  0  0  0  0  0  0  0  0  0
  -10.1103   -3.1698   24.6942 C   0  0  0  0  0  0  0  0  0  0  0  0
  -11.8332   -2.7397   25.0382 S   0  0  0  0  0  0  0  0  0  0  0  0
  -10.9975   -1.2831   21.3315 H   0  0  0  0  0  0  0  0  0  0  0  0
   -6.8010    0.5429   21.2174 H   0  0  0  0  0  0  0  0  0  0  0  0
   -4.4291    0.6784   21.7002 H   0  0  0  0  0  0  0  0  0  0  0  0
   -4.5860   -3.0575   23.5982 H   0  0  0  0  0  0  0  0  0  0  0  0
   -6.9571   -3.2021   23.1245 H   0  0  0  0  0  0  0  0  0  0  0  0
  -14.3675    3.3401   17.0810 H   0  0  0  0  0  0  0  0  0  0  0  0
  -10.6210    4.9896   17.9769 H   0  0  0  0  0  0  0  0  0  0  0  0
   -9.5570    6.5377   16.4478 H   0  0  0  0  0  0  0  0  0  0  0  0
   -9.9704    6.3688   14.0637 H   0  0  0  0  0  0  0  0  0  0  0  0
  -11.4578    4.6530   13.2139 H   0  0  0  0  0  0  0  0  0  0  0  0
  -12.5245    3.0994   14.7386 H   0  0  0  0  0  0  0  0  0  0  0  0
  -10.8244   -0.4678   24.0403 H   0  0  0  0  0  0  0  0  0  0  0  0
  -12.3057    0.1349   23.2092 H   0  0  0  0  0  0  0  0  0  0  0  0
  -13.2914   -1.7682   23.4217 H   0  0  0  0  0  0  0  0  0  0  0  0
  -11.9002   -2.5942   22.6798 H   0  0  0  0  0  0  0  0  0  0  0  0
   -9.6908   -3.6681   25.5431 H   0  0  0  0  0  0  0  0  0  0  0  0
   -9.5536   -2.2785   24.4926 H   0  0  0  0  0  0  0  0  0  0  0  0
  -10.0673   -3.8172   23.8434 H   0  0  0  0  0  0  0  0  0  0  0  0
  1  2  1  0
  1 15  1  0
  1 34  1  6
  2  3  1  0
  2  5  1  0
  3  4  2  0
  3  6  1  0
  6  7  2  0
  7  8  1  0
  7 35  1  0
  8  9  2  0
  8 36  1  0
  9 10  1  0
  9 11  1  0
 10 13  1  0
 10 14  1  0
 11 12  2  0
 11 37  1  0
 12  6  1  0
 12 38  1  0
 15 16  2  0
 15 17  1  0
 17 19  1  0
 17 18  1  0
 19 20  2  0
 20 21  1  0
 21 24  1  0
 21 22  2  0
 22 23  1  0
 22 39  1  0
 23 19  1  0
 24 25  2  0
 25 26  1  0
 25 40  1  0
 26 27  2  0
 26 41  1  0
 27 28  1  0
 27 42  1  0
 28 29  2  0
 28 43  1  0
 29 24  1  0
 29 44  1  0
 30  1  1  0
 30 45  1  0
 30 46  1  0
 31 30  1  0
 31 47  1  0
 31 48  1  0
 32 33  1  0
 32 49  1  0
 32 50  1  0
 32 51  1  0
 33 31  1  0
M  END
>  <minimizedAffinity>  (8) 
-7.76801

>  <mol_id>  (8) 
93381

>  <source_index>  (8) 
7

>  <layer>  (8) 
L1

>  <uniprot>  (8) 
P51532

>  <paff>  (8) 
6.2789999999999999

>  <smiles>  (8) 
CSCC[C@H](NC(=O)c1ccc(N)cc1)C(=O)Nc1nc(-c2ccccc2)cs1

$$$$
L1:P51532:130236
     RDKit          3D

 45 47  0  0  0  0  0  0  0  0999 V2000
  -11.1744    1.0138   20.9679 N   0  0  0  0  0  0  0  0  0  0  0  0
  -11.6557   -0.2590   20.7570 C   0  0  0  0  0  0  0  0  0  0  0  0
  -12.4865   -0.6155   19.9258 O   0  0  0  0  0  0  0  0  0  0  0  0
  -10.5279    1.1659   21.7422 H   0  0  0  0  0  0  0  0  0  0  0  0
  -11.7243    3.4928   18.5314 C   0  0  0  0  0  0  0  0  0  0  0  0
  -12.2195    4.3243   19.5177 C   0  0  0  0  0  0  0  0  0  0  0  0
  -12.1809    3.5225   21.0326 S   0  0  0  0  0  0  0  0  0  0  0  0
  -11.5002    2.1540   20.2844 C   0  0  0  0  0  0  0  0  0  0  0  0
  -11.3059    2.2505   18.9907 N   0  0  0  0  0  0  0  0  0  0  0  0
  -12.3113    3.6663   14.7917 C   0  0  0  0  0  0  0  0  0  0  0  0
  -11.3213    4.5806   14.4266 C   0  0  0  0  0  0  0  0  0  0  0  0
  -10.4713    5.1245   15.3866 C   0  0  0  0  0  0  0  0  0  0  0  0
  -10.6130    4.7578   16.7245 C   0  0  0  0  0  0  0  0  0  0  0  0
  -11.6066    3.8490   17.1180 C   0  0  0  0  0  0  0  0  0  0  0  0
  -12.4505    3.3018   16.1349 C   0  0  0  0  0  0  0  0  0  0  0  0
  -12.4835    3.2459   12.4547 C   0  0  0  0  0  0  0  0  0  0  0  0
  -13.0690    3.2051   13.7496 O   0  0  0  0  0  0  0  0  0  0  0  0
  -11.0272   -1.2857   21.7061 C   0  0  0  0  0  0  0  0  0  0  0  0
   -9.5792   -1.1670   21.7415 N   0  0  0  0  0  0  0  0  0  0  0  0
   -8.8240   -1.9133   22.6180 C   0  0  0  0  0  0  0  0  0  0  0  0
   -9.3283   -2.7719   23.3359 O   0  0  0  0  0  0  0  0  0  0  0  0
   -9.1347   -0.5820   21.0466 H   0  0  0  0  0  0  0  0  0  0  0  0
   -7.3543   -1.6862   22.6100 C   0  0  0  0  0  0  0  0  0  0  0  0
   -6.5277   -2.6662   23.1685 C   0  0  0  0  0  0  0  0  0  0  0  0
   -5.1402   -2.4925   23.1810 C   0  0  0  0  0  0  0  0  0  0  0  0
   -4.5593   -1.3446   22.6385 C   0  0  0  0  0  0  0  0  0  0  0  0
   -3.1906   -1.1629   22.6795 N   0  0  0  0  0  0  0  0  0  0  0  0
   -5.3923   -0.3558   22.1099 C   0  0  0  0  0  0  0  0  0  0  0  0
   -6.7824   -0.5201   22.0913 C   0  0  0  0  0  0  0  0  0  0  0  0
   -2.7630   -0.3612   22.2371 H   0  0  0  0  0  0  0  0  0  0  0  0
   -2.5862   -1.9014   23.0133 H   0  0  0  0  0  0  0  0  0  0  0  0
  -12.5619    5.2858   19.3650 H   0  0  0  0  0  0  0  0  0  0  0  0
  -11.2185    4.8557   13.4373 H   0  0  0  0  0  0  0  0  0  0  0  0
   -9.7391    5.7966   15.1087 H   0  0  0  0  0  0  0  0  0  0  0  0
   -9.9796    5.1596   17.4333 H   0  0  0  0  0  0  0  0  0  0  0  0
  -13.1799    2.6244   16.4073 H   0  0  0  0  0  0  0  0  0  0  0  0
  -13.1770    2.8593   11.7374 H   0  0  0  0  0  0  0  0  0  0  0  0
  -11.5937    2.6517   12.4467 H   0  0  0  0  0  0  0  0  0  0  0  0
  -12.2392    4.2574   12.2054 H   0  0  0  0  0  0  0  0  0  0  0  0
  -11.2868   -2.2693   21.3744 H   0  0  0  0  0  0  0  0  0  0  0  0
  -11.4017   -1.1029   22.6916 H   0  0  0  0  0  0  0  0  0  0  0  0
   -6.9429   -3.5202   23.5727 H   0  0  0  0  0  0  0  0  0  0  0  0
   -4.5387   -3.2212   23.5960 H   0  0  0  0  0  0  0  0  0  0  0  0
   -4.9771    0.5082   21.7276 H   0  0  0  0  0  0  0  0  0  0  0  0
   -7.3846    0.2185   21.6952 H   0  0  0  0  0  0  0  0  0  0  0  0
  1  2  1  0
  1  4  1  0
  2  3  2  0
  2 18  1  0
  5  6  2  0
  6  7  1  0
  6 32  1  0
  7  8  1  0
  8  1  1  0
  8  9  2  0
  9  5  1  0
 10 11  2  0
 11 12  1  0
 11 33  1  0
 12 13  2  0
 12 34  1  0
 13 14  1  0
 13 35  1  0
 14  5  1  0
 14 15  2  0
 15 10  1  0
 15 36  1  0
 16 17  1  0
 16 37  1  0
 16 38  1  0
 16 39  1  0
 17 10  1  0
 18 19  1  0
 18 40  1  0
 18 41  1  0
 19 20  1  0
 19 22  1  0
 20 21  2  0
 20 23  1  0
 23 24  2  0
 24 25  1  0
 24 42  1  0
 25 26  2  0
 25 43  1  0
 26 27  1  0
 26 28  1  0
 27 30  1  0
 27 31  1  0
 28 29  2  0
 28 44  1  0
 29 23  1  0
 29 45  1  0
M  END
>  <minimizedAffinity>  (9) 
-7.87823

>  <mol_id>  (9) 
130236

>  <source_index>  (9) 
8

>  <layer>  (9) 
L1

>  <uniprot>  (9) 
P51532

>  <paff>  (9) 
6.4908000000000001

>  <smiles>  (9) 
COc1cccc(-c2csc(NC(=O)CNC(=O)c3ccc(N)cc3)n2)c1

$$$$
L1:P51532:143316
     RDKit          3D

 42 44  0  0  0  0  0  0  0  0999 V2000
  -11.0628    0.9646   20.6544 N   0  0  0  0  0  0  0  0  0  0  0  0
  -11.7022   -0.2492   20.5375 C   0  0  0  0  0  0  0  0  0  0  0  0
  -12.6131   -0.5382   19.7663 O   0  0  0  0  0  0  0  0  0  0  0  0
  -10.3262    1.0764   21.3488 H   0  0  0  0  0  0  0  0  0  0  0  0
  -11.6555    3.5432   18.2952 C   0  0  0  0  0  0  0  0  0  0  0  0
  -12.3242    4.1915   19.3186 C   0  0  0  0  0  0  0  0  0  0  0  0
  -12.2877    3.2361   20.7474 S   0  0  0  0  0  0  0  0  0  0  0  0
  -11.3934    2.0539   19.9061 C   0  0  0  0  0  0  0  0  0  0  0  0
  -11.1241    2.3124   18.6548 N   0  0  0  0  0  0  0  0  0  0  0  0
  -12.0375    4.1148   14.5615 C   0  0  0  0  0  0  0  0  0  0  0  0
  -11.0751    5.1054   14.3494 C   0  0  0  0  0  0  0  0  0  0  0  0
  -10.3155    5.5727   15.4188 C   0  0  0  0  0  0  0  0  0  0  0  0
  -10.5189    5.0507   16.6986 C   0  0  0  0  0  0  0  0  0  0  0  0
  -11.4828    4.0560   16.9350 C   0  0  0  0  0  0  0  0  0  0  0  0
  -12.2395    3.5928   15.8485 C   0  0  0  0  0  0  0  0  0  0  0  0
  -13.4604    3.2397   12.5766 N   0  0  0  0  0  0  0  0  0  0  0  0
  -12.8201    3.6290   13.4628 C   0  0  0  0  0  0  0  0  0  0  0  0
  -11.1167   -1.3089   21.4776 C   0  0  0  0  0  0  0  0  0  0  0  0
   -9.6631   -1.2603   21.5366 N   0  0  0  0  0  0  0  0  0  0  0  0
   -8.9596   -1.8411   22.5671 C   0  0  0  0  0  0  0  0  0  0  0  0
   -9.5112   -2.5376   23.4153 O   0  0  0  0  0  0  0  0  0  0  0  0
   -9.1774   -0.8335   20.7590 H   0  0  0  0  0  0  0  0  0  0  0  0
   -7.4837   -1.6545   22.5706 C   0  0  0  0  0  0  0  0  0  0  0  0
   -6.8773   -0.4921   22.0833 C   0  0  0  0  0  0  0  0  0  0  0  0
   -5.4834   -0.3662   22.1116 C   0  0  0  0  0  0  0  0  0  0  0  0
   -4.6800   -1.3898   22.6194 C   0  0  0  0  0  0  0  0  0  0  0  0
   -3.3072   -1.2461   22.6709 N   0  0  0  0  0  0  0  0  0  0  0  0
   -5.2944   -2.5340   23.1314 C   0  0  0  0  0  0  0  0  0  0  0  0
   -6.6862   -2.6696   23.1088 C   0  0  0  0  0  0  0  0  0  0  0  0
   -2.7238   -2.0082   22.9885 H   0  0  0  0  0  0  0  0  0  0  0  0
   -2.8560   -0.4459   22.2496 H   0  0  0  0  0  0  0  0  0  0  0  0
  -12.7787    5.1143   19.2361 H   0  0  0  0  0  0  0  0  0  0  0  0
  -10.9277    5.4896   13.4030 H   0  0  0  0  0  0  0  0  0  0  0  0
   -9.6032    6.3037   15.2662 H   0  0  0  0  0  0  0  0  0  0  0  0
   -9.9506    5.4022   17.4851 H   0  0  0  0  0  0  0  0  0  0  0  0
  -12.9518    2.8609   15.9970 H   0  0  0  0  0  0  0  0  0  0  0  0
  -11.4138   -2.2767   21.1311 H   0  0  0  0  0  0  0  0  0  0  0  0
  -11.4886   -1.1117   22.4613 H   0  0  0  0  0  0  0  0  0  0  0  0
   -7.4571    0.2723   21.7031 H   0  0  0  0  0  0  0  0  0  0  0  0
   -5.0431    0.4952   21.7522 H   0  0  0  0  0  0  0  0  0  0  0  0
   -4.7149   -3.2885   23.5312 H   0  0  0  0  0  0  0  0  0  0  0  0
   -7.1262   -3.5215   23.4905 H   0  0  0  0  0  0  0  0  0  0  0  0
  1  2  1  0
  1  4  1  0
  2  3  2  0
  2 18  1  0
  5  6  2  0
  6  7  1  0
  6 32  1  0
  7  8  1  0
  8  1  1  0
  8  9  2  0
  9  5  1  0
 10 11  2  0
 11 12  1  0
 11 33  1  0
 12 13  2  0
 12 34  1  0
 13 14  1  0
 13 35  1  0
 14  5  1  0
 14 15  2  0
 15 10  1  0
 15 36  1  0
 16 17  3  0
 17 10  1  0
 18 19  1  0
 18 37  1  0
 18 38  1  0
 19 20  1  0
 19 22  1  0
 20 21  2  0
 20 23  1  0
 23 24  2  0
 24 25  1  0
 24 39  1  0
 25 26  2  0
 25 40  1  0
 26 27  1  0
 26 28  1  0
 27 30  1  0
 27 31  1  0
 28 29  2  0
 28 41  1  0
 29 23  1  0
 29 42  1  0
M  END
>  <minimizedAffinity>  (10) 
-7.97893

>  <mol_id>  (10) 
143316

>  <source_index>  (10) 
9

>  <layer>  (10) 
L1

>  <uniprot>  (10) 
P51532

>  <paff>  (10) 
6.4814999999999996

>  <smiles>  (10) 
N#Cc1cccc(-c2csc(NC(=O)CNC(=O)c3ccc(N)cc3)n2)c1

$$$$
