L2:O75460:4142
     RDKit          3D

 81 85  0  0  0  0  0  0  0  0999 V2000
   17.1250   35.0054   22.4759 N   0  0  0  0  0  0  0  0  0  0  0  0
   16.2497   35.4780   21.5120 C   0  0  0  0  0  0  0  0  0  0  0  0
   16.5165   35.4951   20.3023 O   0  0  0  0  0  0  0  0  0  0  0  0
   14.9675   36.0111   21.9727 C   0  0  0  0  0  0  0  0  0  0  0  0
   14.7781   36.3434   23.2166 N   0  0  0  0  0  0  0  0  0  0  0  0
   15.6278   35.8304   24.1389 C   0  0  0  0  0  0  0  0  0  0  0  0
   15.3447   35.9655   25.5076 C   0  0  0  0  0  0  0  0  0  0  0  0
   16.1753   35.6031   26.4461 N   0  0  0  0  0  0  0  0  0  0  0  0
   17.3245   34.9788   26.0336 C   0  0  0  0  0  0  0  0  0  0  0  0
   17.6331   34.6675   24.7570 N   0  0  0  0  0  0  0  0  0  0  0  0
   16.8214   35.1474   23.8195 C   0  0  0  0  0  0  0  0  0  0  0  0
   13.8943   36.2190   21.0052 C   0  0  0  0  0  0  0  0  0  0  0  0
   13.1032   37.3660   21.0863 C   0  0  0  0  0  0  0  0  0  0  0  0
   12.2294   37.6764   20.0576 C   0  0  0  0  0  0  0  0  0  0  0  0
   11.9258   36.7461   19.0651 C   0  0  0  0  0  0  0  0  0  0  0  0
   12.5372   35.4945   19.1631 C   0  0  0  0  0  0  0  0  0  0  0  0
   12.0144   34.4494   18.4683 F   0  0  0  0  0  0  0  0  0  0  0  0
   13.6055   35.2765   20.0123 C   0  0  0  0  0  0  0  0  0  0  0  0
   10.9417   37.0949   18.1059 N   0  0  0  0  0  0  0  0  0  0  0  0
    9.9993   36.8173   18.3344 H   0  0  0  0  0  0  0  0  0  0  0  0
   11.1296   36.8295   16.4341 S   0  0  0  0  0  0  0  0  0  0  0  0
    9.7542   36.6597   15.9442 O   0  0  0  0  0  0  0  0  0  0  0  0
   12.1879   35.8387   16.2266 O   0  0  0  0  0  0  0  0  0  0  0  0
   11.8192   38.3723   15.7898 C   0  0  0  0  0  0  0  0  0  0  0  0
   13.2963   38.4425   16.0499 C   0  0  0  0  0  0  0  0  0  0  0  0
   13.9781   39.7686   15.6464 C   0  0  0  0  0  0  0  0  0  0  0  0
   15.0770   38.9347   14.9800 C   0  0  0  0  0  0  0  0  0  0  0  0
   15.4777   39.3311   13.7450 F   0  0  0  0  0  0  0  0  0  0  0  0
   16.2397   38.8769   15.7456 F   0  0  0  0  0  0  0  0  0  0  0  0
   14.2400   37.6738   15.0878 C   0  0  0  0  0  0  0  0  0  0  0  0
   17.9709   32.8581   21.6670 C   0  0  0  0  0  0  0  0  0  0  0  0
   18.3575   34.2639   22.0586 C   0  0  0  0  0  0  0  0  0  0  0  0
   19.1312   34.9762   20.9651 C   0  0  0  0  0  0  0  0  0  0  0  0
   18.1730   34.7005   27.0265 N   0  0  0  0  0  0  0  0  0  0  0  0
   18.0465   35.2660   27.8522 H   0  0  0  0  0  0  0  0  0  0  0  0
   18.9144   33.4453   27.2153 C   0  0  1  0  0  0  0  0  0  0  0  0
   20.2941   33.7281   27.7783 C   0  0  0  0  0  0  0  0  0  0  0  0
   20.2764   34.2650   29.2014 C   0  0  0  0  0  0  0  0  0  0  0  0
   19.0740   33.7743   30.0093 C   0  0  1  0  0  0  0  0  0  0  0  0
   18.6543   32.3949   29.5287 C   0  0  0  0  0  0  0  0  0  0  0  0
   18.1187   32.4703   28.1090 C   0  0  0  0  0  0  0  0  0  0  0  0
   19.3264   33.8934   31.4430 N   0  0  0  0  0  0  0  0  0  0  0  0
   18.1363   33.9943   32.2553 C   0  0  0  0  0  0  0  0  0  0  0  0
   20.3287   32.9781   31.9706 C   0  0  0  0  0  0  0  0  0  0  0  0
   20.7502   33.2708   33.3848 C   0  0  0  0  0  0  0  0  0  0  0  0
   21.1143   34.6170   33.5560 F   0  0  0  0  0  0  0  0  0  0  0  0
   14.3950   36.3944   25.7932 H   0  0  0  0  0  0  0  0  0  0  0  0
   13.1847   37.9944   21.9568 H   0  0  0  0  0  0  0  0  0  0  0  0
   11.7813   38.6534   20.0006 H   0  0  0  0  0  0  0  0  0  0  0  0
   14.2301   34.3986   19.9264 H   0  0  0  0  0  0  0  0  0  0  0  0
   11.2586   39.1856   16.2350 H   0  0  0  0  0  0  0  0  0  0  0  0
   11.5917   38.3378   14.7251 H   0  0  0  0  0  0  0  0  0  0  0  0
   13.4939   38.1841   17.0870 H   0  0  0  0  0  0  0  0  0  0  0  0
   14.3056   40.4354   16.4397 H   0  0  0  0  0  0  0  0  0  0  0  0
   13.3976   40.3375   14.9197 H   0  0  0  0  0  0  0  0  0  0  0  0
   14.7346   36.7837   15.4590 H   0  0  0  0  0  0  0  0  0  0  0  0
   13.7513   37.4424   14.1490 H   0  0  0  0  0  0  0  0  0  0  0  0
   18.8579   32.3366   21.3295 H   0  0  0  0  0  0  0  0  0  0  0  0
   17.2592   32.8619   20.8456 H   0  0  0  0  0  0  0  0  0  0  0  0
   17.5464   32.3065   22.5032 H   0  0  0  0  0  0  0  0  0  0  0  0
   18.9600   34.2317   22.9556 H   0  0  0  0  0  0  0  0  0  0  0  0
   18.7490   34.7218   19.9832 H   0  0  0  0  0  0  0  0  0  0  0  0
   20.1579   34.6390   21.0235 H   0  0  0  0  0  0  0  0  0  0  0  0
   19.1249   36.0576   21.0942 H   0  0  0  0  0  0  0  0  0  0  0  0
   19.0150   33.0228   26.2194 H   0  0  0  0  0  0  0  0  0  0  0  0
   20.8233   34.4189   27.1239 H   0  0  0  0  0  0  0  0  0  0  0  0
   20.8595   32.7975   27.7667 H   0  0  0  0  0  0  0  0  0  0  0  0
   20.3091   35.3487   29.2261 H   0  0  0  0  0  0  0  0  0  0  0  0
   21.1908   33.9317   29.6823 H   0  0  0  0  0  0  0  0  0  0  0  0
   18.2240   34.4402   29.8041 H   0  0  0  0  0  0  0  0  0  0  0  0
   17.9050   31.9824   30.2048 H   0  0  0  0  0  0  0  0  0  0  0  0
   19.5252   31.7473   29.5866 H   0  0  0  0  0  0  0  0  0  0  0  0
   17.0709   32.7724   28.1414 H   0  0  0  0  0  0  0  0  0  0  0  0
   18.1245   31.4851   27.6537 H   0  0  0  0  0  0  0  0  0  0  0  0
   17.4267   34.6757   31.7837 H   0  0  0  0  0  0  0  0  0  0  0  0
   18.3896   34.4223   33.2244 H   0  0  0  0  0  0  0  0  0  0  0  0
   17.6227   33.0460   32.4301 H   0  0  0  0  0  0  0  0  0  0  0  0
   21.2103   32.9953   31.3334 H   0  0  0  0  0  0  0  0  0  0  0  0
   19.9670   31.9453   31.9656 H   0  0  0  0  0  0  0  0  0  0  0  0
   21.6170   32.6558   33.6358 H   0  0  0  0  0  0  0  0  0  0  0  0
   19.9531   33.0562   34.0989 H   0  0  0  0  0  0  0  0  0  0  0  0
  1  2  1  0
  2  3  2  0
  2  4  1  0
  4 12  1  0
  4  5  2  0
  5  6  1  0
  6  7  2  0
  7  8  1  0
  7 47  1  0
  8  9  2  0
  9 34  1  0
  9 10  1  0
 10 11  2  0
 11  1  1  0
 11  6  1  0
 12 13  2  0
 13 14  1  0
 13 48  1  0
 14 15  2  0
 14 49  1  0
 15 19  1  0
 15 16  1  0
 16 17  1  0
 16 18  2  0
 18 12  1  0
 18 50  1  0
 19 21  1  0
 19 20  1  0
 21 22  2  0
 21 23  2  0
 21 24  1  0
 24 25  1  0
 24 51  1  0
 24 52  1  0
 25 26  1  0
 25 53  1  0
 26 27  1  0
 26 54  1  0
 26 55  1  0
 27 28  1  0
 27 29  1  0
 27 30  1  0
 30 25  1  0
 30 56  1  0
 30 57  1  0
 31 32  1  0
 31 58  1  0
 31 59  1  0
 31 60  1  0
 32 33  1  0
 32  1  1  0
 32 61  1  0
 33 62  1  0
 33 63  1  0
 33 64  1  0
 34 36  1  0
 34 35  1  0
 36 37  1  0
 36 65  1  6
 37 38  1  0
 37 66  1  0
 37 67  1  0
 38 39  1  0
 38 68  1  0
 38 69  1  0
 39 42  1  0
 39 40  1  0
 39 70  1  6
 40 41  1  0
 40 71  1  0
 40 72  1  0
 41 36  1  0
 41 73  1  0
 41 74  1  0
 42 43  1  0
 42 44  1  0
 43 75  1  0
 43 76  1  0
 43 77  1  0
 44 45  1  0
 44 78  1  0
 44 79  1  0
 45 46  1  0
 45 80  1  0
 45 81  1  0
M  END
>  <minimizedAffinity>  (1) 
-9.76934

>  <mol_id>  (1) 
4142

>  <source_index>  (1) 
0

>  <layer>  (1) 
L2

>  <uniprot>  (1) 
O75460

>  <paff>  (1) 
9.5375999999999994

>  <smiles>  (1) 
CC(C)n1c(=O)c(-c2ccc(NS(=O)(=O)CC3CC(F)(F)C3)c(F)c2)nc2cnc(N[C@H]3CC[C@H](N(C)CCF)CC3)nc21

>  <aimnet_interaction_kcal_mol>  (1) 
-103.78034890515374

$$$$
L2:O75460:6730
     RDKit          3D

 68 71  0  0  0  0  0  0  0  0999 V2000
   17.2390   34.9774   22.5733 N   0  0  0  0  0  0  0  0  0  0  0  0
   16.3266   35.4707   21.6510 C   0  0  0  0  0  0  0  0  0  0  0  0
   16.5608   35.5689   20.4381 O   0  0  0  0  0  0  0  0  0  0  0  0
   15.0394   35.9261   22.1655 C   0  0  0  0  0  0  0  0  0  0  0  0
   14.8792   36.2220   23.4209 N   0  0  0  0  0  0  0  0  0  0  0  0
   15.7758   35.7217   24.3029 C   0  0  0  0  0  0  0  0  0  0  0  0
   15.5389   35.8381   25.6809 C   0  0  0  0  0  0  0  0  0  0  0  0
   16.4303   35.5197   26.5780 N   0  0  0  0  0  0  0  0  0  0  0  0
   17.5831   34.9315   26.1227 C   0  0  0  0  0  0  0  0  0  0  0  0
   17.8431   34.6157   24.8355 N   0  0  0  0  0  0  0  0  0  0  0  0
   16.9818   35.0858   23.9314 C   0  0  0  0  0  0  0  0  0  0  0  0
   13.9302   36.1300   21.2373 C   0  0  0  0  0  0  0  0  0  0  0  0
   13.1631   37.2912   21.3344 C   0  0  0  0  0  0  0  0  0  0  0  0
   12.2549   37.6067   20.3352 C   0  0  0  0  0  0  0  0  0  0  0  0
   11.9071   36.6710   19.3659 C   0  0  0  0  0  0  0  0  0  0  0  0
   12.4918   35.4050   19.4670 C   0  0  0  0  0  0  0  0  0  0  0  0
   11.9323   34.3758   18.7732 F   0  0  0  0  0  0  0  0  0  0  0  0
   13.5853   35.1717   20.2793 C   0  0  0  0  0  0  0  0  0  0  0  0
   10.9632   37.0384   18.3658 N   0  0  0  0  0  0  0  0  0  0  0  0
   10.0534   36.6010   18.4357 H   0  0  0  0  0  0  0  0  0  0  0  0
   11.3933   36.9162   16.7243 S   0  0  0  0  0  0  0  0  0  0  0  0
   10.1477   37.1574   15.9858 O   0  0  0  0  0  0  0  0  0  0  0  0
   12.2021   35.7117   16.4993 O   0  0  0  0  0  0  0  0  0  0  0  0
   12.5277   38.2865   16.4871 C   0  0  0  0  0  0  0  0  0  0  0  0
   13.2520   38.0931   15.1634 C   0  0  0  0  0  0  0  0  0  0  0  0
   14.5465   38.8423   15.0795 C   0  0  0  0  0  0  0  0  0  0  0  0
   15.4138   38.4358   16.0846 F   0  0  0  0  0  0  0  0  0  0  0  0
   14.3573   40.1886   15.2702 F   0  0  0  0  0  0  0  0  0  0  0  0
   18.0216   32.8363   21.7046 C   0  0  0  0  0  0  0  0  0  0  0  0
   18.4454   34.2323   22.0951 C   0  0  0  0  0  0  0  0  0  0  0  0
   19.1673   34.9510   20.9709 C   0  0  0  0  0  0  0  0  0  0  0  0
   18.4786   34.7023   27.0939 N   0  0  0  0  0  0  0  0  0  0  0  0
   18.3261   35.2740   27.9101 H   0  0  0  0  0  0  0  0  0  0  0  0
   19.1949   33.4576   27.3978 C   0  0  2  0  0  0  0  0  0  0  0  0
   18.2286   32.4634   28.0321 C   0  0  0  0  0  0  0  0  0  0  0  0
   17.5732   32.9921   29.2169 N   0  0  0  0  0  0  0  0  0  0  0  0
   18.4570   33.7969   30.0762 C   0  0  0  0  0  0  0  0  0  0  0  0
   19.9255   33.5050   29.8238 C   0  0  1  0  0  0  0  0  0  0  0  0
   20.3369   33.7370   28.3665 C   0  0  0  0  0  0  0  0  0  0  0  0
   16.7481   33.5188   28.9655 H   0  0  0  0  0  0  0  0  0  0  0  0
   20.8347   34.2859   30.7329 C   0  0  0  0  0  0  0  0  0  0  0  0
   20.4293   34.1647   32.0755 F   0  0  0  0  0  0  0  0  0  0  0  0
   14.5783   36.2108   26.0087 H   0  0  0  0  0  0  0  0  0  0  0  0
   13.2818   37.9273   22.1947 H   0  0  0  0  0  0  0  0  0  0  0  0
   11.8063   38.5847   20.2963 H   0  0  0  0  0  0  0  0  0  0  0  0
   14.1885   34.2780   20.1739 H   0  0  0  0  0  0  0  0  0  0  0  0
   13.1968   38.2443   17.3372 H   0  0  0  0  0  0  0  0  0  0  0  0
   11.9469   39.2003   16.5314 H   0  0  0  0  0  0  0  0  0  0  0  0
   12.6163   38.4129   14.3409 H   0  0  0  0  0  0  0  0  0  0  0  0
   13.4812   37.0443   15.0010 H   0  0  0  0  0  0  0  0  0  0  0  0
   15.0635   38.6930   14.1318 H   0  0  0  0  0  0  0  0  0  0  0  0
   18.8812   32.3094   21.3102 H   0  0  0  0  0  0  0  0  0  0  0  0
   17.2654   32.8624   20.9236 H   0  0  0  0  0  0  0  0  0  0  0  0
   17.6383   32.2731   22.5530 H   0  0  0  0  0  0  0  0  0  0  0  0
   19.0870   34.1866   22.9642 H   0  0  0  0  0  0  0  0  0  0  0  0
   18.7402   34.6992   20.0069 H   0  0  0  0  0  0  0  0  0  0  0  0
   20.1969   34.6194   20.9811 H   0  0  0  0  0  0  0  0  0  0  0  0
   19.1578   36.0310   21.1063 H   0  0  0  0  0  0  0  0  0  0  0  0
   19.5697   33.0641   26.4533 H   0  0  0  0  0  0  0  0  0  0  0  0
   18.7901   31.5745   28.3061 H   0  0  0  0  0  0  0  0  0  0  0  0
   17.4752   32.1685   27.3069 H   0  0  0  0  0  0  0  0  0  0  0  0
   18.2333   33.5966   31.1235 H   0  0  0  0  0  0  0  0  0  0  0  0
   18.2731   34.8723   29.9321 H   0  0  0  0  0  0  0  0  0  0  0  0
   20.0858   32.4540   30.0520 H   0  0  0  0  0  0  0  0  0  0  0  0
   21.1713   33.0729   28.1499 H   0  0  0  0  0  0  0  0  0  0  0  0
   20.6982   34.7515   28.2184 H   0  0  0  0  0  0  0  0  0  0  0  0
   20.8055   35.3536   30.5010 H   0  0  0  0  0  0  0  0  0  0  0  0
   21.8547   33.9145   30.6518 H   0  0  0  0  0  0  0  0  0  0  0  0
  1  2  1  0
  2  3  2  0
  2  4  1  0
  4 12  1  0
  4  5  2  0
  5  6  1  0
  6  7  2  0
  7  8  1  0
  7 43  1  0
  8  9  2  0
  9 32  1  0
  9 10  1  0
 10 11  2  0
 11  1  1  0
 11  6  1  0
 12 13  2  0
 13 14  1  0
 13 44  1  0
 14 15  2  0
 14 45  1  0
 15 19  1  0
 15 16  1  0
 16 17  1  0
 16 18  2  0
 18 12  1  0
 18 46  1  0
 19 21  1  0
 19 20  1  0
 21 22  2  0
 21 23  2  0
 21 24  1  0
 24 25  1  0
 24 47  1  0
 24 48  1  0
 25 26  1  0
 25 49  1  0
 25 50  1  0
 26 27  1  0
 26 28  1  0
 26 51  1  0
 29 30  1  0
 29 52  1  0
 29 53  1  0
 29 54  1  0
 30 31  1  0
 30  1  1  0
 30 55  1  0
 31 56  1  0
 31 57  1  0
 31 58  1  0
 32 34  1  0
 32 33  1  0
 34 35  1  0
 34 59  1  6
 35 36  1  0
 35 60  1  0
 35 61  1  0
 36 37  1  0
 36 40  1  0
 37 38  1  0
 37 62  1  0
 37 63  1  0
 38 41  1  0
 38 39  1  0
 38 64  1  1
 39 34  1  0
 39 65  1  0
 39 66  1  0
 41 42  1  0
 41 67  1  0
 41 68  1  0
M  END
>  <minimizedAffinity>  (2) 
-9.70411

>  <mol_id>  (2) 
6730

>  <source_index>  (2) 
1

>  <layer>  (2) 
L2

>  <uniprot>  (2) 
O75460

>  <paff>  (2) 
9

>  <smiles>  (2) 
CC(C)n1c(=O)c(-c2ccc(NS(=O)(=O)CCC(F)F)c(F)c2)nc2cnc(N[C@@H]3CNC[C@H](CF)C3)nc21

>  <aimnet_interaction_kcal_mol>  (2) 
-96.392302266173104

$$$$
L2:O75460:14710
     RDKit          3D

 74 77  0  0  0  0  0  0  0  0999 V2000
   14.9199   36.0176   21.9202 C   0  0  0  0  0  0  0  0  0  0  0  0
   14.6860   36.4162   23.1373 N   0  0  0  0  0  0  0  0  0  0  0  0
   15.4566   35.8815   24.1133 C   0  0  0  0  0  0  0  0  0  0  0  0
   15.0396   35.9766   25.4477 C   0  0  0  0  0  0  0  0  0  0  0  0
   15.7247   35.4872   26.4403 N   0  0  0  0  0  0  0  0  0  0  0  0
   16.8792   34.8183   26.1203 C   0  0  0  0  0  0  0  0  0  0  0  0
   17.3689   34.6468   24.8720 N   0  0  0  0  0  0  0  0  0  0  0  0
   16.6495   35.1630   23.8802 C   0  0  0  0  0  0  0  0  0  0  0  0
   17.0359   35.0155   22.5582 N   0  0  0  0  0  0  0  0  0  0  0  0
   16.2159   35.4702   21.5354 C   0  0  0  0  0  0  0  0  0  0  0  0
   16.5495   35.4651   20.3427 O   0  0  0  0  0  0  0  0  0  0  0  0
   11.9985   36.7476   18.8913 C   0  0  0  0  0  0  0  0  0  0  0  0
   12.5502   35.4674   19.0687 C   0  0  0  0  0  0  0  0  0  0  0  0
   11.9988   34.4372   18.3780 F   0  0  0  0  0  0  0  0  0  0  0  0
   13.5852   35.2247   19.9517 C   0  0  0  0  0  0  0  0  0  0  0  0
   13.8872   36.1962   20.9132 C   0  0  0  0  0  0  0  0  0  0  0  0
   13.1690   37.3869   20.9292 C   0  0  0  0  0  0  0  0  0  0  0  0
   12.3956   37.6959   19.8354 C   0  0  0  0  0  0  0  0  0  0  0  0
   12.0664   38.9916   19.6345 F   0  0  0  0  0  0  0  0  0  0  0  0
   11.0015   37.0601   17.9465 N   0  0  0  0  0  0  0  0  0  0  0  0
   10.0894   36.6807   18.1557 H   0  0  0  0  0  0  0  0  0  0  0  0
   11.2246   36.7858   16.2593 S   0  0  0  0  0  0  0  0  0  0  0  0
    9.8831   36.3882   15.8081 O   0  0  0  0  0  0  0  0  0  0  0  0
   12.4251   35.9588   16.0875 O   0  0  0  0  0  0  0  0  0  0  0  0
   11.5731   38.3905   15.4953 C   0  0  0  0  0  0  0  0  0  0  0  0
   13.9163   38.7726   16.4419 C   0  0  0  0  0  0  0  0  0  0  0  0
   13.0367   38.6504   15.2194 C   0  0  0  0  0  0  0  0  0  0  0  0
   18.3005   34.3003   22.2125 C   0  0  0  0  0  0  0  0  0  0  0  0
   19.1463   35.0753   21.2183 C   0  0  0  0  0  0  0  0  0  0  0  0
   17.9649   32.9113   21.7256 C   0  0  0  0  0  0  0  0  0  0  0  0
   17.4902   34.3343   27.1976 N   0  0  0  0  0  0  0  0  0  0  0  0
   17.0217   34.5550   28.0630 H   0  0  0  0  0  0  0  0  0  0  0  0
   18.5955   33.3803   27.2988 C   0  0  1  0  0  0  0  0  0  0  0  0
   19.9225   34.0371   27.6893 C   0  0  0  0  0  0  0  0  0  0  0  0
   20.2147   33.9061   29.1836 C   0  0  0  0  0  0  0  0  0  0  0  0
   18.9524   34.0564   30.0084 C   0  0  1  0  0  0  0  0  0  0  0  0
   17.9860   32.9039   29.7109 C   0  0  0  0  0  0  0  0  0  0  0  0
   18.2080   32.3223   28.3222 C   0  0  0  0  0  0  0  0  0  0  0  0
   19.2104   34.2737   31.4363 N   0  0  0  0  0  0  0  0  0  0  0  0
   20.1046   33.3108   32.0651 C   0  0  0  0  0  0  0  0  0  0  0  0
   17.9870   34.4137   32.1935 C   0  0  0  0  0  0  0  0  0  0  0  0
   14.1006   36.4690   25.6568 H   0  0  0  0  0  0  0  0  0  0  0  0
   14.1812   34.3252   19.9194 H   0  0  0  0  0  0  0  0  0  0  0  0
   13.2612   38.0323   21.7845 H   0  0  0  0  0  0  0  0  0  0  0  0
   11.0133   38.3289   14.5659 H   0  0  0  0  0  0  0  0  0  0  0  0
   11.1098   39.1371   16.1302 H   0  0  0  0  0  0  0  0  0  0  0  0
   14.9174   39.0751   16.1431 H   0  0  0  0  0  0  0  0  0  0  0  0
   13.9921   37.8282   16.9719 H   0  0  0  0  0  0  0  0  0  0  0  0
   13.5220   39.5173   17.1289 H   0  0  0  0  0  0  0  0  0  0  0  0
   13.4224   37.8753   14.5623 H   0  0  0  0  0  0  0  0  0  0  0  0
   13.0757   39.5834   14.6599 H   0  0  0  0  0  0  0  0  0  0  0  0
   18.8244   34.2324   23.1554 H   0  0  0  0  0  0  0  0  0  0  0  0
   18.8667   34.8311   20.1991 H   0  0  0  0  0  0  0  0  0  0  0  0
   20.1812   34.7907   21.3569 H   0  0  0  0  0  0  0  0  0  0  0  0
   19.0704   36.1527   21.3626 H   0  0  0  0  0  0  0  0  0  0  0  0
   17.3608   32.9477   20.8239 H   0  0  0  0  0  0  0  0  0  0  0  0
   17.4356   32.3400   22.4848 H   0  0  0  0  0  0  0  0  0  0  0  0
   18.8855   32.3958   21.4812 H   0  0  0  0  0  0  0  0  0  0  0  0
   18.6879   32.9355   26.3131 H   0  0  0  0  0  0  0  0  0  0  0  0
   19.9285   35.0869   27.4030 H   0  0  0  0  0  0  0  0  0  0  0  0
   20.7300   33.5644   27.1293 H   0  0  0  0  0  0  0  0  0  0  0  0
   20.9490   34.6467   29.4904 H   0  0  0  0  0  0  0  0  0  0  0  0
   20.6661   32.9371   29.3970 H   0  0  0  0  0  0  0  0  0  0  0  0
   18.4587   34.9783   29.6770 H   0  0  0  0  0  0  0  0  0  0  0  0
   16.9594   33.2485   29.8450 H   0  0  0  0  0  0  0  0  0  0  0  0
   18.1304   32.1248   30.4561 H   0  0  0  0  0  0  0  0  0  0  0  0
   17.3215   31.7895   27.9886 H   0  0  0  0  0  0  0  0  0  0  0  0
   19.0087   31.5966   28.3754 H   0  0  0  0  0  0  0  0  0  0  0  0
   21.0643   33.3049   31.5608 H   0  0  0  0  0  0  0  0  0  0  0  0
   19.7239   32.2889   32.0664 H   0  0  0  0  0  0  0  0  0  0  0  0
   20.2725   33.6125   33.0990 H   0  0  0  0  0  0  0  0  0  0  0  0
   17.2881   35.0584   31.6577 H   0  0  0  0  0  0  0  0  0  0  0  0
   18.2054   34.8769   33.1573 H   0  0  0  0  0  0  0  0  0  0  0  0
   17.4720   33.4709   32.3921 H   0  0  0  0  0  0  0  0  0  0  0  0
  1  2  2  0
  2  3  1  0
  3  4  2  0
  4  5  1  0
  4 42  1  0
  5  6  2  0
  6 31  1  0
  6  7  1  0
  7  8  2  0
  8  9  1  0
  8  3  1  0
  9 28  1  0
  9 10  1  0
 10 11  2  0
 10  1  1  0
 12 13  2  0
 13 14  1  0
 13 15  1  0
 15 16  2  0
 15 43  1  0
 16  1  1  0
 16 17  1  0
 17 18  2  0
 17 44  1  0
 18 19  1  0
 18 12  1  0
 20 12  1  0
 20 21  1  0
 22 23  2  0
 22 24  2  0
 22 20  1  0
 25 22  1  0
 25 45  1  0
 25 46  1  0
 26 27  1  0
 26 47  1  0
 26 48  1  0
 26 49  1  0
 27 25  1  0
 27 50  1  0
 27 51  1  0
 28 29  1  0
 28 30  1  0
 28 52  1  0
 29 53  1  0
 29 54  1  0
 29 55  1  0
 30 56  1  0
 30 57  1  0
 30 58  1  0
 31 33  1  0
 31 32  1  0
 33 34  1  0
 33 59  1  6
 34 35  1  0
 34 60  1  0
 34 61  1  0
 35 36  1  0
 35 62  1  0
 35 63  1  0
 36 39  1  0
 36 37  1  0
 36 64  1  6
 37 38  1  0
 37 65  1  0
 37 66  1  0
 38 33  1  0
 38 67  1  0
 38 68  1  0
 39 40  1  0
 39 41  1  0
 40 69  1  0
 40 70  1  0
 40 71  1  0
 41 72  1  0
 41 73  1  0
 41 74  1  0
M  END
>  <minimizedAffinity>  (3) 
-9.66082

>  <mol_id>  (3) 
14710

>  <source_index>  (3) 
2

>  <layer>  (3) 
L2

>  <uniprot>  (3) 
O75460

>  <paff>  (3) 
10

>  <smiles>  (3) 
CCCS(=O)(=O)Nc1c(F)cc(-c2nc3cnc(N[C@H]4CC[C@H](N(C)C)CC4)nc3n(C(C)C)c2=O)cc1F

>  <aimnet_interaction_kcal_mol>  (3) 
-90.25330722196216

$$$$
L2:O75460:25683
     RDKit          3D

 68 73  0  0  0  0  0  0  0  0999 V2000
   18.0711   36.0192   23.8230 O   0  0  0  0  0  0  0  0  0  0  0  0
   17.3485   35.4672   24.6487 C   0  0  0  0  0  0  0  0  0  0  0  0
   15.9414   35.1700   24.3614 C   0  0  0  0  0  0  0  0  0  0  0  0
   15.1484   34.6149   25.3169 C   0  0  0  0  0  0  0  0  0  0  0  0
   15.6392   34.3817   26.6149 C   0  0  0  0  0  0  0  0  0  0  0  0
   14.8731   33.8411   27.6564 C   0  0  0  0  0  0  0  0  0  0  0  0
   15.3285   33.6724   28.8749 N   0  0  0  0  0  0  0  0  0  0  0  0
   16.6389   34.0164   29.0893 C   0  0  0  0  0  0  0  0  0  0  0  0
   17.4448   34.5686   28.1679 N   0  0  0  0  0  0  0  0  0  0  0  0
   16.9778   34.6800   26.9380 C   0  0  0  0  0  0  0  0  0  0  0  0
   17.8192   35.1007   25.9224 N   0  0  0  0  0  0  0  0  0  0  0  0
   15.4483   35.4683   23.0169 C   0  0  0  0  0  0  0  0  0  0  0  0
   15.8226   34.7072   21.9026 C   0  0  0  0  0  0  0  0  0  0  0  0
   15.2342   34.8981   20.6634 C   0  0  0  0  0  0  0  0  0  0  0  0
   14.2597   35.8823   20.4911 C   0  0  0  0  0  0  0  0  0  0  0  0
   13.9230   36.6803   21.5860 C   0  0  0  0  0  0  0  0  0  0  0  0
   12.9763   37.6493   21.4350 F   0  0  0  0  0  0  0  0  0  0  0  0
   14.5316   36.4971   22.8060 C   0  0  0  0  0  0  0  0  0  0  0  0
   14.2096   37.3226   23.8223 F   0  0  0  0  0  0  0  0  0  0  0  0
   13.6145   36.0665   19.2343 N   0  0  0  0  0  0  0  0  0  0  0  0
   13.5483   37.0479   18.9859 H   0  0  0  0  0  0  0  0  0  0  0  0
   11.9533   35.4902   19.1780 S   0  0  0  0  0  0  0  0  0  0  0  0
   11.8921   34.4399   18.1530 O   0  0  0  0  0  0  0  0  0  0  0  0
   11.4700   35.1868   20.5315 O   0  0  0  0  0  0  0  0  0  0  0  0
   11.1188   37.0065   18.5696 C   0  0  0  0  0  0  0  0  0  0  0  0
   11.3893   37.2712   17.1363 C   0  0  0  0  0  0  0  0  0  0  0  0
   10.6373   36.6096   16.1692 C   0  0  0  0  0  0  0  0  0  0  0  0
   10.8537   36.8486   14.8227 C   0  0  0  0  0  0  0  0  0  0  0  0
   11.8327   37.7474   14.4163 C   0  0  0  0  0  0  0  0  0  0  0  0
   12.5911   38.4074   15.3739 C   0  0  0  0  0  0  0  0  0  0  0  0
   12.3658   38.1762   16.7235 C   0  0  0  0  0  0  0  0  0  0  0  0
   19.2371   35.2161   26.2236 C   0  0  0  0  0  0  0  0  0  0  0  0
   19.9845   33.9605   26.5178 C   0  0  0  0  0  0  0  0  0  0  0  0
   20.2491   34.6876   25.2526 C   0  0  0  0  0  0  0  0  0  0  0  0
   17.0895   33.7850   30.3194 N   0  0  0  0  0  0  0  0  0  0  0  0
   16.4538   33.3550   30.9914 H   0  0  0  0  0  0  0  0  0  0  0  0
   18.4425   34.0643   30.7664 C   0  0  2  0  0  0  0  0  0  0  0  0
   19.4652   33.0952   30.1949 C   0  0  0  0  0  0  0  0  0  0  0  0
   20.7866   33.6312   30.4591 N   0  0  0  0  0  0  0  0  0  0  0  0
   20.9308   34.2762   31.7619 C   0  0  0  0  0  0  0  0  0  0  0  0
   19.9157   33.7532   32.7577 C   0  0  1  0  0  0  0  0  0  0  0  0
   20.1213   34.3945   34.0064 F   0  0  0  0  0  0  0  0  0  0  0  0
   18.4904   34.0156   32.2923 C   0  0  0  0  0  0  0  0  0  0  0  0
   21.4968   32.9131   30.3283 H   0  0  0  0  0  0  0  0  0  0  0  0
   14.1334   34.3122   25.1154 H   0  0  0  0  0  0  0  0  0  0  0  0
   13.8514   33.5245   27.4584 H   0  0  0  0  0  0  0  0  0  0  0  0
   16.5666   33.9320   22.0237 H   0  0  0  0  0  0  0  0  0  0  0  0
   15.5090   34.2642   19.8266 H   0  0  0  0  0  0  0  0  0  0  0  0
   11.4374   37.8074   19.2293 H   0  0  0  0  0  0  0  0  0  0  0  0
   10.0755   36.7953   18.7718 H   0  0  0  0  0  0  0  0  0  0  0  0
    9.8766   35.9016   16.4724 H   0  0  0  0  0  0  0  0  0  0  0  0
   10.2623   36.3227   14.0907 H   0  0  0  0  0  0  0  0  0  0  0  0
   11.9946   37.9409   13.3653 H   0  0  0  0  0  0  0  0  0  0  0  0
   13.3537   39.1102   15.0667 H   0  0  0  0  0  0  0  0  0  0  0  0
   12.9154   38.7626   17.4533 H   0  0  0  0  0  0  0  0  0  0  0  0
   19.4660   36.0928   26.8063 H   0  0  0  0  0  0  0  0  0  0  0  0
   19.4181   33.0462   26.4568 H   0  0  0  0  0  0  0  0  0  0  0  0
   20.7052   33.9656   27.3148 H   0  0  0  0  0  0  0  0  0  0  0  0
   19.8924   34.2755   24.3215 H   0  0  0  0  0  0  0  0  0  0  0  0
   21.1632   35.2571   25.1648 H   0  0  0  0  0  0  0  0  0  0  0  0
   18.7002   35.0622   30.4074 H   0  0  0  0  0  0  0  0  0  0  0  0
   19.3227   32.9702   29.1247 H   0  0  0  0  0  0  0  0  0  0  0  0
   19.2922   32.1092   30.6499 H   0  0  0  0  0  0  0  0  0  0  0  0
   20.7962   35.3622   31.6818 H   0  0  0  0  0  0  0  0  0  0  0  0
   21.9365   34.1105   32.1430 H   0  0  0  0  0  0  0  0  0  0  0  0
   20.0735   32.6877   32.9271 H   0  0  0  0  0  0  0  0  0  0  0  0
   18.1298   34.9584   32.7034 H   0  0  0  0  0  0  0  0  0  0  0  0
   17.8553   33.2165   32.6661 H   0  0  0  0  0  0  0  0  0  0  0  0
  1  2  2  0
  2  3  1  0
  3 12  1  0
  3  4  2  0
  4  5  1  0
  4 45  1  0
  5  6  2  0
  6  7  1  0
  6 46  1  0
  7  8  2  0
  8 35  1  0
  8  9  1  0
  9 10  2  0
 10 11  1  0
 10  5  1  0
 11 32  1  0
 11  2  1  0
 12 13  2  0
 13 14  1  0
 13 47  1  0
 14 15  2  0
 14 48  1  0
 15 20  1  0
 15 16  1  0
 16 17  1  0
 16 18  2  0
 18 19  1  0
 18 12  1  0
 20 22  1  0
 20 21  1  0
 22 23  2  0
 22 24  2  0
 22 25  1  0
 25 26  1  0
 25 49  1  0
 25 50  1  0
 26 27  2  0
 27 28  1  0
 27 51  1  0
 28 29  2  0
 28 52  1  0
 29 30  1  0
 29 53  1  0
 30 31  2  0
 30 54  1  0
 31 26  1  0
 31 55  1  0
 32 33  1  0
 32 56  1  0
 33 34  1  0
 33 57  1  0
 33 58  1  0
 34 32  1  0
 34 59  1  0
 34 60  1  0
 35 37  1  0
 35 36  1  0
 37 38  1  0
 37 61  1  1
 38 39  1  0
 38 62  1  0
 38 63  1  0
 39 40  1  0
 39 44  1  0
 40 41  1  0
 40 64  1  0
 40 65  1  0
 41 42  1  0
 41 43  1  0
 41 66  1  1
 43 37  1  0
 43 67  1  0
 43 68  1  0
M  END
>  <minimizedAffinity>  (4) 
-11.95574

>  <mol_id>  (4) 
25683

>  <source_index>  (4) 
3

>  <layer>  (4) 
L2

>  <uniprot>  (4) 
O75460

>  <paff>  (4) 
8.9586000000000006

>  <smiles>  (4) 
O=c1c(-c2ccc(NS(=O)(=O)Cc3ccccc3)c(F)c2F)cc2cnc(N[C@@H]3CNC[C@@H](F)C3)nc2n1C1CC1

>  <aimnet_interaction_kcal_mol>  (4) 
-99.168012489129822

$$$$
L2:O75460:48303
     RDKit          3D

 70 74  0  0  0  0  0  0  0  0999 V2000
   18.8235   36.0124   23.0378 C   0  0  0  0  0  0  0  0  0  0  0  0
   18.4133   35.4503   24.3608 C   0  0  0  0  0  0  0  0  0  0  0  0
   19.3396   35.5214   25.4175 C   0  0  0  0  0  0  0  0  0  0  0  0
   18.9902   35.2760   26.7121 C   0  0  0  0  0  0  0  0  0  0  0  0
   17.7101   34.8064   27.0325 C   0  0  0  0  0  0  0  0  0  0  0  0
   17.3273   34.5081   28.3649 C   0  0  0  0  0  0  0  0  0  0  0  0
   16.0492   34.0576   28.6213 C   0  0  0  0  0  0  0  0  0  0  0  0
   15.1073   33.9484   27.5893 C   0  0  0  0  0  0  0  0  0  0  0  0
   15.4475   34.2546   26.2973 C   0  0  0  0  0  0  0  0  0  0  0  0
   16.7584   34.6507   25.9807 C   0  0  0  0  0  0  0  0  0  0  0  0
   17.1765   34.9153   24.6527 C   0  0  0  0  0  0  0  0  0  0  0  0
   18.2342   34.7795   29.4078 N   0  0  0  0  0  0  0  0  0  0  0  0
   17.7651   35.0471   30.2640 H   0  0  0  0  0  0  0  0  0  0  0  0
   19.3432   33.5199   29.9655 S   0  0  0  0  0  0  0  0  0  0  0  0
   18.8837   32.2625   29.3750 O   0  0  0  0  0  0  0  0  0  0  0  0
   19.3831   33.7685   31.4149 O   0  0  0  0  0  0  0  0  0  0  0  0
   20.9636   33.9990   29.3175 C   0  0  0  0  0  0  0  0  0  0  0  0
   21.3197   33.2679   28.0503 C   0  0  0  0  0  0  0  0  0  0  0  0
   22.5634   33.7706   27.3609 C   0  0  0  0  0  0  0  0  0  0  0  0
   23.1985   32.7467   26.7146 F   0  0  0  0  0  0  0  0  0  0  0  0
   23.4576   34.3510   28.1707 F   0  0  0  0  0  0  0  0  0  0  0  0
   22.2785   34.6823   26.3656 F   0  0  0  0  0  0  0  0  0  0  0  0
   16.2035   34.6670   23.6895 O   0  0  0  0  0  0  0  0  0  0  0  0
   16.6109   34.2327   22.4619 C   0  0  0  0  0  0  0  0  0  0  0  0
   17.5066   33.2833   22.4293 N   0  0  0  0  0  0  0  0  0  0  0  0
   18.0461   32.9578   21.2484 C   0  0  0  0  0  0  0  0  0  0  0  0
   17.6389   33.5422   20.0555 C   0  0  0  0  0  0  0  0  0  0  0  0
   16.5724   34.4255   20.0946 C   0  0  0  0  0  0  0  0  0  0  0  0
   16.0348   34.8491   21.3179 C   0  0  0  0  0  0  0  0  0  0  0  0
   14.9809   35.8631   21.4011 C   0  0  0  0  0  0  0  0  0  0  0  0
   14.7192   36.6010   22.5646 C   0  0  0  0  0  0  0  0  0  0  0  0
   13.5434   37.3259   22.6108 C   0  0  0  0  0  0  0  0  0  0  0  0
   12.7310   37.4484   21.5636 N   0  0  0  0  0  0  0  0  0  0  0  0
   13.1437   36.8555   20.4275 C   0  0  0  0  0  0  0  0  0  0  0  0
   14.2445   36.1026   20.2832 N   0  0  0  0  0  0  0  0  0  0  0  0
   12.3441   37.1017   19.3459 N   0  0  0  0  0  0  0  0  0  0  0  0
   11.4617   37.5094   19.6026 H   0  0  0  0  0  0  0  0  0  0  0  0
   12.3633   36.2831   18.1485 C   0  0  1  0  0  0  0  0  0  0  0  0
   11.1059   36.4675   17.2871 C   0  0  0  0  0  0  0  0  0  0  0  0
   11.3470   37.3162   16.0499 C   0  0  0  0  0  0  0  0  0  0  0  0
   12.4690   36.7361   15.1822 C   0  0  0  0  0  0  0  0  0  0  0  0
   13.4188   36.0024   16.0114 N   0  0  0  0  0  0  0  0  0  0  0  0
   13.5997   36.5851   17.3091 C   0  0  0  0  0  0  0  0  0  0  0  0
   14.3134   35.8720   15.5645 H   0  0  0  0  0  0  0  0  0  0  0  0
   19.5159   36.8418   23.1837 H   0  0  0  0  0  0  0  0  0  0  0  0
   17.9725   36.3894   22.4776 H   0  0  0  0  0  0  0  0  0  0  0  0
   19.3436   35.2777   22.4250 H   0  0  0  0  0  0  0  0  0  0  0  0
   20.3641   35.7704   25.1823 H   0  0  0  0  0  0  0  0  0  0  0  0
   19.6962   35.4598   27.5038 H   0  0  0  0  0  0  0  0  0  0  0  0
   15.7844   33.7620   29.6304 H   0  0  0  0  0  0  0  0  0  0  0  0
   14.1082   33.5938   27.8020 H   0  0  0  0  0  0  0  0  0  0  0  0
   14.7161   34.1731   25.5137 H   0  0  0  0  0  0  0  0  0  0  0  0
   21.6430   33.7128   30.1158 H   0  0  0  0  0  0  0  0  0  0  0  0
   20.9350   35.0808   29.2203 H   0  0  0  0  0  0  0  0  0  0  0  0
   20.5083   33.3036   27.3282 H   0  0  0  0  0  0  0  0  0  0  0  0
   21.4942   32.2370   28.3444 H   0  0  0  0  0  0  0  0  0  0  0  0
   18.8333   32.2134   21.2594 H   0  0  0  0  0  0  0  0  0  0  0  0
   18.1004   33.2712   19.1121 H   0  0  0  0  0  0  0  0  0  0  0  0
   16.1268   34.7326   19.1542 H   0  0  0  0  0  0  0  0  0  0  0  0
   15.3795   36.6051   23.4082 H   0  0  0  0  0  0  0  0  0  0  0  0
   13.2404   37.8241   23.5291 H   0  0  0  0  0  0  0  0  0  0  0  0
   12.4334   35.2338   18.4578 H   0  0  0  0  0  0  0  0  0  0  0  0
   10.3026   36.9010   17.8807 H   0  0  0  0  0  0  0  0  0  0  0  0
   10.7540   35.4902   16.9606 H   0  0  0  0  0  0  0  0  0  0  0  0
   11.5978   38.3339   16.3572 H   0  0  0  0  0  0  0  0  0  0  0  0
   10.4397   37.3841   15.4533 H   0  0  0  0  0  0  0  0  0  0  0  0
   12.9530   37.5455   14.6215 H   0  0  0  0  0  0  0  0  0  0  0  0
   12.0426   36.0588   14.4441 H   0  0  0  0  0  0  0  0  0  0  0  0
   13.7698   37.6748   17.2763 H   0  0  0  0  0  0  0  0  0  0  0  0
   14.4751   36.1368   17.7670 H   0  0  0  0  0  0  0  0  0  0  0  0
  1  2  1  0
  1 45  1  0
  1 46  1  0
  1 47  1  0
  2  3  2  0
  3  4  1  0
  3 48  1  0
  4  5  2  0
  4 49  1  0
  5  6  1  0
  6 12  1  0
  6  7  2  0
  7  8  1  0
  7 50  1  0
  8  9  2  0
  8 51  1  0
  9 10  1  0
  9 52  1  0
 10 11  2  0
 10  5  1  0
 11 23  1  0
 11  2  1  0
 12 14  1  0
 12 13  1  0
 14 15  2  0
 14 16  2  0
 14 17  1  0
 17 18  1  0
 17 53  1  0
 17 54  1  0
 18 19  1  0
 18 55  1  0
 18 56  1  0
 19 20  1  0
 19 21  1  0
 19 22  1  0
 23 24  1  0
 24 25  2  0
 25 26  1  0
 26 27  2  0
 26 57  1  0
 27 28  1  0
 27 58  1  0
 28 29  2  0
 28 59  1  0
 29 30  1  0
 29 24  1  0
 30 31  2  0
 31 32  1  0
 31 60  1  0
 32 33  2  0
 32 61  1  0
 33 34  1  0
 34 36  1  0
 34 35  2  0
 35 30  1  0
 36 38  1  0
 36 37  1  0
 38 39  1  0
 38 62  1  1
 39 40  1  0
 39 63  1  0
 39 64  1  0
 40 41  1  0
 40 65  1  0
 40 66  1  0
 41 42  1  0
 41 67  1  0
 41 68  1  0
 42 43  1  0
 42 44  1  0
 43 38  1  0
 43 69  1  0
 43 70  1  0
M  END
>  <minimizedAffinity>  (5) 
-10.58237

>  <mol_id>  (5) 
48303

>  <source_index>  (5) 
4

>  <layer>  (5) 
L2

>  <uniprot>  (5) 
O75460

>  <paff>  (5) 
7.0757000000000003

>  <smiles>  (5) 
Cc1ccc2c(NS(=O)(=O)CCC(F)(F)F)cccc2c1Oc1ncccc1-c1ccnc(N[C@H]2CCCNC2)n1

>  <aimnet_interaction_kcal_mol>  (5) 
-97.356408166562957

$$$$
L2:O75460:72342
     RDKit          3D

 84 88  0  0  0  0  0  0  0  0999 V2000
   17.2322   34.3765   26.2775 N   0  0  0  0  0  0  0  0  0  0  0  0
   16.2202   34.8897   25.4507 C   0  0  0  0  0  0  0  0  0  0  0  0
   15.0731   35.0573   25.8716 O   0  0  0  0  0  0  0  0  0  0  0  0
   16.5755   35.1944   24.0655 C   0  0  0  0  0  0  0  0  0  0  0  0
   17.8791   35.1403   23.6832 C   0  0  0  0  0  0  0  0  0  0  0  0
   18.8906   34.8818   24.6229 C   0  0  0  0  0  0  0  0  0  0  0  0
   20.2599   34.9447   24.3242 C   0  0  0  0  0  0  0  0  0  0  0  0
   21.2011   34.7121   25.2056 N   0  0  0  0  0  0  0  0  0  0  0  0
   20.7823   34.3734   26.4668 C   0  0  0  0  0  0  0  0  0  0  0  0
   19.4999   34.3283   26.8717 N   0  0  0  0  0  0  0  0  0  0  0  0
   18.5688   34.5238   25.9546 C   0  0  0  0  0  0  0  0  0  0  0  0
   15.4912   35.5538   23.1479 C   0  0  0  0  0  0  0  0  0  0  0  0
   14.6976   36.6793   23.3627 C   0  0  0  0  0  0  0  0  0  0  0  0
   13.7002   36.9996   22.4583 C   0  0  0  0  0  0  0  0  0  0  0  0
   13.5056   36.1608   21.3683 C   0  0  0  0  0  0  0  0  0  0  0  0
   14.2194   35.0702   21.1570 N   0  0  0  0  0  0  0  0  0  0  0  0
   15.1918   34.7796   22.0270 C   0  0  0  0  0  0  0  0  0  0  0  0
   12.4701   36.4439   20.4346 N   0  0  0  0  0  0  0  0  0  0  0  0
   12.0715   37.3651   20.5444 H   0  0  0  0  0  0  0  0  0  0  0  0
   12.8489   36.1044   18.8071 S   0  0  0  0  0  0  0  0  0  0  0  0
   12.3604   34.7608   18.4617 O   0  0  0  0  0  0  0  0  0  0  0  0
   14.2741   36.4433   18.5358 O   0  0  0  0  0  0  0  0  0  0  0  0
   11.8658   37.3872   17.9940 C   0  0  0  0  0  0  0  0  0  0  0  0
   12.3561   37.6015   16.5680 C   0  0  0  0  0  0  0  0  0  0  0  0
   12.5192   39.0663   16.1983 C   0  0  0  0  0  0  0  0  0  0  0  0
   13.4188   39.1870   14.9795 C   0  0  0  0  0  0  0  0  0  0  0  0
   13.1881   38.0319   14.0079 C   0  0  0  0  0  0  0  0  0  0  0  0
   11.7919   37.4403   14.1225 C   0  0  0  0  0  0  0  0  0  0  0  0
   11.4642   36.9387   15.5265 C   0  0  0  0  0  0  0  0  0  0  0  0
   16.6006   34.6711   28.6528 C   0  0  0  0  0  0  0  0  0  0  0  0
   16.7654   33.6920   27.5200 C   0  0  0  0  0  0  0  0  0  0  0  0
   17.5921   32.4927   27.9405 C   0  0  0  0  0  0  0  0  0  0  0  0
   21.7275   34.0218   27.3335 N   0  0  0  0  0  0  0  0  0  0  0  0
   21.4608   33.8429   28.2911 H   0  0  0  0  0  0  0  0  0  0  0  0
   23.1351   33.8750   26.9811 C   0  0  1  0  0  0  0  0  0  0  0  0
   24.0254   34.2702   28.1534 C   0  0  0  0  0  0  0  0  0  0  0  0
   25.4024   33.6179   28.0476 C   0  0  0  0  0  0  0  0  0  0  0  0
   25.8389   33.3122   26.6207 C   0  0  1  0  0  0  0  0  0  0  0  0
   24.8679   32.2601   26.0744 C   0  0  0  0  0  0  0  0  0  0  0  0
   23.4280   32.4465   26.5543 C   0  0  0  0  0  0  0  0  0  0  0  0
   25.9032   34.5060   25.7565 N   0  0  0  0  0  0  0  0  0  0  0  0
   26.6157   35.6046   26.3799 C   0  0  0  0  0  0  0  0  0  0  0  0
   26.4982   34.2172   24.4661 C   0  0  0  0  0  0  0  0  0  0  0  0
   18.1691   35.3077   22.6535 H   0  0  0  0  0  0  0  0  0  0  0  0
   20.5686   35.1803   23.3110 H   0  0  0  0  0  0  0  0  0  0  0  0
   14.8323   37.2710   24.2567 H   0  0  0  0  0  0  0  0  0  0  0  0
   13.0413   37.8354   22.6504 H   0  0  0  0  0  0  0  0  0  0  0  0
   15.7515   33.8707   21.8387 H   0  0  0  0  0  0  0  0  0  0  0  0
   12.0081   38.2822   18.5928 H   0  0  0  0  0  0  0  0  0  0  0  0
   10.8306   37.0625   18.0779 H   0  0  0  0  0  0  0  0  0  0  0  0
   13.3419   37.1472   16.5093 H   0  0  0  0  0  0  0  0  0  0  0  0
   12.9393   39.6394   17.0242 H   0  0  0  0  0  0  0  0  0  0  0  0
   11.5369   39.4868   15.9815 H   0  0  0  0  0  0  0  0  0  0  0  0
   14.4628   39.1829   15.2979 H   0  0  0  0  0  0  0  0  0  0  0  0
   13.2510   40.1448   14.4980 H   0  0  0  0  0  0  0  0  0  0  0  0
   13.9166   37.2552   14.2229 H   0  0  0  0  0  0  0  0  0  0  0  0
   13.3715   38.3554   12.9835 H   0  0  0  0  0  0  0  0  0  0  0  0
   11.6882   36.6184   13.4259 H   0  0  0  0  0  0  0  0  0  0  0  0
   11.0627   38.1860   13.8120 H   0  0  0  0  0  0  0  0  0  0  0  0
   11.5757   35.8584   15.5946 H   0  0  0  0  0  0  0  0  0  0  0  0
   10.4161   37.1423   15.7477 H   0  0  0  0  0  0  0  0  0  0  0  0
   16.2677   34.1352   29.5435 H   0  0  0  0  0  0  0  0  0  0  0  0
   15.8663   35.4305   28.4021 H   0  0  0  0  0  0  0  0  0  0  0  0
   17.5466   35.1514   28.8849 H   0  0  0  0  0  0  0  0  0  0  0  0
   15.7788   33.3424   27.2279 H   0  0  0  0  0  0  0  0  0  0  0  0
   18.4454   32.7775   28.5462 H   0  0  0  0  0  0  0  0  0  0  0  0
   17.9721   31.9531   27.0814 H   0  0  0  0  0  0  0  0  0  0  0  0
   16.9691   31.8220   28.5328 H   0  0  0  0  0  0  0  0  0  0  0  0
   23.2994   34.5340   26.1355 H   0  0  0  0  0  0  0  0  0  0  0  0
   23.5683   33.9065   29.0695 H   0  0  0  0  0  0  0  0  0  0  0  0
   24.0876   35.3547   28.2146 H   0  0  0  0  0  0  0  0  0  0  0  0
   25.3601   32.6630   28.5706 H   0  0  0  0  0  0  0  0  0  0  0  0
   26.1561   34.2089   28.5636 H   0  0  0  0  0  0  0  0  0  0  0  0
   26.8452   32.8626   26.6584 H   0  0  0  0  0  0  0  0  0  0  0  0
   25.2165   31.2836   26.4114 H   0  0  0  0  0  0  0  0  0  0  0  0
   24.9102   32.2401   24.9886 H   0  0  0  0  0  0  0  0  0  0  0  0
   23.2388   31.8079   27.4156 H   0  0  0  0  0  0  0  0  0  0  0  0
   22.7220   32.1353   25.7831 H   0  0  0  0  0  0  0  0  0  0  0  0
   26.0967   35.9445   27.2680 H   0  0  0  0  0  0  0  0  0  0  0  0
   26.6700   36.4426   25.6858 H   0  0  0  0  0  0  0  0  0  0  0  0
   27.6500   35.3446   26.6666 H   0  0  0  0  0  0  0  0  0  0  0  0
   25.9506   33.4430   23.9369 H   0  0  0  0  0  0  0  0  0  0  0  0
   27.5490   33.8918   24.5458 H   0  0  0  0  0  0  0  0  0  0  0  0
   26.4699   35.1124   23.8472 H   0  0  0  0  0  0  0  0  0  0  0  0
  1  2  1  0
  2  3  2  0
  2  4  1  0
  4 12  1  0
  4  5  2  0
  5  6  1  0
  5 44  1  0
  6  7  2  0
  7  8  1  0
  7 45  1  0
  8  9  2  0
  9 33  1  0
  9 10  1  0
 10 11  2  0
 11  1  1  0
 11  6  1  0
 12 13  2  0
 13 14  1  0
 13 46  1  0
 14 15  2  0
 14 47  1  0
 15 18  1  0
 15 16  1  0
 16 17  2  0
 17 12  1  0
 17 48  1  0
 18 20  1  0
 18 19  1  0
 20 21  2  0
 20 22  2  0
 20 23  1  0
 23 24  1  0
 23 49  1  0
 23 50  1  0
 24 25  1  0
 24 51  1  0
 25 26  1  0
 25 52  1  0
 25 53  1  0
 26 27  1  0
 26 54  1  0
 26 55  1  0
 27 28  1  0
 27 56  1  0
 27 57  1  0
 28 29  1  0
 28 58  1  0
 28 59  1  0
 29 24  1  0
 29 60  1  0
 29 61  1  0
 30 31  1  0
 30 62  1  0
 30 63  1  0
 30 64  1  0
 31 32  1  0
 31  1  1  0
 31 65  1  0
 32 66  1  0
 32 67  1  0
 32 68  1  0
 33 35  1  0
 33 34  1  0
 35 36  1  0
 35 69  1  6
 36 37  1  0
 36 70  1  0
 36 71  1  0
 37 38  1  0
 37 72  1  0
 37 73  1  0
 38 41  1  0
 38 39  1  0
 38 74  1  1
 39 40  1  0
 39 75  1  0
 39 76  1  0
 40 35  1  0
 40 77  1  0
 40 78  1  0
 41 42  1  0
 41 43  1  0
 42 79  1  0
 42 80  1  0
 42 81  1  0
 43 82  1  0
 43 83  1  0
 43 84  1  0
M  END
>  <minimizedAffinity>  (6) 
-10.41530

>  <mol_id>  (6) 
72342

>  <source_index>  (6) 
5

>  <layer>  (6) 
L2

>  <uniprot>  (6) 
O75460

>  <paff>  (6) 
9.7446999999999999

>  <smiles>  (6) 
CC(C)n1c(=O)c(-c2ccc(NS(=O)(=O)CC3CCCCC3)nc2)cc2cnc(N[C@H]3CC[C@H](N(C)C)CC3)nc21

>  <aimnet_interaction_kcal_mol>  (6) 
-92.39153857047998

$$$$
L2:O75460:84980
     RDKit          3D

 68 72  0  0  0  0  0  0  0  0999 V2000
   17.4683   34.5270   25.0709 N   0  0  0  0  0  0  0  0  0  0  0  0
   16.9919   35.2397   23.9758 C   0  0  0  0  0  0  0  0  0  0  0  0
   17.7113   35.6658   23.0753 O   0  0  0  0  0  0  0  0  0  0  0  0
   15.5377   35.4820   23.9584 C   0  0  0  0  0  0  0  0  0  0  0  0
   14.7985   35.3248   25.0199 N   0  0  0  0  0  0  0  0  0  0  0  0
   15.3061   34.6499   26.0866 C   0  0  0  0  0  0  0  0  0  0  0  0
   14.5031   34.2188   27.1705 C   0  0  0  0  0  0  0  0  0  0  0  0
   15.0074   33.7476   28.2903 N   0  0  0  0  0  0  0  0  0  0  0  0
   16.3809   33.7209   28.3632 C   0  0  0  0  0  0  0  0  0  0  0  0
   17.2132   33.9100   27.3205 N   0  0  0  0  0  0  0  0  0  0  0  0
   16.6801   34.3398   26.1892 C   0  0  0  0  0  0  0  0  0  0  0  0
   14.9145   35.9157   22.7011 C   0  0  0  0  0  0  0  0  0  0  0  0
   15.1949   35.2832   21.4792 C   0  0  0  0  0  0  0  0  0  0  0  0
   14.4821   35.5952   20.3310 C   0  0  0  0  0  0  0  0  0  0  0  0
   13.5280   36.6146   20.3442 C   0  0  0  0  0  0  0  0  0  0  0  0
   13.2790   37.2424   21.5639 C   0  0  0  0  0  0  0  0  0  0  0  0
   12.3410   38.2418   21.5995 F   0  0  0  0  0  0  0  0  0  0  0  0
   13.9482   36.9257   22.7205 C   0  0  0  0  0  0  0  0  0  0  0  0
   12.9249   37.1296   19.1660 N   0  0  0  0  0  0  0  0  0  0  0  0
   12.4344   37.9916   19.3828 H   0  0  0  0  0  0  0  0  0  0  0  0
   11.7440   36.1407   18.3485 S   0  0  0  0  0  0  0  0  0  0  0  0
   10.4705   36.8512   18.5526 O   0  0  0  0  0  0  0  0  0  0  0  0
   11.9524   34.7435   18.7496 O   0  0  0  0  0  0  0  0  0  0  0  0
   12.1567   36.2698   16.7440 N   0  0  0  0  0  0  0  0  0  0  0  0
   11.1902   36.9314   15.8435 C   0  0  0  0  0  0  0  0  0  0  0  0
   12.0066   37.2337   14.6034 C   0  0  0  0  0  0  0  0  0  0  0  0
   13.3828   37.5472   15.1723 C   0  0  0  0  0  0  0  0  0  0  0  0
   13.5415   36.5500   16.3176 C   0  0  0  0  0  0  0  0  0  0  0  0
   19.0736   33.1160   23.8053 C   0  0  0  0  0  0  0  0  0  0  0  0
   18.8405   33.9510   25.0489 C   0  0  0  0  0  0  0  0  0  0  0  0
   19.8654   35.0491   25.2267 C   0  0  0  0  0  0  0  0  0  0  0  0
   16.8985   33.4974   29.5747 N   0  0  0  0  0  0  0  0  0  0  0  0
   16.2636   33.2012   30.3114 H   0  0  0  0  0  0  0  0  0  0  0  0
   18.2771   33.8219   29.9527 C   0  0  2  0  0  0  0  0  0  0  0  0
   19.2522   32.6007   29.9412 C   0  0  0  0  0  0  0  0  0  0  0  0
   19.7681   32.2831   31.2382 N   0  0  0  0  0  0  0  0  0  0  0  0
   20.4751   33.3663   31.8690 C   0  0  0  0  0  0  0  0  0  0  0  0
   19.6974   34.6938   31.8050 C   0  0  1  0  0  0  0  0  0  0  0  0
   20.3546   35.5780   30.9156 F   0  0  0  0  0  0  0  0  0  0  0  0
   18.2819   34.4716   31.3311 C   0  0  0  0  0  0  0  0  0  0  0  0
   19.0994   31.8348   31.8528 H   0  0  0  0  0  0  0  0  0  0  0  0
   13.4219   34.2656   27.0835 H   0  0  0  0  0  0  0  0  0  0  0  0
   15.9406   34.5037   21.4366 H   0  0  0  0  0  0  0  0  0  0  0  0
   14.6403   35.0208   19.4273 H   0  0  0  0  0  0  0  0  0  0  0  0
   13.6986   37.4376   23.6366 H   0  0  0  0  0  0  0  0  0  0  0  0
   10.8113   37.8530   16.2918 H   0  0  0  0  0  0  0  0  0  0  0  0
   10.3374   36.2861   15.6511 H   0  0  0  0  0  0  0  0  0  0  0  0
   11.5746   38.0463   14.0230 H   0  0  0  0  0  0  0  0  0  0  0  0
   12.0364   36.3551   13.9668 H   0  0  0  0  0  0  0  0  0  0  0  0
   13.3961   38.5672   15.5618 H   0  0  0  0  0  0  0  0  0  0  0  0
   14.1930   37.4768   14.4520 H   0  0  0  0  0  0  0  0  0  0  0  0
   14.1300   36.9646   17.1310 H   0  0  0  0  0  0  0  0  0  0  0  0
   14.0198   35.6222   16.0142 H   0  0  0  0  0  0  0  0  0  0  0  0
   20.0317   32.6153   23.8926 H   0  0  0  0  0  0  0  0  0  0  0  0
   19.1173   33.7180   22.9078 H   0  0  0  0  0  0  0  0  0  0  0  0
   18.3169   32.3442   23.6827 H   0  0  0  0  0  0  0  0  0  0  0  0
   18.8442   33.3157   25.9252 H   0  0  0  0  0  0  0  0  0  0  0  0
   19.8864   35.7050   24.3615 H   0  0  0  0  0  0  0  0  0  0  0  0
   20.8491   34.5977   25.3463 H   0  0  0  0  0  0  0  0  0  0  0  0
   19.6651   35.6449   26.1148 H   0  0  0  0  0  0  0  0  0  0  0  0
   18.6214   34.5407   29.2144 H   0  0  0  0  0  0  0  0  0  0  0  0
   20.0827   32.8311   29.2721 H   0  0  0  0  0  0  0  0  0  0  0  0
   18.7679   31.7148   29.5310 H   0  0  0  0  0  0  0  0  0  0  0  0
   21.4423   33.4993   31.3813 H   0  0  0  0  0  0  0  0  0  0  0  0
   20.6659   33.0921   32.9052 H   0  0  0  0  0  0  0  0  0  0  0  0
   19.6973   35.2190   32.7640 H   0  0  0  0  0  0  0  0  0  0  0  0
   17.7400   35.4140   31.3087 H   0  0  0  0  0  0  0  0  0  0  0  0
   17.7806   33.8243   32.0520 H   0  0  0  0  0  0  0  0  0  0  0  0
  1  2  1  0
  2  3  2  0
  2  4  1  0
  4 12  1  0
  4  5  2  0
  5  6  1  0
  6  7  2  0
  7  8  1  0
  7 42  1  0
  8  9  2  0
  9 32  1  0
  9 10  1  0
 10 11  2  0
 11  1  1  0
 11  6  1  0
 12 13  2  0
 13 14  1  0
 13 43  1  0
 14 15  2  0
 14 44  1  0
 15 19  1  0
 15 16  1  0
 16 17  1  0
 16 18  2  0
 18 12  1  0
 18 45  1  0
 19 21  1  0
 19 20  1  0
 21 22  2  0
 21 23  2  0
 21 24  1  0
 24 25  1  0
 25 26  1  0
 25 46  1  0
 25 47  1  0
 26 27  1  0
 26 48  1  0
 26 49  1  0
 27 28  1  0
 27 50  1  0
 27 51  1  0
 28 24  1  0
 28 52  1  0
 28 53  1  0
 29 30  1  0
 29 54  1  0
 29 55  1  0
 29 56  1  0
 30 31  1  0
 30  1  1  0
 30 57  1  0
 31 58  1  0
 31 59  1  0
 31 60  1  0
 32 34  1  0
 32 33  1  0
 34 35  1  0
 34 61  1  6
 35 36  1  0
 35 62  1  0
 35 63  1  0
 36 37  1  0
 36 41  1  0
 37 38  1  0
 37 64  1  0
 37 65  1  0
 38 39  1  0
 38 40  1  0
 38 66  1  1
 40 34  1  0
 40 67  1  0
 40 68  1  0
M  END
>  <minimizedAffinity>  (7) 
-10.78470

>  <mol_id>  (7) 
84980

>  <source_index>  (7) 
6

>  <layer>  (7) 
L2

>  <uniprot>  (7) 
O75460

>  <paff>  (7) 
9.0131999999999994

>  <smiles>  (7) 
CC(C)n1c(=O)c(-c2ccc(NS(=O)(=O)N3CCCC3)c(F)c2)nc2cnc(N[C@@H]3CNC[C@@H](F)C3)nc21

>  <aimnet_interaction_kcal_mol>  (7) 
-83.96440809280783

$$$$
L2:O75460:96586
     RDKit          3D

 72 76  0  0  0  0  0  0  0  0999 V2000
   17.6839   35.0562   25.7444 N   0  0  0  0  0  0  0  0  0  0  0  0
   17.2549   35.2046   24.4331 C   0  0  0  0  0  0  0  0  0  0  0  0
   18.0083   35.2603   23.4688 O   0  0  0  0  0  0  0  0  0  0  0  0
   15.7920   35.3161   24.2529 C   0  0  0  0  0  0  0  0  0  0  0  0
   14.9400   35.2193   25.2330 N   0  0  0  0  0  0  0  0  0  0  0  0
   15.4044   34.7881   26.4368 C   0  0  0  0  0  0  0  0  0  0  0  0
   14.5576   34.3096   27.4597 C   0  0  0  0  0  0  0  0  0  0  0  0
   14.9919   33.9822   28.6568 N   0  0  0  0  0  0  0  0  0  0  0  0
   16.3316   34.1536   28.8953 C   0  0  0  0  0  0  0  0  0  0  0  0
   17.2192   34.5684   27.9753 N   0  0  0  0  0  0  0  0  0  0  0  0
   16.7810   34.7996   26.7554 C   0  0  0  0  0  0  0  0  0  0  0  0
   15.3002   35.5225   22.8937 C   0  0  0  0  0  0  0  0  0  0  0  0
   15.7290   34.7109   21.8375 C   0  0  0  0  0  0  0  0  0  0  0  0
   15.1927   34.8724   20.5739 C   0  0  0  0  0  0  0  0  0  0  0  0
   14.2055   35.8348   20.3386 C   0  0  0  0  0  0  0  0  0  0  0  0
   13.8335   36.6664   21.3935 C   0  0  0  0  0  0  0  0  0  0  0  0
   12.9247   37.6620   21.1547 F   0  0  0  0  0  0  0  0  0  0  0  0
   14.3591   36.5242   22.6546 C   0  0  0  0  0  0  0  0  0  0  0  0
   13.5938   35.9719   19.0613 N   0  0  0  0  0  0  0  0  0  0  0  0
   14.0408   35.3530   18.3878 H   0  0  0  0  0  0  0  0  0  0  0  0
   11.8891   35.5071   19.0311 S   0  0  0  0  0  0  0  0  0  0  0  0
   11.7439   34.4849   17.9763 O   0  0  0  0  0  0  0  0  0  0  0  0
   11.4188   35.2055   20.3873 O   0  0  0  0  0  0  0  0  0  0  0  0
   11.1514   37.0684   18.4698 C   0  0  0  0  0  0  0  0  0  0  0  0
   11.4361   37.3140   17.0367 C   0  0  0  0  0  0  0  0  0  0  0  0
   10.6231   36.7416   16.0663 C   0  0  0  0  0  0  0  0  0  0  0  0
   10.8768   36.9641   14.7239 C   0  0  0  0  0  0  0  0  0  0  0  0
   11.9269   37.7844   14.3328 C   0  0  0  0  0  0  0  0  0  0  0  0
   12.7480   38.3509   15.3003 C   0  0  0  0  0  0  0  0  0  0  0  0
   12.5141   38.1034   16.6442 C   0  0  0  0  0  0  0  0  0  0  0  0
   19.5506   33.5212   25.9857 C   0  0  0  0  0  0  0  0  0  0  0  0
   19.1326   34.9646   26.0700 C   0  0  0  0  0  0  0  0  0  0  0  0
   20.0086   35.8603   25.2352 C   0  0  0  0  0  0  0  0  0  0  0  0
   16.7518   33.9157   30.1369 N   0  0  0  0  0  0  0  0  0  0  0  0
   16.1267   33.4705   30.8089 H   0  0  0  0  0  0  0  0  0  0  0  0
   18.1246   34.1291   30.5834 C   0  0  2  0  0  0  0  0  0  0  0  0
   19.0270   32.9685   30.1743 C   0  0  0  0  0  0  0  0  0  0  0  0
   20.3638   33.2185   30.6404 N   0  0  0  0  0  0  0  0  0  0  0  0
   20.4578   33.3480   32.0822 C   0  0  0  0  0  0  0  0  0  0  0  0
   19.6163   34.5392   32.5143 C   0  0  1  0  0  0  0  0  0  0  0  0
   18.1711   34.3272   32.0858 C   0  0  0  0  0  0  0  0  0  0  0  0
   21.0318   32.5414   30.2871 H   0  0  0  0  0  0  0  0  0  0  0  0
   19.7478   34.8945   33.9694 C   0  0  0  0  0  0  0  0  0  0  0  0
   19.1786   33.9225   34.8130 F   0  0  0  0  0  0  0  0  0  0  0  0
   13.4972   34.1994   27.2628 H   0  0  0  0  0  0  0  0  0  0  0  0
   16.4641   33.9411   22.0101 H   0  0  0  0  0  0  0  0  0  0  0  0
   15.5373   34.2247   19.7751 H   0  0  0  0  0  0  0  0  0  0  0  0
   14.0160   37.1573   23.4602 H   0  0  0  0  0  0  0  0  0  0  0  0
   11.5429   37.8327   19.1285 H   0  0  0  0  0  0  0  0  0  0  0  0
   10.0989   36.9249   18.6786 H   0  0  0  0  0  0  0  0  0  0  0  0
    9.7943   36.1111   16.3636 H   0  0  0  0  0  0  0  0  0  0  0  0
   10.2580   36.4863   13.9831 H   0  0  0  0  0  0  0  0  0  0  0  0
   12.0982   37.9853   13.2845 H   0  0  0  0  0  0  0  0  0  0  0  0
   13.5729   38.9833   15.0009 H   0  0  0  0  0  0  0  0  0  0  0  0
   13.1604   38.5359   17.4003 H   0  0  0  0  0  0  0  0  0  0  0  0
   20.5841   33.4169   26.3098 H   0  0  0  0  0  0  0  0  0  0  0  0
   19.4754   33.1536   24.9650 H   0  0  0  0  0  0  0  0  0  0  0  0
   18.9250   32.9067   26.6255 H   0  0  0  0  0  0  0  0  0  0  0  0
   19.1829   35.2909   27.1015 H   0  0  0  0  0  0  0  0  0  0  0  0
   20.1420   35.5050   24.2232 H   0  0  0  0  0  0  0  0  0  0  0  0
   20.9721   35.8726   25.7317 H   0  0  0  0  0  0  0  0  0  0  0  0
   19.6126   36.8704   25.1809 H   0  0  0  0  0  0  0  0  0  0  0  0
   18.4794   35.0319   30.0885 H   0  0  0  0  0  0  0  0  0  0  0  0
   19.0235   32.8587   29.0897 H   0  0  0  0  0  0  0  0  0  0  0  0
   18.5966   32.0433   30.5846 H   0  0  0  0  0  0  0  0  0  0  0  0
   21.5068   33.5039   32.3396 H   0  0  0  0  0  0  0  0  0  0  0  0
   20.1217   32.4540   32.6221 H   0  0  0  0  0  0  0  0  0  0  0  0
   20.0051   35.4077   31.9745 H   0  0  0  0  0  0  0  0  0  0  0  0
   17.5467   35.1764   32.3726 H   0  0  0  0  0  0  0  0  0  0  0  0
   17.7727   33.4440   32.5841 H   0  0  0  0  0  0  0  0  0  0  0  0
   19.2297   35.8331   34.1852 H   0  0  0  0  0  0  0  0  0  0  0  0
   20.7950   34.9987   34.2593 H   0  0  0  0  0  0  0  0  0  0  0  0
  1  2  1  0
  2  3  2  0
  2  4  1  0
  4 12  1  0
  4  5  2  0
  5  6  1  0
  6  7  2  0
  7  8  1  0
  7 45  1  0
  8  9  2  0
  9 34  1  0
  9 10  1  0
 10 11  2  0
 11  1  1  0
 11  6  1  0
 12 13  2  0
 13 14  1  0
 13 46  1  0
 14 15  2  0
 14 47  1  0
 15 19  1  0
 15 16  1  0
 16 17  1  0
 16 18  2  0
 18 12  1  0
 18 48  1  0
 19 21  1  0
 19 20  1  0
 21 22  2  0
 21 23  2  0
 21 24  1  0
 24 25  1  0
 24 49  1  0
 24 50  1  0
 25 26  2  0
 26 27  1  0
 26 51  1  0
 27 28  2  0
 27 52  1  0
 28 29  1  0
 28 53  1  0
 29 30  2  0
 29 54  1  0
 30 25  1  0
 30 55  1  0
 31 32  1  0
 31 56  1  0
 31 57  1  0
 31 58  1  0
 32 33  1  0
 32  1  1  0
 32 59  1  0
 33 60  1  0
 33 61  1  0
 33 62  1  0
 34 36  1  0
 34 35  1  0
 36 37  1  0
 36 63  1  6
 37 38  1  0
 37 64  1  0
 37 65  1  0
 38 39  1  0
 38 42  1  0
 39 40  1  0
 39 66  1  0
 39 67  1  0
 40 43  1  0
 40 41  1  0
 40 68  1  6
 41 36  1  0
 41 69  1  0
 41 70  1  0
 43 44  1  0
 43 71  1  0
 43 72  1  0
M  END
>  <minimizedAffinity>  (8) 
-10.87635

>  <mol_id>  (8) 
96586

>  <source_index>  (8) 
7

>  <layer>  (8) 
L2

>  <uniprot>  (8) 
O75460

>  <paff>  (8) 
9.6197999999999997

>  <smiles>  (8) 
CC(C)n1c(=O)c(-c2ccc(NS(=O)(=O)Cc3ccccc3)c(F)c2)nc2cnc(N[C@@H]3CNC[C@H](CF)C3)nc21

>  <aimnet_interaction_kcal_mol>  (8) 
-94.046752322919644

$$$$
L2:O75460:100233
     RDKit          3D

 68 72  0  0  0  0  0  0  0  0999 V2000
   17.0980   35.0745   24.1223 C   0  0  0  0  0  0  0  0  0  0  0  0
   17.7757   35.1095   23.0015 N   0  0  0  0  0  0  0  0  0  0  0  0
   18.8592   34.3186   22.9190 C   0  0  0  0  0  0  0  0  0  0  0  0
   19.2475   33.4819   23.9482 C   0  0  0  0  0  0  0  0  0  0  0  0
   18.5369   33.5098   25.1380 C   0  0  0  0  0  0  0  0  0  0  0  0
   17.3896   34.2884   25.2403 C   0  0  0  0  0  0  0  0  0  0  0  0
   16.5217   34.1766   26.4244 C   0  0  0  0  0  0  0  0  0  0  0  0
   15.1333   34.2853   26.3441 C   0  0  0  0  0  0  0  0  0  0  0  0
   14.4399   34.1062   27.5308 C   0  0  0  0  0  0  0  0  0  0  0  0
   15.0389   33.8574   28.6858 N   0  0  0  0  0  0  0  0  0  0  0  0
   16.3967   33.7467   28.6662 C   0  0  0  0  0  0  0  0  0  0  0  0
   17.1470   33.8800   27.5608 N   0  0  0  0  0  0  0  0  0  0  0  0
   16.9569   33.5132   29.8607 N   0  0  0  0  0  0  0  0  0  0  0  0
   16.2916   33.4435   30.6245 H   0  0  0  0  0  0  0  0  0  0  0  0
   18.2141   32.8443   30.2027 C   0  0  2  0  0  0  0  0  0  0  0  0
   18.7339   33.4679   31.4926 C   0  0  0  0  0  0  0  0  0  0  0  0
   19.3298   34.7809   31.2686 N   0  0  0  0  0  0  0  0  0  0  0  0
   20.4800   34.6653   30.3776 C   0  0  0  0  0  0  0  0  0  0  0  0
   20.1047   34.1003   29.0095 C   0  0  2  0  0  0  0  0  0  0  0  0
   19.3069   32.8101   29.1589 C   0  0  0  0  0  0  0  0  0  0  0  0
   18.6282   35.3383   30.7976 H   0  0  0  0  0  0  0  0  0  0  0  0
   21.3548   33.8617   28.1999 C   0  0  0  0  0  0  0  0  0  0  0  0
   21.0523   33.7805   26.8121 F   0  0  0  0  0  0  0  0  0  0  0  0
   15.9838   35.9210   24.2264 O   0  0  0  0  0  0  0  0  0  0  0  0
   13.1601   36.1730   21.1644 C   0  0  0  0  0  0  0  0  0  0  0  0
   14.0850   35.1292   21.2285 C   0  0  0  0  0  0  0  0  0  0  0  0
   14.0283   34.1959   20.2601 F   0  0  0  0  0  0  0  0  0  0  0  0
   15.0385   35.0065   22.1969 C   0  0  0  0  0  0  0  0  0  0  0  0
   15.1294   35.9811   23.1860 C   0  0  0  0  0  0  0  0  0  0  0  0
   14.2355   37.0542   23.1495 C   0  0  0  0  0  0  0  0  0  0  0  0
   14.2760   38.0091   24.0902 F   0  0  0  0  0  0  0  0  0  0  0  0
   13.2762   37.1393   22.1565 C   0  0  0  0  0  0  0  0  0  0  0  0
   12.4360   38.1899   22.1789 F   0  0  0  0  0  0  0  0  0  0  0  0
   12.1252   36.1988   20.2026 N   0  0  0  0  0  0  0  0  0  0  0  0
   11.4766   35.4260   20.3117 H   0  0  0  0  0  0  0  0  0  0  0  0
   14.0398   36.5093   18.4511 O   0  0  0  0  0  0  0  0  0  0  0  0
   12.5868   36.2238   18.5422 S   0  0  0  0  0  0  0  0  0  0  0  0
   12.0129   35.0231   17.9063 O   0  0  0  0  0  0  0  0  0  0  0  0
   11.6662   37.6606   17.9538 C   0  0  0  0  0  0  0  0  0  0  0  0
   11.9668   37.8796   16.5136 C   0  0  0  0  0  0  0  0  0  0  0  0
   11.4279   37.0183   15.5644 C   0  0  0  0  0  0  0  0  0  0  0  0
   11.8084   37.1204   14.2392 C   0  0  0  0  0  0  0  0  0  0  0  0
   12.6630   38.1356   13.8322 C   0  0  0  0  0  0  0  0  0  0  0  0
   13.1742   39.0220   14.7699 C   0  0  0  0  0  0  0  0  0  0  0  0
   12.8349   38.8877   16.1068 C   0  0  0  0  0  0  0  0  0  0  0  0
   19.4251   34.3646   21.9986 H   0  0  0  0  0  0  0  0  0  0  0  0
   20.0917   32.8262   23.8123 H   0  0  0  0  0  0  0  0  0  0  0  0
   18.8572   32.9446   25.9971 H   0  0  0  0  0  0  0  0  0  0  0  0
   14.6094   34.4221   25.4203 H   0  0  0  0  0  0  0  0  0  0  0  0
   13.3579   34.1559   27.5535 H   0  0  0  0  0  0  0  0  0  0  0  0
   17.9173   31.8197   30.4247 H   0  0  0  0  0  0  0  0  0  0  0  0
   19.4824   32.7974   31.9112 H   0  0  0  0  0  0  0  0  0  0  0  0
   17.9320   33.5437   32.2253 H   0  0  0  0  0  0  0  0  0  0  0  0
   21.2225   34.0132   30.8394 H   0  0  0  0  0  0  0  0  0  0  0  0
   20.9359   35.6482   30.2731 H   0  0  0  0  0  0  0  0  0  0  0  0
   19.4906   34.8498   28.5052 H   0  0  0  0  0  0  0  0  0  0  0  0
   20.0037   32.0324   29.4818 H   0  0  0  0  0  0  0  0  0  0  0  0
   18.8946   32.5080   28.2021 H   0  0  0  0  0  0  0  0  0  0  0  0
   21.8298   32.9282   28.4949 H   0  0  0  0  0  0  0  0  0  0  0  0
   22.0562   34.6827   28.2990 H   0  0  0  0  0  0  0  0  0  0  0  0
   15.6999   34.1605   22.1782 H   0  0  0  0  0  0  0  0  0  0  0  0
   11.9650   38.4858   18.5903 H   0  0  0  0  0  0  0  0  0  0  0  0
   10.6238   37.4154   18.1398 H   0  0  0  0  0  0  0  0  0  0  0  0
   10.7251   36.2564   15.8729 H   0  0  0  0  0  0  0  0  0  0  0  0
   11.4579   36.3892   13.5290 H   0  0  0  0  0  0  0  0  0  0  0  0
   12.9241   38.2470   12.7888 H   0  0  0  0  0  0  0  0  0  0  0  0
   13.8435   39.8109   14.4562 H   0  0  0  0  0  0  0  0  0  0  0  0
   13.2480   39.5734   16.8352 H   0  0  0  0  0  0  0  0  0  0  0  0
  1  2  2  0
  2  3  1  0
  3  4  2  0
  3 46  1  0
  4  5  1  0
  4 47  1  0
  5  6  2  0
  5 48  1  0
  6  7  1  0
  6  1  1  0
  7  8  2  0
  8  9  1  0
  8 49  1  0
  9 10  2  0
  9 50  1  0
 10 11  1  0
 11 13  1  0
 11 12  2  0
 12  7  1  0
 13 15  1  0
 13 14  1  0
 15 16  1  0
 15 51  1  1
 16 17  1  0
 16 52  1  0
 16 53  1  0
 17 18  1  0
 17 21  1  0
 18 19  1  0
 18 54  1  0
 18 55  1  0
 19 22  1  0
 19 20  1  0
 19 56  1  6
 20 15  1  0
 20 57  1  0
 20 58  1  0
 22 23  1  0
 22 59  1  0
 22 60  1  0
 24  1  1  0
 25 26  2  0
 26 27  1  0
 26 28  1  0
 28 29  2  0
 28 61  1  0
 29 24  1  0
 29 30  1  0
 30 31  1  0
 30 32  2  0
 32 33  1  0
 32 25  1  0
 34 25  1  0
 34 35  1  0
 36 37  2  0
 37 38  2  0
 37 39  1  0
 37 34  1  0
 39 40  1  0
 39 62  1  0
 39 63  1  0
 40 41  2  0
 41 42  1  0
 41 64  1  0
 42 43  2  0
 42 65  1  0
 43 44  1  0
 43 66  1  0
 44 45  2  0
 44 67  1  0
 45 40  1  0
 45 68  1  0
M  END
>  <minimizedAffinity>  (9) 
-11.11218

>  <mol_id>  (9) 
100233

>  <source_index>  (9) 
8

>  <layer>  (9) 
L2

>  <uniprot>  (9) 
O75460

>  <paff>  (9) 
6.2675999999999998

>  <smiles>  (9) 
O=S(=O)(Cc1ccccc1)Nc1c(F)cc(Oc2ncccc2-c2ccnc(N[C@@H]3CNC[C@@H](CF)C3)n2)c(F)c1F

>  <aimnet_interaction_kcal_mol>  (9) 
-104.65087307292029

$$$$
L2:O75460:127767
     RDKit          3D

 72 76  0  0  0  0  0  0  0  0999 V2000
   17.4153   34.4997   22.5497 N   0  0  0  0  0  0  0  0  0  0  0  0
   18.1678   34.2208   23.7159 C   0  0  0  0  0  0  0  0  0  0  0  0
   19.2271   33.6291   23.6511 O   0  0  0  0  0  0  0  0  0  0  0  0
   17.6124   34.6693   25.0062 C   0  0  0  0  0  0  0  0  0  0  0  0
   16.4938   35.4287   25.0208 C   0  0  0  0  0  0  0  0  0  0  0  0
   15.8656   35.8406   23.8114 C   0  0  0  0  0  0  0  0  0  0  0  0
   14.7930   36.7221   23.7248 C   0  0  0  0  0  0  0  0  0  0  0  0
   14.0884   36.9200   22.6132 N   0  0  0  0  0  0  0  0  0  0  0  0
   14.4901   36.1667   21.5659 C   0  0  0  0  0  0  0  0  0  0  0  0
   15.7015   35.6110   21.4346 N   0  0  0  0  0  0  0  0  0  0  0  0
   16.3383   35.3262   22.5835 C   0  0  0  0  0  0  0  0  0  0  0  0
   18.3216   34.2601   26.2308 C   0  0  0  0  0  0  0  0  0  0  0  0
   19.7193   34.2831   26.3197 C   0  0  0  0  0  0  0  0  0  0  0  0
   20.3521   33.8696   27.4681 C   0  0  0  0  0  0  0  0  0  0  0  0
   21.6947   33.8061   27.4919 F   0  0  0  0  0  0  0  0  0  0  0  0
   19.6535   33.5019   28.6284 C   0  0  0  0  0  0  0  0  0  0  0  0
   18.2591   33.4176   28.5102 C   0  0  0  0  0  0  0  0  0  0  0  0
   17.5316   32.8847   29.5064 F   0  0  0  0  0  0  0  0  0  0  0  0
   17.6206   33.8175   27.3474 C   0  0  0  0  0  0  0  0  0  0  0  0
   16.2598   33.7551   27.3110 F   0  0  0  0  0  0  0  0  0  0  0  0
   20.3185   33.2260   29.8194 N   0  0  0  0  0  0  0  0  0  0  0  0
   20.0242   33.9040   30.9718 C   0  0  0  0  0  0  0  0  0  0  0  0
   19.1738   34.7916   31.0275 O   0  0  0  0  0  0  0  0  0  0  0  0
   21.1185   32.5774   29.8325 H   0  0  0  0  0  0  0  0  0  0  0  0
   20.8240   33.4856   32.1398 C   0  0  0  0  0  0  0  0  0  0  0  0
   20.0877   33.2965   33.4351 C   0  0  0  0  0  0  0  0  0  0  0  0
   20.9707   34.4773   33.2561 C   0  0  0  0  0  0  0  0  0  0  0  0
   17.9843   32.3908   21.3805 C   0  0  0  0  0  0  0  0  0  0  0  0
   17.7873   33.8808   21.2504 C   0  0  0  0  0  0  0  0  0  0  0  0
   18.9622   34.6054   20.6362 C   0  0  0  0  0  0  0  0  0  0  0  0
   13.6167   35.9240   20.5606 N   0  0  0  0  0  0  0  0  0  0  0  0
   13.8252   35.1238   19.9825 H   0  0  0  0  0  0  0  0  0  0  0  0
   12.2633   36.4653   20.5167 C   0  0  1  0  0  0  0  0  0  0  0  0
   12.2393   37.7971   19.7850 C   0  0  0  0  0  0  0  0  0  0  0  0
   12.0254   37.6245   18.2881 C   0  0  0  0  0  0  0  0  0  0  0  0
   12.5756   36.2995   17.7967 C   0  0  1  0  0  0  0  0  0  0  0  0
   11.7685   35.1700   18.4142 C   0  0  0  0  0  0  0  0  0  0  0  0
   11.3303   35.4844   19.8409 C   0  0  0  0  0  0  0  0  0  0  0  0
   12.7108   36.1483   16.3533 N   0  0  0  0  0  0  0  0  0  0  0  0
   11.5886   36.6544   15.5847 C   0  0  0  0  0  0  0  0  0  0  0  0
   13.9695   36.6912   15.8712 C   0  0  0  0  0  0  0  0  0  0  0  0
   16.0506   35.7280   25.9599 H   0  0  0  0  0  0  0  0  0  0  0  0
   14.4771   37.2734   24.6055 H   0  0  0  0  0  0  0  0  0  0  0  0
   20.3083   34.6054   25.4778 H   0  0  0  0  0  0  0  0  0  0  0  0
   21.6492   32.8251   31.9174 H   0  0  0  0  0  0  0  0  0  0  0  0
   20.4013   32.4726   34.0576 H   0  0  0  0  0  0  0  0  0  0  0  0
   19.0192   33.4534   33.4057 H   0  0  0  0  0  0  0  0  0  0  0  0
   21.9237   34.5127   33.7623 H   0  0  0  0  0  0  0  0  0  0  0  0
   20.4924   35.4334   33.0940 H   0  0  0  0  0  0  0  0  0  0  0  0
   18.0722   31.9873   20.3796 H   0  0  0  0  0  0  0  0  0  0  0  0
   17.1343   31.9174   21.8713 H   0  0  0  0  0  0  0  0  0  0  0  0
   18.8872   32.1425   21.9224 H   0  0  0  0  0  0  0  0  0  0  0  0
   16.9122   34.0456   20.6349 H   0  0  0  0  0  0  0  0  0  0  0  0
   19.8738   34.4290   21.1956 H   0  0  0  0  0  0  0  0  0  0  0  0
   18.7910   35.6884   20.5974 H   0  0  0  0  0  0  0  0  0  0  0  0
   19.1059   34.2275   19.6257 H   0  0  0  0  0  0  0  0  0  0  0  0
   11.9505   36.6195   21.5423 H   0  0  0  0  0  0  0  0  0  0  0  0
   13.1678   38.2973   19.9999 H   0  0  0  0  0  0  0  0  0  0  0  0
   11.4711   38.4268   20.2058 H   0  0  0  0  0  0  0  0  0  0  0  0
   12.4831   38.4347   17.7242 H   0  0  0  0  0  0  0  0  0  0  0  0
   10.9598   37.6582   18.0560 H   0  0  0  0  0  0  0  0  0  0  0  0
   13.5910   36.2241   18.1852 H   0  0  0  0  0  0  0  0  0  0  0  0
   12.3461   34.2506   18.3896 H   0  0  0  0  0  0  0  0  0  0  0  0
   10.9064   34.9744   17.7870 H   0  0  0  0  0  0  0  0  0  0  0  0
   11.2524   34.5769   20.4338 H   0  0  0  0  0  0  0  0  0  0  0  0
   10.3458   35.9423   19.8329 H   0  0  0  0  0  0  0  0  0  0  0  0
   10.6521   36.3231   16.0244 H   0  0  0  0  0  0  0  0  0  0  0  0
   11.6438   36.2614   14.5746 H   0  0  0  0  0  0  0  0  0  0  0  0
   11.5614   37.7512   15.5188 H   0  0  0  0  0  0  0  0  0  0  0  0
   14.7878   36.0613   16.2116 H   0  0  0  0  0  0  0  0  0  0  0  0
   14.1403   37.7316   16.1998 H   0  0  0  0  0  0  0  0  0  0  0  0
   13.9716   36.7126   14.7894 H   0  0  0  0  0  0  0  0  0  0  0  0
  1  2  1  0
  2  3  2  0
  2  4  1  0
  4 12  1  0
  4  5  2  0
  5  6  1  0
  5 42  1  0
  6  7  2  0
  7  8  1  0
  7 43  1  0
  8  9  2  0
  9 31  1  0
  9 10  1  0
 10 11  2  0
 11  1  1  0
 11  6  1  0
 12 13  2  0
 13 14  1  0
 13 44  1  0
 14 15  1  0
 14 16  2  0
 16 21  1  0
 16 17  1  0
 17 18  1  0
 17 19  2  0
 19 20  1  0
 19 12  1  0
 21 22  1  0
 21 24  1  0
 22 23  2  0
 22 25  1  0
 25 26  1  0
 25 45  1  0
 26 27  1  0
 26 46  1  0
 26 47  1  0
 27 25  1  0
 27 48  1  0
 27 49  1  0
 28 29  1  0
 28 50  1  0
 28 51  1  0
 28 52  1  0
 29 30  1  0
 29  1  1  0
 29 53  1  0
 30 54  1  0
 30 55  1  0
 30 56  1  0
 31 33  1  0
 31 32  1  0
 33 34  1  0
 33 57  1  1
 34 35  1  0
 34 58  1  0
 34 59  1  0
 35 36  1  0
 35 60  1  0
 35 61  1  0
 36 39  1  0
 36 37  1  0
 36 62  1  1
 37 38  1  0
 37 63  1  0
 37 64  1  0
 38 33  1  0
 38 65  1  0
 38 66  1  0
 39 40  1  0
 39 41  1  0
 40 67  1  0
 40 68  1  0
 40 69  1  0
 41 70  1  0
 41 71  1  0
 41 72  1  0
M  END
>  <minimizedAffinity>  (10) 
-10.14998

>  <mol_id>  (10) 
127767

>  <source_index>  (10) 
9

>  <layer>  (10) 
L2

>  <uniprot>  (10) 
O75460

>  <paff>  (10) 
8.8538999999999994

>  <smiles>  (10) 
CC(C)n1c(=O)c(-c2cc(F)c(NC(=O)C3CC3)c(F)c2F)cc2cnc(N[C@H]3CC[C@H](N(C)C)CC3)nc21

>  <aimnet_interaction_kcal_mol>  (10) 
-81.515601371123921

$$$$
