L2:O75460:4142
     RDKit          3D

 81 85  0  0  0  0  0  0  0  0999 V2000
   17.0389   34.8006   22.4409 N   0  0  0  0  0  0  0  0  0  0  0  0
   16.0583   34.9568   21.4645 C   0  0  0  0  0  0  0  0  0  0  0  0
   16.2036   34.6665   20.2836 O   0  0  0  0  0  0  0  0  0  0  0  0
   14.7041   35.5152   21.9269 C   0  0  0  0  0  0  0  0  0  0  0  0
   14.4422   35.7359   23.1838 N   0  0  0  0  0  0  0  0  0  0  0  0
   15.4550   35.4892   24.1191 C   0  0  0  0  0  0  0  0  0  0  0  0
   15.2341   35.6916   25.4637 C   0  0  0  0  0  0  0  0  0  0  0  0
   16.1568   35.4865   26.4257 N   0  0  0  0  0  0  0  0  0  0  0  0
   17.3574   35.0638   26.0229 C   0  0  0  0  0  0  0  0  0  0  0  0
   17.6771   34.8399   24.7431 N   0  0  0  0  0  0  0  0  0  0  0  0
   16.7301   35.0507   23.8056 C   0  0  0  0  0  0  0  0  0  0  0  0
   13.6357   35.8108   20.9264 C   0  0  0  0  0  0  0  0  0  0  0  0
   13.4100   37.1500   20.5646 C   0  0  0  0  0  0  0  0  0  0  0  0
   12.4387   37.4789   19.6128 C   0  0  0  0  0  0  0  0  0  0  0  0
   11.6996   36.4677   19.0011 C   0  0  0  0  0  0  0  0  0  0  0  0
   11.9271   35.1368   19.3638 C   0  0  0  0  0  0  0  0  0  0  0  0
   11.2324   34.1507   18.7776 F   0  0  0  0  0  0  0  0  0  0  0  0
   12.8943   34.8007   20.3085 C   0  0  0  0  0  0  0  0  0  0  0  0
   10.6719   36.8189   18.0683 N   0  0  0  0  0  0  0  0  0  0  0  0
    9.7692   36.3641   18.2188 H   0  0  0  0  0  0  0  0  0  0  0  0
   11.0727   36.7038   16.4268 S   0  0  0  0  0  0  0  0  0  0  0  0
    9.8263   36.3729   15.7679 O   0  0  0  0  0  0  0  0  0  0  0  0
   12.2522   35.8855   16.2606 O   0  0  0  0  0  0  0  0  0  0  0  0
   11.4646   38.4065   16.0329 C   0  0  0  0  0  0  0  0  0  0  0  0
   12.9639   38.5730   15.8486 C   0  0  0  0  0  0  0  0  0  0  0  0
   13.4749   40.0340   15.9027 C   0  0  0  0  0  0  0  0  0  0  0  0
   14.5001   39.6555   14.8079 C   0  0  0  0  0  0  0  0  0  0  0  0
   14.7223   40.5966   13.8650 F   0  0  0  0  0  0  0  0  0  0  0  0
   15.7099   39.2581   15.2628 F   0  0  0  0  0  0  0  0  0  0  0  0
   13.5337   38.5167   14.4080 C   0  0  0  0  0  0  0  0  0  0  0  0
   18.3567   32.8198   21.7090 C   0  0  0  0  0  0  0  0  0  0  0  0
   18.3834   34.3008   22.0947 C   0  0  0  0  0  0  0  0  0  0  0  0
   19.0573   35.1476   21.0100 C   0  0  0  0  0  0  0  0  0  0  0  0
   18.2767   34.8576   27.0116 N   0  0  0  0  0  0  0  0  0  0  0  0
   18.5641   35.7004   27.4855 H   0  0  0  0  0  0  0  0  0  0  0  0
   18.8946   33.5723   27.2662 C   0  0  1  0  0  0  0  0  0  0  0  0
   20.1080   33.7675   28.1747 C   0  0  0  0  0  0  0  0  0  0  0  0
   19.7477   34.2684   29.5787 C   0  0  0  0  0  0  0  0  0  0  0  0
   18.3253   33.8861   30.0624 C   0  0  1  0  0  0  0  0  0  0  0  0
   17.9419   32.5330   29.4347 C   0  0  0  0  0  0  0  0  0  0  0  0
   17.9013   32.5868   27.9007 C   0  0  0  0  0  0  0  0  0  0  0  0
   18.2581   33.8946   31.5457 N   0  0  0  0  0  0  0  0  0  0  0  0
   17.4386   34.9864   32.0799 C   0  0  0  0  0  0  0  0  0  0  0  0
   19.5823   33.8792   32.2091 C   0  0  0  0  0  0  0  0  0  0  0  0
   19.9336   35.0569   33.1227 C   0  0  0  0  0  0  0  0  0  0  0  0
   20.7611   35.9015   32.4452 F   0  0  0  0  0  0  0  0  0  0  0  0
   14.3006   36.0221   25.7542 H   0  0  0  0  0  0  0  0  0  0  0  0
   13.9666   37.8987   21.0057 H   0  0  0  0  0  0  0  0  0  0  0  0
   12.2701   38.4663   19.3646 H   0  0  0  0  0  0  0  0  0  0  0  0
   13.0621   33.8116   20.5504 H   0  0  0  0  0  0  0  0  0  0  0  0
   11.1346   39.0384   16.8308 H   0  0  0  0  0  0  0  0  0  0  0  0
   10.9698   38.6763   15.1234 H   0  0  0  0  0  0  0  0  0  0  0  0
   13.2334   37.8295   16.5694 H   0  0  0  0  0  0  0  0  0  0  0  0
   13.9083   40.3193   16.8385 H   0  0  0  0  0  0  0  0  0  0  0  0
   12.8102   40.8640   15.7839 H   0  0  0  0  0  0  0  0  0  0  0  0
   14.0134   37.5943   14.1550 H   0  0  0  0  0  0  0  0  0  0  0  0
   12.8980   38.5970   13.5510 H   0  0  0  0  0  0  0  0  0  0  0  0
   19.3473   32.4967   21.4658 H   0  0  0  0  0  0  0  0  0  0  0  0
   17.7188   32.6836   20.8608 H   0  0  0  0  0  0  0  0  0  0  0  0
   17.9853   32.2439   22.5308 H   0  0  0  0  0  0  0  0  0  0  0  0
   18.9791   34.3937   22.9787 H   0  0  0  0  0  0  0  0  0  0  0  0
   18.4915   35.0830   20.1042 H   0  0  0  0  0  0  0  0  0  0  0  0
   20.0487   34.7837   20.8380 H   0  0  0  0  0  0  0  0  0  0  0  0
   19.1023   36.1675   21.3304 H   0  0  0  0  0  0  0  0  0  0  0  0
   19.2078   33.1531   26.3329 H   0  0  0  0  0  0  0  0  0  0  0  0
   20.7615   34.4811   27.7180 H   0  0  0  0  0  0  0  0  0  0  0  0
   20.5705   32.8097   28.2917 H   0  0  0  0  0  0  0  0  0  0  0  0
   19.8239   35.3357   29.5807 H   0  0  0  0  0  0  0  0  0  0  0  0
   20.4313   33.7940   30.2514 H   0  0  0  0  0  0  0  0  0  0  0  0
   17.6056   34.6092   29.7398 H   0  0  0  0  0  0  0  0  0  0  0  0
   16.9745   32.2500   29.7938 H   0  0  0  0  0  0  0  0  0  0  0  0
   18.6896   31.8209   29.7153 H   0  0  0  0  0  0  0  0  0  0  0  0
   16.9136   32.8712   27.6032 H   0  0  0  0  0  0  0  0  0  0  0  0
   18.1806   31.6128   27.5567 H   0  0  0  0  0  0  0  0  0  0  0  0
   16.4854   34.9877   31.5938 H   0  0  0  0  0  0  0  0  0  0  0  0
   17.9301   35.9204   31.9037 H   0  0  0  0  0  0  0  0  0  0  0  0
   17.3022   34.8481   33.1321 H   0  0  0  0  0  0  0  0  0  0  0  0
   20.3249   33.8388   31.4398 H   0  0  0  0  0  0  0  0  0  0  0  0
   19.5487   33.0314   32.8610 H   0  0  0  0  0  0  0  0  0  0  0  0
   20.4269   34.6968   34.0013 H   0  0  0  0  0  0  0  0  0  0  0  0
   19.0423   35.5731   33.4124 H   0  0  0  0  0  0  0  0  0  0  0  0
  1  2  1  0
  2  3  2  0
  2  4  1  0
  4 12  1  0
  4  5  2  0
  5  6  1  0
  6  7  2  0
  7  8  1  0
  7 47  1  0
  8  9  2  0
  9 34  1  0
  9 10  1  0
 10 11  2  0
 11  1  1  0
 11  6  1  0
 12 13  2  0
 13 14  1  0
 13 48  1  0
 14 15  2  0
 14 49  1  0
 15 19  1  0
 15 16  1  0
 16 17  1  0
 16 18  2  0
 18 12  1  0
 18 50  1  0
 19 21  1  0
 19 20  1  0
 21 22  2  0
 21 23  2  0
 21 24  1  0
 24 25  1  0
 24 51  1  0
 24 52  1  0
 25 26  1  0
 25 53  1  0
 26 27  1  0
 26 54  1  0
 26 55  1  0
 27 28  1  0
 27 29  1  0
 27 30  1  0
 30 25  1  0
 30 56  1  0
 30 57  1  0
 31 32  1  0
 31 58  1  0
 31 59  1  0
 31 60  1  0
 32 33  1  0
 32  1  1  0
 32 61  1  0
 33 62  1  0
 33 63  1  0
 33 64  1  0
 34 36  1  0
 34 35  1  0
 36 37  1  0
 36 65  1  6
 37 38  1  0
 37 66  1  0
 37 67  1  0
 38 39  1  0
 38 68  1  0
 38 69  1  0
 39 42  1  0
 39 40  1  0
 39 70  1  6
 40 41  1  0
 40 71  1  0
 40 72  1  0
 41 36  1  0
 41 73  1  0
 41 74  1  0
 42 43  1  0
 42 44  1  0
 43 75  1  0
 43 76  1  0
 43 77  1  0
 44 45  1  0
 44 78  1  0
 44 79  1  0
 45 46  1  0
 45 80  1  0
 45 81  1  0
M  END
>  <minimizedAffinity>  (1) 
-9.76934

>  <mol_id>  (1) 
4142

>  <source_index>  (1) 
0

>  <layer>  (1) 
L2

>  <uniprot>  (1) 
O75460

>  <paff>  (1) 
9.5375999999999994

>  <smiles>  (1) 
CC(C)n1c(=O)c(-c2ccc(NS(=O)(=O)CC3CC(F)(F)C3)c(F)c2)nc2cnc(N[C@H]3CC[C@H](N(C)CCF)CC3)nc21

$$$$
L2:O75460:6730
     RDKit          3D

 68 71  0  0  0  0  0  0  0  0999 V2000
   16.9741   34.9285   22.1526 N   0  0  0  0  0  0  0  0  0  0  0  0
   16.0141   35.0538   21.1516 C   0  0  0  0  0  0  0  0  0  0  0  0
   16.1770   34.7123   19.9867 O   0  0  0  0  0  0  0  0  0  0  0  0
   14.6586   35.6468   21.5633 C   0  0  0  0  0  0  0  0  0  0  0  0
   14.3787   35.9345   22.8025 N   0  0  0  0  0  0  0  0  0  0  0  0
   15.3738   35.7267   23.7657 C   0  0  0  0  0  0  0  0  0  0  0  0
   15.1371   36.0111   25.0925 C   0  0  0  0  0  0  0  0  0  0  0  0
   16.0437   35.8530   26.0784 N   0  0  0  0  0  0  0  0  0  0  0  0
   17.2418   35.3863   25.7193 C   0  0  0  0  0  0  0  0  0  0  0  0
   17.5753   35.0797   24.4606 N   0  0  0  0  0  0  0  0  0  0  0  0
   16.6464   35.2525   23.4973 C   0  0  0  0  0  0  0  0  0  0  0  0
   13.6104   35.8983   20.5306 C   0  0  0  0  0  0  0  0  0  0  0  0
   13.3855   37.2218   20.1135 C   0  0  0  0  0  0  0  0  0  0  0  0
   12.4328   37.5093   19.1300 C   0  0  0  0  0  0  0  0  0  0  0  0
   11.7071   36.4727   18.5497 C   0  0  0  0  0  0  0  0  0  0  0  0
   11.9448   35.1570   18.9578 C   0  0  0  0  0  0  0  0  0  0  0  0
   11.2645   34.1563   18.3776 F   0  0  0  0  0  0  0  0  0  0  0  0
   12.8912   34.8593   19.9342 C   0  0  0  0  0  0  0  0  0  0  0  0
   10.7015   36.7339   17.5482 N   0  0  0  0  0  0  0  0  0  0  0  0
   10.2502   37.6337   17.7563 H   0  0  0  0  0  0  0  0  0  0  0  0
   11.3007   36.7999   15.9576 S   0  0  0  0  0  0  0  0  0  0  0  0
   10.2122   36.5753   15.0322 O   0  0  0  0  0  0  0  0  0  0  0  0
   12.5030   35.9989   15.9331 O   0  0  0  0  0  0  0  0  0  0  0  0
   11.7738   38.5171   15.8426 C   0  0  0  0  0  0  0  0  0  0  0  0
   13.2663   38.7426   15.6581 C   0  0  0  0  0  0  0  0  0  0  0  0
   13.6971   40.1764   15.8795 C   0  0  0  0  0  0  0  0  0  0  0  0
   13.8210   40.3950   17.2139 F   0  0  0  0  0  0  0  0  0  0  0  0
   12.7178   41.0079   15.4432 F   0  0  0  0  0  0  0  0  0  0  0  0
   18.2967   32.8964   21.5839 C   0  0  0  0  0  0  0  0  0  0  0  0
   18.3199   34.4031   21.8527 C   0  0  0  0  0  0  0  0  0  0  0  0
   18.9962   35.1637   20.7074 C   0  0  0  0  0  0  0  0  0  0  0  0
   18.1491   35.2385   26.7259 N   0  0  0  0  0  0  0  0  0  0  0  0
   18.5842   36.0914   27.0396 H   0  0  0  0  0  0  0  0  0  0  0  0
   18.5210   33.9502   27.2851 C   0  0  2  0  0  0  0  0  0  0  0  0
   17.2659   33.0518   27.3643 C   0  0  0  0  0  0  0  0  0  0  0  0
   16.2059   33.5474   28.2575 N   0  0  0  0  0  0  0  0  0  0  0  0
   16.7053   34.3276   29.3930 C   0  0  0  0  0  0  0  0  0  0  0  0
   18.1171   33.9240   29.8241 C   0  0  1  0  0  0  0  0  0  0  0  0
   19.1355   34.1267   28.6844 C   0  0  0  0  0  0  0  0  0  0  0  0
   15.5330   34.1023   27.7300 H   0  0  0  0  0  0  0  0  0  0  0  0
   18.5428   34.6913   31.0705 C   0  0  0  0  0  0  0  0  0  0  0  0
   17.4320   35.0602   31.7639 F   0  0  0  0  0  0  0  0  0  0  0  0
   14.2038   36.3690   25.3493 H   0  0  0  0  0  0  0  0  0  0  0  0
   13.9291   37.9898   20.5374 H   0  0  0  0  0  0  0  0  0  0  0  0
   12.2689   38.4849   18.8362 H   0  0  0  0  0  0  0  0  0  0  0  0
   13.0600   33.8807   20.2149 H   0  0  0  0  0  0  0  0  0  0  0  0
   11.4688   39.0099   16.7421 H   0  0  0  0  0  0  0  0  0  0  0  0
   11.2939   38.9100   14.9707 H   0  0  0  0  0  0  0  0  0  0  0  0
   13.5296   38.4611   14.6599 H   0  0  0  0  0  0  0  0  0  0  0  0
   13.7656   38.1488   16.3950 H   0  0  0  0  0  0  0  0  0  0  0  0
   14.6172   40.3509   15.3619 H   0  0  0  0  0  0  0  0  0  0  0  0
   19.2888   32.5567   21.3714 H   0  0  0  0  0  0  0  0  0  0  0  0
   17.6630   32.6933   20.7460 H   0  0  0  0  0  0  0  0  0  0  0  0
   17.9220   32.3860   22.4464 H   0  0  0  0  0  0  0  0  0  0  0  0
   18.9117   34.5637   22.7296 H   0  0  0  0  0  0  0  0  0  0  0  0
   18.4330   35.0283   19.8078 H   0  0  0  0  0  0  0  0  0  0  0  0
   19.9883   34.7885   20.5669 H   0  0  0  0  0  0  0  0  0  0  0  0
   19.0396   36.2055   20.9477 H   0  0  0  0  0  0  0  0  0  0  0  0
   19.2530   33.4902   26.6546 H   0  0  0  0  0  0  0  0  0  0  0  0
   17.5693   32.0864   27.7118 H   0  0  0  0  0  0  0  0  0  0  0  0
   16.8461   33.0343   26.3803 H   0  0  0  0  0  0  0  0  0  0  0  0
   16.0428   34.1859   30.2212 H   0  0  0  0  0  0  0  0  0  0  0  0
   16.7465   35.3510   29.0834 H   0  0  0  0  0  0  0  0  0  0  0  0
   18.0971   32.8805   30.0601 H   0  0  0  0  0  0  0  0  0  0  0  0
   19.9242   33.4133   28.8021 H   0  0  0  0  0  0  0  0  0  0  0  0
   19.4915   35.1335   28.7510 H   0  0  0  0  0  0  0  0  0  0  0  0
   19.0933   35.5631   30.7846 H   0  0  0  0  0  0  0  0  0  0  0  0
   19.1623   34.0705   31.6835 H   0  0  0  0  0  0  0  0  0  0  0  0
  1  2  1  0
  2  3  2  0
  2  4  1  0
  4 12  1  0
  4  5  2  0
  5  6  1  0
  6  7  2  0
  7  8  1  0
  7 43  1  0
  8  9  2  0
  9 32  1  0
  9 10  1  0
 10 11  2  0
 11  1  1  0
 11  6  1  0
 12 13  2  0
 13 14  1  0
 13 44  1  0
 14 15  2  0
 14 45  1  0
 15 19  1  0
 15 16  1  0
 16 17  1  0
 16 18  2  0
 18 12  1  0
 18 46  1  0
 19 21  1  0
 19 20  1  0
 21 22  2  0
 21 23  2  0
 21 24  1  0
 24 25  1  0
 24 47  1  0
 24 48  1  0
 25 26  1  0
 25 49  1  0
 25 50  1  0
 26 27  1  0
 26 28  1  0
 26 51  1  0
 29 30  1  0
 29 52  1  0
 29 53  1  0
 29 54  1  0
 30 31  1  0
 30  1  1  0
 30 55  1  0
 31 56  1  0
 31 57  1  0
 31 58  1  0
 32 34  1  0
 32 33  1  0
 34 35  1  0
 34 59  1  6
 35 36  1  0
 35 60  1  0
 35 61  1  0
 36 37  1  0
 36 40  1  0
 37 38  1  0
 37 62  1  0
 37 63  1  0
 38 41  1  0
 38 39  1  0
 38 64  1  1
 39 34  1  0
 39 65  1  0
 39 66  1  0
 41 42  1  0
 41 67  1  0
 41 68  1  0
M  END
>  <minimizedAffinity>  (2) 
-9.70411

>  <mol_id>  (2) 
6730

>  <source_index>  (2) 
1

>  <layer>  (2) 
L2

>  <uniprot>  (2) 
O75460

>  <paff>  (2) 
9

>  <smiles>  (2) 
CC(C)n1c(=O)c(-c2ccc(NS(=O)(=O)CCC(F)F)c(F)c2)nc2cnc(N[C@@H]3CNC[C@H](CF)C3)nc21

$$$$
L2:O75460:14710
     RDKit          3D

 74 77  0  0  0  0  0  0  0  0999 V2000
   14.7262   35.6424   21.5506 C   0  0  0  0  0  0  0  0  0  0  0  0
   14.4426   35.9018   22.7948 N   0  0  0  0  0  0  0  0  0  0  0  0
   15.4195   35.6279   23.7610 C   0  0  0  0  0  0  0  0  0  0  0  0
   15.1753   35.8677   25.0950 C   0  0  0  0  0  0  0  0  0  0  0  0
   16.0634   35.6404   26.0838 N   0  0  0  0  0  0  0  0  0  0  0  0
   17.2529   35.1540   25.7206 C   0  0  0  0  0  0  0  0  0  0  0  0
   17.5930   34.8902   24.4539 N   0  0  0  0  0  0  0  0  0  0  0  0
   16.6802   35.1242   23.4888 C   0  0  0  0  0  0  0  0  0  0  0  0
   17.0106   34.8317   22.1375 N   0  0  0  0  0  0  0  0  0  0  0  0
   16.0634   35.0140   21.1339 C   0  0  0  0  0  0  0  0  0  0  0  0
   16.2211   34.6971   19.9614 O   0  0  0  0  0  0  0  0  0  0  0  0
   11.6910   36.4763   18.6136 C   0  0  0  0  0  0  0  0  0  0  0  0
   11.9894   35.1693   18.9965 C   0  0  0  0  0  0  0  0  0  0  0  0
   11.3134   34.1376   18.4706 F   0  0  0  0  0  0  0  0  0  0  0  0
   12.9765   34.9071   19.9442 C   0  0  0  0  0  0  0  0  0  0  0  0
   13.6980   35.9643   20.5180 C   0  0  0  0  0  0  0  0  0  0  0  0
   13.3972   37.2799   20.1512 C   0  0  0  0  0  0  0  0  0  0  0  0
   12.4064   37.5201   19.2005 C   0  0  0  0  0  0  0  0  0  0  0  0
   12.1247   38.7870   18.8599 F   0  0  0  0  0  0  0  0  0  0  0  0
   10.7069   36.7729   17.6067 N   0  0  0  0  0  0  0  0  0  0  0  0
   10.1844   37.6355   17.7922 H   0  0  0  0  0  0  0  0  0  0  0  0
   11.2725   36.8419   16.0127 S   0  0  0  0  0  0  0  0  0  0  0  0
   10.1847   36.5434   15.1061 O   0  0  0  0  0  0  0  0  0  0  0  0
   12.4858   36.0528   16.0009 O   0  0  0  0  0  0  0  0  0  0  0  0
   11.7164   38.5667   15.8286 C   0  0  0  0  0  0  0  0  0  0  0  0
   13.8253   39.9319   16.2989 C   0  0  0  0  0  0  0  0  0  0  0  0
   13.1760   38.8293   15.4786 C   0  0  0  0  0  0  0  0  0  0  0  0
   18.3379   34.2617   21.8357 C   0  0  0  0  0  0  0  0  0  0  0  0
   19.0814   35.0583   20.7585 C   0  0  0  0  0  0  0  0  0  0  0  0
   18.2483   32.7782   21.4694 C   0  0  0  0  0  0  0  0  0  0  0  0
   18.1362   34.9261   26.7363 N   0  0  0  0  0  0  0  0  0  0  0  0
   18.4581   35.7632   27.1974 H   0  0  0  0  0  0  0  0  0  0  0  0
   18.5472   33.6015   27.1536 C   0  0  1  0  0  0  0  0  0  0  0  0
   19.9689   33.6596   27.7335 C   0  0  0  0  0  0  0  0  0  0  0  0
   20.0321   33.7883   29.2630 C   0  0  0  0  0  0  0  0  0  0  0  0
   18.8408   34.5695   29.8504 C   0  0  1  0  0  0  0  0  0  0  0  0
   17.5252   33.8356   29.4842 C   0  0  0  0  0  0  0  0  0  0  0  0
   17.5773   33.0274   28.1837 C   0  0  0  0  0  0  0  0  0  0  0  0
   18.9261   34.7763   31.3208 N   0  0  0  0  0  0  0  0  0  0  0  0
   19.7298   33.7291   31.9683 C   0  0  0  0  0  0  0  0  0  0  0  0
   17.6107   34.8207   31.9679 C   0  0  0  0  0  0  0  0  0  0  0  0
   14.2512   36.2465   25.3551 H   0  0  0  0  0  0  0  0  0  0  0  0
   13.1770   33.9343   20.2242 H   0  0  0  0  0  0  0  0  0  0  0  0
   13.9056   38.0681   20.5817 H   0  0  0  0  0  0  0  0  0  0  0  0
   11.1100   38.9831   15.0515 H   0  0  0  0  0  0  0  0  0  0  0  0
   11.5557   39.0175   16.7856 H   0  0  0  0  0  0  0  0  0  0  0  0
   14.8434   40.0521   15.9924 H   0  0  0  0  0  0  0  0  0  0  0  0
   13.7935   39.6707   17.3360 H   0  0  0  0  0  0  0  0  0  0  0  0
   13.2961   40.8492   16.1457 H   0  0  0  0  0  0  0  0  0  0  0  0
   13.7266   37.9255   15.6361 H   0  0  0  0  0  0  0  0  0  0  0  0
   13.1939   39.1537   14.4591 H   0  0  0  0  0  0  0  0  0  0  0  0
   18.9137   34.3385   22.7343 H   0  0  0  0  0  0  0  0  0  0  0  0
   18.5374   35.0079   19.8385 H   0  0  0  0  0  0  0  0  0  0  0  0
   20.0579   34.6438   20.6187 H   0  0  0  0  0  0  0  0  0  0  0  0
   19.1681   36.0794   21.0661 H   0  0  0  0  0  0  0  0  0  0  0  0
   17.6767   32.6663   20.5718 H   0  0  0  0  0  0  0  0  0  0  0  0
   17.7726   32.2427   22.2642 H   0  0  0  0  0  0  0  0  0  0  0  0
   19.2330   32.3886   21.3161 H   0  0  0  0  0  0  0  0  0  0  0  0
   18.5402   32.9570   26.2995 H   0  0  0  0  0  0  0  0  0  0  0  0
   20.4689   34.5039   27.3068 H   0  0  0  0  0  0  0  0  0  0  0  0
   20.4341   32.7277   27.4886 H   0  0  0  0  0  0  0  0  0  0  0  0
   20.9362   34.2968   29.5255 H   0  0  0  0  0  0  0  0  0  0  0  0
   19.9983   32.7991   29.6694 H   0  0  0  0  0  0  0  0  0  0  0  0
   18.8619   35.5482   29.4185 H   0  0  0  0  0  0  0  0  0  0  0  0
   16.7513   34.5684   29.3893 H   0  0  0  0  0  0  0  0  0  0  0  0
   17.3470   33.1301   30.2687 H   0  0  0  0  0  0  0  0  0  0  0  0
   16.5972   33.0108   27.7548 H   0  0  0  0  0  0  0  0  0  0  0  0
   17.9249   32.0469   28.4339 H   0  0  0  0  0  0  0  0  0  0  0  0
   20.6943   33.6835   31.5072 H   0  0  0  0  0  0  0  0  0  0  0  0
   19.2382   32.7848   31.8612 H   0  0  0  0  0  0  0  0  0  0  0  0
   19.8418   33.9570   33.0077 H   0  0  0  0  0  0  0  0  0  0  0  0
   17.0122   35.5790   31.5077 H   0  0  0  0  0  0  0  0  0  0  0  0
   17.7319   35.0439   33.0073 H   0  0  0  0  0  0  0  0  0  0  0  0
   17.1283   33.8717   31.8608 H   0  0  0  0  0  0  0  0  0  0  0  0
  1  2  2  0
  2  3  1  0
  3  4  2  0
  4  5  1  0
  4 42  1  0
  5  6  2  0
  6 31  1  0
  6  7  1  0
  7  8  2  0
  8  9  1  0
  8  3  1  0
  9 28  1  0
  9 10  1  0
 10 11  2  0
 10  1  1  0
 12 13  2  0
 13 14  1  0
 13 15  1  0
 15 16  2  0
 15 43  1  0
 16  1  1  0
 16 17  1  0
 17 18  2  0
 17 44  1  0
 18 19  1  0
 18 12  1  0
 20 12  1  0
 20 21  1  0
 22 23  2  0
 22 24  2  0
 22 20  1  0
 25 22  1  0
 25 45  1  0
 25 46  1  0
 26 27  1  0
 26 47  1  0
 26 48  1  0
 26 49  1  0
 27 25  1  0
 27 50  1  0
 27 51  1  0
 28 29  1  0
 28 30  1  0
 28 52  1  0
 29 53  1  0
 29 54  1  0
 29 55  1  0
 30 56  1  0
 30 57  1  0
 30 58  1  0
 31 33  1  0
 31 32  1  0
 33 34  1  0
 33 59  1  6
 34 35  1  0
 34 60  1  0
 34 61  1  0
 35 36  1  0
 35 62  1  0
 35 63  1  0
 36 39  1  0
 36 37  1  0
 36 64  1  6
 37 38  1  0
 37 65  1  0
 37 66  1  0
 38 33  1  0
 38 67  1  0
 38 68  1  0
 39 40  1  0
 39 41  1  0
 40 69  1  0
 40 70  1  0
 40 71  1  0
 41 72  1  0
 41 73  1  0
 41 74  1  0
M  END
>  <minimizedAffinity>  (3) 
-9.66082

>  <mol_id>  (3) 
14710

>  <source_index>  (3) 
2

>  <layer>  (3) 
L2

>  <uniprot>  (3) 
O75460

>  <paff>  (3) 
10

>  <smiles>  (3) 
CCCS(=O)(=O)Nc1c(F)cc(-c2nc3cnc(N[C@H]4CC[C@H](N(C)C)CC4)nc3n(C(C)C)c2=O)cc1F

$$$$
L2:O75460:25683
     RDKit          3D

 68 73  0  0  0  0  0  0  0  0999 V2000
   17.9470   35.5009   23.7623 O   0  0  0  0  0  0  0  0  0  0  0  0
   17.2293   35.2520   24.7324 C   0  0  0  0  0  0  0  0  0  0  0  0
   15.7489   35.0689   24.5160 C   0  0  0  0  0  0  0  0  0  0  0  0
   14.9574   34.7269   25.5452 C   0  0  0  0  0  0  0  0  0  0  0  0
   15.5258   34.5382   26.8679 C   0  0  0  0  0  0  0  0  0  0  0  0
   14.7796   34.1582   27.9593 C   0  0  0  0  0  0  0  0  0  0  0  0
   15.2962   33.9697   29.1875 N   0  0  0  0  0  0  0  0  0  0  0  0
   16.6094   34.1702   29.3324 C   0  0  0  0  0  0  0  0  0  0  0  0
   17.4156   34.5399   28.3350 N   0  0  0  0  0  0  0  0  0  0  0  0
   16.8701   34.7289   27.1128 C   0  0  0  0  0  0  0  0  0  0  0  0
   17.7106   35.1272   26.0342 N   0  0  0  0  0  0  0  0  0  0  0  0
   15.1578   35.2458   23.1738 C   0  0  0  0  0  0  0  0  0  0  0  0
   15.3390   34.2722   22.1803 C   0  0  0  0  0  0  0  0  0  0  0  0
   14.7862   34.4344   20.9011 C   0  0  0  0  0  0  0  0  0  0  0  0
   14.0214   35.5603   20.6010 C   0  0  0  0  0  0  0  0  0  0  0  0
   13.8811   36.5512   21.5774 C   0  0  0  0  0  0  0  0  0  0  0  0
   13.1922   37.6675   21.2897 F   0  0  0  0  0  0  0  0  0  0  0  0
   14.4275   36.3922   22.8474 C   0  0  0  0  0  0  0  0  0  0  0  0
   14.2402   37.3561   23.7631 F   0  0  0  0  0  0  0  0  0  0  0  0
   13.4728   35.8131   19.3020 N   0  0  0  0  0  0  0  0  0  0  0  0
   13.8103   36.6694   18.8498 H   0  0  0  0  0  0  0  0  0  0  0  0
   11.8599   35.5198   18.9338 S   0  0  0  0  0  0  0  0  0  0  0  0
   11.8716   34.6148   17.8017 O   0  0  0  0  0  0  0  0  0  0  0  0
   11.1507   35.1498   20.1412 O   0  0  0  0  0  0  0  0  0  0  0  0
   11.2158   37.1121   18.3844 C   0  0  0  0  0  0  0  0  0  0  0  0
   11.5706   37.4004   16.9481 C   0  0  0  0  0  0  0  0  0  0  0  0
   10.7933   36.9034   15.8918 C   0  0  0  0  0  0  0  0  0  0  0  0
   11.1353   37.1790   14.5671 C   0  0  0  0  0  0  0  0  0  0  0  0
   12.2482   37.9658   14.2818 C   0  0  0  0  0  0  0  0  0  0  0  0
   13.0154   38.4862   15.3209 C   0  0  0  0  0  0  0  0  0  0  0  0
   12.6753   38.2118   16.6465 C   0  0  0  0  0  0  0  0  0  0  0  0
   19.1228   35.3162   26.3005 C   0  0  0  0  0  0  0  0  0  0  0  0
   19.9716   34.2449   26.9460 C   0  0  0  0  0  0  0  0  0  0  0  0
   20.1908   34.5944   25.5096 C   0  0  0  0  0  0  0  0  0  0  0  0
   17.2066   34.0045   30.5469 N   0  0  0  0  0  0  0  0  0  0  0  0
   16.5850   33.6511   31.2598 H   0  0  0  0  0  0  0  0  0  0  0  0
   18.5798   34.3400   30.8719 C   0  0  2  0  0  0  0  0  0  0  0  0
   19.5542   33.1700   30.5853 C   0  0  0  0  0  0  0  0  0  0  0  0
   20.9434   33.4685   30.9598 N   0  0  0  0  0  0  0  0  0  0  0  0
   21.0553   33.9528   32.3455 C   0  0  0  0  0  0  0  0  0  0  0  0
   19.7374   34.1299   33.1126 C   0  0  1  0  0  0  0  0  0  0  0  0
   19.9877   34.8212   34.2605 F   0  0  0  0  0  0  0  0  0  0  0  0
   18.7251   34.9130   32.2892 C   0  0  0  0  0  0  0  0  0  0  0  0
   21.3241   34.1732   30.3275 H   0  0  0  0  0  0  0  0  0  0  0  0
   13.9444   34.5981   25.3961 H   0  0  0  0  0  0  0  0  0  0  0  0
   13.7668   34.0093   27.8288 H   0  0  0  0  0  0  0  0  0  0  0  0
   15.8870   33.4241   22.3935 H   0  0  0  0  0  0  0  0  0  0  0  0
   14.9468   33.7158   20.1780 H   0  0  0  0  0  0  0  0  0  0  0  0
   11.6264   37.8827   19.0029 H   0  0  0  0  0  0  0  0  0  0  0  0
   10.1490   37.0810   18.4611 H   0  0  0  0  0  0  0  0  0  0  0  0
    9.9608   36.3286   16.0960 H   0  0  0  0  0  0  0  0  0  0  0  0
   10.5623   36.7990   13.7975 H   0  0  0  0  0  0  0  0  0  0  0  0
   12.5041   38.1630   13.3017 H   0  0  0  0  0  0  0  0  0  0  0  0
   13.8362   39.0753   15.1107 H   0  0  0  0  0  0  0  0  0  0  0  0
   13.2416   38.6094   17.4122 H   0  0  0  0  0  0  0  0  0  0  0  0
   18.8948   36.3388   26.5177 H   0  0  0  0  0  0  0  0  0  0  0  0
   19.5358   33.3028   27.2058 H   0  0  0  0  0  0  0  0  0  0  0  0
   20.5949   34.1978   27.8144 H   0  0  0  0  0  0  0  0  0  0  0  0
   19.9115   33.9022   24.7429 H   0  0  0  0  0  0  0  0  0  0  0  0
   21.0351   34.9002   24.9278 H   0  0  0  0  0  0  0  0  0  0  0  0
   18.8673   35.1300   30.2100 H   0  0  0  0  0  0  0  0  0  0  0  0
   19.5238   32.9508   29.5384 H   0  0  0  0  0  0  0  0  0  0  0  0
   19.2364   32.3388   31.1794 H   0  0  0  0  0  0  0  0  0  0  0  0
   21.5479   34.9023   32.3202 H   0  0  0  0  0  0  0  0  0  0  0  0
   21.5915   33.1908   32.8716 H   0  0  0  0  0  0  0  0  0  0  0  0
   19.3347   33.1616   33.3249 H   0  0  0  0  0  0  0  0  0  0  0  0
   19.0476   35.9309   32.2202 H   0  0  0  0  0  0  0  0  0  0  0  0
   17.7747   34.8437   32.7758 H   0  0  0  0  0  0  0  0  0  0  0  0
  1  2  2  0
  2  3  1  0
  3 12  1  0
  3  4  2  0
  4  5  1  0
  4 45  1  0
  5  6  2  0
  6  7  1  0
  6 46  1  0
  7  8  2  0
  8 35  1  0
  8  9  1  0
  9 10  2  0
 10 11  1  0
 10  5  1  0
 11 32  1  0
 11  2  1  0
 12 13  2  0
 13 14  1  0
 13 47  1  0
 14 15  2  0
 14 48  1  0
 15 20  1  0
 15 16  1  0
 16 17  1  0
 16 18  2  0
 18 19  1  0
 18 12  1  0
 20 22  1  0
 20 21  1  0
 22 23  2  0
 22 24  2  0
 22 25  1  0
 25 26  1  0
 25 49  1  0
 25 50  1  0
 26 27  2  0
 27 28  1  0
 27 51  1  0
 28 29  2  0
 28 52  1  0
 29 30  1  0
 29 53  1  0
 30 31  2  0
 30 54  1  0
 31 26  1  0
 31 55  1  0
 32 33  1  0
 32 56  1  0
 33 34  1  0
 33 57  1  0
 33 58  1  0
 34 32  1  0
 34 59  1  0
 34 60  1  0
 35 37  1  0
 35 36  1  0
 37 38  1  0
 37 61  1  6
 38 39  1  0
 38 62  1  0
 38 63  1  0
 39 40  1  0
 39 44  1  0
 40 41  1  0
 40 64  1  0
 40 65  1  0
 41 42  1  0
 41 43  1  0
 41 66  1  1
 43 37  1  0
 43 67  1  0
 43 68  1  0
M  END
>  <minimizedAffinity>  (4) 
-11.95574

>  <mol_id>  (4) 
25683

>  <source_index>  (4) 
3

>  <layer>  (4) 
L2

>  <uniprot>  (4) 
O75460

>  <paff>  (4) 
8.9586000000000006

>  <smiles>  (4) 
O=c1c(-c2ccc(NS(=O)(=O)Cc3ccccc3)c(F)c2F)cc2cnc(N[C@@H]3CNC[C@@H](F)C3)nc2n1C1CC1

$$$$
L2:O75460:48303
     RDKit          3D

 70 74  0  0  0  0  0  0  0  0999 V2000
   18.1885   36.2279   23.2494 C   0  0  0  0  0  0  0  0  0  0  0  0
   17.8535   35.8055   24.6506 C   0  0  0  0  0  0  0  0  0  0  0  0
   18.7518   36.0615   25.6858 C   0  0  0  0  0  0  0  0  0  0  0  0
   18.4605   35.6567   26.9903 C   0  0  0  0  0  0  0  0  0  0  0  0
   17.2605   34.9857   27.3130 C   0  0  0  0  0  0  0  0  0  0  0  0
   16.9328   34.5952   28.6361 C   0  0  0  0  0  0  0  0  0  0  0  0
   15.7267   33.9514   28.9274 C   0  0  0  0  0  0  0  0  0  0  0  0
   14.8160   33.7008   27.9112 C   0  0  0  0  0  0  0  0  0  0  0  0
   15.1186   34.0786   26.6034 C   0  0  0  0  0  0  0  0  0  0  0  0
   16.3391   34.7132   26.2725 C   0  0  0  0  0  0  0  0  0  0  0  0
   16.6758   35.0977   24.9464 C   0  0  0  0  0  0  0  0  0  0  0  0
   17.8643   34.7973   29.7166 N   0  0  0  0  0  0  0  0  0  0  0  0
   17.3946   35.1170   30.5725 H   0  0  0  0  0  0  0  0  0  0  0  0
   18.7914   33.4384   30.1351 S   0  0  0  0  0  0  0  0  0  0  0  0
   18.2884   32.2573   29.4717 O   0  0  0  0  0  0  0  0  0  0  0  0
   18.9443   33.4844   31.5718 O   0  0  0  0  0  0  0  0  0  0  0  0
   20.3662   33.8335   29.3969 C   0  0  0  0  0  0  0  0  0  0  0  0
   20.5854   33.3462   27.9732 C   0  0  0  0  0  0  0  0  0  0  0  0
   21.9348   33.6983   27.3930 C   0  0  0  0  0  0  0  0  0  0  0  0
   22.5905   32.5670   27.0460 F   0  0  0  0  0  0  0  0  0  0  0  0
   22.6984   34.3551   28.2855 F   0  0  0  0  0  0  0  0  0  0  0  0
   21.8208   34.4443   26.2758 F   0  0  0  0  0  0  0  0  0  0  0  0
   15.7881   34.8469   23.9161 O   0  0  0  0  0  0  0  0  0  0  0  0
   16.3130   34.1534   22.8246 C   0  0  0  0  0  0  0  0  0  0  0  0
   17.3595   33.3140   23.0362 N   0  0  0  0  0  0  0  0  0  0  0  0
   17.8252   32.6348   21.9696 C   0  0  0  0  0  0  0  0  0  0  0  0
   17.3093   32.7656   20.6936 C   0  0  0  0  0  0  0  0  0  0  0  0
   16.2532   33.6522   20.4987 C   0  0  0  0  0  0  0  0  0  0  0  0
   15.7312   34.3882   21.5739 C   0  0  0  0  0  0  0  0  0  0  0  0
   14.6095   35.3092   21.3699 C   0  0  0  0  0  0  0  0  0  0  0  0
   14.4568   36.4742   22.0902 C   0  0  0  0  0  0  0  0  0  0  0  0
   13.3548   37.2269   21.7751 C   0  0  0  0  0  0  0  0  0  0  0  0
   12.4629   36.8776   20.8318 N   0  0  0  0  0  0  0  0  0  0  0  0
   12.6828   35.7313   20.1793 C   0  0  0  0  0  0  0  0  0  0  0  0
   13.7328   34.9381   20.4116 N   0  0  0  0  0  0  0  0  0  0  0  0
   11.7485   35.3941   19.2459 N   0  0  0  0  0  0  0  0  0  0  0  0
   10.9089   34.9992   19.6425 H   0  0  0  0  0  0  0  0  0  0  0  0
   11.9387   35.3917   17.8066 C   0  0  1  0  0  0  0  0  0  0  0  0
   10.6290   35.6239   17.0340 C   0  0  0  0  0  0  0  0  0  0  0  0
   10.7266   36.8242   16.0950 C   0  0  0  0  0  0  0  0  0  0  0  0
   11.9781   36.7658   15.2146 C   0  0  0  0  0  0  0  0  0  0  0  0
   13.2111   36.3676   15.8995 N   0  0  0  0  0  0  0  0  0  0  0  0
   13.0703   36.3462   17.3585 C   0  0  0  0  0  0  0  0  0  0  0  0
   13.9679   36.9971   15.6342 H   0  0  0  0  0  0  0  0  0  0  0  0
   19.1224   36.7501   23.2479 H   0  0  0  0  0  0  0  0  0  0  0  0
   17.4192   36.8719   22.8775 H   0  0  0  0  0  0  0  0  0  0  0  0
   18.2626   35.3628   22.6242 H   0  0  0  0  0  0  0  0  0  0  0  0
   19.6372   36.5530   25.4869 H   0  0  0  0  0  0  0  0  0  0  0  0
   19.1418   35.8536   27.7400 H   0  0  0  0  0  0  0  0  0  0  0  0
   15.5143   33.6634   29.8954 H   0  0  0  0  0  0  0  0  0  0  0  0
   13.9186   33.2369   28.1222 H   0  0  0  0  0  0  0  0  0  0  0  0
   14.4328   33.8899   25.8557 H   0  0  0  0  0  0  0  0  0  0  0  0
   21.1304   33.4032   30.0098 H   0  0  0  0  0  0  0  0  0  0  0  0
   20.3940   34.9016   29.3398 H   0  0  0  0  0  0  0  0  0  0  0  0
   19.8304   33.7799   27.3513 H   0  0  0  0  0  0  0  0  0  0  0  0
   20.5368   32.2778   28.0057 H   0  0  0  0  0  0  0  0  0  0  0  0
   18.6105   31.9808   22.1132 H   0  0  0  0  0  0  0  0  0  0  0  0
   17.6963   32.2211   19.9070 H   0  0  0  0  0  0  0  0  0  0  0  0
   15.8509   33.7691   19.5556 H   0  0  0  0  0  0  0  0  0  0  0  0
   15.1282   36.7614   22.8194 H   0  0  0  0  0  0  0  0  0  0  0  0
   13.2020   38.1084   22.2894 H   0  0  0  0  0  0  0  0  0  0  0  0
   12.2606   34.4039   17.5507 H   0  0  0  0  0  0  0  0  0  0  0  0
    9.8397   35.7968   17.7354 H   0  0  0  0  0  0  0  0  0  0  0  0
   10.4351   34.7543   16.4414 H   0  0  0  0  0  0  0  0  0  0  0  0
   10.7582   37.7190   16.6808 H   0  0  0  0  0  0  0  0  0  0  0  0
    9.8708   36.8109   15.4529 H   0  0  0  0  0  0  0  0  0  0  0  0
   12.1326   37.7382   14.7957 H   0  0  0  0  0  0  0  0  0  0  0  0
   11.7890   36.0075   14.4838 H   0  0  0  0  0  0  0  0  0  0  0  0
   12.8464   37.3351   17.7004 H   0  0  0  0  0  0  0  0  0  0  0  0
   13.9899   35.9960   17.7787 H   0  0  0  0  0  0  0  0  0  0  0  0
  1  2  1  0
  1 45  1  0
  1 46  1  0
  1 47  1  0
  2  3  2  0
  3  4  1  0
  3 48  1  0
  4  5  2  0
  4 49  1  0
  5  6  1  0
  6 12  1  0
  6  7  2  0
  7  8  1  0
  7 50  1  0
  8  9  2  0
  8 51  1  0
  9 10  1  0
  9 52  1  0
 10 11  2  0
 10  5  1  0
 11 23  1  0
 11  2  1  0
 12 14  1  0
 12 13  1  0
 14 15  2  0
 14 16  2  0
 14 17  1  0
 17 18  1  0
 17 53  1  0
 17 54  1  0
 18 19  1  0
 18 55  1  0
 18 56  1  0
 19 20  1  0
 19 21  1  0
 19 22  1  0
 23 24  1  0
 24 25  2  0
 25 26  1  0
 26 27  2  0
 26 57  1  0
 27 28  1  0
 27 58  1  0
 28 29  2  0
 28 59  1  0
 29 30  1  0
 29 24  1  0
 30 31  2  0
 31 32  1  0
 31 60  1  0
 32 33  2  0
 32 61  1  0
 33 34  1  0
 34 36  1  0
 34 35  2  0
 35 30  1  0
 36 38  1  0
 36 37  1  0
 38 39  1  0
 38 62  1  6
 39 40  1  0
 39 63  1  0
 39 64  1  0
 40 41  1  0
 40 65  1  0
 40 66  1  0
 41 42  1  0
 41 67  1  0
 41 68  1  0
 42 43  1  0
 42 44  1  0
 43 38  1  0
 43 69  1  0
 43 70  1  0
M  END
>  <minimizedAffinity>  (5) 
-10.58237

>  <mol_id>  (5) 
48303

>  <source_index>  (5) 
4

>  <layer>  (5) 
L2

>  <uniprot>  (5) 
O75460

>  <paff>  (5) 
7.0757000000000003

>  <smiles>  (5) 
Cc1ccc2c(NS(=O)(=O)CCC(F)(F)F)cccc2c1Oc1ncccc1-c1ccnc(N[C@H]2CCCNC2)n1

$$$$
L2:O75460:72342
     RDKit          3D

 84 88  0  0  0  0  0  0  0  0999 V2000
   17.0204   34.3354   26.1088 N   0  0  0  0  0  0  0  0  0  0  0  0
   15.9502   34.6338   25.2691 C   0  0  0  0  0  0  0  0  0  0  0  0
   14.7740   34.4505   25.5815 O   0  0  0  0  0  0  0  0  0  0  0  0
   16.2548   35.2078   23.9080 C   0  0  0  0  0  0  0  0  0  0  0  0
   17.5312   35.3888   23.5335 C   0  0  0  0  0  0  0  0  0  0  0  0
   18.6120   35.0561   24.4427 C   0  0  0  0  0  0  0  0  0  0  0  0
   19.9385   35.2248   24.1163 C   0  0  0  0  0  0  0  0  0  0  0  0
   20.9540   34.9231   24.9429 N   0  0  0  0  0  0  0  0  0  0  0  0
   20.6331   34.4367   26.1453 C   0  0  0  0  0  0  0  0  0  0  0  0
   19.3736   34.2340   26.5487 N   0  0  0  0  0  0  0  0  0  0  0  0
   18.3712   34.5441   25.7015 C   0  0  0  0  0  0  0  0  0  0  0  0
   15.1686   35.5434   22.9630 C   0  0  0  0  0  0  0  0  0  0  0  0
   14.6172   36.8284   22.8963 C   0  0  0  0  0  0  0  0  0  0  0  0
   13.6032   37.1083   21.9799 C   0  0  0  0  0  0  0  0  0  0  0  0
   13.1501   36.0798   21.1749 C   0  0  0  0  0  0  0  0  0  0  0  0
   13.6700   34.8414   21.1740 N   0  0  0  0  0  0  0  0  0  0  0  0
   14.6458   34.5944   22.0845 C   0  0  0  0  0  0  0  0  0  0  0  0
   12.1985   36.2255   20.1385 N   0  0  0  0  0  0  0  0  0  0  0  0
   11.8634   37.1871   20.2326 H   0  0  0  0  0  0  0  0  0  0  0  0
   12.7671   35.9925   18.5680 S   0  0  0  0  0  0  0  0  0  0  0  0
   12.1254   34.8427   17.9706 O   0  0  0  0  0  0  0  0  0  0  0  0
   14.2095   36.0902   18.6353 O   0  0  0  0  0  0  0  0  0  0  0  0
   12.1717   37.4787   17.7663 C   0  0  0  0  0  0  0  0  0  0  0  0
   12.7423   37.8188   16.3833 C   0  0  0  0  0  0  0  0  0  0  0  0
   13.2019   39.2696   16.2160 C   0  0  0  0  0  0  0  0  0  0  0  0
   13.9587   39.4793   14.9008 C   0  0  0  0  0  0  0  0  0  0  0  0
   13.4616   38.5944   13.7568 C   0  0  0  0  0  0  0  0  0  0  0  0
   12.0098   38.1787   13.9461 C   0  0  0  0  0  0  0  0  0  0  0  0
   11.8150   37.3744   15.2334 C   0  0  0  0  0  0  0  0  0  0  0  0
   16.9362   34.8438   28.5538 C   0  0  0  0  0  0  0  0  0  0  0  0
   16.7758   33.7836   27.4599 C   0  0  0  0  0  0  0  0  0  0  0  0
   17.6361   32.5484   27.7450 C   0  0  0  0  0  0  0  0  0  0  0  0
   21.6044   34.1070   27.0460 N   0  0  0  0  0  0  0  0  0  0  0  0
   21.2666   33.9247   27.9776 H   0  0  0  0  0  0  0  0  0  0  0  0
   22.9857   33.8612   26.6774 C   0  0  1  0  0  0  0  0  0  0  0  0
   23.8975   34.4035   27.7938 C   0  0  0  0  0  0  0  0  0  0  0  0
   25.2870   33.7587   27.8448 C   0  0  0  0  0  0  0  0  0  0  0  0
   25.6937   33.0774   26.5223 C   0  0  1  0  0  0  0  0  0  0  0  0
   24.6714   31.9363   26.3179 C   0  0  0  0  0  0  0  0  0  0  0  0
   23.2020   32.3626   26.4331 C   0  0  0  0  0  0  0  0  0  0  0  0
   25.7697   34.0357   25.3922 N   0  0  0  0  0  0  0  0  0  0  0  0
   26.7917   35.0668   25.6131 C   0  0  0  0  0  0  0  0  0  0  0  0
   26.0406   33.3753   24.1105 C   0  0  0  0  0  0  0  0  0  0  0  0
   17.7443   35.7655   22.5966 H   0  0  0  0  0  0  0  0  0  0  0  0
   20.1660   35.6045   23.1840 H   0  0  0  0  0  0  0  0  0  0  0  0
   14.9614   37.5699   23.5261 H   0  0  0  0  0  0  0  0  0  0  0  0
   13.2026   38.0564   21.9051 H   0  0  0  0  0  0  0  0  0  0  0  0
   15.0279   33.6368   22.1301 H   0  0  0  0  0  0  0  0  0  0  0  0
   12.3914   38.3015   18.4141 H   0  0  0  0  0  0  0  0  0  0  0  0
   11.1319   37.2952   17.5929 H   0  0  0  0  0  0  0  0  0  0  0  0
   13.6376   37.2362   16.3211 H   0  0  0  0  0  0  0  0  0  0  0  0
   13.8467   39.5247   17.0309 H   0  0  0  0  0  0  0  0  0  0  0  0
   12.3330   39.8939   16.2026 H   0  0  0  0  0  0  0  0  0  0  0  0
   14.9934   39.2646   15.0687 H   0  0  0  0  0  0  0  0  0  0  0  0
   13.7948   40.4943   14.6045 H   0  0  0  0  0  0  0  0  0  0  0  0
   14.0695   37.7150   13.7112 H   0  0  0  0  0  0  0  0  0  0  0  0
   13.5280   39.1586   12.8501 H   0  0  0  0  0  0  0  0  0  0  0  0
   11.7096   37.5780   13.1131 H   0  0  0  0  0  0  0  0  0  0  0  0
   11.4148   39.0655   14.0134 H   0  0  0  0  0  0  0  0  0  0  0  0
   12.0087   36.3437   15.0213 H   0  0  0  0  0  0  0  0  0  0  0  0
   10.8091   37.5399   15.5586 H   0  0  0  0  0  0  0  0  0  0  0  0
   16.7506   34.4007   29.5099 H   0  0  0  0  0  0  0  0  0  0  0  0
   16.2379   35.6371   28.3867 H   0  0  0  0  0  0  0  0  0  0  0  0
   17.9321   35.2341   28.5289 H   0  0  0  0  0  0  0  0  0  0  0  0
   15.7542   33.4657   27.4756 H   0  0  0  0  0  0  0  0  0  0  0  0
   18.6699   32.8244   27.7381 H   0  0  0  0  0  0  0  0  0  0  0  0
   17.4593   31.8091   26.9919 H   0  0  0  0  0  0  0  0  0  0  0  0
   17.3799   32.1490   28.7040 H   0  0  0  0  0  0  0  0  0  0  0  0
   23.2292   34.3673   25.7667 H   0  0  0  0  0  0  0  0  0  0  0  0
   23.4145   34.2326   28.7331 H   0  0  0  0  0  0  0  0  0  0  0  0
   24.0500   35.4421   27.5864 H   0  0  0  0  0  0  0  0  0  0  0  0
   25.2912   33.0224   28.6212 H   0  0  0  0  0  0  0  0  0  0  0  0
   25.9928   34.5420   28.0273 H   0  0  0  0  0  0  0  0  0  0  0  0
   26.6865   32.6805   26.5637 H   0  0  0  0  0  0  0  0  0  0  0  0
   24.8591   31.1847   27.0560 H   0  0  0  0  0  0  0  0  0  0  0  0
   24.8064   31.5860   25.3159 H   0  0  0  0  0  0  0  0  0  0  0  0
   22.7622   31.8255   27.2473 H   0  0  0  0  0  0  0  0  0  0  0  0
   22.7490   32.1423   25.4891 H   0  0  0  0  0  0  0  0  0  0  0  0
   26.6071   35.5580   26.5456 H   0  0  0  0  0  0  0  0  0  0  0  0
   26.7533   35.7829   24.8190 H   0  0  0  0  0  0  0  0  0  0  0  0
   27.7594   34.6108   25.6356 H   0  0  0  0  0  0  0  0  0  0  0  0
   25.3030   32.6202   23.9354 H   0  0  0  0  0  0  0  0  0  0  0  0
   27.0112   32.9259   24.1389 H   0  0  0  0  0  0  0  0  0  0  0  0
   26.0052   34.0981   23.3223 H   0  0  0  0  0  0  0  0  0  0  0  0
  1  2  1  0
  2  3  2  0
  2  4  1  0
  4 12  1  0
  4  5  2  0
  5  6  1  0
  5 44  1  0
  6  7  2  0
  7  8  1  0
  7 45  1  0
  8  9  2  0
  9 33  1  0
  9 10  1  0
 10 11  2  0
 11  1  1  0
 11  6  1  0
 12 13  2  0
 13 14  1  0
 13 46  1  0
 14 15  2  0
 14 47  1  0
 15 18  1  0
 15 16  1  0
 16 17  2  0
 17 12  1  0
 17 48  1  0
 18 20  1  0
 18 19  1  0
 20 21  2  0
 20 22  2  0
 20 23  1  0
 23 24  1  0
 23 49  1  0
 23 50  1  0
 24 25  1  0
 24 51  1  0
 25 26  1  0
 25 52  1  0
 25 53  1  0
 26 27  1  0
 26 54  1  0
 26 55  1  0
 27 28  1  0
 27 56  1  0
 27 57  1  0
 28 29  1  0
 28 58  1  0
 28 59  1  0
 29 24  1  0
 29 60  1  0
 29 61  1  0
 30 31  1  0
 30 62  1  0
 30 63  1  0
 30 64  1  0
 31 32  1  0
 31  1  1  0
 31 65  1  0
 32 66  1  0
 32 67  1  0
 32 68  1  0
 33 35  1  0
 33 34  1  0
 35 36  1  0
 35 69  1  6
 36 37  1  0
 36 70  1  0
 36 71  1  0
 37 38  1  0
 37 72  1  0
 37 73  1  0
 38 41  1  0
 38 39  1  0
 38 74  1  1
 39 40  1  0
 39 75  1  0
 39 76  1  0
 40 35  1  0
 40 77  1  0
 40 78  1  0
 41 42  1  0
 41 43  1  0
 42 79  1  0
 42 80  1  0
 42 81  1  0
 43 82  1  0
 43 83  1  0
 43 84  1  0
M  END
>  <minimizedAffinity>  (6) 
-10.41530

>  <mol_id>  (6) 
72342

>  <source_index>  (6) 
5

>  <layer>  (6) 
L2

>  <uniprot>  (6) 
O75460

>  <paff>  (6) 
9.7446999999999999

>  <smiles>  (6) 
CC(C)n1c(=O)c(-c2ccc(NS(=O)(=O)CC3CCCCC3)nc2)cc2cnc(N[C@H]3CC[C@H](N(C)C)CC3)nc21

$$$$
L2:O75460:84980
     RDKit          3D

 68 72  0  0  0  0  0  0  0  0999 V2000
   17.7352   34.9491   25.4244 N   0  0  0  0  0  0  0  0  0  0  0  0
   17.2068   35.3010   24.1841 C   0  0  0  0  0  0  0  0  0  0  0  0
   17.8652   35.7435   23.2494 O   0  0  0  0  0  0  0  0  0  0  0  0
   15.6924   35.1351   24.0043 C   0  0  0  0  0  0  0  0  0  0  0  0
   14.9163   34.7670   24.9821 N   0  0  0  0  0  0  0  0  0  0  0  0
   15.5107   34.4743   26.2163 C   0  0  0  0  0  0  0  0  0  0  0  0
   14.7413   34.0768   27.2870 C   0  0  0  0  0  0  0  0  0  0  0  0
   15.2346   33.7655   28.5020 N   0  0  0  0  0  0  0  0  0  0  0  0
   16.5582   33.8551   28.6531 C   0  0  0  0  0  0  0  0  0  0  0  0
   17.3946   34.2283   27.6786 N   0  0  0  0  0  0  0  0  0  0  0  0
   16.8707   34.5351   26.4744 C   0  0  0  0  0  0  0  0  0  0  0  0
   15.0722   35.4176   22.6788 C   0  0  0  0  0  0  0  0  0  0  0  0
   15.3908   34.5827   21.5955 C   0  0  0  0  0  0  0  0  0  0  0  0
   14.8384   34.8162   20.3316 C   0  0  0  0  0  0  0  0  0  0  0  0
   13.9717   35.8899   20.1428 C   0  0  0  0  0  0  0  0  0  0  0  0
   13.6843   36.7347   21.2183 C   0  0  0  0  0  0  0  0  0  0  0  0
   12.8633   37.7811   21.0368 F   0  0  0  0  0  0  0  0  0  0  0  0
   14.2253   36.5112   22.4808 C   0  0  0  0  0  0  0  0  0  0  0  0
   13.3762   36.1520   18.8746 N   0  0  0  0  0  0  0  0  0  0  0  0
   13.5027   37.1002   18.5227 H   0  0  0  0  0  0  0  0  0  0  0  0
   11.8176   35.6268   18.5527 S   0  0  0  0  0  0  0  0  0  0  0  0
   10.8744   36.4058   19.3185 O   0  0  0  0  0  0  0  0  0  0  0  0
   11.8732   34.1866   18.6553 O   0  0  0  0  0  0  0  0  0  0  0  0
   11.6357   35.9971   16.9503 N   0  0  0  0  0  0  0  0  0  0  0  0
   10.3503   36.4041   16.3740 C   0  0  0  0  0  0  0  0  0  0  0  0
   10.7054   36.7455   14.9316 C   0  0  0  0  0  0  0  0  0  0  0  0
   12.1025   37.3282   15.0576 C   0  0  0  0  0  0  0  0  0  0  0  0
   12.7567   36.4470   16.1167 C   0  0  0  0  0  0  0  0  0  0  0  0
   19.9539   33.7985   25.2303 C   0  0  0  0  0  0  0  0  0  0  0  0
   19.1873   35.0587   25.6408 C   0  0  0  0  0  0  0  0  0  0  0  0
   19.7966   36.3325   25.0481 C   0  0  0  0  0  0  0  0  0  0  0  0
   17.1385   33.5559   29.8519 N   0  0  0  0  0  0  0  0  0  0  0  0
   16.8635   32.6703   30.2480 H   0  0  0  0  0  0  0  0  0  0  0  0
   18.2111   34.3523   30.4292 C   0  0  2  0  0  0  0  0  0  0  0  0
   19.5563   33.5967   30.2464 C   0  0  0  0  0  0  0  0  0  0  0  0
   19.7256   32.5337   31.2512 N   0  0  0  0  0  0  0  0  0  0  0  0
   19.8354   33.1321   32.5986 C   0  0  0  0  0  0  0  0  0  0  0  0
   19.1555   34.5028   32.7751 C   0  0  1  0  0  0  0  0  0  0  0  0
   20.0280   35.4839   32.4021 F   0  0  0  0  0  0  0  0  0  0  0  0
   17.9087   34.6293   31.9165 C   0  0  0  0  0  0  0  0  0  0  0  0
   18.8916   31.9449   31.2271 H   0  0  0  0  0  0  0  0  0  0  0  0
   13.7204   34.0131   27.1501 H   0  0  0  0  0  0  0  0  0  0  0  0
   16.0377   33.7904   21.7329 H   0  0  0  0  0  0  0  0  0  0  0  0
   15.0724   34.1948   19.5416 H   0  0  0  0  0  0  0  0  0  0  0  0
   14.0032   37.1468   23.2630 H   0  0  0  0  0  0  0  0  0  0  0  0
    9.9547   37.2577   16.8837 H   0  0  0  0  0  0  0  0  0  0  0  0
    9.5979   35.6474   16.4522 H   0  0  0  0  0  0  0  0  0  0  0  0
   10.0234   37.4636   14.5265 H   0  0  0  0  0  0  0  0  0  0  0  0
   10.6553   35.9040   14.2726 H   0  0  0  0  0  0  0  0  0  0  0  0
   12.0647   38.3484   15.3780 H   0  0  0  0  0  0  0  0  0  0  0  0
   12.6377   37.3362   14.1311 H   0  0  0  0  0  0  0  0  0  0  0  0
   13.4598   37.0080   16.6962 H   0  0  0  0  0  0  0  0  0  0  0  0
   13.3051   35.6325   15.6916 H   0  0  0  0  0  0  0  0  0  0  0  0
   20.9987   33.9417   25.4116 H   0  0  0  0  0  0  0  0  0  0  0  0
   19.7954   33.6078   24.1894 H   0  0  0  0  0  0  0  0  0  0  0  0
   19.6034   32.9654   25.8030 H   0  0  0  0  0  0  0  0  0  0  0  0
   19.3033   35.1455   26.7009 H   0  0  0  0  0  0  0  0  0  0  0  0
   19.7110   36.3061   23.9819 H   0  0  0  0  0  0  0  0  0  0  0  0
   20.8292   36.3946   25.3216 H   0  0  0  0  0  0  0  0  0  0  0  0
   19.2753   37.1868   25.4267 H   0  0  0  0  0  0  0  0  0  0  0  0
   18.2854   35.2968   29.9319 H   0  0  0  0  0  0  0  0  0  0  0  0
   20.3616   34.2948   30.3413 H   0  0  0  0  0  0  0  0  0  0  0  0
   19.5543   33.1423   29.2777 H   0  0  0  0  0  0  0  0  0  0  0  0
   20.8750   33.2489   32.8233 H   0  0  0  0  0  0  0  0  0  0  0  0
   19.3227   32.4638   33.2585 H   0  0  0  0  0  0  0  0  0  0  0  0
   18.8751   34.5976   33.8033 H   0  0  0  0  0  0  0  0  0  0  0  0
   17.5204   35.6217   32.0127 H   0  0  0  0  0  0  0  0  0  0  0  0
   17.1964   33.9052   32.2531 H   0  0  0  0  0  0  0  0  0  0  0  0
  1  2  1  0
  2  3  2  0
  2  4  1  0
  4 12  1  0
  4  5  2  0
  5  6  1  0
  6  7  2  0
  7  8  1  0
  7 42  1  0
  8  9  2  0
  9 32  1  0
  9 10  1  0
 10 11  2  0
 11  1  1  0
 11  6  1  0
 12 13  2  0
 13 14  1  0
 13 43  1  0
 14 15  2  0
 14 44  1  0
 15 19  1  0
 15 16  1  0
 16 17  1  0
 16 18  2  0
 18 12  1  0
 18 45  1  0
 19 21  1  0
 19 20  1  0
 21 22  2  0
 21 23  2  0
 21 24  1  0
 24 25  1  0
 25 26  1  0
 25 46  1  0
 25 47  1  0
 26 27  1  0
 26 48  1  0
 26 49  1  0
 27 28  1  0
 27 50  1  0
 27 51  1  0
 28 24  1  0
 28 52  1  0
 28 53  1  0
 29 30  1  0
 29 54  1  0
 29 55  1  0
 29 56  1  0
 30 31  1  0
 30  1  1  0
 30 57  1  0
 31 58  1  0
 31 59  1  0
 31 60  1  0
 32 34  1  0
 32 33  1  0
 34 35  1  0
 34 61  1  6
 35 36  1  0
 35 62  1  0
 35 63  1  0
 36 37  1  0
 36 41  1  0
 37 38  1  0
 37 64  1  0
 37 65  1  0
 38 39  1  0
 38 40  1  0
 38 66  1  1
 40 34  1  0
 40 67  1  0
 40 68  1  0
M  END
>  <minimizedAffinity>  (7) 
-10.78470

>  <mol_id>  (7) 
84980

>  <source_index>  (7) 
6

>  <layer>  (7) 
L2

>  <uniprot>  (7) 
O75460

>  <paff>  (7) 
9.0131999999999994

>  <smiles>  (7) 
CC(C)n1c(=O)c(-c2ccc(NS(=O)(=O)N3CCCC3)c(F)c2)nc2cnc(N[C@@H]3CNC[C@@H](F)C3)nc21

$$$$
L2:O75460:96586
     RDKit          3D

 72 76  0  0  0  0  0  0  0  0999 V2000
   17.9195   35.0336   25.6319 N   0  0  0  0  0  0  0  0  0  0  0  0
   17.3721   35.2007   24.3616 C   0  0  0  0  0  0  0  0  0  0  0  0
   18.0177   35.4883   23.3599 O   0  0  0  0  0  0  0  0  0  0  0  0
   15.8600   34.9814   24.2247 C   0  0  0  0  0  0  0  0  0  0  0  0
   15.1288   34.5675   25.2186 N   0  0  0  0  0  0  0  0  0  0  0  0
   15.7554   34.3715   26.4562 C   0  0  0  0  0  0  0  0  0  0  0  0
   15.0323   33.9409   27.5463 C   0  0  0  0  0  0  0  0  0  0  0  0
   15.5548   33.7398   28.7724 N   0  0  0  0  0  0  0  0  0  0  0  0
   16.8608   33.9800   28.9144 C   0  0  0  0  0  0  0  0  0  0  0  0
   17.6514   34.4053   27.9232 N   0  0  0  0  0  0  0  0  0  0  0  0
   17.0993   34.5961   26.7076 C   0  0  0  0  0  0  0  0  0  0  0  0
   15.1957   35.2278   22.9134 C   0  0  0  0  0  0  0  0  0  0  0  0
   15.2886   34.2471   21.9145 C   0  0  0  0  0  0  0  0  0  0  0  0
   14.6690   34.4312   20.6714 C   0  0  0  0  0  0  0  0  0  0  0  0
   13.9634   35.6030   20.4095 C   0  0  0  0  0  0  0  0  0  0  0  0
   13.8235   36.5425   21.4387 C   0  0  0  0  0  0  0  0  0  0  0  0
   13.0848   37.6434   21.2293 F   0  0  0  0  0  0  0  0  0  0  0  0
   14.4367   36.3742   22.6772 C   0  0  0  0  0  0  0  0  0  0  0  0
   13.2668   35.8447   19.1821 N   0  0  0  0  0  0  0  0  0  0  0  0
   13.8194   35.6635   18.3376 H   0  0  0  0  0  0  0  0  0  0  0  0
   11.6627   35.3926   18.9672 S   0  0  0  0  0  0  0  0  0  0  0  0
   11.5855   34.3790   17.9351 O   0  0  0  0  0  0  0  0  0  0  0  0
   11.1526   35.1043   20.2931 O   0  0  0  0  0  0  0  0  0  0  0  0
   10.8426   36.8747   18.3470 C   0  0  0  0  0  0  0  0  0  0  0  0
   11.3083   37.2406   16.9610 C   0  0  0  0  0  0  0  0  0  0  0  0
   10.6569   36.7083   15.8377 C   0  0  0  0  0  0  0  0  0  0  0  0
   11.0768   37.0394   14.5485 C   0  0  0  0  0  0  0  0  0  0  0  0
   12.1423   37.9170   14.3656 C   0  0  0  0  0  0  0  0  0  0  0  0
   12.7831   38.4707   15.4710 C   0  0  0  0  0  0  0  0  0  0  0  0
   12.3650   38.1409   16.7612 C   0  0  0  0  0  0  0  0  0  0  0  0
   20.2004   33.9898   25.7489 C   0  0  0  0  0  0  0  0  0  0  0  0
   19.3597   35.2675   25.8269 C   0  0  0  0  0  0  0  0  0  0  0  0
   19.9129   36.3858   24.9396 C   0  0  0  0  0  0  0  0  0  0  0  0
   17.4695   33.8063   30.1252 N   0  0  0  0  0  0  0  0  0  0  0  0
   17.5159   32.8472   30.4300 H   0  0  0  0  0  0  0  0  0  0  0  0
   18.3057   34.8343   30.7256 C   0  0  2  0  0  0  0  0  0  0  0  0
   19.7768   34.6547   30.2967 C   0  0  0  0  0  0  0  0  0  0  0  0
   20.3695   33.3709   30.7068 N   0  0  0  0  0  0  0  0  0  0  0  0
   19.9123   32.8964   32.0177 C   0  0  0  0  0  0  0  0  0  0  0  0
   19.3637   34.0071   32.9210 C   0  0  1  0  0  0  0  0  0  0  0  0
   18.1855   34.7452   32.2589 C   0  0  0  0  0  0  0  0  0  0  0  0
   20.1443   32.6661   30.0036 H   0  0  0  0  0  0  0  0  0  0  0  0
   18.9497   33.4483   34.2783 C   0  0  0  0  0  0  0  0  0  0  0  0
   17.6380   33.0946   34.2363 F   0  0  0  0  0  0  0  0  0  0  0  0
   14.0246   33.7604   27.4159 H   0  0  0  0  0  0  0  0  0  0  0  0
   15.8190   33.3809   22.0973 H   0  0  0  0  0  0  0  0  0  0  0  0
   14.7356   33.6974   19.9488 H   0  0  0  0  0  0  0  0  0  0  0  0
   14.3309   37.0901   23.4129 H   0  0  0  0  0  0  0  0  0  0  0  0
   11.0540   37.6887   19.0085 H   0  0  0  0  0  0  0  0  0  0  0  0
    9.7923   36.6759   18.3006 H   0  0  0  0  0  0  0  0  0  0  0  0
    9.8596   36.0658   15.9662 H   0  0  0  0  0  0  0  0  0  0  0  0
   10.5971   36.6334   13.7299 H   0  0  0  0  0  0  0  0  0  0  0  0
   12.4566   38.1567   13.4123 H   0  0  0  0  0  0  0  0  0  0  0  0
   13.5687   39.1262   15.3360 H   0  0  0  0  0  0  0  0  0  0  0  0
   12.8377   38.5633   17.5755 H   0  0  0  0  0  0  0  0  0  0  0  0
   21.2319   34.2318   25.8987 H   0  0  0  0  0  0  0  0  0  0  0  0
   20.0759   33.5391   24.7865 H   0  0  0  0  0  0  0  0  0  0  0  0
   19.8808   33.3057   26.5071 H   0  0  0  0  0  0  0  0  0  0  0  0
   19.4497   35.6147   26.8350 H   0  0  0  0  0  0  0  0  0  0  0  0
   19.8477   36.0917   23.9129 H   0  0  0  0  0  0  0  0  0  0  0  0
   20.9359   36.5696   25.1937 H   0  0  0  0  0  0  0  0  0  0  0  0
   19.3417   37.2776   25.0921 H   0  0  0  0  0  0  0  0  0  0  0  0
   17.9772   35.7967   30.3928 H   0  0  0  0  0  0  0  0  0  0  0  0
   20.3525   35.4449   30.7315 H   0  0  0  0  0  0  0  0  0  0  0  0
   19.7911   34.6737   29.2270 H   0  0  0  0  0  0  0  0  0  0  0  0
   20.7385   32.4336   32.5159 H   0  0  0  0  0  0  0  0  0  0  0  0
   19.1076   32.2142   31.8389 H   0  0  0  0  0  0  0  0  0  0  0  0
   20.1508   34.7163   33.0708 H   0  0  0  0  0  0  0  0  0  0  0  0
   18.1418   35.7385   32.6543 H   0  0  0  0  0  0  0  0  0  0  0  0
   17.2995   34.1855   32.4751 H   0  0  0  0  0  0  0  0  0  0  0  0
   19.0950   34.1942   35.0315 H   0  0  0  0  0  0  0  0  0  0  0  0
   19.5455   32.5903   34.5100 H   0  0  0  0  0  0  0  0  0  0  0  0
  1  2  1  0
  2  3  2  0
  2  4  1  0
  4 12  1  0
  4  5  2  0
  5  6  1  0
  6  7  2  0
  7  8  1  0
  7 45  1  0
  8  9  2  0
  9 34  1  0
  9 10  1  0
 10 11  2  0
 11  1  1  0
 11  6  1  0
 12 13  2  0
 13 14  1  0
 13 46  1  0
 14 15  2  0
 14 47  1  0
 15 19  1  0
 15 16  1  0
 16 17  1  0
 16 18  2  0
 18 12  1  0
 18 48  1  0
 19 21  1  0
 19 20  1  0
 21 22  2  0
 21 23  2  0
 21 24  1  0
 24 25  1  0
 24 49  1  0
 24 50  1  0
 25 26  2  0
 26 27  1  0
 26 51  1  0
 27 28  2  0
 27 52  1  0
 28 29  1  0
 28 53  1  0
 29 30  2  0
 29 54  1  0
 30 25  1  0
 30 55  1  0
 31 32  1  0
 31 56  1  0
 31 57  1  0
 31 58  1  0
 32 33  1  0
 32  1  1  0
 32 59  1  0
 33 60  1  0
 33 61  1  0
 33 62  1  0
 34 36  1  0
 34 35  1  0
 36 37  1  0
 36 63  1  6
 37 38  1  0
 37 64  1  0
 37 65  1  0
 38 39  1  0
 38 42  1  0
 39 40  1  0
 39 66  1  0
 39 67  1  0
 40 43  1  0
 40 41  1  0
 40 68  1  1
 41 36  1  0
 41 69  1  0
 41 70  1  0
 43 44  1  0
 43 71  1  0
 43 72  1  0
M  END
>  <minimizedAffinity>  (8) 
-10.87635

>  <mol_id>  (8) 
96586

>  <source_index>  (8) 
7

>  <layer>  (8) 
L2

>  <uniprot>  (8) 
O75460

>  <paff>  (8) 
9.6197999999999997

>  <smiles>  (8) 
CC(C)n1c(=O)c(-c2ccc(NS(=O)(=O)Cc3ccccc3)c(F)c2)nc2cnc(N[C@@H]3CNC[C@H](CF)C3)nc21

$$$$
L2:O75460:100233
     RDKit          3D

 68 72  0  0  0  0  0  0  0  0999 V2000
   17.0255   35.5203   23.9993 C   0  0  0  0  0  0  0  0  0  0  0  0
   17.7860   35.6858   22.8821 N   0  0  0  0  0  0  0  0  0  0  0  0
   18.8012   34.8175   22.7011 C   0  0  0  0  0  0  0  0  0  0  0  0
   19.0905   33.7860   23.5741 C   0  0  0  0  0  0  0  0  0  0  0  0
   18.2942   33.6398   24.7079 C   0  0  0  0  0  0  0  0  0  0  0  0
   17.2295   34.5216   24.9587 C   0  0  0  0  0  0  0  0  0  0  0  0
   16.4075   34.3671   26.1676 C   0  0  0  0  0  0  0  0  0  0  0  0
   15.0398   34.1877   26.1297 C   0  0  0  0  0  0  0  0  0  0  0  0
   14.4150   34.0766   27.3462 C   0  0  0  0  0  0  0  0  0  0  0  0
   15.0634   34.1397   28.5215 N   0  0  0  0  0  0  0  0  0  0  0  0
   16.3858   34.3286   28.4729 C   0  0  0  0  0  0  0  0  0  0  0  0
   17.0816   34.4532   27.3365 N   0  0  0  0  0  0  0  0  0  0  0  0
   17.0206   34.3860   29.6815 N   0  0  0  0  0  0  0  0  0  0  0  0
   16.7339   35.1597   30.2583 H   0  0  0  0  0  0  0  0  0  0  0  0
   17.8528   33.3036   30.1766 C   0  0  2  0  0  0  0  0  0  0  0  0
   18.5551   33.6983   31.4973 C   0  0  0  0  0  0  0  0  0  0  0  0
   19.5272   34.7934   31.3202 N   0  0  0  0  0  0  0  0  0  0  0  0
   20.5682   34.3992   30.3661 C   0  0  0  0  0  0  0  0  0  0  0  0
   19.9895   34.0453   28.9895 C   0  0  2  0  0  0  0  0  0  0  0  0
   18.9093   32.9552   29.1151 C   0  0  0  0  0  0  0  0  0  0  0  0
   19.0140   35.5977   30.9549 H   0  0  0  0  0  0  0  0  0  0  0  0
   21.1000   33.5989   28.0435 C   0  0  0  0  0  0  0  0  0  0  0  0
   20.7485   33.8809   26.7612 F   0  0  0  0  0  0  0  0  0  0  0  0
   15.9203   36.3552   24.1563 O   0  0  0  0  0  0  0  0  0  0  0  0
   13.0502   36.0788   21.1519 C   0  0  0  0  0  0  0  0  0  0  0  0
   13.9751   35.0496   21.3598 C   0  0  0  0  0  0  0  0  0  0  0  0
   13.9490   33.9546   20.5861 F   0  0  0  0  0  0  0  0  0  0  0  0
   14.9388   35.1397   22.3604 C   0  0  0  0  0  0  0  0  0  0  0  0
   14.9788   36.2807   23.1605 C   0  0  0  0  0  0  0  0  0  0  0  0
   14.0423   37.3001   22.9873 C   0  0  0  0  0  0  0  0  0  0  0  0
   14.0531   38.3703   23.7967 F   0  0  0  0  0  0  0  0  0  0  0  0
   13.0858   37.1980   21.9853 C   0  0  0  0  0  0  0  0  0  0  0  0
   12.1864   38.1798   21.8145 F   0  0  0  0  0  0  0  0  0  0  0  0
   12.0047   35.9598   20.1667 N   0  0  0  0  0  0  0  0  0  0  0  0
   11.4745   35.0842   20.2382 H   0  0  0  0  0  0  0  0  0  0  0  0
   13.9194   36.4652   18.5333 O   0  0  0  0  0  0  0  0  0  0  0  0
   12.5160   36.1090   18.5446 S   0  0  0  0  0  0  0  0  0  0  0  0
   12.0348   34.8960   17.9147 O   0  0  0  0  0  0  0  0  0  0  0  0
   11.5058   37.4941   17.9988 C   0  0  0  0  0  0  0  0  0  0  0  0
   11.7621   37.7468   16.5360 C   0  0  0  0  0  0  0  0  0  0  0  0
   11.0696   37.0233   15.5543 C   0  0  0  0  0  0  0  0  0  0  0  0
   11.3131   37.2567   14.2000 C   0  0  0  0  0  0  0  0  0  0  0  0
   12.2506   38.2119   13.8132 C   0  0  0  0  0  0  0  0  0  0  0  0
   12.9486   38.9329   14.7797 C   0  0  0  0  0  0  0  0  0  0  0  0
   12.7076   38.7018   16.1347 C   0  0  0  0  0  0  0  0  0  0  0  0
   19.3951   34.9292   21.8645 H   0  0  0  0  0  0  0  0  0  0  0  0
   19.8753   33.1413   23.3911 H   0  0  0  0  0  0  0  0  0  0  0  0
   18.4888   32.8742   25.3719 H   0  0  0  0  0  0  0  0  0  0  0  0
   14.5185   34.1400   25.2403 H   0  0  0  0  0  0  0  0  0  0  0  0
   13.3926   33.9371   27.3593 H   0  0  0  0  0  0  0  0  0  0  0  0
   17.2302   32.4554   30.3712 H   0  0  0  0  0  0  0  0  0  0  0  0
   19.0701   32.8421   31.8802 H   0  0  0  0  0  0  0  0  0  0  0  0
   17.8009   34.0421   32.1740 H   0  0  0  0  0  0  0  0  0  0  0  0
   21.0844   33.5454   30.7527 H   0  0  0  0  0  0  0  0  0  0  0  0
   21.2300   35.2305   30.2402 H   0  0  0  0  0  0  0  0  0  0  0  0
   19.5304   34.9215   28.5816 H   0  0  0  0  0  0  0  0  0  0  0  0
   19.3799   32.0335   29.3869 H   0  0  0  0  0  0  0  0  0  0  0  0
   18.4122   32.8752   28.1710 H   0  0  0  0  0  0  0  0  0  0  0  0
   21.2535   32.5450   28.1469 H   0  0  0  0  0  0  0  0  0  0  0  0
   22.0034   34.1184   28.2864 H   0  0  0  0  0  0  0  0  0  0  0  0
   15.6138   34.3731   22.5077 H   0  0  0  0  0  0  0  0  0  0  0  0
   11.7602   38.3670   18.5629 H   0  0  0  0  0  0  0  0  0  0  0  0
   10.4712   37.2660   18.1487 H   0  0  0  0  0  0  0  0  0  0  0  0
   10.3752   36.3134   15.8352 H   0  0  0  0  0  0  0  0  0  0  0  0
   10.7979   36.7209   13.4841 H   0  0  0  0  0  0  0  0  0  0  0  0
   12.4279   38.3853   12.8114 H   0  0  0  0  0  0  0  0  0  0  0  0
   13.6448   39.6388   14.4932 H   0  0  0  0  0  0  0  0  0  0  0  0
   13.2288   39.2374   16.8464 H   0  0  0  0  0  0  0  0  0  0  0  0
  1  2  2  0
  2  3  1  0
  3  4  2  0
  3 46  1  0
  4  5  1  0
  4 47  1  0
  5  6  2  0
  5 48  1  0
  6  7  1  0
  6  1  1  0
  7  8  2  0
  8  9  1  0
  8 49  1  0
  9 10  2  0
  9 50  1  0
 10 11  1  0
 11 13  1  0
 11 12  2  0
 12  7  1  0
 13 15  1  0
 13 14  1  0
 15 16  1  0
 15 51  1  1
 16 17  1  0
 16 52  1  0
 16 53  1  0
 17 18  1  0
 17 21  1  0
 18 19  1  0
 18 54  1  0
 18 55  1  0
 19 22  1  0
 19 20  1  0
 19 56  1  6
 20 15  1  0
 20 57  1  0
 20 58  1  0
 22 23  1  0
 22 59  1  0
 22 60  1  0
 24  1  1  0
 25 26  2  0
 26 27  1  0
 26 28  1  0
 28 29  2  0
 28 61  1  0
 29 24  1  0
 29 30  1  0
 30 31  1  0
 30 32  2  0
 32 33  1  0
 32 25  1  0
 34 25  1  0
 34 35  1  0
 36 37  2  0
 37 38  2  0
 37 39  1  0
 37 34  1  0
 39 40  1  0
 39 62  1  0
 39 63  1  0
 40 41  2  0
 41 42  1  0
 41 64  1  0
 42 43  2  0
 42 65  1  0
 43 44  1  0
 43 66  1  0
 44 45  2  0
 44 67  1  0
 45 40  1  0
 45 68  1  0
M  END
>  <minimizedAffinity>  (9) 
-11.11218

>  <mol_id>  (9) 
100233

>  <source_index>  (9) 
8

>  <layer>  (9) 
L2

>  <uniprot>  (9) 
O75460

>  <paff>  (9) 
6.2675999999999998

>  <smiles>  (9) 
O=S(=O)(Cc1ccccc1)Nc1c(F)cc(Oc2ncccc2-c2ccnc(N[C@@H]3CNC[C@@H](CF)C3)n2)c(F)c1F

$$$$
L2:O75460:127767
     RDKit          3D

 72 76  0  0  0  0  0  0  0  0999 V2000
   17.1197   34.3092   23.1368 N   0  0  0  0  0  0  0  0  0  0  0  0
   17.7615   33.8532   24.2847 C   0  0  0  0  0  0  0  0  0  0  0  0
   18.6694   33.0217   24.2727 O   0  0  0  0  0  0  0  0  0  0  0  0
   17.3206   34.4150   25.6117 C   0  0  0  0  0  0  0  0  0  0  0  0
   16.3428   35.3326   25.6595 C   0  0  0  0  0  0  0  0  0  0  0  0
   15.7035   35.7751   24.4343 C   0  0  0  0  0  0  0  0  0  0  0  0
   14.6929   36.7100   24.4156 C   0  0  0  0  0  0  0  0  0  0  0  0
   14.0933   37.1397   23.2907 N   0  0  0  0  0  0  0  0  0  0  0  0
   14.5172   36.6084   22.1412 C   0  0  0  0  0  0  0  0  0  0  0  0
   15.4897   35.6936   22.0606 N   0  0  0  0  0  0  0  0  0  0  0  0
   16.0774   35.2807   23.2008 C   0  0  0  0  0  0  0  0  0  0  0  0
   17.9668   33.9744   26.8660 C   0  0  0  0  0  0  0  0  0  0  0  0
   19.3031   34.2936   27.1263 C   0  0  0  0  0  0  0  0  0  0  0  0
   19.9049   33.8621   28.3080 C   0  0  0  0  0  0  0  0  0  0  0  0
   21.1893   34.1873   28.5286 F   0  0  0  0  0  0  0  0  0  0  0  0
   19.2126   33.1193   29.2738 C   0  0  0  0  0  0  0  0  0  0  0  0
   17.8862   32.7834   28.9979 C   0  0  0  0  0  0  0  0  0  0  0  0
   17.1666   32.0025   29.8123 F   0  0  0  0  0  0  0  0  0  0  0  0
   17.2760   33.2082   27.8135 C   0  0  0  0  0  0  0  0  0  0  0  0
   16.0001   32.8575   27.5824 F   0  0  0  0  0  0  0  0  0  0  0  0
   19.9473   32.7676   30.4297 N   0  0  0  0  0  0  0  0  0  0  0  0
   20.1606   33.5131   31.5632 C   0  0  0  0  0  0  0  0  0  0  0  0
   19.8610   34.6763   31.7692 O   0  0  0  0  0  0  0  0  0  0  0  0
   20.4188   31.8696   30.3879 H   0  0  0  0  0  0  0  0  0  0  0  0
   20.9298   32.7726   32.6033 C   0  0  0  0  0  0  0  0  0  0  0  0
   20.5548   32.8457   34.0661 C   0  0  0  0  0  0  0  0  0  0  0  0
   21.7894   33.5439   33.5783 C   0  0  0  0  0  0  0  0  0  0  0  0
   17.6512   32.2639   21.8023 C   0  0  0  0  0  0  0  0  0  0  0  0
   17.5082   33.7890   21.8074 C   0  0  0  0  0  0  0  0  0  0  0  0
   18.7678   34.4727   21.2671 C   0  0  0  0  0  0  0  0  0  0  0  0
   13.8960   37.0600   21.0123 N   0  0  0  0  0  0  0  0  0  0  0  0
   14.5250   37.4110   20.3060 H   0  0  0  0  0  0  0  0  0  0  0  0
   12.4601   37.0284   20.8260 C   0  0  1  0  0  0  0  0  0  0  0  0
   12.0426   38.1310   19.8345 C   0  0  0  0  0  0  0  0  0  0  0  0
   11.8400   37.6427   18.3931 C   0  0  0  0  0  0  0  0  0  0  0  0
   12.7973   36.4965   18.0302 C   0  0  1  0  0  0  0  0  0  0  0  0
   12.5671   35.2796   18.9540 C   0  0  0  0  0  0  0  0  0  0  0  0
   12.0091   35.6504   20.3340 C   0  0  0  0  0  0  0  0  0  0  0  0
   12.8027   36.2002   16.5827 N   0  0  0  0  0  0  0  0  0  0  0  0
   11.5353   36.5562   15.9428 C   0  0  0  0  0  0  0  0  0  0  0  0
   13.9254   36.7654   15.8379 C   0  0  0  0  0  0  0  0  0  0  0  0
   16.0456   35.7235   26.5672 H   0  0  0  0  0  0  0  0  0  0  0  0
   14.3774   37.1035   25.3159 H   0  0  0  0  0  0  0  0  0  0  0  0
   19.8437   34.8482   26.4443 H   0  0  0  0  0  0  0  0  0  0  0  0
   21.0780   31.9719   31.9092 H   0  0  0  0  0  0  0  0  0  0  0  0
   20.6414   31.9764   34.6840 H   0  0  0  0  0  0  0  0  0  0  0  0
   19.6821   33.1451   34.6080 H   0  0  0  0  0  0  0  0  0  0  0  0
   22.7556   33.1721   33.8488 H   0  0  0  0  0  0  0  0  0  0  0  0
   22.1598   34.5465   33.6291 H   0  0  0  0  0  0  0  0  0  0  0  0
   17.9322   31.9353   20.8235 H   0  0  0  0  0  0  0  0  0  0  0  0
   16.7177   31.8172   22.0742 H   0  0  0  0  0  0  0  0  0  0  0  0
   18.4036   31.9739   22.5056 H   0  0  0  0  0  0  0  0  0  0  0  0
   16.7065   34.0316   21.1415 H   0  0  0  0  0  0  0  0  0  0  0  0
   19.5957   34.2533   21.9084 H   0  0  0  0  0  0  0  0  0  0  0  0
   18.6129   35.5309   21.2340 H   0  0  0  0  0  0  0  0  0  0  0  0
   18.9747   34.1116   20.2814 H   0  0  0  0  0  0  0  0  0  0  0  0
   11.9817   37.2109   21.7655 H   0  0  0  0  0  0  0  0  0  0  0  0
   12.8041   38.8827   19.8295 H   0  0  0  0  0  0  0  0  0  0  0  0
   11.0953   38.4999   20.1684 H   0  0  0  0  0  0  0  0  0  0  0  0
   12.0119   38.4603   17.7246 H   0  0  0  0  0  0  0  0  0  0  0  0
   10.8388   37.2749   18.3078 H   0  0  0  0  0  0  0  0  0  0  0  0
   13.8015   36.8132   18.2206 H   0  0  0  0  0  0  0  0  0  0  0  0
   13.5022   34.7779   19.0913 H   0  0  0  0  0  0  0  0  0  0  0  0
   11.8371   34.6589   18.4778 H   0  0  0  0  0  0  0  0  0  0  0  0
   12.3356   34.9154   21.0398 H   0  0  0  0  0  0  0  0  0  0  0  0
   10.9434   35.6821   20.2440 H   0  0  0  0  0  0  0  0  0  0  0  0
   10.7241   36.1354   16.4994 H   0  0  0  0  0  0  0  0  0  0  0  0
   11.5197   36.1722   14.9442 H   0  0  0  0  0  0  0  0  0  0  0  0
   11.4356   37.6212   15.9170 H   0  0  0  0  0  0  0  0  0  0  0  0
   14.8432   36.4966   16.3177 H   0  0  0  0  0  0  0  0  0  0  0  0
   13.8355   37.8313   15.8116 H   0  0  0  0  0  0  0  0  0  0  0  0
   13.9197   36.3823   14.8389 H   0  0  0  0  0  0  0  0  0  0  0  0
  1  2  1  0
  2  3  2  0
  2  4  1  0
  4 12  1  0
  4  5  2  0
  5  6  1  0
  5 42  1  0
  6  7  2  0
  7  8  1  0
  7 43  1  0
  8  9  2  0
  9 31  1  0
  9 10  1  0
 10 11  2  0
 11  1  1  0
 11  6  1  0
 12 13  2  0
 13 14  1  0
 13 44  1  0
 14 15  1  0
 14 16  2  0
 16 21  1  0
 16 17  1  0
 17 18  1  0
 17 19  2  0
 19 20  1  0
 19 12  1  0
 21 22  1  0
 21 24  1  0
 22 23  2  0
 22 25  1  0
 25 26  1  0
 25 45  1  0
 26 27  1  0
 26 46  1  0
 26 47  1  0
 27 25  1  0
 27 48  1  0
 27 49  1  0
 28 29  1  0
 28 50  1  0
 28 51  1  0
 28 52  1  0
 29 30  1  0
 29  1  1  0
 29 53  1  0
 30 54  1  0
 30 55  1  0
 30 56  1  0
 31 33  1  0
 31 32  1  0
 33 34  1  0
 33 57  1  1
 34 35  1  0
 34 58  1  0
 34 59  1  0
 35 36  1  0
 35 60  1  0
 35 61  1  0
 36 39  1  0
 36 37  1  0
 36 62  1  1
 37 38  1  0
 37 63  1  0
 37 64  1  0
 38 33  1  0
 38 65  1  0
 38 66  1  0
 39 40  1  0
 39 41  1  0
 40 67  1  0
 40 68  1  0
 40 69  1  0
 41 70  1  0
 41 71  1  0
 41 72  1  0
M  END
>  <minimizedAffinity>  (10) 
-10.14998

>  <mol_id>  (10) 
127767

>  <source_index>  (10) 
9

>  <layer>  (10) 
L2

>  <uniprot>  (10) 
O75460

>  <paff>  (10) 
8.8538999999999994

>  <smiles>  (10) 
CC(C)n1c(=O)c(-c2cc(F)c(NC(=O)C3CC3)c(F)c2F)cc2cnc(N[C@H]3CC[C@H](N(C)C)CC3)nc21

$$$$
