L1:P62937:19634
     RDKit          3D

214214  0  0  0  0  0  0  0  0999 V2000
   52.6597   51.3799   52.9346 C   0  0  2  0  0  0  0  0  0  0  0  0
   53.6668   50.8953   53.8659 N   0  0  0  0  0  0  0  0  0  0  0  0
   54.9250   51.3636   53.9164 C   0  0  0  0  0  0  0  0  0  0  0  0
   55.4264   52.0423   53.0213 O   0  0  0  0  0  0  0  0  0  0  0  0
   55.6726   51.1202   55.2410 C   0  0  1  0  0  0  0  0  0  0  0  0
   55.2042   52.2051   56.1235 N   0  0  0  0  0  0  0  0  0  0  0  0
   55.7948   53.5153   55.8424 C   0  0  0  0  0  0  0  0  0  0  0  0
   54.1259   52.0612   56.9240 C   0  0  0  0  0  0  0  0  0  0  0  0
   53.4156   51.0384   56.9462 O   0  0  0  0  0  0  0  0  0  0  0  0
   53.7864   53.1795   57.9036 C   0  0  1  0  0  0  0  0  0  0  0  0
   52.3449   53.3914   57.8832 N   0  0  0  0  0  0  0  0  0  0  0  0
   51.4577   52.4141   58.4916 C   0  0  0  0  0  0  0  0  0  0  0  0
   51.8771   54.3357   57.0221 C   0  0  0  0  0  0  0  0  0  0  0  0
   52.4992   54.6544   56.0077 O   0  0  0  0  0  0  0  0  0  0  0  0
   50.6184   55.1264   57.4398 C   0  0  1  0  0  0  0  0  0  0  0  0
   50.6856   56.4285   56.7679 N   0  0  0  0  0  0  0  0  0  0  0  0
   51.6665   57.3357   57.3376 C   0  0  0  0  0  0  0  0  0  0  0  0
   50.2595   56.5467   55.4728 C   0  0  0  0  0  0  0  0  0  0  0  0
   49.4286   55.7962   54.9789 O   0  0  0  0  0  0  0  0  0  0  0  0
   50.8930   57.6231   54.5554 C   0  0  1  0  0  0  0  0  0  0  0  0
   50.6912   57.2379   53.1468 N   0  0  0  0  0  0  0  0  0  0  0  0
   51.8724   56.6959   52.5069 C   0  0  0  0  0  0  0  0  0  0  0  0
   49.4896   56.9563   52.5551 C   0  0  0  0  0  0  0  0  0  0  0  0
   49.3918   56.2332   51.5553 O   0  0  0  0  0  0  0  0  0  0  0  0
   48.2694   57.6950   53.0694 C   0  0  1  0  0  0  0  0  0  0  0  0
   48.0676   58.9437   52.2033 C   0  0  0  0  0  0  0  0  0  0  0  0
   47.0772   56.8860   53.0358 N   0  0  0  0  0  0  0  0  0  0  0  0
   46.0476   57.1674   53.8688 C   0  0  0  0  0  0  0  0  0  0  0  0
   46.1555   57.8664   54.8707 O   0  0  0  0  0  0  0  0  0  0  0  0
   44.6827   56.5775   53.4901 C   0  0  2  0  0  0  0  0  0  0  0  0
   44.2174   55.6049   54.5570 C   0  0  0  0  0  0  0  0  0  0  0  0
   44.6606   55.9424   52.1877 N   0  0  0  0  0  0  0  0  0  0  0  0
   44.4493   56.6066   51.0296 C   0  0  0  0  0  0  0  0  0  0  0  0
   44.3725   57.8256   50.9287 O   0  0  0  0  0  0  0  0  0  0  0  0
   44.3075   55.6805   49.8013 C   0  0  1  0  0  0  0  0  0  0  0  0
   45.4881   54.8027   49.6583 N   0  0  0  0  0  0  0  0  0  0  0  0
   46.6706   55.4680   49.1174 C   0  0  0  0  0  0  0  0  0  0  0  0
   45.5340   53.5947   50.2659 C   0  0  0  0  0  0  0  0  0  0  0  0
   44.8240   53.2952   51.2356 O   0  0  0  0  0  0  0  0  0  0  0  0
   46.4675   52.5268   49.7182 C   0  0  1  0  0  0  0  0  0  0  0  0
   46.8156   51.6974   50.8389 N   0  0  0  0  0  0  0  0  0  0  0  0
   47.8846   50.8879   50.8233 C   0  0  0  0  0  0  0  0  0  0  0  0
   48.5804   50.7485   49.8093 O   0  0  0  0  0  0  0  0  0  0  0  0
   48.2835   50.2098   52.1230 C   0  0  1  0  0  0  0  0  0  0  0  0
   47.4405   50.5450   53.2675 N   0  0  0  0  0  0  0  0  0  0  0  0
   46.0155   50.2060   53.2842 C   0  0  0  0  0  0  0  0  0  0  0  0
   47.8799   51.1836   54.3995 C   0  0  0  0  0  0  0  0  0  0  0  0
   47.0903   51.7475   55.1573 O   0  0  0  0  0  0  0  0  0  0  0  0
   49.3473   51.1106   54.8541 C   0  0  1  0  0  0  0  0  0  0  0  0
   49.6151   49.7878   55.5563 C   0  0  0  0  0  0  0  0  0  0  0  0
   50.3654   51.5401   53.8782 N   0  0  0  0  0  0  0  0  0  0  0  0
   50.3041   52.9510   53.5127 C   0  0  0  0  0  0  0  0  0  0  0  0
   51.3647   50.7412   53.4384 C   0  0  0  0  0  0  0  0  0  0  0  0
   51.3297   49.5094   53.4356 O   0  0  0  0  0  0  0  0  0  0  0  0
   53.3314   50.3309   54.6293 H   0  0  0  0  0  0  0  0  0  0  0  0
   46.9190   56.3163   52.2242 H   0  0  0  0  0  0  0  0  0  0  0  0
   44.5556   54.9321   52.1419 H   0  0  0  0  0  0  0  0  0  0  0  0
   46.3170   51.8857   51.6934 H   0  0  0  0  0  0  0  0  0  0  0  0
   54.3400   52.8889   59.3153 C   0  0  0  0  0  0  0  0  0  0  0  0
   53.8401   53.9229   60.3104 C   0  0  0  0  0  0  0  0  0  0  0  0
   55.8607   52.8356   59.3253 C   0  0  0  0  0  0  0  0  0  0  0  0
   45.8274   51.6993   48.5836 C   0  0  0  0  0  0  0  0  0  0  0  0
   44.4737   51.1209   48.9363 C   0  0  0  0  0  0  0  0  0  0  0  0
   45.7517   52.4863   47.2865 C   0  0  0  0  0  0  0  0  0  0  0  0
   55.6038   49.7007   55.8182 C   0  0  2  0  0  0  0  0  0  0  0  0
   55.8523   49.7251   57.2224 O   0  0  0  0  0  0  0  0  0  0  0  0
   55.0162   50.0260   57.6041 H   0  0  0  0  0  0  0  0  0  0  0  0
   56.6019   48.7263   55.1866 C   0  0  2  0  0  0  0  0  0  0  0  0
   56.6057   48.7887   53.6657 C   0  0  0  0  0  0  0  0  0  0  0  0
   56.2543   47.3345   55.7018 C   0  0  0  0  0  0  0  0  0  0  0  0
   57.3601   46.2973   55.6526 C   0  0  0  0  0  0  0  0  0  0  0  0
   56.9667   44.9527   56.2846 C   0  0  0  0  0  0  0  0  0  0  0  0
   57.6119   44.6538   57.6355 C   0  0  0  0  0  0  0  0  0  0  0  0
   57.2703   45.5703   58.8064 C   0  0  0  0  0  0  0  0  0  0  0  0
   55.8856   45.3836   59.4147 C   0  0  0  0  0  0  0  0  0  0  0  0
   54.8273   46.0300   58.6610 N   0  0  0  0  0  0  0  0  0  0  0  0
   53.5177   45.7881   58.8674 C   0  0  0  0  0  0  0  0  0  0  0  0
   52.5902   46.5842   57.9773 C   0  0  0  0  0  0  0  0  0  0  0  0
   53.1050   44.9832   59.7066 O   0  0  0  0  0  0  0  0  0  0  0  0
   55.0744   46.8150   58.0814 H   0  0  0  0  0  0  0  0  0  0  0  0
   52.0321   51.5336   50.4654 C   0  0  0  0  0  0  0  0  0  0  0  0
   52.9756   50.9567   51.5037 C   0  0  0  0  0  0  0  0  0  0  0  0
   49.2755   54.4201   57.2986 C   0  0  0  0  0  0  0  0  0  0  0  0
   48.0772   55.2776   57.7001 C   0  0  0  0  0  0  0  0  0  0  0  0
   46.7930   54.5873   57.2724 C   0  0  0  0  0  0  0  0  0  0  0  0
   48.0706   55.6092   59.1860 C   0  0  0  0  0  0  0  0  0  0  0  0
   50.5162   59.0881   54.8221 C   0  0  0  0  0  0  0  0  0  0  0  0
   51.6257   60.0748   54.4625 C   0  0  0  0  0  0  0  0  0  0  0  0
   51.0383   61.4646   54.2489 C   0  0  0  0  0  0  0  0  0  0  0  0
   52.7439   60.1280   55.4894 C   0  0  0  0  0  0  0  0  0  0  0  0
   42.9598   54.9500   49.7718 C   0  0  0  0  0  0  0  0  0  0  0  0
   41.9429   55.5482   48.7972 C   0  0  0  0  0  0  0  0  0  0  0  0
   42.3437   55.2945   47.3501 C   0  0  0  0  0  0  0  0  0  0  0  0
   41.6320   57.0103   49.0789 C   0  0  0  0  0  0  0  0  0  0  0  0
   48.6141   48.7254   51.9526 C   0  0  0  0  0  0  0  0  0  0  0  0
   47.5067   47.6918   51.9082 C   0  0  0  0  0  0  0  0  0  0  0  0
   46.6406   47.7958   50.6617 C   0  0  0  0  0  0  0  0  0  0  0  0
   48.1418   46.3079   51.9923 C   0  0  0  0  0  0  0  0  0  0  0  0
   52.6481   52.4661   52.9842 H   0  0  0  0  0  0  0  0  0  0  0  0
   56.7195   51.3313   55.0440 H   0  0  0  0  0  0  0  0  0  0  0  0
   56.3770   53.4283   54.9333 H   0  0  0  0  0  0  0  0  0  0  0  0
   56.4484   53.8430   56.6474 H   0  0  0  0  0  0  0  0  0  0  0  0
   55.0215   54.2560   55.6701 H   0  0  0  0  0  0  0  0  0  0  0  0
   54.2126   54.1215   57.5745 H   0  0  0  0  0  0  0  0  0  0  0  0
   52.0396   51.6334   58.9596 H   0  0  0  0  0  0  0  0  0  0  0  0
   50.8434   51.9414   57.7310 H   0  0  0  0  0  0  0  0  0  0  0  0
   50.8263   52.8741   59.2450 H   0  0  0  0  0  0  0  0  0  0  0  0
   50.7498   55.3403   58.5016 H   0  0  0  0  0  0  0  0  0  0  0  0
   51.5508   57.3437   58.4187 H   0  0  0  0  0  0  0  0  0  0  0  0
   51.5030   58.3465   56.9971 H   0  0  0  0  0  0  0  0  0  0  0  0
   52.6883   57.0436   57.0989 H   0  0  0  0  0  0  0  0  0  0  0  0
   51.9689   57.5432   54.7058 H   0  0  0  0  0  0  0  0  0  0  0  0
   52.6557   57.4463   52.5016 H   0  0  0  0  0  0  0  0  0  0  0  0
   51.6283   56.4413   51.4833 H   0  0  0  0  0  0  0  0  0  0  0  0
   52.2305   55.7981   53.0126 H   0  0  0  0  0  0  0  0  0  0  0  0
   48.3755   57.9694   54.1060 H   0  0  0  0  0  0  0  0  0  0  0  0
   47.8087   58.6527   51.1888 H   0  0  0  0  0  0  0  0  0  0  0  0
   48.9776   59.5427   52.1703 H   0  0  0  0  0  0  0  0  0  0  0  0
   47.2576   59.5469   52.6084 H   0  0  0  0  0  0  0  0  0  0  0  0
   44.0125   57.4368   53.4548 H   0  0  0  0  0  0  0  0  0  0  0  0
   44.8766   54.7403   54.6172 H   0  0  0  0  0  0  0  0  0  0  0  0
   43.2061   55.2584   54.3475 H   0  0  0  0  0  0  0  0  0  0  0  0
   44.2214   56.0992   55.5234 H   0  0  0  0  0  0  0  0  0  0  0  0
   44.3571   56.3472   48.9464 H   0  0  0  0  0  0  0  0  0  0  0  0
   46.6685   56.5051   49.4402 H   0  0  0  0  0  0  0  0  0  0  0  0
   46.6829   55.4514   48.0260 H   0  0  0  0  0  0  0  0  0  0  0  0
   47.5797   55.0208   49.5007 H   0  0  0  0  0  0  0  0  0  0  0  0
   47.3838   52.9611   49.3127 H   0  0  0  0  0  0  0  0  0  0  0  0
   49.2455   50.6681   52.3102 H   0  0  0  0  0  0  0  0  0  0  0  0
   45.6870   49.8155   52.3304 H   0  0  0  0  0  0  0  0  0  0  0  0
   45.4307   51.0904   53.5206 H   0  0  0  0  0  0  0  0  0  0  0  0
   45.8216   49.4699   54.0574 H   0  0  0  0  0  0  0  0  0  0  0  0
   49.3932   51.8814   55.6211 H   0  0  0  0  0  0  0  0  0  0  0  0
   49.5423   48.9444   54.8838 H   0  0  0  0  0  0  0  0  0  0  0  0
   48.8779   49.6469   56.3410 H   0  0  0  0  0  0  0  0  0  0  0  0
   50.5978   49.7986   56.0159 H   0  0  0  0  0  0  0  0  0  0  0  0
   49.3167   53.3382   53.7314 H   0  0  0  0  0  0  0  0  0  0  0  0
   50.4663   53.0820   52.4465 H   0  0  0  0  0  0  0  0  0  0  0  0
   51.0169   53.5493   54.0705 H   0  0  0  0  0  0  0  0  0  0  0  0
   53.9765   51.9044   59.6172 H   0  0  0  0  0  0  0  0  0  0  0  0
   54.1785   54.9200   60.0283 H   0  0  0  0  0  0  0  0  0  0  0  0
   54.2320   53.7109   61.3033 H   0  0  0  0  0  0  0  0  0  0  0  0
   52.7562   53.9423   60.3739 H   0  0  0  0  0  0  0  0  0  0  0  0
   56.2755   53.8049   59.0500 H   0  0  0  0  0  0  0  0  0  0  0  0
   56.2539   52.0898   58.6410 H   0  0  0  0  0  0  0  0  0  0  0  0
   56.2220   52.5984   60.3240 H   0  0  0  0  0  0  0  0  0  0  0  0
   46.5247   50.8706   48.4482 H   0  0  0  0  0  0  0  0  0  0  0  0
   43.7063   51.8899   48.9579 H   0  0  0  0  0  0  0  0  0  0  0  0
   44.4565   50.6451   49.9095 H   0  0  0  0  0  0  0  0  0  0  0  0
   44.1796   50.3798   48.1903 H   0  0  0  0  0  0  0  0  0  0  0  0
   45.1113   53.3591   47.3996 H   0  0  0  0  0  0  0  0  0  0  0  0
   45.3322   51.8758   46.4832 H   0  0  0  0  0  0  0  0  0  0  0  0
   46.7379   52.8379   46.9749 H   0  0  0  0  0  0  0  0  0  0  0  0
   54.6054   49.2885   55.6318 H   0  0  0  0  0  0  0  0  0  0  0  0
   57.5956   49.0067   55.5537 H   0  0  0  0  0  0  0  0  0  0  0  0
   55.5958   48.7700   53.2623 H   0  0  0  0  0  0  0  0  0  0  0  0
   57.1270   47.9278   53.2533 H   0  0  0  0  0  0  0  0  0  0  0  0
   57.0872   49.6830   53.2825 H   0  0  0  0  0  0  0  0  0  0  0  0
   55.3742   46.9752   55.1651 H   0  0  0  0  0  0  0  0  0  0  0  0
   55.9358   47.4378   56.7387 H   0  0  0  0  0  0  0  0  0  0  0  0
   58.2441   46.6948   56.1560 H   0  0  0  0  0  0  0  0  0  0  0  0
   57.6632   46.1453   54.6159 H   0  0  0  0  0  0  0  0  0  0  0  0
   57.2542   44.1514   55.6076 H   0  0  0  0  0  0  0  0  0  0  0  0
   55.8807   44.8783   56.3741 H   0  0  0  0  0  0  0  0  0  0  0  0
   58.6959   44.6734   57.4987 H   0  0  0  0  0  0  0  0  0  0  0  0
   57.3703   43.6271   57.9248 H   0  0  0  0  0  0  0  0  0  0  0  0
   57.4164   46.6178   58.5337 H   0  0  0  0  0  0  0  0  0  0  0  0
   57.9827   45.3753   59.6097 H   0  0  0  0  0  0  0  0  0  0  0  0
   55.8694   45.7600   60.4428 H   0  0  0  0  0  0  0  0  0  0  0  0
   55.6442   44.3266   59.4769 H   0  0  0  0  0  0  0  0  0  0  0  0
   52.8024   47.6505   58.0526 H   0  0  0  0  0  0  0  0  0  0  0  0
   51.5610   46.4074   58.2673 H   0  0  0  0  0  0  0  0  0  0  0  0
   52.7039   46.2910   56.9352 H   0  0  0  0  0  0  0  0  0  0  0  0
   52.3618   51.2690   49.4597 H   0  0  0  0  0  0  0  0  0  0  0  0
   52.0071   52.6238   50.5347 H   0  0  0  0  0  0  0  0  0  0  0  0
   51.0142   51.1688   50.5843 H   0  0  0  0  0  0  0  0  0  0  0  0
   53.9982   51.2667   51.3038 H   0  0  0  0  0  0  0  0  0  0  0  0
   52.9497   49.8708   51.4742 H   0  0  0  0  0  0  0  0  0  0  0  0
   49.2735   53.5364   57.9312 H   0  0  0  0  0  0  0  0  0  0  0  0
   49.1653   54.0710   56.2803 H   0  0  0  0  0  0  0  0  0  0  0  0
   48.1300   56.2101   57.1450 H   0  0  0  0  0  0  0  0  0  0  0  0
   46.6864   53.5984   57.7212 H   0  0  0  0  0  0  0  0  0  0  0  0
   46.7757   54.4555   56.1954 H   0  0  0  0  0  0  0  0  0  0  0  0
   45.9187   55.1710   57.5565 H   0  0  0  0  0  0  0  0  0  0  0  0
   48.0311   54.7045   59.7959 H   0  0  0  0  0  0  0  0  0  0  0  0
   47.1982   56.2095   59.4387 H   0  0  0  0  0  0  0  0  0  0  0  0
   48.9509   56.1747   59.4941 H   0  0  0  0  0  0  0  0  0  0  0  0
   50.2131   59.2329   55.8583 H   0  0  0  0  0  0  0  0  0  0  0  0
   49.6447   59.3401   54.2366 H   0  0  0  0  0  0  0  0  0  0  0  0
   52.0527   59.7443   53.5109 H   0  0  0  0  0  0  0  0  0  0  0  0
   50.5498   61.8311   55.1521 H   0  0  0  0  0  0  0  0  0  0  0  0
   50.2914   61.4484   53.4578 H   0  0  0  0  0  0  0  0  0  0  0  0
   51.7990   62.1884   53.9615 H   0  0  0  0  0  0  0  0  0  0  0  0
   52.3625   60.4050   56.4722 H   0  0  0  0  0  0  0  0  0  0  0  0
   53.4877   60.8711   55.2120 H   0  0  0  0  0  0  0  0  0  0  0  0
   53.2641   59.1779   55.5877 H   0  0  0  0  0  0  0  0  0  0  0  0
   42.5292   54.9274   50.7743 H   0  0  0  0  0  0  0  0  0  0  0  0
   43.1277   53.9117   49.5006 H   0  0  0  0  0  0  0  0  0  0  0  0
   41.0159   54.9948   48.9598 H   0  0  0  0  0  0  0  0  0  0  0  0
   43.2985   55.7476   47.0856 H   0  0  0  0  0  0  0  0  0  0  0  0
   41.5969   55.6951   46.6655 H   0  0  0  0  0  0  0  0  0  0  0  0
   42.4303   54.2240   47.1583 H   0  0  0  0  0  0  0  0  0  0  0  0
   42.4748   57.6676   48.8821 H   0  0  0  0  0  0  0  0  0  0  0  0
   41.3601   57.1522   50.1239 H   0  0  0  0  0  0  0  0  0  0  0  0
   40.8007   57.3508   48.4608 H   0  0  0  0  0  0  0  0  0  0  0  0
   49.2880   48.5006   52.7752 H   0  0  0  0  0  0  0  0  0  0  0  0
   49.2151   48.6408   51.0459 H   0  0  0  0  0  0  0  0  0  0  0  0
   46.8780   47.8096   52.7909 H   0  0  0  0  0  0  0  0  0  0  0  0
   47.2282   47.5708   49.7762 H   0  0  0  0  0  0  0  0  0  0  0  0
   46.2130   48.7866   50.5231 H   0  0  0  0  0  0  0  0  0  0  0  0
   45.8190   47.0824   50.7041 H   0  0  0  0  0  0  0  0  0  0  0  0
   48.7898   46.1216   51.1376 H   0  0  0  0  0  0  0  0  0  0  0  0
   47.3991   45.5164   52.0113 H   0  0  0  0  0  0  0  0  0  0  0  0
   48.7453   46.2088   52.8930 H   0  0  0  0  0  0  0  0  0  0  0  0
  1  2  1  0
  1 99  1  6
  2  3  1  0
  2 55  1  0
  3  4  2  0
  3  5  1  0
  5 65  1  0
  5  6  1  0
  5100  1  6
  6  7  1  0
  6  8  1  0
  7101  1  0
  7102  1  0
  7103  1  0
  8  9  2  0
  8 10  1  0
 10 59  1  0
 10 11  1  0
 10104  1  6
 11 12  1  0
 11 13  1  0
 12105  1  0
 12106  1  0
 12107  1  0
 13 14  2  0
 13 15  1  0
 15 83  1  0
 15 16  1  0
 15108  1  1
 16 17  1  0
 16 18  1  0
 17109  1  0
 17110  1  0
 17111  1  0
 18 19  2  0
 18 20  1  0
 20 87  1  0
 20 21  1  0
 20112  1  1
 21 22  1  0
 21 23  1  0
 22113  1  0
 22114  1  0
 22115  1  0
 23 24  2  0
 23 25  1  0
 25 26  1  0
 25 27  1  0
 25116  1  1
 26117  1  0
 26118  1  0
 26119  1  0
 27 28  1  0
 27 56  1  0
 28 29  2  0
 28 30  1  0
 30 31  1  0
 30 32  1  0
 30120  1  6
 31121  1  0
 31122  1  0
 31123  1  0
 32 33  1  0
 32 57  1  0
 33 34  2  0
 33 35  1  0
 35 91  1  0
 35 36  1  0
 35124  1  6
 36 37  1  0
 36 38  1  0
 37125  1  0
 37126  1  0
 37127  1  0
 38 39  2  0
 38 40  1  0
 40 62  1  0
 40 41  1  0
 40128  1  6
 41 42  1  0
 41 58  1  0
 42 43  2  0
 42 44  1  0
 44 95  1  0
 44 45  1  0
 44129  1  1
 45 46  1  0
 45 47  1  0
 46130  1  0
 46131  1  0
 46132  1  0
 47 48  2  0
 47 49  1  0
 49 50  1  0
 49 51  1  0
 49133  1  1
 50134  1  0
 50135  1  0
 50136  1  0
 51 52  1  0
 51 53  1  0
 52137  1  0
 52138  1  0
 52139  1  0
 53 54  2  0
 53  1  1  0
 59 60  1  0
 59 61  1  0
 59140  1  0
 60141  1  0
 60142  1  0
 60143  1  0
 61144  1  0
 61145  1  0
 61146  1  0
 62 63  1  0
 62 64  1  0
 62147  1  0
 63148  1  0
 63149  1  0
 63150  1  0
 64151  1  0
 64152  1  0
 64153  1  0
 65 66  1  0
 65 68  1  0
 65154  1  1
 66 67  1  0
 68 69  1  0
 68 70  1  0
 68155  1  1
 69156  1  0
 69157  1  0
 69158  1  0
 70 71  1  0
 70159  1  0
 70160  1  0
 71 72  1  0
 71161  1  0
 71162  1  0
 72 73  1  0
 72163  1  0
 72164  1  0
 73 74  1  0
 73165  1  0
 73166  1  0
 74 75  1  0
 74167  1  0
 74168  1  0
 75 76  1  0
 75169  1  0
 75170  1  0
 76 77  1  0
 76 80  1  0
 77 78  1  0
 77 79  2  0
 78171  1  0
 78172  1  0
 78173  1  0
 81 82  1  0
 81174  1  0
 81175  1  0
 81176  1  0
 82  1  1  0
 82177  1  0
 82178  1  0
 83 84  1  0
 83179  1  0
 83180  1  0
 84 85  1  0
 84 86  1  0
 84181  1  0
 85182  1  0
 85183  1  0
 85184  1  0
 86185  1  0
 86186  1  0
 86187  1  0
 87 88  1  0
 87188  1  0
 87189  1  0
 88 89  1  0
 88 90  1  0
 88190  1  0
 89191  1  0
 89192  1  0
 89193  1  0
 90194  1  0
 90195  1  0
 90196  1  0
 91 92  1  0
 91197  1  0
 91198  1  0
 92 93  1  0
 92 94  1  0
 92199  1  0
 93200  1  0
 93201  1  0
 93202  1  0
 94203  1  0
 94204  1  0
 94205  1  0
 95 96  1  0
 95206  1  0
 95207  1  0
 96 97  1  0
 96 98  1  0
 96208  1  0
 97209  1  0
 97210  1  0
 97211  1  0
 98212  1  0
 98213  1  0
 98214  1  0
M  END
>  <minimizedAffinity>  (1) 
-7.78330

>  <mol_id>  (1) 
19634

>  <source_index>  (1) 
0

>  <layer>  (1) 
L1

>  <uniprot>  (1) 
P62937

>  <paff>  (1) 
8.6021000000000001

>  <smiles>  (1) 
C.CC[C@@H]1NC(=O)[C@H]([C@H](O)[C@H](C)CCCCCCNC(C)=O)N(C)C(=O)[C@H](C(C)C)N(C)C(=O)[C@H](CC(C)C)N(C)C(=O)[C@H](CC(C)C)N(C)C(=O)[C@@H](C)NC(=O)[C@H](C)NC(=O)[C@H](CC(C)C)N(C)C(=O)[C@H](C(C)C)NC(=O)[C@H](CC(C)C)N(C)C(=O)[C@@H](C)N(C)C1=O

>  <aimnet_interaction_kcal_mol>  (1) 
-85.735129245072613

$$$$
L1:P62937:58673
     RDKit          3D

217217  0  0  0  0  0  0  0  0999 V2000
   53.6035   51.5853   54.1590 C   0  0  1  0  0  0  0  0  0  0  0  0
   52.8144   51.8112   52.8646 C   0  0  0  0  0  0  0  0  0  0  0  0
   51.8301   51.1306   52.5636 O   0  0  0  0  0  0  0  0  0  0  0  0
   53.3213   52.8039   52.1109 N   0  0  0  0  0  0  0  0  0  0  0  0
   52.9688   53.1599   50.7517 C   0  0  2  0  0  0  0  0  0  0  0  0
   51.4642   53.5245   50.5863 C   0  0  0  0  0  0  0  0  0  0  0  0
   51.1447   54.6496   50.9662 O   0  0  0  0  0  0  0  0  0  0  0  0
   50.5633   52.7169   49.9573 N   0  0  0  0  0  0  0  0  0  0  0  0
   50.7865   51.3493   49.5388 C   0  0  0  0  0  0  0  0  0  0  0  0
   49.2243   53.2946   49.8297 C   0  0  1  0  0  0  0  0  0  0  0  0
   49.1467   54.2842   48.6780 C   0  0  0  0  0  0  0  0  0  0  0  0
   49.8638   54.1093   47.6658 O   0  0  0  0  0  0  0  0  0  0  0  0
   48.3019   55.3444   48.7530 N   0  0  0  0  0  0  0  0  0  0  0  0
   48.7248   56.5448   48.0282 C   0  0  0  0  0  0  0  0  0  0  0  0
   46.8901   55.3248   49.1886 C   0  0  2  0  0  0  0  0  0  0  0  0
   46.6975   55.0925   50.7017 C   0  0  0  0  0  0  0  0  0  0  0  0
   47.6347   54.9909   51.4770 O   0  0  0  0  0  0  0  0  0  0  0  0
   45.3940   55.0816   51.0681 N   0  0  0  0  0  0  0  0  0  0  0  0
   44.8198   54.5897   52.3274 C   0  0  2  0  0  0  0  0  0  0  0  0
   45.7066   54.9340   53.5265 C   0  0  0  0  0  0  0  0  0  0  0  0
   46.2611   54.0388   54.1701 O   0  0  0  0  0  0  0  0  0  0  0  0
   45.8269   56.2484   53.8382 N   0  0  0  0  0  0  0  0  0  0  0  0
   44.8651   57.2513   53.4142 C   0  0  0  0  0  0  0  0  0  0  0  0
   46.6987   56.5457   54.9821 C   0  0  2  0  0  0  0  0  0  0  0  0
   45.8768   56.3271   56.2587 C   0  0  0  0  0  0  0  0  0  0  0  0
   45.0305   57.1188   56.6567 O   0  0  0  0  0  0  0  0  0  0  0  0
   46.1930   55.1566   56.8708 N   0  0  0  0  0  0  0  0  0  0  0  0
   45.6246   54.7371   58.1384 C   0  0  1  0  0  0  0  0  0  0  0  0
   45.1326   53.3073   58.0469 C   0  0  0  0  0  0  0  0  0  0  0  0
   46.6014   54.9500   59.3079 C   0  0  0  0  0  0  0  0  0  0  0  0
   46.4983   54.3172   60.3606 O   0  0  0  0  0  0  0  0  0  0  0  0
   47.5058   55.9064   59.0733 N   0  0  0  0  0  0  0  0  0  0  0  0
   48.2911   56.5952   60.0733 C   0  0  2  0  0  0  0  0  0  0  0  0
   47.3713   57.3225   61.0514 C   0  0  0  0  0  0  0  0  0  0  0  0
   49.1502   57.5943   59.3096 C   0  0  0  0  0  0  0  0  0  0  0  0
   48.7025   58.0845   58.2714 O   0  0  0  0  0  0  0  0  0  0  0  0
   50.3639   57.9935   59.7926 N   0  0  0  0  0  0  0  0  0  0  0  0
   51.0076   59.0718   59.0587 C   0  0  0  0  0  0  0  0  0  0  0  0
   51.2710   57.2565   60.6734 C   0  0  2  0  0  0  0  0  0  0  0  0
   51.6223   55.8714   60.0924 C   0  0  0  0  0  0  0  0  0  0  0  0
   50.8044   55.2637   59.4151 O   0  0  0  0  0  0  0  0  0  0  0  0
   52.8650   55.3607   60.3650 N   0  0  0  0  0  0  0  0  0  0  0  0
   53.9292   56.1790   60.9224 C   0  0  0  0  0  0  0  0  0  0  0  0
   53.3526   54.2115   59.6009 C   0  0  2  0  0  0  0  0  0  0  0  0
   53.7158   54.6885   58.1798 C   0  0  0  0  0  0  0  0  0  0  0  0
   53.2969   55.7647   57.7641 O   0  0  0  0  0  0  0  0  0  0  0  0
   54.5744   53.9192   57.4513 N   0  0  0  0  0  0  0  0  0  0  0  0
   55.2067   52.7219   57.9809 C   0  0  0  0  0  0  0  0  0  0  0  0
   55.0403   54.4503   56.1750 C   0  0  2  0  0  0  0  0  0  0  0  0
   54.7760   53.5123   54.9974 C   0  0  0  0  0  0  0  0  0  0  0  0
   55.5628   53.4585   54.0434 O   0  0  0  0  0  0  0  0  0  0  0  0
   53.6235   52.7832   54.9931 N   0  0  0  0  0  0  0  0  0  0  0  0
   52.3500   53.3105   55.4847 C   0  0  0  0  0  0  0  0  0  0  0  0
   54.0952   53.2939   52.5420 H   0  0  0  0  0  0  0  0  0  0  0  0
   44.7236   55.3472   50.3665 H   0  0  0  0  0  0  0  0  0  0  0  0
   46.4829   54.4348   56.2200 H   0  0  0  0  0  0  0  0  0  0  0  0
   47.5540   56.3168   58.1559 H   0  0  0  0  0  0  0  0  0  0  0  0
   56.4874   54.9902   56.1816 C   0  0  0  0  0  0  0  0  0  0  0  0
   56.6309   56.1014   57.2085 C   0  0  0  0  0  0  0  0  0  0  0  0
   57.6065   53.9723   56.3519 C   0  0  0  0  0  0  0  0  0  0  0  0
   44.4727   53.0944   52.3112 C   0  0  0  0  0  0  0  0  0  0  0  0
   43.9993   52.6278   50.9447 C   0  0  0  0  0  0  0  0  0  0  0  0
   43.4204   52.8123   53.3767 C   0  0  0  0  0  0  0  0  0  0  0  0
   53.1597   50.3008   54.8655 C   0  0  2  0  0  0  0  0  0  0  0  0
   51.8324   50.3843   55.3557 O   0  0  0  0  0  0  0  0  0  0  0  0
   51.2774   50.5270   54.5747 H   0  0  0  0  0  0  0  0  0  0  0  0
   54.1579   49.9525   55.9770 C   0  0  2  0  0  0  0  0  0  0  0  0
   55.2245   48.9970   55.4622 C   0  0  0  0  0  0  0  0  0  0  0  0
   53.5339   49.4788   57.2951 C   0  0  0  0  0  0  0  0  0  0  0  0
   53.2224   45.7052   58.1510 C   0  0  0  0  0  0  0  0  0  0  0  0
   53.6081   47.1410   58.1230 C   0  0  0  0  0  0  0  0  0  0  0  0
   53.0677   48.0635   57.3360 C   0  0  0  0  0  0  0  0  0  0  0  0
   53.6269   52.2510   49.7185 C   0  0  0  0  0  0  0  0  0  0  0  0
   55.1168   52.5160   49.5936 C   0  0  0  0  0  0  0  0  0  0  0  0
   46.0518   54.3924   48.3013 C   0  0  0  0  0  0  0  0  0  0  0  0
   45.9447   54.8744   46.8529 C   0  0  0  0  0  0  0  0  0  0  0  0
   46.8895   54.1261   45.9235 C   0  0  0  0  0  0  0  0  0  0  0  0
   44.5171   54.7827   46.3358 C   0  0  0  0  0  0  0  0  0  0  0  0
   48.2638   52.2907   49.6155 O   0  0  0  0  0  0  0  0  0  0  0  0
   47.7164   51.8116   50.8504 C   0  0  0  0  0  0  0  0  0  0  0  0
   47.0341   50.4829   50.6033 C   0  0  0  0  0  0  0  0  0  0  0  0
   48.0271   49.4335   50.5235 N   0  0  0  0  0  0  0  0  0  0  0  0
   47.7023   48.2295   50.8510 C   0  0  0  0  0  0  0  0  0  0  0  0
   46.3077   47.6710   50.8417 C   0  0  0  0  0  0  0  0  0  0  0  0
   48.6881   47.3346   51.1744 N   0  0  0  0  0  0  0  0  0  0  0  0
   50.0193   47.8741   51.3517 C   0  0  0  0  0  0  0  0  0  0  0  0
   48.3742   46.1549   51.9576 C   0  0  0  0  0  0  0  0  0  0  0  0
   47.3502   57.9142   54.9512 C   0  0  0  0  0  0  0  0  0  0  0  0
   48.2146   58.1797   53.7198 C   0  0  0  0  0  0  0  0  0  0  0  0
   49.4069   57.2364   53.6473 C   0  0  0  0  0  0  0  0  0  0  0  0
   48.6757   59.6286   53.7178 C   0  0  0  0  0  0  0  0  0  0  0  0
   50.8701   57.1603   62.1539 C   0  0  0  0  0  0  0  0  0  0  0  0
   50.9974   58.4362   63.0003 C   0  0  0  0  0  0  0  0  0  0  0  0
   52.4063   59.0184   62.9852 C   0  0  0  0  0  0  0  0  0  0  0  0
   49.9572   59.5059   62.6920 C   0  0  0  0  0  0  0  0  0  0  0  0
   52.4508   52.9772   59.7104 C   0  0  0  0  0  0  0  0  0  0  0  0
   52.6153   52.1818   61.0137 C   0  0  0  0  0  0  0  0  0  0  0  0
   52.4271   53.0417   62.2535 C   0  0  0  0  0  0  0  0  0  0  0  0
   53.9209   51.4028   61.0783 C   0  0  0  0  0  0  0  0  0  0  0  0
   54.6420   51.4297   53.8703 H   0  0  0  0  0  0  0  0  0  0  0  0
   53.4229   54.1421   50.6366 H   0  0  0  0  0  0  0  0  0  0  0  0
   51.4788   50.8716   50.2153 H   0  0  0  0  0  0  0  0  0  0  0  0
   51.1548   51.3163   48.5144 H   0  0  0  0  0  0  0  0  0  0  0  0
   49.8458   50.8124   49.5819 H   0  0  0  0  0  0  0  0  0  0  0  0
   49.0308   53.8171   50.7588 H   0  0  0  0  0  0  0  0  0  0  0  0
   49.7634   56.7604   48.2603 H   0  0  0  0  0  0  0  0  0  0  0  0
   48.1532   57.4003   48.3642 H   0  0  0  0  0  0  0  0  0  0  0  0
   48.6143   56.4285   46.9515 H   0  0  0  0  0  0  0  0  0  0  0  0
   46.5309   56.3413   49.0181 H   0  0  0  0  0  0  0  0  0  0  0  0
   43.8803   55.1334   52.4293 H   0  0  0  0  0  0  0  0  0  0  0  0
   43.9593   57.2362   54.0215 H   0  0  0  0  0  0  0  0  0  0  0  0
   44.6115   57.1126   52.3709 H   0  0  0  0  0  0  0  0  0  0  0  0
   45.3058   58.2352   53.5073 H   0  0  0  0  0  0  0  0  0  0  0  0
   47.4826   55.7946   54.9394 H   0  0  0  0  0  0  0  0  0  0  0  0
   44.7827   55.4034   58.3423 H   0  0  0  0  0  0  0  0  0  0  0  0
   45.9292   52.6295   57.7409 H   0  0  0  0  0  0  0  0  0  0  0  0
   44.3327   53.2311   57.3119 H   0  0  0  0  0  0  0  0  0  0  0  0
   44.7629   52.9752   59.0124 H   0  0  0  0  0  0  0  0  0  0  0  0
   48.9168   55.8851   60.6021 H   0  0  0  0  0  0  0  0  0  0  0  0
   46.7546   58.0368   60.5099 H   0  0  0  0  0  0  0  0  0  0  0  0
   47.9390   57.8616   61.8000 H   0  0  0  0  0  0  0  0  0  0  0  0
   46.7248   56.6058   61.5505 H   0  0  0  0  0  0  0  0  0  0  0  0
   50.2524   59.6713   58.5718 H   0  0  0  0  0  0  0  0  0  0  0  0
   51.6808   58.6804   58.2981 H   0  0  0  0  0  0  0  0  0  0  0  0
   51.5726   59.6927   59.7485 H   0  0  0  0  0  0  0  0  0  0  0  0
   52.1733   57.8522   60.6315 H   0  0  0  0  0  0  0  0  0  0  0  0
   53.5616   56.8343   61.6977 H   0  0  0  0  0  0  0  0  0  0  0  0
   54.4304   56.7739   60.1576 H   0  0  0  0  0  0  0  0  0  0  0  0
   54.6674   55.5307   61.3849 H   0  0  0  0  0  0  0  0  0  0  0  0
   54.2981   53.9444   60.0730 H   0  0  0  0  0  0  0  0  0  0  0  0
   54.4849   51.9867   58.3077 H   0  0  0  0  0  0  0  0  0  0  0  0
   55.8721   52.9515   58.8117 H   0  0  0  0  0  0  0  0  0  0  0  0
   55.7934   52.2642   57.1969 H   0  0  0  0  0  0  0  0  0  0  0  0
   54.3963   55.3150   56.0076 H   0  0  0  0  0  0  0  0  0  0  0  0
   52.4240   54.3695   55.6952 H   0  0  0  0  0  0  0  0  0  0  0  0
   52.0326   52.7884   56.3813 H   0  0  0  0  0  0  0  0  0  0  0  0
   51.5897   53.1707   54.7200 H   0  0  0  0  0  0  0  0  0  0  0  0
   56.6086   55.4216   55.1884 H   0  0  0  0  0  0  0  0  0  0  0  0
   56.5301   55.7125   58.2211 H   0  0  0  0  0  0  0  0  0  0  0  0
   55.8758   56.8724   57.0713 H   0  0  0  0  0  0  0  0  0  0  0  0
   57.6121   56.5666   57.1254 H   0  0  0  0  0  0  0  0  0  0  0  0
   57.6730   53.5955   57.3688 H   0  0  0  0  0  0  0  0  0  0  0  0
   58.5603   54.4538   56.1392 H   0  0  0  0  0  0  0  0  0  0  0  0
   57.5039   53.1339   55.6696 H   0  0  0  0  0  0  0  0  0  0  0  0
   45.3742   52.5466   52.5760 H   0  0  0  0  0  0  0  0  0  0  0  0
   43.2034   53.2780   50.5727 H   0  0  0  0  0  0  0  0  0  0  0  0
   43.5916   51.6255   51.0087 H   0  0  0  0  0  0  0  0  0  0  0  0
   44.7895   52.6085   50.1987 H   0  0  0  0  0  0  0  0  0  0  0  0
   42.4986   53.3557   53.1644 H   0  0  0  0  0  0  0  0  0  0  0  0
   43.7657   53.1083   54.3642 H   0  0  0  0  0  0  0  0  0  0  0  0
   43.1783   51.7536   53.4003 H   0  0  0  0  0  0  0  0  0  0  0  0
   53.2066   49.5312   54.0911 H   0  0  0  0  0  0  0  0  0  0  0  0
   54.6590   50.8880   56.2154 H   0  0  0  0  0  0  0  0  0  0  0  0
   54.8021   48.0349   55.1854 H   0  0  0  0  0  0  0  0  0  0  0  0
   55.9731   48.8113   56.2306 H   0  0  0  0  0  0  0  0  0  0  0  0
   55.7360   49.3955   54.5841 H   0  0  0  0  0  0  0  0  0  0  0  0
   54.2914   49.6077   58.0703 H   0  0  0  0  0  0  0  0  0  0  0  0
   52.7080   50.1412   57.5445 H   0  0  0  0  0  0  0  0  0  0  0  0
   53.3840   45.2761   59.1377 H   0  0  0  0  0  0  0  0  0  0  0  0
   53.8220   45.1199   57.4539 H   0  0  0  0  0  0  0  0  0  0  0  0
   52.1789   45.5721   57.8822 H   0  0  0  0  0  0  0  0  0  0  0  0
   54.4208   47.4282   58.7854 H   0  0  0  0  0  0  0  0  0  0  0  0
   52.2551   47.7883   56.6699 H   0  0  0  0  0  0  0  0  0  0  0  0
   53.1553   52.4150   48.7489 H   0  0  0  0  0  0  0  0  0  0  0  0
   53.4661   51.2065   49.9751 H   0  0  0  0  0  0  0  0  0  0  0  0
   55.3105   53.5630   49.3606 H   0  0  0  0  0  0  0  0  0  0  0  0
   55.5570   51.9036   48.8134 H   0  0  0  0  0  0  0  0  0  0  0  0
   55.6483   52.2961   50.5178 H   0  0  0  0  0  0  0  0  0  0  0  0
   45.0468   54.3177   48.7100 H   0  0  0  0  0  0  0  0  0  0  0  0
   46.4637   53.3858   48.3382 H   0  0  0  0  0  0  0  0  0  0  0  0
   46.2385   55.9208   46.8440 H   0  0  0  0  0  0  0  0  0  0  0  0
   46.5233   53.1062   45.7830 H   0  0  0  0  0  0  0  0  0  0  0  0
   47.8934   54.0714   46.3318 H   0  0  0  0  0  0  0  0  0  0  0  0
   46.9198   54.6016   44.9441 H   0  0  0  0  0  0  0  0  0  0  0  0
   44.1889   53.7432   46.2962 H   0  0  0  0  0  0  0  0  0  0  0  0
   44.4431   55.2094   45.3400 H   0  0  0  0  0  0  0  0  0  0  0  0
   43.8274   55.3242   46.9822 H   0  0  0  0  0  0  0  0  0  0  0  0
   47.0252   52.5539   51.2345 H   0  0  0  0  0  0  0  0  0  0  0  0
   48.5056   51.6782   51.5907 H   0  0  0  0  0  0  0  0  0  0  0  0
   46.4569   50.5700   49.6701 H   0  0  0  0  0  0  0  0  0  0  0  0
   46.3005   50.3335   51.4034 H   0  0  0  0  0  0  0  0  0  0  0  0
   45.5894   48.3946   50.4684 H   0  0  0  0  0  0  0  0  0  0  0  0
   45.9944   47.3563   51.8346 H   0  0  0  0  0  0  0  0  0  0  0  0
   46.2770   46.7954   50.1947 H   0  0  0  0  0  0  0  0  0  0  0  0
   50.2557   48.5019   50.4990 H   0  0  0  0  0  0  0  0  0  0  0  0
   50.7424   47.0691   51.4076 H   0  0  0  0  0  0  0  0  0  0  0  0
   50.1075   48.4838   52.2557 H   0  0  0  0  0  0  0  0  0  0  0  0
   47.5957   45.5761   51.4789 H   0  0  0  0  0  0  0  0  0  0  0  0
   48.0533   46.3933   52.9769 H   0  0  0  0  0  0  0  0  0  0  0  0
   49.2469   45.5179   52.0210 H   0  0  0  0  0  0  0  0  0  0  0  0
   47.9722   57.9960   55.8446 H   0  0  0  0  0  0  0  0  0  0  0  0
   46.5808   58.6767   55.0683 H   0  0  0  0  0  0  0  0  0  0  0  0
   47.6103   58.0195   52.8220 H   0  0  0  0  0  0  0  0  0  0  0  0
   49.9968   57.2909   54.5648 H   0  0  0  0  0  0  0  0  0  0  0  0
   50.0623   57.5001   52.8182 H   0  0  0  0  0  0  0  0  0  0  0  0
   49.0996   56.2051   53.5012 H   0  0  0  0  0  0  0  0  0  0  0  0
   49.3071   59.8357   54.5819 H   0  0  0  0  0  0  0  0  0  0  0  0
   47.8292   60.3137   53.7558 H   0  0  0  0  0  0  0  0  0  0  0  0
   49.2584   59.8608   52.8257 H   0  0  0  0  0  0  0  0  0  0  0  0
   51.5186   56.4080   62.6043 H   0  0  0  0  0  0  0  0  0  0  0  0
   49.8638   56.7653   62.2390 H   0  0  0  0  0  0  0  0  0  0  0  0
   50.8137   58.1058   64.0287 H   0  0  0  0  0  0  0  0  0  0  0  0
   52.6841   59.4167   62.0096 H   0  0  0  0  0  0  0  0  0  0  0  0
   53.1502   58.2751   63.2703 H   0  0  0  0  0  0  0  0  0  0  0  0
   52.4858   59.8371   63.6975 H   0  0  0  0  0  0  0  0  0  0  0  0
   49.9529   59.7866   61.6414 H   0  0  0  0  0  0  0  0  0  0  0  0
   50.1502   60.4058   63.2749 H   0  0  0  0  0  0  0  0  0  0  0  0
   48.9537   59.1717   62.9490 H   0  0  0  0  0  0  0  0  0  0  0  0
   52.6486   52.3206   58.8656 H   0  0  0  0  0  0  0  0  0  0  0  0
   51.4187   53.2862   59.6144 H   0  0  0  0  0  0  0  0  0  0  0  0
   51.8111   51.4444   61.0034 H   0  0  0  0  0  0  0  0  0  0  0  0
   53.2688   53.7130   62.4147 H   0  0  0  0  0  0  0  0  0  0  0  0
   52.3407   52.4316   63.1527 H   0  0  0  0  0  0  0  0  0  0  0  0
   51.5317   53.6534   62.1618 H   0  0  0  0  0  0  0  0  0  0  0  0
   54.7967   52.0500   61.0344 H   0  0  0  0  0  0  0  0  0  0  0  0
   54.0007   50.6888   60.2589 H   0  0  0  0  0  0  0  0  0  0  0  0
   53.9871   50.8418   62.0086 H   0  0  0  0  0  0  0  0  0  0  0  0
  1  2  1  0
  1100  1  6
  2  3  2  0
  2  4  1  0
  4  5  1  0
  4 54  1  0
  5 73  1  0
  5  6  1  0
  5101  1  6
  6  7  2  0
  6  8  1  0
  8  9  1  0
  8 10  1  0
  9102  1  0
  9103  1  0
  9104  1  0
 10 79  1  0
 10 11  1  0
 10105  1  1
 11 12  2  0
 11 13  1  0
 13 14  1  0
 13 15  1  0
 14106  1  0
 14107  1  0
 14108  1  0
 15 75  1  0
 15 16  1  0
 15109  1  1
 16 17  2  0
 16 18  1  0
 18 19  1  0
 18 55  1  0
 19 61  1  0
 19 20  1  0
 19110  1  1
 20 21  2  0
 20 22  1  0
 22 23  1  0
 22 24  1  0
 23111  1  0
 23112  1  0
 23113  1  0
 24 88  1  0
 24 25  1  0
 24114  1  1
 25 26  2  0
 25 27  1  0
 27 28  1  0
 27 56  1  0
 28 29  1  0
 28 30  1  0
 28115  1  1
 29116  1  0
 29117  1  0
 29118  1  0
 30 31  2  0
 30 32  1  0
 32 33  1  0
 32 57  1  0
 33 34  1  0
 33 35  1  0
 33119  1  1
 34120  1  0
 34121  1  0
 34122  1  0
 35 36  2  0
 35 37  1  0
 37 38  1  0
 37 39  1  0
 38123  1  0
 38124  1  0
 38125  1  0
 39 92  1  0
 39 40  1  0
 39126  1  1
 40 41  2  0
 40 42  1  0
 42 43  1  0
 42 44  1  0
 43127  1  0
 43128  1  0
 43129  1  0
 44 96  1  0
 44 45  1  0
 44130  1  1
 45 46  2  0
 45 47  1  0
 47 48  1  0
 47 49  1  0
 48131  1  0
 48132  1  0
 48133  1  0
 49 58  1  0
 49 50  1  0
 49134  1  6
 50 51  2  0
 50 52  1  0
 52 53  1  0
 52  1  1  0
 53135  1  0
 53136  1  0
 53137  1  0
 58 59  1  0
 58 60  1  0
 58138  1  0
 59139  1  0
 59140  1  0
 59141  1  0
 60142  1  0
 60143  1  0
 60144  1  0
 61 62  1  0
 61 63  1  0
 61145  1  0
 62146  1  0
 62147  1  0
 62148  1  0
 63149  1  0
 63150  1  0
 63151  1  0
 64 65  1  0
 64  1  1  0
 64152  1  6
 65 66  1  0
 67 68  1  0
 67 64  1  0
 67153  1  1
 68154  1  0
 68155  1  0
 68156  1  0
 69 67  1  0
 69157  1  0
 69158  1  0
 70 71  1  0
 70159  1  0
 70160  1  0
 70161  1  0
 71 72  2  0
 71162  1  0
 72 69  1  0
 72163  1  0
 73 74  1  0
 73164  1  0
 73165  1  0
 74166  1  0
 74167  1  0
 74168  1  0
 75 76  1  0
 75169  1  0
 75170  1  0
 76 77  1  0
 76 78  1  0
 76171  1  0
 77172  1  0
 77173  1  0
 77174  1  0
 78175  1  0
 78176  1  0
 78177  1  0
 79 80  1  0
 80 81  1  0
 80178  1  0
 80179  1  0
 81 82  1  0
 81180  1  0
 81181  1  0
 82 83  2  0
 83 84  1  0
 83 85  1  0
 84182  1  0
 84183  1  0
 84184  1  0
 85 86  1  0
 85 87  1  0
 86185  1  0
 86186  1  0
 86187  1  0
 87188  1  0
 87189  1  0
 87190  1  0
 88 89  1  0
 88191  1  0
 88192  1  0
 89 90  1  0
 89 91  1  0
 89193  1  0
 90194  1  0
 90195  1  0
 90196  1  0
 91197  1  0
 91198  1  0
 91199  1  0
 92 93  1  0
 92200  1  0
 92201  1  0
 93 94  1  0
 93 95  1  0
 93202  1  0
 94203  1  0
 94204  1  0
 94205  1  0
 95206  1  0
 95207  1  0
 95208  1  0
 96 97  1  0
 96209  1  0
 96210  1  0
 97 98  1  0
 97 99  1  0
 97211  1  0
 98212  1  0
 98213  1  0
 98214  1  0
 99215  1  0
 99216  1  0
 99217  1  0
M  END
>  <minimizedAffinity>  (2) 
-6.70101

>  <mol_id>  (2) 
58673

>  <source_index>  (2) 
1

>  <layer>  (2) 
L1

>  <uniprot>  (2) 
P62937

>  <paff>  (2) 
7.9585999999999997

>  <smiles>  (2) 
C/C=C/C[C@@H](C)[C@@H](O)[C@H]1C(=O)N[C@@H](CC)C(=O)N(C)[C@H](OCC/N=C(C)N(C)C)C(=O)N(C)[C@@H](CC(C)C)C(=O)N[C@@H](C(C)C)C(=O)N(C)[C@@H](CC(C)C)C(=O)N[C@@H](C)C(=O)N[C@H](C)C(=O)N(C)[C@@H](CC(C)C)C(=O)N(C)[C@@H](CC(C)C)C(=O)N(C)[C@@H](C(C)C)C(=O)N1C

>  <aimnet_interaction_kcal_mol>  (2) 
-110.12584600690457

$$$$
L1:P62937:69521
     RDKit          3D

199199  0  0  0  0  0  0  0  0999 V2000
   54.4951   54.0317   57.8469 C   0  0  1  0  0  0  0  0  0  0  0  0
   53.0541   53.8085   58.3461 C   0  0  0  0  0  0  0  0  0  0  0  0
   52.5154   52.7030   58.3015 O   0  0  0  0  0  0  0  0  0  0  0  0
   52.4651   54.9077   58.8280 N   0  0  0  0  0  0  0  0  0  0  0  0
   51.1118   54.9502   59.3138 C   0  0  2  0  0  0  0  0  0  0  0  0
   50.6408   56.3887   59.1342 C   0  0  0  0  0  0  0  0  0  0  0  0
   51.4739   57.2828   58.9932 O   0  0  0  0  0  0  0  0  0  0  0  0
   49.3102   56.6507   59.1576 N   0  0  0  0  0  0  0  0  0  0  0  0
   48.2568   55.6617   59.2469 C   0  0  0  0  0  0  0  0  0  0  0  0
   48.9089   58.0614   59.1349 C   0  0  2  0  0  0  0  0  0  0  0  0
   48.7830   58.6152   60.5414 C   0  0  0  0  0  0  0  0  0  0  0  0
   47.6086   58.2065   58.3555 C   0  0  0  0  0  0  0  0  0  0  0  0
   46.5318   58.3010   58.9516 O   0  0  0  0  0  0  0  0  0  0  0  0
   47.6982   58.2165   56.9953 N   0  0  0  0  0  0  0  0  0  0  0  0
   46.4318   58.3926   56.2719 C   0  0  2  0  0  0  0  0  0  0  0  0
   45.8666   56.9952   56.0002 C   0  0  0  0  0  0  0  0  0  0  0  0
   46.1356   56.3514   54.9782 O   0  0  0  0  0  0  0  0  0  0  0  0
   45.1153   56.5135   56.9998 N   0  0  0  0  0  0  0  0  0  0  0  0
   44.1958   55.4149   56.8281 C   0  0  2  0  0  0  0  0  0  0  0  0
   43.1822   55.7644   55.7325 C   0  0  0  0  0  0  0  0  0  0  0  0
   42.7130   56.8961   55.6786 O   0  0  0  0  0  0  0  0  0  0  0  0
   42.7861   54.7593   54.8952 N   0  0  0  0  0  0  0  0  0  0  0  0
   41.5413   54.9977   54.1659 C   0  0  0  0  0  0  0  0  0  0  0  0
   43.6674   53.7145   54.3668 C   0  0  2  0  0  0  0  0  0  0  0  0
   43.8796   53.9690   52.8663 C   0  0  0  0  0  0  0  0  0  0  0  0
   43.1447   53.5084   51.9994 O   0  0  0  0  0  0  0  0  0  0  0  0
   44.9503   54.7690   52.6104 N   0  0  0  0  0  0  0  0  0  0  0  0
   45.1749   55.3518   51.2927 C   0  0  1  0  0  0  0  0  0  0  0  0
   46.1105   56.5414   51.4058 C   0  0  0  0  0  0  0  0  0  0  0  0
   45.7299   54.3452   50.2859 C   0  0  0  0  0  0  0  0  0  0  0  0
   45.7738   54.6035   49.0849 O   0  0  0  0  0  0  0  0  0  0  0  0
   46.1525   53.1765   50.8127 N   0  0  0  0  0  0  0  0  0  0  0  0
   46.3273   51.9933   49.9974 C   0  0  2  0  0  0  0  0  0  0  0  0
   45.0034   51.3675   49.5552 C   0  0  0  0  0  0  0  0  0  0  0  0
   47.2607   50.9619   50.6247 C   0  0  0  0  0  0  0  0  0  0  0  0
   48.0408   50.3706   49.8704 O   0  0  0  0  0  0  0  0  0  0  0  0
   47.2047   50.7137   51.9551 N   0  0  0  0  0  0  0  0  0  0  0  0
   46.0155   50.9256   52.7579 C   0  0  0  0  0  0  0  0  0  0  0  0
   48.3529   50.1772   52.6850 C   0  0  2  0  0  0  0  0  0  0  0  0
   49.4922   51.2199   52.7196 C   0  0  0  0  0  0  0  0  0  0  0  0
   49.3577   52.2842   52.1273 O   0  0  0  0  0  0  0  0  0  0  0  0
   50.6070   50.8728   53.4384 N   0  0  0  0  0  0  0  0  0  0  0  0
   50.5007   50.1834   54.7208 C   0  0  0  0  0  0  0  0  0  0  0  0
   51.9964   51.1598   53.0625 C   0  0  2  0  0  0  0  0  0  0  0  0
   52.7102   51.8237   54.2497 C   0  0  0  0  0  0  0  0  0  0  0  0
   52.1538   52.7052   54.8943 O   0  0  0  0  0  0  0  0  0  0  0  0
   53.9819   51.3835   54.5081 N   0  0  0  0  0  0  0  0  0  0  0  0
   54.8468   50.9035   53.4462 C   0  0  0  0  0  0  0  0  0  0  0  0
   54.5978   51.8927   55.7437 C   0  0  2  0  0  0  0  0  0  0  0  0
   54.9508   53.3599   55.4887 C   0  0  0  0  0  0  0  0  0  0  0  0
   55.4646   53.7051   54.4246 O   0  0  0  0  0  0  0  0  0  0  0  0
   54.5252   54.2735   56.4111 N   0  0  0  0  0  0  0  0  0  0  0  0
   53.9559   55.5044   55.8950 C   0  0  0  0  0  0  0  0  0  0  0  0
   52.9888   55.7748   58.8620 H   0  0  0  0  0  0  0  0  0  0  0  0
   45.0753   57.0798   57.8309 H   0  0  0  0  0  0  0  0  0  0  0  0
   45.3328   55.2776   53.4035 H   0  0  0  0  0  0  0  0  0  0  0  0
   46.3810   53.1423   51.7936 H   0  0  0  0  0  0  0  0  0  0  0  0
   55.2927   55.0265   58.7123 C   0  0  2  0  0  0  0  0  0  0  0  0
   54.8166   56.3708   58.6219 O   0  0  0  0  0  0  0  0  0  0  0  0
   55.1634   56.7832   57.8253 H   0  0  0  0  0  0  0  0  0  0  0  0
   56.8168   54.9192   58.6088 C   0  0  2  0  0  0  0  0  0  0  0  0
   57.4431   55.5274   59.8587 C   0  0  0  0  0  0  0  0  0  0  0  0
   57.4374   55.5142   57.3284 C   0  0  0  0  0  0  0  0  0  0  0  0
   61.0932   54.2278   57.0687 C   0  0  0  0  0  0  0  0  0  0  0  0
   59.6469   54.4329   56.7961 C   0  0  0  0  0  0  0  0  0  0  0  0
   58.9273   55.4203   57.3138 C   0  0  0  0  0  0  0  0  0  0  0  0
   46.5069   59.2638   55.0252 C   0  0  0  0  0  0  0  0  0  0  0  0
   45.1329   59.3507   54.3734 C   0  0  0  0  0  0  0  0  0  0  0  0
   46.9922   60.6589   55.3912 C   0  0  0  0  0  0  0  0  0  0  0  0
   43.4704   55.0950   58.1514 C   0  0  0  0  0  0  0  0  0  0  0  0
   42.8852   56.3255   58.8283 C   0  0  0  0  0  0  0  0  0  0  0  0
   44.3814   54.3248   59.0943 C   0  0  0  0  0  0  0  0  0  0  0  0
   55.7239   50.9761   56.2594 C   0  0  0  0  0  0  0  0  0  0  0  0
   57.1167   51.4042   55.8304 C   0  0  0  0  0  0  0  0  0  0  0  0
   55.6936   50.7709   57.7729 C   0  0  0  0  0  0  0  0  0  0  0  0
   51.0295   54.4945   60.7837 C   0  0  0  0  0  0  0  0  0  0  0  0
   51.8346   55.3536   61.7348 C   0  0  0  0  0  0  0  0  0  0  0  0
   48.8479   57.6612   56.2644 C   0  0  0  0  0  0  0  0  0  0  0  0
   49.8920   58.6617   55.8096 C   0  0  0  0  0  0  0  0  0  0  0  0
   43.1503   52.3183   54.6607 C   0  0  0  0  0  0  0  0  0  0  0  0
   43.4174   51.8581   56.0919 C   0  0  0  0  0  0  0  0  0  0  0  0
   44.8874   51.5584   56.3404 C   0  0  0  0  0  0  0  0  0  0  0  0
   42.5929   50.6287   56.4340 C   0  0  0  0  0  0  0  0  0  0  0  0
   48.8066   48.7926   52.2200 C   0  0  0  0  0  0  0  0  0  0  0  0
   47.8288   47.6494   52.4801 C   0  0  0  0  0  0  0  0  0  0  0  0
   48.6195   46.3472   52.5501 C   0  0  0  0  0  0  0  0  0  0  0  0
   46.7429   47.5494   51.4144 C   0  0  0  0  0  0  0  0  0  0  0  0
   52.2506   52.0288   51.8219 C   0  0  0  0  0  0  0  0  0  0  0  0
   52.5369   51.2463   50.5445 C   0  0  0  0  0  0  0  0  0  0  0  0
   52.7304   52.2130   49.3829 C   0  0  0  0  0  0  0  0  0  0  0  0
   51.4649   50.2229   50.2211 C   0  0  0  0  0  0  0  0  0  0  0  0
   54.9677   53.0714   58.0107 H   0  0  0  0  0  0  0  0  0  0  0  0
   50.5139   54.2665   58.7101 H   0  0  0  0  0  0  0  0  0  0  0  0
   48.6651   54.6693   59.3692 H   0  0  0  0  0  0  0  0  0  0  0  0
   47.6527   55.6720   58.3433 H   0  0  0  0  0  0  0  0  0  0  0  0
   47.5990   55.8690   60.0891 H   0  0  0  0  0  0  0  0  0  0  0  0
   49.7035   58.5866   58.6209 H   0  0  0  0  0  0  0  0  0  0  0  0
   48.0324   58.0734   61.1092 H   0  0  0  0  0  0  0  0  0  0  0  0
   48.4845   59.6606   60.5131 H   0  0  0  0  0  0  0  0  0  0  0  0
   49.7408   58.5381   61.0487 H   0  0  0  0  0  0  0  0  0  0  0  0
   45.7616   58.8905   56.9670 H   0  0  0  0  0  0  0  0  0  0  0  0
   44.7802   54.5499   56.5318 H   0  0  0  0  0  0  0  0  0  0  0  0
   40.7335   55.1667   54.8716 H   0  0  0  0  0  0  0  0  0  0  0  0
   41.2981   54.1452   53.5497 H   0  0  0  0  0  0  0  0  0  0  0  0
   41.6306   55.8746   53.5304 H   0  0  0  0  0  0  0  0  0  0  0  0
   44.6418   53.8136   54.8305 H   0  0  0  0  0  0  0  0  0  0  0  0
   44.2132   55.6672   50.8818 H   0  0  0  0  0  0  0  0  0  0  0  0
   47.0677   56.2334   51.8264 H   0  0  0  0  0  0  0  0  0  0  0  0
   45.6821   57.3052   52.0499 H   0  0  0  0  0  0  0  0  0  0  0  0
   46.2879   56.9779   50.4294 H   0  0  0  0  0  0  0  0  0  0  0  0
   46.8346   52.3185   49.0898 H   0  0  0  0  0  0  0  0  0  0  0  0
   44.3451   51.1325   50.3833 H   0  0  0  0  0  0  0  0  0  0  0  0
   45.1877   50.4460   48.9995 H   0  0  0  0  0  0  0  0  0  0  0  0
   44.4819   52.0673   48.9097 H   0  0  0  0  0  0  0  0  0  0  0  0
   45.1844   51.2860   52.1681 H   0  0  0  0  0  0  0  0  0  0  0  0
   46.2230   51.6490   53.5489 H   0  0  0  0  0  0  0  0  0  0  0  0
   45.7021   49.9948   53.2278 H   0  0  0  0  0  0  0  0  0  0  0  0
   47.9990   50.0722   53.7112 H   0  0  0  0  0  0  0  0  0  0  0  0
   49.5264   49.7285   54.8541 H   0  0  0  0  0  0  0  0  0  0  0  0
   50.6791   50.8660   55.5487 H   0  0  0  0  0  0  0  0  0  0  0  0
   51.2453   49.3918   54.7798 H   0  0  0  0  0  0  0  0  0  0  0  0
   52.4384   50.1754   52.8902 H   0  0  0  0  0  0  0  0  0  0  0  0
   54.2737   50.4306   52.6617 H   0  0  0  0  0  0  0  0  0  0  0  0
   55.5322   50.1564   53.8293 H   0  0  0  0  0  0  0  0  0  0  0  0
   55.4219   51.7186   53.0173 H   0  0  0  0  0  0  0  0  0  0  0  0
   53.7944   51.8844   56.4731 H   0  0  0  0  0  0  0  0  0  0  0  0
   53.6065   55.3189   54.8862 H   0  0  0  0  0  0  0  0  0  0  0  0
   54.6914   56.3091   55.8447 H   0  0  0  0  0  0  0  0  0  0  0  0
   53.1131   55.8227   56.4991 H   0  0  0  0  0  0  0  0  0  0  0  0
   55.0298   54.7434   59.7320 H   0  0  0  0  0  0  0  0  0  0  0  0
   57.0417   53.8482   58.6033 H   0  0  0  0  0  0  0  0  0  0  0  0
   57.2797   56.6031   59.9030 H   0  0  0  0  0  0  0  0  0  0  0  0
   58.5140   55.3508   59.8811 H   0  0  0  0  0  0  0  0  0  0  0  0
   57.0228   55.0894   60.7632 H   0  0  0  0  0  0  0  0  0  0  0  0
   57.0237   55.0241   56.4508 H   0  0  0  0  0  0  0  0  0  0  0  0
   57.1653   56.5708   57.2591 H   0  0  0  0  0  0  0  0  0  0  0  0
   61.2668   53.2726   57.5671 H   0  0  0  0  0  0  0  0  0  0  0  0
   61.4997   55.0160   57.6974 H   0  0  0  0  0  0  0  0  0  0  0  0
   61.6720   54.2026   56.1447 H   0  0  0  0  0  0  0  0  0  0  0  0
   59.1806   53.7080   56.1404 H   0  0  0  0  0  0  0  0  0  0  0  0
   59.4604   56.2188   57.8231 H   0  0  0  0  0  0  0  0  0  0  0  0
   47.1951   58.8019   54.3168 H   0  0  0  0  0  0  0  0  0  0  0  0
   44.4198   59.7966   55.0659 H   0  0  0  0  0  0  0  0  0  0  0  0
   44.7490   58.3776   54.0887 H   0  0  0  0  0  0  0  0  0  0  0  0
   45.1687   59.9799   53.4842 H   0  0  0  0  0  0  0  0  0  0  0  0
   46.2686   61.1346   56.0529 H   0  0  0  0  0  0  0  0  0  0  0  0
   47.0822   61.2794   54.5031 H   0  0  0  0  0  0  0  0  0  0  0  0
   47.9498   60.6536   55.9039 H   0  0  0  0  0  0  0  0  0  0  0  0
   42.6430   54.4373   57.8796 H   0  0  0  0  0  0  0  0  0  0  0  0
   43.6628   56.9323   59.2925 H   0  0  0  0  0  0  0  0  0  0  0  0
   42.2043   56.0289   59.6245 H   0  0  0  0  0  0  0  0  0  0  0  0
   42.3417   56.9448   58.1241 H   0  0  0  0  0  0  0  0  0  0  0  0
   45.2633   54.9071   59.3545 H   0  0  0  0  0  0  0  0  0  0  0  0
   44.7156   53.3897   58.6501 H   0  0  0  0  0  0  0  0  0  0  0  0
   43.8622   54.0930   60.0235 H   0  0  0  0  0  0  0  0  0  0  0  0
   55.5085   49.9968   55.8282 H   0  0  0  0  0  0  0  0  0  0  0  0
   57.4008   52.3321   56.3225 H   0  0  0  0  0  0  0  0  0  0  0  0
   57.2021   51.5783   54.7637 H   0  0  0  0  0  0  0  0  0  0  0  0
   57.8421   50.6456   56.1188 H   0  0  0  0  0  0  0  0  0  0  0  0
   56.1487   51.5994   58.3156 H   0  0  0  0  0  0  0  0  0  0  0  0
   56.2709   49.8853   58.0383 H   0  0  0  0  0  0  0  0  0  0  0  0
   54.6782   50.6371   58.1357 H   0  0  0  0  0  0  0  0  0  0  0  0
   51.3753   53.4619   60.8149 H   0  0  0  0  0  0  0  0  0  0  0  0
   49.9846   54.4859   61.0944 H   0  0  0  0  0  0  0  0  0  0  0  0
   52.8906   55.3543   61.4737 H   0  0  0  0  0  0  0  0  0  0  0  0
   51.7486   54.9768   62.7536 H   0  0  0  0  0  0  0  0  0  0  0  0
   51.4958   56.3878   61.7333 H   0  0  0  0  0  0  0  0  0  0  0  0
   48.4370   57.1313   55.4098 H   0  0  0  0  0  0  0  0  0  0  0  0
   49.3174   56.9046   56.8847 H   0  0  0  0  0  0  0  0  0  0  0  0
   49.5178   59.3224   55.0335 H   0  0  0  0  0  0  0  0  0  0  0  0
   50.7467   58.1193   55.4048 H   0  0  0  0  0  0  0  0  0  0  0  0
   50.2528   59.2738   56.6334 H   0  0  0  0  0  0  0  0  0  0  0  0
   43.5846   51.6060   53.9640 H   0  0  0  0  0  0  0  0  0  0  0  0
   42.0865   52.3011   54.4485 H   0  0  0  0  0  0  0  0  0  0  0  0
   43.1171   52.6647   56.7638 H   0  0  0  0  0  0  0  0  0  0  0  0
   45.2203   50.7402   55.7061 H   0  0  0  0  0  0  0  0  0  0  0  0
   45.0511   51.2479   57.3710 H   0  0  0  0  0  0  0  0  0  0  0  0
   45.5437   52.4076   56.1525 H   0  0  0  0  0  0  0  0  0  0  0  0
   42.8880   49.7844   55.8157 H   0  0  0  0  0  0  0  0  0  0  0  0
   41.5303   50.7891   56.2682 H   0  0  0  0  0  0  0  0  0  0  0  0
   42.7270   50.3442   57.4775 H   0  0  0  0  0  0  0  0  0  0  0  0
   49.7397   48.5732   52.7409 H   0  0  0  0  0  0  0  0  0  0  0  0
   49.0383   48.8253   51.1619 H   0  0  0  0  0  0  0  0  0  0  0  0
   47.3424   47.8147   53.4441 H   0  0  0  0  0  0  0  0  0  0  0  0
   49.2467   46.2350   51.6652 H   0  0  0  0  0  0  0  0  0  0  0  0
   47.9749   45.4742   52.6040 H   0  0  0  0  0  0  0  0  0  0  0  0
   49.2697   46.3264   53.4217 H   0  0  0  0  0  0  0  0  0  0  0  0
   47.1892   47.3346   50.4464 H   0  0  0  0  0  0  0  0  0  0  0  0
   46.1702   48.4669   51.3137 H   0  0  0  0  0  0  0  0  0  0  0  0
   46.0439   46.7440   51.6466 H   0  0  0  0  0  0  0  0  0  0  0  0
   53.1171   52.6627   52.0325 H   0  0  0  0  0  0  0  0  0  0  0  0
   51.4083   52.6951   51.6830 H   0  0  0  0  0  0  0  0  0  0  0  0
   53.4804   50.7076   50.6869 H   0  0  0  0  0  0  0  0  0  0  0  0
   51.7929   52.7405   49.1885 H   0  0  0  0  0  0  0  0  0  0  0  0
   53.0217   51.6957   48.4689 H   0  0  0  0  0  0  0  0  0  0  0  0
   53.5028   52.9516   49.6010 H   0  0  0  0  0  0  0  0  0  0  0  0
   50.5055   50.7020   50.0586 H   0  0  0  0  0  0  0  0  0  0  0  0
   51.3331   49.4979   51.0167 H   0  0  0  0  0  0  0  0  0  0  0  0
   51.7188   49.6654   49.3230 H   0  0  0  0  0  0  0  0  0  0  0  0
  1  2  1  0
  1 92  1  6
  2  3  2  0
  2  4  1  0
  4  5  1  0
  4 54  1  0
  5 76  1  0
  5  6  1  0
  5 93  1  6
  6  7  2  0
  6  8  1  0
  8  9  1  0
  8 10  1  0
  9 94  1  0
  9 95  1  0
  9 96  1  0
 10 11  1  0
 10 12  1  0
 10 97  1  6
 11 98  1  0
 11 99  1  0
 11100  1  0
 12 13  2  0
 12 14  1  0
 14 78  1  0
 14 15  1  0
 15 67  1  0
 15 16  1  0
 15101  1  1
 16 17  2  0
 16 18  1  0
 18 19  1  0
 18 55  1  0
 19 70  1  0
 19 20  1  0
 19102  1  6
 20 21  2  0
 20 22  1  0
 22 23  1  0
 22 24  1  0
 23103  1  0
 23104  1  0
 23105  1  0
 24 80  1  0
 24 25  1  0
 24106  1  1
 25 26  2  0
 25 27  1  0
 27 28  1  0
 27 56  1  0
 28 29  1  0
 28 30  1  0
 28107  1  6
 29108  1  0
 29109  1  0
 29110  1  0
 30 31  2  0
 30 32  1  0
 32 33  1  0
 32 57  1  0
 33 34  1  0
 33 35  1  0
 33111  1  6
 34112  1  0
 34113  1  0
 34114  1  0
 35 36  2  0
 35 37  1  0
 37 38  1  0
 37 39  1  0
 38115  1  0
 38116  1  0
 38117  1  0
 39 84  1  0
 39 40  1  0
 39118  1  1
 40 41  2  0
 40 42  1  0
 42 43  1  0
 42 44  1  0
 43119  1  0
 43120  1  0
 43121  1  0
 44 88  1  0
 44 45  1  0
 44122  1  6
 45 46  2  0
 45 47  1  0
 47 48  1  0
 47 49  1  0
 48123  1  0
 48124  1  0
 48125  1  0
 49 73  1  0
 49 50  1  0
 49126  1  1
 50 51  2  0
 50 52  1  0
 52 53  1  0
 52  1  1  0
 53127  1  0
 53128  1  0
 53129  1  0
 58 59  1  0
 58  1  1  0
 58130  1  1
 59 60  1  0
 61 62  1  0
 61 58  1  0
 61131  1  1
 62132  1  0
 62133  1  0
 62134  1  0
 63 61  1  0
 63135  1  0
 63136  1  0
 64 65  1  0
 64137  1  0
 64138  1  0
 64139  1  0
 65 66  2  0
 65140  1  0
 66 63  1  0
 66141  1  0
 67 68  1  0
 67 69  1  0
 67142  1  0
 68143  1  0
 68144  1  0
 68145  1  0
 69146  1  0
 69147  1  0
 69148  1  0
 70 71  1  0
 70 72  1  0
 70149  1  0
 71150  1  0
 71151  1  0
 71152  1  0
 72153  1  0
 72154  1  0
 72155  1  0
 73 74  1  0
 73 75  1  0
 73156  1  0
 74157  1  0
 74158  1  0
 74159  1  0
 75160  1  0
 75161  1  0
 75162  1  0
 76 77  1  0
 76163  1  0
 76164  1  0
 77165  1  0
 77166  1  0
 77167  1  0
 78 79  1  0
 78168  1  0
 78169  1  0
 79170  1  0
 79171  1  0
 79172  1  0
 80 81  1  0
 80173  1  0
 80174  1  0
 81 82  1  0
 81 83  1  0
 81175  1  0
 82176  1  0
 82177  1  0
 82178  1  0
 83179  1  0
 83180  1  0
 83181  1  0
 84 85  1  0
 84182  1  0
 84183  1  0
 85 86  1  0
 85 87  1  0
 85184  1  0
 86185  1  0
 86186  1  0
 86187  1  0
 87188  1  0
 87189  1  0
 87190  1  0
 88 89  1  0
 88191  1  0
 88192  1  0
 89 90  1  0
 89 91  1  0
 89193  1  0
 90194  1  0
 90195  1  0
 90196  1  0
 91197  1  0
 91198  1  0
 91199  1  0
M  END
>  <minimizedAffinity>  (3) 
-6.24101

>  <mol_id>  (3) 
69521

>  <source_index>  (3) 
3

>  <layer>  (3) 
L1

>  <uniprot>  (3) 
P62937

>  <paff>  (3) 
8.0968999999999998

>  <smiles>  (3) 
C/C=C/C[C@@H](C)[C@@H](O)[C@H]1C(=O)N[C@@H](CC)C(=O)N(C)[C@H](C)C(=O)N(CC)[C@@H](C(C)C)C(=O)N[C@@H](C(C)C)C(=O)N(C)[C@@H](CC(C)C)C(=O)N[C@@H](C)C(=O)N[C@H](C)C(=O)N(C)[C@@H](CC(C)C)C(=O)N(C)[C@@H](CC(C)C)C(=O)N(C)[C@@H](C(C)C)C(=O)N1C

>  <aimnet_interaction_kcal_mol>  (3) 
-72.521430478237519

$$$$
