L1:P62937:19634
     RDKit          3D

214214  0  0  0  0  0  0  0  0999 V2000
   53.4012   52.7987   61.8316 C   0  0  2  0  0  0  0  0  0  0  0  0
   53.8934   52.3717   60.5112 N   0  0  0  0  0  0  0  0  0  0  0  0
   54.5843   53.1918   59.6349 C   0  0  0  0  0  0  0  0  0  0  0  0
   54.9508   54.3278   59.9261 O   0  0  0  0  0  0  0  0  0  0  0  0
   55.0056   52.4857   58.3215 C   0  0  1  0  0  0  0  0  0  0  0  0
   53.8713   51.6839   57.7633 N   0  0  0  0  0  0  0  0  0  0  0  0
   52.7244   52.4186   57.2479 C   0  0  0  0  0  0  0  0  0  0  0  0
   54.0550   50.3116   57.5878 C   0  0  0  0  0  0  0  0  0  0  0  0
   55.0471   49.7518   58.0679 O   0  0  0  0  0  0  0  0  0  0  0  0
   52.9642   49.4902   56.8117 C   0  0  1  0  0  0  0  0  0  0  0  0
   52.7187   49.8951   55.3865 N   0  0  0  0  0  0  0  0  0  0  0  0
   53.8826   50.2651   54.5984 C   0  0  0  0  0  0  0  0  0  0  0  0
   51.4298   49.7049   54.8927 C   0  0  0  0  0  0  0  0  0  0  0  0
   50.5201   49.4869   55.7170 O   0  0  0  0  0  0  0  0  0  0  0  0
   51.0209   49.6470   53.3563 C   0  0  1  0  0  0  0  0  0  0  0  0
   49.6819   50.2561   53.0570 N   0  0  0  0  0  0  0  0  0  0  0  0
   49.2882   51.3880   53.8791 C   0  0  0  0  0  0  0  0  0  0  0  0
   48.8481   49.5887   52.1662 C   0  0  0  0  0  0  0  0  0  0  0  0
   49.2641   48.5594   51.6092 O   0  0  0  0  0  0  0  0  0  0  0  0
   47.3714   50.0309   51.8051 C   0  0  1  0  0  0  0  0  0  0  0  0
   46.7216   51.2477   52.3573 N   0  0  0  0  0  0  0  0  0  0  0  0
   46.8305   52.5007   51.6223 C   0  0  0  0  0  0  0  0  0  0  0  0
   45.9987   51.1072   53.5438 C   0  0  0  0  0  0  0  0  0  0  0  0
   46.1419   50.1189   54.2689 O   0  0  0  0  0  0  0  0  0  0  0  0
   44.9899   52.2142   53.9543 C   0  0  1  0  0  0  0  0  0  0  0  0
   43.7792   52.1922   53.0258 C   0  0  0  0  0  0  0  0  0  0  0  0
   44.6102   51.9103   55.3342 N   0  0  0  0  0  0  0  0  0  0  0  0
   43.7900   52.6860   56.1276 C   0  0  0  0  0  0  0  0  0  0  0  0
   43.2409   53.7064   55.7273 O   0  0  0  0  0  0  0  0  0  0  0  0
   43.6131   52.1024   57.5483 C   0  0  2  0  0  0  0  0  0  0  0  0
   42.9551   50.7284   57.4956 C   0  0  0  0  0  0  0  0  0  0  0  0
   42.8191   52.9698   58.4118 N   0  0  0  0  0  0  0  0  0  0  0  0
   43.3911   53.8917   59.2630 C   0  0  0  0  0  0  0  0  0  0  0  0
   44.5747   54.2191   59.1969 O   0  0  0  0  0  0  0  0  0  0  0  0
   42.3912   54.4457   60.3175 C   0  0  1  0  0  0  0  0  0  0  0  0
   43.0902   54.8441   61.5745 N   0  0  0  0  0  0  0  0  0  0  0  0
   43.9182   56.0430   61.5420 C   0  0  0  0  0  0  0  0  0  0  0  0
   43.3957   53.7750   62.4305 C   0  0  0  0  0  0  0  0  0  0  0  0
   43.0181   52.6270   62.1455 O   0  0  0  0  0  0  0  0  0  0  0  0
   44.0327   53.9943   63.8371 C   0  0  1  0  0  0  0  0  0  0  0  0
   45.2641   54.7898   63.9258 N   0  0  0  0  0  0  0  0  0  0  0  0
   46.1054   54.6314   65.0180 C   0  0  0  0  0  0  0  0  0  0  0  0
   45.7940   53.9483   65.9943 O   0  0  0  0  0  0  0  0  0  0  0  0
   47.3766   55.5135   65.0439 C   0  0  1  0  0  0  0  0  0  0  0  0
   48.0766   55.6615   63.7449 N   0  0  0  0  0  0  0  0  0  0  0  0
   47.8259   56.8051   62.8808 C   0  0  0  0  0  0  0  0  0  0  0  0
   48.9724   54.6410   63.4178 C   0  0  0  0  0  0  0  0  0  0  0  0
   48.6639   53.4749   63.6581 O   0  0  0  0  0  0  0  0  0  0  0  0
   50.3324   55.0414   62.7378 C   0  0  1  0  0  0  0  0  0  0  0  0
   50.9487   56.3066   63.3494 C   0  0  0  0  0  0  0  0  0  0  0  0
   51.3526   53.9535   62.8326 N   0  0  0  0  0  0  0  0  0  0  0  0
   51.6754   53.4587   64.1790 C   0  0  0  0  0  0  0  0  0  0  0  0
   52.1035   53.6625   61.6866 C   0  0  0  0  0  0  0  0  0  0  0  0
   51.7286   54.0525   60.5770 O   0  0  0  0  0  0  0  0  0  0  0  0
   53.5190   51.5174   60.1190 H   0  0  0  0  0  0  0  0  0  0  0  0
   45.0903   51.1093   55.7433 H   0  0  0  0  0  0  0  0  0  0  0  0
   41.8187   52.8478   58.4115 H   0  0  0  0  0  0  0  0  0  0  0  0
   45.7430   55.0078   63.0604 H   0  0  0  0  0  0  0  0  0  0  0  0
   53.1331   47.9349   56.9193 C   0  0  0  0  0  0  0  0  0  0  0  0
   54.5557   47.4242   56.6683 C   0  0  0  0  0  0  0  0  0  0  0  0
   52.6005   47.3813   58.2500 C   0  0  0  0  0  0  0  0  0  0  0  0
   42.9594   54.4240   64.8939 C   0  0  0  0  0  0  0  0  0  0  0  0
   41.6152   53.7265   64.6761 C   0  0  0  0  0  0  0  0  0  0  0  0
   42.7420   55.9334   64.9985 C   0  0  0  0  0  0  0  0  0  0  0  0
   55.6384   53.4722   57.2921 C   0  0  2  0  0  0  0  0  0  0  0  0
   55.1964   53.1411   55.9617 O   0  0  0  0  0  0  0  0  0  0  0  0
   55.3966   53.9030   55.3954 H   0  0  0  0  0  0  0  0  0  0  0  0
   57.1969   53.5550   57.3248 C   0  0  2  0  0  0  0  0  0  0  0  0
   57.6864   54.9024   57.8741 C   0  0  0  0  0  0  0  0  0  0  0  0
   57.9483   53.1479   56.0336 C   0  0  0  0  0  0  0  0  0  0  0  0
   58.6299   51.7734   55.9509 C   0  0  0  0  0  0  0  0  0  0  0  0
   57.6520   50.5956   55.8918 C   0  0  0  0  0  0  0  0  0  0  0  0
   57.8111   49.7253   54.6356 C   0  0  0  0  0  0  0  0  0  0  0  0
   58.9697   48.7237   54.6468 C   0  0  0  0  0  0  0  0  0  0  0  0
   58.6657   47.3696   54.0083 C   0  0  0  0  0  0  0  0  0  0  0  0
   57.7302   46.5714   54.7706 N   0  0  0  0  0  0  0  0  0  0  0  0
   58.1144   45.4108   55.4048 C   0  0  0  0  0  0  0  0  0  0  0  0
   56.9963   44.7376   56.1557 C   0  0  0  0  0  0  0  0  0  0  0  0
   59.2551   44.9614   55.3830 O   0  0  0  0  0  0  0  0  0  0  0  0
   56.8187   46.9556   54.9707 H   0  0  0  0  0  0  0  0  0  0  0  0
   55.3431   52.4634   63.4651 C   0  0  0  0  0  0  0  0  0  0  0  0
   54.4922   53.4688   62.6962 C   0  0  0  0  0  0  0  0  0  0  0  0
   52.0028   49.7651   52.1622 C   0  0  0  0  0  0  0  0  0  0  0  0
   52.0092   51.0139   51.2555 C   0  0  0  0  0  0  0  0  0  0  0  0
   51.5241   50.7684   49.8275 C   0  0  0  0  0  0  0  0  0  0  0  0
   53.4567   51.5479   51.1808 C   0  0  0  0  0  0  0  0  0  0  0  0
   47.1726   49.9021   50.2555 C   0  0  0  0  0  0  0  0  0  0  0  0
   46.0340   48.9497   49.8201 C   0  0  0  0  0  0  0  0  0  0  0  0
   45.3636   48.2270   50.9837 C   0  0  0  0  0  0  0  0  0  0  0  0
   44.9750   49.7306   49.0269 C   0  0  0  0  0  0  0  0  0  0  0  0
   41.4203   55.4971   59.7244 C   0  0  0  0  0  0  0  0  0  0  0  0
   39.9256   55.2064   60.0175 C   0  0  0  0  0  0  0  0  0  0  0  0
   39.6919   53.8296   60.6423 C   0  0  0  0  0  0  0  0  0  0  0  0
   39.1058   55.3097   58.7285 C   0  0  0  0  0  0  0  0  0  0  0  0
   47.1026   56.8735   65.7242 C   0  0  0  0  0  0  0  0  0  0  0  0
   48.2114   57.3307   66.7035 C   0  0  0  0  0  0  0  0  0  0  0  0
   49.0419   56.1337   67.1774 C   0  0  0  0  0  0  0  0  0  0  0  0
   49.1365   58.3619   66.0593 C   0  0  0  0  0  0  0  0  0  0  0  0
   53.1331   51.9175   62.3761 H   0  0  0  0  0  0  0  0  0  0  0  0
   55.7876   51.7932   58.5536 H   0  0  0  0  0  0  0  0  0  0  0  0
   52.8142   53.4515   57.5125 H   0  0  0  0  0  0  0  0  0  0  0  0
   51.8260   52.0191   57.6699 H   0  0  0  0  0  0  0  0  0  0  0  0
   52.6903   52.3250   56.1825 H   0  0  0  0  0  0  0  0  0  0  0  0
   52.0796   49.7661   57.3466 H   0  0  0  0  0  0  0  0  0  0  0  0
   54.7370   50.3410   55.2380 H   0  0  0  0  0  0  0  0  0  0  0  0
   53.7072   51.2081   54.1242 H   0  0  0  0  0  0  0  0  0  0  0  0
   54.0605   49.5186   53.8528 H   0  0  0  0  0  0  0  0  0  0  0  0
   51.0243   48.5770   53.3642 H   0  0  0  0  0  0  0  0  0  0  0  0
   50.1214   51.7065   54.4701 H   0  0  0  0  0  0  0  0  0  0  0  0
   48.4841   51.0986   54.5230 H   0  0  0  0  0  0  0  0  0  0  0  0
   48.9692   52.1922   53.2495 H   0  0  0  0  0  0  0  0  0  0  0  0
   46.8116   49.3361   52.3956 H   0  0  0  0  0  0  0  0  0  0  0  0
   47.4342   52.3521   50.7515 H   0  0  0  0  0  0  0  0  0  0  0  0
   47.2822   53.2426   52.2471 H   0  0  0  0  0  0  0  0  0  0  0  0
   45.8550   52.8278   51.3284 H   0  0  0  0  0  0  0  0  0  0  0  0
   45.4127   53.1943   53.8806 H   0  0  0  0  0  0  0  0  0  0  0  0
   43.3182   51.2274   53.0637 H   0  0  0  0  0  0  0  0  0  0  0  0
   44.0941   52.3979   52.0241 H   0  0  0  0  0  0  0  0  0  0  0  0
   43.0763   52.9359   53.3385 H   0  0  0  0  0  0  0  0  0  0  0  0
   44.5969   52.0217   57.9613 H   0  0  0  0  0  0  0  0  0  0  0  0
   41.9726   50.8191   57.0816 H   0  0  0  0  0  0  0  0  0  0  0  0
   42.8895   50.3262   58.4849 H   0  0  0  0  0  0  0  0  0  0  0  0
   43.5413   50.0755   56.8833 H   0  0  0  0  0  0  0  0  0  0  0  0
   41.7380   53.6511   60.6123 H   0  0  0  0  0  0  0  0  0  0  0  0
   43.5185   56.7333   60.8289 H   0  0  0  0  0  0  0  0  0  0  0  0
   44.9168   55.7794   61.2622 H   0  0  0  0  0  0  0  0  0  0  0  0
   43.9273   56.4966   62.5111 H   0  0  0  0  0  0  0  0  0  0  0  0
   44.4012   53.0191   64.0780 H   0  0  0  0  0  0  0  0  0  0  0  0
   48.0756   54.9695   65.6442 H   0  0  0  0  0  0  0  0  0  0  0  0
   47.1056   57.4487   63.3410 H   0  0  0  0  0  0  0  0  0  0  0  0
   47.4497   56.4646   61.9388 H   0  0  0  0  0  0  0  0  0  0  0  0
   48.7381   57.3429   62.7273 H   0  0  0  0  0  0  0  0  0  0  0  0
   50.0812   55.2224   61.7136 H   0  0  0  0  0  0  0  0  0  0  0  0
   51.1987   56.1224   64.3733 H   0  0  0  0  0  0  0  0  0  0  0  0
   50.2438   57.1097   63.2933 H   0  0  0  0  0  0  0  0  0  0  0  0
   51.8333   56.5700   62.8081 H   0  0  0  0  0  0  0  0  0  0  0  0
   50.9497   53.8224   64.8761 H   0  0  0  0  0  0  0  0  0  0  0  0
   52.6473   53.8048   64.4627 H   0  0  0  0  0  0  0  0  0  0  0  0
   51.6641   52.3888   64.1780 H   0  0  0  0  0  0  0  0  0  0  0  0
   52.5332   47.5576   56.1176 H   0  0  0  0  0  0  0  0  0  0  0  0
   55.2026   47.7741   57.4455 H   0  0  0  0  0  0  0  0  0  0  0  0
   54.9037   47.7877   55.7240 H   0  0  0  0  0  0  0  0  0  0  0  0
   54.5543   46.3542   56.6601 H   0  0  0  0  0  0  0  0  0  0  0  0
   53.1967   47.7552   59.0560 H   0  0  0  0  0  0  0  0  0  0  0  0
   52.6489   46.3125   58.2366 H   0  0  0  0  0  0  0  0  0  0  0  0
   51.5850   47.6907   58.3841 H   0  0  0  0  0  0  0  0  0  0  0  0
   43.3770   54.1039   65.8256 H   0  0  0  0  0  0  0  0  0  0  0  0
   41.1950   54.0447   63.7449 H   0  0  0  0  0  0  0  0  0  0  0  0
   40.9484   53.9802   65.4736 H   0  0  0  0  0  0  0  0  0  0  0  0
   41.7621   52.6668   64.6575 H   0  0  0  0  0  0  0  0  0  0  0  0
   42.3234   56.2977   64.0837 H   0  0  0  0  0  0  0  0  0  0  0  0
   43.6792   56.4170   65.1794 H   0  0  0  0  0  0  0  0  0  0  0  0
   42.0713   56.1421   65.8057 H   0  0  0  0  0  0  0  0  0  0  0  0
   55.2955   54.4430   57.5833 H   0  0  0  0  0  0  0  0  0  0  0  0
   57.4652   52.7793   58.0112 H   0  0  0  0  0  0  0  0  0  0  0  0
   57.4213   55.6831   57.1921 H   0  0  0  0  0  0  0  0  0  0  0  0
   58.7498   54.8754   57.9894 H   0  0  0  0  0  0  0  0  0  0  0  0
   57.2293   55.0878   58.8236 H   0  0  0  0  0  0  0  0  0  0  0  0
   58.7099   53.8821   55.8732 H   0  0  0  0  0  0  0  0  0  0  0  0
   57.1702   53.0846   55.3019 H   0  0  0  0  0  0  0  0  0  0  0  0
   59.2500   51.6528   56.8145 H   0  0  0  0  0  0  0  0  0  0  0  0
   59.1877   51.7588   55.0379 H   0  0  0  0  0  0  0  0  0  0  0  0
   56.6547   50.9829   55.9107 H   0  0  0  0  0  0  0  0  0  0  0  0
   57.8625   49.9709   56.7346 H   0  0  0  0  0  0  0  0  0  0  0  0
   57.9540   50.3799   53.8014 H   0  0  0  0  0  0  0  0  0  0  0  0
   56.9218   49.1325   54.5845 H   0  0  0  0  0  0  0  0  0  0  0  0
   59.2504   48.5538   55.6652 H   0  0  0  0  0  0  0  0  0  0  0  0
   59.7468   49.1623   54.0564 H   0  0  0  0  0  0  0  0  0  0  0  0
   59.5817   46.8241   53.9177 H   0  0  0  0  0  0  0  0  0  0  0  0
   58.2142   47.5631   53.0577 H   0  0  0  0  0  0  0  0  0  0  0  0
   56.0954   45.3022   56.0356 H   0  0  0  0  0  0  0  0  0  0  0  0
   57.2468   44.6825   57.1945 H   0  0  0  0  0  0  0  0  0  0  0  0
   56.8522   43.7497   55.7706 H   0  0  0  0  0  0  0  0  0  0  0  0
   56.0773   52.9853   64.0425 H   0  0  0  0  0  0  0  0  0  0  0  0
   55.8320   51.8082   62.7748 H   0  0  0  0  0  0  0  0  0  0  0  0
   54.7169   51.8913   64.1174 H   0  0  0  0  0  0  0  0  0  0  0  0
   55.1327   54.0386   62.0559 H   0  0  0  0  0  0  0  0  0  0  0  0
   53.9964   54.0858   63.4162 H   0  0  0  0  0  0  0  0  0  0  0  0
   51.8079   48.9281   51.5248 H   0  0  0  0  0  0  0  0  0  0  0  0
   52.9549   49.8229   52.6469 H   0  0  0  0  0  0  0  0  0  0  0  0
   51.3244   51.7084   51.6955 H   0  0  0  0  0  0  0  0  0  0  0  0
   52.1799   50.0762   49.3421 H   0  0  0  0  0  0  0  0  0  0  0  0
   51.5191   51.6928   49.2886 H   0  0  0  0  0  0  0  0  0  0  0  0
   50.5336   50.3643   49.8518 H   0  0  0  0  0  0  0  0  0  0  0  0
   54.0870   50.8083   50.7330 H   0  0  0  0  0  0  0  0  0  0  0  0
   53.8079   51.7656   52.1678 H   0  0  0  0  0  0  0  0  0  0  0  0
   53.4778   52.4397   50.5899 H   0  0  0  0  0  0  0  0  0  0  0  0
   48.0869   49.5419   49.8322 H   0  0  0  0  0  0  0  0  0  0  0  0
   46.8981   50.8758   49.9070 H   0  0  0  0  0  0  0  0  0  0  0  0
   46.4884   48.1979   49.2092 H   0  0  0  0  0  0  0  0  0  0  0  0
   44.8933   48.9430   51.6249 H   0  0  0  0  0  0  0  0  0  0  0  0
   46.0998   47.6821   51.5369 H   0  0  0  0  0  0  0  0  0  0  0  0
   44.6273   47.5488   50.6057 H   0  0  0  0  0  0  0  0  0  0  0  0
   44.5350   50.4754   49.6567 H   0  0  0  0  0  0  0  0  0  0  0  0
   44.2160   49.0575   48.6867 H   0  0  0  0  0  0  0  0  0  0  0  0
   45.4364   50.2028   48.1849 H   0  0  0  0  0  0  0  0  0  0  0  0
   41.5572   55.5217   58.6635 H   0  0  0  0  0  0  0  0  0  0  0  0
   41.6524   56.4322   60.1898 H   0  0  0  0  0  0  0  0  0  0  0  0
   39.6110   55.9423   60.7277 H   0  0  0  0  0  0  0  0  0  0  0  0
   39.9976   53.0692   59.9544 H   0  0  0  0  0  0  0  0  0  0  0  0
   38.6522   53.7112   60.8659 H   0  0  0  0  0  0  0  0  0  0  0  0
   40.2624   53.7455   61.5436 H   0  0  0  0  0  0  0  0  0  0  0  0
   39.4372   54.5658   58.0345 H   0  0  0  0  0  0  0  0  0  0  0  0
   39.2366   56.2812   58.2995 H   0  0  0  0  0  0  0  0  0  0  0  0
   38.0707   55.1543   58.9507 H   0  0  0  0  0  0  0  0  0  0  0  0
   46.1849   56.7968   66.2691 H   0  0  0  0  0  0  0  0  0  0  0  0
   47.0628   57.6042   64.9436 H   0  0  0  0  0  0  0  0  0  0  0  0
   47.7253   57.7831   67.5425 H   0  0  0  0  0  0  0  0  0  0  0  0
   49.5276   55.6818   66.3379 H   0  0  0  0  0  0  0  0  0  0  0  0
   48.4000   55.4174   67.6461 H   0  0  0  0  0  0  0  0  0  0  0  0
   49.7782   56.4659   67.8792 H   0  0  0  0  0  0  0  0  0  0  0  0
   49.6297   57.9221   65.2177 H   0  0  0  0  0  0  0  0  0  0  0  0
   49.8664   58.6817   66.7734 H   0  0  0  0  0  0  0  0  0  0  0  0
   48.5613   59.2041   65.7356 H   0  0  0  0  0  0  0  0  0  0  0  0
  1  2  1  0
  1 99  1  1
  2  3  1  0
  2 55  1  0
  3  4  2  0
  3  5  1  0
  5 65  1  0
  5  6  1  0
  5100  1  1
  6  7  1  0
  6  8  1  0
  7101  1  0
  7102  1  0
  7103  1  0
  8  9  2  0
  8 10  1  0
 10 59  1  0
 10 11  1  0
 10104  1  1
 11 12  1  0
 11 13  1  0
 12105  1  0
 12106  1  0
 12107  1  0
 13 14  2  0
 13 15  1  0
 15 83  1  0
 15 16  1  0
 15108  1  1
 16 17  1  0
 16 18  1  0
 17109  1  0
 17110  1  0
 17111  1  0
 18 19  2  0
 18 20  1  0
 20 87  1  0
 20 21  1  0
 20112  1  1
 21 22  1  0
 21 23  1  0
 22113  1  0
 22114  1  0
 22115  1  0
 23 24  2  0
 23 25  1  0
 25 26  1  0
 25 27  1  0
 25116  1  1
 26117  1  0
 26118  1  0
 26119  1  0
 27 28  1  0
 27 56  1  0
 28 29  2  0
 28 30  1  0
 30 31  1  0
 30 32  1  0
 30120  1  1
 31121  1  0
 31122  1  0
 31123  1  0
 32 33  1  0
 32 57  1  0
 33 34  2  0
 33 35  1  0
 35 91  1  0
 35 36  1  0
 35124  1  1
 36 37  1  0
 36 38  1  0
 37125  1  0
 37126  1  0
 37127  1  0
 38 39  2  0
 38 40  1  0
 40 62  1  0
 40 41  1  0
 40128  1  1
 41 42  1  0
 41 58  1  0
 42 43  2  0
 42 44  1  0
 44 95  1  0
 44 45  1  0
 44129  1  1
 45 46  1  0
 45 47  1  0
 46130  1  0
 46131  1  0
 46132  1  0
 47 48  2  0
 47 49  1  0
 49 50  1  0
 49 51  1  0
 49133  1  6
 50134  1  0
 50135  1  0
 50136  1  0
 51 52  1  0
 51 53  1  0
 52137  1  0
 52138  1  0
 52139  1  0
 53 54  2  0
 53  1  1  0
 59 60  1  0
 59 61  1  0
 59140  1  0
 60141  1  0
 60142  1  0
 60143  1  0
 61144  1  0
 61145  1  0
 61146  1  0
 62 63  1  0
 62 64  1  0
 62147  1  0
 63148  1  0
 63149  1  0
 63150  1  0
 64151  1  0
 64152  1  0
 64153  1  0
 65 66  1  0
 65 68  1  0
 65154  1  1
 66 67  1  0
 68 69  1  0
 68 70  1  0
 68155  1  1
 69156  1  0
 69157  1  0
 69158  1  0
 70 71  1  0
 70159  1  0
 70160  1  0
 71 72  1  0
 71161  1  0
 71162  1  0
 72 73  1  0
 72163  1  0
 72164  1  0
 73 74  1  0
 73165  1  0
 73166  1  0
 74 75  1  0
 74167  1  0
 74168  1  0
 75 76  1  0
 75169  1  0
 75170  1  0
 76 77  1  0
 76 80  1  0
 77 78  1  0
 77 79  2  0
 78171  1  0
 78172  1  0
 78173  1  0
 81 82  1  0
 81174  1  0
 81175  1  0
 81176  1  0
 82  1  1  0
 82177  1  0
 82178  1  0
 83 84  1  0
 83179  1  0
 83180  1  0
 84 85  1  0
 84 86  1  0
 84181  1  0
 85182  1  0
 85183  1  0
 85184  1  0
 86185  1  0
 86186  1  0
 86187  1  0
 87 88  1  0
 87188  1  0
 87189  1  0
 88 89  1  0
 88 90  1  0
 88190  1  0
 89191  1  0
 89192  1  0
 89193  1  0
 90194  1  0
 90195  1  0
 90196  1  0
 91 92  1  0
 91197  1  0
 91198  1  0
 92 93  1  0
 92 94  1  0
 92199  1  0
 93200  1  0
 93201  1  0
 93202  1  0
 94203  1  0
 94204  1  0
 94205  1  0
 95 96  1  0
 95206  1  0
 95207  1  0
 96 97  1  0
 96 98  1  0
 96208  1  0
 97209  1  0
 97210  1  0
 97211  1  0
 98212  1  0
 98213  1  0
 98214  1  0
M  END
>  <minimizedAffinity>  (1) 
-5.97432

>  <mol_id>  (1) 
19634

>  <source_index>  (1) 
0

>  <layer>  (1) 
L1

>  <uniprot>  (1) 
P62937

>  <paff>  (1) 
8.6021000000000001

>  <smiles>  (1) 
C.CC[C@@H]1NC(=O)[C@H]([C@H](O)[C@H](C)CCCCCCNC(C)=O)N(C)C(=O)[C@H](C(C)C)N(C)C(=O)[C@H](CC(C)C)N(C)C(=O)[C@H](CC(C)C)N(C)C(=O)[C@@H](C)NC(=O)[C@H](C)NC(=O)[C@H](CC(C)C)N(C)C(=O)[C@H](C(C)C)NC(=O)[C@H](CC(C)C)N(C)C(=O)[C@@H](C)N(C)C1=O

$$$$
L1:P62937:58673
     RDKit          3D

217217  0  0  0  0  0  0  0  0999 V2000
   56.3540   47.9330   55.4440 C   0  0  1  0  0  0  0  0  0  0  0  0
   55.9506   49.1547   54.5221 C   0  0  0  0  0  0  0  0  0  0  0  0
   56.7837   49.8110   53.8939 O   0  0  0  0  0  0  0  0  0  0  0  0
   54.5965   49.4060   54.4694 N   0  0  0  0  0  0  0  0  0  0  0  0
   53.9299   50.4374   53.6701 C   0  0  2  0  0  0  0  0  0  0  0  0
   52.4097   50.2695   53.9970 C   0  0  0  0  0  0  0  0  0  0  0  0
   52.0593   49.5198   54.9173 O   0  0  0  0  0  0  0  0  0  0  0  0
   51.4680   50.9832   53.2955 N   0  0  0  0  0  0  0  0  0  0  0  0
   51.6759   52.3211   52.7528 C   0  0  0  0  0  0  0  0  0  0  0  0
   50.1688   50.3599   53.0452 C   0  0  1  0  0  0  0  0  0  0  0  0
   48.9123   51.2675   53.3472 C   0  0  0  0  0  0  0  0  0  0  0  0
   48.4413   52.0188   52.4888 O   0  0  0  0  0  0  0  0  0  0  0  0
   48.3111   51.1737   54.6085 N   0  0  0  0  0  0  0  0  0  0  0  0
   49.0053   50.6144   55.7643 C   0  0  0  0  0  0  0  0  0  0  0  0
   46.9143   51.6669   54.7225 C   0  0  2  0  0  0  0  0  0  0  0  0
   46.7902   53.1513   55.1523 C   0  0  0  0  0  0  0  0  0  0  0  0
   45.8407   53.8566   54.8159 O   0  0  0  0  0  0  0  0  0  0  0  0
   47.6949   53.5522   56.1031 N   0  0  0  0  0  0  0  0  0  0  0  0
   47.6500   54.8600   56.7841 C   0  0  2  0  0  0  0  0  0  0  0  0
   49.0159   55.5065   56.4118 C   0  0  0  0  0  0  0  0  0  0  0  0
   49.9986   54.7655   56.2590 O   0  0  0  0  0  0  0  0  0  0  0  0
   49.1171   56.8859   56.2531 N   0  0  0  0  0  0  0  0  0  0  0  0
   48.0468   57.8054   56.6052 C   0  0  0  0  0  0  0  0  0  0  0  0
   50.2755   57.4197   55.4850 C   0  0  2  0  0  0  0  0  0  0  0  0
   51.2173   58.3857   56.2416 C   0  0  0  0  0  0  0  0  0  0  0  0
   51.9152   59.2296   55.6806 O   0  0  0  0  0  0  0  0  0  0  0  0
   51.3747   58.0776   57.5909 N   0  0  0  0  0  0  0  0  0  0  0  0
   52.6569   58.3710   58.2390 C   0  0  1  0  0  0  0  0  0  0  0  0
   52.4400   58.6074   59.7195 C   0  0  0  0  0  0  0  0  0  0  0  0
   53.6309   57.1936   57.9308 C   0  0  0  0  0  0  0  0  0  0  0  0
   53.4752   56.4651   56.9483 O   0  0  0  0  0  0  0  0  0  0  0  0
   54.7191   57.0344   58.7705 N   0  0  0  0  0  0  0  0  0  0  0  0
   55.6219   55.8977   58.5462 C   0  0  2  0  0  0  0  0  0  0  0  0
   54.9600   54.5724   58.9333 C   0  0  0  0  0  0  0  0  0  0  0  0
   56.9196   56.0413   59.3767 C   0  0  0  0  0  0  0  0  0  0  0  0
   56.9010   55.8843   60.5948 O   0  0  0  0  0  0  0  0  0  0  0  0
   58.0503   56.4437   58.6639 N   0  0  0  0  0  0  0  0  0  0  0  0
   58.0098   57.7921   58.0997 C   0  0  0  0  0  0  0  0  0  0  0  0
   59.4083   55.9319   59.0180 C   0  0  2  0  0  0  0  0  0  0  0  0
   59.7086   54.4587   58.5704 C   0  0  0  0  0  0  0  0  0  0  0  0
   60.6681   53.8596   59.0607 O   0  0  0  0  0  0  0  0  0  0  0  0
   58.9619   53.8542   57.5633 N   0  0  0  0  0  0  0  0  0  0  0  0
   58.3569   54.5818   56.4565 C   0  0  0  0  0  0  0  0  0  0  0  0
   59.0398   52.3877   57.4021 C   0  0  2  0  0  0  0  0  0  0  0  0
   58.9408   51.5858   58.7425 C   0  0  0  0  0  0  0  0  0  0  0  0
   58.6265   52.1074   59.8132 O   0  0  0  0  0  0  0  0  0  0  0  0
   59.2097   50.2085   58.6528 N   0  0  0  0  0  0  0  0  0  0  0  0
   60.3562   49.7964   59.4506 C   0  0  0  0  0  0  0  0  0  0  0  0
   58.0796   49.2409   58.5713 C   0  0  2  0  0  0  0  0  0  0  0  0
   57.3561   49.3230   57.1939 C   0  0  0  0  0  0  0  0  0  0  0  0
   56.8827   50.3632   56.7647 O   0  0  0  0  0  0  0  0  0  0  0  0
   57.4839   48.1914   56.3630 N   0  0  0  0  0  0  0  0  0  0  0  0
   58.8110   48.0132   55.8001 C   0  0  0  0  0  0  0  0  0  0  0  0
   54.1211   49.2522   55.3511 H   0  0  0  0  0  0  0  0  0  0  0  0
   48.6251   53.1362   56.0581 H   0  0  0  0  0  0  0  0  0  0  0  0
   50.9073   57.2152   57.8774 H   0  0  0  0  0  0  0  0  0  0  0  0
   54.6457   57.3529   59.7262 H   0  0  0  0  0  0  0  0  0  0  0  0
   57.0337   49.1933   59.7168 C   0  0  0  0  0  0  0  0  0  0  0  0
   56.6856   47.8142   60.2909 C   0  0  0  0  0  0  0  0  0  0  0  0
   55.7559   49.9608   59.3815 C   0  0  0  0  0  0  0  0  0  0  0  0
   47.3936   54.5665   58.2900 C   0  0  0  0  0  0  0  0  0  0  0  0
   45.9430   54.7777   58.7257 C   0  0  0  0  0  0  0  0  0  0  0  0
   48.3385   55.3073   59.2377 C   0  0  0  0  0  0  0  0  0  0  0  0
   55.1607   47.2067   56.1386 C   0  0  2  0  0  0  0  0  0  0  0  0
   54.3438   48.1504   56.8360 O   0  0  0  0  0  0  0  0  0  0  0  0
   53.4084   48.0268   56.5898 H   0  0  0  0  0  0  0  0  0  0  0  0
   55.4929   46.0420   57.1117 C   0  0  2  0  0  0  0  0  0  0  0  0
   56.4342   44.9715   56.5281 C   0  0  0  0  0  0  0  0  0  0  0  0
   54.2171   45.4198   57.7326 C   0  0  0  0  0  0  0  0  0  0  0  0
   55.0360   44.4515   61.4322 C   0  0  0  0  0  0  0  0  0  0  0  0
   55.0334   44.5069   59.9377 C   0  0  0  0  0  0  0  0  0  0  0  0
   54.2486   45.3312   59.2325 C   0  0  0  0  0  0  0  0  0  0  0  0
   54.2486   50.3216   52.1710 C   0  0  0  0  0  0  0  0  0  0  0  0
   54.8989   51.5603   51.5693 C   0  0  0  0  0  0  0  0  0  0  0  0
   46.0164   50.8614   55.6997 C   0  0  0  0  0  0  0  0  0  0  0  0
   44.4964   50.9182   55.4255 C   0  0  0  0  0  0  0  0  0  0  0  0
   43.6945   50.0405   56.3840 C   0  0  0  0  0  0  0  0  0  0  0  0
   44.2276   50.4942   53.9793 C   0  0  0  0  0  0  0  0  0  0  0  0
   50.1927   50.0199   51.6542 O   0  0  0  0  0  0  0  0  0  0  0  0
   50.3257   48.6256   51.3751 C   0  0  0  0  0  0  0  0  0  0  0  0
   48.9802   48.1087   50.8688 C   0  0  0  0  0  0  0  0  0  0  0  0
   48.1905   49.1581   50.2202 N   0  0  0  0  0  0  0  0  0  0  0  0
   46.8928   49.0913   50.2043 C   0  0  0  0  0  0  0  0  0  0  0  0
   46.1315   47.9033   50.7709 C   0  0  0  0  0  0  0  0  0  0  0  0
   46.1548   50.1599   49.6809 N   0  0  0  0  0  0  0  0  0  0  0  0
   45.7504   51.2390   50.5781 C   0  0  0  0  0  0  0  0  0  0  0  0
   45.2552   49.9707   48.5443 C   0  0  0  0  0  0  0  0  0  0  0  0
   49.9567   57.7985   54.0170 C   0  0  0  0  0  0  0  0  0  0  0  0
   50.3318   56.8386   52.8719 C   0  0  0  0  0  0  0  0  0  0  0  0
   49.2225   55.7921   52.7098 C   0  0  0  0  0  0  0  0  0  0  0  0
   51.6658   56.1364   53.0679 C   0  0  0  0  0  0  0  0  0  0  0  0
   59.7574   56.1789   60.5154 C   0  0  0  0  0  0  0  0  0  0  0  0
   60.5439   57.4479   60.8957 C   0  0  0  0  0  0  0  0  0  0  0  0
   61.3792   58.0361   59.7612 C   0  0  0  0  0  0  0  0  0  0  0  0
   59.5777   58.5094   61.4288 C   0  0  0  0  0  0  0  0  0  0  0  0
   60.0550   51.8933   56.3351 C   0  0  0  0  0  0  0  0  0  0  0  0
   61.5554   51.9329   56.6868 C   0  0  0  0  0  0  0  0  0  0  0  0
   62.2784   50.6566   56.2438 C   0  0  0  0  0  0  0  0  0  0  0  0
   62.2246   53.1494   56.0199 C   0  0  0  0  0  0  0  0  0  0  0  0
   56.7297   47.2268   54.7333 H   0  0  0  0  0  0  0  0  0  0  0  0
   54.2734   51.4207   53.9150 H   0  0  0  0  0  0  0  0  0  0  0  0
   52.6592   52.6595   53.0050 H   0  0  0  0  0  0  0  0  0  0  0  0
   50.9512   52.9906   53.1669 H   0  0  0  0  0  0  0  0  0  0  0  0
   51.5699   52.2947   51.6884 H   0  0  0  0  0  0  0  0  0  0  0  0
   50.0498   49.5285   53.7082 H   0  0  0  0  0  0  0  0  0  0  0  0
   49.9931   50.3188   55.4784 H   0  0  0  0  0  0  0  0  0  0  0  0
   48.4683   49.7621   56.1248 H   0  0  0  0  0  0  0  0  0  0  0  0
   49.0634   51.3523   56.5369 H   0  0  0  0  0  0  0  0  0  0  0  0
   46.5729   51.5377   53.7167 H   0  0  0  0  0  0  0  0  0  0  0  0
   46.8773   55.5460   56.5062 H   0  0  0  0  0  0  0  0  0  0  0  0
   47.2909   57.2806   57.1511 H   0  0  0  0  0  0  0  0  0  0  0  0
   47.6221   58.2166   55.7134 H   0  0  0  0  0  0  0  0  0  0  0  0
   48.4400   58.5955   57.2102 H   0  0  0  0  0  0  0  0  0  0  0  0
   50.9063   56.5608   55.3883 H   0  0  0  0  0  0  0  0  0  0  0  0
   53.0981   59.2690   57.8597 H   0  0  0  0  0  0  0  0  0  0  0  0
   51.9975   57.7377   60.1585 H   0  0  0  0  0  0  0  0  0  0  0  0
   51.7892   59.4458   59.8552 H   0  0  0  0  0  0  0  0  0  0  0  0
   53.3801   58.8057   60.1905 H   0  0  0  0  0  0  0  0  0  0  0  0
   55.8529   55.8965   57.5014 H   0  0  0  0  0  0  0  0  0  0  0  0
   54.7316   54.5797   59.9786 H   0  0  0  0  0  0  0  0  0  0  0  0
   55.6281   53.7643   58.7199 H   0  0  0  0  0  0  0  0  0  0  0  0
   54.0578   54.4470   58.3719 H   0  0  0  0  0  0  0  0  0  0  0  0
   56.9961   58.0580   57.8836 H   0  0  0  0  0  0  0  0  0  0  0  0
   58.5855   57.8190   57.1982 H   0  0  0  0  0  0  0  0  0  0  0  0
   58.4181   58.4860   58.8044 H   0  0  0  0  0  0  0  0  0  0  0  0
   60.0745   56.5231   58.4251 H   0  0  0  0  0  0  0  0  0  0  0  0
   58.3521   55.6286   56.6780 H   0  0  0  0  0  0  0  0  0  0  0  0
   57.3521   54.2429   56.3137 H   0  0  0  0  0  0  0  0  0  0  0  0
   58.9219   54.4086   55.5645 H   0  0  0  0  0  0  0  0  0  0  0  0
   58.1222   52.1111   56.9262 H   0  0  0  0  0  0  0  0  0  0  0  0
   61.0978   50.5675   59.4342 H   0  0  0  0  0  0  0  0  0  0  0  0
   60.7684   48.8964   59.0444 H   0  0  0  0  0  0  0  0  0  0  0  0
   60.0447   49.6225   60.4594 H   0  0  0  0  0  0  0  0  0  0  0  0
   58.6028   48.3161   58.6970 H   0  0  0  0  0  0  0  0  0  0  0  0
   59.5468   48.2251   56.5475 H   0  0  0  0  0  0  0  0  0  0  0  0
   58.9402   48.6799   54.9732 H   0  0  0  0  0  0  0  0  0  0  0  0
   58.9236   47.0033   55.4650 H   0  0  0  0  0  0  0  0  0  0  0  0
   57.5603   49.6884   60.5057 H   0  0  0  0  0  0  0  0  0  0  0  0
   56.1512   47.2471   59.5576 H   0  0  0  0  0  0  0  0  0  0  0  0
   56.0766   47.9341   61.1625 H   0  0  0  0  0  0  0  0  0  0  0  0
   57.5862   47.2994   60.5532 H   0  0  0  0  0  0  0  0  0  0  0  0
   55.2355   49.4596   58.5923 H   0  0  0  0  0  0  0  0  0  0  0  0
   56.0073   50.9529   59.0693 H   0  0  0  0  0  0  0  0  0  0  0  0
   55.1301   50.0075   60.2481 H   0  0  0  0  0  0  0  0  0  0  0  0
   47.6075   53.5213   58.3720 H   0  0  0  0  0  0  0  0  0  0  0  0
   45.6970   55.8166   58.6549 H   0  0  0  0  0  0  0  0  0  0  0  0
   45.8233   54.4510   59.7375 H   0  0  0  0  0  0  0  0  0  0  0  0
   45.2937   54.2133   58.0895 H   0  0  0  0  0  0  0  0  0  0  0  0
   48.1498   56.3589   59.1795 H   0  0  0  0  0  0  0  0  0  0  0  0
   49.3520   55.1107   58.9565 H   0  0  0  0  0  0  0  0  0  0  0  0
   48.1747   54.9705   60.2400 H   0  0  0  0  0  0  0  0  0  0  0  0
   54.6590   46.7437   55.3147 H   0  0  0  0  0  0  0  0  0  0  0  0
   56.0511   46.4964   57.9034 H   0  0  0  0  0  0  0  0  0  0  0  0
   55.9439   44.4665   55.7222 H   0  0  0  0  0  0  0  0  0  0  0  0
   56.6869   44.2648   57.2907 H   0  0  0  0  0  0  0  0  0  0  0  0
   57.3257   45.4396   56.1660 H   0  0  0  0  0  0  0  0  0  0  0  0
   53.3777   46.0194   57.4484 H   0  0  0  0  0  0  0  0  0  0  0  0
   54.1506   44.4174   57.3644 H   0  0  0  0  0  0  0  0  0  0  0  0
   55.7436   43.7192   61.7607 H   0  0  0  0  0  0  0  0  0  0  0  0
   54.0599   44.1860   61.7810 H   0  0  0  0  0  0  0  0  0  0  0  0
   55.3064   45.4097   61.8242 H   0  0  0  0  0  0  0  0  0  0  0  0
   55.6692   43.8774   59.4235 H   0  0  0  0  0  0  0  0  0  0  0  0
   53.6165   45.9538   59.7596 H   0  0  0  0  0  0  0  0  0  0  0  0
   53.3340   50.1359   51.6477 H   0  0  0  0  0  0  0  0  0  0  0  0
   54.9559   49.5252   52.0695 H   0  0  0  0  0  0  0  0  0  0  0  0
   54.2269   52.3893   51.6471 H   0  0  0  0  0  0  0  0  0  0  0  0
   55.1249   51.3798   50.5391 H   0  0  0  0  0  0  0  0  0  0  0  0
   55.8018   51.7821   52.0989 H   0  0  0  0  0  0  0  0  0  0  0  0
   46.1855   51.2390   56.6865 H   0  0  0  0  0  0  0  0  0  0  0  0
   46.2951   49.8366   55.5696 H   0  0  0  0  0  0  0  0  0  0  0  0
   44.1755   51.9266   55.5840 H   0  0  0  0  0  0  0  0  0  0  0  0
   43.9847   49.0182   56.2590 H   0  0  0  0  0  0  0  0  0  0  0  0
   42.6506   50.1433   56.1730 H   0  0  0  0  0  0  0  0  0  0  0  0
   43.8864   50.3450   57.3916 H   0  0  0  0  0  0  0  0  0  0  0  0
   44.5536   49.4850   53.8370 H   0  0  0  0  0  0  0  0  0  0  0  0
   44.7622   51.1389   53.3134 H   0  0  0  0  0  0  0  0  0  0  0  0
   43.1792   50.5623   53.7767 H   0  0  0  0  0  0  0  0  0  0  0  0
   50.6022   48.1027   52.2667 H   0  0  0  0  0  0  0  0  0  0  0  0
   51.0836   48.4676   50.6365 H   0  0  0  0  0  0  0  0  0  0  0  0
   48.4252   47.7234   51.6985 H   0  0  0  0  0  0  0  0  0  0  0  0
   49.1741   47.3480   50.1417 H   0  0  0  0  0  0  0  0  0  0  0  0
   46.8261   47.1731   51.1304 H   0  0  0  0  0  0  0  0  0  0  0  0
   45.5239   47.4703   50.0039 H   0  0  0  0  0  0  0  0  0  0  0  0
   45.5087   48.2304   51.5771 H   0  0  0  0  0  0  0  0  0  0  0  0
   46.4529   51.3171   51.3814 H   0  0  0  0  0  0  0  0  0  0  0  0
   44.7785   51.0289   50.9734 H   0  0  0  0  0  0  0  0  0  0  0  0
   45.7235   52.1616   50.0369 H   0  0  0  0  0  0  0  0  0  0  0  0
   45.6142   49.1676   47.9351 H   0  0  0  0  0  0  0  0  0  0  0  0
   45.2190   50.8694   47.9647 H   0  0  0  0  0  0  0  0  0  0  0  0
   44.2740   49.7366   48.9011 H   0  0  0  0  0  0  0  0  0  0  0  0
   50.4586   58.7230   53.8212 H   0  0  0  0  0  0  0  0  0  0  0  0
   48.8870   57.8027   53.9922 H   0  0  0  0  0  0  0  0  0  0  0  0
   50.4344   57.4375   51.9911 H   0  0  0  0  0  0  0  0  0  0  0  0
   49.1461   55.2117   53.6055 H   0  0  0  0  0  0  0  0  0  0  0  0
   49.4562   55.1492   51.8870 H   0  0  0  0  0  0  0  0  0  0  0  0
   48.2913   56.2853   52.5238 H   0  0  0  0  0  0  0  0  0  0  0  0
   51.6193   55.5196   53.9410 H   0  0  0  0  0  0  0  0  0  0  0  0
   52.4389   56.8664   53.1877 H   0  0  0  0  0  0  0  0  0  0  0  0
   51.8781   55.5290   52.2130 H   0  0  0  0  0  0  0  0  0  0  0  0
   60.3345   55.3407   60.8460 H   0  0  0  0  0  0  0  0  0  0  0  0
   58.8050   56.3154   60.9835 H   0  0  0  0  0  0  0  0  0  0  0  0
   61.2419   57.1486   61.6494 H   0  0  0  0  0  0  0  0  0  0  0  0
   60.7326   58.3561   58.9710 H   0  0  0  0  0  0  0  0  0  0  0  0
   62.0530   57.2917   59.3913 H   0  0  0  0  0  0  0  0  0  0  0  0
   61.9375   58.8728   60.1261 H   0  0  0  0  0  0  0  0  0  0  0  0
   58.8930   58.7890   60.6555 H   0  0  0  0  0  0  0  0  0  0  0  0
   60.1310   59.3695   61.7434 H   0  0  0  0  0  0  0  0  0  0  0  0
   59.0339   58.1115   62.2600 H   0  0  0  0  0  0  0  0  0  0  0  0
   59.9173   52.4965   55.4621 H   0  0  0  0  0  0  0  0  0  0  0  0
   59.8357   50.8522   56.2215 H   0  0  0  0  0  0  0  0  0  0  0  0
   61.6304   52.0100   57.7514 H   0  0  0  0  0  0  0  0  0  0  0  0
   62.2144   50.5614   55.1800 H   0  0  0  0  0  0  0  0  0  0  0  0
   61.8193   49.8078   56.7061 H   0  0  0  0  0  0  0  0  0  0  0  0
   63.3064   50.7093   56.5360 H   0  0  0  0  0  0  0  0  0  0  0  0
   62.1440   53.0624   54.9565 H   0  0  0  0  0  0  0  0  0  0  0  0
   63.2573   53.1851   56.2976 H   0  0  0  0  0  0  0  0  0  0  0  0
   61.7374   54.0458   56.3424 H   0  0  0  0  0  0  0  0  0  0  0  0
  1  2  1  0
  1100  1  6
  2  3  2  0
  2  4  1  0
  4  5  1  0
  4 54  1  0
  5 73  1  0
  5  6  1  0
  5101  1  1
  6  7  2  0
  6  8  1  0
  8  9  1  0
  8 10  1  0
  9102  1  0
  9103  1  0
  9104  1  0
 10 79  1  0
 10 11  1  0
 10105  1  1
 11 12  2  0
 11 13  1  0
 13 14  1  0
 13 15  1  0
 14106  1  0
 14107  1  0
 14108  1  0
 15 75  1  0
 15 16  1  0
 15109  1  6
 16 17  2  0
 16 18  1  0
 18 19  1  0
 18 55  1  0
 19 61  1  0
 19 20  1  0
 19110  1  6
 20 21  2  0
 20 22  1  0
 22 23  1  0
 22 24  1  0
 23111  1  0
 23112  1  0
 23113  1  0
 24 88  1  0
 24 25  1  0
 24114  1  6
 25 26  2  0
 25 27  1  0
 27 28  1  0
 27 56  1  0
 28 29  1  0
 28 30  1  0
 28115  1  6
 29116  1  0
 29117  1  0
 29118  1  0
 30 31  2  0
 30 32  1  0
 32 33  1  0
 32 57  1  0
 33 34  1  0
 33 35  1  0
 33119  1  6
 34120  1  0
 34121  1  0
 34122  1  0
 35 36  2  0
 35 37  1  0
 37 38  1  0
 37 39  1  0
 38123  1  0
 38124  1  0
 38125  1  0
 39 92  1  0
 39 40  1  0
 39126  1  6
 40 41  2  0
 40 42  1  0
 42 43  1  0
 42 44  1  0
 43127  1  0
 43128  1  0
 43129  1  0
 44 96  1  0
 44 45  1  0
 44130  1  6
 45 46  2  0
 45 47  1  0
 47 48  1  0
 47 49  1  0
 48131  1  0
 48132  1  0
 48133  1  0
 49 58  1  0
 49 50  1  0
 49134  1  6
 50 51  2  0
 50 52  1  0
 52 53  1  0
 52  1  1  0
 53135  1  0
 53136  1  0
 53137  1  0
 58 59  1  0
 58 60  1  0
 58138  1  0
 59139  1  0
 59140  1  0
 59141  1  0
 60142  1  0
 60143  1  0
 60144  1  0
 61 62  1  0
 61 63  1  0
 61145  1  0
 62146  1  0
 62147  1  0
 62148  1  0
 63149  1  0
 63150  1  0
 63151  1  0
 64 65  1  0
 64  1  1  0
 64152  1  6
 65 66  1  0
 67 68  1  0
 67 64  1  0
 67153  1  1
 68154  1  0
 68155  1  0
 68156  1  0
 69 67  1  0
 69157  1  0
 69158  1  0
 70 71  1  0
 70159  1  0
 70160  1  0
 70161  1  0
 71 72  2  0
 71162  1  0
 72 69  1  0
 72163  1  0
 73 74  1  0
 73164  1  0
 73165  1  0
 74166  1  0
 74167  1  0
 74168  1  0
 75 76  1  0
 75169  1  0
 75170  1  0
 76 77  1  0
 76 78  1  0
 76171  1  0
 77172  1  0
 77173  1  0
 77174  1  0
 78175  1  0
 78176  1  0
 78177  1  0
 79 80  1  0
 80 81  1  0
 80178  1  0
 80179  1  0
 81 82  1  0
 81180  1  0
 81181  1  0
 82 83  2  0
 83 84  1  0
 83 85  1  0
 84182  1  0
 84183  1  0
 84184  1  0
 85 86  1  0
 85 87  1  0
 86185  1  0
 86186  1  0
 86187  1  0
 87188  1  0
 87189  1  0
 87190  1  0
 88 89  1  0
 88191  1  0
 88192  1  0
 89 90  1  0
 89 91  1  0
 89193  1  0
 90194  1  0
 90195  1  0
 90196  1  0
 91197  1  0
 91198  1  0
 91199  1  0
 92 93  1  0
 92200  1  0
 92201  1  0
 93 94  1  0
 93 95  1  0
 93202  1  0
 94203  1  0
 94204  1  0
 94205  1  0
 95206  1  0
 95207  1  0
 95208  1  0
 96 97  1  0
 96209  1  0
 96210  1  0
 97 98  1  0
 97 99  1  0
 97211  1  0
 98212  1  0
 98213  1  0
 98214  1  0
 99215  1  0
 99216  1  0
 99217  1  0
M  END
>  <minimizedAffinity>  (2) 
-6.03614

>  <mol_id>  (2) 
58673

>  <source_index>  (2) 
1

>  <layer>  (2) 
L1

>  <uniprot>  (2) 
P62937

>  <paff>  (2) 
7.9585999999999997

>  <smiles>  (2) 
C/C=C/C[C@@H](C)[C@@H](O)[C@H]1C(=O)N[C@@H](CC)C(=O)N(C)[C@H](OCC/N=C(C)N(C)C)C(=O)N(C)[C@@H](CC(C)C)C(=O)N[C@@H](C(C)C)C(=O)N(C)[C@@H](CC(C)C)C(=O)N[C@@H](C)C(=O)N[C@H](C)C(=O)N(C)[C@@H](CC(C)C)C(=O)N(C)[C@@H](CC(C)C)C(=O)N(C)[C@@H](C(C)C)C(=O)N1C

$$$$
L1:P62937:69521
     RDKit          3D

199199  0  0  0  0  0  0  0  0999 V2000
   46.4358   51.5442   52.2147 C   0  0  1  0  0  0  0  0  0  0  0  0
   47.7254   50.9148   52.8106 C   0  0  0  0  0  0  0  0  0  0  0  0
   47.6800   50.0013   53.6302 O   0  0  0  0  0  0  0  0  0  0  0  0
   48.9336   51.3512   52.3195 N   0  0  0  0  0  0  0  0  0  0  0  0
   50.1833   50.5898   52.5614 C   0  0  2  0  0  0  0  0  0  0  0  0
   51.3835   51.5966   52.6119 C   0  0  0  0  0  0  0  0  0  0  0  0
   51.1644   52.8020   52.4281 O   0  0  0  0  0  0  0  0  0  0  0  0
   52.6650   51.1362   52.9520 N   0  0  0  0  0  0  0  0  0  0  0  0
   53.1355   49.8312   52.5129 C   0  0  0  0  0  0  0  0  0  0  0  0
   53.7046   52.1537   53.3056 C   0  0  2  0  0  0  0  0  0  0  0  0
   54.4323   52.5903   52.0297 C   0  0  0  0  0  0  0  0  0  0  0  0
   54.7420   51.6245   54.3518 C   0  0  0  0  0  0  0  0  0  0  0  0
   54.7625   50.4229   54.6727 O   0  0  0  0  0  0  0  0  0  0  0  0
   55.7478   52.4920   54.8420 N   0  0  0  0  0  0  0  0  0  0  0  0
   55.3455   53.6880   55.6296 C   0  0  2  0  0  0  0  0  0  0  0  0
   54.2935   53.2557   56.6842 C   0  0  0  0  0  0  0  0  0  0  0  0
   53.0928   53.4581   56.5525 O   0  0  0  0  0  0  0  0  0  0  0  0
   54.8472   52.5844   57.7620 N   0  0  0  0  0  0  0  0  0  0  0  0
   54.0152   51.8220   58.7041 C   0  0  2  0  0  0  0  0  0  0  0  0
   53.5587   52.5156   60.0343 C   0  0  0  0  0  0  0  0  0  0  0  0
   52.7046   51.9519   60.7297 O   0  0  0  0  0  0  0  0  0  0  0  0
   54.2382   53.6224   60.5441 N   0  0  0  0  0  0  0  0  0  0  0  0
   54.8669   54.6397   59.7129 C   0  0  0  0  0  0  0  0  0  0  0  0
   54.1629   53.8461   62.0181 C   0  0  2  0  0  0  0  0  0  0  0  0
   52.9454   54.6920   62.4518 C   0  0  0  0  0  0  0  0  0  0  0  0
   52.5326   54.6726   63.6136 O   0  0  0  0  0  0  0  0  0  0  0  0
   52.4210   55.5635   61.5122 N   0  0  0  0  0  0  0  0  0  0  0  0
   51.2832   56.4026   61.8751 C   0  0  1  0  0  0  0  0  0  0  0  0
   51.7673   57.7252   62.4642 C   0  0  0  0  0  0  0  0  0  0  0  0
   50.3551   56.6726   60.6736 C   0  0  0  0  0  0  0  0  0  0  0  0
   50.6752   56.4697   59.5135 O   0  0  0  0  0  0  0  0  0  0  0  0
   49.1399   57.2236   61.0510 N   0  0  0  0  0  0  0  0  0  0  0  0
   48.0622   57.5191   60.1008 C   0  0  2  0  0  0  0  0  0  0  0  0
   47.3598   58.7933   60.5846 C   0  0  0  0  0  0  0  0  0  0  0  0
   47.1225   56.2826   60.0883 C   0  0  0  0  0  0  0  0  0  0  0  0
   47.2423   55.4448   60.9916 O   0  0  0  0  0  0  0  0  0  0  0  0
   46.1278   56.1501   59.1068 N   0  0  0  0  0  0  0  0  0  0  0  0
   45.9053   57.1354   58.0562 C   0  0  0  0  0  0  0  0  0  0  0  0
   45.4823   54.8124   58.9686 C   0  0  2  0  0  0  0  0  0  0  0  0
   44.7113   54.4669   57.6410 C   0  0  0  0  0  0  0  0  0  0  0  0
   44.0678   55.3318   57.0338 O   0  0  0  0  0  0  0  0  0  0  0  0
   44.6606   53.1307   57.2152 N   0  0  0  0  0  0  0  0  0  0  0  0
   45.6046   52.1116   57.6679 C   0  0  0  0  0  0  0  0  0  0  0  0
   43.9618   52.8517   55.9183 C   0  0  2  0  0  0  0  0  0  0  0  0
   44.8252   53.5131   54.7739 C   0  0  0  0  0  0  0  0  0  0  0  0
   46.0464   53.6036   54.9584 O   0  0  0  0  0  0  0  0  0  0  0  0
   44.3126   53.8706   53.5421 N   0  0  0  0  0  0  0  0  0  0  0  0
   42.9928   53.4625   53.0750 C   0  0  0  0  0  0  0  0  0  0  0  0
   45.1465   54.5706   52.5244 C   0  0  2  0  0  0  0  0  0  0  0  0
   45.5532   53.6783   51.3099 C   0  0  0  0  0  0  0  0  0  0  0  0
   44.8385   53.6698   50.2980 O   0  0  0  0  0  0  0  0  0  0  0  0
   46.6373   52.7957   51.3757 N   0  0  0  0  0  0  0  0  0  0  0  0
   47.2722   52.6220   50.0663 C   0  0  0  0  0  0  0  0  0  0  0  0
   49.0378   52.3472   52.1302 H   0  0  0  0  0  0  0  0  0  0  0  0
   55.7918   52.2554   57.6448 H   0  0  0  0  0  0  0  0  0  0  0  0
   52.4682   55.2677   60.5433 H   0  0  0  0  0  0  0  0  0  0  0  0
   48.7930   56.8915   61.9584 H   0  0  0  0  0  0  0  0  0  0  0  0
   45.5646   50.4780   51.4350 C   0  0  2  0  0  0  0  0  0  0  0  0
   44.7387   49.7414   52.3783 O   0  0  0  0  0  0  0  0  0  0  0  0
   44.1508   50.3821   52.8288 H   0  0  0  0  0  0  0  0  0  0  0  0
   46.2256   49.3424   50.5824 C   0  0  2  0  0  0  0  0  0  0  0  0
   45.8815   49.4055   49.0925 C   0  0  0  0  0  0  0  0  0  0  0  0
   46.0460   47.9503   51.2234 C   0  0  0  0  0  0  0  0  0  0  0  0
   49.0165   45.6603   52.3000 C   0  0  0  0  0  0  0  0  0  0  0  0
   47.7475   46.4569   52.3022 C   0  0  0  0  0  0  0  0  0  0  0  0
   47.3096   47.1355   51.2334 C   0  0  0  0  0  0  0  0  0  0  0  0
   54.9875   54.9514   54.8137 C   0  0  0  0  0  0  0  0  0  0  0  0
   56.0971   55.2581   53.7978 C   0  0  0  0  0  0  0  0  0  0  0  0
   54.8390   56.1762   55.7309 C   0  0  0  0  0  0  0  0  0  0  0  0
   54.7479   50.4751   58.9990 C   0  0  0  0  0  0  0  0  0  0  0  0
   56.2636   50.5834   58.8611 C   0  0  0  0  0  0  0  0  0  0  0  0
   54.2122   49.3011   58.1701 C   0  0  0  0  0  0  0  0  0  0  0  0
   46.1706   55.6730   52.9703 C   0  0  0  0  0  0  0  0  0  0  0  0
   47.1297   56.2314   51.9120 C   0  0  0  0  0  0  0  0  0  0  0  0
   45.4049   56.8734   53.5657 C   0  0  0  0  0  0  0  0  0  0  0  0
   50.2365   49.4516   51.5252 C   0  0  0  0  0  0  0  0  0  0  0  0
   50.0363   49.9099   50.0820 C   0  0  0  0  0  0  0  0  0  0  0  0
   56.9531   51.7957   55.3052 C   0  0  0  0  0  0  0  0  0  0  0  0
   57.9616   52.7549   55.9315 C   0  0  0  0  0  0  0  0  0  0  0  0
   55.5134   54.3848   62.5638 C   0  0  0  0  0  0  0  0  0  0  0  0
   56.6921   53.4104   62.7925 C   0  0  0  0  0  0  0  0  0  0  0  0
   56.2491   51.9644   63.0386 C   0  0  0  0  0  0  0  0  0  0  0  0
   57.7748   53.4793   61.7203 C   0  0  0  0  0  0  0  0  0  0  0  0
   44.5619   54.4156   60.1673 C   0  0  0  0  0  0  0  0  0  0  0  0
   44.7184   52.9825   60.7364 C   0  0  0  0  0  0  0  0  0  0  0  0
   43.4209   52.1660   60.6466 C   0  0  0  0  0  0  0  0  0  0  0  0
   45.1403   53.0796   62.2129 C   0  0  0  0  0  0  0  0  0  0  0  0
   42.4459   53.1372   56.0323 C   0  0  0  0  0  0  0  0  0  0  0  0
   41.7890   52.6862   57.3621 C   0  0  0  0  0  0  0  0  0  0  0  0
   41.3562   51.2157   57.3247 C   0  0  0  0  0  0  0  0  0  0  0  0
   40.5692   53.5627   57.6666 C   0  0  0  0  0  0  0  0  0  0  0  0
   45.8982   51.8778   53.0776 H   0  0  0  0  0  0  0  0  0  0  0  0
   50.2332   50.0978   53.5103 H   0  0  0  0  0  0  0  0  0  0  0  0
   52.2962   49.2047   52.2936 H   0  0  0  0  0  0  0  0  0  0  0  0
   53.7215   49.3839   53.2884 H   0  0  0  0  0  0  0  0  0  0  0  0
   53.7347   49.9454   51.6338 H   0  0  0  0  0  0  0  0  0  0  0  0
   53.2031   52.9831   53.7589 H   0  0  0  0  0  0  0  0  0  0  0  0
   54.9257   51.7467   51.5941 H   0  0  0  0  0  0  0  0  0  0  0  0
   55.1555   53.3412   52.2707 H   0  0  0  0  0  0  0  0  0  0  0  0
   53.7239   52.9879   51.3333 H   0  0  0  0  0  0  0  0  0  0  0  0
   56.2132   54.0484   56.1417 H   0  0  0  0  0  0  0  0  0  0  0  0
   53.0771   51.6981   58.2045 H   0  0  0  0  0  0  0  0  0  0  0  0
   54.8402   54.3302   58.6890 H   0  0  0  0  0  0  0  0  0  0  0  0
   55.8836   54.7722   60.0191 H   0  0  0  0  0  0  0  0  0  0  0  0
   54.3388   55.5641   59.8200 H   0  0  0  0  0  0  0  0  0  0  0  0
   53.9941   52.8925   62.4731 H   0  0  0  0  0  0  0  0  0  0  0  0
   50.7171   55.8688   62.6096 H   0  0  0  0  0  0  0  0  0  0  0  0
   52.3331   58.2575   61.7284 H   0  0  0  0  0  0  0  0  0  0  0  0
   52.3840   57.5314   63.3169 H   0  0  0  0  0  0  0  0  0  0  0  0
   50.9241   58.3137   62.7602 H   0  0  0  0  0  0  0  0  0  0  0  0
   48.4055   57.6932   59.1024 H   0  0  0  0  0  0  0  0  0  0  0  0
   47.0051   58.6477   61.5835 H   0  0  0  0  0  0  0  0  0  0  0  0
   46.5334   59.0113   59.9409 H   0  0  0  0  0  0  0  0  0  0  0  0
   48.0508   59.6101   60.5670 H   0  0  0  0  0  0  0  0  0  0  0  0
   46.4292   58.0370   58.2960 H   0  0  0  0  0  0  0  0  0  0  0  0
   44.8584   57.3416   57.9766 H   0  0  0  0  0  0  0  0  0  0  0  0
   46.2649   56.7509   57.1247 H   0  0  0  0  0  0  0  0  0  0  0  0
   46.3772   54.2263   58.9462 H   0  0  0  0  0  0  0  0  0  0  0  0
   46.0396   52.4159   58.5969 H   0  0  0  0  0  0  0  0  0  0  0  0
   46.3756   51.9893   56.9361 H   0  0  0  0  0  0  0  0  0  0  0  0
   45.0899   51.1832   57.8023 H   0  0  0  0  0  0  0  0  0  0  0  0
   43.9188   51.8197   55.6389 H   0  0  0  0  0  0  0  0  0  0  0  0
   42.4698   52.9711   53.8687 H   0  0  0  0  0  0  0  0  0  0  0  0
   43.0988   52.7913   52.2484 H   0  0  0  0  0  0  0  0  0  0  0  0
   42.4415   54.3256   52.7652 H   0  0  0  0  0  0  0  0  0  0  0  0
   44.4258   55.2614   52.1392 H   0  0  0  0  0  0  0  0  0  0  0  0
   47.3547   53.5721   49.5811 H   0  0  0  0  0  0  0  0  0  0  0  0
   46.6778   51.9653   49.4660 H   0  0  0  0  0  0  0  0  0  0  0  0
   48.2477   52.2018   50.1958 H   0  0  0  0  0  0  0  0  0  0  0  0
   45.0898   51.1325   50.7342 H   0  0  0  0  0  0  0  0  0  0  0  0
   47.2789   49.5300   50.6014 H   0  0  0  0  0  0  0  0  0  0  0  0
   44.8345   49.2285   48.9604 H   0  0  0  0  0  0  0  0  0  0  0  0
   46.4386   48.6591   48.5659 H   0  0  0  0  0  0  0  0  0  0  0  0
   46.1308   50.3730   48.7095 H   0  0  0  0  0  0  0  0  0  0  0  0
   45.7174   48.0807   52.2333 H   0  0  0  0  0  0  0  0  0  0  0  0
   45.3293   47.4185   50.6332 H   0  0  0  0  0  0  0  0  0  0  0  0
   49.1565   45.2098   53.2604 H   0  0  0  0  0  0  0  0  0  0  0  0
   49.8424   46.3057   52.0850 H   0  0  0  0  0  0  0  0  0  0  0  0
   48.9568   44.8965   51.5531 H   0  0  0  0  0  0  0  0  0  0  0  0
   47.1849   46.4841   53.1669 H   0  0  0  0  0  0  0  0  0  0  0  0
   47.8711   47.0968   50.3684 H   0  0  0  0  0  0  0  0  0  0  0  0
   54.0613   54.7579   54.3140 H   0  0  0  0  0  0  0  0  0  0  0  0
   57.0132   55.4484   54.3168 H   0  0  0  0  0  0  0  0  0  0  0  0
   55.8268   56.1196   53.2237 H   0  0  0  0  0  0  0  0  0  0  0  0
   56.2245   54.4200   53.1449 H   0  0  0  0  0  0  0  0  0  0  0  0
   55.7679   56.3646   56.2275 H   0  0  0  0  0  0  0  0  0  0  0  0
   54.0776   55.9868   56.4584 H   0  0  0  0  0  0  0  0  0  0  0  0
   54.5682   57.0297   55.1452 H   0  0  0  0  0  0  0  0  0  0  0  0
   54.5291   50.2646   60.0250 H   0  0  0  0  0  0  0  0  0  0  0  0
   56.5149   50.7942   57.8426 H   0  0  0  0  0  0  0  0  0  0  0  0
   56.7155   49.6595   59.1561 H   0  0  0  0  0  0  0  0  0  0  0  0
   56.6233   51.3725   59.4879 H   0  0  0  0  0  0  0  0  0  0  0  0
   54.4129   49.4753   57.1336 H   0  0  0  0  0  0  0  0  0  0  0  0
   53.1563   49.2119   58.3188 H   0  0  0  0  0  0  0  0  0  0  0  0
   54.6936   48.3970   58.4795 H   0  0  0  0  0  0  0  0  0  0  0  0
   46.7915   55.1515   53.6685 H   0  0  0  0  0  0  0  0  0  0  0  0
   46.5724   56.7702   51.1744 H   0  0  0  0  0  0  0  0  0  0  0  0
   47.6535   55.4242   51.4440 H   0  0  0  0  0  0  0  0  0  0  0  0
   47.8324   56.8893   52.3792 H   0  0  0  0  0  0  0  0  0  0  0  0
   44.8129   57.3331   52.8021 H   0  0  0  0  0  0  0  0  0  0  0  0
   46.1034   57.5856   53.9527 H   0  0  0  0  0  0  0  0  0  0  0  0
   44.7675   56.5338   54.3552 H   0  0  0  0  0  0  0  0  0  0  0  0
   49.4687   48.7453   51.7627 H   0  0  0  0  0  0  0  0  0  0  0  0
   51.2185   49.0303   51.5809 H   0  0  0  0  0  0  0  0  0  0  0  0
   49.0626   50.3408   49.9764 H   0  0  0  0  0  0  0  0  0  0  0  0
   50.1279   49.0702   49.4252 H   0  0  0  0  0  0  0  0  0  0  0  0
   50.7782   50.6398   49.8334 H   0  0  0  0  0  0  0  0  0  0  0  0
   57.4123   51.3077   54.4710 H   0  0  0  0  0  0  0  0  0  0  0  0
   56.6600   51.0891   56.0533 H   0  0  0  0  0  0  0  0  0  0  0  0
   58.2712   53.4735   55.2016 H   0  0  0  0  0  0  0  0  0  0  0  0
   58.8130   52.2042   56.2732 H   0  0  0  0  0  0  0  0  0  0  0  0
   57.5077   53.2595   56.7587 H   0  0  0  0  0  0  0  0  0  0  0  0
   55.3050   54.8460   63.5065 H   0  0  0  0  0  0  0  0  0  0  0  0
   55.8643   55.0190   61.7767 H   0  0  0  0  0  0  0  0  0  0  0  0
   57.1402   53.7626   63.6981 H   0  0  0  0  0  0  0  0  0  0  0  0
   55.7940   51.5750   62.1520 H   0  0  0  0  0  0  0  0  0  0  0  0
   55.5432   51.9395   63.8423 H   0  0  0  0  0  0  0  0  0  0  0  0
   57.1008   51.3689   63.2934 H   0  0  0  0  0  0  0  0  0  0  0  0
   57.3764   53.1358   60.7885 H   0  0  0  0  0  0  0  0  0  0  0  0
   58.5993   52.8599   62.0057 H   0  0  0  0  0  0  0  0  0  0  0  0
   58.1082   54.4905   61.6146 H   0  0  0  0  0  0  0  0  0  0  0  0
   43.5477   54.5247   59.8442 H   0  0  0  0  0  0  0  0  0  0  0  0
   44.8556   55.0634   60.9667 H   0  0  0  0  0  0  0  0  0  0  0  0
   45.4580   52.4803   60.1485 H   0  0  0  0  0  0  0  0  0  0  0  0
   42.6584   52.6432   61.2260 H   0  0  0  0  0  0  0  0  0  0  0  0
   43.5928   51.1804   61.0259 H   0  0  0  0  0  0  0  0  0  0  0  0
   43.1075   52.1055   59.6253 H   0  0  0  0  0  0  0  0  0  0  0  0
   44.3791   53.5860   62.7688 H   0  0  0  0  0  0  0  0  0  0  0  0
   46.0581   53.6247   62.2865 H   0  0  0  0  0  0  0  0  0  0  0  0
   45.2771   52.0956   62.6102 H   0  0  0  0  0  0  0  0  0  0  0  0
   41.9520   52.6299   55.2301 H   0  0  0  0  0  0  0  0  0  0  0  0
   42.3398   54.2012   55.9938 H   0  0  0  0  0  0  0  0  0  0  0  0
   42.5252   52.7944   58.1310 H   0  0  0  0  0  0  0  0  0  0  0  0
   40.6182   51.0804   56.5618 H   0  0  0  0  0  0  0  0  0  0  0  0
   40.9434   50.9412   58.2729 H   0  0  0  0  0  0  0  0  0  0  0  0
   42.2049   50.5994   57.1132 H   0  0  0  0  0  0  0  0  0  0  0  0
   39.8423   53.4444   56.8904 H   0  0  0  0  0  0  0  0  0  0  0  0
   40.8709   54.5879   57.7195 H   0  0  0  0  0  0  0  0  0  0  0  0
   40.1427   53.2677   58.6025 H   0  0  0  0  0  0  0  0  0  0  0  0
  1  2  1  0
  1 92  1  1
  2  3  2  0
  2  4  1  0
  4  5  1  0
  4 54  1  0
  5 76  1  0
  5  6  1  0
  5 93  1  1
  6  7  2  0
  6  8  1  0
  8  9  1  0
  8 10  1  0
  9 94  1  0
  9 95  1  0
  9 96  1  0
 10 11  1  0
 10 12  1  0
 10 97  1  1
 11 98  1  0
 11 99  1  0
 11100  1  0
 12 13  2  0
 12 14  1  0
 14 78  1  0
 14 15  1  0
 15 67  1  0
 15 16  1  0
 15101  1  1
 16 17  2  0
 16 18  1  0
 18 19  1  0
 18 55  1  0
 19 70  1  0
 19 20  1  0
 19102  1  6
 20 21  2  0
 20 22  1  0
 22 23  1  0
 22 24  1  0
 23103  1  0
 23104  1  0
 23105  1  0
 24 80  1  0
 24 25  1  0
 24106  1  1
 25 26  2  0
 25 27  1  0
 27 28  1  0
 27 56  1  0
 28 29  1  0
 28 30  1  0
 28107  1  1
 29108  1  0
 29109  1  0
 29110  1  0
 30 31  2  0
 30 32  1  0
 32 33  1  0
 32 57  1  0
 33 34  1  0
 33 35  1  0
 33111  1  6
 34112  1  0
 34113  1  0
 34114  1  0
 35 36  2  0
 35 37  1  0
 37 38  1  0
 37 39  1  0
 38115  1  0
 38116  1  0
 38117  1  0
 39 84  1  0
 39 40  1  0
 39118  1  1
 40 41  2  0
 40 42  1  0
 42 43  1  0
 42 44  1  0
 43119  1  0
 43120  1  0
 43121  1  0
 44 88  1  0
 44 45  1  0
 44122  1  6
 45 46  2  0
 45 47  1  0
 47 48  1  0
 47 49  1  0
 48123  1  0
 48124  1  0
 48125  1  0
 49 73  1  0
 49 50  1  0
 49126  1  6
 50 51  2  0
 50 52  1  0
 52 53  1  0
 52  1  1  0
 53127  1  0
 53128  1  0
 53129  1  0
 58 59  1  0
 58  1  1  0
 58130  1  6
 59 60  1  0
 61 62  1  0
 61 58  1  0
 61131  1  6
 62132  1  0
 62133  1  0
 62134  1  0
 63 61  1  0
 63135  1  0
 63136  1  0
 64 65  1  0
 64137  1  0
 64138  1  0
 64139  1  0
 65 66  2  0
 65140  1  0
 66 63  1  0
 66141  1  0
 67 68  1  0
 67 69  1  0
 67142  1  0
 68143  1  0
 68144  1  0
 68145  1  0
 69146  1  0
 69147  1  0
 69148  1  0
 70 71  1  0
 70 72  1  0
 70149  1  0
 71150  1  0
 71151  1  0
 71152  1  0
 72153  1  0
 72154  1  0
 72155  1  0
 73 74  1  0
 73 75  1  0
 73156  1  0
 74157  1  0
 74158  1  0
 74159  1  0
 75160  1  0
 75161  1  0
 75162  1  0
 76 77  1  0
 76163  1  0
 76164  1  0
 77165  1  0
 77166  1  0
 77167  1  0
 78 79  1  0
 78168  1  0
 78169  1  0
 79170  1  0
 79171  1  0
 79172  1  0
 80 81  1  0
 80173  1  0
 80174  1  0
 81 82  1  0
 81 83  1  0
 81175  1  0
 82176  1  0
 82177  1  0
 82178  1  0
 83179  1  0
 83180  1  0
 83181  1  0
 84 85  1  0
 84182  1  0
 84183  1  0
 85 86  1  0
 85 87  1  0
 85184  1  0
 86185  1  0
 86186  1  0
 86187  1  0
 87188  1  0
 87189  1  0
 87190  1  0
 88 89  1  0
 88191  1  0
 88192  1  0
 89 90  1  0
 89 91  1  0
 89193  1  0
 90194  1  0
 90195  1  0
 90196  1  0
 91197  1  0
 91198  1  0
 91199  1  0
M  END
>  <minimizedAffinity>  (3) 
-5.91191

>  <mol_id>  (3) 
69521

>  <source_index>  (3) 
3

>  <layer>  (3) 
L1

>  <uniprot>  (3) 
P62937

>  <paff>  (3) 
8.0968999999999998

>  <smiles>  (3) 
C/C=C/C[C@@H](C)[C@@H](O)[C@H]1C(=O)N[C@@H](CC)C(=O)N(C)[C@H](C)C(=O)N(CC)[C@@H](C(C)C)C(=O)N[C@@H](C(C)C)C(=O)N(C)[C@@H](CC(C)C)C(=O)N[C@@H](C)C(=O)N[C@H](C)C(=O)N(C)[C@@H](CC(C)C)C(=O)N(C)[C@@H](CC(C)C)C(=O)N(C)[C@@H](C(C)C)C(=O)N1C

$$$$
