L1:P62937:19634
     RDKit          3D

214214  0  0  0  0  0  0  0  0999 V2000
   51.6868   50.7913   53.6796 C   0  0  2  0  0  0  0  0  0  0  0  0
   52.7666   50.6446   54.6517 N   0  0  0  0  0  0  0  0  0  0  0  0
   54.0408   51.1159   54.4583 C   0  0  0  0  0  0  0  0  0  0  0  0
   54.3820   51.7028   53.4303 O   0  0  0  0  0  0  0  0  0  0  0  0
   55.0013   51.0000   55.6638 C   0  0  1  0  0  0  0  0  0  0  0  0
   54.8538   52.2241   56.5044 N   0  0  0  0  0  0  0  0  0  0  0  0
   55.8164   53.2789   56.1929 C   0  0  0  0  0  0  0  0  0  0  0  0
   53.7477   52.3641   57.3354 C   0  0  0  0  0  0  0  0  0  0  0  0
   52.9409   51.4307   57.4530 O   0  0  0  0  0  0  0  0  0  0  0  0
   53.5558   53.6713   58.1660 C   0  0  1  0  0  0  0  0  0  0  0  0
   52.1118   54.0720   58.1788 N   0  0  0  0  0  0  0  0  0  0  0  0
   51.2000   53.4072   59.0984 C   0  0  0  0  0  0  0  0  0  0  0  0
   51.6813   54.9482   57.1725 C   0  0  0  0  0  0  0  0  0  0  0  0
   52.4897   55.3427   56.3199 O   0  0  0  0  0  0  0  0  0  0  0  0
   50.2130   55.5207   57.2008 C   0  0  1  0  0  0  0  0  0  0  0  0
   50.1593   56.6793   56.2547 N   0  0  0  0  0  0  0  0  0  0  0  0
   50.1918   57.9984   56.8594 C   0  0  0  0  0  0  0  0  0  0  0  0
   50.2708   56.4107   54.8916 C   0  0  0  0  0  0  0  0  0  0  0  0
   50.0431   55.2619   54.4790 O   0  0  0  0  0  0  0  0  0  0  0  0
   50.8198   57.4420   53.8353 C   0  0  1  0  0  0  0  0  0  0  0  0
   50.2424   57.0737   52.5004 N   0  0  0  0  0  0  0  0  0  0  0  0
   51.1183   56.3104   51.6195 C   0  0  0  0  0  0  0  0  0  0  0  0
   48.9040   57.1825   52.1314 C   0  0  0  0  0  0  0  0  0  0  0  0
   48.4895   56.7449   51.0454 O   0  0  0  0  0  0  0  0  0  0  0  0
   47.8983   57.8594   53.0839 C   0  0  1  0  0  0  0  0  0  0  0  0
   47.5764   59.2575   52.5656 C   0  0  0  0  0  0  0  0  0  0  0  0
   46.6944   57.0439   53.0868 N   0  0  0  0  0  0  0  0  0  0  0  0
   45.7474   57.0890   54.0826 C   0  0  0  0  0  0  0  0  0  0  0  0
   45.9180   57.7106   55.1317 O   0  0  0  0  0  0  0  0  0  0  0  0
   44.4849   56.2392   53.8110 C   0  0  2  0  0  0  0  0  0  0  0  0
   44.4353   55.0800   54.7966 C   0  0  0  0  0  0  0  0  0  0  0  0
   44.4301   55.7336   52.4379 N   0  0  0  0  0  0  0  0  0  0  0  0
   44.0507   56.5073   51.3688 C   0  0  0  0  0  0  0  0  0  0  0  0
   43.6983   57.6771   51.5039 O   0  0  0  0  0  0  0  0  0  0  0  0
   43.9682   55.7895   49.9990 C   0  0  1  0  0  0  0  0  0  0  0  0
   45.1500   54.9325   49.6800 N   0  0  0  0  0  0  0  0  0  0  0  0
   46.1670   55.5587   48.8437 C   0  0  0  0  0  0  0  0  0  0  0  0
   45.2912   53.6719   50.2305 C   0  0  0  0  0  0  0  0  0  0  0  0
   44.6532   53.3615   51.2483 O   0  0  0  0  0  0  0  0  0  0  0  0
   46.2047   52.6026   49.5652 C   0  0  1  0  0  0  0  0  0  0  0  0
   46.5531   51.6877   50.6604 N   0  0  0  0  0  0  0  0  0  0  0  0
   47.4201   50.6228   50.5743 C   0  0  0  0  0  0  0  0  0  0  0  0
   48.0763   50.3936   49.5626 O   0  0  0  0  0  0  0  0  0  0  0  0
   47.6247   49.8625   51.9192 C   0  0  1  0  0  0  0  0  0  0  0  0
   46.5390   50.0040   52.9249 N   0  0  0  0  0  0  0  0  0  0  0  0
   45.1612   49.7613   52.5046 C   0  0  0  0  0  0  0  0  0  0  0  0
   46.6744   50.5810   54.1866 C   0  0  0  0  0  0  0  0  0  0  0  0
   45.6735   51.0401   54.7582 O   0  0  0  0  0  0  0  0  0  0  0  0
   47.9925   50.4903   55.0120 C   0  0  1  0  0  0  0  0  0  0  0  0
   47.9787   49.1242   55.7062 C   0  0  0  0  0  0  0  0  0  0  0  0
   49.2491   50.9543   54.3802 N   0  0  0  0  0  0  0  0  0  0  0  0
   49.2711   52.3653   54.0054 C   0  0  0  0  0  0  0  0  0  0  0  0
   50.4081   50.1810   54.3206 C   0  0  0  0  0  0  0  0  0  0  0  0
   50.4650   49.0357   54.7764 O   0  0  0  0  0  0  0  0  0  0  0  0
   52.4872   50.4045   55.6023 H   0  0  0  0  0  0  0  0  0  0  0  0
   46.4884   56.4934   52.2597 H   0  0  0  0  0  0  0  0  0  0  0  0
   44.5734   54.7361   52.2742 H   0  0  0  0  0  0  0  0  0  0  0  0
   46.1289   51.8879   51.5630 H   0  0  0  0  0  0  0  0  0  0  0  0
   54.2026   53.6433   59.5889 C   0  0  0  0  0  0  0  0  0  0  0  0
   54.7570   55.0174   59.9925 C   0  0  0  0  0  0  0  0  0  0  0  0
   55.3081   52.6009   59.7849 C   0  0  0  0  0  0  0  0  0  0  0  0
   45.4972   51.8676   48.3967 C   0  0  0  0  0  0  0  0  0  0  0  0
   43.9831   51.7291   48.5887 C   0  0  0  0  0  0  0  0  0  0  0  0
   45.7876   52.5020   47.0360 C   0  0  0  0  0  0  0  0  0  0  0  0
   54.9465   49.6284   56.4008 C   0  0  2  0  0  0  0  0  0  0  0  0
   55.2000   49.7984   57.8023 O   0  0  0  0  0  0  0  0  0  0  0  0
   54.3666   50.1416   58.1706 H   0  0  0  0  0  0  0  0  0  0  0  0
   55.9725   48.6033   55.8345 C   0  0  2  0  0  0  0  0  0  0  0  0
   56.3226   48.9654   54.3843 C   0  0  0  0  0  0  0  0  0  0  0  0
   55.4557   47.1478   55.9097 C   0  0  0  0  0  0  0  0  0  0  0  0
   56.4500   46.1839   56.5747 C   0  0  0  0  0  0  0  0  0  0  0  0
   55.7759   44.9168   57.1154 C   0  0  0  0  0  0  0  0  0  0  0  0
   55.7936   44.7795   58.6443 C   0  0  0  0  0  0  0  0  0  0  0  0
   55.9299   46.1058   59.3937 C   0  0  0  0  0  0  0  0  0  0  0  0
   54.6167   46.5662   60.0222 C   0  0  0  0  0  0  0  0  0  0  0  0
   53.8283   47.3514   59.0954 N   0  0  0  0  0  0  0  0  0  0  0  0
   52.7325   46.8367   58.4392 C   0  0  0  0  0  0  0  0  0  0  0  0
   52.0343   47.8405   57.5620 C   0  0  0  0  0  0  0  0  0  0  0  0
   52.3341   45.6833   58.5636 O   0  0  0  0  0  0  0  0  0  0  0  0
   54.1257   48.2968   58.8913 H   0  0  0  0  0  0  0  0  0  0  0  0
   51.2749   50.8133   51.1213 C   0  0  0  0  0  0  0  0  0  0  0  0
   51.9549   50.1425   52.3094 C   0  0  0  0  0  0  0  0  0  0  0  0
   49.0608   54.5042   56.9967 C   0  0  0  0  0  0  0  0  0  0  0  0
   47.7022   54.9230   57.6160 C   0  0  0  0  0  0  0  0  0  0  0  0
   46.6357   53.8354   57.4725 C   0  0  0  0  0  0  0  0  0  0  0  0
   47.8913   55.2610   59.0990 C   0  0  0  0  0  0  0  0  0  0  0  0
   50.8650   58.9622   54.0682 C   0  0  0  0  0  0  0  0  0  0  0  0
   52.2797   59.5912   54.1061 C   0  0  0  0  0  0  0  0  0  0  0  0
   52.1819   61.0882   53.7883 C   0  0  0  0  0  0  0  0  0  0  0  0
   52.9560   59.4236   55.4695 C   0  0  0  0  0  0  0  0  0  0  0  0
   42.6336   55.0299   49.8379 C   0  0  0  0  0  0  0  0  0  0  0  0
   41.7879   55.4319   48.6083 C   0  0  0  0  0  0  0  0  0  0  0  0
   42.4946   54.9618   47.3335 C   0  0  0  0  0  0  0  0  0  0  0  0
   41.5379   56.9400   48.5293 C   0  0  0  0  0  0  0  0  0  0  0  0
   48.2558   48.4607   51.7877 C   0  0  0  0  0  0  0  0  0  0  0  0
   47.5242   47.1745   52.2212 C   0  0  0  0  0  0  0  0  0  0  0  0
   46.8669   46.4181   51.0666 C   0  0  0  0  0  0  0  0  0  0  0  0
   48.3440   46.2472   53.1137 C   0  0  0  0  0  0  0  0  0  0  0  0
   51.5826   51.8344   53.4653 H   0  0  0  0  0  0  0  0  0  0  0  0
   56.0143   50.9800   55.3199 H   0  0  0  0  0  0  0  0  0  0  0  0
   56.5638   52.8953   55.5303 H   0  0  0  0  0  0  0  0  0  0  0  0
   56.2800   53.6168   57.0961 H   0  0  0  0  0  0  0  0  0  0  0  0
   55.3101   54.0968   55.7243 H   0  0  0  0  0  0  0  0  0  0  0  0
   54.1107   54.4359   57.6635 H   0  0  0  0  0  0  0  0  0  0  0  0
   51.7588   52.7921   59.7724 H   0  0  0  0  0  0  0  0  0  0  0  0
   50.5156   52.7990   58.5447 H   0  0  0  0  0  0  0  0  0  0  0  0
   50.6554   54.1418   59.6540 H   0  0  0  0  0  0  0  0  0  0  0  0
   50.0174   55.8353   58.2046 H   0  0  0  0  0  0  0  0  0  0  0  0
   50.0845   57.9072   57.9201 H   0  0  0  0  0  0  0  0  0  0  0  0
   49.3897   58.5895   56.4693 H   0  0  0  0  0  0  0  0  0  0  0  0
   51.1251   58.4709   56.6346 H   0  0  0  0  0  0  0  0  0  0  0  0
   51.8768   57.3102   53.9370 H   0  0  0  0  0  0  0  0  0  0  0  0
   52.1109   56.3072   52.0189 H   0  0  0  0  0  0  0  0  0  0  0  0
   51.1261   56.7591   50.6482 H   0  0  0  0  0  0  0  0  0  0  0  0
   50.7606   55.3047   51.5450 H   0  0  0  0  0  0  0  0  0  0  0  0
   48.2983   57.9456   54.0726 H   0  0  0  0  0  0  0  0  0  0  0  0
   47.1749   59.1874   51.5763 H   0  0  0  0  0  0  0  0  0  0  0  0
   48.4701   59.8455   52.5470 H   0  0  0  0  0  0  0  0  0  0  0  0
   46.8584   59.7202   53.2100 H   0  0  0  0  0  0  0  0  0  0  0  0
   43.6337   56.8742   53.9417 H   0  0  0  0  0  0  0  0  0  0  0  0
   45.2915   54.4542   54.6546 H   0  0  0  0  0  0  0  0  0  0  0  0
   43.5452   54.5095   54.6317 H   0  0  0  0  0  0  0  0  0  0  0  0
   44.4343   55.4616   55.7962 H   0  0  0  0  0  0  0  0  0  0  0  0
   43.9943   56.5684   49.2658 H   0  0  0  0  0  0  0  0  0  0  0  0
   45.8308   56.5276   48.5385 H   0  0  0  0  0  0  0  0  0  0  0  0
   46.3405   54.9527   47.9791 H   0  0  0  0  0  0  0  0  0  0  0  0
   47.0760   55.6554   49.3998 H   0  0  0  0  0  0  0  0  0  0  0  0
   47.0700   53.0420   49.1145 H   0  0  0  0  0  0  0  0  0  0  0  0
   48.4055   50.4241   52.3881 H   0  0  0  0  0  0  0  0  0  0  0  0
   45.1582   49.3195   51.5301 H   0  0  0  0  0  0  0  0  0  0  0  0
   44.6280   50.6886   52.4775 H   0  0  0  0  0  0  0  0  0  0  0  0
   44.6882   49.0981   53.1984 H   0  0  0  0  0  0  0  0  0  0  0  0
   48.0023   51.2590   55.7563 H   0  0  0  0  0  0  0  0  0  0  0  0
   47.9688   48.3493   54.9684 H   0  0  0  0  0  0  0  0  0  0  0  0
   47.1052   49.0444   56.3190 H   0  0  0  0  0  0  0  0  0  0  0  0
   48.8524   49.0251   56.3159 H   0  0  0  0  0  0  0  0  0  0  0  0
   48.2911   52.7797   54.1186 H   0  0  0  0  0  0  0  0  0  0  0  0
   49.5823   52.4587   52.9859 H   0  0  0  0  0  0  0  0  0  0  0  0
   49.9560   52.8915   54.6370 H   0  0  0  0  0  0  0  0  0  0  0  0
   53.3876   53.3603   60.2219 H   0  0  0  0  0  0  0  0  0  0  0  0
   55.5692   55.2780   59.3465 H   0  0  0  0  0  0  0  0  0  0  0  0
   55.1039   54.9790   61.0040 H   0  0  0  0  0  0  0  0  0  0  0  0
   53.9842   55.7526   59.9082 H   0  0  0  0  0  0  0  0  0  0  0  0
   56.1455   52.8485   59.1665 H   0  0  0  0  0  0  0  0  0  0  0  0
   54.9385   51.6339   59.5144 H   0  0  0  0  0  0  0  0  0  0  0  0
   55.6124   52.5923   60.8107 H   0  0  0  0  0  0  0  0  0  0  0  0
   45.9185   50.8841   48.4106 H   0  0  0  0  0  0  0  0  0  0  0  0
   43.5322   52.6994   48.5793 H   0  0  0  0  0  0  0  0  0  0  0  0
   43.7845   51.2526   49.5259 H   0  0  0  0  0  0  0  0  0  0  0  0
   43.5755   51.1386   47.7949 H   0  0  0  0  0  0  0  0  0  0  0  0
   45.3721   53.4876   47.0060 H   0  0  0  0  0  0  0  0  0  0  0  0
   45.3482   51.9060   46.2636 H   0  0  0  0  0  0  0  0  0  0  0  0
   46.8457   52.5563   46.8863 H   0  0  0  0  0  0  0  0  0  0  0  0
   53.9610   49.2431   56.2420 H   0  0  0  0  0  0  0  0  0  0  0  0
   56.8497   48.6572   56.4448 H   0  0  0  0  0  0  0  0  0  0  0  0
   55.4413   48.9095   53.7800 H   0  0  0  0  0  0  0  0  0  0  0  0
   57.0544   48.2792   54.0121 H   0  0  0  0  0  0  0  0  0  0  0  0
   56.7161   49.9598   54.3500 H   0  0  0  0  0  0  0  0  0  0  0  0
   55.2629   46.8040   54.9150 H   0  0  0  0  0  0  0  0  0  0  0  0
   54.5712   47.1561   56.5118 H   0  0  0  0  0  0  0  0  0  0  0  0
   56.9269   46.6911   57.3873 H   0  0  0  0  0  0  0  0  0  0  0  0
   57.1546   45.8813   55.8284 H   0  0  0  0  0  0  0  0  0  0  0  0
   56.2789   44.0690   56.6994 H   0  0  0  0  0  0  0  0  0  0  0  0
   54.7463   44.9790   56.8308 H   0  0  0  0  0  0  0  0  0  0  0  0
   56.6193   44.1552   58.9152 H   0  0  0  0  0  0  0  0  0  0  0  0
   54.8484   44.3643   58.9257 H   0  0  0  0  0  0  0  0  0  0  0  0
   56.2611   46.8552   58.7055 H   0  0  0  0  0  0  0  0  0  0  0  0
   56.6329   45.9577   60.1867 H   0  0  0  0  0  0  0  0  0  0  0  0
   54.8343   47.1617   60.8841 H   0  0  0  0  0  0  0  0  0  0  0  0
   54.0516   45.6980   60.2902 H   0  0  0  0  0  0  0  0  0  0  0  0
   52.5538   48.7749   57.6060 H   0  0  0  0  0  0  0  0  0  0  0  0
   51.0292   47.9747   57.9037 H   0  0  0  0  0  0  0  0  0  0  0  0
   52.0235   47.4856   56.5526 H   0  0  0  0  0  0  0  0  0  0  0  0
   51.5251   50.2875   50.2236 H   0  0  0  0  0  0  0  0  0  0  0  0
   51.6081   51.8272   51.0454 H   0  0  0  0  0  0  0  0  0  0  0  0
   50.2142   50.7960   51.2610 H   0  0  0  0  0  0  0  0  0  0  0  0
   53.0109   50.1595   52.1376 H   0  0  0  0  0  0  0  0  0  0  0  0
   51.5428   49.1566   52.3655 H   0  0  0  0  0  0  0  0  0  0  0  0
   49.3551   53.5753   57.4387 H   0  0  0  0  0  0  0  0  0  0  0  0
   48.9016   54.4397   55.9406 H   0  0  0  0  0  0  0  0  0  0  0  0
   47.3601   55.7832   57.0794 H   0  0  0  0  0  0  0  0  0  0  0  0
   46.9478   52.9581   57.9996 H   0  0  0  0  0  0  0  0  0  0  0  0
   46.5025   53.6009   56.4370 H   0  0  0  0  0  0  0  0  0  0  0  0
   45.7110   54.1866   57.8805 H   0  0  0  0  0  0  0  0  0  0  0  0
   48.2332   54.3924   59.6220 H   0  0  0  0  0  0  0  0  0  0  0  0
   46.9587   55.5827   59.5132 H   0  0  0  0  0  0  0  0  0  0  0  0
   48.6141   56.0439   59.1970 H   0  0  0  0  0  0  0  0  0  0  0  0
   50.3888   59.1662   55.0044 H   0  0  0  0  0  0  0  0  0  0  0  0
   50.3713   59.4022   53.2270 H   0  0  0  0  0  0  0  0  0  0  0  0
   52.8730   59.0809   53.3763 H   0  0  0  0  0  0  0  0  0  0  0  0
   51.5845   61.5725   54.5323 H   0  0  0  0  0  0  0  0  0  0  0  0
   51.7306   61.2200   52.8271 H   0  0  0  0  0  0  0  0  0  0  0  0
   53.1624   61.5166   53.7837 H   0  0  0  0  0  0  0  0  0  0  0  0
   52.3798   59.9266   56.2177 H   0  0  0  0  0  0  0  0  0  0  0  0
   53.9393   59.8441   55.4340 H   0  0  0  0  0  0  0  0  0  0  0  0
   53.0216   58.3829   55.7096 H   0  0  0  0  0  0  0  0  0  0  0  0
   42.0458   55.2051   50.7147 H   0  0  0  0  0  0  0  0  0  0  0  0
   42.8941   54.0021   49.6940 H   0  0  0  0  0  0  0  0  0  0  0  0
   40.8330   54.9595   48.7082 H   0  0  0  0  0  0  0  0  0  0  0  0
   43.4456   55.4457   47.2538 H   0  0  0  0  0  0  0  0  0  0  0  0
   41.8959   55.2093   46.4819 H   0  0  0  0  0  0  0  0  0  0  0  0
   42.6360   53.9020   47.3742 H   0  0  0  0  0  0  0  0  0  0  0  0
   42.4722   57.4516   48.4284 H   0  0  0  0  0  0  0  0  0  0  0  0
   41.0466   57.2673   49.4217 H   0  0  0  0  0  0  0  0  0  0  0  0
   40.9201   57.1553   47.6826 H   0  0  0  0  0  0  0  0  0  0  0  0
   49.1636   48.4902   52.3533 H   0  0  0  0  0  0  0  0  0  0  0  0
   48.2974   48.3397   50.7254 H   0  0  0  0  0  0  0  0  0  0  0  0
   46.7300   47.5408   52.8376 H   0  0  0  0  0  0  0  0  0  0  0  0
   47.6239   46.0299   50.4177 H   0  0  0  0  0  0  0  0  0  0  0  0
   46.2342   47.0843   50.5181 H   0  0  0  0  0  0  0  0  0  0  0  0
   46.2825   45.6108   51.4559 H   0  0  0  0  0  0  0  0  0  0  0  0
   49.1614   45.8437   52.5534 H   0  0  0  0  0  0  0  0  0  0  0  0
   47.7235   45.4492   53.4643 H   0  0  0  0  0  0  0  0  0  0  0  0
   48.7220   46.7986   53.9492 H   0  0  0  0  0  0  0  0  0  0  0  0
  1  2  1  0
  1 99  1  6
  2  3  1  0
  2 55  1  0
  3  4  2  0
  3  5  1  0
  5 65  1  0
  5  6  1  0
  5100  1  6
  6  7  1  0
  6  8  1  0
  7101  1  0
  7102  1  0
  7103  1  0
  8  9  2  0
  8 10  1  0
 10 59  1  0
 10 11  1  0
 10104  1  6
 11 12  1  0
 11 13  1  0
 12105  1  0
 12106  1  0
 12107  1  0
 13 14  2  0
 13 15  1  0
 15 83  1  0
 15 16  1  0
 15108  1  1
 16 17  1  0
 16 18  1  0
 17109  1  0
 17110  1  0
 17111  1  0
 18 19  2  0
 18 20  1  0
 20 87  1  0
 20 21  1  0
 20112  1  6
 21 22  1  0
 21 23  1  0
 22113  1  0
 22114  1  0
 22115  1  0
 23 24  2  0
 23 25  1  0
 25 26  1  0
 25 27  1  0
 25116  1  1
 26117  1  0
 26118  1  0
 26119  1  0
 27 28  1  0
 27 56  1  0
 28 29  2  0
 28 30  1  0
 30 31  1  0
 30 32  1  0
 30120  1  1
 31121  1  0
 31122  1  0
 31123  1  0
 32 33  1  0
 32 57  1  0
 33 34  2  0
 33 35  1  0
 35 91  1  0
 35 36  1  0
 35124  1  6
 36 37  1  0
 36 38  1  0
 37125  1  0
 37126  1  0
 37127  1  0
 38 39  2  0
 38 40  1  0
 40 62  1  0
 40 41  1  0
 40128  1  6
 41 42  1  0
 41 58  1  0
 42 43  2  0
 42 44  1  0
 44 95  1  0
 44 45  1  0
 44129  1  1
 45 46  1  0
 45 47  1  0
 46130  1  0
 46131  1  0
 46132  1  0
 47 48  2  0
 47 49  1  0
 49 50  1  0
 49 51  1  0
 49133  1  1
 50134  1  0
 50135  1  0
 50136  1  0
 51 52  1  0
 51 53  1  0
 52137  1  0
 52138  1  0
 52139  1  0
 53 54  2  0
 53  1  1  0
 59 60  1  0
 59 61  1  0
 59140  1  0
 60141  1  0
 60142  1  0
 60143  1  0
 61144  1  0
 61145  1  0
 61146  1  0
 62 63  1  0
 62 64  1  0
 62147  1  0
 63148  1  0
 63149  1  0
 63150  1  0
 64151  1  0
 64152  1  0
 64153  1  0
 65 66  1  0
 65 68  1  0
 65154  1  1
 66 67  1  0
 68 69  1  0
 68 70  1  0
 68155  1  1
 69156  1  0
 69157  1  0
 69158  1  0
 70 71  1  0
 70159  1  0
 70160  1  0
 71 72  1  0
 71161  1  0
 71162  1  0
 72 73  1  0
 72163  1  0
 72164  1  0
 73 74  1  0
 73165  1  0
 73166  1  0
 74 75  1  0
 74167  1  0
 74168  1  0
 75 76  1  0
 75169  1  0
 75170  1  0
 76 77  1  0
 76 80  1  0
 77 78  1  0
 77 79  2  0
 78171  1  0
 78172  1  0
 78173  1  0
 81 82  1  0
 81174  1  0
 81175  1  0
 81176  1  0
 82  1  1  0
 82177  1  0
 82178  1  0
 83 84  1  0
 83179  1  0
 83180  1  0
 84 85  1  0
 84 86  1  0
 84181  1  0
 85182  1  0
 85183  1  0
 85184  1  0
 86185  1  0
 86186  1  0
 86187  1  0
 87 88  1  0
 87188  1  0
 87189  1  0
 88 89  1  0
 88 90  1  0
 88190  1  0
 89191  1  0
 89192  1  0
 89193  1  0
 90194  1  0
 90195  1  0
 90196  1  0
 91 92  1  0
 91197  1  0
 91198  1  0
 92 93  1  0
 92 94  1  0
 92199  1  0
 93200  1  0
 93201  1  0
 93202  1  0
 94203  1  0
 94204  1  0
 94205  1  0
 95 96  1  0
 95206  1  0
 95207  1  0
 96 97  1  0
 96 98  1  0
 96208  1  0
 97209  1  0
 97210  1  0
 97211  1  0
 98212  1  0
 98213  1  0
 98214  1  0
M  END
>  <minimizedAffinity>  (1) 
-7.78330

>  <mol_id>  (1) 
19634

>  <source_index>  (1) 
0

>  <layer>  (1) 
L1

>  <uniprot>  (1) 
P62937

>  <paff>  (1) 
8.6021000000000001

>  <smiles>  (1) 
C.CC[C@@H]1NC(=O)[C@H]([C@H](O)[C@H](C)CCCCCCNC(C)=O)N(C)C(=O)[C@H](C(C)C)N(C)C(=O)[C@H](CC(C)C)N(C)C(=O)[C@H](CC(C)C)N(C)C(=O)[C@@H](C)NC(=O)[C@H](C)NC(=O)[C@H](CC(C)C)N(C)C(=O)[C@H](C(C)C)NC(=O)[C@H](CC(C)C)N(C)C(=O)[C@@H](C)N(C)C1=O

$$$$
L1:P62937:58673
     RDKit          3D

217217  0  0  0  0  0  0  0  0999 V2000
   55.0025   51.3878   53.6182 C   0  0  1  0  0  0  0  0  0  0  0  0
   54.5219   51.5072   52.1409 C   0  0  0  0  0  0  0  0  0  0  0  0
   54.8530   50.6643   51.3018 O   0  0  0  0  0  0  0  0  0  0  0  0
   53.7639   52.6132   51.8357 N   0  0  0  0  0  0  0  0  0  0  0  0
   53.2292   53.0198   50.5336 C   0  0  2  0  0  0  0  0  0  0  0  0
   51.6805   53.1196   50.5971 C   0  0  0  0  0  0  0  0  0  0  0  0
   51.1920   54.1967   50.9744 O   0  0  0  0  0  0  0  0  0  0  0  0
   50.8748   52.0410   50.2802 N   0  0  0  0  0  0  0  0  0  0  0  0
   51.2974   50.6581   50.3602 C   0  0  0  0  0  0  0  0  0  0  0  0
   49.4254   52.3080   50.1407 C   0  0  1  0  0  0  0  0  0  0  0  0
   49.2286   53.3841   49.0188 C   0  0  0  0  0  0  0  0  0  0  0  0
   49.7026   53.2442   47.8867 O   0  0  0  0  0  0  0  0  0  0  0  0
   48.5786   54.5841   49.3485 N   0  0  0  0  0  0  0  0  0  0  0  0
   49.2217   55.7845   48.8194 C   0  0  0  0  0  0  0  0  0  0  0  0
   47.1101   54.6655   49.4656 C   0  0  2  0  0  0  0  0  0  0  0  0
   46.4875   54.2123   50.8136 C   0  0  0  0  0  0  0  0  0  0  0  0
   46.9730   53.3394   51.5124 O   0  0  0  0  0  0  0  0  0  0  0  0
   45.2824   54.8185   51.1066 N   0  0  0  0  0  0  0  0  0  0  0  0
   44.4047   54.4732   52.2353 C   0  0  2  0  0  0  0  0  0  0  0  0
   44.9731   55.1507   53.5116 C   0  0  0  0  0  0  0  0  0  0  0  0
   45.9634   54.6953   54.0871 O   0  0  0  0  0  0  0  0  0  0  0  0
   44.3970   56.3569   53.9262 N   0  0  0  0  0  0  0  0  0  0  0  0
   43.0491   56.7412   53.5630 C   0  0  0  0  0  0  0  0  0  0  0  0
   45.1250   57.1364   54.9507 C   0  0  2  0  0  0  0  0  0  0  0  0
   44.7414   56.6632   56.3695 C   0  0  0  0  0  0  0  0  0  0  0  0
   43.8149   57.1173   57.0286 O   0  0  0  0  0  0  0  0  0  0  0  0
   45.4862   55.5846   56.8047 N   0  0  0  0  0  0  0  0  0  0  0  0
   45.3642   55.0113   58.1409 C   0  0  1  0  0  0  0  0  0  0  0  0
   45.4569   53.4910   58.0845 C   0  0  0  0  0  0  0  0  0  0  0  0
   46.4156   55.5842   59.1241 C   0  0  0  0  0  0  0  0  0  0  0  0
   46.6943   55.0351   60.1874 O   0  0  0  0  0  0  0  0  0  0  0  0
   46.9047   56.8200   58.7820 N   0  0  0  0  0  0  0  0  0  0  0  0
   47.8525   57.5589   59.6027 C   0  0  2  0  0  0  0  0  0  0  0  0
   47.1130   58.3000   60.7089 C   0  0  0  0  0  0  0  0  0  0  0  0
   48.5466   58.6064   58.7022 C   0  0  0  0  0  0  0  0  0  0  0  0
   47.8456   59.2236   57.8900 O   0  0  0  0  0  0  0  0  0  0  0  0
   49.9022   58.8475   58.8094 N   0  0  0  0  0  0  0  0  0  0  0  0
   50.4788   59.8041   57.8657 C   0  0  0  0  0  0  0  0  0  0  0  0
   50.9052   58.1268   59.6499 C   0  0  2  0  0  0  0  0  0  0  0  0
   51.1762   56.6937   59.0911 C   0  0  0  0  0  0  0  0  0  0  0  0
   50.3325   56.1408   58.3804 O   0  0  0  0  0  0  0  0  0  0  0  0
   52.3785   56.0534   59.4324 N   0  0  0  0  0  0  0  0  0  0  0  0
   53.4849   56.7047   60.1205 C   0  0  0  0  0  0  0  0  0  0  0  0
   52.7230   54.7355   58.8217 C   0  0  2  0  0  0  0  0  0  0  0  0
   53.3117   54.9629   57.3927 C   0  0  0  0  0  0  0  0  0  0  0  0
   52.8680   55.8549   56.6609 O   0  0  0  0  0  0  0  0  0  0  0  0
   54.4066   54.1951   56.9985 N   0  0  0  0  0  0  0  0  0  0  0  0
   54.9683   53.0876   57.7740 C   0  0  0  0  0  0  0  0  0  0  0  0
   55.1643   54.6303   55.7862 C   0  0  2  0  0  0  0  0  0  0  0  0
   55.2680   53.6160   54.5961 C   0  0  0  0  0  0  0  0  0  0  0  0
   56.0033   53.8754   53.6323 O   0  0  0  0  0  0  0  0  0  0  0  0
   54.5025   52.4551   54.5273 N   0  0  0  0  0  0  0  0  0  0  0  0
   53.1392   52.3581   55.0373 C   0  0  0  0  0  0  0  0  0  0  0  0
   53.5438   53.2475   52.6021 H   0  0  0  0  0  0  0  0  0  0  0  0
   45.0357   55.6541   50.5865 H   0  0  0  0  0  0  0  0  0  0  0  0
   46.1549   55.1642   56.1567 H   0  0  0  0  0  0  0  0  0  0  0  0
   46.6015   57.2618   57.9207 H   0  0  0  0  0  0  0  0  0  0  0  0
   56.5783   55.1787   56.2290 C   0  0  0  0  0  0  0  0  0  0  0  0
   56.5422   56.1667   57.4049 C   0  0  0  0  0  0  0  0  0  0  0  0
   57.5271   54.0334   56.6246 C   0  0  0  0  0  0  0  0  0  0  0  0
   44.1624   52.9608   52.4515 C   0  0  0  0  0  0  0  0  0  0  0  0
   43.7605   52.2307   51.1606 C   0  0  0  0  0  0  0  0  0  0  0  0
   43.0464   52.7327   53.4871 C   0  0  0  0  0  0  0  0  0  0  0  0
   54.8103   49.9108   54.0878 C   0  0  2  0  0  0  0  0  0  0  0  0
   53.4735   49.4732   53.7949 O   0  0  0  0  0  0  0  0  0  0  0  0
   53.5515   48.7203   53.1805 H   0  0  0  0  0  0  0  0  0  0  0  0
   55.0828   49.6434   55.5910 C   0  0  2  0  0  0  0  0  0  0  0  0
   56.1266   48.5521   55.7993 C   0  0  0  0  0  0  0  0  0  0  0  0
   53.7486   49.2586   56.2935 C   0  0  0  0  0  0  0  0  0  0  0  0
   52.5431   45.9560   58.0752 C   0  0  0  0  0  0  0  0  0  0  0  0
   52.5727   47.3524   57.5449 C   0  0  0  0  0  0  0  0  0  0  0  0
   53.6143   47.8705   56.8725 C   0  0  0  0  0  0  0  0  0  0  0  0
   53.8598   52.3889   49.2888 C   0  0  0  0  0  0  0  0  0  0  0  0
   55.1608   53.0600   48.8697 C   0  0  0  0  0  0  0  0  0  0  0  0
   46.4272   53.9573   48.2687 C   0  0  0  0  0  0  0  0  0  0  0  0
   45.7788   54.8574   47.1987 C   0  0  0  0  0  0  0  0  0  0  0  0
   45.7093   54.1889   45.8186 C   0  0  0  0  0  0  0  0  0  0  0  0
   44.3626   55.2364   47.6511 C   0  0  0  0  0  0  0  0  0  0  0  0
   48.7954   51.1027   49.6961 O   0  0  0  0  0  0  0  0  0  0  0  0
   47.5025   50.8914   50.2670 C   0  0  0  0  0  0  0  0  0  0  0  0
   47.2026   49.3885   50.2535 C   0  0  0  0  0  0  0  0  0  0  0  0
   48.0498   48.7209   51.2444 N   0  0  0  0  0  0  0  0  0  0  0  0
   47.8668   47.4950   51.6057 C   0  0  0  0  0  0  0  0  0  0  0  0
   46.7524   46.6487   51.0203 C   0  0  0  0  0  0  0  0  0  0  0  0
   48.7181   46.9375   52.5548 N   0  0  0  0  0  0  0  0  0  0  0  0
   49.2878   47.7645   53.6179 C   0  0  0  0  0  0  0  0  0  0  0  0
   49.1983   45.5695   52.5006 C   0  0  0  0  0  0  0  0  0  0  0  0
   45.2649   58.6666   54.7447 C   0  0  0  0  0  0  0  0  0  0  0  0
   46.4140   59.3335   53.9595 C   0  0  0  0  0  0  0  0  0  0  0  0
   47.5115   58.2850   53.7107 C   0  0  0  0  0  0  0  0  0  0  0  0
   47.0513   60.5337   54.6629 C   0  0  0  0  0  0  0  0  0  0  0  0
   50.6479   58.1705   61.1739 C   0  0  0  0  0  0  0  0  0  0  0  0
   51.0948   59.4803   61.8624 C   0  0  0  0  0  0  0  0  0  0  0  0
   52.3073   60.0571   61.1298 C   0  0  0  0  0  0  0  0  0  0  0  0
   49.9810   60.5307   61.8980 C   0  0  0  0  0  0  0  0  0  0  0  0
   51.6597   53.6201   58.8545 C   0  0  0  0  0  0  0  0  0  0  0  0
   51.9373   52.5052   59.8866 C   0  0  0  0  0  0  0  0  0  0  0  0
   53.0233   52.9569   60.8683 C   0  0  0  0  0  0  0  0  0  0  0  0
   52.3507   51.1748   59.2557 C   0  0  0  0  0  0  0  0  0  0  0  0
   56.0509   51.5956   53.6683 H   0  0  0  0  0  0  0  0  0  0  0  0
   53.5795   54.0137   50.3480 H   0  0  0  0  0  0  0  0  0  0  0  0
   52.3621   50.6156   50.4580 H   0  0  0  0  0  0  0  0  0  0  0  0
   51.0001   50.1423   49.4711 H   0  0  0  0  0  0  0  0  0  0  0  0
   50.8423   50.1947   51.2105 H   0  0  0  0  0  0  0  0  0  0  0  0
   49.0137   52.6428   51.0698 H   0  0  0  0  0  0  0  0  0  0  0  0
   50.2795   55.6309   48.7718 H   0  0  0  0  0  0  0  0  0  0  0  0
   49.0104   56.6145   49.4607 H   0  0  0  0  0  0  0  0  0  0  0  0
   48.8462   55.9873   47.8382 H   0  0  0  0  0  0  0  0  0  0  0  0
   46.9095   55.7163   49.4442 H   0  0  0  0  0  0  0  0  0  0  0  0
   43.4291   54.8443   52.0001 H   0  0  0  0  0  0  0  0  0  0  0  0
   42.6775   56.0737   52.8138 H   0  0  0  0  0  0  0  0  0  0  0  0
   43.0540   57.7402   53.1798 H   0  0  0  0  0  0  0  0  0  0  0  0
   42.4196   56.6937   54.4269 H   0  0  0  0  0  0  0  0  0  0  0  0
   46.1564   56.8930   54.8028 H   0  0  0  0  0  0  0  0  0  0  0  0
   44.3997   55.2864   58.5137 H   0  0  0  0  0  0  0  0  0  0  0  0
   46.4188   53.2059   57.7125 H   0  0  0  0  0  0  0  0  0  0  0  0
   44.6963   53.1112   57.4348 H   0  0  0  0  0  0  0  0  0  0  0  0
   45.3207   53.0887   59.0666 H   0  0  0  0  0  0  0  0  0  0  0  0
   48.5605   56.8832   60.0352 H   0  0  0  0  0  0  0  0  0  0  0  0
   46.4055   58.9751   60.2747 H   0  0  0  0  0  0  0  0  0  0  0  0
   47.8146   58.8503   61.3003 H   0  0  0  0  0  0  0  0  0  0  0  0
   46.5994   57.5952   61.3288 H   0  0  0  0  0  0  0  0  0  0  0  0
   49.6945   60.2719   57.3081 H   0  0  0  0  0  0  0  0  0  0  0  0
   51.1363   59.2914   57.1951 H   0  0  0  0  0  0  0  0  0  0  0  0
   51.0275   60.5490   58.4033 H   0  0  0  0  0  0  0  0  0  0  0  0
   51.8145   58.6837   59.5606 H   0  0  0  0  0  0  0  0  0  0  0  0
   53.1530   57.6376   60.5261 H   0  0  0  0  0  0  0  0  0  0  0  0
   54.2817   56.8801   59.4283 H   0  0  0  0  0  0  0  0  0  0  0  0
   53.8326   56.0749   60.9125 H   0  0  0  0  0  0  0  0  0  0  0  0
   53.4600   54.3224   59.4783 H   0  0  0  0  0  0  0  0  0  0  0  0
   54.3326   52.8782   58.6088 H   0  0  0  0  0  0  0  0  0  0  0  0
   55.9423   53.3566   58.1260 H   0  0  0  0  0  0  0  0  0  0  0  0
   55.0406   52.2186   57.1539 H   0  0  0  0  0  0  0  0  0  0  0  0
   54.5690   55.4055   55.3509 H   0  0  0  0  0  0  0  0  0  0  0  0
   52.9352   53.1955   55.6714 H   0  0  0  0  0  0  0  0  0  0  0  0
   53.0313   51.4524   55.5968 H   0  0  0  0  0  0  0  0  0  0  0  0
   52.4512   52.3552   54.2178 H   0  0  0  0  0  0  0  0  0  0  0  0
   56.9302   55.7010   55.3640 H   0  0  0  0  0  0  0  0  0  0  0  0
   56.1923   55.6642   58.2824 H   0  0  0  0  0  0  0  0  0  0  0  0
   55.8827   56.9761   57.1706 H   0  0  0  0  0  0  0  0  0  0  0  0
   57.5264   56.5480   57.5807 H   0  0  0  0  0  0  0  0  0  0  0  0
   57.1437   53.5357   57.4907 H   0  0  0  0  0  0  0  0  0  0  0  0
   58.4961   54.4319   56.8419 H   0  0  0  0  0  0  0  0  0  0  0  0
   57.6012   53.3363   55.8162 H   0  0  0  0  0  0  0  0  0  0  0  0
   45.0939   52.5630   52.7963 H   0  0  0  0  0  0  0  0  0  0  0  0
   42.8293   52.6203   50.8056 H   0  0  0  0  0  0  0  0  0  0  0  0
   43.6566   51.1846   51.3600 H   0  0  0  0  0  0  0  0  0  0  0  0
   44.5157   52.3788   50.4172 H   0  0  0  0  0  0  0  0  0  0  0  0
   42.1283   53.1393   53.1174 H   0  0  0  0  0  0  0  0  0  0  0  0
   43.3071   53.2171   54.4049 H   0  0  0  0  0  0  0  0  0  0  0  0
   42.9282   51.6832   53.6588 H   0  0  0  0  0  0  0  0  0  0  0  0
   55.5501   49.3618   53.5436 H   0  0  0  0  0  0  0  0  0  0  0  0
   55.4775   50.5393   56.0228 H   0  0  0  0  0  0  0  0  0  0  0  0
   55.7711   47.6339   55.3803 H   0  0  0  0  0  0  0  0  0  0  0  0
   56.3023   48.4218   56.8467 H   0  0  0  0  0  0  0  0  0  0  0  0
   57.0390   48.8346   55.3171 H   0  0  0  0  0  0  0  0  0  0  0  0
   53.6028   49.9512   57.0960 H   0  0  0  0  0  0  0  0  0  0  0  0
   53.0215   49.2870   55.5090 H   0  0  0  0  0  0  0  0  0  0  0  0
   51.6104   45.7821   58.5700 H   0  0  0  0  0  0  0  0  0  0  0  0
   53.3459   45.8211   58.7697 H   0  0  0  0  0  0  0  0  0  0  0  0
   52.6518   45.2647   57.2658 H   0  0  0  0  0  0  0  0  0  0  0  0
   51.7479   47.9520   57.7037 H   0  0  0  0  0  0  0  0  0  0  0  0
   54.4217   47.2426   56.7349 H   0  0  0  0  0  0  0  0  0  0  0  0
   53.1631   52.4628   48.4800 H   0  0  0  0  0  0  0  0  0  0  0  0
   54.0898   51.3720   49.5295 H   0  0  0  0  0  0  0  0  0  0  0  0
   54.9702   54.0829   48.6202 H   0  0  0  0  0  0  0  0  0  0  0  0
   55.5646   52.5543   48.0176 H   0  0  0  0  0  0  0  0  0  0  0  0
   55.8618   53.0144   49.6768 H   0  0  0  0  0  0  0  0  0  0  0  0
   45.6615   53.3228   48.6635 H   0  0  0  0  0  0  0  0  0  0  0  0
   47.2185   53.4476   47.7599 H   0  0  0  0  0  0  0  0  0  0  0  0
   46.3949   55.7264   47.0974 H   0  0  0  0  0  0  0  0  0  0  0  0
   45.0994   53.3117   45.8775 H   0  0  0  0  0  0  0  0  0  0  0  0
   46.6952   53.9174   45.5038 H   0  0  0  0  0  0  0  0  0  0  0  0
   45.2848   54.8717   45.1125 H   0  0  0  0  0  0  0  0  0  0  0  0
   43.7690   54.3510   47.7443 H   0  0  0  0  0  0  0  0  0  0  0  0
   43.9195   55.8884   46.9275 H   0  0  0  0  0  0  0  0  0  0  0  0
   44.4116   55.7341   48.5970 H   0  0  0  0  0  0  0  0  0  0  0  0
   46.7650   51.4115   49.6920 H   0  0  0  0  0  0  0  0  0  0  0  0
   47.4814   51.2597   51.2714 H   0  0  0  0  0  0  0  0  0  0  0  0
   47.4074   48.9912   49.2813 H   0  0  0  0  0  0  0  0  0  0  0  0
   46.1724   49.2247   50.4917 H   0  0  0  0  0  0  0  0  0  0  0  0
   46.1984   47.2288   50.3121 H   0  0  0  0  0  0  0  0  0  0  0  0
   46.1003   46.3256   51.8047 H   0  0  0  0  0  0  0  0  0  0  0  0
   47.1724   45.7947   50.5312 H   0  0  0  0  0  0  0  0  0  0  0  0
   48.8687   48.7478   53.5682 H   0  0  0  0  0  0  0  0  0  0  0  0
   50.3491   47.8225   53.4947 H   0  0  0  0  0  0  0  0  0  0  0  0
   49.0624   47.3283   54.5686 H   0  0  0  0  0  0  0  0  0  0  0  0
   48.7211   45.0557   51.6924 H   0  0  0  0  0  0  0  0  0  0  0  0
   48.9707   45.0748   53.4217 H   0  0  0  0  0  0  0  0  0  0  0  0
   50.2573   45.5690   52.3477 H   0  0  0  0  0  0  0  0  0  0  0  0
   45.3029   59.0885   55.7273 H   0  0  0  0  0  0  0  0  0  0  0  0
   44.4375   58.8592   54.0941 H   0  0  0  0  0  0  0  0  0  0  0  0
   45.9812   59.7035   53.0536 H   0  0  0  0  0  0  0  0  0  0  0  0
   47.9062   57.9525   54.6480 H   0  0  0  0  0  0  0  0  0  0  0  0
   48.2958   58.7211   53.1280 H   0  0  0  0  0  0  0  0  0  0  0  0
   47.0960   57.4521   53.1830 H   0  0  0  0  0  0  0  0  0  0  0  0
   47.5002   60.2128   55.5797 H   0  0  0  0  0  0  0  0  0  0  0  0
   46.2992   61.2658   54.8711 H   0  0  0  0  0  0  0  0  0  0  0  0
   47.8002   60.9618   54.0298 H   0  0  0  0  0  0  0  0  0  0  0  0
   51.1776   57.3580   61.6256 H   0  0  0  0  0  0  0  0  0  0  0  0
   49.5881   58.1039   61.3055 H   0  0  0  0  0  0  0  0  0  0  0  0
   51.3459   59.2382   62.8739 H   0  0  0  0  0  0  0  0  0  0  0  0
   52.0363   60.2924   60.1218 H   0  0  0  0  0  0  0  0  0  0  0  0
   53.0985   59.3368   61.1275 H   0  0  0  0  0  0  0  0  0  0  0  0
   52.6353   60.9457   61.6276 H   0  0  0  0  0  0  0  0  0  0  0  0
   49.7071   60.7942   60.8978 H   0  0  0  0  0  0  0  0  0  0  0  0
   50.3283   61.4015   62.4138 H   0  0  0  0  0  0  0  0  0  0  0  0
   49.1294   60.1304   62.4073 H   0  0  0  0  0  0  0  0  0  0  0  0
   51.6131   53.1733   57.8834 H   0  0  0  0  0  0  0  0  0  0  0  0
   50.7398   54.0832   59.1447 H   0  0  0  0  0  0  0  0  0  0  0  0
   51.0118   52.3353   60.3960 H   0  0  0  0  0  0  0  0  0  0  0  0
   53.9380   53.1205   60.3378 H   0  0  0  0  0  0  0  0  0  0  0  0
   53.1715   52.1995   61.6095 H   0  0  0  0  0  0  0  0  0  0  0  0
   52.7189   53.8661   61.3433 H   0  0  0  0  0  0  0  0  0  0  0  0
   53.2762   51.3000   58.7335 H   0  0  0  0  0  0  0  0  0  0  0  0
   51.5944   50.8552   58.5696 H   0  0  0  0  0  0  0  0  0  0  0  0
   52.4707   50.4384   60.0226 H   0  0  0  0  0  0  0  0  0  0  0  0
  1  2  1  0
  1100  1  6
  2  3  2  0
  2  4  1  0
  4  5  1  0
  4 54  1  0
  5 73  1  0
  5  6  1  0
  5101  1  6
  6  7  2  0
  6  8  1  0
  8  9  1  0
  8 10  1  0
  9102  1  0
  9103  1  0
  9104  1  0
 10 79  1  0
 10 11  1  0
 10105  1  1
 11 12  2  0
 11 13  1  0
 13 14  1  0
 13 15  1  0
 14106  1  0
 14107  1  0
 14108  1  0
 15 75  1  0
 15 16  1  0
 15109  1  6
 16 17  2  0
 16 18  1  0
 18 19  1  0
 18 55  1  0
 19 61  1  0
 19 20  1  0
 19110  1  6
 20 21  2  0
 20 22  1  0
 22 23  1  0
 22 24  1  0
 23111  1  0
 23112  1  0
 23113  1  0
 24 88  1  0
 24 25  1  0
 24114  1  6
 25 26  2  0
 25 27  1  0
 27 28  1  0
 27 56  1  0
 28 29  1  0
 28 30  1  0
 28115  1  1
 29116  1  0
 29117  1  0
 29118  1  0
 30 31  2  0
 30 32  1  0
 32 33  1  0
 32 57  1  0
 33 34  1  0
 33 35  1  0
 33119  1  1
 34120  1  0
 34121  1  0
 34122  1  0
 35 36  2  0
 35 37  1  0
 37 38  1  0
 37 39  1  0
 38123  1  0
 38124  1  0
 38125  1  0
 39 92  1  0
 39 40  1  0
 39126  1  1
 40 41  2  0
 40 42  1  0
 42 43  1  0
 42 44  1  0
 43127  1  0
 43128  1  0
 43129  1  0
 44 96  1  0
 44 45  1  0
 44130  1  1
 45 46  2  0
 45 47  1  0
 47 48  1  0
 47 49  1  0
 48131  1  0
 48132  1  0
 48133  1  0
 49 58  1  0
 49 50  1  0
 49134  1  6
 50 51  2  0
 50 52  1  0
 52 53  1  0
 52  1  1  0
 53135  1  0
 53136  1  0
 53137  1  0
 58 59  1  0
 58 60  1  0
 58138  1  0
 59139  1  0
 59140  1  0
 59141  1  0
 60142  1  0
 60143  1  0
 60144  1  0
 61 62  1  0
 61 63  1  0
 61145  1  0
 62146  1  0
 62147  1  0
 62148  1  0
 63149  1  0
 63150  1  0
 63151  1  0
 64 65  1  0
 64  1  1  0
 64152  1  6
 65 66  1  0
 67 68  1  0
 67 64  1  0
 67153  1  1
 68154  1  0
 68155  1  0
 68156  1  0
 69 67  1  0
 69157  1  0
 69158  1  0
 70 71  1  0
 70159  1  0
 70160  1  0
 70161  1  0
 71 72  2  0
 71162  1  0
 72 69  1  0
 72163  1  0
 73 74  1  0
 73164  1  0
 73165  1  0
 74166  1  0
 74167  1  0
 74168  1  0
 75 76  1  0
 75169  1  0
 75170  1  0
 76 77  1  0
 76 78  1  0
 76171  1  0
 77172  1  0
 77173  1  0
 77174  1  0
 78175  1  0
 78176  1  0
 78177  1  0
 79 80  1  0
 80 81  1  0
 80178  1  0
 80179  1  0
 81 82  1  0
 81180  1  0
 81181  1  0
 82 83  2  0
 83 84  1  0
 83 85  1  0
 84182  1  0
 84183  1  0
 84184  1  0
 85 86  1  0
 85 87  1  0
 86185  1  0
 86186  1  0
 86187  1  0
 87188  1  0
 87189  1  0
 87190  1  0
 88 89  1  0
 88191  1  0
 88192  1  0
 89 90  1  0
 89 91  1  0
 89193  1  0
 90194  1  0
 90195  1  0
 90196  1  0
 91197  1  0
 91198  1  0
 91199  1  0
 92 93  1  0
 92200  1  0
 92201  1  0
 93 94  1  0
 93 95  1  0
 93202  1  0
 94203  1  0
 94204  1  0
 94205  1  0
 95206  1  0
 95207  1  0
 95208  1  0
 96 97  1  0
 96209  1  0
 96210  1  0
 97 98  1  0
 97 99  1  0
 97211  1  0
 98212  1  0
 98213  1  0
 98214  1  0
 99215  1  0
 99216  1  0
 99217  1  0
M  END
>  <minimizedAffinity>  (2) 
-6.70101

>  <mol_id>  (2) 
58673

>  <source_index>  (2) 
1

>  <layer>  (2) 
L1

>  <uniprot>  (2) 
P62937

>  <paff>  (2) 
7.9585999999999997

>  <smiles>  (2) 
C/C=C/C[C@@H](C)[C@@H](O)[C@H]1C(=O)N[C@@H](CC)C(=O)N(C)[C@H](OCC/N=C(C)N(C)C)C(=O)N(C)[C@@H](CC(C)C)C(=O)N[C@@H](C(C)C)C(=O)N(C)[C@@H](CC(C)C)C(=O)N[C@@H](C)C(=O)N[C@H](C)C(=O)N(C)[C@@H](CC(C)C)C(=O)N(C)[C@@H](CC(C)C)C(=O)N(C)[C@@H](C(C)C)C(=O)N1C

$$$$
L1:P62937:69521
     RDKit          3D

199199  0  0  0  0  0  0  0  0999 V2000
   54.2588   54.4535   57.7288 C   0  0  1  0  0  0  0  0  0  0  0  0
   52.8308   54.3657   58.3223 C   0  0  0  0  0  0  0  0  0  0  0  0
   52.2261   53.2988   58.4091 O   0  0  0  0  0  0  0  0  0  0  0  0
   52.2781   55.5595   58.7084 N   0  0  0  0  0  0  0  0  0  0  0  0
   50.9532   55.6865   59.3030 C   0  0  2  0  0  0  0  0  0  0  0  0
   50.4050   57.0800   58.9230 C   0  0  0  0  0  0  0  0  0  0  0  0
   51.1936   57.9857   58.6243 O   0  0  0  0  0  0  0  0  0  0  0  0
   49.0327   57.3008   58.9372 N   0  0  0  0  0  0  0  0  0  0  0  0
   48.0257   56.3018   59.2837 C   0  0  0  0  0  0  0  0  0  0  0  0
   48.5585   58.6581   58.5725 C   0  0  2  0  0  0  0  0  0  0  0  0
   48.4565   59.5228   59.8338 C   0  0  0  0  0  0  0  0  0  0  0  0
   47.2042   58.6557   57.8197 C   0  0  0  0  0  0  0  0  0  0  0  0
   46.1418   58.7653   58.4453 O   0  0  0  0  0  0  0  0  0  0  0  0
   47.1972   58.4185   56.4391 N   0  0  0  0  0  0  0  0  0  0  0  0
   45.8632   58.3737   55.7837 C   0  0  2  0  0  0  0  0  0  0  0  0
   45.4139   56.8919   55.8486 C   0  0  0  0  0  0  0  0  0  0  0  0
   45.6247   56.0747   54.9527 O   0  0  0  0  0  0  0  0  0  0  0  0
   44.8285   56.5536   57.0522 N   0  0  0  0  0  0  0  0  0  0  0  0
   44.2351   55.2445   57.3172 C   0  0  2  0  0  0  0  0  0  0  0  0
   42.8691   55.2481   56.5798 C   0  0  0  0  0  0  0  0  0  0  0  0
   41.9668   55.9928   56.9830 O   0  0  0  0  0  0  0  0  0  0  0  0
   42.7136   54.5291   55.3936 N   0  0  0  0  0  0  0  0  0  0  0  0
   41.4655   54.7556   54.6636 C   0  0  0  0  0  0  0  0  0  0  0  0
   43.6415   53.4894   54.8848 C   0  0  2  0  0  0  0  0  0  0  0  0
   43.7918   53.4793   53.3439 C   0  0  0  0  0  0  0  0  0  0  0  0
   43.1075   52.7843   52.6013 O   0  0  0  0  0  0  0  0  0  0  0  0
   44.7302   54.3796   52.8702 N   0  0  0  0  0  0  0  0  0  0  0  0
   44.7796   54.7427   51.4548 C   0  0  1  0  0  0  0  0  0  0  0  0
   45.8059   55.8500   51.2333 C   0  0  0  0  0  0  0  0  0  0  0  0
   45.1287   53.5761   50.5073 C   0  0  0  0  0  0  0  0  0  0  0  0
   44.8193   53.6024   49.3167 O   0  0  0  0  0  0  0  0  0  0  0  0
   45.9395   52.6004   51.0434 N   0  0  0  0  0  0  0  0  0  0  0  0
   46.3596   51.4410   50.2689 C   0  0  2  0  0  0  0  0  0  0  0  0
   45.1976   50.5254   49.8764 C   0  0  0  0  0  0  0  0  0  0  0  0
   47.4825   50.6015   50.9226 C   0  0  0  0  0  0  0  0  0  0  0  0
   48.4316   50.2604   50.2057 O   0  0  0  0  0  0  0  0  0  0  0  0
   47.3756   50.1456   52.2398 N   0  0  0  0  0  0  0  0  0  0  0  0
   46.3019   50.4814   53.1613 C   0  0  0  0  0  0  0  0  0  0  0  0
   48.5257   49.4015   52.8277 C   0  0  2  0  0  0  0  0  0  0  0  0
   49.7395   50.3924   52.9887 C   0  0  0  0  0  0  0  0  0  0  0  0
   49.5646   51.6087   52.8592 O   0  0  0  0  0  0  0  0  0  0  0  0
   50.9886   49.8644   53.3169 N   0  0  0  0  0  0  0  0  0  0  0  0
   51.1295   48.7423   54.2360 C   0  0  0  0  0  0  0  0  0  0  0  0
   52.2491   50.5973   53.0159 C   0  0  2  0  0  0  0  0  0  0  0  0
   52.7937   51.3884   54.2438 C   0  0  0  0  0  0  0  0  0  0  0  0
   52.0223   51.8685   55.0785 O   0  0  0  0  0  0  0  0  0  0  0  0
   54.1883   51.5106   54.3958 N   0  0  0  0  0  0  0  0  0  0  0  0
   55.1490   51.1338   53.3646 C   0  0  0  0  0  0  0  0  0  0  0  0
   54.6731   52.2739   55.5889 C   0  0  2  0  0  0  0  0  0  0  0  0
   54.5960   53.7997   55.2670 C   0  0  0  0  0  0  0  0  0  0  0  0
   54.8558   54.1941   54.1217 O   0  0  0  0  0  0  0  0  0  0  0  0
   54.2598   54.7195   56.2658 N   0  0  0  0  0  0  0  0  0  0  0  0
   53.7944   56.0220   55.7972 C   0  0  0  0  0  0  0  0  0  0  0  0
   52.8228   56.4206   58.6085 H   0  0  0  0  0  0  0  0  0  0  0  0
   44.7318   57.2902   57.7505 H   0  0  0  0  0  0  0  0  0  0  0  0
   45.1538   55.0215   53.5462 H   0  0  0  0  0  0  0  0  0  0  0  0
   46.3461   52.7709   51.9539 H   0  0  0  0  0  0  0  0  0  0  0  0
   55.1565   55.3728   58.6247 C   0  0  2  0  0  0  0  0  0  0  0  0
   54.7742   56.7476   58.5609 O   0  0  0  0  0  0  0  0  0  0  0  0
   55.3183   57.1904   57.8857 H   0  0  0  0  0  0  0  0  0  0  0  0
   56.6912   55.1668   58.4942 C   0  0  2  0  0  0  0  0  0  0  0  0
   57.3459   55.1879   59.8860 C   0  0  0  0  0  0  0  0  0  0  0  0
   57.4481   56.0917   57.5146 C   0  0  0  0  0  0  0  0  0  0  0  0
   61.2334   55.3414   56.9036 C   0  0  0  0  0  0  0  0  0  0  0  0
   59.7415   55.3555   56.8154 C   0  0  0  0  0  0  0  0  0  0  0  0
   58.9491   56.1048   57.5969 C   0  0  0  0  0  0  0  0  0  0  0  0
   45.7913   58.9868   54.3663 C   0  0  0  0  0  0  0  0  0  0  0  0
   44.3942   58.8185   53.7489 C   0  0  0  0  0  0  0  0  0  0  0  0
   46.1004   60.4906   54.4157 C   0  0  0  0  0  0  0  0  0  0  0  0
   44.1354   54.9696   58.8395 C   0  0  0  0  0  0  0  0  0  0  0  0
   44.2070   56.2739   59.6369 C   0  0  0  0  0  0  0  0  0  0  0  0
   45.1469   53.9679   59.4062 C   0  0  0  0  0  0  0  0  0  0  0  0
   56.0511   51.8529   56.1897 C   0  0  0  0  0  0  0  0  0  0  0  0
   57.1649   52.8198   55.7786 C   0  0  0  0  0  0  0  0  0  0  0  0
   56.1028   51.5650   57.6933 C   0  0  0  0  0  0  0  0  0  0  0  0
   51.0109   55.4815   60.8253 C   0  0  0  0  0  0  0  0  0  0  0  0
   52.1831   56.1791   61.5079 C   0  0  0  0  0  0  0  0  0  0  0  0
   48.3694   57.9153   55.7011 C   0  0  0  0  0  0  0  0  0  0  0  0
   49.3327   59.0030   55.2546 C   0  0  0  0  0  0  0  0  0  0  0  0
   43.4325   52.0837   55.4941 C   0  0  0  0  0  0  0  0  0  0  0  0
   44.3214   51.6115   56.6611 C   0  0  0  0  0  0  0  0  0  0  0  0
   45.7787   52.0038   56.3761 C   0  0  0  0  0  0  0  0  0  0  0  0
   44.2609   50.1050   56.9034 C   0  0  0  0  0  0  0  0  0  0  0  0
   48.8441   48.0767   52.0794 C   0  0  0  0  0  0  0  0  0  0  0  0
   48.1249   46.7923   52.5548 C   0  0  0  0  0  0  0  0  0  0  0  0
   49.0586   45.6056   52.7783 C   0  0  0  0  0  0  0  0  0  0  0  0
   46.9545   46.3992   51.6550 C   0  0  0  0  0  0  0  0  0  0  0  0
   52.2262   51.4940   51.7528 C   0  0  0  0  0  0  0  0  0  0  0  0
   52.7146   50.8017   50.4630 C   0  0  0  0  0  0  0  0  0  0  0  0
   52.7582   51.7574   49.2693 C   0  0  0  0  0  0  0  0  0  0  0  0
   51.8064   49.6133   50.1365 C   0  0  0  0  0  0  0  0  0  0  0  0
   54.7301   53.4937   57.7677 H   0  0  0  0  0  0  0  0  0  0  0  0
   50.2960   54.9294   58.9292 H   0  0  0  0  0  0  0  0  0  0  0  0
   48.5081   55.3772   59.5230 H   0  0  0  0  0  0  0  0  0  0  0  0
   47.3673   56.1560   58.4530 H   0  0  0  0  0  0  0  0  0  0  0  0
   47.4638   56.6401   60.1291 H   0  0  0  0  0  0  0  0  0  0  0  0
   49.2793   59.0672   57.8957 H   0  0  0  0  0  0  0  0  0  0  0  0
   47.7325   59.0999   60.4985 H   0  0  0  0  0  0  0  0  0  0  0  0
   48.1567   60.5138   59.5636 H   0  0  0  0  0  0  0  0  0  0  0  0
   49.4091   59.5584   60.3198 H   0  0  0  0  0  0  0  0  0  0  0  0
   45.1853   59.0138   56.3087 H   0  0  0  0  0  0  0  0  0  0  0  0
   44.8371   54.4384   56.9529 H   0  0  0  0  0  0  0  0  0  0  0  0
   40.9052   55.5289   55.1464 H   0  0  0  0  0  0  0  0  0  0  0  0
   40.8907   53.8532   54.6513 H   0  0  0  0  0  0  0  0  0  0  0  0
   41.6881   55.0503   53.6594 H   0  0  0  0  0  0  0  0  0  0  0  0
   44.5962   53.7984   55.2563 H   0  0  0  0  0  0  0  0  0  0  0  0
   43.7870   55.0626   51.2152 H   0  0  0  0  0  0  0  0  0  0  0  0
   46.7810   55.4879   51.4843 H   0  0  0  0  0  0  0  0  0  0  0  0
   45.5660   56.6880   51.8538 H   0  0  0  0  0  0  0  0  0  0  0  0
   45.7904   56.1505   50.2065 H   0  0  0  0  0  0  0  0  0  0  0  0
   46.7684   51.8789   49.3823 H   0  0  0  0  0  0  0  0  0  0  0  0
   44.7805   50.0814   50.7561 H   0  0  0  0  0  0  0  0  0  0  0  0
   45.5543   49.7563   49.2235 H   0  0  0  0  0  0  0  0  0  0  0  0
   44.4456   51.0983   49.3752 H   0  0  0  0  0  0  0  0  0  0  0  0
   45.5340   51.0105   52.6366 H   0  0  0  0  0  0  0  0  0  0  0  0
   46.6861   51.0973   53.9474 H   0  0  0  0  0  0  0  0  0  0  0  0
   45.8956   49.5835   53.5779 H   0  0  0  0  0  0  0  0  0  0  0  0
   48.2679   49.0525   53.8058 H   0  0  0  0  0  0  0  0  0  0  0  0
   50.1748   48.2835   54.3878 H   0  0  0  0  0  0  0  0  0  0  0  0
   51.5092   49.0939   55.1726 H   0  0  0  0  0  0  0  0  0  0  0  0
   51.8079   48.0256   53.8225 H   0  0  0  0  0  0  0  0  0  0  0  0
   52.9311   49.8062   52.7835 H   0  0  0  0  0  0  0  0  0  0  0  0
   54.6458   50.5980   52.5870 H   0  0  0  0  0  0  0  0  0  0  0  0
   55.9070   50.5121   53.7934 H   0  0  0  0  0  0  0  0  0  0  0  0
   55.5988   52.0150   52.9571 H   0  0  0  0  0  0  0  0  0  0  0  0
   54.0125   52.0175   56.3906 H   0  0  0  0  0  0  0  0  0  0  0  0
   53.8551   56.0595   54.7296 H   0  0  0  0  0  0  0  0  0  0  0  0
   54.4078   56.7919   56.2165 H   0  0  0  0  0  0  0  0  0  0  0  0
   52.7794   56.1689   56.1021 H   0  0  0  0  0  0  0  0  0  0  0  0
   54.9486   55.0288   59.6163 H   0  0  0  0  0  0  0  0  0  0  0  0
   56.7845   54.2045   58.0357 H   0  0  0  0  0  0  0  0  0  0  0  0
   57.2361   56.1610   60.3171 H   0  0  0  0  0  0  0  0  0  0  0  0
   58.3859   54.9536   59.7945 H   0  0  0  0  0  0  0  0  0  0  0  0
   56.8711   54.4637   60.5145 H   0  0  0  0  0  0  0  0  0  0  0  0
   57.1835   55.7932   56.5217 H   0  0  0  0  0  0  0  0  0  0  0  0
   57.1500   57.0825   57.7874 H   0  0  0  0  0  0  0  0  0  0  0  0
   61.6274   54.6642   56.1749 H   0  0  0  0  0  0  0  0  0  0  0  0
   61.5299   55.0248   57.8818 H   0  0  0  0  0  0  0  0  0  0  0  0
   61.6110   56.3251   56.7173 H   0  0  0  0  0  0  0  0  0  0  0  0
   59.2929   54.7512   56.1093 H   0  0  0  0  0  0  0  0  0  0  0  0
   59.3942   56.7238   58.2924 H   0  0  0  0  0  0  0  0  0  0  0  0
   46.5134   58.4705   53.7689 H   0  0  0  0  0  0  0  0  0  0  0  0
   43.6746   59.3358   54.3485 H   0  0  0  0  0  0  0  0  0  0  0  0
   44.1445   57.7788   53.7097 H   0  0  0  0  0  0  0  0  0  0  0  0
   44.3907   59.2237   52.7586 H   0  0  0  0  0  0  0  0  0  0  0  0
   45.3671   60.9859   55.0172 H   0  0  0  0  0  0  0  0  0  0  0  0
   46.0785   60.8920   53.4241 H   0  0  0  0  0  0  0  0  0  0  0  0
   47.0709   60.6415   54.8402 H   0  0  0  0  0  0  0  0  0  0  0  0
   43.1789   54.5035   58.9525 H   0  0  0  0  0  0  0  0  0  0  0  0
   45.1714   56.7188   59.5070 H   0  0  0  0  0  0  0  0  0  0  0  0
   44.0464   56.0670   60.6743 H   0  0  0  0  0  0  0  0  0  0  0  0
   43.4532   56.9478   59.2868 H   0  0  0  0  0  0  0  0  0  0  0  0
   46.1339   54.3728   59.3245 H   0  0  0  0  0  0  0  0  0  0  0  0
   45.0900   53.0528   58.8546 H   0  0  0  0  0  0  0  0  0  0  0  0
   44.9231   53.7786   60.4353 H   0  0  0  0  0  0  0  0  0  0  0  0
   56.2148   50.8923   55.7476 H   0  0  0  0  0  0  0  0  0  0  0  0
   56.9905   53.7759   56.2263 H   0  0  0  0  0  0  0  0  0  0  0  0
   57.1741   52.9211   54.7134 H   0  0  0  0  0  0  0  0  0  0  0  0
   58.1084   52.4381   56.1088 H   0  0  0  0  0  0  0  0  0  0  0  0
   55.9481   52.4741   58.2360 H   0  0  0  0  0  0  0  0  0  0  0  0
   57.0593   51.1573   57.9457 H   0  0  0  0  0  0  0  0  0  0  0  0
   55.3371   50.8625   57.9485 H   0  0  0  0  0  0  0  0  0  0  0  0
   51.0861   54.4320   61.0196 H   0  0  0  0  0  0  0  0  0  0  0  0
   50.1193   55.9156   61.2273 H   0  0  0  0  0  0  0  0  0  0  0  0
   53.1026   55.7769   61.1369 H   0  0  0  0  0  0  0  0  0  0  0  0
   52.1256   56.0216   62.5647 H   0  0  0  0  0  0  0  0  0  0  0  0
   52.1434   57.2282   61.3010 H   0  0  0  0  0  0  0  0  0  0  0  0
   48.0224   57.3958   54.8324 H   0  0  0  0  0  0  0  0  0  0  0  0
   48.9089   57.2807   56.3727 H   0  0  0  0  0  0  0  0  0  0  0  0
   48.8342   59.6651   54.5779 H   0  0  0  0  0  0  0  0  0  0  0  0
   50.1719   58.5565   54.7634 H   0  0  0  0  0  0  0  0  0  0  0  0
   49.6701   59.5530   56.1082 H   0  0  0  0  0  0  0  0  0  0  0  0
   43.5654   51.3794   54.6996 H   0  0  0  0  0  0  0  0  0  0  0  0
   42.4599   52.1482   55.9353 H   0  0  0  0  0  0  0  0  0  0  0  0
   43.9476   52.0890   57.5427 H   0  0  0  0  0  0  0  0  0  0  0  0
   46.1148   51.5075   55.4897 H   0  0  0  0  0  0  0  0  0  0  0  0
   46.3941   51.7143   57.2022 H   0  0  0  0  0  0  0  0  0  0  0  0
   45.8424   53.0629   56.2378 H   0  0  0  0  0  0  0  0  0  0  0  0
   44.6280   49.5899   56.0404 H   0  0  0  0  0  0  0  0  0  0  0  0
   43.2480   49.8139   57.0885 H   0  0  0  0  0  0  0  0  0  0  0  0
   44.8643   49.8556   57.7511 H   0  0  0  0  0  0  0  0  0  0  0  0
   49.8966   47.9049   52.1673 H   0  0  0  0  0  0  0  0  0  0  0  0
   48.4853   48.2352   51.0839 H   0  0  0  0  0  0  0  0  0  0  0  0
   47.7279   47.0537   53.5134 H   0  0  0  0  0  0  0  0  0  0  0  0
   49.4834   45.3050   51.8434 H   0  0  0  0  0  0  0  0  0  0  0  0
   48.5059   44.7909   53.1974 H   0  0  0  0  0  0  0  0  0  0  0  0
   49.8410   45.8891   53.4508 H   0  0  0  0  0  0  0  0  0  0  0  0
   47.3231   46.1321   50.6867 H   0  0  0  0  0  0  0  0  0  0  0  0
   46.2808   47.2256   51.5647 H   0  0  0  0  0  0  0  0  0  0  0  0
   46.4399   45.5646   52.0834 H   0  0  0  0  0  0  0  0  0  0  0  0
   52.8533   52.3418   51.9342 H   0  0  0  0  0  0  0  0  0  0  0  0
   51.2023   51.7564   51.5864 H   0  0  0  0  0  0  0  0  0  0  0  0
   53.7142   50.4647   50.6420 H   0  0  0  0  0  0  0  0  0  0  0  0
   51.7711   52.1147   49.0622 H   0  0  0  0  0  0  0  0  0  0  0  0
   53.1376   51.2408   48.4125 H   0  0  0  0  0  0  0  0  0  0  0  0
   53.3964   52.5852   49.4982 H   0  0  0  0  0  0  0  0  0  0  0  0
   50.8108   49.9632   49.9598 H   0  0  0  0  0  0  0  0  0  0  0  0
   51.8034   48.9299   50.9598 H   0  0  0  0  0  0  0  0  0  0  0  0
   52.1702   49.1161   49.2617 H   0  0  0  0  0  0  0  0  0  0  0  0
  1  2  1  0
  1 92  1  6
  2  3  2  0
  2  4  1  0
  4  5  1  0
  4 54  1  0
  5 76  1  0
  5  6  1  0
  5 93  1  6
  6  7  2  0
  6  8  1  0
  8  9  1  0
  8 10  1  0
  9 94  1  0
  9 95  1  0
  9 96  1  0
 10 11  1  0
 10 12  1  0
 10 97  1  6
 11 98  1  0
 11 99  1  0
 11100  1  0
 12 13  2  0
 12 14  1  0
 14 78  1  0
 14 15  1  0
 15 67  1  0
 15 16  1  0
 15101  1  1
 16 17  2  0
 16 18  1  0
 18 19  1  0
 18 55  1  0
 19 70  1  0
 19 20  1  0
 19102  1  6
 20 21  2  0
 20 22  1  0
 22 23  1  0
 22 24  1  0
 23103  1  0
 23104  1  0
 23105  1  0
 24 80  1  0
 24 25  1  0
 24106  1  1
 25 26  2  0
 25 27  1  0
 27 28  1  0
 27 56  1  0
 28 29  1  0
 28 30  1  0
 28107  1  6
 29108  1  0
 29109  1  0
 29110  1  0
 30 31  2  0
 30 32  1  0
 32 33  1  0
 32 57  1  0
 33 34  1  0
 33 35  1  0
 33111  1  6
 34112  1  0
 34113  1  0
 34114  1  0
 35 36  2  0
 35 37  1  0
 37 38  1  0
 37 39  1  0
 38115  1  0
 38116  1  0
 38117  1  0
 39 84  1  0
 39 40  1  0
 39118  1  1
 40 41  2  0
 40 42  1  0
 42 43  1  0
 42 44  1  0
 43119  1  0
 43120  1  0
 43121  1  0
 44 88  1  0
 44 45  1  0
 44122  1  6
 45 46  2  0
 45 47  1  0
 47 48  1  0
 47 49  1  0
 48123  1  0
 48124  1  0
 48125  1  0
 49 73  1  0
 49 50  1  0
 49126  1  1
 50 51  2  0
 50 52  1  0
 52 53  1  0
 52  1  1  0
 53127  1  0
 53128  1  0
 53129  1  0
 58 59  1  0
 58  1  1  0
 58130  1  1
 59 60  1  0
 61 62  1  0
 61 58  1  0
 61131  1  6
 62132  1  0
 62133  1  0
 62134  1  0
 63 61  1  0
 63135  1  0
 63136  1  0
 64 65  1  0
 64137  1  0
 64138  1  0
 64139  1  0
 65 66  2  0
 65140  1  0
 66 63  1  0
 66141  1  0
 67 68  1  0
 67 69  1  0
 67142  1  0
 68143  1  0
 68144  1  0
 68145  1  0
 69146  1  0
 69147  1  0
 69148  1  0
 70 71  1  0
 70 72  1  0
 70149  1  0
 71150  1  0
 71151  1  0
 71152  1  0
 72153  1  0
 72154  1  0
 72155  1  0
 73 74  1  0
 73 75  1  0
 73156  1  0
 74157  1  0
 74158  1  0
 74159  1  0
 75160  1  0
 75161  1  0
 75162  1  0
 76 77  1  0
 76163  1  0
 76164  1  0
 77165  1  0
 77166  1  0
 77167  1  0
 78 79  1  0
 78168  1  0
 78169  1  0
 79170  1  0
 79171  1  0
 79172  1  0
 80 81  1  0
 80173  1  0
 80174  1  0
 81 82  1  0
 81 83  1  0
 81175  1  0
 82176  1  0
 82177  1  0
 82178  1  0
 83179  1  0
 83180  1  0
 83181  1  0
 84 85  1  0
 84182  1  0
 84183  1  0
 85 86  1  0
 85 87  1  0
 85184  1  0
 86185  1  0
 86186  1  0
 86187  1  0
 87188  1  0
 87189  1  0
 87190  1  0
 88 89  1  0
 88191  1  0
 88192  1  0
 89 90  1  0
 89 91  1  0
 89193  1  0
 90194  1  0
 90195  1  0
 90196  1  0
 91197  1  0
 91198  1  0
 91199  1  0
M  END
>  <minimizedAffinity>  (3) 
-6.24101

>  <mol_id>  (3) 
69521

>  <source_index>  (3) 
3

>  <layer>  (3) 
L1

>  <uniprot>  (3) 
P62937

>  <paff>  (3) 
8.0968999999999998

>  <smiles>  (3) 
C/C=C/C[C@@H](C)[C@@H](O)[C@H]1C(=O)N[C@@H](CC)C(=O)N(C)[C@H](C)C(=O)N(CC)[C@@H](C(C)C)C(=O)N[C@@H](C(C)C)C(=O)N(C)[C@@H](CC(C)C)C(=O)N[C@@H](C)C(=O)N[C@H](C)C(=O)N(C)[C@@H](CC(C)C)C(=O)N(C)[C@@H](CC(C)C)C(=O)N(C)[C@@H](C(C)C)C(=O)N1C

$$$$
