L1:P50053:107700


 36 38  0  0  0  0  0  0  0  0999 V2000
   -3.7506   -2.0419   19.2906 C   0  0  0  0  0  0  0  0  0  0  0  0
   -2.8702   -2.4218   18.2910 C   0  0  0  0  0  0  0  0  0  0  0  0
   -2.4726   -1.5030   17.3098 C   0  0  0  0  0  0  0  0  0  0  0  0
   -2.9834   -0.1990   17.3617 C   0  0  0  0  0  0  0  0  0  0  0  0
   -3.8692    0.1365   18.3878 C   0  0  0  0  0  0  0  0  0  0  0  0
   -4.2209   -0.7783   19.3235 N   0  0  0  0  0  0  0  0  0  0  0  0
   -5.0737   -3.7843   22.2643 C   0  0  0  0  0  0  0  0  0  0  0  0
   -4.3441   -4.8905   21.4991 C   0  0  0  0  0  0  0  0  0  0  0  0
   -3.4111   -4.1096   20.5742 C   0  0  0  0  0  0  0  0  0  0  0  0
   -4.1669   -2.9032   20.2626 N   0  0  0  0  0  0  0  0  0  0  0  0
   -5.3018   -2.7235   21.1590 C   0  0  0  0  0  0  0  0  0  0  0  0
   -6.8968   -5.3866   22.2907 C   0  0  0  0  0  0  0  0  0  0  0  0
   -6.3145   -4.2087   22.9199 N   0  0  0  0  0  0  0  0  0  0  0  0
   -6.9945   -3.4479   22.8989 H   0  0  0  0  0  0  0  0  0  0  0  0
   -1.5148   -1.9224   16.2299 C   0  0  0  0  0  0  0  0  0  0  0  0
   -0.5841   -0.9719   15.9363 F   0  0  0  0  0  0  0  0  0  0  0  0
   -2.1419   -2.1980   15.0562 F   0  0  0  0  0  0  0  0  0  0  0  0
   -0.8104   -3.0354   16.5647 F   0  0  0  0  0  0  0  0  0  0  0  0
   -2.6047    0.7769   16.3835 C   0  0  0  0  0  0  0  0  0  0  0  0
   -2.2952    1.5817   15.6079 N   0  0  0  0  0  0  0  0  0  0  0  0
   -4.3838    1.4411   18.4907 N   0  0  0  0  0  0  0  0  0  0  0  0
   -3.8399    2.1690   18.0332 H   0  0  0  0  0  0  0  0  0  0  0  0
   -5.6655    1.9088   18.8609 C   0  0  0  0  0  0  0  0  0  0  0  0
   -6.2575    1.5775   20.0882 C   0  0  0  0  0  0  0  0  0  0  0  0
   -7.5280    2.0566   20.4474 C   0  0  0  0  0  0  0  0  0  0  0  0
   -8.2131    2.8957   19.5647 C   0  0  0  0  0  0  0  0  0  0  0  0
   -7.6430    3.2439   18.3407 C   0  0  0  0  0  0  0  0  0  0  0  0
   -6.3823    2.7508   17.9811 C   0  0  0  0  0  0  0  0  0  0  0  0
   -5.6858    3.2187   16.3909 S   0  0  0  0  0  0  0  0  0  0  0  0
   -7.2137    3.7168   15.5534 C   0  0  0  0  0  0  0  0  0  0  0  0
   -8.1267    1.6930   21.7860 C   0  0  0  0  0  0  0  0  0  0  0  0
   -8.7033    0.2796   21.8127 C   0  0  0  0  0  0  0  0  0  0  0  0
   -8.3900   -0.4373   23.0973 C   0  0  0  0  0  0  0  0  0  0  0  0
   -7.9607   -1.5716   23.2244 O   0  0  0  0  0  0  0  0  0  0  0  0
   -8.5795    0.3476   24.1760 O   0  0  0  0  0  0  0  0  0  0  0  0
   -8.3415   -0.2249   24.9349 H   0  0  0  0  0  0  0  0  0  0  0  0
 12 13  1  0  0  0
 13  7  1  0  0  0
  7  8  1  0  0  0
  8  9  1  0  0  0
  9 10  1  0  0  0
 10  1  1  0  0  0
  1  2  2  0  0  0
  2  3  1  0  0  0
  3 15  1  0  0  0
 15 16  1  0  0  0
 15 17  1  0  0  0
 15 18  1  0  0  0
  3  4  2  0  0  0
  4 19  1  0  0  0
 19 20  3  0  0  0
  4  5  1  0  0  0
  5 21  1  0  0  0
 21 23  1  0  0  0
 23 24  2  0  0  0
 24 25  1  0  0  0
 25 31  1  0  0  0
 31 32  1  0  0  0
 32 33  1  0  0  0
 33 34  2  0  0  0
 33 35  1  0  0  0
 25 26  2  0  0  0
 26 27  1  0  0  0
 27 28  2  0  0  0
 28 29  1  0  0  0
 29 30  1  0  0  0
  5  6  2  0  0  0
 10 11  1  0  0  0
 11  7  1  0  0  0
  6  1  1  0  0  0
 28 23  1  0  0  0
 13 14  1  0  0  0
 21 22  1  0  0  0
 35 36  1  0  0  0
M  END
> <minimizedAffinity>
-8.67447

$$$$
