L1:P50053:107700
     RDKit          3D

 57 59  0  0  0  0  0  0  0  0999 V2000
   -4.8775    3.8965   -2.6522 C   0  0  0  0  0  0  0  0  0  0  0  0
   -4.3681    3.7636   -1.2938 N   0  0  0  0  0  0  0  0  0  0  0  0
   -3.7103    2.4725   -1.0707 C   0  0  1  0  0  0  0  0  0  0  0  0
   -2.3774    2.2991   -1.8020 C   0  0  0  0  0  0  0  0  0  0  0  0
   -1.7235    1.1388   -1.0524 C   0  0  0  0  0  0  0  0  0  0  0  0
   -2.1844    1.3125    0.3191 N   0  0  0  0  0  0  0  0  0  0  0  0
   -1.6474    0.5859    1.3407 C   0  0  0  0  0  0  0  0  0  0  0  0
   -2.0469    0.7499    2.6568 C   0  0  0  0  0  0  0  0  0  0  0  0
   -1.4694   -0.0223    3.6743 C   0  0  0  0  0  0  0  0  0  0  0  0
   -1.9066    0.1635    5.1004 C   0  0  0  0  0  0  0  0  0  0  0  0
   -2.8709    1.1143    5.2487 F   0  0  0  0  0  0  0  0  0  0  0  0
   -0.8859    0.5451    5.9123 F   0  0  0  0  0  0  0  0  0  0  0  0
   -2.4253   -0.9726    5.6363 F   0  0  0  0  0  0  0  0  0  0  0  0
   -0.4849   -0.9593    3.3323 C   0  0  0  0  0  0  0  0  0  0  0  0
    0.1371   -1.7698    4.3367 C   0  0  0  0  0  0  0  0  0  0  0  0
    0.6227   -2.4390    5.1500 N   0  0  0  0  0  0  0  0  0  0  0  0
   -0.1163   -1.0894    1.9917 C   0  0  0  0  0  0  0  0  0  0  0  0
    0.8858   -1.9991    1.6102 N   0  0  0  0  0  0  0  0  0  0  0  0
    1.6946   -2.0603    0.4523 C   0  0  0  0  0  0  0  0  0  0  0  0
    1.9151   -0.9435   -0.3665 C   0  0  0  0  0  0  0  0  0  0  0  0
    2.7285   -1.0159   -1.5093 C   0  0  0  0  0  0  0  0  0  0  0  0
    2.9576    0.2128   -2.3580 C   0  0  0  0  0  0  0  0  0  0  0  0
    4.0215    1.1424   -1.7794 C   0  0  0  0  0  0  0  0  0  0  0  0
    5.4111    0.5949   -1.9566 C   0  0  0  0  0  0  0  0  0  0  0  0
    5.8022   -0.1584   -2.8322 O   0  0  0  0  0  0  0  0  0  0  0  0
    6.2694    1.0817   -1.0390 O   0  0  0  0  0  0  0  0  0  0  0  0
    3.3442   -2.2286   -1.8302 C   0  0  0  0  0  0  0  0  0  0  0  0
    3.1447   -3.3518   -1.0284 C   0  0  0  0  0  0  0  0  0  0  0  0
    2.3202   -3.2778    0.1014 C   0  0  0  0  0  0  0  0  0  0  0  0
    2.0841   -4.7510    1.1048 S   0  0  0  0  0  0  0  0  0  0  0  0
    1.0653   -5.7112   -0.0459 C   0  0  0  0  0  0  0  0  0  0  0  0
   -0.6915   -0.3164    1.0389 N   0  0  0  0  0  0  0  0  0  0  0  0
   -3.3005    2.2456    0.4057 C   0  0  0  0  0  0  0  0  0  0  0  0
   -5.4077    4.8493   -2.7474 H   0  0  0  0  0  0  0  0  0  0  0  0
   -5.5907    3.1003   -2.8888 H   0  0  0  0  0  0  0  0  0  0  0  0
   -4.0722    3.8895   -3.3930 H   0  0  0  0  0  0  0  0  0  0  0  0
   -3.7122    4.5228   -1.1070 H   0  0  0  0  0  0  0  0  0  0  0  0
   -4.3898    1.6573   -1.3566 H   0  0  0  0  0  0  0  0  0  0  0  0
   -2.4947    2.0819   -2.8678 H   0  0  0  0  0  0  0  0  0  0  0  0
   -1.7584    3.2001   -1.7020 H   0  0  0  0  0  0  0  0  0  0  0  0
   -0.6337    1.1971   -1.1454 H   0  0  0  0  0  0  0  0  0  0  0  0
   -2.0692    0.1777   -1.4507 H   0  0  0  0  0  0  0  0  0  0  0  0
   -2.8077    1.4838    2.9082 H   0  0  0  0  0  0  0  0  0  0  0  0
    0.9079   -2.8756    2.1263 H   0  0  0  0  0  0  0  0  0  0  0  0
    1.4607    0.0098   -0.1079 H   0  0  0  0  0  0  0  0  0  0  0  0
    3.2127   -0.0853   -3.3828 H   0  0  0  0  0  0  0  0  0  0  0  0
    2.0082    0.7585   -2.4360 H   0  0  0  0  0  0  0  0  0  0  0  0
    3.8370    1.3202   -0.7137 H   0  0  0  0  0  0  0  0  0  0  0  0
    3.9884    2.1071   -2.2978 H   0  0  0  0  0  0  0  0  0  0  0  0
    7.1250    0.6588   -1.2616 H   0  0  0  0  0  0  0  0  0  0  0  0
    3.9935   -2.3046   -2.7010 H   0  0  0  0  0  0  0  0  0  0  0  0
    3.6444   -4.2814   -1.2893 H   0  0  0  0  0  0  0  0  0  0  0  0
    0.7664   -6.6461    0.4356 H   0  0  0  0  0  0  0  0  0  0  0  0
    1.6259   -5.9533   -0.9526 H   0  0  0  0  0  0  0  0  0  0  0  0
    0.1631   -5.1544   -0.3140 H   0  0  0  0  0  0  0  0  0  0  0  0
   -4.1477    1.8411    0.9709 H   0  0  0  0  0  0  0  0  0  0  0  0
   -2.9663    3.1770    0.8782 H   0  0  0  0  0  0  0  0  0  0  0  0
  1  2  1  0
  2  3  1  0
  3  4  1  0
  4  5  1  0
  5  6  1  0
  6  7  1  0
  7  8  2  0
  8  9  1  0
  9 10  1  0
 10 11  1  0
 10 12  1  0
 10 13  1  0
  9 14  2  0
 14 15  1  0
 15 16  3  0
 14 17  1  0
 17 18  1  0
 18 19  1  0
 19 20  2  0
 20 21  1  0
 21 22  1  0
 22 23  1  0
 23 24  1  0
 24 25  2  0
 24 26  1  0
 21 27  2  0
 27 28  1  0
 28 29  2  0
 29 30  1  0
 30 31  1  0
 17 32  2  0
  6 33  1  0
 33  3  1  0
 32  7  1  0
 29 19  1  0
  1 34  1  0
  1 35  1  0
  1 36  1  0
  2 37  1  0
  3 38  1  6
  4 39  1  0
  4 40  1  0
  5 41  1  0
  5 42  1  0
  8 43  1  0
 18 44  1  0
 20 45  1  0
 22 46  1  0
 22 47  1  0
 23 48  1  0
 23 49  1  0
 26 50  1  0
 27 51  1  0
 28 52  1  0
 31 53  1  0
 31 54  1  0
 31 55  1  0
 33 56  1  0
 33 57  1  0
M  END
>  <mol_id>  (1) 
107700

>  <source_index>  (1) 
7

>  <layer>  (1) 
L1

>  <uniprot>  (1) 
P50053

>  <paff>  (1) 
8.1308000000000007

>  <smiles>  (1) 
CN[C@H]1CCN(c2cc(C(F)(F)F)c(C#N)c(Nc3cc(CCC(=O)O)ccc3SC)n2)C1

$$$$
