L1:P50053:132156


 30 32  0  0  0  0  0  0  0  0999 V2000
   -3.8195    0.5105   18.4348 C   0  0  0  0  0  0  0  0  0  0  0  0
   -4.1154   -0.4556   19.3370 N   0  0  0  0  0  0  0  0  0  0  0  0
   -3.6434   -1.7124   19.2114 C   0  0  0  0  0  0  0  0  0  0  0  0
   -2.8374   -2.0390   18.1337 C   0  0  0  0  0  0  0  0  0  0  0  0
   -2.5131   -1.0711   17.1727 C   0  0  0  0  0  0  0  0  0  0  0  0
   -3.0177    0.2273   17.3272 C   0  0  0  0  0  0  0  0  0  0  0  0
   -3.9851   -2.6208   20.1692 N   0  0  0  0  0  0  0  0  0  0  0  0
   -3.0800   -3.7081   20.5305 C   0  0  0  0  0  0  0  0  0  0  0  0
   -3.9478   -4.6322   21.3846 C   0  0  0  0  0  0  0  0  0  0  0  0
   -4.8881   -3.6569   22.0884 C   0  0  0  0  0  0  0  0  0  0  0  0
   -6.0446   -4.3292   22.6748 N   0  0  0  0  0  0  0  0  0  0  0  0
   -5.1973   -2.6303   20.9738 C   0  0  0  0  0  0  0  0  0  0  0  0
   -6.6894   -3.6399   23.0595 H   0  0  0  0  0  0  0  0  0  0  0  0
   -6.5603   -4.8323   21.9528 H   0  0  0  0  0  0  0  0  0  0  0  0
   -1.6390   -1.4340   16.0050 C   0  0  0  0  0  0  0  0  0  0  0  0
   -2.3327   -1.5016   14.8385 F   0  0  0  0  0  0  0  0  0  0  0  0
   -0.6361   -0.5379   15.7855 F   0  0  0  0  0  0  0  0  0  0  0  0
   -1.0282   -2.6371   16.1650 F   0  0  0  0  0  0  0  0  0  0  0  0
   -4.3653    1.7936   18.6147 N   0  0  0  0  0  0  0  0  0  0  0  0
   -3.8528    2.4101   19.2409 H   0  0  0  0  0  0  0  0  0  0  0  0
   -6.5730    2.5310   19.3580 C   0  0  0  0  0  0  0  0  0  0  0  0
   -7.8397    3.0667   19.0862 C   0  0  0  0  0  0  0  0  0  0  0  0
   -8.2046    3.3772   17.7779 C   0  0  0  0  0  0  0  0  0  0  0  0
   -7.3043    3.1601   16.7395 C   0  0  0  0  0  0  0  0  0  0  0  0
   -6.0363    2.6353   17.0065 C   0  0  0  0  0  0  0  0  0  0  0  0
   -5.6452    2.3123   18.3127 C   0  0  0  0  0  0  0  0  0  0  0  0
   -7.0950    0.6002   21.2284 C   0  0  0  0  0  0  0  0  0  0  0  0
   -6.1478    2.1358   21.0598 S   0  0  0  0  0  0  0  0  0  0  0  0
   -2.7172    1.2495   16.3696 C   0  0  0  0  0  0  0  0  0  0  0  0
   -2.4942    2.0879   15.5997 N   0  0  0  0  0  0  0  0  0  0  0  0
 27 28  1  0  0  0
 28 21  1  0  0  0
 21 22  2  0  0  0
 22 23  1  0  0  0
 23 24  2  0  0  0
 24 25  1  0  0  0
 25 26  2  0  0  0
 26 19  1  0  0  0
 19  1  1  0  0  0
  1  2  2  0  0  0
  2  3  1  0  0  0
  3  7  1  0  0  0
  7  8  1  0  0  0
  8  9  1  0  0  0
  9 10  1  0  0  0
 10 11  1  0  0  0
 10 12  1  0  0  0
  3  4  2  0  0  0
  4  5  1  0  0  0
  5 15  1  0  0  0
 15 16  1  0  0  0
 15 17  1  0  0  0
 15 18  1  0  0  0
  5  6  2  0  0  0
  6 29  1  0  0  0
 29 30  3  0  0  0
 26 21  1  0  0  0
  6  1  1  0  0  0
 12  7  1  0  0  0
 19 20  1  0  0  0
 11 13  1  0  0  0
 11 14  1  0  0  0
M  END
> <minimizedAffinity>
-8.02126

$$$$
