L1:P50053:132156
     RDKit          3D

 45 47  0  0  0  0  0  0  0  0999 V2000
    4.6479   -2.0229   -2.0911 C   0  0  0  0  0  0  0  0  0  0  0  0
    4.8831   -0.3755   -1.3740 S   0  0  0  0  0  0  0  0  0  0  0  0
    4.0510   -0.6426    0.1974 C   0  0  0  0  0  0  0  0  0  0  0  0
    4.6920   -1.4131    1.1777 C   0  0  0  0  0  0  0  0  0  0  0  0
    4.0724   -1.6462    2.4036 C   0  0  0  0  0  0  0  0  0  0  0  0
    2.8154   -1.1057    2.6563 C   0  0  0  0  0  0  0  0  0  0  0  0
    2.1763   -0.3284    1.6858 C   0  0  0  0  0  0  0  0  0  0  0  0
    2.7763   -0.0808    0.4440 C   0  0  0  0  0  0  0  0  0  0  0  0
    2.1606    0.7125   -0.5510 N   0  0  0  0  0  0  0  0  0  0  0  0
    0.8183    1.0860   -0.7390 C   0  0  0  0  0  0  0  0  0  0  0  0
   -0.1498    0.3730   -0.1149 N   0  0  0  0  0  0  0  0  0  0  0  0
   -1.4545    0.6914   -0.2348 C   0  0  0  0  0  0  0  0  0  0  0  0
   -2.3634   -0.0843    0.4221 N   0  0  0  0  0  0  0  0  0  0  0  0
   -1.9414   -1.2621    1.1749 C   0  0  0  0  0  0  0  0  0  0  0  0
   -3.2532   -1.9843    1.4816 C   0  0  0  0  0  0  0  0  0  0  0  0
   -4.2439   -0.8331    1.6367 C   0  0  2  0  0  0  0  0  0  0  0  0
   -5.6314   -1.2847    1.5701 N   0  0  0  0  0  0  0  0  0  0  0  0
   -3.7971    0.1423    0.5228 C   0  0  0  0  0  0  0  0  0  0  0  0
   -1.8284    1.7766   -1.0096 C   0  0  0  0  0  0  0  0  0  0  0  0
   -0.8578    2.5461   -1.6663 C   0  0  0  0  0  0  0  0  0  0  0  0
   -1.2717    3.7234   -2.5041 C   0  0  0  0  0  0  0  0  0  0  0  0
   -0.8960    3.5935   -3.8036 F   0  0  0  0  0  0  0  0  0  0  0  0
   -2.6202    3.9180   -2.5285 F   0  0  0  0  0  0  0  0  0  0  0  0
   -0.7397    4.8921   -2.0600 F   0  0  0  0  0  0  0  0  0  0  0  0
    0.4912    2.1934   -1.5241 C   0  0  0  0  0  0  0  0  0  0  0  0
    1.5195    2.9513   -2.1726 C   0  0  0  0  0  0  0  0  0  0  0  0
    2.3465    3.5544   -2.7181 N   0  0  0  0  0  0  0  0  0  0  0  0
    3.5834   -2.2666   -2.1486 H   0  0  0  0  0  0  0  0  0  0  0  0
    5.1627   -2.7821   -1.4961 H   0  0  0  0  0  0  0  0  0  0  0  0
    5.0626   -2.0358   -3.1025 H   0  0  0  0  0  0  0  0  0  0  0  0
    5.6787   -1.8311    0.9943 H   0  0  0  0  0  0  0  0  0  0  0  0
    4.5718   -2.2431    3.1623 H   0  0  0  0  0  0  0  0  0  0  0  0
    2.3297   -1.2789    3.6133 H   0  0  0  0  0  0  0  0  0  0  0  0
    1.2045    0.0957    1.9231 H   0  0  0  0  0  0  0  0  0  0  0  0
    2.7757    0.8507   -1.3494 H   0  0  0  0  0  0  0  0  0  0  0  0
   -1.4413   -0.9590    2.1021 H   0  0  0  0  0  0  0  0  0  0  0  0
   -1.2745   -1.9162    0.6023 H   0  0  0  0  0  0  0  0  0  0  0  0
   -3.5275   -2.6262    0.6344 H   0  0  0  0  0  0  0  0  0  0  0  0
   -3.1817   -2.6117    2.3753 H   0  0  0  0  0  0  0  0  0  0  0  0
   -4.0807   -0.3555    2.6116 H   0  0  0  0  0  0  0  0  0  0  0  0
   -6.2596   -0.4823    1.5914 H   0  0  0  0  0  0  0  0  0  0  0  0
   -5.8028   -1.7593    0.6837 H   0  0  0  0  0  0  0  0  0  0  0  0
   -4.2795   -0.0954   -0.4327 H   0  0  0  0  0  0  0  0  0  0  0  0
   -4.0453    1.1720    0.8030 H   0  0  0  0  0  0  0  0  0  0  0  0
   -2.8782    2.0343   -1.1166 H   0  0  0  0  0  0  0  0  0  0  0  0
  1  2  1  0
  2  3  1  0
  3  4  2  0
  4  5  1  0
  5  6  2  0
  6  7  1  0
  7  8  2  0
  8  9  1  0
  9 10  1  0
 10 11  2  0
 11 12  1  0
 12 13  1  0
 13 14  1  0
 14 15  1  0
 15 16  1  0
 16 17  1  0
 16 18  1  0
 12 19  2  0
 19 20  1  0
 20 21  1  0
 21 22  1  0
 21 23  1  0
 21 24  1  0
 20 25  2  0
 25 26  1  0
 26 27  3  0
  8  3  1  0
 25 10  1  0
 18 13  1  0
  1 28  1  0
  1 29  1  0
  1 30  1  0
  4 31  1  0
  5 32  1  0
  6 33  1  0
  7 34  1  0
  9 35  1  0
 14 36  1  0
 14 37  1  0
 15 38  1  0
 15 39  1  0
 16 40  1  1
 17 41  1  0
 17 42  1  0
 18 43  1  0
 18 44  1  0
 19 45  1  0
M  END
>  <mol_id>  (1) 
132156

>  <source_index>  (1) 
8

>  <layer>  (1) 
L1

>  <uniprot>  (1) 
P50053

>  <paff>  (1) 
8

>  <smiles>  (1) 
CSc1ccccc1Nc1nc(N2CC[C@H](N)C2)cc(C(F)(F)F)c1C#N

$$$$
