L1:P50053:139579
     RDKit          3D

 45 47  0  0  0  0  0  0  0  0999 V2000
   -2.3799    0.9081    2.2560 C   0  0  0  0  0  0  0  0  0  0  0  0
   -3.0243   -0.4846    1.2932 S   0  0  0  0  0  0  0  0  0  0  0  0
   -3.6973    0.4261   -0.1013 C   0  0  0  0  0  0  0  0  0  0  0  0
   -5.0963    0.5303   -0.1580 C   0  0  0  0  0  0  0  0  0  0  0  0
   -5.7168    1.2744   -1.1614 C   0  0  0  0  0  0  0  0  0  0  0  0
   -4.9455    1.9290   -2.1146 C   0  0  0  0  0  0  0  0  0  0  0  0
   -3.5548    1.8222   -2.0759 C   0  0  0  0  0  0  0  0  0  0  0  0
   -2.9103    1.0443   -1.0993 C   0  0  0  0  0  0  0  0  0  0  0  0
   -1.5030    1.0171   -1.1316 N   0  0  0  0  0  0  0  0  0  0  0  0
   -0.5941   -0.0297   -0.9750 C   0  0  0  0  0  0  0  0  0  0  0  0
    0.5645    0.3556   -0.3836 N   0  0  0  0  0  0  0  0  0  0  0  0
    1.5390   -0.5366   -0.1190 C   0  0  0  0  0  0  0  0  0  0  0  0
    2.6685   -0.0837    0.4973 N   0  0  0  0  0  0  0  0  0  0  0  0
    2.8139    1.3223    0.8727 C   0  0  0  0  0  0  0  0  0  0  0  0
    4.0493    1.3311    1.7785 C   0  0  2  0  0  0  0  0  0  0  0  0
    4.7403    2.5740    1.7686 O   0  0  0  0  0  0  0  0  0  0  0  0
    4.9101    0.2102    1.1861 C   0  0  1  0  0  0  0  0  0  0  0  0
    5.8590   -0.2610    2.1402 O   0  0  0  0  0  0  0  0  0  0  0  0
    3.8785   -0.8477    0.7655 C   0  0  0  0  0  0  0  0  0  0  0  0
    1.3666   -1.8669   -0.4658 C   0  0  0  0  0  0  0  0  0  0  0  0
    0.1925   -2.2886   -1.1094 C   0  0  0  0  0  0  0  0  0  0  0  0
    0.0331   -3.7307   -1.5061 C   0  0  0  0  0  0  0  0  0  0  0  0
   -0.0496   -3.8944   -2.8526 F   0  0  0  0  0  0  0  0  0  0  0  0
   -1.0756   -4.3058   -0.9723 F   0  0  0  0  0  0  0  0  0  0  0  0
    1.0778   -4.5114   -1.1069 F   0  0  0  0  0  0  0  0  0  0  0  0
   -0.8075   -1.3449   -1.3825 C   0  0  0  0  0  0  0  0  0  0  0  0
   -1.9793   -1.7278   -2.1152 C   0  0  0  0  0  0  0  0  0  0  0  0
   -2.8916   -2.0911   -2.7341 N   0  0  0  0  0  0  0  0  0  0  0  0
   -3.1809    1.6160    2.4865 H   0  0  0  0  0  0  0  0  0  0  0  0
   -1.5834    1.4271    1.7176 H   0  0  0  0  0  0  0  0  0  0  0  0
   -1.9695    0.5312    3.1966 H   0  0  0  0  0  0  0  0  0  0  0  0
   -5.7159    0.0370    0.5880 H   0  0  0  0  0  0  0  0  0  0  0  0
   -6.8010    1.3446   -1.1941 H   0  0  0  0  0  0  0  0  0  0  0  0
   -5.4242    2.5139   -2.8958 H   0  0  0  0  0  0  0  0  0  0  0  0
   -2.9666    2.3286   -2.8385 H   0  0  0  0  0  0  0  0  0  0  0  0
   -1.0721    1.8891   -0.8413 H   0  0  0  0  0  0  0  0  0  0  0  0
    1.9467    1.7039    1.4241 H   0  0  0  0  0  0  0  0  0  0  0  0
    2.9654    1.9508   -0.0131 H   0  0  0  0  0  0  0  0  0  0  0  0
    3.7739    1.1051    2.8158 H   0  0  0  0  0  0  0  0  0  0  0  0
    5.6258    2.4027    2.1410 H   0  0  0  0  0  0  0  0  0  0  0  0
    5.4692    0.5748    0.3162 H   0  0  0  0  0  0  0  0  0  0  0  0
    5.3748   -0.6109    2.9091 H   0  0  0  0  0  0  0  0  0  0  0  0
    4.2379   -1.3805   -0.1221 H   0  0  0  0  0  0  0  0  0  0  0  0
    3.7084   -1.5794    1.5636 H   0  0  0  0  0  0  0  0  0  0  0  0
    2.1439   -2.5937   -0.2472 H   0  0  0  0  0  0  0  0  0  0  0  0
  1  2  1  0
  2  3  1  0
  3  4  2  0
  4  5  1  0
  5  6  2  0
  6  7  1  0
  7  8  2  0
  8  9  1  0
  9 10  1  0
 10 11  2  0
 11 12  1  0
 12 13  1  0
 13 14  1  0
 14 15  1  0
 15 16  1  0
 15 17  1  0
 17 18  1  0
 17 19  1  0
 12 20  2  0
 20 21  1  0
 21 22  1  0
 22 23  1  0
 22 24  1  0
 22 25  1  0
 21 26  2  0
 26 27  1  0
 27 28  3  0
  8  3  1  0
 26 10  1  0
 19 13  1  0
  1 29  1  0
  1 30  1  0
  1 31  1  0
  4 32  1  0
  5 33  1  0
  6 34  1  0
  7 35  1  0
  9 36  1  0
 14 37  1  0
 14 38  1  0
 15 39  1  1
 16 40  1  0
 17 41  1  6
 18 42  1  0
 19 43  1  0
 19 44  1  0
 20 45  1  0
M  END
>  <mol_id>  (1) 
139579

>  <source_index>  (1) 
9

>  <layer>  (1) 
L1

>  <uniprot>  (1) 
P50053

>  <paff>  (1) 
7.6989999999999998

>  <smiles>  (1) 
CSc1ccccc1Nc1nc(N2C[C@H](O)[C@@H](O)C2)cc(C(F)(F)F)c1C#N

$$$$
