L1:P50053:167
     RDKit          3D

 45 47  0  0  0  0  0  0  0  0999 V2000
    4.4158   -2.2137   -2.2562 C   0  0  0  0  0  0  0  0  0  0  0  0
    4.7804   -0.5517   -1.6331 S   0  0  0  0  0  0  0  0  0  0  0  0
    4.0463   -0.7100    0.0004 C   0  0  0  0  0  0  0  0  0  0  0  0
    4.7302   -1.4464    0.9778 C   0  0  0  0  0  0  0  0  0  0  0  0
    4.1863   -1.5968    2.2518 C   0  0  0  0  0  0  0  0  0  0  0  0
    2.9626   -1.0077    2.5547 C   0  0  0  0  0  0  0  0  0  0  0  0
    2.2814   -0.2646    1.5862 C   0  0  0  0  0  0  0  0  0  0  0  0
    2.8052   -0.1000    0.2972 C   0  0  0  0  0  0  0  0  0  0  0  0
    2.1445    0.6567   -0.6970 N   0  0  0  0  0  0  0  0  0  0  0  0
    0.7990    1.0445   -0.8230 C   0  0  0  0  0  0  0  0  0  0  0  0
   -0.1432    0.3670   -0.1234 N   0  0  0  0  0  0  0  0  0  0  0  0
   -1.4489    0.6977   -0.1892 C   0  0  0  0  0  0  0  0  0  0  0  0
   -2.3343   -0.0451    0.5353 N   0  0  0  0  0  0  0  0  0  0  0  0
   -1.8782   -1.1416    1.3846 C   0  0  0  0  0  0  0  0  0  0  0  0
   -3.1182   -1.5073    2.2000 C   0  0  0  0  0  0  0  0  0  0  0  0
   -4.2579   -1.2296    1.2234 C   0  0  1  0  0  0  0  0  0  0  0  0
   -5.5539   -1.1535    1.8931 N   0  0  0  0  0  0  0  0  0  0  0  0
   -3.7854    0.0637    0.5190 C   0  0  0  0  0  0  0  0  0  0  0  0
   -1.8481    1.7664   -0.9748 C   0  0  0  0  0  0  0  0  0  0  0  0
   -0.9040    2.5001   -1.7067 C   0  0  0  0  0  0  0  0  0  0  0  0
   -1.3457    3.6597   -2.5548 C   0  0  0  0  0  0  0  0  0  0  0  0
   -1.0427    3.4872   -3.8683 F   0  0  0  0  0  0  0  0  0  0  0  0
   -2.6907    3.8747   -2.5128 F   0  0  0  0  0  0  0  0  0  0  0  0
   -0.7739    4.8319   -2.1741 F   0  0  0  0  0  0  0  0  0  0  0  0
    0.4452    2.1299   -1.6271 C   0  0  0  0  0  0  0  0  0  0  0  0
    1.4474    2.8499   -2.3550 C   0  0  0  0  0  0  0  0  0  0  0  0
    2.2515    3.4218   -2.9643 N   0  0  0  0  0  0  0  0  0  0  0  0
    3.3388   -2.4021   -2.2356 H   0  0  0  0  0  0  0  0  0  0  0  0
    4.9288   -2.9725   -1.6592 H   0  0  0  0  0  0  0  0  0  0  0  0
    4.7629   -2.2929   -3.2898 H   0  0  0  0  0  0  0  0  0  0  0  0
    5.6914   -1.9024    0.7541 H   0  0  0  0  0  0  0  0  0  0  0  0
    4.7189   -2.1674    3.0080 H   0  0  0  0  0  0  0  0  0  0  0  0
    2.5363   -1.1164    3.5487 H   0  0  0  0  0  0  0  0  0  0  0  0
    1.3384    0.2001    1.8606 H   0  0  0  0  0  0  0  0  0  0  0  0
    2.7119    0.7447   -1.5368 H   0  0  0  0  0  0  0  0  0  0  0  0
   -1.0608   -0.8495    2.0526 H   0  0  0  0  0  0  0  0  0  0  0  0
   -1.5564   -1.9894    0.7686 H   0  0  0  0  0  0  0  0  0  0  0  0
   -3.1871   -0.8536    3.0793 H   0  0  0  0  0  0  0  0  0  0  0  0
   -3.0945   -2.5446    2.5476 H   0  0  0  0  0  0  0  0  0  0  0  0
   -4.2960   -2.0409    0.4850 H   0  0  0  0  0  0  0  0  0  0  0  0
   -6.2752   -0.8845    1.2252 H   0  0  0  0  0  0  0  0  0  0  0  0
   -5.5372   -0.4243    2.6059 H   0  0  0  0  0  0  0  0  0  0  0  0
   -4.1968    0.1091   -0.4955 H   0  0  0  0  0  0  0  0  0  0  0  0
   -4.0974    0.9572    1.0726 H   0  0  0  0  0  0  0  0  0  0  0  0
   -2.8967    2.0461   -1.0229 H   0  0  0  0  0  0  0  0  0  0  0  0
  1  2  1  0
  2  3  1  0
  3  4  2  0
  4  5  1  0
  5  6  2  0
  6  7  1  0
  7  8  2  0
  8  9  1  0
  9 10  1  0
 10 11  2  0
 11 12  1  0
 12 13  1  0
 13 14  1  0
 14 15  1  0
 15 16  1  0
 16 17  1  0
 16 18  1  0
 12 19  2  0
 19 20  1  0
 20 21  1  0
 21 22  1  0
 21 23  1  0
 21 24  1  0
 20 25  2  0
 25 26  1  0
 26 27  3  0
  8  3  1  0
 25 10  1  0
 18 13  1  0
  1 28  1  0
  1 29  1  0
  1 30  1  0
  4 31  1  0
  5 32  1  0
  6 33  1  0
  7 34  1  0
  9 35  1  0
 14 36  1  0
 14 37  1  0
 15 38  1  0
 15 39  1  0
 16 40  1  6
 17 41  1  0
 17 42  1  0
 18 43  1  0
 18 44  1  0
 19 45  1  0
M  END
>  <mol_id>  (1) 
167

>  <source_index>  (1) 
0

>  <layer>  (1) 
L1

>  <uniprot>  (1) 
P50053

>  <paff>  (1) 
8.2596000000000007

>  <smiles>  (1) 
CSc1ccccc1Nc1nc(N2CC[C@@H](N)C2)cc(C(F)(F)F)c1C#N

$$$$
