L1:P50053:167
 OpenBabel09212617443D

 45 47  0  0  0  0  0  0  0  0999 V2000
   -3.4303   -1.1960   19.5033 C   0  0  0  0  0  0  0  0  0  0  0  0
   -4.4161   -0.4135   20.0055 N   0  0  0  0  0  0  0  0  0  0  0  0
   -5.3609   -0.9069   20.8315 C   0  0  0  0  0  0  0  0  0  0  0  0
   -5.3448   -2.2502   21.1691 C   0  0  0  0  0  0  0  0  0  0  0  0
   -4.3483   -3.0965   20.6632 C   0  0  0  0  0  0  0  0  0  0  0  0
   -3.3735   -2.5563   19.8137 C   0  0  0  0  0  0  0  0  0  0  0  0
   -6.3093   -0.0480   21.3042 N   0  0  0  0  0  0  0  0  0  0  0  0
   -7.5470   -0.5463   21.8969 C   0  0  0  0  0  0  0  0  0  0  0  0
   -8.1738    0.6983   22.5251 C   0  0  0  0  0  0  0  0  0  0  0  0
   -7.7412    1.8105   21.5735 C   0  0  1  0  0  0  0  0  0  0  0  0
   -7.9084    3.1374   22.1612 N   0  0  0  0  0  0  0  0  0  0  0  0
   -6.2899    1.4050   21.2249 C   0  0  0  0  0  0  0  0  0  0  0  0
   -7.5323    3.8460   21.5327 H   0  0  0  0  0  0  0  0  0  0  0  0
   -7.3719    3.2074   23.0257 H   0  0  0  0  0  0  0  0  0  0  0  0
   -4.3397   -4.5534   21.0329 C   0  0  0  0  0  0  0  0  0  0  0  0
   -3.3122   -4.8721   21.8633 F   0  0  0  0  0  0  0  0  0  0  0  0
   -5.4717   -4.9505   21.6793 F   0  0  0  0  0  0  0  0  0  0  0  0
   -4.2308   -5.3657   19.9493 F   0  0  0  0  0  0  0  0  0  0  0  0
   -2.4857   -0.6207   18.6353 N   0  0  0  0  0  0  0  0  0  0  0  0
   -1.8028   -0.0040   19.0691 H   0  0  0  0  0  0  0  0  0  0  0  0
   -2.9936    0.6519   16.6121 C   0  0  0  0  0  0  0  0  0  0  0  0
   -2.9631    0.7961   15.2179 C   0  0  0  0  0  0  0  0  0  0  0  0
   -2.4222   -0.2099   14.4199 C   0  0  0  0  0  0  0  0  0  0  0  0
   -1.9052   -1.3583   15.0115 C   0  0  0  0  0  0  0  0  0  0  0  0
   -1.9248   -1.5025   16.4019 C   0  0  0  0  0  0  0  0  0  0  0  0
   -2.4649   -0.5071   17.2267 C   0  0  0  0  0  0  0  0  0  0  0  0
   -4.8085    2.6832   16.3480 C   0  0  0  0  0  0  0  0  0  0  0  0
   -3.7112    1.9704   17.6015 S   0  0  0  0  0  0  0  0  0  0  0  0
   -2.3359   -3.3811   19.2700 C   0  0  0  0  0  0  0  0  0  0  0  0
   -1.4921   -4.0324   18.8129 N   0  0  0  0  0  0  0  0  0  0  0  0
   -6.0706   -2.6302   21.7967 H   0  0  0  0  0  0  0  0  0  0  0  0
   -7.3425   -1.2876   22.6409 H   0  0  0  0  0  0  0  0  0  0  0  0
   -8.1885   -1.0184   21.1824 H   0  0  0  0  0  0  0  0  0  0  0  0
   -7.7940    0.8653   23.5114 H   0  0  0  0  0  0  0  0  0  0  0  0
   -9.2353    0.6269   22.6392 H   0  0  0  0  0  0  0  0  0  0  0  0
   -8.3378    1.9016   20.6900 H   0  0  0  0  0  0  0  0  0  0  0  0
   -5.5988    1.8165   21.9306 H   0  0  0  0  0  0  0  0  0  0  0  0
   -5.9779    1.7639   20.2664 H   0  0  0  0  0  0  0  0  0  0  0  0
   -3.3427    1.6505   14.7810 H   0  0  0  0  0  0  0  0  0  0  0  0
   -2.4051   -0.1036   13.3935 H   0  0  0  0  0  0  0  0  0  0  0  0
   -1.5062   -2.1057   14.4222 H   0  0  0  0  0  0  0  0  0  0  0  0
   -1.5345   -2.3574   16.8283 H   0  0  0  0  0  0  0  0  0  0  0  0
   -5.3393    3.5117   16.7683 H   0  0  0  0  0  0  0  0  0  0  0  0
   -5.5066    1.9410   16.0214 H   0  0  0  0  0  0  0  0  0  0  0  0
   -4.2275    3.0178   15.5141 H   0  0  0  0  0  0  0  0  0  0  0  0
  1  2  2  0  0  0  0
  2  3  1  0  0  0  0
  3  7  1  0  0  0  0
  3  4  2  0  0  0  0
  4  5  1  0  0  0  0
  4 31  1  0  0  0  0
  5 15  1  0  0  0  0
  5  6  2  0  0  0  0
  6 29  1  0  0  0  0
  6  1  1  0  0  0  0
  7  8  1  0  0  0  0
  8  9  1  0  0  0  0
  8 32  1  0  0  0  0
  8 33  1  0  0  0  0
  9 10  1  0  0  0  0
  9 34  1  0  0  0  0
  9 35  1  0  0  0  0
 10 11  1  0  0  0  0
 10 12  1  0  0  0  0
 10 36  1  6  0  0  0
 11 13  1  0  0  0  0
 11 14  1  0  0  0  0
 12  7  1  0  0  0  0
 12 37  1  0  0  0  0
 12 38  1  0  0  0  0
 15 16  1  0  0  0  0
 15 17  1  0  0  0  0
 15 18  1  0  0  0  0
 19  1  1  0  0  0  0
 19 20  1  0  0  0  0
 21 22  2  0  0  0  0
 22 23  1  0  0  0  0
 22 39  1  0  0  0  0
 23 24  2  0  0  0  0
 23 40  1  0  0  0  0
 24 25  1  0  0  0  0
 24 41  1  0  0  0  0
 25 26  2  0  0  0  0
 25 42  1  0  0  0  0
 26 19  1  0  0  0  0
 26 21  1  0  0  0  0
 27 28  1  0  0  0  0
 27 43  1  0  0  0  0
 27 44  1  0  0  0  0
 27 45  1  0  0  0  0
 28 21  1  0  0  0  0
 29 30  3  0  0  0  0
M  END
>  <minimizedAffinity>
-8.30219

$$$$
