L1:P50053:19531
     RDKit          3D

 63 65  0  0  0  0  0  0  0  0999 V2000
    2.6381   -3.6835   -0.5586 C   0  0  0  0  0  0  0  0  0  0  0  0
    1.7361   -2.9305    0.8234 S   0  0  0  0  0  0  0  0  0  0  0  0
    2.8019   -1.5262    1.1761 C   0  0  0  0  0  0  0  0  0  0  0  0
    4.1530   -1.7635    1.4715 C   0  0  0  0  0  0  0  0  0  0  0  0
    5.0090   -0.7144    1.8121 C   0  0  0  0  0  0  0  0  0  0  0  0
    4.5254    0.5930    1.8929 C   0  0  0  0  0  0  0  0  0  0  0  0
    5.4493    1.7318    2.2503 C   0  0  0  0  0  0  0  0  0  0  0  0
    6.3565    2.1624    1.0908 C   0  0  1  0  0  0  0  0  0  0  0  0
    5.5956    2.8205   -0.0599 C   0  0  0  0  0  0  0  0  0  0  0  0
    7.4191    3.0852    1.6352 C   0  0  0  0  0  0  0  0  0  0  0  0
    8.5643    2.7665    1.9126 O   0  0  0  0  0  0  0  0  0  0  0  0
    6.9905    4.3400    1.8653 O   0  0  0  0  0  0  0  0  0  0  0  0
    3.1716    0.8306    1.6231 C   0  0  0  0  0  0  0  0  0  0  0  0
    2.3052   -0.2051    1.2319 C   0  0  0  0  0  0  0  0  0  0  0  0
    0.9510    0.1308    1.0476 N   0  0  0  0  0  0  0  0  0  0  0  0
    0.0808   -0.0720   -0.0236 C   0  0  0  0  0  0  0  0  0  0  0  0
   -1.2213   -0.1247    0.3519 N   0  0  0  0  0  0  0  0  0  0  0  0
   -2.2001   -0.3419   -0.5498 C   0  0  0  0  0  0  0  0  0  0  0  0
   -3.4851   -0.3993   -0.0984 N   0  0  0  0  0  0  0  0  0  0  0  0
   -3.7897   -0.3505    1.3244 C   0  0  0  0  0  0  0  0  0  0  0  0
   -5.2604   -0.7601    1.3968 C   0  0  0  0  0  0  0  0  0  0  0  0
   -5.8450   -0.2163    0.0856 C   0  0  2  0  0  0  0  0  0  0  0  0
   -7.1586   -0.7880   -0.2761 N   0  0  0  0  0  0  0  0  0  0  0  0
   -8.1692   -0.5179    0.7509 C   0  0  0  0  0  0  0  0  0  0  0  0
   -7.6274   -0.2717   -1.5659 C   0  0  0  0  0  0  0  0  0  0  0  0
   -4.6912   -0.5329   -0.9045 C   0  0  0  0  0  0  0  0  0  0  0  0
   -1.8785   -0.4980   -1.8878 C   0  0  0  0  0  0  0  0  0  0  0  0
   -0.5438   -0.4168   -2.3119 C   0  0  0  0  0  0  0  0  0  0  0  0
   -0.2117   -0.5753   -3.7697 C   0  0  0  0  0  0  0  0  0  0  0  0
   -1.3018   -0.8399   -4.5441 F   0  0  0  0  0  0  0  0  0  0  0  0
    0.3510    0.5419   -4.3011 F   0  0  0  0  0  0  0  0  0  0  0  0
    0.6561   -1.5962   -4.0000 F   0  0  0  0  0  0  0  0  0  0  0  0
    0.4590   -0.1838   -1.3592 C   0  0  0  0  0  0  0  0  0  0  0  0
    1.8216   -0.0300   -1.7764 C   0  0  0  0  0  0  0  0  0  0  0  0
    2.9052    0.0873   -2.1761 N   0  0  0  0  0  0  0  0  0  0  0  0
    2.0236   -4.4782   -0.9902 H   0  0  0  0  0  0  0  0  0  0  0  0
    3.5775   -4.1260   -0.2182 H   0  0  0  0  0  0  0  0  0  0  0  0
    2.8437   -2.9453   -1.3377 H   0  0  0  0  0  0  0  0  0  0  0  0
    4.5548   -2.7735    1.4599 H   0  0  0  0  0  0  0  0  0  0  0  0
    6.0538   -0.9300    2.0270 H   0  0  0  0  0  0  0  0  0  0  0  0
    4.8633    2.5874    2.6121 H   0  0  0  0  0  0  0  0  0  0  0  0
    6.0580    1.4205    3.1105 H   0  0  0  0  0  0  0  0  0  0  0  0
    6.8860    1.2925    0.6804 H   0  0  0  0  0  0  0  0  0  0  0  0
    4.9597    3.6400    0.2928 H   0  0  0  0  0  0  0  0  0  0  0  0
    6.2904    3.2359   -0.7982 H   0  0  0  0  0  0  0  0  0  0  0  0
    4.9572    2.0962   -0.5753 H   0  0  0  0  0  0  0  0  0  0  0  0
    7.7797    4.7994    2.2222 H   0  0  0  0  0  0  0  0  0  0  0  0
    2.7812    1.8449    1.6901 H   0  0  0  0  0  0  0  0  0  0  0  0
    0.4191    0.1773    1.9114 H   0  0  0  0  0  0  0  0  0  0  0  0
   -3.1763   -1.0402    1.9148 H   0  0  0  0  0  0  0  0  0  0  0  0
   -3.6536    0.6683    1.7053 H   0  0  0  0  0  0  0  0  0  0  0  0
   -5.7439   -0.3527    2.2898 H   0  0  0  0  0  0  0  0  0  0  0  0
   -5.3403   -1.8544    1.4307 H   0  0  0  0  0  0  0  0  0  0  0  0
   -5.9292    0.8773    0.1761 H   0  0  0  0  0  0  0  0  0  0  0  0
   -7.9123   -1.0039    1.6975 H   0  0  0  0  0  0  0  0  0  0  0  0
   -8.2964    0.5556    0.9315 H   0  0  0  0  0  0  0  0  0  0  0  0
   -9.1398   -0.9330    0.4554 H   0  0  0  0  0  0  0  0  0  0  0  0
   -6.9460   -0.5527   -2.3754 H   0  0  0  0  0  0  0  0  0  0  0  0
   -7.7301    0.8195   -1.5599 H   0  0  0  0  0  0  0  0  0  0  0  0
   -8.5995   -0.7068   -1.8251 H   0  0  0  0  0  0  0  0  0  0  0  0
   -4.7680   -1.5565   -1.2906 H   0  0  0  0  0  0  0  0  0  0  0  0
   -4.7078    0.1726   -1.7426 H   0  0  0  0  0  0  0  0  0  0  0  0
   -2.6612   -0.6857   -2.6175 H   0  0  0  0  0  0  0  0  0  0  0  0
  1  2  1  0
  2  3  1  0
  3  4  2  0
  4  5  1  0
  5  6  2  0
  6  7  1  0
  7  8  1  0
  8  9  1  0
  8 10  1  0
 10 11  2  0
 10 12  1  0
  6 13  1  0
 13 14  2  0
 14 15  1  0
 15 16  1  0
 16 17  2  0
 17 18  1  0
 18 19  1  0
 19 20  1  0
 20 21  1  0
 21 22  1  0
 22 23  1  0
 23 24  1  0
 23 25  1  0
 22 26  1  0
 18 27  2  0
 27 28  1  0
 28 29  1  0
 29 30  1  0
 29 31  1  0
 29 32  1  0
 28 33  2  0
 33 34  1  0
 34 35  3  0
 14  3  1  0
 33 16  1  0
 26 19  1  0
  1 36  1  0
  1 37  1  0
  1 38  1  0
  4 39  1  0
  5 40  1  0
  7 41  1  0
  7 42  1  0
  8 43  1  6
  9 44  1  0
  9 45  1  0
  9 46  1  0
 12 47  1  0
 13 48  1  0
 15 49  1  0
 20 50  1  0
 20 51  1  0
 21 52  1  0
 21 53  1  0
 22 54  1  1
 24 55  1  0
 24 56  1  0
 24 57  1  0
 25 58  1  0
 25 59  1  0
 25 60  1  0
 26 61  1  0
 26 62  1  0
 27 63  1  0
M  END
>  <mol_id>  (1) 
19531

>  <source_index>  (1) 
1

>  <layer>  (1) 
L1

>  <uniprot>  (1) 
P50053

>  <paff>  (1) 
7.5686

>  <smiles>  (1) 
CSc1ccc(CC(C)C(=O)O)cc1Nc1nc(N2CC[C@H](N(C)C)C2)cc(C(F)(F)F)c1C#N

$$$$
