L1:P50053:19531
 OpenBabel09212617443D

 63 65  0  0  0  0  0  0  0  0999 V2000
   -3.6639    0.4537   18.2699 C   0  0  0  0  0  0  0  0  0  0  0  0
   -4.3619    1.5297   17.8289 N   0  0  0  0  0  0  0  0  0  0  0  0
   -4.2759    1.9408   16.5476 C   0  0  0  0  0  0  0  0  0  0  0  0
   -3.4488    1.2670   15.6645 C   0  0  0  0  0  0  0  0  0  0  0  0
   -2.6896    0.1701   16.0983 C   0  0  0  0  0  0  0  0  0  0  0  0
   -2.7882   -0.2379   17.4367 C   0  0  0  0  0  0  0  0  0  0  0  0
   -5.0189    3.0197   16.1703 N   0  0  0  0  0  0  0  0  0  0  0  0
   -6.4644    3.0399   16.3422 C   0  0  0  0  0  0  0  0  0  0  0  0
   -6.9128    4.2469   15.5188 C   0  0  0  0  0  0  0  0  0  0  0  0
   -5.7347    5.2225   15.6489 C   0  0  1  0  0  0  0  0  0  0  0  0
   -4.5316    4.2453   15.5517 C   0  0  0  0  0  0  0  0  0  0  0  0
   -5.7392    6.3152   14.6543 N   0  0  0  0  0  0  0  0  0  0  0  0
   -4.4850    7.0737   14.6759 C   0  0  0  0  0  0  0  0  0  0  0  0
   -5.9730    5.8025   13.3006 C   0  0  0  0  0  0  0  0  0  0  0  0
   -1.7861   -0.5431   15.1310 C   0  0  0  0  0  0  0  0  0  0  0  0
   -1.9342   -0.1193   13.8440 F   0  0  0  0  0  0  0  0  0  0  0  0
   -0.4698   -0.3712   15.4227 F   0  0  0  0  0  0  0  0  0  0  0  0
   -2.0069   -1.8843   15.1013 F   0  0  0  0  0  0  0  0  0  0  0  0
   -3.9012    0.1610   19.6129 N   0  0  0  0  0  0  0  0  0  0  0  0
   -3.0191    0.1406   20.1156 H   0  0  0  0  0  0  0  0  0  0  0  0
   -5.7929   -0.6510   21.0093 C   0  0  0  0  0  0  0  0  0  0  0  0
   -6.9472   -0.3223   21.7363 C   0  0  0  0  0  0  0  0  0  0  0  0
   -7.3352    1.0081   21.9055 C   0  0  0  0  0  0  0  0  0  0  0  0
   -6.5924    2.0389   21.3263 C   0  0  0  0  0  0  0  0  0  0  0  0
   -5.4533    1.7133   20.5789 C   0  0  0  0  0  0  0  0  0  0  0  0
   -5.0197    0.3835   20.4375 C   0  0  0  0  0  0  0  0  0  0  0  0
   -5.7903   -3.0482   22.4035 C   0  0  0  0  0  0  0  0  0  0  0  0
   -5.3940   -2.3865   20.7616 S   0  0  0  0  0  0  0  0  0  0  0  0
   -7.0019    3.4793   21.5153 C   0  0  0  0  0  0  0  0  0  0  0  0
   -6.3711    4.4280   20.4882 C   0  0  1  0  0  0  0  0  0  0  0  0
   -7.3861    5.0261   19.5144 C   0  0  0  0  0  0  0  0  0  0  0  0
   -5.6315    5.5121   21.2330 C   0  0  0  0  0  0  0  0  0  0  0  0
   -6.1048    6.5780   21.5934 O   0  0  0  0  0  0  0  0  0  0  0  0
   -4.3285    5.2454   21.4386 O   0  0  0  0  0  0  0  0  0  0  0  0
   -3.9954    6.0368   21.9120 H   0  0  0  0  0  0  0  0  0  0  0  0
   -1.9725   -1.3130   17.9198 C   0  0  0  0  0  0  0  0  0  0  0  0
   -1.3525   -2.1891   18.3621 N   0  0  0  0  0  0  0  0  0  0  0  0
   -3.3906    1.5739   14.6809 H   0  0  0  0  0  0  0  0  0  0  0  0
   -6.7240    3.1639   17.3728 H   0  0  0  0  0  0  0  0  0  0  0  0
   -6.9310    2.1292   16.0293 H   0  0  0  0  0  0  0  0  0  0  0  0
   -7.8088    4.6727   15.9198 H   0  0  0  0  0  0  0  0  0  0  0  0
   -7.1401    3.9990   14.5031 H   0  0  0  0  0  0  0  0  0  0  0  0
   -5.7393    5.7994   16.5501 H   0  0  0  0  0  0  0  0  0  0  0  0
   -3.6863    4.6293   16.0837 H   0  0  0  0  0  0  0  0  0  0  0  0
   -4.2048    4.0950   14.5440 H   0  0  0  0  0  0  0  0  0  0  0  0
   -4.3121    7.4490   15.6629 H   0  0  0  0  0  0  0  0  0  0  0  0
   -4.5512    7.8920   13.9897 H   0  0  0  0  0  0  0  0  0  0  0  0
   -3.6762    6.4338   14.3909 H   0  0  0  0  0  0  0  0  0  0  0  0
   -6.8881    5.2483   13.2822 H   0  0  0  0  0  0  0  0  0  0  0  0
   -5.1632    5.1634   13.0165 H   0  0  0  0  0  0  0  0  0  0  0  0
   -6.0382    6.6216   12.6153 H   0  0  0  0  0  0  0  0  0  0  0  0
   -7.5177   -1.0751   22.1520 H   0  0  0  0  0  0  0  0  0  0  0  0
   -8.1755    1.2309   22.4616 H   0  0  0  0  0  0  0  0  0  0  0  0
   -4.9192    2.4682   20.1208 H   0  0  0  0  0  0  0  0  0  0  0  0
   -5.6006   -4.1011   22.4190 H   0  0  0  0  0  0  0  0  0  0  0  0
   -6.8225   -2.8685   22.6209 H   0  0  0  0  0  0  0  0  0  0  0  0
   -5.1816   -2.5653   23.1391 H   0  0  0  0  0  0  0  0  0  0  0  0
   -6.7039    3.7917   22.4943 H   0  0  0  0  0  0  0  0  0  0  0  0
   -8.0625    3.5278   21.3827 H   0  0  0  0  0  0  0  0  0  0  0  0
   -5.6961    3.8613   19.8814 H   0  0  0  0  0  0  0  0  0  0  0  0
   -8.0989    5.6113   20.0570 H   0  0  0  0  0  0  0  0  0  0  0  0
   -7.8917    4.2375   18.9972 H   0  0  0  0  0  0  0  0  0  0  0  0
   -6.8782    5.6482   18.8073 H   0  0  0  0  0  0  0  0  0  0  0  0
  1  2  2  0  0  0  0
  2  3  1  0  0  0  0
  3  7  1  0  0  0  0
  3  4  2  0  0  0  0
  4  5  1  0  0  0  0
  4 38  1  0  0  0  0
  5 15  1  0  0  0  0
  5  6  2  0  0  0  0
  6 36  1  0  0  0  0
  6  1  1  0  0  0  0
  7  8  1  0  0  0  0
  8  9  1  0  0  0  0
  8 39  1  0  0  0  0
  8 40  1  0  0  0  0
  9 10  1  0  0  0  0
  9 41  1  0  0  0  0
  9 42  1  0  0  0  0
 10 12  1  0  0  0  0
 10 11  1  0  0  0  0
 10 43  1  1  0  0  0
 11  7  1  0  0  0  0
 11 44  1  0  0  0  0
 11 45  1  0  0  0  0
 12 13  1  0  0  0  0
 12 14  1  0  0  0  0
 13 46  1  0  0  0  0
 13 47  1  0  0  0  0
 13 48  1  0  0  0  0
 14 49  1  0  0  0  0
 14 50  1  0  0  0  0
 14 51  1  0  0  0  0
 15 16  1  0  0  0  0
 15 17  1  0  0  0  0
 15 18  1  0  0  0  0
 19  1  1  0  0  0  0
 19 20  1  0  0  0  0
 21 22  2  0  0  0  0
 22 23  1  0  0  0  0
 22 52  1  0  0  0  0
 23 24  2  0  0  0  0
 23 53  1  0  0  0  0
 24 29  1  0  0  0  0
 24 25  1  0  0  0  0
 25 26  2  0  0  0  0
 25 54  1  0  0  0  0
 26 19  1  0  0  0  0
 26 21  1  0  0  0  0
 27 28  1  0  0  0  0
 27 55  1  0  0  0  0
 27 56  1  0  0  0  0
 27 57  1  0  0  0  0
 28 21  1  0  0  0  0
 29 30  1  0  0  0  0
 29 58  1  0  0  0  0
 29 59  1  0  0  0  0
 30 31  1  0  0  0  0
 30 32  1  0  0  0  0
 30 60  1  6  0  0  0
 31 61  1  0  0  0  0
 31 62  1  0  0  0  0
 31 63  1  0  0  0  0
 32 33  2  0  0  0  0
 32 34  1  0  0  0  0
 34 35  1  0  0  0  0
 36 37  3  0  0  0  0
M  END
>  <minimizedAffinity>
-8.62125

$$$$
