L1:P50053:24618


 28 30  0  0  0  0  0  0  0  0999 V2000
   -3.1939   -0.9644   18.0505 C   0  0  0  0  0  0  0  0  0  0  0  0
   -4.1321   -0.1337   18.5779 N   0  0  0  0  0  0  0  0  0  0  0  0
   -4.7900   -0.4273   19.7171 C   0  0  0  0  0  0  0  0  0  0  0  0
   -4.5104   -1.6073   20.3813 C   0  0  0  0  0  0  0  0  0  0  0  0
   -3.5401   -2.4868   19.8816 C   0  0  0  0  0  0  0  0  0  0  0  0
   -2.8633   -2.1553   18.6954 C   0  0  0  0  0  0  0  0  0  0  0  0
   -2.4670    1.9105   16.5254 C   0  0  0  0  0  0  0  0  0  0  0  0
   -2.8259    0.5532   15.9440 C   0  0  0  0  0  0  0  0  0  0  0  0
   -1.7377   -0.0880   15.0630 C   0  0  0  0  0  0  0  0  0  0  0  0
   -1.3678   -0.9240   16.2898 C   0  0  0  0  0  0  0  0  0  0  0  0
   -2.6138   -0.5207   16.8596 N   0  0  0  0  0  0  0  0  0  0  0  0
   -5.7204    0.4629   20.1701 N   0  0  0  0  0  0  0  0  0  0  0  0
   -6.7723    0.0408   21.0862 C   0  0  0  0  0  0  0  0  0  0  0  0
   -7.3836    1.3598   21.5530 C   0  0  0  0  0  0  0  0  0  0  0  0
   -7.2230    2.2682   20.3324 C   0  0  0  0  0  0  0  0  0  0  0  0
   -5.8424    1.8612   19.7928 C   0  0  0  0  0  0  0  0  0  0  0  0
   -7.3531    3.7529   20.6865 C   0  0  0  0  0  0  0  0  0  0  0  0
   -6.4078    4.2081   21.7996 C   0  0  0  0  0  0  0  0  0  0  0  0
   -5.6617    5.4700   21.4547 C   0  0  0  0  0  0  0  0  0  0  0  0
   -6.1006    6.6061   21.4274 O   0  0  0  0  0  0  0  0  0  0  0  0
   -4.3655    5.2269   21.1808 O   0  0  0  0  0  0  0  0  0  0  0  0
   -3.9888    6.1131   20.9947 H   0  0  0  0  0  0  0  0  0  0  0  0
   -3.2375   -3.7599   20.6238 C   0  0  0  0  0  0  0  0  0  0  0  0
   -1.9180   -3.8989   20.9371 F   0  0  0  0  0  0  0  0  0  0  0  0
   -3.5626   -4.8699   19.9105 F   0  0  0  0  0  0  0  0  0  0  0  0
   -3.9039   -3.8465   21.8053 F   0  0  0  0  0  0  0  0  0  0  0  0
   -1.8389   -3.0250   18.2017 C   0  0  0  0  0  0  0  0  0  0  0  0
   -0.9951   -3.7368   17.8432 N   0  0  0  0  0  0  0  0  0  0  0  0
  7  8  1  0  0  0
  8  9  1  0  0  0
  9 10  1  0  0  0
 10 11  1  0  0  0
 11  1  1  0  0  0
  1  2  2  0  0  0
  2  3  1  0  0  0
  3 12  1  0  0  0
 12 13  1  0  0  0
 13 14  1  0  0  0
 14 15  1  0  0  0
 15 17  1  0  0  0
 17 18  1  0  0  0
 18 19  1  0  0  0
 19 20  2  0  0  0
 19 21  1  0  0  0
 15 16  1  0  0  0
  3  4  2  0  0  0
  4  5  1  0  0  0
  5 23  1  0  0  0
 23 24  1  0  0  0
 23 25  1  0  0  0
 23 26  1  0  0  0
  5  6  2  0  0  0
  6 27  1  0  0  0
 27 28  3  0  0  0
 11  8  1  0  0  0
  6  1  1  0  0  0
 16 12  1  0  0  0
 21 22  1  0  0  0
M  END
> <minimizedAffinity>
-8.85392

$$$$
