L1:P50053:24618
 OpenBabel09212617443D

 48 50  0  0  0  0  0  0  0  0999 V2000
   -3.1939   -0.9644   18.0505 C   0  0  0  0  0  0  0  0  0  0  0  0
   -4.1321   -0.1337   18.5779 N   0  0  0  0  0  0  0  0  0  0  0  0
   -4.7900   -0.4273   19.7171 C   0  0  0  0  0  0  0  0  0  0  0  0
   -4.5104   -1.6073   20.3813 C   0  0  0  0  0  0  0  0  0  0  0  0
   -3.5401   -2.4868   19.8816 C   0  0  0  0  0  0  0  0  0  0  0  0
   -2.8633   -2.1553   18.6954 C   0  0  0  0  0  0  0  0  0  0  0  0
   -2.4670    1.9105   16.5254 C   0  0  0  0  0  0  0  0  0  0  0  0
   -2.8259    0.5532   15.9440 C   0  0  1  0  0  0  0  0  0  0  0  0
   -1.7377   -0.0880   15.0630 C   0  0  0  0  0  0  0  0  0  0  0  0
   -1.3678   -0.9240   16.2898 C   0  0  0  0  0  0  0  0  0  0  0  0
   -2.6138   -0.5207   16.8596 N   0  0  0  0  0  0  0  0  0  0  0  0
   -5.7204    0.4629   20.1701 N   0  0  0  0  0  0  0  0  0  0  0  0
   -6.7723    0.0408   21.0862 C   0  0  0  0  0  0  0  0  0  0  0  0
   -7.3836    1.3598   21.5530 C   0  0  0  0  0  0  0  0  0  0  0  0
   -7.2230    2.2682   20.3324 C   0  0  2  0  0  0  0  0  0  0  0  0
   -5.8424    1.8612   19.7928 C   0  0  0  0  0  0  0  0  0  0  0  0
   -7.3531    3.7529   20.6865 C   0  0  0  0  0  0  0  0  0  0  0  0
   -6.4078    4.2081   21.7996 C   0  0  0  0  0  0  0  0  0  0  0  0
   -5.6617    5.4700   21.4547 C   0  0  0  0  0  0  0  0  0  0  0  0
   -6.1006    6.6061   21.4274 O   0  0  0  0  0  0  0  0  0  0  0  0
   -4.3655    5.2269   21.1808 O   0  0  0  0  0  0  0  0  0  0  0  0
   -3.9888    6.1131   20.9947 H   0  0  0  0  0  0  0  0  0  0  0  0
   -3.2375   -3.7599   20.6238 C   0  0  0  0  0  0  0  0  0  0  0  0
   -1.9180   -3.8989   20.9371 F   0  0  0  0  0  0  0  0  0  0  0  0
   -3.5626   -4.8699   19.9105 F   0  0  0  0  0  0  0  0  0  0  0  0
   -3.9039   -3.8465   21.8053 F   0  0  0  0  0  0  0  0  0  0  0  0
   -1.8389   -3.0250   18.2017 C   0  0  0  0  0  0  0  0  0  0  0  0
   -0.9951   -3.7368   17.8432 N   0  0  0  0  0  0  0  0  0  0  0  0
   -5.0183   -1.8415   21.2486 H   0  0  0  0  0  0  0  0  0  0  0  0
   -2.6471    2.6706   15.7942 H   0  0  0  0  0  0  0  0  0  0  0  0
   -1.4331    1.9184   16.8009 H   0  0  0  0  0  0  0  0  0  0  0  0
   -3.0681    2.0982   17.3905 H   0  0  0  0  0  0  0  0  0  0  0  0
   -3.7886    0.7964   15.5452 H   0  0  0  0  0  0  0  0  0  0  0  0
   -0.9747    0.5842   14.7300 H   0  0  0  0  0  0  0  0  0  0  0  0
   -1.9591   -0.5323   14.1151 H   0  0  0  0  0  0  0  0  0  0  0  0
   -0.5031   -0.5820   16.8191 H   0  0  0  0  0  0  0  0  0  0  0  0
   -1.0931   -1.9548   16.2074 H   0  0  0  0  0  0  0  0  0  0  0  0
   -6.3653   -0.5059   21.9110 H   0  0  0  0  0  0  0  0  0  0  0  0
   -7.4863   -0.6129   20.6304 H   0  0  0  0  0  0  0  0  0  0  0  0
   -6.8536    1.7517   22.3958 H   0  0  0  0  0  0  0  0  0  0  0  0
   -8.3997    1.2621   21.8737 H   0  0  0  0  0  0  0  0  0  0  0  0
   -7.9911    2.1481   19.5972 H   0  0  0  0  0  0  0  0  0  0  0  0
   -5.0690    2.4466   20.2445 H   0  0  0  0  0  0  0  0  0  0  0  0
   -5.7490    2.0146   18.7380 H   0  0  0  0  0  0  0  0  0  0  0  0
   -8.3588    3.9375   21.0017 H   0  0  0  0  0  0  0  0  0  0  0  0
   -7.0903    4.3063   19.8092 H   0  0  0  0  0  0  0  0  0  0  0  0
   -5.6965    3.4301   21.9829 H   0  0  0  0  0  0  0  0  0  0  0  0
   -7.0044    4.4136   22.6637 H   0  0  0  0  0  0  0  0  0  0  0  0
  1  2  2  0  0  0  0
  2  3  1  0  0  0  0
  3 12  1  0  0  0  0
  3  4  2  0  0  0  0
  4  5  1  0  0  0  0
  4 29  1  0  0  0  0
  5 23  1  0  0  0  0
  5  6  2  0  0  0  0
  6 27  1  0  0  0  0
  6  1  1  0  0  0  0
  7  8  1  0  0  0  0
  7 30  1  0  0  0  0
  7 31  1  0  0  0  0
  7 32  1  0  0  0  0
  8  9  1  0  0  0  0
  8 33  1  6  0  0  0
  9 10  1  0  0  0  0
  9 34  1  0  0  0  0
  9 35  1  0  0  0  0
 10 11  1  0  0  0  0
 10 36  1  0  0  0  0
 10 37  1  0  0  0  0
 11  1  1  0  0  0  0
 11  8  1  0  0  0  0
 12 13  1  0  0  0  0
 13 14  1  0  0  0  0
 13 38  1  0  0  0  0
 13 39  1  0  0  0  0
 14 15  1  0  0  0  0
 14 40  1  0  0  0  0
 14 41  1  0  0  0  0
 15 17  1  0  0  0  0
 15 16  1  0  0  0  0
 15 42  1  6  0  0  0
 16 12  1  0  0  0  0
 16 43  1  0  0  0  0
 16 44  1  0  0  0  0
 17 18  1  0  0  0  0
 17 45  1  0  0  0  0
 17 46  1  0  0  0  0
 18 19  1  0  0  0  0
 18 47  1  0  0  0  0
 18 48  1  0  0  0  0
 19 20  2  0  0  0  0
 19 21  1  0  0  0  0
 21 22  1  0  0  0  0
 23 24  1  0  0  0  0
 23 25  1  0  0  0  0
 23 26  1  0  0  0  0
 27 28  3  0  0  0  0
M  END
>  <minimizedAffinity>
-8.85392

$$$$
