L1:P50053:24618
     RDKit          3D

 48 50  0  0  0  0  0  0  0  0999 V2000
   -5.2009   -1.8729   -0.5996 C   0  0  0  0  0  0  0  0  0  0  0  0
   -4.4603   -2.0901    0.7094 C   0  0  1  0  0  0  0  0  0  0  0  0
   -3.9954   -3.5359    0.9643 C   0  0  0  0  0  0  0  0  0  0  0  0
   -2.6174   -3.0797    0.4808 C   0  0  0  0  0  0  0  0  0  0  0  0
   -3.0795   -1.7372    0.6354 N   0  0  0  0  0  0  0  0  0  0  0  0
   -2.3423   -0.5578    0.5041 C   0  0  0  0  0  0  0  0  0  0  0  0
   -1.0454   -0.7282    0.1335 N   0  0  0  0  0  0  0  0  0  0  0  0
   -0.2087    0.3132   -0.0459 C   0  0  0  0  0  0  0  0  0  0  0  0
    1.0758    0.0483   -0.4243 N   0  0  0  0  0  0  0  0  0  0  0  0
    1.5126   -1.3195   -0.6742 C   0  0  0  0  0  0  0  0  0  0  0  0
    2.8761   -1.1387   -1.3372 C   0  0  0  0  0  0  0  0  0  0  0  0
    3.4144    0.1350   -0.6824 C   0  0  1  0  0  0  0  0  0  0  0  0
    4.5568    0.7671   -1.4836 C   0  0  0  0  0  0  0  0  0  0  0  0
    5.1337    2.0319   -0.8453 C   0  0  0  0  0  0  0  0  0  0  0  0
    5.9092    1.7506    0.4146 C   0  0  0  0  0  0  0  0  0  0  0  0
    6.3297    0.6745    0.8009 O   0  0  0  0  0  0  0  0  0  0  0  0
    6.1390    2.8730    1.1229 O   0  0  0  0  0  0  0  0  0  0  0  0
    2.1557    1.0101   -0.5699 C   0  0  0  0  0  0  0  0  0  0  0  0
   -0.6711    1.6013    0.1511 C   0  0  0  0  0  0  0  0  0  0  0  0
   -1.9970    1.8233    0.5477 C   0  0  0  0  0  0  0  0  0  0  0  0
   -2.4807    3.2301    0.7717 C   0  0  0  0  0  0  0  0  0  0  0  0
   -1.5295    4.1727    0.5164 F   0  0  0  0  0  0  0  0  0  0  0  0
   -2.8765    3.4482    2.0533 F   0  0  0  0  0  0  0  0  0  0  0  0
   -3.5357    3.5521   -0.0225 F   0  0  0  0  0  0  0  0  0  0  0  0
   -2.8482    0.7207    0.7344 C   0  0  0  0  0  0  0  0  0  0  0  0
   -4.1907    0.9346    1.1832 C   0  0  0  0  0  0  0  0  0  0  0  0
   -5.2718    1.1517    1.5456 N   0  0  0  0  0  0  0  0  0  0  0  0
   -5.3439   -0.8086   -0.8076 H   0  0  0  0  0  0  0  0  0  0  0  0
   -4.6723   -2.3123   -1.4529 H   0  0  0  0  0  0  0  0  0  0  0  0
   -6.1935   -2.3331   -0.5518 H   0  0  0  0  0  0  0  0  0  0  0  0
   -4.9721   -1.6630    1.5774 H   0  0  0  0  0  0  0  0  0  0  0  0
   -4.0215   -3.8333    2.0189 H   0  0  0  0  0  0  0  0  0  0  0  0
   -4.4703   -4.3153    0.3618 H   0  0  0  0  0  0  0  0  0  0  0  0
   -1.7844   -3.3383    1.1393 H   0  0  0  0  0  0  0  0  0  0  0  0
   -2.3794   -3.3226   -0.5593 H   0  0  0  0  0  0  0  0  0  0  0  0
    0.8373   -1.8688   -1.3396 H   0  0  0  0  0  0  0  0  0  0  0  0
    1.6113   -1.8650    0.2715 H   0  0  0  0  0  0  0  0  0  0  0  0
    3.5286   -2.0032   -1.1826 H   0  0  0  0  0  0  0  0  0  0  0  0
    2.7492   -0.9952   -2.4176 H   0  0  0  0  0  0  0  0  0  0  0  0
    3.7601   -0.1199    0.3283 H   0  0  0  0  0  0  0  0  0  0  0  0
    4.1970    1.0220   -2.4886 H   0  0  0  0  0  0  0  0  0  0  0  0
    5.3542    0.0254   -1.6181 H   0  0  0  0  0  0  0  0  0  0  0  0
    5.8252    2.5057   -1.5513 H   0  0  0  0  0  0  0  0  0  0  0  0
    4.3324    2.7437   -0.6216 H   0  0  0  0  0  0  0  0  0  0  0  0
    6.6600    2.5673    1.8955 H   0  0  0  0  0  0  0  0  0  0  0  0
    2.0011    1.6131   -1.4721 H   0  0  0  0  0  0  0  0  0  0  0  0
    2.2369    1.6749    0.2972 H   0  0  0  0  0  0  0  0  0  0  0  0
   -0.0079    2.4480   -0.0001 H   0  0  0  0  0  0  0  0  0  0  0  0
  1  2  1  0
  2  3  1  0
  3  4  1  0
  4  5  1  0
  5  6  1  0
  6  7  2  0
  7  8  1  0
  8  9  1  0
  9 10  1  0
 10 11  1  0
 11 12  1  0
 12 13  1  0
 13 14  1  0
 14 15  1  0
 15 16  2  0
 15 17  1  0
 12 18  1  0
  8 19  2  0
 19 20  1  0
 20 21  1  0
 21 22  1  0
 21 23  1  0
 21 24  1  0
 20 25  2  0
 25 26  1  0
 26 27  3  0
  5  2  1  0
 25  6  1  0
 18  9  1  0
  1 28  1  0
  1 29  1  0
  1 30  1  0
  2 31  1  1
  3 32  1  0
  3 33  1  0
  4 34  1  0
  4 35  1  0
 10 36  1  0
 10 37  1  0
 11 38  1  0
 11 39  1  0
 12 40  1  1
 13 41  1  0
 13 42  1  0
 14 43  1  0
 14 44  1  0
 17 45  1  0
 18 46  1  0
 18 47  1  0
 19 48  1  0
M  END
>  <mol_id>  (1) 
24618

>  <source_index>  (1) 
2

>  <layer>  (1) 
L1

>  <uniprot>  (1) 
P50053

>  <paff>  (1) 
7.8125

>  <smiles>  (1) 
C[C@H]1CCN1c1nc(N2CC[C@@H](CCC(=O)O)C2)cc(C(F)(F)F)c1C#N

$$$$
