L1:P50053:54615
 OpenBabel09212617453D

 59 61  0  0  0  0  0  0  0  0999 V2000
   -5.1973   -0.9310   20.1456 C   0  0  0  0  0  0  0  0  0  0  0  0
   -4.6528   -0.1666   19.1709 N   0  0  0  0  0  0  0  0  0  0  0  0
   -3.5933   -0.5888   18.4503 C   0  0  0  0  0  0  0  0  0  0  0  0
   -3.0422   -1.8324   18.7113 C   0  0  0  0  0  0  0  0  0  0  0  0
   -3.5742   -2.6501   19.7193 C   0  0  0  0  0  0  0  0  0  0  0  0
   -4.6753   -2.1871   20.4492 C   0  0  0  0  0  0  0  0  0  0  0  0
   -3.1211    0.2349   17.4718 N   0  0  0  0  0  0  0  0  0  0  0  0
   -2.9663    1.6599   17.7633 C   0  0  0  0  0  0  0  0  0  0  0  0
   -3.1160    2.3436   16.3832 C   0  0  2  0  0  0  0  0  0  0  0  0
   -4.5141    2.5612   15.9742 N   0  0  0  0  0  0  0  0  0  0  0  0
   -2.4697    1.3174   15.4619 C   0  0  0  0  0  0  0  0  0  0  0  0
   -2.9186   -0.0415   16.0416 C   0  0  1  0  0  0  0  0  0  0  0  0
   -4.5410    3.1903   15.1740 H   0  0  0  0  0  0  0  0  0  0  0  0
   -5.0180    3.0246   16.7305 H   0  0  0  0  0  0  0  0  0  0  0  0
   -1.8686   -1.1362   15.7672 C   0  0  0  0  0  0  0  0  0  0  0  0
   -2.4117   -2.2543   15.0650 O   0  0  0  0  0  0  0  0  0  0  0  0
   -1.6623   -2.7969   14.7679 H   0  0  0  0  0  0  0  0  0  0  0  0
   -2.9731   -3.9995   19.9892 C   0  0  0  0  0  0  0  0  0  0  0  0
   -3.8393   -5.0294   19.7757 F   0  0  0  0  0  0  0  0  0  0  0  0
   -2.5458   -4.1350   21.2718 F   0  0  0  0  0  0  0  0  0  0  0  0
   -1.8993   -4.2550   19.1949 F   0  0  0  0  0  0  0  0  0  0  0  0
   -6.3232   -0.4322   20.8328 N   0  0  0  0  0  0  0  0  0  0  0  0
   -6.5908   -0.9748   21.6445 H   0  0  0  0  0  0  0  0  0  0  0  0
   -8.1232    1.2852   20.7163 C   0  0  0  0  0  0  0  0  0  0  0  0
   -8.4600    2.6454   20.6404 C   0  0  0  0  0  0  0  0  0  0  0  0
   -7.4762    3.6326   20.7135 C   0  0  0  0  0  0  0  0  0  0  0  0
   -6.1345    3.2782   20.8683 C   0  0  0  0  0  0  0  0  0  0  0  0
   -5.7934    1.9193   20.9340 C   0  0  0  0  0  0  0  0  0  0  0  0
   -6.7694    0.9081   20.8564 C   0  0  0  0  0  0  0  0  0  0  0  0
  -10.7994    1.2323   20.1075 C   0  0  0  0  0  0  0  0  0  0  0  0
   -9.4990    0.1271   20.7141 S   0  0  0  0  0  0  0  0  0  0  0  0
   -5.0609    4.3376   20.9071 C   0  0  0  0  0  0  0  0  0  0  0  0
   -5.6380    5.7216   20.6253 C   0  0  0  0  0  0  0  0  0  0  0  0
   -4.8789    6.8022   21.3581 C   0  0  0  0  0  0  0  0  0  0  0  0
   -4.0405    7.5309   20.5659 N   0  0  0  0  0  0  0  0  0  0  0  0
   -4.9781    7.0379   22.5553 O   0  0  0  0  0  0  0  0  0  0  0  0
   -3.9304    7.3633   19.5757 H   0  0  0  0  0  0  0  0  0  0  0  0
   -3.5041    8.2706   21.0004 H   0  0  0  0  0  0  0  0  0  0  0  0
   -5.2733   -2.9837   21.4776 C   0  0  0  0  0  0  0  0  0  0  0  0
   -5.7592   -3.6477   22.2953 N   0  0  0  0  0  0  0  0  0  0  0  0
   -2.2338   -2.1600   18.1598 H   0  0  0  0  0  0  0  0  0  0  0  0
   -2.0029    1.8595   18.1840 H   0  0  0  0  0  0  0  0  0  0  0  0
   -3.6802    2.0138   18.4774 H   0  0  0  0  0  0  0  0  0  0  0  0
   -2.6832    3.3221   16.3738 H   0  0  0  0  0  0  0  0  0  0  0  0
   -1.4036    1.4060   15.4826 H   0  0  0  0  0  0  0  0  0  0  0  0
   -2.7575    1.4437   14.4391 H   0  0  0  0  0  0  0  0  0  0  0  0
   -3.8114   -0.4245   15.5931 H   0  0  0  0  0  0  0  0  0  0  0  0
   -1.4761   -1.4767   16.7026 H   0  0  0  0  0  0  0  0  0  0  0  0
   -1.1058   -0.7066   15.1520 H   0  0  0  0  0  0  0  0  0  0  0  0
   -9.4487    2.9194   20.5290 H   0  0  0  0  0  0  0  0  0  0  0  0
   -7.7413    4.6281   20.6529 H   0  0  0  0  0  0  0  0  0  0  0  0
   -4.8019    1.6542   21.0420 H   0  0  0  0  0  0  0  0  0  0  0  0
  -11.7220    0.6945   20.0404 H   0  0  0  0  0  0  0  0  0  0  0  0
  -10.5308    1.6018   19.1399 H   0  0  0  0  0  0  0  0  0  0  0  0
  -10.9137    2.0535   20.7838 H   0  0  0  0  0  0  0  0  0  0  0  0
   -4.3210    4.1113   20.1681 H   0  0  0  0  0  0  0  0  0  0  0  0
   -4.6284    4.3447   21.8858 H   0  0  0  0  0  0  0  0  0  0  0  0
   -6.6605    5.7417   20.9399 H   0  0  0  0  0  0  0  0  0  0  0  0
   -5.5565    5.9099   19.5751 H   0  0  0  0  0  0  0  0  0  0  0  0
  1  2  2  0  0  0  0
  2  3  1  0  0  0  0
  3  7  1  0  0  0  0
  3  4  2  0  0  0  0
  4  5  1  0  0  0  0
  4 41  1  0  0  0  0
  5 18  1  0  0  0  0
  5  6  2  0  0  0  0
  6 39  1  0  0  0  0
  6  1  1  0  0  0  0
  7  8  1  0  0  0  0
  8  9  1  0  0  0  0
  8 42  1  0  0  0  0
  8 43  1  0  0  0  0
  9 10  1  0  0  0  0
  9 11  1  0  0  0  0
  9 44  1  6  0  0  0
 10 13  1  0  0  0  0
 10 14  1  0  0  0  0
 11 12  1  0  0  0  0
 11 45  1  0  0  0  0
 11 46  1  0  0  0  0
 12 15  1  0  0  0  0
 12  7  1  0  0  0  0
 12 47  1  6  0  0  0
 15 16  1  0  0  0  0
 15 48  1  0  0  0  0
 15 49  1  0  0  0  0
 16 17  1  0  0  0  0
 18 19  1  0  0  0  0
 18 20  1  0  0  0  0
 18 21  1  0  0  0  0
 22  1  1  0  0  0  0
 22 23  1  0  0  0  0
 24 25  2  0  0  0  0
 25 26  1  0  0  0  0
 25 50  1  0  0  0  0
 26 27  2  0  0  0  0
 26 51  1  0  0  0  0
 27 32  1  0  0  0  0
 27 28  1  0  0  0  0
 28 29  2  0  0  0  0
 28 52  1  0  0  0  0
 29 22  1  0  0  0  0
 29 24  1  0  0  0  0
 30 31  1  0  0  0  0
 30 53  1  0  0  0  0
 30 54  1  0  0  0  0
 30 55  1  0  0  0  0
 31 24  1  0  0  0  0
 32 33  1  0  0  0  0
 32 56  1  0  0  0  0
 32 57  1  0  0  0  0
 33 34  1  0  0  0  0
 33 58  1  0  0  0  0
 33 59  1  0  0  0  0
 34 35  1  0  0  0  0
 34 36  2  0  0  0  0
 35 37  1  0  0  0  0
 35 38  1  0  0  0  0
 39 40  3  0  0  0  0
M  END
>  <minimizedAffinity>
-8.73047

$$$$
