L1:P50053:54615
     RDKit          3D

 59 61  0  0  0  0  0  0  0  0999 V2000
    0.6743   -4.5216    1.0292 C   0  0  0  0  0  0  0  0  0  0  0  0
    0.8768   -2.8406    1.6724 S   0  0  0  0  0  0  0  0  0  0  0  0
    1.7394   -2.1064    0.2756 C   0  0  0  0  0  0  0  0  0  0  0  0
    3.0879   -1.7789    0.4846 C   0  0  0  0  0  0  0  0  0  0  0  0
    3.8729   -1.2767   -0.5543 C   0  0  0  0  0  0  0  0  0  0  0  0
    3.3246   -1.0958   -1.8257 C   0  0  0  0  0  0  0  0  0  0  0  0
    4.1551   -0.5151   -2.9436 C   0  0  0  0  0  0  0  0  0  0  0  0
    4.0142    1.0028   -3.0074 C   0  0  0  0  0  0  0  0  0  0  0  0
    4.8394    1.5930   -4.1261 C   0  0  0  0  0  0  0  0  0  0  0  0
    4.7362    2.9486   -4.2409 N   0  0  0  0  0  0  0  0  0  0  0  0
    5.5521    0.9488   -4.8850 O   0  0  0  0  0  0  0  0  0  0  0  0
    1.9744   -1.4122   -2.0353 C   0  0  0  0  0  0  0  0  0  0  0  0
    1.1640   -1.9143   -0.9998 C   0  0  0  0  0  0  0  0  0  0  0  0
   -0.2070   -2.1117   -1.2783 N   0  0  0  0  0  0  0  0  0  0  0  0
   -1.2951   -1.5200   -0.6039 C   0  0  0  0  0  0  0  0  0  0  0  0
   -1.0701   -0.3887    0.1033 N   0  0  0  0  0  0  0  0  0  0  0  0
   -2.0545    0.2182    0.7981 C   0  0  0  0  0  0  0  0  0  0  0  0
   -1.7364    1.3418    1.5019 N   0  0  0  0  0  0  0  0  0  0  0  0
   -0.3368    1.5815    1.8529 C   0  0  0  0  0  0  0  0  0  0  0  0
   -0.4140    2.4376    3.1396 C   0  0  2  0  0  0  0  0  0  0  0  0
   -0.6056    1.6497    4.3692 N   0  0  0  0  0  0  0  0  0  0  0  0
   -1.6565    3.2774    2.8741 C   0  0  0  0  0  0  0  0  0  0  0  0
   -2.6261    2.3006    2.1742 C   0  0  1  0  0  0  0  0  0  0  0  0
   -3.5682    3.0488    1.2104 C   0  0  0  0  0  0  0  0  0  0  0  0
   -2.8625    3.8710    0.2807 O   0  0  0  0  0  0  0  0  0  0  0  0
   -3.3296   -0.3225    0.7891 C   0  0  0  0  0  0  0  0  0  0  0  0
   -3.6034   -1.4899    0.0612 C   0  0  0  0  0  0  0  0  0  0  0  0
   -4.9879   -2.0713    0.0639 C   0  0  0  0  0  0  0  0  0  0  0  0
   -5.8797   -1.3399    0.7894 F   0  0  0  0  0  0  0  0  0  0  0  0
   -5.0278   -3.3258    0.5842 F   0  0  0  0  0  0  0  0  0  0  0  0
   -5.5157   -2.1544   -1.1866 F   0  0  0  0  0  0  0  0  0  0  0  0
   -2.5618   -2.0994   -0.6484 C   0  0  0  0  0  0  0  0  0  0  0  0
   -2.7754   -3.3024   -1.3947 C   0  0  0  0  0  0  0  0  0  0  0  0
   -2.9451   -4.2646   -2.0199 N   0  0  0  0  0  0  0  0  0  0  0  0
    0.2252   -5.1475    1.8050 H   0  0  0  0  0  0  0  0  0  0  0  0
    0.0177   -4.5355    0.1561 H   0  0  0  0  0  0  0  0  0  0  0  0
    1.6446   -4.9479    0.7596 H   0  0  0  0  0  0  0  0  0  0  0  0
    3.5418   -1.9236    1.4625 H   0  0  0  0  0  0  0  0  0  0  0  0
    4.9148   -1.0304   -0.3617 H   0  0  0  0  0  0  0  0  0  0  0  0
    3.8522   -0.9690   -3.8961 H   0  0  0  0  0  0  0  0  0  0  0  0
    5.2071   -0.7962   -2.8043 H   0  0  0  0  0  0  0  0  0  0  0  0
    2.9665    1.2859   -3.1675 H   0  0  0  0  0  0  0  0  0  0  0  0
    4.3388    1.4588   -2.0639 H   0  0  0  0  0  0  0  0  0  0  0  0
    4.1563    3.5124   -3.6354 H   0  0  0  0  0  0  0  0  0  0  0  0
    5.2667    3.4025   -4.9731 H   0  0  0  0  0  0  0  0  0  0  0  0
    1.5377   -1.2343   -3.0160 H   0  0  0  0  0  0  0  0  0  0  0  0
   -0.4037   -2.3775   -2.2351 H   0  0  0  0  0  0  0  0  0  0  0  0
    0.2327    0.6634    2.0406 H   0  0  0  0  0  0  0  0  0  0  0  0
    0.1550    2.1415    1.0485 H   0  0  0  0  0  0  0  0  0  0  0  0
    0.4867    3.0497    3.2511 H   0  0  0  0  0  0  0  0  0  0  0  0
   -0.4397    2.2406    5.1817 H   0  0  0  0  0  0  0  0  0  0  0  0
    0.0879    0.9023    4.4018 H   0  0  0  0  0  0  0  0  0  0  0  0
   -1.3806    4.1147    2.2218 H   0  0  0  0  0  0  0  0  0  0  0  0
   -2.0977    3.7099    3.7790 H   0  0  0  0  0  0  0  0  0  0  0  0
   -3.2186    1.7709    2.9306 H   0  0  0  0  0  0  0  0  0  0  0  0
   -4.1886    2.3534    0.6386 H   0  0  0  0  0  0  0  0  0  0  0  0
   -4.2349    3.7014    1.7841 H   0  0  0  0  0  0  0  0  0  0  0  0
   -3.5006    4.1481   -0.3977 H   0  0  0  0  0  0  0  0  0  0  0  0
   -4.1191    0.1390    1.3741 H   0  0  0  0  0  0  0  0  0  0  0  0
  1  2  1  0
  2  3  1  0
  3  4  2  0
  4  5  1  0
  5  6  2  0
  6  7  1  0
  7  8  1  0
  8  9  1  0
  9 10  1  0
  9 11  2  0
  6 12  1  0
 12 13  2  0
 13 14  1  0
 14 15  1  0
 15 16  2  0
 16 17  1  0
 17 18  1  0
 18 19  1  0
 19 20  1  0
 20 21  1  0
 20 22  1  0
 22 23  1  0
 23 24  1  0
 24 25  1  0
 17 26  2  0
 26 27  1  0
 27 28  1  0
 28 29  1  0
 28 30  1  0
 28 31  1  0
 27 32  2  0
 32 33  1  0
 33 34  3  0
 13  3  1  0
 32 15  1  0
 23 18  1  0
  1 35  1  0
  1 36  1  0
  1 37  1  0
  4 38  1  0
  5 39  1  0
  7 40  1  0
  7 41  1  0
  8 42  1  0
  8 43  1  0
 10 44  1  0
 10 45  1  0
 12 46  1  0
 14 47  1  0
 19 48  1  0
 19 49  1  0
 20 50  1  1
 21 51  1  0
 21 52  1  0
 22 53  1  0
 22 54  1  0
 23 55  1  1
 24 56  1  0
 24 57  1  0
 25 58  1  0
 26 59  1  0
M  END
>  <mol_id>  (1) 
54615

>  <source_index>  (1) 
3

>  <layer>  (1) 
L1

>  <uniprot>  (1) 
P50053

>  <paff>  (1) 
8.4948999999999995

>  <smiles>  (1) 
CSc1ccc(CCC(N)=O)cc1Nc1nc(N2C[C@H](N)C[C@H]2CO)cc(C(F)(F)F)c1C#N

$$$$
