L1:P50053:64410


 31 34  0  0  0  0  0  0  0  0999 V2000
   -5.9599   -0.3466   21.3980 H   0  0  0  0  0  0  0  0  0  0  0  0
   -5.2387   -0.5607   20.6147 C   0  0  0  0  0  0  0  0  0  0  0  0
   -4.8740    0.4252   19.7155 C   0  0  0  0  0  0  0  0  0  0  0  0
   -3.9786    0.1422   18.7483 N   0  0  0  0  0  0  0  0  0  0  0  0
   -3.4156   -1.0880   18.6204 C   0  0  0  0  0  0  0  0  0  0  0  0
   -3.7479   -2.1115   19.5070 C   0  0  0  0  0  0  0  0  0  0  0  0
   -4.6797   -1.8434   20.5236 C   0  0  0  0  0  0  0  0  0  0  0  0
   -5.3882    1.6906   19.7656 N   0  0  0  0  0  0  0  0  0  0  0  0
   -6.3597    2.0392   20.8013 C   0  0  0  0  0  0  0  0  0  0  0  0
   -6.6745    3.4829   20.5360 C   0  0  0  0  0  0  0  0  0  0  0  0
   -5.8948    3.9324   19.3446 C   0  0  0  0  0  0  0  0  0  0  0  0
   -5.0872    2.7735   18.8401 C   0  0  0  0  0  0  0  0  0  0  0  0
   -5.6238    4.5592   20.6956 C   0  0  0  0  0  0  0  0  0  0  0  0
   -6.0269    5.9816   20.9579 C   0  0  0  0  0  0  0  0  0  0  0  0
   -6.3156    6.4411   20.0062 H   0  0  0  0  0  0  0  0  0  0  0  0
   -6.8856    6.0181   21.6380 H   0  0  0  0  0  0  0  0  0  0  0  0
   -4.9224    6.8149   21.5587 C   0  0  0  0  0  0  0  0  0  0  0  0
   -4.9582    7.4696   22.5866 O   0  0  0  0  0  0  0  0  0  0  0  0
   -3.7987    6.7777   20.8131 O   0  0  0  0  0  0  0  0  0  0  0  0
   -3.1715    7.3484   21.3055 H   0  0  0  0  0  0  0  0  0  0  0  0
   -2.5129   -1.2258   17.5625 N   0  0  0  0  0  0  0  0  0  0  0  0
   -1.2862   -1.9128   17.3602 C   0  0  0  0  0  0  0  0  0  0  0  0
   -1.3996   -1.5720   15.8728 C   0  0  0  0  0  0  0  0  0  0  0  0
   -2.5643   -0.6472   16.2541 C   0  0  0  0  0  0  0  0  0  0  0  0
   -2.2575    0.8398   16.2581 C   0  0  0  0  0  0  0  0  0  0  0  0
   -5.0822   -2.9033   21.5125 C   0  0  0  0  0  0  0  0  0  0  0  0
   -4.0636   -3.2616   22.3376 F   0  0  0  0  0  0  0  0  0  0  0  0
   -6.1098   -2.5091   22.3099 F   0  0  0  0  0  0  0  0  0  0  0  0
   -5.4993   -4.0588   20.9217 F   0  0  0  0  0  0  0  0  0  0  0  0
   -3.1550   -3.4117   19.4138 C   0  0  0  0  0  0  0  0  0  0  0  0
   -2.6890   -4.4691   19.3063 N   0  0  0  0  0  0  0  0  0  0  0  0
  1  2  1  0  0  0
  2  3  2  0  0  0
  3  8  1  0  0  0
  8  9  1  0  0  0
  9 10  1  0  0  0
 10 11  1  0  0  0
 11 12  1  0  0  0
 11 13  1  0  0  0
 13 14  1  0  0  0
 14 15  1  0  0  0
 14 16  1  0  0  0
 14 17  1  0  0  0
 17 18  2  0  0  0
 17 19  1  0  0  0
  3  4  1  0  0  0
  4  5  2  0  0  0
  5 21  1  0  0  0
 21 22  1  0  0  0
 22 23  1  0  0  0
 23 24  1  0  0  0
 24 25  1  0  0  0
  5  6  1  0  0  0
  6 30  1  0  0  0
 30 31  3  0  0  0
  6  7  2  0  0  0
  7 26  1  0  0  0
 26 27  1  0  0  0
 26 28  1  0  0  0
 26 29  1  0  0  0
  7  2  1  0  0  0
 12  8  1  0  0  0
 24 21  1  0  0  0
 13 10  1  0  0  0
 19 20  1  0  0  0
M  ISO 1   1   2
M  ISO 1  15   2
M  ISO 1  16   2
M  END
> <minimizedAffinity>
-8.68113

$$$$
