L1:P50053:64410
     RDKit          3D

 46 49  0  0  0  0  0  0  0  0999 V2000
    0.6948   -2.5783   -1.7787 H   0  0  0  0  0  0  0  0  0  0  0  0
   -0.1430   -1.9491   -1.4926 C   0  0  0  0  0  0  0  0  0  0  0  0
    0.0704   -0.7980   -0.7558 C   0  0  0  0  0  0  0  0  0  0  0  0
    1.3169   -0.4005   -0.3603 N   0  0  0  0  0  0  0  0  0  0  0  0
    1.4752    0.8295    0.4143 C   0  0  0  0  0  0  0  0  0  0  0  0
    2.9537    0.9200    0.6583 C   0  0  2  0  0  0  0  0  0  0  0  0
    3.6195   -0.2464    0.0057 C   0  0  2  0  0  0  0  0  0  0  0  0
    2.5682   -1.0797   -0.6651 C   0  0  0  0  0  0  0  0  0  0  0  0
    3.6740   -0.1004    1.5115 C   0  0  1  0  0  0  0  0  0  0  0  0
    4.9689    0.2509    2.1855 C   0  0  0  0  0  0  0  0  0  0  0  0
    5.5567   -0.6658    2.3060 H   0  0  0  0  0  0  0  0  0  0  0  0
    5.5423    0.9552    1.5720 H   0  0  0  0  0  0  0  0  0  0  0  0
    4.7848    0.8662    3.5503 C   0  0  0  0  0  0  0  0  0  0  0  0
    3.7360    1.1054    4.1241 O   0  0  0  0  0  0  0  0  0  0  0  0
    5.9644    1.1546    4.1379 O   0  0  0  0  0  0  0  0  0  0  0  0
   -0.9808   -0.0291   -0.4077 N   0  0  0  0  0  0  0  0  0  0  0  0
   -2.2558   -0.3456   -0.7553 C   0  0  0  0  0  0  0  0  0  0  0  0
   -3.2358    0.5464   -0.3116 N   0  0  0  0  0  0  0  0  0  0  0  0
   -4.6544    0.5997   -0.3609 C   0  0  0  0  0  0  0  0  0  0  0  0
   -4.5927    1.7822    0.6083 C   0  0  0  0  0  0  0  0  0  0  0  0
   -3.0749    1.7911    0.3770 C   0  0  2  0  0  0  0  0  0  0  0  0
   -2.5468    2.8946   -0.5222 C   0  0  0  0  0  0  0  0  0  0  0  0
   -2.5192   -1.4928   -1.5027 C   0  0  0  0  0  0  0  0  0  0  0  0
   -3.8484   -1.8418   -1.9050 C   0  0  0  0  0  0  0  0  0  0  0  0
   -4.9125   -2.1519   -2.2493 N   0  0  0  0  0  0  0  0  0  0  0  0
   -1.4414   -2.3124   -1.8775 C   0  0  0  0  0  0  0  0  0  0  0  0
   -1.6566   -3.5643   -2.6835 C   0  0  0  0  0  0  0  0  0  0  0  0
   -2.4680   -4.4561   -2.0565 F   0  0  0  0  0  0  0  0  0  0  0  0
   -2.2162   -3.3137   -3.8964 F   0  0  0  0  0  0  0  0  0  0  0  0
   -0.5020   -4.2401   -2.9452 F   0  0  0  0  0  0  0  0  0  0  0  0
    0.9341    0.7838    1.3660 H   0  0  0  0  0  0  0  0  0  0  0  0
    1.1368    1.6992   -0.1601 H   0  0  0  0  0  0  0  0  0  0  0  0
    3.3605    1.9126    0.5382 H   0  0  0  0  0  0  0  0  0  0  0  0
    4.5077   -0.0913   -0.5883 H   0  0  0  0  0  0  0  0  0  0  0  0
    2.7420   -1.1054   -1.7463 H   0  0  0  0  0  0  0  0  0  0  0  0
    2.5813   -2.1002   -0.2677 H   0  0  0  0  0  0  0  0  0  0  0  0
    3.0742   -0.7783    2.1113 H   0  0  0  0  0  0  0  0  0  0  0  0
    5.7079    1.5406    5.0020 H   0  0  0  0  0  0  0  0  0  0  0  0
   -5.1495   -0.2839    0.0483 H   0  0  0  0  0  0  0  0  0  0  0  0
   -5.0329    0.8405   -1.3581 H   0  0  0  0  0  0  0  0  0  0  0  0
   -5.1372    2.6749    0.2869 H   0  0  0  0  0  0  0  0  0  0  0  0
   -4.8860    1.5349    1.6345 H   0  0  0  0  0  0  0  0  0  0  0  0
   -2.4968    1.6816    1.3022 H   0  0  0  0  0  0  0  0  0  0  0  0
   -1.4901    2.7370   -0.7613 H   0  0  0  0  0  0  0  0  0  0  0  0
   -2.6275    3.8638   -0.0190 H   0  0  0  0  0  0  0  0  0  0  0  0
   -3.1019    2.9606   -1.4645 H   0  0  0  0  0  0  0  0  0  0  0  0
  1  2  1  0
  2  3  2  0
  3  4  1  0
  4  5  1  0
  5  6  1  0
  6  7  1  0
  7  8  1  0
  7  9  1  0
  9 10  1  0
 10 11  1  0
 10 12  1  0
 10 13  1  0
 13 14  2  0
 13 15  1  0
  3 16  1  0
 16 17  2  0
 17 18  1  0
 18 19  1  0
 19 20  1  0
 20 21  1  0
 21 22  1  0
 17 23  1  0
 23 24  1  0
 24 25  3  0
 23 26  2  0
 26 27  1  0
 27 28  1  0
 27 29  1  0
 27 30  1  0
 26  2  1  0
  8  4  1  0
 21 18  1  0
  9  6  1  0
  5 31  1  0
  5 32  1  0
  6 33  1  6
  7 34  1  6
  8 35  1  0
  8 36  1  0
  9 37  1  1
 15 38  1  0
 19 39  1  0
 19 40  1  0
 20 41  1  0
 20 42  1  0
 21 43  1  1
 22 44  1  0
 22 45  1  0
 22 46  1  0
M  ISO  3   1   2  11   2  12   2
M  END
>  <mol_id>  (1) 
64410

>  <source_index>  (1) 
4

>  <layer>  (1) 
L1

>  <uniprot>  (1) 
P50053

>  <paff>  (1) 
9.3565000000000005

>  <smiles>  (1) 
[2H]c1c(N2C[C@@H]3[C@H](C2)[C@H]3C([2H])([2H])C(=O)O)nc(N2CC[C@@H]2C)c(C#N)c1C(F)(F)F

$$$$
