L1:P50053:75542
 OpenBabel09212617453D

 49 52  0  0  0  0  0  0  0  0999 V2000
   -4.1928    0.4454   18.5072 C   0  0  0  0  0  0  0  0  0  0  0  0
   -3.2566    0.2181   17.5145 C   0  0  0  0  0  0  0  0  0  0  0  0
   -2.5660   -1.0010   17.4591 C   0  0  0  0  0  0  0  0  0  0  0  0
   -2.8372   -1.9841   18.4254 C   0  0  0  0  0  0  0  0  0  0  0  0
   -3.7849   -1.7074   19.4099 C   0  0  0  0  0  0  0  0  0  0  0  0
   -4.4339   -0.5136   19.4235 N   0  0  0  0  0  0  0  0  0  0  0  0
   -5.5971    4.3500   19.6824 C   0  0  1  0  0  0  0  0  0  0  0  0
   -6.4704    3.1445   19.3998 C   0  0  2  0  0  0  0  0  0  0  0  0
   -5.9539    1.7485   19.5987 C   0  0  0  0  0  0  0  0  0  0  0  0
   -4.8934    1.6153   18.6009 N   0  0  0  0  0  0  0  0  0  0  0  0
   -4.7168    2.7880   17.7564 C   0  0  0  0  0  0  0  0  0  0  0  0
   -5.7114    3.7815   18.2809 C   0  0  2  0  0  0  0  0  0  0  0  0
   -7.6343    5.7174   20.4457 C   0  0  0  0  0  0  0  0  0  0  0  0
   -6.1568    5.7071   20.0591 C   0  0  1  0  0  0  0  0  0  0  0  0
   -5.3548    6.3445   21.1838 C   0  0  0  0  0  0  0  0  0  0  0  0
   -5.6717    7.3066   21.8638 O   0  0  0  0  0  0  0  0  0  0  0  0
   -4.1783    5.7211   21.4024 O   0  0  0  0  0  0  0  0  0  0  0  0
   -3.7796    6.2269   22.1419 H   0  0  0  0  0  0  0  0  0  0  0  0
   -4.1392   -2.5924   20.4317 N   0  0  0  0  0  0  0  0  0  0  0  0
   -4.1550   -4.0040   20.5893 C   0  0  0  0  0  0  0  0  0  0  0  0
   -4.4336   -3.7836   22.0776 C   0  0  0  0  0  0  0  0  0  0  0  0
   -4.6505   -2.3023   21.7370 C   0  0  2  0  0  0  0  0  0  0  0  0
   -6.0938   -1.8318   21.7100 C   0  0  0  0  0  0  0  0  0  0  0  0
   -1.5548   -1.2353   16.3701 C   0  0  0  0  0  0  0  0  0  0  0  0
   -1.9660   -2.1649   15.4679 F   0  0  0  0  0  0  0  0  0  0  0  0
   -0.3580   -1.6623   16.8519 F   0  0  0  0  0  0  0  0  0  0  0  0
   -1.2789   -0.1158   15.6429 F   0  0  0  0  0  0  0  0  0  0  0  0
   -2.1529   -3.2406   18.3696 C   0  0  0  0  0  0  0  0  0  0  0  0
   -1.5706   -4.2442   18.3407 N   0  0  0  0  0  0  0  0  0  0  0  0
   -3.0656    0.9491   16.8115 H   0  0  0  0  0  0  0  0  0  0  0  0
   -4.7963    4.5657   20.3585 H   0  0  0  0  0  0  0  0  0  0  0  0
   -7.4759    2.9388   19.7023 H   0  0  0  0  0  0  0  0  0  0  0  0
   -6.7278    1.0293   19.4289 H   0  0  0  0  0  0  0  0  0  0  0  0
   -5.6039    1.5782   20.5954 H   0  0  0  0  0  0  0  0  0  0  0  0
   -4.9219    2.5516   16.7332 H   0  0  0  0  0  0  0  0  0  0  0  0
   -3.7147    3.1621   17.7838 H   0  0  0  0  0  0  0  0  0  0  0  0
   -5.8735    4.2835   17.3500 H   0  0  0  0  0  0  0  0  0  0  0  0
   -7.9314    6.7152   20.6928 H   0  0  0  0  0  0  0  0  0  0  0  0
   -7.7860    5.0802   21.2918 H   0  0  0  0  0  0  0  0  0  0  0  0
   -8.2206    5.3641   19.6233 H   0  0  0  0  0  0  0  0  0  0  0  0
   -6.0708    6.2766   19.1573 H   0  0  0  0  0  0  0  0  0  0  0  0
   -3.2226   -4.4848   20.3785 H   0  0  0  0  0  0  0  0  0  0  0  0
   -4.7869   -4.6252   19.9895 H   0  0  0  0  0  0  0  0  0  0  0  0
   -3.6021   -3.9778   22.7224 H   0  0  0  0  0  0  0  0  0  0  0  0
   -5.1660   -4.3560   22.6076 H   0  0  0  0  0  0  0  0  0  0  0  0
   -4.2474   -1.5378   22.3679 H   0  0  0  0  0  0  0  0  0  0  0  0
   -6.6744   -2.4965   21.1050 H   0  0  0  0  0  0  0  0  0  0  0  0
   -6.1395   -0.8445   21.3000 H   0  0  0  0  0  0  0  0  0  0  0  0
   -6.4847   -1.8228   22.7060 H   0  0  0  0  0  0  0  0  0  0  0  0
  1  2  2  0  0  0  0
  2  3  1  0  0  0  0
  2 30  1  0  0  0  0
  3 24  1  0  0  0  0
  3  4  2  0  0  0  0
  4 28  1  0  0  0  0
  4  5  1  0  0  0  0
  5 19  1  0  0  0  0
  5  6  2  0  0  0  0
  6  1  1  0  0  0  0
  7  8  1  0  0  0  0
  7 31  1  1  0  0  0
  8  9  1  0  0  0  0
  8 32  1  1  0  0  0
  9 10  1  0  0  0  0
  9 33  1  0  0  0  0
  9 34  1  0  0  0  0
 10  1  1  0  0  0  0
 10 11  1  0  0  0  0
 11 12  1  0  0  0  0
 11 35  1  0  0  0  0
 11 36  1  0  0  0  0
 12  7  1  0  0  0  0
 12  8  1  0  0  0  0
 12 37  1  6  0  0  0
 13 14  1  0  0  0  0
 13 38  1  0  0  0  0
 13 39  1  0  0  0  0
 13 40  1  0  0  0  0
 14 15  1  0  0  0  0
 14  7  1  0  0  0  0
 14 41  1  6  0  0  0
 15 16  2  0  0  0  0
 15 17  1  0  0  0  0
 17 18  1  0  0  0  0
 19 20  1  0  0  0  0
 20 21  1  0  0  0  0
 20 42  1  0  0  0  0
 20 43  1  0  0  0  0
 21 22  1  0  0  0  0
 21 44  1  0  0  0  0
 21 45  1  0  0  0  0
 22 23  1  0  0  0  0
 22 19  1  0  0  0  0
 22 46  1  1  0  0  0
 23 47  1  0  0  0  0
 23 48  1  0  0  0  0
 23 49  1  0  0  0  0
 24 25  1  0  0  0  0
 24 26  1  0  0  0  0
 24 27  1  0  0  0  0
 28 29  3  0  0  0  0
M  END
>  <minimizedAffinity>
-8.83955

$$$$
