L1:P50053:75542
     RDKit          3D

 49 52  0  0  0  0  0  0  0  0999 V2000
    5.7480   -0.6307    0.6682 C   0  0  0  0  0  0  0  0  0  0  0  0
    4.6993   -1.7332    0.8001 C   0  0  1  0  0  0  0  0  0  0  0  0
    4.6779   -2.2145    2.2431 C   0  0  0  0  0  0  0  0  0  0  0  0
    3.7868   -2.0569    3.0614 O   0  0  0  0  0  0  0  0  0  0  0  0
    5.7964   -2.8878    2.5840 O   0  0  0  0  0  0  0  0  0  0  0  0
    3.3099   -1.3638    0.3207 C   0  0  1  0  0  0  0  0  0  0  0  0
    2.7587    0.0459    0.3894 C   0  0  2  0  0  0  0  0  0  0  0  0
    1.2805    0.2979    0.4694 C   0  0  0  0  0  0  0  0  0  0  0  0
    0.7669   -0.1834   -0.8122 N   0  0  0  0  0  0  0  0  0  0  0  0
   -0.5717   -0.1087   -1.0782 C   0  0  0  0  0  0  0  0  0  0  0  0
   -1.1167   -0.5429   -2.2732 C   0  0  0  0  0  0  0  0  0  0  0  0
   -2.4967   -0.4416   -2.4996 C   0  0  0  0  0  0  0  0  0  0  0  0
   -3.0736   -0.9131   -3.8066 C   0  0  0  0  0  0  0  0  0  0  0  0
   -3.6862    0.0849   -4.4964 F   0  0  0  0  0  0  0  0  0  0  0  0
   -3.9955   -1.8984   -3.6453 F   0  0  0  0  0  0  0  0  0  0  0  0
   -2.1364   -1.4232   -4.6549 F   0  0  0  0  0  0  0  0  0  0  0  0
   -3.3152    0.1040   -1.4965 C   0  0  0  0  0  0  0  0  0  0  0  0
   -4.7235    0.2306   -1.7217 C   0  0  0  0  0  0  0  0  0  0  0  0
   -5.8604    0.3211   -1.9372 N   0  0  0  0  0  0  0  0  0  0  0  0
   -2.7215    0.5228   -0.3065 C   0  0  0  0  0  0  0  0  0  0  0  0
   -3.4214    1.0721    0.7711 N   0  0  0  0  0  0  0  0  0  0  0  0
   -4.7880    1.3126    1.0749 C   0  0  0  0  0  0  0  0  0  0  0  0
   -4.3583    1.6486    2.5045 C   0  0  0  0  0  0  0  0  0  0  0  0
   -2.9109    1.6153    1.9933 C   0  0  2  0  0  0  0  0  0  0  0  0
   -2.2435    2.9655    1.8011 C   0  0  0  0  0  0  0  0  0  0  0  0
   -1.3787    0.4100   -0.1310 N   0  0  0  0  0  0  0  0  0  0  0  0
    1.7924   -0.6813   -1.7178 C   0  0  0  0  0  0  0  0  0  0  0  0
    3.0706   -0.5579   -0.9418 C   0  0  2  0  0  0  0  0  0  0  0  0
    6.7370   -0.9937    0.9699 H   0  0  0  0  0  0  0  0  0  0  0  0
    5.8350   -0.2742   -0.3620 H   0  0  0  0  0  0  0  0  0  0  0  0
    5.5144    0.2262    1.3091 H   0  0  0  0  0  0  0  0  0  0  0  0
    5.0125   -2.5903    0.1895 H   0  0  0  0  0  0  0  0  0  0  0  0
    5.6436   -3.1362    3.5202 H   0  0  0  0  0  0  0  0  0  0  0  0
    2.6132   -2.1773    0.5166 H   0  0  0  0  0  0  0  0  0  0  0  0
    3.3567    0.8603    0.7663 H   0  0  0  0  0  0  0  0  0  0  0  0
    0.8461   -0.2493    1.3135 H   0  0  0  0  0  0  0  0  0  0  0  0
    1.0895    1.3704    0.5888 H   0  0  0  0  0  0  0  0  0  0  0  0
   -0.4783   -0.9640   -3.0443 H   0  0  0  0  0  0  0  0  0  0  0  0
   -5.4251    0.4284    0.9993 H   0  0  0  0  0  0  0  0  0  0  0  0
   -5.2043    2.1510    0.5097 H   0  0  0  0  0  0  0  0  0  0  0  0
   -4.5908    0.8672    3.2365 H   0  0  0  0  0  0  0  0  0  0  0  0
   -4.7165    2.6103    2.8833 H   0  0  0  0  0  0  0  0  0  0  0  0
   -2.2790    0.9001    2.5331 H   0  0  0  0  0  0  0  0  0  0  0  0
   -1.2812    2.8607    1.2897 H   0  0  0  0  0  0  0  0  0  0  0  0
   -2.8649    3.6540    1.2178 H   0  0  0  0  0  0  0  0  0  0  0  0
   -2.0490    3.4329    2.7721 H   0  0  0  0  0  0  0  0  0  0  0  0
    1.8413   -0.0669   -2.6233 H   0  0  0  0  0  0  0  0  0  0  0  0
    1.6151   -1.7264   -1.9936 H   0  0  0  0  0  0  0  0  0  0  0  0
    3.8956   -0.1772   -1.5230 H   0  0  0  0  0  0  0  0  0  0  0  0
  1  2  1  0
  2  3  1  0
  3  4  2  0
  3  5  1  0
  2  6  1  0
  6  7  1  0
  7  8  1  0
  8  9  1  0
  9 10  1  0
 10 11  2  0
 11 12  1  0
 12 13  1  0
 13 14  1  0
 13 15  1  0
 13 16  1  0
 12 17  2  0
 17 18  1  0
 18 19  3  0
 17 20  1  0
 20 21  1  0
 21 22  1  0
 22 23  1  0
 23 24  1  0
 24 25  1  0
 20 26  2  0
  9 27  1  0
 27 28  1  0
 28  6  1  0
 28  7  1  0
 26 10  1  0
 24 21  1  0
  1 29  1  0
  1 30  1  0
  1 31  1  0
  2 32  1  6
  5 33  1  0
  6 34  1  6
  7 35  1  1
  8 36  1  0
  8 37  1  0
 11 38  1  0
 22 39  1  0
 22 40  1  0
 23 41  1  0
 23 42  1  0
 24 43  1  1
 25 44  1  0
 25 45  1  0
 25 46  1  0
 27 47  1  0
 27 48  1  0
 28 49  1  6
M  END
>  <mol_id>  (1) 
75542

>  <source_index>  (1) 
5

>  <layer>  (1) 
L1

>  <uniprot>  (1) 
P50053

>  <paff>  (1) 
7.8996000000000004

>  <smiles>  (1) 
CC(C(=O)O)[C@H]1[C@@H]2CN(c3cc(C(F)(F)F)c(C#N)c(N4CC[C@@H]4C)n3)C[C@@H]21

$$$$
