L1:P50053:97821
     RDKit          3D

 36 37  0  0  0  0  0  0  0  0999 V2000
    2.5642    3.1327    0.0418 C   0  0  0  0  0  0  0  0  0  0  0  0
    3.3214    1.9251    0.2816 N   0  0  0  0  0  0  0  0  0  0  0  0
    2.6421    0.7287    0.4155 C   0  0  0  0  0  0  0  0  0  0  0  0
    3.3648   -0.4443    0.5535 C   0  0  0  0  0  0  0  0  0  0  0  0
    2.6935   -1.6690    0.6474 C   0  0  0  0  0  0  0  0  0  0  0  0
    3.4705   -2.9467    0.7943 C   0  0  0  0  0  0  0  0  0  0  0  0
    4.8181   -2.7548    0.8430 F   0  0  0  0  0  0  0  0  0  0  0  0
    3.1532   -3.6177    1.9329 F   0  0  0  0  0  0  0  0  0  0  0  0
    3.2565   -3.8071   -0.2353 F   0  0  0  0  0  0  0  0  0  0  0  0
    1.2921   -1.6714    0.5923 C   0  0  0  0  0  0  0  0  0  0  0  0
    0.5540   -2.8977    0.6673 C   0  0  0  0  0  0  0  0  0  0  0  0
   -0.0544   -3.8826    0.7408 N   0  0  0  0  0  0  0  0  0  0  0  0
    0.6157   -0.4548    0.4451 C   0  0  0  0  0  0  0  0  0  0  0  0
   -0.7891   -0.4354    0.3667 N   0  0  0  0  0  0  0  0  0  0  0  0
   -1.6926    0.5132   -0.1631 C   0  0  0  0  0  0  0  0  0  0  0  0
   -1.2891    1.5520   -1.0110 C   0  0  0  0  0  0  0  0  0  0  0  0
   -2.2152    2.4607   -1.5329 C   0  0  0  0  0  0  0  0  0  0  0  0
   -3.5665    2.3404   -1.2230 C   0  0  0  0  0  0  0  0  0  0  0  0
   -3.9975    1.3031   -0.3991 C   0  0  0  0  0  0  0  0  0  0  0  0
   -3.0740    0.3853    0.1186 C   0  0  0  0  0  0  0  0  0  0  0  0
   -3.6910   -0.9451    1.1589 S   0  0  0  0  0  0  0  0  0  0  0  0
   -3.9003   -2.2113   -0.1222 C   0  0  0  0  0  0  0  0  0  0  0  0
    1.2989    0.7095    0.3410 N   0  0  0  0  0  0  0  0  0  0  0  0
    3.2505    3.9817   -0.0372 H   0  0  0  0  0  0  0  0  0  0  0  0
    1.8713    3.3400    0.8643 H   0  0  0  0  0  0  0  0  0  0  0  0
    2.0056    3.0717   -0.8981 H   0  0  0  0  0  0  0  0  0  0  0  0
    4.2087    2.0206    0.7557 H   0  0  0  0  0  0  0  0  0  0  0  0
    4.4513   -0.4069    0.5781 H   0  0  0  0  0  0  0  0  0  0  0  0
   -1.2611   -1.0753    1.0019 H   0  0  0  0  0  0  0  0  0  0  0  0
   -0.2447    1.6688   -1.2848 H   0  0  0  0  0  0  0  0  0  0  0  0
   -1.8748    3.2626   -2.1832 H   0  0  0  0  0  0  0  0  0  0  0  0
   -4.2840    3.0505   -1.6258 H   0  0  0  0  0  0  0  0  0  0  0  0
   -5.0555    1.2135   -0.1655 H   0  0  0  0  0  0  0  0  0  0  0  0
   -4.2866   -3.1251    0.3370 H   0  0  0  0  0  0  0  0  0  0  0  0
   -2.9437   -2.4402   -0.5996 H   0  0  0  0  0  0  0  0  0  0  0  0
   -4.6123   -1.8745   -0.8806 H   0  0  0  0  0  0  0  0  0  0  0  0
  1  2  1  0
  2  3  1  0
  3  4  2  0
  4  5  1  0
  5  6  1  0
  6  7  1  0
  6  8  1  0
  6  9  1  0
  5 10  2  0
 10 11  1  0
 11 12  3  0
 10 13  1  0
 13 14  1  0
 14 15  1  0
 15 16  2  0
 16 17  1  0
 17 18  2  0
 18 19  1  0
 19 20  2  0
 20 21  1  0
 21 22  1  0
 13 23  2  0
 23  3  1  0
 20 15  1  0
  1 24  1  0
  1 25  1  0
  1 26  1  0
  2 27  1  0
  4 28  1  0
 14 29  1  0
 16 30  1  0
 17 31  1  0
 18 32  1  0
 19 33  1  0
 22 34  1  0
 22 35  1  0
 22 36  1  0
M  END
>  <mol_id>  (1) 
97821

>  <source_index>  (1) 
6

>  <layer>  (1) 
L1

>  <uniprot>  (1) 
P50053

>  <paff>  (1) 
7.7446999999999999

>  <smiles>  (1) 
CNc1cc(C(F)(F)F)c(C#N)c(Nc2ccccc2SC)n1

$$$$
