L1:P50053:97821
 OpenBabel09212617453D

 36 37  0  0  0  0  0  0  0  0999 V2000
   -4.1998    2.2206   16.5381 C   0  0  0  0  0  0  0  0  0  0  0  0
   -3.3794    1.5075   15.6803 C   0  0  0  0  0  0  0  0  0  0  0  0
   -2.7408    0.3467   16.1318 C   0  0  0  0  0  0  0  0  0  0  0  0
   -2.9585   -0.0673   17.4540 C   0  0  0  0  0  0  0  0  0  0  0  0
   -3.8038    0.6904   18.2729 C   0  0  0  0  0  0  0  0  0  0  0  0
   -4.4179    1.7993   17.7971 N   0  0  0  0  0  0  0  0  0  0  0  0
   -1.8513   -0.4345   15.2064 C   0  0  0  0  0  0  0  0  0  0  0  0
   -1.9173   -0.0129   13.9129 F   0  0  0  0  0  0  0  0  0  0  0  0
   -0.5402   -0.3499   15.5544 F   0  0  0  0  0  0  0  0  0  0  0  0
   -2.1611   -1.7572   15.1803 F   0  0  0  0  0  0  0  0  0  0  0  0
   -6.2662    3.2454   15.7605 C   0  0  0  0  0  0  0  0  0  0  0  0
   -4.8563    3.3409   16.0642 N   0  0  0  0  0  0  0  0  0  0  0  0
   -4.5007    4.2472   16.3350 H   0  0  0  0  0  0  0  0  0  0  0  0
   -2.3432   -1.2570   17.9643 C   0  0  0  0  0  0  0  0  0  0  0  0
   -1.8618   -2.2257   18.3831 N   0  0  0  0  0  0  0  0  0  0  0  0
   -4.0531    0.2825   19.5964 N   0  0  0  0  0  0  0  0  0  0  0  0
   -3.2211    0.1632   20.1703 H   0  0  0  0  0  0  0  0  0  0  0  0
   -5.2189    0.3238   20.3939 C   0  0  0  0  0  0  0  0  0  0  0  0
   -5.9106    1.5112   20.6630 C   0  0  0  0  0  0  0  0  0  0  0  0
   -7.0732    1.5108   21.4402 C   0  0  0  0  0  0  0  0  0  0  0  0
   -7.5715    0.3180   21.9555 C   0  0  0  0  0  0  0  0  0  0  0  0
   -6.9146   -0.8803   21.6850 C   0  0  0  0  0  0  0  0  0  0  0  0
   -5.7545   -0.8852   20.8992 C   0  0  0  0  0  0  0  0  0  0  0  0
   -4.9615   -2.4641   20.5657 S   0  0  0  0  0  0  0  0  0  0  0  0
   -5.2520   -3.2539   22.1719 C   0  0  0  0  0  0  0  0  0  0  0  0
   -3.2391    1.8311   14.7104 H   0  0  0  0  0  0  0  0  0  0  0  0
   -6.5055    2.2380   15.4908 H   0  0  0  0  0  0  0  0  0  0  0  0
   -6.5005    3.8981   14.9456 H   0  0  0  0  0  0  0  0  0  0  0  0
   -6.8363    3.5294   16.6203 H   0  0  0  0  0  0  0  0  0  0  0  0
   -5.5563    2.4021   20.2812 H   0  0  0  0  0  0  0  0  0  0  0  0
   -7.5634    2.3984   21.6323 H   0  0  0  0  0  0  0  0  0  0  0  0
   -8.4247    0.3212   22.5360 H   0  0  0  0  0  0  0  0  0  0  0  0
   -7.2832   -1.7665   22.0642 H   0  0  0  0  0  0  0  0  0  0  0  0
   -4.8352   -4.2394   22.1654 H   0  0  0  0  0  0  0  0  0  0  0  0
   -6.3045   -3.3130   22.3551 H   0  0  0  0  0  0  0  0  0  0  0  0
   -4.7877   -2.6754   22.9430 H   0  0  0  0  0  0  0  0  0  0  0  0
  1  2  2  0  0  0  0
  2  3  1  0  0  0  0
  2 26  1  0  0  0  0
  3  7  1  0  0  0  0
  3  4  2  0  0  0  0
  4 14  1  0  0  0  0
  4  5  1  0  0  0  0
  5 16  1  0  0  0  0
  5  6  2  0  0  0  0
  6  1  1  0  0  0  0
  7  8  1  0  0  0  0
  7  9  1  0  0  0  0
  7 10  1  0  0  0  0
 11 12  1  0  0  0  0
 11 27  1  0  0  0  0
 11 28  1  0  0  0  0
 11 29  1  0  0  0  0
 12  1  1  0  0  0  0
 12 13  1  0  0  0  0
 14 15  3  0  0  0  0
 16 18  1  0  0  0  0
 16 17  1  0  0  0  0
 18 19  2  0  0  0  0
 19 20  1  0  0  0  0
 19 30  1  0  0  0  0
 20 21  2  0  0  0  0
 20 31  1  0  0  0  0
 21 22  1  0  0  0  0
 21 32  1  0  0  0  0
 22 23  2  0  0  0  0
 22 33  1  0  0  0  0
 23 24  1  0  0  0  0
 23 18  1  0  0  0  0
 24 25  1  0  0  0  0
 25 34  1  0  0  0  0
 25 35  1  0  0  0  0
 25 36  1  0  0  0  0
M  END
>  <minimizedAffinity>
-7.18899

$$$$
