L4:P09871:18813
     RDKit          3D

 69 72  0  0  0  0  0  0  0  0999 V2000
   12.5770   -4.4315   -6.3364 C   0  0  2  0  0  0  0  0  0  0  0  0
   12.8228   -3.9357   -4.9058 C   0  0  0  0  0  0  0  0  0  0  0  0
   14.1029   -3.1057   -5.0422 C   0  0  2  0  0  0  0  0  0  0  0  0
   14.9218   -3.9156   -6.0306 C   0  0  0  0  0  0  0  0  0  0  0  0
   13.9364   -4.5777   -6.8768 N   0  0  0  0  0  0  0  0  0  0  0  0
   14.3503   -5.4409   -7.8689 C   0  0  0  0  0  0  0  0  0  0  0  0
   15.5497   -5.6238   -8.0976 O   0  0  0  0  0  0  0  0  0  0  0  0
   11.0821   -2.4671   -6.2731 N   0  0  0  0  0  0  0  0  0  0  0  0
   11.6831   -3.4075   -7.0724 C   0  0  0  0  0  0  0  0  0  0  0  0
   11.4415   -3.5229   -8.2724 O   0  0  0  0  0  0  0  0  0  0  0  0
   11.5375   -2.2309   -5.3961 H   0  0  0  0  0  0  0  0  0  0  0  0
   10.7884   -0.1677   -7.1685 C   0  0  0  0  0  0  0  0  0  0  0  0
   10.1390   -1.4977   -6.7978 C   0  0  2  0  0  0  0  0  0  0  0  0
    9.0200   -1.3336   -5.7972 C   0  0  0  0  0  0  0  0  0  0  0  0
    7.6689   -1.5489   -6.0038 C   0  0  0  0  0  0  0  0  0  0  0  0
    6.8594   -1.3052   -4.8389 C   0  0  0  0  0  0  0  0  0  0  0  0
    7.6611   -0.8884   -3.7907 C   0  0  0  0  0  0  0  0  0  0  0  0
    9.3183   -0.8261   -4.1866 S   0  0  0  0  0  0  0  0  0  0  0  0
    5.4137   -1.4365   -4.7155 C   0  0  0  0  0  0  0  0  0  0  0  0
    4.8424   -1.1905   -3.5913 N   0  0  0  0  0  0  0  0  0  0  0  0
    4.7589   -1.8388   -5.8343 N   0  0  0  0  0  0  0  0  0  0  0  0
    3.8330   -1.3043   -3.6888 H   0  0  0  0  0  0  0  0  0  0  0  0
    5.2944   -2.4179   -6.4707 H   0  0  0  0  0  0  0  0  0  0  0  0
    3.8346   -2.2185   -5.6757 H   0  0  0  0  0  0  0  0  0  0  0  0
   14.8316   -2.8890   -3.7436 C   0  0  0  0  0  0  0  0  0  0  0  0
   14.0171   -3.1127   -2.6904 F   0  0  0  0  0  0  0  0  0  0  0  0
   15.8784   -3.7359   -3.6366 F   0  0  0  0  0  0  0  0  0  0  0  0
   15.3085   -1.6314   -3.6388 F   0  0  0  0  0  0  0  0  0  0  0  0
   13.2773   -6.1963   -8.6620 C   0  0  0  0  0  0  0  0  0  0  0  0
   13.0160   -7.4617   -7.9981 N   0  0  0  0  0  0  0  0  0  0  0  0
   11.7003   -7.8208   -7.7775 C   0  0  0  0  0  0  0  0  0  0  0  0
   10.7668   -7.0499   -7.9709 O   0  0  0  0  0  0  0  0  0  0  0  0
   13.6512   -8.2158   -8.2347 H   0  0  0  0  0  0  0  0  0  0  0  0
   11.4490   -9.2243   -7.3520 C   0  0  0  0  0  0  0  0  0  0  0  0
   11.9595   -9.7400   -6.1530 C   0  0  0  0  0  0  0  0  0  0  0  0
   11.6969  -11.0657   -5.7948 C   0  0  0  0  0  0  0  0  0  0  0  0
   10.9089  -11.8676   -6.6249 C   0  0  0  0  0  0  0  0  0  0  0  0
   10.4069  -11.3629   -7.8238 C   0  0  0  0  0  0  0  0  0  0  0  0
   10.6651  -10.0382   -8.1810 C   0  0  0  0  0  0  0  0  0  0  0  0
   10.6533  -13.1896   -6.3436 O   0  0  0  0  0  0  0  0  0  0  0  0
    9.6031  -13.4624   -5.4961 C   0  0  0  0  0  0  0  0  0  0  0  0
    9.9169  -13.6538   -4.1479 C   0  0  0  0  0  0  0  0  0  0  0  0
    8.9075  -13.9716   -3.2387 C   0  0  0  0  0  0  0  0  0  0  0  0
    7.5988  -14.1095   -3.6896 C   0  0  0  0  0  0  0  0  0  0  0  0
    6.6304  -14.4174   -2.8169 F   0  0  0  0  0  0  0  0  0  0  0  0
    7.2802  -13.9419   -5.0336 C   0  0  0  0  0  0  0  0  0  0  0  0
    8.2877  -13.6235   -5.9456 C   0  0  0  0  0  0  0  0  0  0  0  0
   12.0480   -5.3569   -6.4293 H   0  0  0  0  0  0  0  0  0  0  0  0
   12.9665   -4.7561   -4.2341 H   0  0  0  0  0  0  0  0  0  0  0  0
   12.0009   -3.3794   -4.5059 H   0  0  0  0  0  0  0  0  0  0  0  0
   13.9010   -2.1058   -5.3651 H   0  0  0  0  0  0  0  0  0  0  0  0
   15.5246   -4.6366   -5.5191 H   0  0  0  0  0  0  0  0  0  0  0  0
   15.5933   -3.3036   -6.5958 H   0  0  0  0  0  0  0  0  0  0  0  0
   11.5717   -0.3385   -7.8772 H   0  0  0  0  0  0  0  0  0  0  0  0
   11.1954    0.2877   -6.2899 H   0  0  0  0  0  0  0  0  0  0  0  0
   10.0536    0.4804   -7.5984 H   0  0  0  0  0  0  0  0  0  0  0  0
    9.7435   -1.8665   -7.7211 H   0  0  0  0  0  0  0  0  0  0  0  0
    7.2782   -1.8555   -6.9084 H   0  0  0  0  0  0  0  0  0  0  0  0
    7.2917   -0.6395   -2.8598 H   0  0  0  0  0  0  0  0  0  0  0  0
   13.6250   -6.3766   -9.6578 H   0  0  0  0  0  0  0  0  0  0  0  0
   12.3799   -5.6154   -8.7084 H   0  0  0  0  0  0  0  0  0  0  0  0
   12.5291   -9.1414   -5.5347 H   0  0  0  0  0  0  0  0  0  0  0  0
   12.0841  -11.4512   -4.9193 H   0  0  0  0  0  0  0  0  0  0  0  0
    9.8462  -11.9667   -8.4452 H   0  0  0  0  0  0  0  0  0  0  0  0
   10.2775   -9.6571   -9.0582 H   0  0  0  0  0  0  0  0  0  0  0  0
   10.8928  -13.5603   -3.8256 H   0  0  0  0  0  0  0  0  0  0  0  0
    9.1300  -14.1033   -2.2396 H   0  0  0  0  0  0  0  0  0  0  0  0
    6.3054  -14.0523   -5.3540 H   0  0  0  0  0  0  0  0  0  0  0  0
    8.0637  -13.5075   -6.9463 H   0  0  0  0  0  0  0  0  0  0  0  0
  1  2  1  0
  1 48  1  1
  2  3  1  0
  2 49  1  0
  2 50  1  0
  3 25  1  0
  3  4  1  0
  3 51  1  6
  4  5  1  0
  4 52  1  0
  4 53  1  0
  5  6  1  0
  5  1  1  0
  6  7  2  0
  6 29  1  0
  8  9  1  0
  8 11  1  0
  9 10  2  0
  9  1  1  0
 12 13  1  0
 12 54  1  0
 12 55  1  0
 12 56  1  0
 13  8  1  0
 13 14  1  0
 13 57  1  6
 14 15  2  0
 15 16  1  0
 15 58  1  0
 16 19  1  0
 16 17  2  0
 17 18  1  0
 17 59  1  0
 18 14  1  0
 19 20  2  0
 19 21  1  0
 20 22  1  0
 21 23  1  0
 21 24  1  0
 25 26  1  0
 25 27  1  0
 25 28  1  0
 29 30  1  0
 29 60  1  0
 29 61  1  0
 30 31  1  0
 30 33  1  0
 31 32  2  0
 31 34  1  0
 34 35  2  0
 35 36  1  0
 35 62  1  0
 36 37  2  0
 36 63  1  0
 37 40  1  0
 37 38  1  0
 38 39  2  0
 38 64  1  0
 39 34  1  0
 39 65  1  0
 40 41  1  0
 41 42  2  0
 42 43  1  0
 42 66  1  0
 43 44  2  0
 43 67  1  0
 44 45  1  0
 44 46  1  0
 46 47  2  0
 46 68  1  0
 47 41  1  0
 47 69  1  0
M  END
>  <minimizedAffinity>  (1) 
-9.29309

>  <mol_id>  (1) 
18813

>  <source_index>  (1) 
0

>  <layer>  (1) 
L4

>  <uniprot>  (1) 
P09871

>  <paff>  (1) 
7

>  <smiles>  (1) 
C[C@@H](NC(=O)[C@@H]1C[C@@H](C(F)(F)F)CN1C(=O)CNC(=O)c1ccc(Oc2ccc(F)cc2)cc1)c1cc(C(=N)N)cs1

$$$$
L4:P09871:27252
     RDKit          3D

 79 82  0  0  0  0  0  0  0  0999 V2000
   13.9314   -2.4941   -6.8075 C   0  0  0  0  0  0  0  0  0  0  0  0
   14.7713   -2.3057   -7.6926 O   0  0  0  0  0  0  0  0  0  0  0  0
   14.2998   -2.5434   -5.4787 N   0  0  0  0  0  0  0  0  0  0  0  0
   15.7032   -2.6149   -5.0990 C   0  0  0  0  0  0  0  0  0  0  0  0
   15.7105   -2.5811   -3.5695 C   0  0  1  0  0  0  0  0  0  0  0  0
   14.3814   -3.2619   -3.2286 C   0  0  0  0  0  0  0  0  0  0  0  0
   13.4262   -2.7748   -4.3200 C   0  0  1  0  0  0  0  0  0  0  0  0
   12.7043   -1.4909   -3.8543 C   0  0  0  0  0  0  0  0  0  0  0  0
   13.2750   -0.4057   -3.8126 O   0  0  0  0  0  0  0  0  0  0  0  0
   11.3692   -1.6573   -3.5496 N   0  0  0  0  0  0  0  0  0  0  0  0
   10.9590   -2.5528   -3.7887 H   0  0  0  0  0  0  0  0  0  0  0  0
   10.4709   -0.5232   -3.4061 C   0  0  2  0  0  0  0  0  0  0  0  0
   10.1288   -0.3025   -1.9357 C   0  0  0  0  0  0  0  0  0  0  0  0
    9.2315   -0.8189   -4.2155 C   0  0  0  0  0  0  0  0  0  0  0  0
    7.9161   -0.8931   -3.7963 C   0  0  0  0  0  0  0  0  0  0  0  0
    7.0011   -1.2850   -4.8322 C   0  0  0  0  0  0  0  0  0  0  0  0
    7.6778   -1.4384   -6.0283 C   0  0  0  0  0  0  0  0  0  0  0  0
    9.3556   -1.1372   -5.8933 S   0  0  0  0  0  0  0  0  0  0  0  0
    5.5799   -1.5178   -4.6352 C   0  0  0  0  0  0  0  0  0  0  0  0
    4.8763   -1.9285   -5.6298 N   0  0  0  0  0  0  0  0  0  0  0  0
    5.1007   -1.2848   -3.3891 N   0  0  0  0  0  0  0  0  0  0  0  0
    3.9035   -2.0291   -5.3304 H   0  0  0  0  0  0  0  0  0  0  0  0
    5.7706   -1.3793   -2.6331 H   0  0  0  0  0  0  0  0  0  0  0  0
    4.2231   -1.7370   -3.1662 H   0  0  0  0  0  0  0  0  0  0  0  0
   12.4330   -2.5658   -7.1401 C   0  0  0  0  0  0  0  0  0  0  0  0
   11.4241   -4.7879   -6.9108 C   0  0  0  0  0  0  0  0  0  0  0  0
   10.9150   -4.5075   -5.8316 O   0  0  0  0  0  0  0  0  0  0  0  0
   12.1145   -3.8755   -7.6836 N   0  0  0  0  0  0  0  0  0  0  0  0
   12.8052   -4.2570   -8.3200 H   0  0  0  0  0  0  0  0  0  0  0  0
   11.2315   -8.8155   -8.3504 C   0  0  0  0  0  0  0  0  0  0  0  0
   11.8174   -8.5371   -7.1158 C   0  0  0  0  0  0  0  0  0  0  0  0
   11.8650   -7.2198   -6.6545 C   0  0  0  0  0  0  0  0  0  0  0  0
   11.3531   -6.1784   -7.4408 C   0  0  0  0  0  0  0  0  0  0  0  0
   10.7775   -6.4657   -8.6866 C   0  0  0  0  0  0  0  0  0  0  0  0
   10.7280   -7.7846   -9.1455 C   0  0  0  0  0  0  0  0  0  0  0  0
   11.2245  -10.1082   -8.8239 O   0  0  0  0  0  0  0  0  0  0  0  0
    8.3795  -12.6377   -7.0931 C   0  0  0  0  0  0  0  0  0  0  0  0
    8.0075  -11.7074   -8.0773 C   0  0  0  0  0  0  0  0  0  0  0  0
    8.9565  -10.8573   -8.6500 C   0  0  0  0  0  0  0  0  0  0  0  0
   10.2830  -10.9166   -8.2279 C   0  0  0  0  0  0  0  0  0  0  0  0
   10.6760  -11.8486   -7.2700 C   0  0  0  0  0  0  0  0  0  0  0  0
    9.7262  -12.6990   -6.6997 C   0  0  0  0  0  0  0  0  0  0  0  0
    7.8042  -13.9919   -5.0481 C   0  0  0  0  0  0  0  0  0  0  0  0
    7.3659  -13.5706   -6.4530 C   0  0  0  0  0  0  0  0  0  0  0  0
    5.9645  -12.9538   -6.4257 C   0  0  0  0  0  0  0  0  0  0  0  0
   16.8276   -3.2923   -3.0631 O   0  0  0  0  0  0  0  0  0  0  0  0
   17.3785   -4.1740   -4.0254 C   0  0  0  0  0  0  0  0  0  0  0  0
   18.6815   -3.8611   -4.2076 F   0  0  0  0  0  0  0  0  0  0  0  0
   17.3416   -5.4206   -3.4981 F   0  0  0  0  0  0  0  0  0  0  0  0
   16.2415   -1.7791   -5.4948 H   0  0  0  0  0  0  0  0  0  0  0  0
   16.1750   -3.4962   -5.4805 H   0  0  0  0  0  0  0  0  0  0  0  0
   15.7960   -1.6026   -3.1450 H   0  0  0  0  0  0  0  0  0  0  0  0
   14.0377   -2.9622   -2.2607 H   0  0  0  0  0  0  0  0  0  0  0  0
   14.4610   -4.3285   -3.1966 H   0  0  0  0  0  0  0  0  0  0  0  0
   12.6471   -3.4696   -4.5546 H   0  0  0  0  0  0  0  0  0  0  0  0
   10.9324    0.3745   -3.7612 H   0  0  0  0  0  0  0  0  0  0  0  0
    9.6633   -1.1818   -1.5419 H   0  0  0  0  0  0  0  0  0  0  0  0
    9.4584    0.5266   -1.8460 H   0  0  0  0  0  0  0  0  0  0  0  0
   11.0248   -0.0975   -1.3879 H   0  0  0  0  0  0  0  0  0  0  0  0
    7.6193   -0.6863   -2.8298 H   0  0  0  0  0  0  0  0  0  0  0  0
    7.2174   -1.7071   -6.9119 H   0  0  0  0  0  0  0  0  0  0  0  0
   11.8627   -2.4018   -6.2497 H   0  0  0  0  0  0  0  0  0  0  0  0
   12.1940   -1.8142   -7.8632 H   0  0  0  0  0  0  0  0  0  0  0  0
   12.2138   -9.3007   -6.5459 H   0  0  0  0  0  0  0  0  0  0  0  0
   12.2783   -7.0124   -5.7319 H   0  0  0  0  0  0  0  0  0  0  0  0
   10.3905   -5.7033   -9.2645 H   0  0  0  0  0  0  0  0  0  0  0  0
   10.3203   -7.9959  -10.0697 H   0  0  0  0  0  0  0  0  0  0  0  0
    7.0227  -11.6513   -8.3806 H   0  0  0  0  0  0  0  0  0  0  0  0
    8.6760  -10.1875   -9.3833 H   0  0  0  0  0  0  0  0  0  0  0  0
   11.6653  -11.9104   -6.9828 H   0  0  0  0  0  0  0  0  0  0  0  0
   10.0173  -13.3801   -5.9811 H   0  0  0  0  0  0  0  0  0  0  0  0
    7.0702  -14.6467   -4.6269 H   0  0  0  0  0  0  0  0  0  0  0  0
    7.9043  -13.1239   -4.4304 H   0  0  0  0  0  0  0  0  0  0  0  0
    8.7444  -14.4995   -5.1050 H   0  0  0  0  0  0  0  0  0  0  0  0
    7.3203  -14.4492   -7.0621 H   0  0  0  0  0  0  0  0  0  0  0  0
    5.9755  -12.0700   -5.8227 H   0  0  0  0  0  0  0  0  0  0  0  0
    5.2727  -13.6583   -6.0134 H   0  0  0  0  0  0  0  0  0  0  0  0
    5.6661  -12.7022   -7.4220 H   0  0  0  0  0  0  0  0  0  0  0  0
   16.8385   -4.1080   -4.9468 H   0  0  0  0  0  0  0  0  0  0  0  0
  1  2  2  0
  1  3  1  0
  3  4  1  0
  4  5  1  0
  4 50  1  0
  4 51  1  0
  5 46  1  0
  5  6  1  0
  5 52  1  6
  6  7  1  0
  6 53  1  0
  6 54  1  0
  7  8  1  0
  7  3  1  0
  7 55  1  6
  8  9  2  0
  8 10  1  0
 10 12  1  0
 10 11  1  0
 12 13  1  0
 12 14  1  0
 12 56  1  6
 13 57  1  0
 13 58  1  0
 13 59  1  0
 14 15  2  0
 15 16  1  0
 15 60  1  0
 16 19  1  0
 16 17  2  0
 17 18  1  0
 17 61  1  0
 18 14  1  0
 19 20  2  0
 19 21  1  0
 20 22  1  0
 21 23  1  0
 21 24  1  0
 25  1  1  0
 25 62  1  0
 25 63  1  0
 26 27  2  0
 26 28  1  0
 28 25  1  0
 28 29  1  0
 30 31  2  0
 31 32  1  0
 31 64  1  0
 32 33  2  0
 32 65  1  0
 33 26  1  0
 33 34  1  0
 34 35  2  0
 34 66  1  0
 35 30  1  0
 35 67  1  0
 36 30  1  0
 37 38  2  0
 38 39  1  0
 38 68  1  0
 39 40  2  0
 39 69  1  0
 40 36  1  0
 40 41  1  0
 41 42  2  0
 41 70  1  0
 42 37  1  0
 42 71  1  0
 43 44  1  0
 43 72  1  0
 43 73  1  0
 43 74  1  0
 44 45  1  0
 44 37  1  0
 44 75  1  0
 45 76  1  0
 45 77  1  0
 45 78  1  0
 46 47  1  0
 47 48  1  0
 47 49  1  0
 47 79  1  0
M  END
>  <minimizedAffinity>  (2) 
-8.78515

>  <mol_id>  (2) 
27252

>  <source_index>  (2) 
1

>  <layer>  (2) 
L4

>  <uniprot>  (2) 
P09871

>  <paff>  (2) 
7

>  <smiles>  (2) 
CC(C)c1ccc(Oc2ccc(C(=O)NCC(=O)N3C[C@H](OC(F)F)C[C@H]3C(=O)N[C@H](C)c3cc(C(=N)N)cs3)cc2)cc1

$$$$
L4:P09871:31406
     RDKit          3D

 72 77  0  0  0  0  0  0  0  0999 V2000
   13.3904   -3.0873   -3.6466 C   0  0  2  0  0  0  0  0  0  0  0  0
   14.7692   -3.1793   -3.0020 C   0  0  0  0  0  0  0  0  0  0  0  0
   15.6749   -2.5009   -4.0294 C   0  0  0  0  0  0  0  0  0  0  0  0
   15.0225   -2.8600   -5.3794 C   0  0  0  0  0  0  0  0  0  0  0  0
   13.6466   -3.2312   -5.0743 N   0  0  0  0  0  0  0  0  0  0  0  0
   12.6130   -3.5474   -5.9282 C   0  0  0  0  0  0  0  0  0  0  0  0
   11.4798   -3.7628   -5.4762 O   0  0  0  0  0  0  0  0  0  0  0  0
   17.0070   -3.0185   -3.9254 O   0  0  0  0  0  0  0  0  0  0  0  0
   17.8446   -1.8622   -3.9747 C   0  0  0  0  0  0  0  0  0  0  0  0
   16.9985   -0.7986   -3.3303 C   0  0  0  0  0  0  0  0  0  0  0  0
   15.6891   -1.0822   -3.8223 O   0  0  0  0  0  0  0  0  0  0  0  0
   11.3279   -1.8229   -3.2141 N   0  0  0  0  0  0  0  0  0  0  0  0
   12.7021   -1.7324   -3.3535 C   0  0  0  0  0  0  0  0  0  0  0  0
   13.3147   -0.6710   -3.2545 O   0  0  0  0  0  0  0  0  0  0  0  0
   10.8802   -2.6594   -3.5646 H   0  0  0  0  0  0  0  0  0  0  0  0
   10.1454   -0.2010   -1.8060 C   0  0  0  0  0  0  0  0  0  0  0  0
   10.5112   -0.6197   -3.2267 C   0  0  2  0  0  0  0  0  0  0  0  0
    9.3288   -0.9115   -4.1257 C   0  0  0  0  0  0  0  0  0  0  0  0
    8.0188   -1.1143   -3.7235 C   0  0  0  0  0  0  0  0  0  0  0  0
    7.0999   -1.3127   -4.8123 C   0  0  0  0  0  0  0  0  0  0  0  0
    7.7782   -1.2572   -6.0176 C   0  0  0  0  0  0  0  0  0  0  0  0
    9.4480   -0.9402   -5.8332 S   0  0  0  0  0  0  0  0  0  0  0  0
    5.6640   -1.5187   -4.6910 C   0  0  0  0  0  0  0  0  0  0  0  0
    4.9323   -1.9390   -5.6638 N   0  0  0  0  0  0  0  0  0  0  0  0
    5.1428   -1.2162   -3.4754 N   0  0  0  0  0  0  0  0  0  0  0  0
    5.5043   -2.1461   -6.4861 H   0  0  0  0  0  0  0  0  0  0  0  0
    5.5624   -0.4187   -3.0103 H   0  0  0  0  0  0  0  0  0  0  0  0
    4.1326   -1.1452   -3.5153 H   0  0  0  0  0  0  0  0  0  0  0  0
   12.8029   -3.4740   -7.4560 C   0  0  0  0  0  0  0  0  0  0  0  0
   11.9471   -2.6032   -8.2391 N   0  0  0  0  0  0  0  0  0  0  0  0
   12.2932   -1.2900   -8.4692 C   0  0  0  0  0  0  0  0  0  0  0  0
   13.3158   -0.7786   -8.0300 O   0  0  0  0  0  0  0  0  0  0  0  0
   11.0546   -2.9670   -8.5343 H   0  0  0  0  0  0  0  0  0  0  0  0
   11.3178   -0.4717   -9.2436 C   0  0  0  0  0  0  0  0  0  0  0  0
   11.2316    0.9052   -8.9407 C   0  0  0  0  0  0  0  0  0  0  0  0
   10.3279    1.7346   -9.6095 C   0  0  0  0  0  0  0  0  0  0  0  0
    9.5232    1.1651  -10.5852 C   0  0  0  0  0  0  0  0  0  0  0  0
    9.6114   -0.2077  -10.9079 C   0  0  0  0  0  0  0  0  0  0  0  0
   10.5096   -1.0324  -10.2467 C   0  0  0  0  0  0  0  0  0  0  0  0
    8.6640   -0.5012  -11.9634 C   0  0  0  0  0  0  0  0  0  0  0  0
    8.3755   -1.6899  -12.6167 C   0  0  0  0  0  0  0  0  0  0  0  0
    7.3951   -1.6771  -13.6145 C   0  0  0  0  0  0  0  0  0  0  0  0
    6.7253   -0.4896  -13.9398 C   0  0  0  0  0  0  0  0  0  0  0  0
    5.7926   -0.5097  -14.9008 F   0  0  0  0  0  0  0  0  0  0  0  0
    7.0046    0.7074  -13.2892 C   0  0  0  0  0  0  0  0  0  0  0  0
    7.9776    0.6879  -12.3014 C   0  0  0  0  0  0  0  0  0  0  0  0
    8.4687    1.8448  -11.4476 C   0  0  0  0  0  0  0  0  0  0  0  0
    7.4703    2.3961  -10.7022 F   0  0  0  0  0  0  0  0  0  0  0  0
    8.9816    2.8598  -12.1963 F   0  0  0  0  0  0  0  0  0  0  0  0
   12.7276   -3.8347   -3.2633 H   0  0  0  0  0  0  0  0  0  0  0  0
   15.0557   -4.1991   -2.8506 H   0  0  0  0  0  0  0  0  0  0  0  0
   14.8137   -2.7240   -2.0347 H   0  0  0  0  0  0  0  0  0  0  0  0
   15.5368   -3.6806   -5.8343 H   0  0  0  0  0  0  0  0  0  0  0  0
   15.0643   -2.0399   -6.0654 H   0  0  0  0  0  0  0  0  0  0  0  0
   18.0826   -1.6034   -4.9853 H   0  0  0  0  0  0  0  0  0  0  0  0
   18.7856   -2.0040   -3.4855 H   0  0  0  0  0  0  0  0  0  0  0  0
   17.3173    0.1784   -3.6283 H   0  0  0  0  0  0  0  0  0  0  0  0
   17.0564   -0.8059   -2.2619 H   0  0  0  0  0  0  0  0  0  0  0  0
   11.0391   -0.0166   -1.2472 H   0  0  0  0  0  0  0  0  0  0  0  0
    9.5862   -0.9831   -1.3365 H   0  0  0  0  0  0  0  0  0  0  0  0
    9.5544    0.6904   -1.8379 H   0  0  0  0  0  0  0  0  0  0  0  0
   11.0331    0.2276   -3.6199 H   0  0  0  0  0  0  0  0  0  0  0  0
    7.7286   -1.1223   -2.7332 H   0  0  0  0  0  0  0  0  0  0  0  0
    7.3227   -1.3932   -6.9336 H   0  0  0  0  0  0  0  0  0  0  0  0
   12.6686   -4.4657   -7.8347 H   0  0  0  0  0  0  0  0  0  0  0  0
   13.7747   -3.0406   -7.5688 H   0  0  0  0  0  0  0  0  0  0  0  0
   11.8458    1.3048   -8.2140 H   0  0  0  0  0  0  0  0  0  0  0  0
   10.2612    2.7396   -9.3846 H   0  0  0  0  0  0  0  0  0  0  0  0
   10.5824   -2.0337  -10.4858 H   0  0  0  0  0  0  0  0  0  0  0  0
    8.8713   -2.5616  -12.3730 H   0  0  0  0  0  0  0  0  0  0  0  0
    7.1631   -2.5492  -14.1152 H   0  0  0  0  0  0  0  0  0  0  0  0
    6.5063    1.5777  -13.5325 H   0  0  0  0  0  0  0  0  0  0  0  0
  1  2  1  0
  1 50  1  1
  2  3  1  0
  2 51  1  0
  2 52  1  0
  3  4  1  0
  3  8  1  0
  4  5  1  0
  4 53  1  0
  4 54  1  0
  5  6  1  0
  5  1  1  0
  6  7  2  0
  6 29  1  0
  8  9  1  0
  9 10  1  0
  9 55  1  0
  9 56  1  0
 10 11  1  0
 10 57  1  0
 10 58  1  0
 11  3  1  0
 12 13  1  0
 12 15  1  0
 13 14  2  0
 13  1  1  0
 16 17  1  0
 16 59  1  0
 16 60  1  0
 16 61  1  0
 17 12  1  0
 17 18  1  0
 17 62  1  6
 18 19  2  0
 19 20  1  0
 19 63  1  0
 20 23  1  0
 20 21  2  0
 21 22  1  0
 21 64  1  0
 22 18  1  0
 23 24  2  0
 23 25  1  0
 24 26  1  0
 25 27  1  0
 25 28  1  0
 29 30  1  0
 29 65  1  0
 29 66  1  0
 30 31  1  0
 30 33  1  0
 31 32  2  0
 31 34  1  0
 34 35  2  0
 35 36  1  0
 35 67  1  0
 36 37  2  0
 36 68  1  0
 37 38  1  0
 38 39  2  0
 38 40  1  0
 39 34  1  0
 39 69  1  0
 40 41  2  0
 41 42  1  0
 41 70  1  0
 42 43  2  0
 42 71  1  0
 43 44  1  0
 43 45  1  0
 45 46  2  0
 45 72  1  0
 46 47  1  0
 46 40  1  0
 47 48  1  0
 47 49  1  0
 47 37  1  0
M  END
>  <minimizedAffinity>  (3) 
-9.59286

>  <mol_id>  (3) 
31406

>  <source_index>  (3) 
2

>  <layer>  (3) 
L4

>  <uniprot>  (3) 
P09871

>  <paff>  (3) 
7

>  <smiles>  (3) 
C[C@@H](NC(=O)[C@@H]1CC2(CN1C(=O)CNC(=O)c1ccc3c(c1)-c1ccc(F)cc1C3(F)F)OCCO2)c1cc(C(=N)N)cs1

$$$$
L4:P09871:58779
     RDKit          3D

 70 74  0  0  0  0  0  0  0  0999 V2000
   11.5941   -4.4157   -6.9545 C   0  0  2  0  0  0  0  0  0  0  0  0
   11.0627   -5.7501   -6.3982 C   0  0  0  0  0  0  0  0  0  0  0  0
   12.0169   -6.8151   -6.9220 C   0  0  2  0  0  0  0  0  0  0  0  0
   13.3458   -6.0838   -7.0203 C   0  0  0  0  0  0  0  0  0  0  0  0
   13.0064   -4.6895   -7.2696 N   0  0  0  0  0  0  0  0  0  0  0  0
   13.7749   -3.8219   -8.0199 C   0  0  0  0  0  0  0  0  0  0  0  0
   13.3313   -2.7381   -8.4157 O   0  0  0  0  0  0  0  0  0  0  0  0
   10.7875   -2.1506   -6.3982 N   0  0  0  0  0  0  0  0  0  0  0  0
   11.4048   -3.2789   -5.9144 C   0  0  0  0  0  0  0  0  0  0  0  0
   11.7360   -3.3890   -4.7351 O   0  0  0  0  0  0  0  0  0  0  0  0
   10.6157   -2.1028   -7.4039 H   0  0  0  0  0  0  0  0  0  0  0  0
   11.8453   -0.7537   -4.6696 C   0  0  0  0  0  0  0  0  0  0  0  0
   10.6583   -0.9395   -5.6147 C   0  0  2  0  0  0  0  0  0  0  0  0
    9.3420   -1.0085   -4.8768 C   0  0  0  0  0  0  0  0  0  0  0  0
    8.0659   -1.2298   -5.3634 C   0  0  0  0  0  0  0  0  0  0  0  0
    7.0549   -1.2251   -4.3433 C   0  0  0  0  0  0  0  0  0  0  0  0
    7.6242   -0.9925   -3.1055 C   0  0  0  0  0  0  0  0  0  0  0  0
    9.3157   -0.7660   -3.1782 S   0  0  0  0  0  0  0  0  0  0  0  0
    5.6358   -1.4513   -4.5481 C   0  0  0  0  0  0  0  0  0  0  0  0
    5.1585   -1.8102   -5.6860 N   0  0  0  0  0  0  0  0  0  0  0  0
    4.8456   -1.2380   -3.4674 N   0  0  0  0  0  0  0  0  0  0  0  0
    5.9154   -1.9440   -6.3636 H   0  0  0  0  0  0  0  0  0  0  0  0
    3.8691   -1.2437   -3.7524 H   0  0  0  0  0  0  0  0  0  0  0  0
    5.0710   -0.3964   -2.9493 H   0  0  0  0  0  0  0  0  0  0  0  0
   11.5393   -7.4829   -8.5090 S   0  0  0  0  0  0  0  0  0  0  0  0
   11.6753   -9.2424   -8.2804 C   0  0  0  0  0  0  0  0  0  0  0  0
   12.5611   -7.0964   -9.4622 O   0  0  0  0  0  0  0  0  0  0  0  0
   10.1444   -7.1716   -8.7488 O   0  0  0  0  0  0  0  0  0  0  0  0
   15.2184   -4.2356   -8.3213 C   0  0  0  0  0  0  0  0  0  0  0  0
   16.0872   -3.6712   -7.3065 N   0  0  0  0  0  0  0  0  0  0  0  0
   16.7532   -4.4711   -6.4108 C   0  0  0  0  0  0  0  0  0  0  0  0
   16.6535   -5.6912   -6.3963 O   0  0  0  0  0  0  0  0  0  0  0  0
   16.3356   -2.6934   -7.4185 H   0  0  0  0  0  0  0  0  0  0  0  0
   17.6385   -3.7707   -5.4419 C   0  0  0  0  0  0  0  0  0  0  0  0
   17.6096   -4.0915   -4.0757 C   0  0  0  0  0  0  0  0  0  0  0  0
   18.4550   -3.4460   -3.1632 C   0  0  0  0  0  0  0  0  0  0  0  0
   19.3375   -2.4609   -3.6430 C   0  0  0  0  0  0  0  0  0  0  0  0
   19.3454   -2.1801   -5.0052 C   0  0  0  0  0  0  0  0  0  0  0  0
   18.5275   -2.8086   -5.9395 C   0  0  0  0  0  0  0  0  0  0  0  0
   20.2613   -1.2139   -5.2883 O   0  0  0  0  0  0  0  0  0  0  0  0
   20.8516   -0.8678   -4.1126 C   0  0  0  0  0  0  0  0  0  0  0  0
   21.8536    0.0888   -3.9665 C   0  0  0  0  0  0  0  0  0  0  0  0
   22.3375    0.2941   -2.6709 C   0  0  0  0  0  0  0  0  0  0  0  0
   21.8326   -0.4294   -1.5875 C   0  0  0  0  0  0  0  0  0  0  0  0
   20.8208   -1.3844   -1.7654 C   0  0  0  0  0  0  0  0  0  0  0  0
   20.3204   -1.6080   -3.0617 C   0  0  0  0  0  0  0  0  0  0  0  0
   11.0708   -4.0754   -7.8236 H   0  0  0  0  0  0  0  0  0  0  0  0
   10.0686   -5.9327   -6.7493 H   0  0  0  0  0  0  0  0  0  0  0  0
   11.0187   -5.7463   -5.3291 H   0  0  0  0  0  0  0  0  0  0  0  0
   12.0377   -7.6690   -6.2775 H   0  0  0  0  0  0  0  0  0  0  0  0
   13.9296   -6.4763   -7.8265 H   0  0  0  0  0  0  0  0  0  0  0  0
   13.9276   -6.1971   -6.1295 H   0  0  0  0  0  0  0  0  0  0  0  0
   12.7507   -0.7109   -5.2382 H   0  0  0  0  0  0  0  0  0  0  0  0
   11.8908   -1.5772   -3.9880 H   0  0  0  0  0  0  0  0  0  0  0  0
   11.7253    0.1571   -4.1210 H   0  0  0  0  0  0  0  0  0  0  0  0
   10.6647   -0.0810   -6.2534 H   0  0  0  0  0  0  0  0  0  0  0  0
    7.8603   -1.3834   -6.3630 H   0  0  0  0  0  0  0  0  0  0  0  0
    7.0829   -0.9591   -2.2275 H   0  0  0  0  0  0  0  0  0  0  0  0
   12.6980   -9.5008   -8.1010 H   0  0  0  0  0  0  0  0  0  0  0  0
   11.3297   -9.7441   -9.1600 H   0  0  0  0  0  0  0  0  0  0  0  0
   11.0800   -9.5403   -7.4427 H   0  0  0  0  0  0  0  0  0  0  0  0
   15.5043   -3.8680   -9.2846 H   0  0  0  0  0  0  0  0  0  0  0  0
   15.2995   -5.3025   -8.3173 H   0  0  0  0  0  0  0  0  0  0  0  0
   16.9552   -4.8144   -3.7377 H   0  0  0  0  0  0  0  0  0  0  0  0
   18.4307   -3.6882   -2.1603 H   0  0  0  0  0  0  0  0  0  0  0  0
   18.5733   -2.5785   -6.9445 H   0  0  0  0  0  0  0  0  0  0  0  0
   22.2198    0.6186   -4.7729 H   0  0  0  0  0  0  0  0  0  0  0  0
   23.0807    0.9923   -2.5120 H   0  0  0  0  0  0  0  0  0  0  0  0
   22.2098   -0.2586   -0.6422 H   0  0  0  0  0  0  0  0  0  0  0  0
   20.4501   -1.9134   -0.9605 H   0  0  0  0  0  0  0  0  0  0  0  0
  1  2  1  0
  1 47  1  6
  2  3  1  0
  2 48  1  0
  2 49  1  0
  3 25  1  0
  3  4  1  0
  3 50  1  1
  4  5  1  0
  4 51  1  0
  4 52  1  0
  5  6  1  0
  5  1  1  0
  6  7  2  0
  6 29  1  0
  8  9  1  0
  8 11  1  0
  9 10  2  0
  9  1  1  0
 12 13  1  0
 12 53  1  0
 12 54  1  0
 12 55  1  0
 13  8  1  0
 13 14  1  0
 13 56  1  6
 14 15  2  0
 15 16  1  0
 15 57  1  0
 16 19  1  0
 16 17  2  0
 17 18  1  0
 17 58  1  0
 18 14  1  0
 19 20  2  0
 19 21  1  0
 20 22  1  0
 21 23  1  0
 21 24  1  0
 25 26  1  0
 25 27  2  0
 25 28  2  0
 26 59  1  0
 26 60  1  0
 26 61  1  0
 29 30  1  0
 29 62  1  0
 29 63  1  0
 30 31  1  0
 30 33  1  0
 31 32  2  0
 31 34  1  0
 34 35  2  0
 35 36  1  0
 35 64  1  0
 36 37  2  0
 36 65  1  0
 37 38  1  0
 38 39  2  0
 38 40  1  0
 39 34  1  0
 39 66  1  0
 40 41  1  0
 41 42  2  0
 42 43  1  0
 42 67  1  0
 43 44  2  0
 43 68  1  0
 44 45  1  0
 44 69  1  0
 45 46  2  0
 45 70  1  0
 46 41  1  0
 46 37  1  0
M  END
>  <minimizedAffinity>  (4) 
-9.42942

>  <mol_id>  (4) 
58779

>  <source_index>  (4) 
3

>  <layer>  (4) 
L4

>  <uniprot>  (4) 
P09871

>  <paff>  (4) 
7

>  <smiles>  (4) 
C[C@@H](NC(=O)[C@@H]1C[C@@H](S(C)(=O)=O)CN1C(=O)CNC(=O)c1ccc2c(c1)oc1ccccc12)c1cc(C(=N)N)cs1

$$$$
L4:P09871:70932
     RDKit          3D

 79 83  0  0  0  0  0  0  0  0999 V2000
   14.4961   -5.2005   -9.3251 C   0  0  2  0  0  0  0  0  0  0  0  0
   13.6210   -6.4258   -9.5935 C   0  0  0  0  0  0  0  0  0  0  0  0
   12.8737   -6.6194   -8.2794 C   0  0  0  0  0  0  0  0  0  0  0  0
   13.9020   -6.1952   -7.2214 C   0  0  0  0  0  0  0  0  0  0  0  0
   14.8294   -5.2965   -7.8959 N   0  0  0  0  0  0  0  0  0  0  0  0
   15.9669   -4.7287   -7.3692 C   0  0  0  0  0  0  0  0  0  0  0  0
   16.6869   -4.0211   -8.0833 O   0  0  0  0  0  0  0  0  0  0  0  0
   12.4875   -7.9904   -8.1122 O   0  0  0  0  0  0  0  0  0  0  0  0
   11.0928   -7.9921   -8.4223 C   0  0  0  0  0  0  0  0  0  0  0  0
   10.6336   -6.6510   -7.9131 C   0  0  0  0  0  0  0  0  0  0  0  0
   11.7183   -5.7778   -8.2230 O   0  0  0  0  0  0  0  0  0  0  0  0
   13.8032   -2.9110   -8.7478 N   0  0  0  0  0  0  0  0  0  0  0  0
   13.8067   -3.8747   -9.7353 C   0  0  0  0  0  0  0  0  0  0  0  0
   13.4237   -3.6490  -10.8822 O   0  0  0  0  0  0  0  0  0  0  0  0
   14.3575   -3.1062   -7.9158 H   0  0  0  0  0  0  0  0  0  0  0  0
   13.5008   -1.5278   -9.0383 C   0  0  0  0  0  0  0  0  0  0  0  0
   10.3416   -0.6596   -7.0988 C   0  0  0  0  0  0  0  0  0  0  0  0
    9.7124   -0.7546   -8.3229 C   0  0  0  0  0  0  0  0  0  0  0  0
   10.7787   -1.2000   -9.5843 S   0  0  0  0  0  0  0  0  0  0  0  0
   12.1264   -1.2182   -8.5221 C   0  0  0  0  0  0  0  0  0  0  0  0
   11.7438   -0.9342   -7.2229 C   0  0  0  0  0  0  0  0  0  0  0  0
    9.3699   -1.2649   -4.9099 C   0  0  0  0  0  0  0  0  0  0  0  0
    9.4619   -2.4853   -4.9880 O   0  0  0  0  0  0  0  0  0  0  0  0
    9.7432   -0.3508   -5.8789 N   0  0  0  0  0  0  0  0  0  0  0  0
    9.5758    0.6328   -5.7095 H   0  0  0  0  0  0  0  0  0  0  0  0
    8.8421   -0.5780   -3.6609 C   0  0  0  0  0  0  0  0  0  0  0  0
    7.4604   -1.0982   -3.2602 C   0  0  0  0  0  0  0  0  0  0  0  0
    5.0629   -1.1794   -3.9386 N   0  0  0  0  0  0  0  0  0  0  0  0
    6.4420   -1.0410   -4.3985 C   0  0  0  0  0  0  0  0  0  0  0  0
    4.9635   -2.0503   -3.4176 H   0  0  0  0  0  0  0  0  0  0  0  0
    4.8173   -0.4277   -3.2994 H   0  0  0  0  0  0  0  0  0  0  0  0
   16.4156   -5.1095   -5.9475 C   0  0  0  0  0  0  0  0  0  0  0  0
   17.5880   -4.4196   -5.4349 N   0  0  0  0  0  0  0  0  0  0  0  0
   17.5281   -3.6758   -4.2764 C   0  0  0  0  0  0  0  0  0  0  0  0
   16.5201   -3.5653   -3.5879 O   0  0  0  0  0  0  0  0  0  0  0  0
   18.3849   -4.3178   -6.0513 H   0  0  0  0  0  0  0  0  0  0  0  0
   18.7613   -2.9235   -3.9283 C   0  0  0  0  0  0  0  0  0  0  0  0
   19.8137   -2.7766   -4.8501 C   0  0  0  0  0  0  0  0  0  0  0  0
   20.9318   -2.0176   -4.5075 C   0  0  0  0  0  0  0  0  0  0  0  0
   20.9951   -1.4030   -3.2474 C   0  0  0  0  0  0  0  0  0  0  0  0
   19.9786   -1.5918   -2.3083 C   0  0  0  0  0  0  0  0  0  0  0  0
   18.8570   -2.3485   -2.6493 C   0  0  0  0  0  0  0  0  0  0  0  0
   22.0916   -0.6487   -2.8942 O   0  0  0  0  0  0  0  0  0  0  0  0
   23.2406   -1.3823   -2.7162 C   0  0  0  0  0  0  0  0  0  0  0  0
   23.3701   -2.1609   -1.5607 C   0  0  0  0  0  0  0  0  0  0  0  0
   24.5359   -2.9052   -1.3556 C   0  0  0  0  0  0  0  0  0  0  0  0
   25.5638   -2.8423   -2.2929 C   0  0  0  0  0  0  0  0  0  0  0  0
   26.6824   -3.5552   -2.0934 F   0  0  0  0  0  0  0  0  0  0  0  0
   25.4498   -2.0468   -3.4324 C   0  0  0  0  0  0  0  0  0  0  0  0
   24.2838   -1.3095   -3.6460 C   0  0  0  0  0  0  0  0  0  0  0  0
   15.3839   -5.1883   -9.9222 H   0  0  0  0  0  0  0  0  0  0  0  0
   14.2205   -7.2819   -9.8230 H   0  0  0  0  0  0  0  0  0  0  0  0
   12.9677   -6.2977  -10.4311 H   0  0  0  0  0  0  0  0  0  0  0  0
   14.4221   -7.0512   -6.8450 H   0  0  0  0  0  0  0  0  0  0  0  0
   13.4307   -5.7169   -6.3883 H   0  0  0  0  0  0  0  0  0  0  0  0
   10.5873   -8.7890   -7.9181 H   0  0  0  0  0  0  0  0  0  0  0  0
   10.8913   -8.1409   -9.4626 H   0  0  0  0  0  0  0  0  0  0  0  0
   10.4602   -6.6833   -6.8577 H   0  0  0  0  0  0  0  0  0  0  0  0
    9.7108   -6.3358   -8.3535 H   0  0  0  0  0  0  0  0  0  0  0  0
   14.2170   -0.8940   -8.5585 H   0  0  0  0  0  0  0  0  0  0  0  0
   13.5406   -1.3595  -10.0942 H   0  0  0  0  0  0  0  0  0  0  0  0
    8.7056   -0.5760   -8.4627 H   0  0  0  0  0  0  0  0  0  0  0  0
   12.3994   -0.9213   -6.4260 H   0  0  0  0  0  0  0  0  0  0  0  0
    9.5243   -0.7541   -2.8556 H   0  0  0  0  0  0  0  0  0  0  0  0
    8.7530    0.4672   -3.8716 H   0  0  0  0  0  0  0  0  0  0  0  0
    7.5589   -2.1153   -2.9428 H   0  0  0  0  0  0  0  0  0  0  0  0
    7.0975   -0.4660   -2.4769 H   0  0  0  0  0  0  0  0  0  0  0  0
    6.5419   -0.1002   -4.8982 H   0  0  0  0  0  0  0  0  0  0  0  0
    6.6455   -1.8640   -5.0513 H   0  0  0  0  0  0  0  0  0  0  0  0
   16.6266   -6.1585   -5.9424 H   0  0  0  0  0  0  0  0  0  0  0  0
   15.6101   -4.8173   -5.3066 H   0  0  0  0  0  0  0  0  0  0  0  0
   19.7583   -3.2288   -5.7761 H   0  0  0  0  0  0  0  0  0  0  0  0
   21.7092   -1.9082   -5.1773 H   0  0  0  0  0  0  0  0  0  0  0  0
   20.0566   -1.1741   -1.3678 H   0  0  0  0  0  0  0  0  0  0  0  0
   18.0985   -2.4859   -1.9631 H   0  0  0  0  0  0  0  0  0  0  0  0
   22.6094   -2.1856   -0.8638 H   0  0  0  0  0  0  0  0  0  0  0  0
   24.6338   -3.4968   -0.5157 H   0  0  0  0  0  0  0  0  0  0  0  0
   26.2233   -2.0033   -4.1142 H   0  0  0  0  0  0  0  0  0  0  0  0
   24.1918   -0.7146   -4.4842 H   0  0  0  0  0  0  0  0  0  0  0  0
  1  2  1  0
  1 51  1  6
  2  3  1  0
  2 52  1  0
  2 53  1  0
  3  4  1  0
  3  8  1  0
  4  5  1  0
  4 54  1  0
  4 55  1  0
  5  6  1  0
  5  1  1  0
  6  7  2  0
  6 32  1  0
  8  9  1  0
  9 10  1  0
  9 56  1  0
  9 57  1  0
 10 11  1  0
 10 58  1  0
 10 59  1  0
 11  3  1  0
 12 13  1  0
 12 15  1  0
 13 14  2  0
 13  1  1  0
 16 12  1  0
 16 60  1  0
 16 61  1  0
 17 18  2  0
 18 19  1  0
 18 62  1  0
 19 20  1  0
 20 16  1  0
 20 21  2  0
 21 17  1  0
 21 63  1  0
 22 23  2  0
 22 24  1  0
 24 17  1  0
 24 25  1  0
 26 22  1  0
 26 64  1  0
 26 65  1  0
 27 26  1  0
 27 66  1  0
 27 67  1  0
 28 29  1  0
 28 30  1  0
 28 31  1  0
 29 27  1  0
 29 68  1  0
 29 69  1  0
 32 33  1  0
 32 70  1  0
 32 71  1  0
 33 34  1  0
 33 36  1  0
 34 35  2  0
 34 37  1  0
 37 38  2  0
 38 39  1  0
 38 72  1  0
 39 40  2  0
 39 73  1  0
 40 43  1  0
 40 41  1  0
 41 42  2  0
 41 74  1  0
 42 37  1  0
 42 75  1  0
 43 44  1  0
 44 45  2  0
 45 46  1  0
 45 76  1  0
 46 47  2  0
 46 77  1  0
 47 48  1  0
 47 49  1  0
 49 50  2  0
 49 78  1  0
 50 44  1  0
 50 79  1  0
M  END
>  <minimizedAffinity>  (5) 
-7.54535

>  <mol_id>  (5) 
70932

>  <source_index>  (5) 
4

>  <layer>  (5) 
L4

>  <uniprot>  (5) 
P09871

>  <paff>  (5) 
6

>  <smiles>  (5) 
NCCCC(=O)Nc1csc(CNC(=O)[C@@H]2CC3(CN2C(=O)CNC(=O)c2ccc(Oc4ccc(F)cc4)cc2)OCCO3)c1

$$$$
L4:P09871:76886
     RDKit          3D

 68 72  0  0  0  0  0  0  0  0999 V2000
   13.3845   -3.3833   -4.8698 C   0  0  2  0  0  0  0  0  0  0  0  0
   14.0242   -2.2697   -4.0557 C   0  0  0  0  0  0  0  0  0  0  0  0
   15.4504   -2.7976   -3.9054 C   0  0  1  0  0  0  0  0  0  0  0  0
   15.4667   -3.6201   -2.8105 F   0  0  0  0  0  0  0  0  0  0  0  0
   15.6967   -3.6709   -5.1479 C   0  0  0  0  0  0  0  0  0  0  0  0
   14.4148   -3.7696   -5.8471 N   0  0  0  0  0  0  0  0  0  0  0  0
   14.4276   -2.9898   -7.0268 C   0  0  0  0  0  0  0  0  0  0  0  0
   14.4220   -1.7603   -6.9926 O   0  0  0  0  0  0  0  0  0  0  0  0
   11.5618   -1.8423   -5.5454 N   0  0  0  0  0  0  0  0  0  0  0  0
   12.0048   -3.1448   -5.5200 C   0  0  0  0  0  0  0  0  0  0  0  0
   11.3230   -4.0833   -5.9381 O   0  0  0  0  0  0  0  0  0  0  0  0
   12.2125   -1.0881   -5.3746 H   0  0  0  0  0  0  0  0  0  0  0  0
   10.5573   -0.1933   -7.0785 C   0  0  0  0  0  0  0  0  0  0  0  0
   10.3605   -1.4817   -6.2777 C   0  0  2  0  0  0  0  0  0  0  0  0
    9.2016   -1.3466   -5.3205 C   0  0  0  0  0  0  0  0  0  0  0  0
    7.8673   -1.5861   -5.5950 C   0  0  0  0  0  0  0  0  0  0  0  0
    6.9829   -1.3048   -4.4965 C   0  0  0  0  0  0  0  0  0  0  0  0
    7.7155   -0.8532   -3.4121 C   0  0  0  0  0  0  0  0  0  0  0  0
    9.3994   -0.7866   -3.7119 S   0  0  0  0  0  0  0  0  0  0  0  0
    5.5305   -1.4360   -4.5482 C   0  0  0  0  0  0  0  0  0  0  0  0
    4.8431   -1.1953   -3.4892 N   0  0  0  0  0  0  0  0  0  0  0  0
    4.9979   -1.7913   -5.7466 N   0  0  0  0  0  0  0  0  0  0  0  0
    3.8511   -1.3543   -3.6748 H   0  0  0  0  0  0  0  0  0  0  0  0
    5.4998   -1.4479   -6.5595 H   0  0  0  0  0  0  0  0  0  0  0  0
    4.0038   -1.6210   -5.8356 H   0  0  0  0  0  0  0  0  0  0  0  0
   16.4826   -1.7023   -3.7213 C   0  0  0  0  0  0  0  0  0  0  0  0
   17.4127   -1.7919   -4.7119 F   0  0  0  0  0  0  0  0  0  0  0  0
   14.4415   -3.7967   -8.3328 C   0  0  0  0  0  0  0  0  0  0  0  0
   13.5740   -4.9620   -8.3010 N   0  0  0  0  0  0  0  0  0  0  0  0
   12.4061   -4.9871   -9.0302 C   0  0  0  0  0  0  0  0  0  0  0  0
   11.9382   -4.0059   -9.5985 O   0  0  0  0  0  0  0  0  0  0  0  0
   13.9868   -5.8253   -7.9701 H   0  0  0  0  0  0  0  0  0  0  0  0
   11.7185   -6.3001   -9.1268 C   0  0  0  0  0  0  0  0  0  0  0  0
   10.8427   -6.5877  -10.1798 C   0  0  0  0  0  0  0  0  0  0  0  0
   10.1808   -7.8193  -10.2441 C   0  0  0  0  0  0  0  0  0  0  0  0
   10.4242   -8.7429   -9.2189 C   0  0  0  0  0  0  0  0  0  0  0  0
    9.9181  -10.0079   -9.0265 N   0  0  0  0  0  0  0  0  0  0  0  0
   10.4224  -10.5732   -7.8784 C   0  0  0  0  0  0  0  0  0  0  0  0
   10.1773  -11.8282   -7.3075 C   0  0  0  0  0  0  0  0  0  0  0  0
   10.8442  -12.1380   -6.1181 C   0  0  0  0  0  0  0  0  0  0  0  0
   11.7199  -11.2288   -5.5273 C   0  0  0  0  0  0  0  0  0  0  0  0
   11.9515   -9.9779   -6.1109 C   0  0  0  0  0  0  0  0  0  0  0  0
   11.2898   -9.6401   -7.3102 C   0  0  0  0  0  0  0  0  0  0  0  0
   11.2862   -8.4827   -8.1525 C   0  0  0  0  0  0  0  0  0  0  0  0
   11.9390   -7.2338   -8.1012 C   0  0  0  0  0  0  0  0  0  0  0  0
    9.2657  -10.4649   -9.6464 H   0  0  0  0  0  0  0  0  0  0  0  0
   13.1028   -4.1580   -4.1876 H   0  0  0  0  0  0  0  0  0  0  0  0
   13.5463   -2.1538   -3.1054 H   0  0  0  0  0  0  0  0  0  0  0  0
   13.9584   -1.3014   -4.5062 H   0  0  0  0  0  0  0  0  0  0  0  0
   16.0340   -4.6433   -4.8553 H   0  0  0  0  0  0  0  0  0  0  0  0
   16.4492   -3.2443   -5.7777 H   0  0  0  0  0  0  0  0  0  0  0  0
   11.3826   -0.3126   -7.7489 H   0  0  0  0  0  0  0  0  0  0  0  0
   10.7566    0.6164   -6.4081 H   0  0  0  0  0  0  0  0  0  0  0  0
    9.6703    0.0175   -7.6387 H   0  0  0  0  0  0  0  0  0  0  0  0
   10.1463   -2.2610   -6.9789 H   0  0  0  0  0  0  0  0  0  0  0  0
    7.5357   -1.9358   -6.5076 H   0  0  0  0  0  0  0  0  0  0  0  0
    7.2886   -0.5834   -2.5121 H   0  0  0  0  0  0  0  0  0  0  0  0
   16.9602   -1.8168   -2.7707 H   0  0  0  0  0  0  0  0  0  0  0  0
   16.0036   -0.7464   -3.7636 H   0  0  0  0  0  0  0  0  0  0  0  0
   15.4430   -4.1245   -8.5182 H   0  0  0  0  0  0  0  0  0  0  0  0
   14.0769   -3.1527   -9.1056 H   0  0  0  0  0  0  0  0  0  0  0  0
   10.6831   -5.8837  -10.9173 H   0  0  0  0  0  0  0  0  0  0  0  0
    9.5362   -8.0394  -11.0194 H   0  0  0  0  0  0  0  0  0  0  0  0
    9.5288  -12.4993   -7.7481 H   0  0  0  0  0  0  0  0  0  0  0  0
   10.6855  -13.0543   -5.6707 H   0  0  0  0  0  0  0  0  0  0  0  0
   12.2025  -11.4805   -4.6505 H   0  0  0  0  0  0  0  0  0  0  0  0
   12.6004   -9.3088   -5.6679 H   0  0  0  0  0  0  0  0  0  0  0  0
   12.5722   -7.0083   -7.3181 H   0  0  0  0  0  0  0  0  0  0  0  0
  1  2  1  0
  1 47  1  1
  2  3  1  0
  2 48  1  0
  2 49  1  0
  3  4  1  1
  3 26  1  0
  3  5  1  0
  5  6  1  0
  5 50  1  0
  5 51  1  0
  6  7  1  0
  6  1  1  0
  7  8  2  0
  7 28  1  0
  9 10  1  0
  9 12  1  0
 10 11  2  0
 10  1  1  0
 13 14  1  0
 13 52  1  0
 13 53  1  0
 13 54  1  0
 14  9  1  0
 14 15  1  0
 14 55  1  6
 15 16  2  0
 16 17  1  0
 16 56  1  0
 17 20  1  0
 17 18  2  0
 18 19  1  0
 18 57  1  0
 19 15  1  0
 20 21  2  0
 20 22  1  0
 21 23  1  0
 22 24  1  0
 22 25  1  0
 26 27  1  0
 26 58  1  0
 26 59  1  0
 28 29  1  0
 28 60  1  0
 28 61  1  0
 29 30  1  0
 29 32  1  0
 30 31  2  0
 30 33  1  0
 33 34  2  0
 34 35  1  0
 34 62  1  0
 35 36  2  0
 35 63  1  0
 36 37  1  0
 37 38  1  0
 37 46  1  0
 38 39  2  0
 39 40  1  0
 39 64  1  0
 40 41  2  0
 40 65  1  0
 41 42  1  0
 41 66  1  0
 42 43  2  0
 42 67  1  0
 43 44  1  0
 43 38  1  0
 44 45  2  0
 44 36  1  0
 45 33  1  0
 45 68  1  0
M  END
>  <minimizedAffinity>  (6) 
-9.55298

>  <mol_id>  (6) 
76886

>  <source_index>  (6) 
5

>  <layer>  (6) 
L4

>  <uniprot>  (6) 
P09871

>  <paff>  (6) 
7

>  <smiles>  (6) 
C[C@@H](NC(=O)[C@@H]1C[C@](F)(CF)CN1C(=O)CNC(=O)c1ccc2[nH]c3ccccc3c2c1)c1cc(C(=N)N)cs1

$$$$
L4:P09871:77799
     RDKit          3D

 65 69  0  0  0  0  0  0  0  0999 V2000
   14.5112   -3.3754   -5.3363 C   0  0  2  0  0  0  0  0  0  0  0  0
   15.5298   -2.5051   -4.5926 C   0  0  0  0  0  0  0  0  0  0  0  0
   16.8233   -3.3009   -4.6859 C   0  0  0  0  0  0  0  0  0  0  0  0
   16.7357   -3.9331   -6.0811 C   0  0  0  0  0  0  0  0  0  0  0  0
   15.3093   -4.1305   -6.3171 N   0  0  0  0  0  0  0  0  0  0  0  0
   14.8811   -5.1965   -7.0841 C   0  0  0  0  0  0  0  0  0  0  0  0
   15.6671   -5.8147   -7.8083 O   0  0  0  0  0  0  0  0  0  0  0  0
   17.9581   -2.4433   -4.5503 O   0  0  0  0  0  0  0  0  0  0  0  0
   18.8427   -3.1671   -3.6940 C   0  0  0  0  0  0  0  0  0  0  0  0
   17.9047   -3.9282   -2.7964 C   0  0  0  0  0  0  0  0  0  0  0  0
   16.8469   -4.3168   -3.6726 O   0  0  0  0  0  0  0  0  0  0  0  0
   12.1753   -2.6948   -5.6414 N   0  0  0  0  0  0  0  0  0  0  0  0
   13.4822   -2.4481   -6.0036 C   0  0  0  0  0  0  0  0  0  0  0  0
   13.7984   -1.6358   -6.8684 O   0  0  0  0  0  0  0  0  0  0  0  0
   11.9916   -3.5056   -5.0615 H   0  0  0  0  0  0  0  0  0  0  0  0
   11.0583   -2.0982   -6.3350 C   0  0  0  0  0  0  0  0  0  0  0  0
    8.0243   -1.2619   -4.1908 C   0  0  0  0  0  0  0  0  0  0  0  0
    8.9601   -0.7291   -3.3194 C   0  0  0  0  0  0  0  0  0  0  0  0
   10.5670   -0.8759   -3.8810 S   0  0  0  0  0  0  0  0  0  0  0  0
   10.0592   -1.6567   -5.3137 C   0  0  0  0  0  0  0  0  0  0  0  0
    8.6855   -1.8029   -5.3474 C   0  0  0  0  0  0  0  0  0  0  0  0
    5.7511   -0.7431   -4.7844 N   0  0  0  0  0  0  0  0  0  0  0  0
    6.5888   -1.2506   -3.9496 C   0  0  0  0  0  0  0  0  0  0  0  0
    6.1744   -1.8226   -2.7921 N   0  0  0  0  0  0  0  0  0  0  0  0
    6.2395   -0.3338   -5.5846 H   0  0  0  0  0  0  0  0  0  0  0  0
    6.6628   -2.6710   -2.5312 H   0  0  0  0  0  0  0  0  0  0  0  0
    5.1673   -1.9521   -2.8039 H   0  0  0  0  0  0  0  0  0  0  0  0
   13.3802   -5.5270   -7.0843 C   0  0  0  0  0  0  0  0  0  0  0  0
   13.1884   -6.9265   -7.4093 N   0  0  0  0  0  0  0  0  0  0  0  0
   12.1698   -7.3149   -8.2564 C   0  0  0  0  0  0  0  0  0  0  0  0
   11.5489   -6.5121   -8.9501 O   0  0  0  0  0  0  0  0  0  0  0  0
   13.4234   -7.6073   -6.6951 H   0  0  0  0  0  0  0  0  0  0  0  0
   11.8896   -8.7352   -8.2305 C   0  0  0  0  0  0  0  0  0  0  0  0
   11.8085   -9.6628   -9.2490 C   0  0  0  0  0  0  0  0  0  0  0  0
   11.4911  -10.9031   -8.6441 C   0  0  0  0  0  0  0  0  0  0  0  0
   11.3921  -10.6727   -7.2851 C   0  0  0  0  0  0  0  0  0  0  0  0
   11.6396   -9.3516   -7.0320 O   0  0  0  0  0  0  0  0  0  0  0  0
   11.0876  -11.5097   -6.1251 C   0  0  0  0  0  0  0  0  0  0  0  0
   10.3357  -12.6880   -6.2732 C   0  0  0  0  0  0  0  0  0  0  0  0
   10.0358  -13.4912   -5.1681 C   0  0  0  0  0  0  0  0  0  0  0  0
   10.4868  -13.1211   -3.9084 C   0  0  0  0  0  0  0  0  0  0  0  0
   10.1956  -13.8878   -2.8503 F   0  0  0  0  0  0  0  0  0  0  0  0
   11.2324  -11.9640   -3.7323 C   0  0  0  0  0  0  0  0  0  0  0  0
   11.5318  -11.1617   -4.8374 C   0  0  0  0  0  0  0  0  0  0  0  0
   13.9630   -4.0471   -4.7093 H   0  0  0  0  0  0  0  0  0  0  0  0
   15.2400   -2.3669   -3.5719 H   0  0  0  0  0  0  0  0  0  0  0  0
   15.6171   -1.5231   -5.0084 H   0  0  0  0  0  0  0  0  0  0  0  0
   17.2536   -4.8691   -6.1031 H   0  0  0  0  0  0  0  0  0  0  0  0
   17.1857   -3.3164   -6.8309 H   0  0  0  0  0  0  0  0  0  0  0  0
   19.4596   -2.5008   -3.1279 H   0  0  0  0  0  0  0  0  0  0  0  0
   19.5194   -3.8008   -4.2282 H   0  0  0  0  0  0  0  0  0  0  0  0
   17.5386   -3.3039   -2.0083 H   0  0  0  0  0  0  0  0  0  0  0  0
   18.3731   -4.7604   -2.3139 H   0  0  0  0  0  0  0  0  0  0  0  0
   11.3925   -1.2555   -6.9033 H   0  0  0  0  0  0  0  0  0  0  0  0
   10.6162   -2.8067   -7.0039 H   0  0  0  0  0  0  0  0  0  0  0  0
    8.7114   -0.2874   -2.4204 H   0  0  0  0  0  0  0  0  0  0  0  0
    8.1832   -2.2562   -6.1267 H   0  0  0  0  0  0  0  0  0  0  0  0
   12.8827   -4.9213   -7.8126 H   0  0  0  0  0  0  0  0  0  0  0  0
   12.9736   -5.3294   -6.1145 H   0  0  0  0  0  0  0  0  0  0  0  0
   11.9514   -9.4868  -10.2558 H   0  0  0  0  0  0  0  0  0  0  0  0
   11.3590  -11.8062   -9.1258 H   0  0  0  0  0  0  0  0  0  0  0  0
   10.0006  -12.9641   -7.2094 H   0  0  0  0  0  0  0  0  0  0  0  0
    9.4825  -14.3540   -5.2885 H   0  0  0  0  0  0  0  0  0  0  0  0
   11.5636  -11.6975   -2.7919 H   0  0  0  0  0  0  0  0  0  0  0  0
   12.0869  -10.3017   -4.7060 H   0  0  0  0  0  0  0  0  0  0  0  0
  1  2  1  0
  1 45  1  1
  2  3  1  0
  2 46  1  0
  2 47  1  0
  3  4  1  0
  3  8  1  0
  4  5  1  0
  4 48  1  0
  4 49  1  0
  5  6  1  0
  5  1  1  0
  6  7  2  0
  6 28  1  0
  8  9  1  0
  9 10  1  0
  9 50  1  0
  9 51  1  0
 10 11  1  0
 10 52  1  0
 10 53  1  0
 11  3  1  0
 12 13  1  0
 12 15  1  0
 13 14  2  0
 13  1  1  0
 16 12  1  0
 16 54  1  0
 16 55  1  0
 17 18  2  0
 18 19  1  0
 18 56  1  0
 19 20  1  0
 20 16  1  0
 20 21  2  0
 21 17  1  0
 21 57  1  0
 22 23  2  0
 22 25  1  0
 23 24  1  0
 23 17  1  0
 24 26  1  0
 24 27  1  0
 28 29  1  0
 28 58  1  0
 28 59  1  0
 29 30  1  0
 29 32  1  0
 30 31  2  0
 30 33  1  0
 33 34  2  0
 34 35  1  0
 34 60  1  0
 35 36  2  0
 35 61  1  0
 36 38  1  0
 36 37  1  0
 37 33  1  0
 38 39  2  0
 39 40  1  0
 39 62  1  0
 40 41  2  0
 40 63  1  0
 41 42  1  0
 41 43  1  0
 43 44  2  0
 43 64  1  0
 44 38  1  0
 44 65  1  0
M  END
>  <minimizedAffinity>  (7) 
-8.88445

>  <mol_id>  (7) 
77799

>  <source_index>  (7) 
6

>  <layer>  (7) 
L4

>  <uniprot>  (7) 
P09871

>  <paff>  (7) 
7

>  <smiles>  (7) 
N=C(N)c1csc(CNC(=O)[C@@H]2CC3(CN2C(=O)CNC(=O)c2ccc(-c4ccc(F)cc4)o2)OCCO3)c1

$$$$
L4:P09871:81308
     RDKit          3D

 78 82  0  0  0  0  0  0  0  0999 V2000
   13.7618   -2.6812   -4.4652 C   0  0  2  0  0  0  0  0  0  0  0  0
   14.8639   -2.9733   -3.4363 C   0  0  0  0  0  0  0  0  0  0  0  0
   16.0134   -3.5295   -4.2818 C   0  0  1  0  0  0  0  0  0  0  0  0
   15.9139   -2.6847   -5.5495 C   0  0  0  0  0  0  0  0  0  0  0  0
   14.4823   -2.5024   -5.7293 N   0  0  0  0  0  0  0  0  0  0  0  0
   13.9298   -2.3963   -6.9899 C   0  0  0  0  0  0  0  0  0  0  0  0
   14.6352   -2.3413   -8.0034 O   0  0  0  0  0  0  0  0  0  0  0  0
   17.3842   -3.4827   -3.6109 C   0  0  0  0  0  0  0  0  0  0  0  0
   18.3738   -3.8815   -4.5647 O   0  0  0  0  0  0  0  0  0  0  0  0
   19.4074   -2.9144   -4.7197 C   0  0  0  0  0  0  0  0  0  0  0  0
   19.9967   -2.5475   -3.3707 C   0  0  0  0  0  0  0  0  0  0  0  0
   18.8907   -2.1531   -2.4041 C   0  0  0  0  0  0  0  0  0  0  0  0
   17.6205   -2.1918   -3.0478 O   0  0  0  0  0  0  0  0  0  0  0  0
   11.6152   -1.6813   -3.8308 N   0  0  0  0  0  0  0  0  0  0  0  0
   12.9593   -1.4375   -4.0359 C   0  0  0  0  0  0  0  0  0  0  0  0
   13.4655   -0.3275   -3.9064 O   0  0  0  0  0  0  0  0  0  0  0  0
   11.2281   -2.5550   -4.1706 H   0  0  0  0  0  0  0  0  0  0  0  0
   10.4466   -0.4016   -2.1046 C   0  0  0  0  0  0  0  0  0  0  0  0
   10.6794   -0.5922   -3.6003 C   0  0  2  0  0  0  0  0  0  0  0  0
    9.4057   -0.9289   -4.3369 C   0  0  0  0  0  0  0  0  0  0  0  0
    8.1069   -1.0154   -3.8633 C   0  0  0  0  0  0  0  0  0  0  0  0
    7.1470   -1.3842   -4.8702 C   0  0  0  0  0  0  0  0  0  0  0  0
    7.7818   -1.5460   -6.0899 C   0  0  0  0  0  0  0  0  0  0  0  0
    9.4709   -1.3060   -6.0069 S   0  0  0  0  0  0  0  0  0  0  0  0
    5.7175   -1.5666   -4.6631 C   0  0  0  0  0  0  0  0  0  0  0  0
    4.9378   -1.9888   -5.5965 N   0  0  0  0  0  0  0  0  0  0  0  0
    5.2441   -1.2229   -3.4408 N   0  0  0  0  0  0  0  0  0  0  0  0
    5.4737   -2.2248   -6.4333 H   0  0  0  0  0  0  0  0  0  0  0  0
    5.7074   -0.4341   -3.0005 H   0  0  0  0  0  0  0  0  0  0  0  0
    4.2397   -1.0953   -3.4676 H   0  0  0  0  0  0  0  0  0  0  0  0
   12.3974   -2.2971   -7.0993 C   0  0  0  0  0  0  0  0  0  0  0  0
   11.8747   -3.5229   -7.6792 N   0  0  0  0  0  0  0  0  0  0  0  0
   11.5000   -4.5770   -6.8731 C   0  0  0  0  0  0  0  0  0  0  0  0
   11.4018   -4.5043   -5.6541 O   0  0  0  0  0  0  0  0  0  0  0  0
   12.2439   -3.7461   -8.6012 H   0  0  0  0  0  0  0  0  0  0  0  0
   11.2305   -5.8613   -7.5773 C   0  0  0  0  0  0  0  0  0  0  0  0
   11.5437   -7.0922   -6.9865 C   0  0  0  0  0  0  0  0  0  0  0  0
   11.2790   -8.2810   -7.6715 C   0  0  0  0  0  0  0  0  0  0  0  0
   10.7131   -8.2482   -8.9480 C   0  0  0  0  0  0  0  0  0  0  0  0
   10.3976   -7.0191   -9.5400 C   0  0  0  0  0  0  0  0  0  0  0  0
   10.6692   -5.8256   -8.8602 C   0  0  0  0  0  0  0  0  0  0  0  0
   10.4472   -9.4771   -9.5129 O   0  0  0  0  0  0  0  0  0  0  0  0
    9.3626  -10.1763   -9.0474 C   0  0  0  0  0  0  0  0  0  0  0  0
    8.0988   -9.6111   -9.2159 C   0  0  0  0  0  0  0  0  0  0  0  0
    6.9753  -10.2702   -8.7137 C   0  0  0  0  0  0  0  0  0  0  0  0
    7.1324  -11.4717   -8.0361 C   0  0  0  0  0  0  0  0  0  0  0  0
    6.0540  -12.1026   -7.5537 F   0  0  0  0  0  0  0  0  0  0  0  0
    8.3938  -12.0284   -7.8439 C   0  0  0  0  0  0  0  0  0  0  0  0
    9.5191  -11.3730   -8.3472 C   0  0  0  0  0  0  0  0  0  0  0  0
   13.0350   -3.4612   -4.5562 H   0  0  0  0  0  0  0  0  0  0  0  0
   14.5341   -3.6954   -2.7188 H   0  0  0  0  0  0  0  0  0  0  0  0
   15.1449   -2.1078   -2.8733 H   0  0  0  0  0  0  0  0  0  0  0  0
   15.9224   -4.5805   -4.4605 H   0  0  0  0  0  0  0  0  0  0  0  0
   16.3413   -3.1984   -6.3852 H   0  0  0  0  0  0  0  0  0  0  0  0
   16.4441   -1.7584   -5.4738 H   0  0  0  0  0  0  0  0  0  0  0  0
   17.4312   -4.1682   -2.7907 H   0  0  0  0  0  0  0  0  0  0  0  0
   19.0025   -2.0363   -5.1779 H   0  0  0  0  0  0  0  0  0  0  0  0
   20.1795   -3.3279   -5.3343 H   0  0  0  0  0  0  0  0  0  0  0  0
   20.6706   -1.7252   -3.4913 H   0  0  0  0  0  0  0  0  0  0  0  0
   20.5197   -3.3936   -2.9764 H   0  0  0  0  0  0  0  0  0  0  0  0
   19.0734   -1.1610   -2.0475 H   0  0  0  0  0  0  0  0  0  0  0  0
   18.8839   -2.8459   -1.5887 H   0  0  0  0  0  0  0  0  0  0  0  0
   11.3743   -0.1654   -1.6265 H   0  0  0  0  0  0  0  0  0  0  0  0
   10.0499   -1.3036   -1.6876 H   0  0  0  0  0  0  0  0  0  0  0  0
    9.7523    0.3979   -1.9507 H   0  0  0  0  0  0  0  0  0  0  0  0
   11.0662    0.3360   -3.9661 H   0  0  0  0  0  0  0  0  0  0  0  0
    7.8514   -0.8325   -2.8803 H   0  0  0  0  0  0  0  0  0  0  0  0
    7.2845   -1.7873   -6.9614 H   0  0  0  0  0  0  0  0  0  0  0  0
   12.1370   -1.4677   -7.7231 H   0  0  0  0  0  0  0  0  0  0  0  0
   11.9779   -2.1552   -6.1252 H   0  0  0  0  0  0  0  0  0  0  0  0
   11.9693   -7.1210   -6.0468 H   0  0  0  0  0  0  0  0  0  0  0  0
   11.5027   -9.1876   -7.2321 H   0  0  0  0  0  0  0  0  0  0  0  0
    9.9652   -6.9930  -10.4767 H   0  0  0  0  0  0  0  0  0  0  0  0
   10.4557   -4.9190   -9.3046 H   0  0  0  0  0  0  0  0  0  0  0  0
    7.9947   -8.7106   -9.7091 H   0  0  0  0  0  0  0  0  0  0  0  0
    6.0344   -9.8671   -8.8452 H   0  0  0  0  0  0  0  0  0  0  0  0
    8.4964  -12.9192   -7.3330 H   0  0  0  0  0  0  0  0  0  0  0  0
   10.4602  -11.7709   -8.2023 H   0  0  0  0  0  0  0  0  0  0  0  0
  1  2  1  0
  1 50  1  6
  2  3  1  0
  2 51  1  0
  2 52  1  0
  3  8  1  0
  3  4  1  0
  3 53  1  6
  4  5  1  0
  4 54  1  0
  4 55  1  0
  5  6  1  0
  5  1  1  0
  6  7  2  0
  6 31  1  0
  8  9  1  0
  8 56  1  0
  9 10  1  0
 10 11  1  0
 10 57  1  0
 10 58  1  0
 11 12  1  0
 11 59  1  0
 11 60  1  0
 12 13  1  0
 12 61  1  0
 12 62  1  0
 13  8  1  0
 14 15  1  0
 14 17  1  0
 15 16  2  0
 15  1  1  0
 18 19  1  0
 18 63  1  0
 18 64  1  0
 18 65  1  0
 19 14  1  0
 19 20  1  0
 19 66  1  6
 20 21  2  0
 21 22  1  0
 21 67  1  0
 22 25  1  0
 22 23  2  0
 23 24  1  0
 23 68  1  0
 24 20  1  0
 25 26  2  0
 25 27  1  0
 26 28  1  0
 27 29  1  0
 27 30  1  0
 31 32  1  0
 31 69  1  0
 31 70  1  0
 32 33  1  0
 32 35  1  0
 33 34  2  0
 33 36  1  0
 36 37  2  0
 37 38  1  0
 37 71  1  0
 38 39  2  0
 38 72  1  0
 39 42  1  0
 39 40  1  0
 40 41  2  0
 40 73  1  0
 41 36  1  0
 41 74  1  0
 42 43  1  0
 43 44  2  0
 44 45  1  0
 44 75  1  0
 45 46  2  0
 45 76  1  0
 46 47  1  0
 46 48  1  0
 48 49  2  0
 48 77  1  0
 49 43  1  0
 49 78  1  0
M  END
>  <minimizedAffinity>  (8) 
-9.10360

>  <mol_id>  (8) 
81308

>  <source_index>  (8) 
7

>  <layer>  (8) 
L4

>  <uniprot>  (8) 
P09871

>  <paff>  (8) 
7

>  <smiles>  (8) 
C[C@@H](NC(=O)[C@@H]1C[C@H](C2OCCCO2)CN1C(=O)CNC(=O)c1ccc(Oc2ccc(F)cc2)cc1)c1cc(C(=N)N)cs1

$$$$
L4:P09871:102062
     RDKit          3D

 68 72  0  0  0  0  0  0  0  0999 V2000
   13.3780   -3.1369   -3.9500 C   0  0  2  0  0  0  0  0  0  0  0  0
   14.7818   -2.9649   -3.3716 C   0  0  0  0  0  0  0  0  0  0  0  0
   15.6292   -2.6171   -4.5981 C   0  0  2  0  0  0  0  0  0  0  0  0
   15.0208   -3.5408   -5.6608 C   0  0  0  0  0  0  0  0  0  0  0  0
   13.6146   -3.6545   -5.3094 N   0  0  0  0  0  0  0  0  0  0  0  0
   12.6232   -4.3424   -5.9719 C   0  0  0  0  0  0  0  0  0  0  0  0
   11.4569   -4.2502   -5.5690 O   0  0  0  0  0  0  0  0  0  0  0  0
   11.2908   -1.8702   -3.5979 N   0  0  0  0  0  0  0  0  0  0  0  0
   12.6341   -1.7849   -3.8949 C   0  0  0  0  0  0  0  0  0  0  0  0
   13.1861   -0.7268   -4.1860 O   0  0  0  0  0  0  0  0  0  0  0  0
   11.0091   -2.7025   -3.0988 H   0  0  0  0  0  0  0  0  0  0  0  0
   10.1857   -0.3672   -1.9924 C   0  0  0  0  0  0  0  0  0  0  0  0
   10.4679   -0.6844   -3.4575 C   0  0  2  0  0  0  0  0  0  0  0  0
    9.2038   -0.9335   -4.2424 C   0  0  0  0  0  0  0  0  0  0  0  0
    7.8891   -0.9882   -3.8068 C   0  0  0  0  0  0  0  0  0  0  0  0
    6.9457   -1.2865   -4.8541 C   0  0  0  0  0  0  0  0  0  0  0  0
    7.6138   -1.4409   -6.0576 C   0  0  0  0  0  0  0  0  0  0  0  0
    9.3034   -1.2341   -5.9259 S   0  0  0  0  0  0  0  0  0  0  0  0
    5.5034   -1.4264   -4.7050 C   0  0  0  0  0  0  0  0  0  0  0  0
    4.8962   -1.1884   -3.5951 N   0  0  0  0  0  0  0  0  0  0  0  0
    4.8273   -1.8180   -5.8128 N   0  0  0  0  0  0  0  0  0  0  0  0
    5.5641   -0.9304   -2.8672 H   0  0  0  0  0  0  0  0  0  0  0  0
    5.1458   -1.4115   -6.6845 H   0  0  0  0  0  0  0  0  0  0  0  0
    3.8262   -1.7019   -5.6839 H   0  0  0  0  0  0  0  0  0  0  0  0
   16.9924   -2.8948   -4.3163 O   0  0  0  0  0  0  0  0  0  0  0  0
   17.1490   -3.7749   -3.2185 C   0  0  0  0  0  0  0  0  0  0  0  0
   18.2312   -3.3902   -2.5001 F   0  0  0  0  0  0  0  0  0  0  0  0
   17.4209   -5.0017   -3.7179 F   0  0  0  0  0  0  0  0  0  0  0  0
   12.8928   -5.0390   -7.3213 C   0  0  0  0  0  0  0  0  0  0  0  0
   11.7892   -5.4021   -8.1865 N   0  0  0  0  0  0  0  0  0  0  0  0
   11.2128   -6.6522   -8.1011 C   0  0  0  0  0  0  0  0  0  0  0  0
   11.6808   -7.5619   -7.4256 O   0  0  0  0  0  0  0  0  0  0  0  0
   11.3958   -4.6973   -8.7962 H   0  0  0  0  0  0  0  0  0  0  0  0
   10.0227   -6.8849   -8.9607 C   0  0  0  0  0  0  0  0  0  0  0  0
    9.3032   -8.0627   -8.7798 C   0  0  0  0  0  0  0  0  0  0  0  0
    8.1987   -8.3474   -9.5886 C   0  0  0  0  0  0  0  0  0  0  0  0
    7.7849   -7.4369  -10.5956 C   0  0  0  0  0  0  0  0  0  0  0  0
    8.5080   -6.2518  -10.7379 C   0  0  0  0  0  0  0  0  0  0  0  0
    9.6268   -5.9554   -9.9302 C   0  0  0  0  0  0  0  0  0  0  0  0
    7.8583   -5.2633  -11.9807 S   0  0  0  0  0  0  0  0  0  0  0  0
    6.6255   -6.3912  -12.3656 C   0  0  0  0  0  0  0  0  0  0  0  0
    5.6404   -6.2557  -13.3648 C   0  0  0  0  0  0  0  0  0  0  0  0
    4.7075   -7.2791  -13.5427 C   0  0  0  0  0  0  0  0  0  0  0  0
    4.7486   -8.4134  -12.7458 C   0  0  0  0  0  0  0  0  0  0  0  0
    5.7260   -8.5414  -11.7545 C   0  0  0  0  0  0  0  0  0  0  0  0
    6.6914   -7.5204  -11.5479 C   0  0  0  0  0  0  0  0  0  0  0  0
   12.7453   -3.8114   -3.4118 H   0  0  0  0  0  0  0  0  0  0  0  0
   15.1219   -3.8711   -2.9155 H   0  0  0  0  0  0  0  0  0  0  0  0
   14.8299   -2.2199   -2.6051 H   0  0  0  0  0  0  0  0  0  0  0  0
   15.6190   -1.5921   -4.9050 H   0  0  0  0  0  0  0  0  0  0  0  0
   15.4920   -4.5011   -5.6370 H   0  0  0  0  0  0  0  0  0  0  0  0
   15.1553   -3.1548   -6.6496 H   0  0  0  0  0  0  0  0  0  0  0  0
   11.1096   -0.1990   -1.4795 H   0  0  0  0  0  0  0  0  0  0  0  0
    9.6724   -1.1907   -1.5416 H   0  0  0  0  0  0  0  0  0  0  0  0
    9.5772    0.5106   -1.9283 H   0  0  0  0  0  0  0  0  0  0  0  0
   10.9744    0.1773   -3.8394 H   0  0  0  0  0  0  0  0  0  0  0  0
    7.6122   -0.8302   -2.8253 H   0  0  0  0  0  0  0  0  0  0  0  0
    7.1371   -1.6594   -6.9465 H   0  0  0  0  0  0  0  0  0  0  0  0
   16.2687   -3.7733   -2.6103 H   0  0  0  0  0  0  0  0  0  0  0  0
   13.4220   -5.9426   -7.1012 H   0  0  0  0  0  0  0  0  0  0  0  0
   13.4080   -4.2891   -7.8845 H   0  0  0  0  0  0  0  0  0  0  0  0
    9.5865   -8.7294   -8.0448 H   0  0  0  0  0  0  0  0  0  0  0  0
    7.6791   -9.2285   -9.4519 H   0  0  0  0  0  0  0  0  0  0  0  0
   10.1433   -5.0703  -10.0519 H   0  0  0  0  0  0  0  0  0  0  0  0
    5.6092   -5.4111  -13.9570 H   0  0  0  0  0  0  0  0  0  0  0  0
    3.9826   -7.1909  -14.2719 H   0  0  0  0  0  0  0  0  0  0  0  0
    4.0555   -9.1653  -12.8850 H   0  0  0  0  0  0  0  0  0  0  0  0
    5.7463   -9.3885  -11.1654 H   0  0  0  0  0  0  0  0  0  0  0  0
  1  2  1  0
  1 47  1  1
  2  3  1  0
  2 48  1  0
  2 49  1  0
  3 25  1  0
  3  4  1  0
  3 50  1  6
  4  5  1  0
  4 51  1  0
  4 52  1  0
  5  6  1  0
  5  1  1  0
  6  7  2  0
  6 29  1  0
  8  9  1  0
  8 11  1  0
  9 10  2  0
  9  1  1  0
 12 13  1  0
 12 53  1  0
 12 54  1  0
 12 55  1  0
 13  8  1  0
 13 14  1  0
 13 56  1  6
 14 15  2  0
 15 16  1  0
 15 57  1  0
 16 19  1  0
 16 17  2  0
 17 18  1  0
 17 58  1  0
 18 14  1  0
 19 20  2  0
 19 21  1  0
 20 22  1  0
 21 23  1  0
 21 24  1  0
 25 26  1  0
 26 27  1  0
 26 28  1  0
 26 59  1  0
 29 30  1  0
 29 60  1  0
 29 61  1  0
 30 31  1  0
 30 33  1  0
 31 32  2  0
 31 34  1  0
 34 35  2  0
 35 36  1  0
 35 62  1  0
 36 37  2  0
 36 63  1  0
 37 38  1  0
 38 39  2  0
 38 40  1  0
 39 34  1  0
 39 64  1  0
 40 41  1  0
 41 42  2  0
 42 43  1  0
 42 65  1  0
 43 44  2  0
 43 66  1  0
 44 45  1  0
 44 67  1  0
 45 46  2  0
 45 68  1  0
 46 41  1  0
 46 37  1  0
M  END
>  <minimizedAffinity>  (9) 
-9.10647

>  <mol_id>  (9) 
102062

>  <source_index>  (9) 
8

>  <layer>  (9) 
L4

>  <uniprot>  (9) 
P09871

>  <paff>  (9) 
7

>  <smiles>  (9) 
C[C@@H](NC(=O)[C@@H]1C[C@@H](OC(F)F)CN1C(=O)CNC(=O)c1ccc2c(c1)sc1ccccc12)c1cc(C(=N)N)cs1

$$$$
L4:P09871:116768
     RDKit          3D

107110  0  0  0  0  0  0  0  0999 V2000
   12.4336   -6.1382   -7.1088 C   0  0  2  0  0  0  0  0  0  0  0  0
   13.9098   -6.0813   -7.4368 C   0  0  0  0  0  0  0  0  0  0  0  0
   12.9257   -5.2938   -8.2610 C   0  0  2  0  0  0  0  0  0  0  0  0
   12.5886   -3.9068   -7.9843 N   0  0  0  0  0  0  0  0  0  0  0  0
   12.9158   -2.8562   -8.8106 C   0  0  0  0  0  0  0  0  0  0  0  0
   12.5425   -1.6906   -8.5873 O   0  0  0  0  0  0  0  0  0  0  0  0
   11.5686   -3.8652   -6.8878 C   0  0  1  0  0  0  0  0  0  0  0  0
   11.8644   -5.1732   -6.1036 C   0  0  0  0  0  0  0  0  0  0  0  0
   11.4659   -2.7247   -5.8225 C   0  0  0  0  0  0  0  0  0  0  0  0
   11.7033   -2.9294   -4.6253 O   0  0  0  0  0  0  0  0  0  0  0  0
   10.8660   -1.5543   -6.2282 N   0  0  0  0  0  0  0  0  0  0  0  0
   10.8745   -1.3305   -7.2281 H   0  0  0  0  0  0  0  0  0  0  0  0
   10.5934   -0.4830   -5.2814 C   0  0  2  0  0  0  0  0  0  0  0  0
   11.7084   -0.3789   -4.2285 C   0  0  0  0  0  0  0  0  0  0  0  0
    9.2634   -0.7655   -4.6284 C   0  0  0  0  0  0  0  0  0  0  0  0
    8.0242   -0.9695   -5.2090 C   0  0  0  0  0  0  0  0  0  0  0  0
    6.9776   -1.2114   -4.2548 C   0  0  0  0  0  0  0  0  0  0  0  0
    7.4789   -1.1820   -2.9681 C   0  0  0  0  0  0  0  0  0  0  0  0
    9.1679   -0.9094   -2.9148 S   0  0  0  0  0  0  0  0  0  0  0  0
    5.5858   -1.4798   -4.5533 C   0  0  0  0  0  0  0  0  0  0  0  0
    5.1858   -1.7474   -5.7436 N   0  0  0  0  0  0  0  0  0  0  0  0
    4.7449   -1.3983   -3.5019 N   0  0  0  0  0  0  0  0  0  0  0  0
    5.9784   -1.7661   -6.3658 H   0  0  0  0  0  0  0  0  0  0  0  0
    3.7785   -1.4075   -3.8004 H   0  0  0  0  0  0  0  0  0  0  0  0
    4.9513   -0.6549   -2.8455 H   0  0  0  0  0  0  0  0  0  0  0  0
   13.9087   -3.1333   -9.9401 C   0  0  0  0  0  0  0  0  0  0  0  0
   15.2758   -2.7523   -9.6666 N   0  0  0  0  0  0  0  0  0  0  0  0
   16.2871   -3.6840   -9.7534 C   0  0  0  0  0  0  0  0  0  0  0  0
   16.0840   -4.8615  -10.0228 O   0  0  0  0  0  0  0  0  0  0  0  0
   15.4497   -1.8433   -9.2441 H   0  0  0  0  0  0  0  0  0  0  0  0
   17.6592   -3.0817   -9.5043 C   0  0  0  0  0  0  0  0  0  0  0  0
   17.5723   -1.6649   -8.9572 C   0  0  0  0  0  0  0  0  0  0  0  0
   17.8541   -1.6051   -7.4561 C   0  0  0  0  0  0  0  0  0  0  0  0
   16.7149   -1.9816   -6.6812 O   0  0  0  0  0  0  0  0  0  0  0  0
   16.9094   -2.7988   -5.6071 C   0  0  0  0  0  0  0  0  0  0  0  0
   16.7338   -4.1519   -5.8910 C   0  0  0  0  0  0  0  0  0  0  0  0
   16.9131   -5.1084   -4.8985 C   0  0  0  0  0  0  0  0  0  0  0  0
   17.2712   -4.7099   -3.6135 C   0  0  0  0  0  0  0  0  0  0  0  0
   17.4401   -3.3604   -3.3200 C   0  0  0  0  0  0  0  0  0  0  0  0
   17.2632   -2.3954   -4.3098 C   0  0  0  0  0  0  0  0  0  0  0  0
   11.6676   -7.4139   -7.2803 C   0  0  0  0  0  0  0  0  0  0  0  0
   10.3083   -7.1753   -7.6618 O   0  0  0  0  0  0  0  0  0  0  0  0
   10.0163   -7.7006   -8.9669 C   0  0  0  0  0  0  0  0  0  0  0  0
    9.3129   -6.6917   -9.8933 C   0  0  0  0  0  0  0  0  0  0  0  0
    9.0750   -4.2381  -10.2237 C   0  0  0  0  0  0  0  0  0  0  0  0
    8.1397   -4.3534  -11.0211 O   0  0  0  0  0  0  0  0  0  0  0  0
    9.6562   -5.3121   -9.5793 N   0  0  0  0  0  0  0  0  0  0  0  0
   10.5620   -5.1172   -9.1805 H   0  0  0  0  0  0  0  0  0  0  0  0
    9.6610   -2.8584   -9.8754 C   0  0  0  0  0  0  0  0  0  0  0  0
    8.8881   -2.1892   -8.7995 N   0  0  0  0  0  0  0  0  0  0  0  0
    8.1204   -2.8023   -8.5001 H   0  0  0  0  0  0  0  0  0  0  0  0
    8.3063   -0.9250   -9.2654 C   0  0  0  0  0  0  0  0  0  0  0  0
    9.2311    0.0573  -10.0187 C   0  0  2  0  0  0  0  0  0  0  0  0
    9.9130    0.9293   -9.0949 O   0  0  0  0  0  0  0  0  0  0  0  0
   10.4210    0.3634   -8.4782 H   0  0  0  0  0  0  0  0  0  0  0  0
    8.5481    0.9183  -11.1016 C   0  0  2  0  0  0  0  0  0  0  0  0
    8.1275    2.1720  -10.5397 O   0  0  0  0  0  0  0  0  0  0  0  0
    8.1652    2.0864   -9.5561 H   0  0  0  0  0  0  0  0  0  0  0  0
    7.3539    0.2934  -11.8719 C   0  0  1  0  0  0  0  0  0  0  0  0
    6.5126    1.3711  -12.3244 O   0  0  0  0  0  0  0  0  0  0  0  0
    5.6652    0.9373  -12.5801 H   0  0  0  0  0  0  0  0  0  0  0  0
    6.7009   -0.4990  -14.2141 C   0  0  0  0  0  0  0  0  0  0  0  0
    7.6804   -0.6607  -13.0546 C   0  0  2  0  0  0  0  0  0  0  0  0
    7.6617   -2.0277  -12.6649 O   0  0  0  0  0  0  0  0  0  0  0  0
    8.4465   -2.1399  -12.0928 H   0  0  0  0  0  0  0  0  0  0  0  0
   14.3974   -6.9355   -7.8580 H   0  0  0  0  0  0  0  0  0  0  0  0
   14.7977   -5.8444   -6.8887 H   0  0  0  0  0  0  0  0  0  0  0  0
   12.8577   -5.2031   -9.3250 H   0  0  0  0  0  0  0  0  0  0  0  0
   10.6470   -3.7044   -7.4072 H   0  0  0  0  0  0  0  0  0  0  0  0
   10.9632   -5.5652   -5.6805 H   0  0  0  0  0  0  0  0  0  0  0  0
   12.5447   -5.0012   -5.2958 H   0  0  0  0  0  0  0  0  0  0  0  0
   10.5595    0.4555   -5.7941 H   0  0  0  0  0  0  0  0  0  0  0  0
   11.7773   -1.3007   -3.6896 H   0  0  0  0  0  0  0  0  0  0  0  0
   11.4836    0.4159   -3.5483 H   0  0  0  0  0  0  0  0  0  0  0  0
   12.6405   -0.1794   -4.7146 H   0  0  0  0  0  0  0  0  0  0  0  0
    7.8669   -0.9498   -6.2287 H   0  0  0  0  0  0  0  0  0  0  0  0
    6.8958   -1.3110   -2.1264 H   0  0  0  0  0  0  0  0  0  0  0  0
   13.5826   -2.5963  -10.8063 H   0  0  0  0  0  0  0  0  0  0  0  0
   13.9178   -4.1950  -10.0728 H   0  0  0  0  0  0  0  0  0  0  0  0
   18.2001   -3.0624  -10.4273 H   0  0  0  0  0  0  0  0  0  0  0  0
   18.1566   -3.6863   -8.7749 H   0  0  0  0  0  0  0  0  0  0  0  0
   16.5882   -1.2858   -9.1380 H   0  0  0  0  0  0  0  0  0  0  0  0
   18.3149   -1.0759   -9.4537 H   0  0  0  0  0  0  0  0  0  0  0  0
   18.1328   -0.6051   -7.1967 H   0  0  0  0  0  0  0  0  0  0  0  0
   18.6426   -2.2956   -7.2406 H   0  0  0  0  0  0  0  0  0  0  0  0
   16.4690   -4.4456   -6.8442 H   0  0  0  0  0  0  0  0  0  0  0  0
   16.7814   -6.1092   -5.1131 H   0  0  0  0  0  0  0  0  0  0  0  0
   17.4119   -5.4180   -2.8760 H   0  0  0  0  0  0  0  0  0  0  0  0
   17.6980   -3.0722   -2.3632 H   0  0  0  0  0  0  0  0  0  0  0  0
   17.3909   -1.3949   -4.0914 H   0  0  0  0  0  0  0  0  0  0  0  0
   12.1411   -8.0021   -8.0384 H   0  0  0  0  0  0  0  0  0  0  0  0
   11.6625   -7.9257   -6.3406 H   0  0  0  0  0  0  0  0  0  0  0  0
   10.9362   -7.9972   -9.4259 H   0  0  0  0  0  0  0  0  0  0  0  0
    9.3457   -8.5233   -8.8316 H   0  0  0  0  0  0  0  0  0  0  0  0
    9.6006   -6.8953  -10.9036 H   0  0  0  0  0  0  0  0  0  0  0  0
    8.2579   -6.8037   -9.7541 H   0  0  0  0  0  0  0  0  0  0  0  0
   10.6724   -2.9836   -9.5493 H   0  0  0  0  0  0  0  0  0  0  0  0
    9.6134   -2.2452  -10.7510 H   0  0  0  0  0  0  0  0  0  0  0  0
    7.4968   -1.1684   -9.9214 H   0  0  0  0  0  0  0  0  0  0  0  0
    8.0337   -0.4067   -8.3699 H   0  0  0  0  0  0  0  0  0  0  0  0
    9.9184   -0.5803  -10.5344 H   0  0  0  0  0  0  0  0  0  0  0  0
    9.3146    1.0272  -11.8402 H   0  0  0  0  0  0  0  0  0  0  0  0
    6.8751   -0.3573  -11.1703 H   0  0  0  0  0  0  0  0  0  0  0  0
    6.9654   -1.1738  -15.0012 H   0  0  0  0  0  0  0  0  0  0  0  0
    6.7415    0.5065  -14.5777 H   0  0  0  0  0  0  0  0  0  0  0  0
    5.7092   -0.7163  -13.8762 H   0  0  0  0  0  0  0  0  0  0  0  0
    8.6656   -0.3853  -13.3684 H   0  0  0  0  0  0  0  0  0  0  0  0
  1 41  1  6
  1  2  1  0
  2  3  1  0
  2 66  1  0
  2 67  1  0
  3  4  1  0
  3  1  1  0
  3 68  1  6
  4  5  1  0
  4  7  1  0
  5  6  2  0
  5 26  1  0
  7  9  1  0
  7  8  1  0
  7 69  1  6
  8  1  1  0
  8 70  1  0
  8 71  1  0
  9 10  2  0
  9 11  1  0
 11 13  1  0
 11 12  1  0
 13 14  1  0
 13 15  1  0
 13 72  1  6
 14 73  1  0
 14 74  1  0
 14 75  1  0
 15 16  2  0
 16 17  1  0
 16 76  1  0
 17 20  1  0
 17 18  2  0
 18 19  1  0
 18 77  1  0
 19 15  1  0
 20 21  2  0
 20 22  1  0
 21 23  1  0
 22 24  1  0
 22 25  1  0
 26 27  1  0
 26 78  1  0
 26 79  1  0
 27 28  1  0
 27 30  1  0
 28 29  2  0
 28 31  1  0
 31 32  1  0
 31 80  1  0
 31 81  1  0
 32 33  1  0
 32 82  1  0
 32 83  1  0
 33 34  1  0
 33 84  1  0
 33 85  1  0
 34 35  1  0
 35 36  2  0
 36 37  1  0
 36 86  1  0
 37 38  2  0
 37 87  1  0
 38 39  1  0
 38 88  1  0
 39 40  2  0
 39 89  1  0
 40 35  1  0
 40 90  1  0
 41 91  1  0
 41 92  1  0
 42 41  1  0
 43 42  1  0
 43 93  1  0
 43 94  1  0
 44 43  1  0
 44 95  1  0
 44 96  1  0
 45 46  2  0
 45 47  1  0
 47 44  1  0
 47 48  1  0
 49 45  1  0
 49 97  1  0
 49 98  1  0
 50 49  1  0
 50 51  1  0
 52 50  1  0
 52 99  1  0
 52100  1  0
 53 54  1  0
 53 52  1  0
 53101  1  6
 54 55  1  0
 56 57  1  0
 56 53  1  0
 56102  1  6
 57 58  1  0
 59 60  1  0
 59 56  1  0
 59103  1  1
 60 61  1  0
 62 63  1  0
 62104  1  0
 62105  1  0
 62106  1  0
 63 64  1  0
 63 59  1  0
 63107  1  6
 64 65  1  0
M  END
>  <minimizedAffinity>  (10) 
-7.28336

>  <mol_id>  (10) 
116768

>  <source_index>  (10) 
9

>  <layer>  (10) 
L4

>  <uniprot>  (10) 
P09871

>  <paff>  (10) 
7

>  <smiles>  (10) 
C[C@H](O)[C@H](O)[C@@H](O)[C@@H](O)CNCC(=O)NCCOC[C@@]12C[C@@H]1N(C(=O)CNC(=O)CCCOc1ccccc1)[C@H](C(=O)N[C@H](C)c1cc(C(=N)N)cs1)C2

$$$$
