L2:P31153:116220
     RDKit          3D

 49 52  0  0  0  0  0  0  0  0999 V2000
    3.1071   -1.6482   -1.3728 C   0  0  0  0  0  0  0  0  0  0  0  0
    2.3326   -1.0031   -0.2580 C   0  0  0  0  0  0  0  0  0  0  0  0
    1.0860   -0.4262   -0.5696 C   0  0  0  0  0  0  0  0  0  0  0  0
    0.2747    0.1721    0.4099 C   0  0  0  0  0  0  0  0  0  0  0  0
   -0.9891    0.8159    0.0416 C   0  0  0  0  0  0  0  0  0  0  0  0
   -2.2710    0.2257    0.1574 C   0  0  0  0  0  0  0  0  0  0  0  0
   -2.4127   -1.4543    0.7723 S   0  0  0  0  0  6  0  0  0  0  0  0
   -1.5852   -2.2603   -0.1068 O   0  0  0  0  0  0  0  0  0  0  0  0
   -2.1136   -1.3573    2.1905 O   0  0  0  0  0  0  0  0  0  0  0  0
   -4.0839   -2.0215    0.6306 C   0  0  0  0  0  0  0  0  0  0  0  0
   -4.2766   -3.5073    0.9184 C   0  0  0  0  0  0  0  0  0  0  0  0
   -5.1037   -3.6400   -0.2735 O   0  0  0  0  0  0  0  0  0  0  0  0
   -4.5571   -2.3884   -0.7715 C   0  0  0  0  0  0  0  0  0  0  0  0
   -3.4337    0.9210   -0.2054 C   0  0  0  0  0  0  0  0  0  0  0  0
   -3.3675    2.2242   -0.7072 C   0  0  0  0  0  0  0  0  0  0  0  0
   -2.1011    2.7987   -0.8239 C   0  0  0  0  0  0  0  0  0  0  0  0
   -1.7099    4.0380   -1.2651 N   0  0  0  0  0  0  0  0  0  0  0  0
   -0.3833    4.2495   -1.2098 N   0  0  0  0  0  0  0  0  0  0  0  0
    0.0866    3.0919   -0.7448 C   0  0  0  0  0  0  0  0  0  0  0  0
    1.4033    2.9404   -0.5107 O   0  0  0  0  0  0  0  0  0  0  0  0
    2.2143    3.7596   -1.3244 C   0  0  0  0  0  0  0  0  0  0  0  0
    2.1733    3.2936   -2.6001 F   0  0  0  0  0  0  0  0  0  0  0  0
    3.4979    3.5797   -0.9043 F   0  0  0  0  0  0  0  0  0  0  0  0
   -0.9279    2.1398   -0.4661 C   0  0  0  0  0  0  0  0  0  0  0  0
    0.7194    0.1707    1.7359 C   0  0  0  0  0  0  0  0  0  0  0  0
    1.9460   -0.4028    2.0726 C   0  0  0  0  0  0  0  0  0  0  0  0
    2.7574   -0.9756    1.0821 C   0  0  0  0  0  0  0  0  0  0  0  0
    4.3252   -1.6560    1.6081 S   0  0  0  0  0  6  0  0  0  0  0  0
    5.4781   -0.3625    1.2242 C   0  0  0  0  0  0  0  0  0  0  0  0
    4.6343   -2.8087    0.7850 O   0  0  0  0  0  0  0  0  0  0  0  0
    4.2902   -1.7842    3.0544 O   0  0  0  0  0  0  0  0  0  0  0  0
    2.6991   -1.3725   -2.3518 H   0  0  0  0  0  0  0  0  0  0  0  0
    3.0535   -2.7379   -1.2906 H   0  0  0  0  0  0  0  0  0  0  0  0
    4.1501   -1.3221   -1.3734 H   0  0  0  0  0  0  0  0  0  0  0  0
    0.7330   -0.4460   -1.6010 H   0  0  0  0  0  0  0  0  0  0  0  0
   -4.7869   -1.3946    1.1904 H   0  0  0  0  0  0  0  0  0  0  0  0
   -4.8377   -3.7354    1.8287 H   0  0  0  0  0  0  0  0  0  0  0  0
   -3.3954   -4.1535    0.8560 H   0  0  0  0  0  0  0  0  0  0  0  0
   -3.7954   -2.5709   -1.5356 H   0  0  0  0  0  0  0  0  0  0  0  0
   -5.3381   -1.7419   -1.1814 H   0  0  0  0  0  0  0  0  0  0  0  0
   -4.4209    0.4816   -0.1021 H   0  0  0  0  0  0  0  0  0  0  0  0
   -4.2680    2.7639   -0.9865 H   0  0  0  0  0  0  0  0  0  0  0  0
   -2.3027    4.7875   -1.6055 H   0  0  0  0  0  0  0  0  0  0  0  0
    1.9913    4.8315   -1.2849 H   0  0  0  0  0  0  0  0  0  0  0  0
    0.1085    0.6113    2.5219 H   0  0  0  0  0  0  0  0  0  0  0  0
    2.2556   -0.3970    3.1162 H   0  0  0  0  0  0  0  0  0  0  0  0
    5.4761   -0.1749    0.1501 H   0  0  0  0  0  0  0  0  0  0  0  0
    6.4710   -0.6916    1.5387 H   0  0  0  0  0  0  0  0  0  0  0  0
    5.1967    0.5381    1.7735 H   0  0  0  0  0  0  0  0  0  0  0  0
  1  2  1  0
  2  3  2  0
  3  4  1  0
  4  5  1  0
  5  6  1  0
  6  7  1  0
  7  8  2  0
  7  9  2  0
  7 10  1  0
 10 11  1  0
 11 12  1  0
 12 13  1  0
  6 14  2  0
 14 15  1  0
 15 16  2  0
 16 17  1  0
 17 18  1  0
 18 19  2  0
 19 20  1  0
 20 21  1  0
 21 22  1  0
 21 23  1  0
 19 24  1  0
  4 25  2  0
 25 26  1  0
 26 27  2  0
 27 28  1  0
 28 29  1  0
 28 30  2  0
 28 31  2  0
 27  2  1  0
 24  5  2  0
 13 10  1  0
 24 16  1  0
  1 32  1  0
  1 33  1  0
  1 34  1  0
  3 35  1  0
 10 36  1  0
 11 37  1  0
 11 38  1  0
 13 39  1  0
 13 40  1  0
 14 41  1  0
 15 42  1  0
 17 43  1  0
 21 44  1  0
 25 45  1  0
 26 46  1  0
 29 47  1  0
 29 48  1  0
 29 49  1  0
M  END
>  <mol_id>  (1) 
116220

>  <source_index>  (1) 
7

>  <layer>  (1) 
L2

>  <uniprot>  (1) 
P31153

>  <paff>  (1) 
7.8860999999999999

>  <smiles>  (1) 
Cc1cc(-c2c(S(=O)(=O)C3COC3)ccc3[nH]nc(OC(F)F)c23)ccc1S(C)(=O)=O

$$$$
