L2:P31153:116245


 28 32  0  0  0  0  0  0  0  0999 V2000
  -33.9338    4.1240  -43.6255 O   0  0  0  0  0  0  0  0  0  0  0  0
  -35.0596    4.6056  -43.7485 C   0  0  0  0  0  0  0  0  0  0  0  0
  -35.5347    5.1616  -45.0187 C   0  0  0  0  0  0  0  0  0  0  0  0
  -34.8433    5.2254  -46.1686 N   0  0  0  0  0  0  0  0  0  0  0  0
  -35.7005    5.8292  -47.0320 N   0  0  0  0  0  0  0  0  0  0  0  0
  -36.9109    6.1412  -46.4585 C   0  0  0  0  0  0  0  0  0  0  0  0
  -36.8181    5.7194  -45.1572 C   0  0  0  0  0  0  0  0  0  0  0  0
  -37.7689    5.7580  -44.0806 C   0  0  0  0  0  0  0  0  0  0  0  0
  -39.0591    6.2713  -44.2499 C   0  0  0  0  0  0  0  0  0  0  0  0
  -39.9514    6.2393  -43.1863 C   0  0  0  0  0  0  0  0  0  0  0  0
  -41.1845    6.7335  -43.3671 F   0  0  0  0  0  0  0  0  0  0  0  0
  -39.5761    5.6920  -41.9639 C   0  0  0  0  0  0  0  0  0  0  0  0
  -40.6924    5.6323  -40.6542 Cl  0  0  0  0  0  0  0  0  0  0  0  0
  -38.2866    5.1789  -41.7886 C   0  0  0  0  0  0  0  0  0  0  0  0
  -37.3454    5.2222  -42.8348 C   0  0  0  0  0  0  0  0  0  0  0  0
  -35.9964    4.7018  -42.6857 N   0  0  0  0  0  0  0  0  0  0  0  0
  -35.5678    4.2856  -41.3917 C   0  0  0  0  0  0  0  0  0  0  0  0
  -35.4658    5.2420  -40.3740 C   0  0  0  0  0  0  0  0  0  0  0  0
  -35.0377    4.8584  -39.1104 C   0  0  0  0  0  0  0  0  0  0  0  0
  -34.7312    3.5273  -38.9057 C   0  0  0  0  0  0  0  0  0  0  0  0
  -34.8400    2.5745  -39.8575 N   0  0  0  0  0  0  0  0  0  0  0  0
  -35.2882    2.9347  -41.0923 C   0  0  0  0  0  0  0  0  0  0  0  0
  -35.4810    1.8146  -42.0997 C   0  0  0  0  0  0  0  0  0  0  0  0
  -34.2997    0.9541  -42.4932 C   0  0  0  0  0  0  0  0  0  0  0  0
  -35.4004    0.3679  -41.6639 C   0  0  0  0  0  0  0  0  0  0  0  0
  -35.3151    6.0875  -48.4161 C   0  0  0  0  0  0  0  0  0  0  0  0
  -34.4038    7.0961  -48.4850 F   0  0  0  0  0  0  0  0  0  0  0  0
  -34.7203    4.9935  -48.9656 F   0  0  0  0  0  0  0  0  0  0  0  0
  1  2  2  0  0  0
  2  3  1  0  0  0
  3  4  2  0  0  0
  4  5  1  0  0  0
  5 26  1  0  0  0
 26 27  1  0  0  0
 26 28  1  0  0  0
  5  6  1  0  0  0
  6  7  2  0  0  0
  7  8  1  0  0  0
  8  9  2  0  0  0
  9 10  1  0  0  0
 10 11  1  0  0  0
 10 12  2  0  0  0
 12 13  1  0  0  0
 12 14  1  0  0  0
 14 15  2  0  0  0
 15 16  1  0  0  0
 16 17  1  0  0  0
 17 18  2  0  0  0
 18 19  1  0  0  0
 19 20  2  0  0  0
 20 21  1  0  0  0
 21 22  2  0  0  0
 22 23  1  0  0  0
 23 24  1  0  0  0
 24 25  1  0  0  0
 16  2  1  0  0  0
 22 17  1  0  0  0
 25 23  1  0  0  0
  7  3  1  0  0  0
 15  8  1  0  0  0
M  END
> <minimizedAffinity>
-9.95266

$$$$
