L2:P31153:116245
     RDKit          3D

 40 44  0  0  0  0  0  0  0  0999 V2000
   -0.7385    2.5245    0.8704 O   0  0  0  0  0  0  0  0  0  0  0  0
   -0.0365    1.5197    0.7603 C   0  0  0  0  0  0  0  0  0  0  0  0
    1.4265    1.5928    0.7115 C   0  0  0  0  0  0  0  0  0  0  0  0
    2.1708    2.7093    0.7723 N   0  0  0  0  0  0  0  0  0  0  0  0
    3.4476    2.2565    0.6738 N   0  0  0  0  0  0  0  0  0  0  0  0
    4.5769    3.1812    0.6993 C   0  0  0  0  0  0  0  0  0  0  0  0
    5.4041    2.9067    1.7448 F   0  0  0  0  0  0  0  0  0  0  0  0
    5.3289    3.0588   -0.4286 F   0  0  0  0  0  0  0  0  0  0  0  0
    3.5258    0.8884    0.5582 C   0  0  0  0  0  0  0  0  0  0  0  0
    2.2284    0.4454    0.5775 C   0  0  0  0  0  0  0  0  0  0  0  0
    1.6812   -0.8816    0.5112 C   0  0  0  0  0  0  0  0  0  0  0  0
    2.4961   -2.0155    0.4283 C   0  0  0  0  0  0  0  0  0  0  0  0
    1.9128   -3.2757    0.4151 C   0  0  0  0  0  0  0  0  0  0  0  0
    2.7092   -4.3515    0.3376 F   0  0  0  0  0  0  0  0  0  0  0  0
    0.5314   -3.4170    0.4955 C   0  0  0  0  0  0  0  0  0  0  0  0
   -0.1874   -4.9817    0.5027 Cl  0  0  0  0  0  0  0  0  0  0  0  0
   -0.2882   -2.2864    0.5767 C   0  0  0  0  0  0  0  0  0  0  0  0
    0.2657   -0.9921    0.5617 C   0  0  0  0  0  0  0  0  0  0  0  0
   -0.5567    0.2038    0.6407 N   0  0  0  0  0  0  0  0  0  0  0  0
   -1.9728    0.0608    0.5663 C   0  0  0  0  0  0  0  0  0  0  0  0
   -2.7432    0.3719    1.6935 C   0  0  0  0  0  0  0  0  0  0  0  0
   -4.1229    0.2267    1.6447 C   0  0  0  0  0  0  0  0  0  0  0  0
   -4.6869   -0.2201    0.4658 C   0  0  0  0  0  0  0  0  0  0  0  0
   -3.9768   -0.5073   -0.6473 N   0  0  0  0  0  0  0  0  0  0  0  0
   -2.6253   -0.3392   -0.6199 C   0  0  0  0  0  0  0  0  0  0  0  0
   -1.8823   -0.5864   -1.9212 C   0  0  0  0  0  0  0  0  0  0  0  0
   -2.4074    0.0174   -3.2059 C   0  0  0  0  0  0  0  0  0  0  0  0
   -1.1382    0.5390   -2.6060 C   0  0  0  0  0  0  0  0  0  0  0  0
    4.2101    4.2080    0.7836 H   0  0  0  0  0  0  0  0  0  0  0  0
    4.4833    0.3915    0.4782 H   0  0  0  0  0  0  0  0  0  0  0  0
    3.5782   -1.9429    0.3829 H   0  0  0  0  0  0  0  0  0  0  0  0
   -1.3604   -2.4450    0.6619 H   0  0  0  0  0  0  0  0  0  0  0  0
   -2.2719    0.7241    2.6072 H   0  0  0  0  0  0  0  0  0  0  0  0
   -4.7421    0.4590    2.5039 H   0  0  0  0  0  0  0  0  0  0  0  0
   -5.7611   -0.3563    0.3751 H   0  0  0  0  0  0  0  0  0  0  0  0
   -1.4692   -1.5858   -2.0286 H   0  0  0  0  0  0  0  0  0  0  0  0
   -3.2913    0.6446   -3.1568 H   0  0  0  0  0  0  0  0  0  0  0  0
   -2.3432   -0.5811   -4.1070 H   0  0  0  0  0  0  0  0  0  0  0  0
   -0.2057    0.3012   -3.1043 H   0  0  0  0  0  0  0  0  0  0  0  0
   -1.1689    1.5343   -2.1753 H   0  0  0  0  0  0  0  0  0  0  0  0
  1  2  2  0
  2  3  1  0
  3  4  2  0
  4  5  1  0
  5  6  1  0
  6  7  1  0
  6  8  1  0
  5  9  1  0
  9 10  2  0
 10 11  1  0
 11 12  2  0
 12 13  1  0
 13 14  1  0
 13 15  2  0
 15 16  1  0
 15 17  1  0
 17 18  2  0
 18 19  1  0
 19 20  1  0
 20 21  2  0
 21 22  1  0
 22 23  2  0
 23 24  1  0
 24 25  2  0
 25 26  1  0
 26 27  1  0
 27 28  1  0
 19  2  1  0
 25 20  1  0
 28 26  1  0
 10  3  1  0
 18 11  1  0
  6 29  1  0
  9 30  1  0
 12 31  1  0
 17 32  1  0
 21 33  1  0
 22 34  1  0
 23 35  1  0
 26 36  1  0
 27 37  1  0
 27 38  1  0
 28 39  1  0
 28 40  1  0
M  END
>  <mol_id>  (1) 
116245

>  <source_index>  (1) 
8

>  <layer>  (1) 
L2

>  <uniprot>  (1) 
P31153

>  <paff>  (1) 
7.7695999999999996

>  <smiles>  (1) 
O=c1c2nn(C(F)F)cc2c2cc(F)c(Cl)cc2n1-c1cccnc1C1CC1

$$$$
