L2:P31153:116220


 32 35  0  0  0  0  0  0  0  0999 V2000
  -37.5049    6.0651  -44.9555 C   0  0  0  0  0  0  0  0  0  0  0  0
  -37.2116    6.2047  -46.3337 C   0  0  0  0  0  0  0  0  0  0  0  0
  -38.1671    6.6840  -47.2417 C   0  0  0  0  0  0  0  0  0  0  0  0
  -39.4461    7.0533  -46.8146 C   0  0  0  0  0  0  0  0  0  0  0  0
  -39.7276    6.9183  -45.4545 C   0  0  0  0  0  0  0  0  0  0  0  0
  -40.8685    7.1824  -44.7388 N   0  0  0  0  0  0  0  0  0  0  0  0
  -40.7745    6.9005  -43.4276 N   0  0  0  0  0  0  0  0  0  0  0  0
  -39.5190    6.4703  -43.3018 C   0  0  0  0  0  0  0  0  0  0  0  0
  -38.8054    6.4392  -44.5278 C   0  0  0  0  0  0  0  0  0  0  0  0
  -41.7479    7.5451  -45.0910 H   0  0  0  0  0  0  0  0  0  0  0  0
  -36.5816    2.8741  -41.2385 C   0  0  0  0  0  0  0  0  0  0  0  0
  -36.0679    3.9669  -42.1333 C   0  0  0  0  0  0  0  0  0  0  0  0
  -36.9547    4.5138  -43.0812 C   0  0  0  0  0  0  0  0  0  0  0  0
  -36.5767    5.5600  -43.9403 C   0  0  0  0  0  0  0  0  0  0  0  0
  -35.2836    6.0809  -43.8279 C   0  0  0  0  0  0  0  0  0  0  0  0
  -34.3889    5.5636  -42.8905 C   0  0  0  0  0  0  0  0  0  0  0  0
  -34.7705    4.5033  -42.0551 C   0  0  0  0  0  0  0  0  0  0  0  0
  -33.5431    3.8885  -40.9092 S   0  0  0  0  0  0  0  0  0  0  0  0
  -33.5661    2.1365  -41.1916 C   0  0  0  0  0  0  0  0  0  0  0  0
  -33.9973    4.1437  -39.5563 O   0  0  0  0  0  0  0  0  0  0  0  0
  -32.2462    4.3763  -41.3445 O   0  0  0  0  0  0  0  0  0  0  0  0
  -35.5771    5.7691  -46.9330 S   0  0  0  0  0  0  0  0  0  0  0  0
  -34.7943    6.9884  -46.8462 O   0  0  0  0  0  0  0  0  0  0  0  0
  -35.2033    4.5911  -46.1695 O   0  0  0  0  0  0  0  0  0  0  0  0
  -35.6555    5.2835  -48.6338 C   0  0  0  0  0  0  0  0  0  0  0  0
  -34.9923    3.9448  -48.9430 C   0  0  0  0  0  0  0  0  0  0  0  0
  -34.3255    4.5317  -50.0976 O   0  0  0  0  0  0  0  0  0  0  0  0
  -34.5795    5.8544  -49.5506 C   0  0  0  0  0  0  0  0  0  0  0  0
  -39.0649    6.0458  -42.1080 O   0  0  0  0  0  0  0  0  0  0  0  0
  -40.0745    5.5003  -41.2869 C   0  0  0  0  0  0  0  0  0  0  0  0
  -39.6814    5.5844  -39.9890 F   0  0  0  0  0  0  0  0  0  0  0  0
  -40.1334    4.1692  -41.5717 F   0  0  0  0  0  0  0  0  0  0  0  0
 11 12  1  0  0  0
 12 13  2  0  0  0
 13 14  1  0  0  0
 14  1  1  0  0  0
  1  2  1  0  0  0
  2 22  1  0  0  0
 22 23  2  0  0  0
 22 24  2  0  0  0
 22 25  1  0  0  0
 25 26  1  0  0  0
 26 27  1  0  0  0
 27 28  1  0  0  0
  2  3  2  0  0  0
  3  4  1  0  0  0
  4  5  2  0  0  0
  5  6  1  0  0  0
  6  7  1  0  0  0
  7  8  2  0  0  0
  8 29  1  0  0  0
 29 30  1  0  0  0
 30 31  1  0  0  0
 30 32  1  0  0  0
  8  9  1  0  0  0
 14 15  2  0  0  0
 15 16  1  0  0  0
 16 17  2  0  0  0
 17 18  1  0  0  0
 18 19  1  0  0  0
 18 20  2  0  0  0
 18 21  2  0  0  0
 17 12  1  0  0  0
  9  1  2  0  0  0
 28 25  1  0  0  0
  9  5  1  0  0  0
  6 10  1  0  0  0
M  END
> <minimizedAffinity>
-9.89299

$$$$
