L2:P31153:135356
     RDKit          3D

 53 57  0  0  0  0  0  0  0  0999 V2000
   -3.4886   -3.9834   -1.4042 C   0  0  0  0  0  0  0  0  0  0  0  0
   -3.2655   -3.4842    0.0124 C   0  0  0  0  0  0  0  0  0  0  0  0
   -2.7355   -2.1407   -0.0024 N   0  0  0  0  0  0  0  0  0  0  0  0
   -1.4283   -1.6450   -0.0067 C   0  0  0  0  0  0  0  0  0  0  0  0
   -1.1835   -0.3028    0.0725 C   0  0  0  0  0  0  0  0  0  0  0  0
   -2.2991    0.6681    0.1474 C   0  0  0  0  0  0  0  0  0  0  0  0
   -2.8364    1.2177   -1.0230 C   0  0  0  0  0  0  0  0  0  0  0  0
   -3.9112    2.1120   -0.9588 C   0  0  0  0  0  0  0  0  0  0  0  0
   -4.4587    2.4629    0.2758 C   0  0  0  0  0  0  0  0  0  0  0  0
   -5.5077    3.3171    0.4768 O   0  0  0  0  0  0  0  0  0  0  0  0
   -6.0328    3.9708   -0.6716 C   0  0  0  0  0  0  0  0  0  0  0  0
   -3.9232    1.9121    1.4430 C   0  0  0  0  0  0  0  0  0  0  0  0
   -2.8490    1.0211    1.3841 C   0  0  0  0  0  0  0  0  0  0  0  0
    0.2322    0.2687    0.1125 C   0  0  0  0  0  0  0  0  0  0  0  0
    0.3726    1.4929    0.1742 O   0  0  0  0  0  0  0  0  0  0  0  0
    1.2994   -0.6402    0.1257 N   0  0  0  0  0  0  0  0  0  0  0  0
    2.6645   -0.2281    0.2428 C   0  0  0  0  0  0  0  0  0  0  0  0
    3.5535   -0.9563    1.1197 C   0  0  0  0  0  0  0  0  0  0  0  0
    4.9251   -0.6557    1.3081 C   0  0  0  0  0  0  0  0  0  0  0  0
    5.3631    0.4508    0.5679 C   0  0  0  0  0  0  0  0  0  0  0  0
    6.5783    1.0174    0.4943 N   0  0  0  0  0  0  0  0  0  0  0  0
    6.4212    2.0585   -0.3514 N   0  0  0  0  0  0  0  0  0  0  0  0
    7.5553    2.9028   -0.6417 C   0  0  0  0  0  0  0  0  0  0  0  0
    5.1578    2.1933   -0.8511 C   0  0  0  0  0  0  0  0  0  0  0  0
    4.4513    1.1736   -0.2770 C   0  0  0  0  0  0  0  0  0  0  0  0
    3.1020    0.9071   -0.4835 C   0  0  0  0  0  0  0  0  0  0  0  0
    0.9855   -1.9809   -0.0282 C   0  0  0  0  0  0  0  0  0  0  0  0
    1.8417   -3.0234   -0.2480 N   0  0  0  0  0  0  0  0  0  0  0  0
    1.2179   -4.2064   -0.3817 N   0  0  0  0  0  0  0  0  0  0  0  0
   -0.0786   -3.8819   -0.3111 C   0  0  0  0  0  0  0  0  0  0  0  0
   -0.2834   -2.5064   -0.1016 C   0  0  0  0  0  0  0  0  0  0  0  0
   -4.1970   -3.3388   -1.9360 H   0  0  0  0  0  0  0  0  0  0  0  0
   -3.8981   -4.9981   -1.3897 H   0  0  0  0  0  0  0  0  0  0  0  0
   -2.5600   -3.9966   -1.9825 H   0  0  0  0  0  0  0  0  0  0  0  0
   -2.6420   -4.1656    0.5966 H   0  0  0  0  0  0  0  0  0  0  0  0
   -4.2351   -3.4622    0.5243 H   0  0  0  0  0  0  0  0  0  0  0  0
   -3.4577   -1.4228    0.0248 H   0  0  0  0  0  0  0  0  0  0  0  0
   -2.4195    0.9554   -1.9929 H   0  0  0  0  0  0  0  0  0  0  0  0
   -4.2938    2.5151   -1.8902 H   0  0  0  0  0  0  0  0  0  0  0  0
   -6.8311    4.6412   -0.3388 H   0  0  0  0  0  0  0  0  0  0  0  0
   -6.4729    3.2495   -1.3681 H   0  0  0  0  0  0  0  0  0  0  0  0
   -5.2688    4.5815   -1.1641 H   0  0  0  0  0  0  0  0  0  0  0  0
   -4.3429    2.1849    2.4083 H   0  0  0  0  0  0  0  0  0  0  0  0
   -2.4460    0.6091    2.3062 H   0  0  0  0  0  0  0  0  0  0  0  0
    3.1488   -1.7651    1.7303 H   0  0  0  0  0  0  0  0  0  0  0  0
    5.5715   -1.2073    1.9760 H   0  0  0  0  0  0  0  0  0  0  0  0
    8.3374    2.2861   -1.0915 H   0  0  0  0  0  0  0  0  0  0  0  0
    7.9039    3.3451    0.2949 H   0  0  0  0  0  0  0  0  0  0  0  0
    7.2547    3.6903   -1.3372 H   0  0  0  0  0  0  0  0  0  0  0  0
    4.8870    2.9808   -1.5398 H   0  0  0  0  0  0  0  0  0  0  0  0
    2.4659    1.4868   -1.1384 H   0  0  0  0  0  0  0  0  0  0  0  0
    2.8512   -3.0018   -0.3396 H   0  0  0  0  0  0  0  0  0  0  0  0
   -0.7954   -4.6791   -0.4356 H   0  0  0  0  0  0  0  0  0  0  0  0
  1  2  1  0
  2  3  1  0
  3  4  1  0
  4  5  2  0
  5  6  1  0
  6  7  2  0
  7  8  1  0
  8  9  2  0
  9 10  1  0
 10 11  1  0
  9 12  1  0
 12 13  2  0
  5 14  1  0
 14 15  2  0
 14 16  1  0
 16 17  1  0
 17 18  1  0
 18 19  2  0
 19 20  1  0
 20 21  2  0
 21 22  1  0
 22 23  1  0
 22 24  1  0
 24 25  2  0
 25 26  1  0
 16 27  1  0
 27 28  1  0
 28 29  1  0
 29 30  2  0
 30 31  1  0
 31  4  1  0
 13  6  1  0
 26 17  2  0
 31 27  2  0
 25 20  1  0
  1 32  1  0
  1 33  1  0
  1 34  1  0
  2 35  1  0
  2 36  1  0
  3 37  1  0
  7 38  1  0
  8 39  1  0
 11 40  1  0
 11 41  1  0
 11 42  1  0
 12 43  1  0
 13 44  1  0
 18 45  1  0
 19 46  1  0
 23 47  1  0
 23 48  1  0
 23 49  1  0
 24 50  1  0
 26 51  1  0
 28 52  1  0
 30 53  1  0
M  END
>  <mol_id>  (1) 
135356

>  <source_index>  (1) 
9

>  <layer>  (1) 
L2

>  <uniprot>  (1) 
P31153

>  <paff>  (1) 
7.7569999999999997

>  <smiles>  (1) 
CCNc1c(-c2ccc(OC)cc2)c(=O)n(-c2ccc3nn(C)cc3c2)c2[nH]ncc12

$$$$
