L2:P31153:135356
 OpenBabel09212617453D

 53 57  0  0  0  0  0  0  0  0999 V2000
  -29.7339   -5.9766  -43.8154 C   0  0  0  0  0  0  0  0  0  0  0  0
  -31.0332   -5.5529  -43.8059 C   0  0  0  0  0  0  0  0  0  0  0  0
  -31.8938   -5.5280  -45.0673 C   0  0  0  0  0  0  0  0  0  0  0  0
  -33.0620   -5.1414  -44.9768 O   0  0  0  0  0  0  0  0  0  0  0  0
  -31.2879   -5.9029  -46.2745 N   0  0  0  0  0  0  0  0  0  0  0  0
  -29.9923   -6.3887  -46.2036 C   0  0  0  0  0  0  0  0  0  0  0  0
  -29.2689   -6.9971  -47.1908 N   0  0  0  0  0  0  0  0  0  0  0  0
  -28.0434   -7.3811  -46.7942 N   0  0  0  0  0  0  0  0  0  0  0  0
  -28.0254   -7.0629  -45.4944 C   0  0  0  0  0  0  0  0  0  0  0  0
  -29.2177   -6.4506  -45.0687 C   0  0  0  0  0  0  0  0  0  0  0  0
  -29.5497   -7.2024  -48.1432 H   0  0  0  0  0  0  0  0  0  0  0  0
  -31.9677   -5.8433  -47.5321 C   0  0  0  0  0  0  0  0  0  0  0  0
  -32.9215   -6.8744  -47.8734 C   0  0  0  0  0  0  0  0  0  0  0  0
  -33.6668   -6.9169  -49.0776 C   0  0  0  0  0  0  0  0  0  0  0  0
  -33.3842   -5.8565  -49.9491 C   0  0  0  0  0  0  0  0  0  0  0  0
  -33.8903   -5.5724  -51.1601 N   0  0  0  0  0  0  0  0  0  0  0  0
  -33.2456   -4.4507  -51.5473 N   0  0  0  0  0  0  0  0  0  0  0  0
  -33.5499   -3.8772  -52.8364 C   0  0  0  0  0  0  0  0  0  0  0  0
  -32.3471   -3.9739  -50.6365 C   0  0  0  0  0  0  0  0  0  0  0  0
  -32.4115   -4.8581  -49.5961 C   0  0  0  0  0  0  0  0  0  0  0  0
  -31.6629   -4.7871  -48.4260 C   0  0  0  0  0  0  0  0  0  0  0  0
  -31.6642   -5.0707  -42.5561 C   0  0  0  0  0  0  0  0  0  0  0  0
  -31.9727   -5.9703  -41.5283 C   0  0  0  0  0  0  0  0  0  0  0  0
  -32.5406   -5.5146  -40.3330 C   0  0  0  0  0  0  0  0  0  0  0  0
  -32.8033   -4.1558  -40.1546 C   0  0  0  0  0  0  0  0  0  0  0  0
  -32.4929   -3.2587  -41.1799 C   0  0  0  0  0  0  0  0  0  0  0  0
  -31.9283   -3.7090  -42.3756 C   0  0  0  0  0  0  0  0  0  0  0  0
  -33.3482   -3.5817  -39.0393 O   0  0  0  0  0  0  0  0  0  0  0  0
  -33.1756   -2.1782  -38.8899 C   0  0  0  0  0  0  0  0  0  0  0  0
  -28.9591   -5.9514  -42.6520 N   0  0  0  0  0  0  0  0  0  0  0  0
  -29.4754   -6.1559  -41.7981 H   0  0  0  0  0  0  0  0  0  0  0  0
  -27.4144   -4.7418  -41.2103 C   0  0  0  0  0  0  0  0  0  0  0  0
  -27.5662   -5.6493  -42.4183 C   0  0  0  0  0  0  0  0  0  0  0  0
  -27.2232   -7.2470  -44.8718 H   0  0  0  0  0  0  0  0  0  0  0  0
  -33.0703   -7.6341  -47.1910 H   0  0  0  0  0  0  0  0  0  0  0  0
  -34.3522   -7.6579  -49.2924 H   0  0  0  0  0  0  0  0  0  0  0  0
  -34.2939   -4.4715  -53.3245 H   0  0  0  0  0  0  0  0  0  0  0  0
  -32.6631   -3.8538  -53.4347 H   0  0  0  0  0  0  0  0  0  0  0  0
  -33.9183   -2.8812  -52.7057 H   0  0  0  0  0  0  0  0  0  0  0  0
  -31.7526   -3.1341  -50.7158 H   0  0  0  0  0  0  0  0  0  0  0  0
  -30.9665   -4.0508  -48.2315 H   0  0  0  0  0  0  0  0  0  0  0  0
  -31.7800   -6.9764  -41.6531 H   0  0  0  0  0  0  0  0  0  0  0  0
  -32.7656   -6.1853  -39.5816 H   0  0  0  0  0  0  0  0  0  0  0  0
  -32.6829   -2.2524  -41.0524 H   0  0  0  0  0  0  0  0  0  0  0  0
  -31.7059   -3.0366  -43.1263 H   0  0  0  0  0  0  0  0  0  0  0  0
  -33.6448   -1.8556  -37.9840 H   0  0  0  0  0  0  0  0  0  0  0  0
  -33.6211   -1.6735  -39.7216 H   0  0  0  0  0  0  0  0  0  0  0  0
  -32.1311   -1.9494  -38.8517 H   0  0  0  0  0  0  0  0  0  0  0  0
  -26.3778   -4.5287  -41.0523 H   0  0  0  0  0  0  0  0  0  0  0  0
  -27.8142   -5.2291  -40.3457 H   0  0  0  0  0  0  0  0  0  0  0  0
  -27.9442   -3.8281  -41.3818 H   0  0  0  0  0  0  0  0  0  0  0  0
  -27.0328   -6.5603  -42.2436 H   0  0  0  0  0  0  0  0  0  0  0  0
  -27.1714   -5.1498  -43.2782 H   0  0  0  0  0  0  0  0  0  0  0  0
  1  2  2  0  0  0  0
  2 22  1  0  0  0  0
  2  3  1  0  0  0  0
  3  4  2  0  0  0  0
  3  5  1  0  0  0  0
  5 12  1  0  0  0  0
  5  6  1  0  0  0  0
  6  7  1  0  0  0  0
  7  8  1  0  0  0  0
  7 11  1  0  0  0  0
  8  9  2  0  0  0  0
  9 10  1  0  0  0  0
  9 34  1  0  0  0  0
 10  1  1  0  0  0  0
 10  6  2  0  0  0  0
 12 13  1  0  0  0  0
 13 14  2  0  0  0  0
 13 35  1  0  0  0  0
 14 15  1  0  0  0  0
 14 36  1  0  0  0  0
 15 16  2  0  0  0  0
 16 17  1  0  0  0  0
 17 18  1  0  0  0  0
 17 19  1  0  0  0  0
 18 37  1  0  0  0  0
 18 38  1  0  0  0  0
 18 39  1  0  0  0  0
 19 20  2  0  0  0  0
 19 40  1  0  0  0  0
 20 21  1  0  0  0  0
 20 15  1  0  0  0  0
 21 12  2  0  0  0  0
 21 41  1  0  0  0  0
 22 23  2  0  0  0  0
 23 24  1  0  0  0  0
 23 42  1  0  0  0  0
 24 25  2  0  0  0  0
 24 43  1  0  0  0  0
 25 28  1  0  0  0  0
 25 26  1  0  0  0  0
 26 27  2  0  0  0  0
 26 44  1  0  0  0  0
 27 22  1  0  0  0  0
 27 45  1  0  0  0  0
 28 29  1  0  0  0  0
 29 46  1  0  0  0  0
 29 47  1  0  0  0  0
 29 48  1  0  0  0  0
 30  1  1  0  0  0  0
 30 31  1  0  0  0  0
 32 33  1  0  0  0  0
 32 49  1  0  0  0  0
 32 50  1  0  0  0  0
 32 51  1  0  0  0  0
 33 30  1  0  0  0  0
 33 52  1  0  0  0  0
 33 53  1  0  0  0  0
M  END
>  <minimizedAffinity>
-9.05678

$$$$
