L2:P31153:17983
     RDKit          3D

 41 44  0  0  0  0  0  0  0  0999 V2000
    1.9385   -0.5543    2.8514 C   0  0  0  0  0  0  0  0  0  0  0  0
    1.6127   -0.2654    1.4097 C   0  0  0  0  0  0  0  0  0  0  0  0
    0.5383    0.6021    1.1310 C   0  0  0  0  0  0  0  0  0  0  0  0
    0.1634    0.9073   -0.1865 C   0  0  0  0  0  0  0  0  0  0  0  0
   -0.9555    1.8068   -0.4636 C   0  0  0  0  0  0  0  0  0  0  0  0
   -0.8025    3.1385   -0.8824 C   0  0  0  0  0  0  0  0  0  0  0  0
    0.5067    3.7145   -1.0609 C   0  0  0  0  0  0  0  0  0  0  0  0
    1.5784    4.1463   -1.1900 N   0  0  0  0  0  0  0  0  0  0  0  0
   -1.8258    4.0005   -1.1338 N   0  0  0  0  0  0  0  0  0  0  0  0
   -3.0982    3.5775   -0.9877 C   0  0  0  0  0  0  0  0  0  0  0  0
   -3.3222    2.2724   -0.5848 C   0  0  0  0  0  0  0  0  0  0  0  0
   -4.4877    1.5912   -0.3617 N   0  0  0  0  0  0  0  0  0  0  0  0
   -4.3106    0.3221    0.0257 N   0  0  0  0  0  0  0  0  0  0  0  0
   -2.9832    0.1780    0.0307 C   0  0  0  0  0  0  0  0  0  0  0  0
   -2.3210   -1.1783    0.4110 C   0  0  0  0  0  0  0  0  0  0  0  0
   -2.9784   -2.4652   -0.0243 C   0  0  0  0  0  0  0  0  0  0  0  0
   -1.6973   -2.0276   -0.6675 C   0  0  0  0  0  0  0  0  0  0  0  0
   -2.2922    1.3700   -0.3221 C   0  0  0  0  0  0  0  0  0  0  0  0
    0.9051    0.3378   -1.2262 C   0  0  0  0  0  0  0  0  0  0  0  0
    0.5765    0.6011   -2.4999 F   0  0  0  0  0  0  0  0  0  0  0  0
    1.9853   -0.5053   -0.9847 C   0  0  0  0  0  0  0  0  0  0  0  0
    2.3477   -0.8028    0.3319 C   0  0  0  0  0  0  0  0  0  0  0  0
    3.7448   -1.8731    0.6396 S   0  0  0  0  0  6  0  0  0  0  0  0
    4.7120   -1.9326   -0.8419 C   0  0  0  0  0  0  0  0  0  0  0  0
    4.5683   -1.2190    1.6386 O   0  0  0  0  0  0  0  0  0  0  0  0
    3.1933   -3.1953    0.8625 O   0  0  0  0  0  0  0  0  0  0  0  0
    2.8103    0.0260    3.1674 H   0  0  0  0  0  0  0  0  0  0  0  0
    1.1025   -0.2840    3.5062 H   0  0  0  0  0  0  0  0  0  0  0  0
    2.1213   -1.6212    3.0097 H   0  0  0  0  0  0  0  0  0  0  0  0
   -0.0209    1.0405    1.9586 H   0  0  0  0  0  0  0  0  0  0  0  0
   -3.8863    4.2914   -1.1976 H   0  0  0  0  0  0  0  0  0  0  0  0
   -5.4377    1.9344   -0.4537 H   0  0  0  0  0  0  0  0  0  0  0  0
   -1.8642   -1.1882    1.3947 H   0  0  0  0  0  0  0  0  0  0  0  0
   -3.8896   -2.4080   -0.6093 H   0  0  0  0  0  0  0  0  0  0  0  0
   -2.9477   -3.3030    0.6623 H   0  0  0  0  0  0  0  0  0  0  0  0
   -0.7961   -2.5771   -0.4216 H   0  0  0  0  0  0  0  0  0  0  0  0
   -1.7448   -1.6853   -1.6950 H   0  0  0  0  0  0  0  0  0  0  0  0
    2.5028   -0.9112   -1.8456 H   0  0  0  0  0  0  0  0  0  0  0  0
    4.9854   -0.9177   -1.1366 H   0  0  0  0  0  0  0  0  0  0  0  0
    4.1505   -2.4396   -1.6281 H   0  0  0  0  0  0  0  0  0  0  0  0
    5.6181   -2.5040   -0.6257 H   0  0  0  0  0  0  0  0  0  0  0  0
  1  2  1  0
  2  3  2  0
  3  4  1  0
  4  5  1  0
  5  6  2  0
  6  7  1  0
  7  8  3  0
  6  9  1  0
  9 10  2  0
 10 11  1  0
 11 12  1  0
 12 13  1  0
 13 14  2  0
 14 15  1  0
 15 16  1  0
 16 17  1  0
 14 18  1  0
  4 19  2  0
 19 20  1  0
 19 21  1  0
 21 22  2  0
 22 23  1  0
 23 24  1  0
 23 25  2  0
 23 26  2  0
 22  2  1  0
 18  5  1  0
 18 11  2  0
 17 15  1  0
  1 27  1  0
  1 28  1  0
  1 29  1  0
  3 30  1  0
 10 31  1  0
 12 32  1  0
 15 33  1  0
 16 34  1  0
 16 35  1  0
 17 36  1  0
 17 37  1  0
 21 38  1  0
 24 39  1  0
 24 40  1  0
 24 41  1  0
M  END
>  <mol_id>  (1) 
17983

>  <source_index>  (1) 
0

>  <layer>  (1) 
L2

>  <uniprot>  (1) 
P31153

>  <paff>  (1) 
7.7695999999999996

>  <smiles>  (1) 
Cc1cc(-c2c(C#N)ncc3[nH]nc(C4CC4)c23)c(F)cc1S(C)(=O)=O

$$$$
