L2:P31153:17983


 27 30  0  0  0  0  0  0  0  0999 V2000
  -29.3119   -6.1036  -43.1870 C   0  0  0  0  0  0  0  0  0  0  0  0
  -28.1238   -6.4108  -42.5042 C   0  0  0  0  0  0  0  0  0  0  0  0
  -27.0171   -6.9635  -43.0725 N   0  0  0  0  0  0  0  0  0  0  0  0
  -27.0269   -7.2598  -44.3884 C   0  0  0  0  0  0  0  0  0  0  0  0
  -28.1697   -6.9904  -45.1214 C   0  0  0  0  0  0  0  0  0  0  0  0
  -28.4511   -7.1857  -46.4461 N   0  0  0  0  0  0  0  0  0  0  0  0
  -29.6810   -6.7969  -46.8041 N   0  0  0  0  0  0  0  0  0  0  0  0
  -30.2152   -6.3557  -45.6628 C   0  0  0  0  0  0  0  0  0  0  0  0
  -29.3160   -6.4259  -44.5631 C   0  0  0  0  0  0  0  0  0  0  0  0
  -27.8474   -7.5782  -47.1603 H   0  0  0  0  0  0  0  0  0  0  0  0
  -31.7804   -2.0027  -41.7629 C   0  0  0  0  0  0  0  0  0  0  0  0
  -31.7229   -3.5061  -41.8309 C   0  0  0  0  0  0  0  0  0  0  0  0
  -30.5998   -4.1025  -42.4372 C   0  0  0  0  0  0  0  0  0  0  0  0
  -30.4810   -5.4960  -42.5530 C   0  0  0  0  0  0  0  0  0  0  0  0
  -31.5079   -6.2860  -42.0270 C   0  0  0  0  0  0  0  0  0  0  0  0
  -31.4344   -7.6222  -42.1210 F   0  0  0  0  0  0  0  0  0  0  0  0
  -32.6197   -5.7291  -41.4027 C   0  0  0  0  0  0  0  0  0  0  0  0
  -32.7271   -4.3398  -41.2951 C   0  0  0  0  0  0  0  0  0  0  0  0
  -34.1480   -3.6276  -40.4791 S   0  0  0  0  0  0  0  0  0  0  0  0
  -34.3640   -1.9880  -41.1109 C   0  0  0  0  0  0  0  0  0  0  0  0
  -35.3077   -4.3862  -40.9077 O   0  0  0  0  0  0  0  0  0  0  0  0
  -33.7912   -3.5194  -39.0780 O   0  0  0  0  0  0  0  0  0  0  0  0
  -31.6739   -5.8149  -45.6115 C   0  0  0  0  0  0  0  0  0  0  0  0
  -32.6543   -6.2419  -46.6766 C   0  0  0  0  0  0  0  0  0  0  0  0
  -32.8029   -6.7567  -45.2768 C   0  0  0  0  0  0  0  0  0  0  0  0
  -27.9820   -6.1287  -41.0978 C   0  0  0  0  0  0  0  0  0  0  0  0
  -27.8395   -5.8751  -39.9722 N   0  0  0  0  0  0  0  0  0  0  0  0
 11 12  1  0  0  0
 12 13  2  0  0  0
 13 14  1  0  0  0
 14  1  1  0  0  0
  1  2  2  0  0  0
  2 26  1  0  0  0
 26 27  3  0  0  0
  2  3  1  0  0  0
  3  4  2  0  0  0
  4  5  1  0  0  0
  5  6  1  0  0  0
  6  7  1  0  0  0
  7  8  2  0  0  0
  8 23  1  0  0  0
 23 24  1  0  0  0
 24 25  1  0  0  0
  8  9  1  0  0  0
 14 15  2  0  0  0
 15 16  1  0  0  0
 15 17  1  0  0  0
 17 18  2  0  0  0
 18 19  1  0  0  0
 19 20  1  0  0  0
 19 21  2  0  0  0
 19 22  2  0  0  0
 18 12  1  0  0  0
  9  1  1  0  0  0
  9  5  2  0  0  0
 25 23  1  0  0  0
  6 10  1  0  0  0
M  END
> <minimizedAffinity>
-7.73435

$$$$
