L2:P31153:23451
     RDKit          3D

 37 40  0  0  0  0  0  0  0  0999 V2000
    5.3661    1.7283   -0.3598 C   0  0  0  0  0  0  0  0  0  0  0  0
    4.7017    1.0995    0.8516 C   0  0  0  0  0  0  0  0  0  0  0  0
    3.3435    0.6745    0.5709 N   0  0  0  0  0  0  0  0  0  0  0  0
    2.9351   -0.5856    0.2262 C   0  0  0  0  0  0  0  0  0  0  0  0
    1.5749   -0.4916    0.0709 C   0  0  0  0  0  0  0  0  0  0  0  0
    1.2458    0.8486    0.3326 C   0  0  0  0  0  0  0  0  0  0  0  0
    2.3372    1.5677    0.6424 N   0  0  0  0  0  0  0  0  0  0  0  0
   -0.1328    1.3410    0.2811 C   0  0  0  0  0  0  0  0  0  0  0  0
   -0.4097    2.5121    0.5417 O   0  0  0  0  0  0  0  0  0  0  0  0
   -1.1045    0.3446   -0.0434 N   0  0  0  0  0  0  0  0  0  0  0  0
   -2.4884    0.7051    0.0389 C   0  0  0  0  0  0  0  0  0  0  0  0
   -2.9626    1.8577   -0.6077 C   0  0  0  0  0  0  0  0  0  0  0  0
   -4.3064    2.2337   -0.5120 C   0  0  0  0  0  0  0  0  0  0  0  0
   -5.1889    1.4688    0.2457 C   0  0  0  0  0  0  0  0  0  0  0  0
   -4.7178    0.3428    0.9082 C   0  0  0  0  0  0  0  0  0  0  0  0
   -5.5614   -0.3842    1.6526 F   0  0  0  0  0  0  0  0  0  0  0  0
   -3.3831   -0.0416    0.8190 C   0  0  0  0  0  0  0  0  0  0  0  0
   -0.7502   -1.0272   -0.4014 C   0  0  0  0  0  0  0  0  0  0  0  0
   -1.6919   -1.9425   -0.9071 C   0  0  0  0  0  0  0  0  0  0  0  0
   -1.3235   -3.2514   -1.2339 C   0  0  0  0  0  0  0  0  0  0  0  0
   -2.5103   -4.3452   -1.8326 Cl  0  0  0  0  0  0  0  0  0  0  0  0
   -0.0085   -3.6786   -1.0915 C   0  0  0  0  0  0  0  0  0  0  0  0
    0.9581   -2.7826   -0.6432 C   0  0  0  0  0  0  0  0  0  0  0  0
    0.5967   -1.4678   -0.3175 C   0  0  0  0  0  0  0  0  0  0  0  0
    5.4062    1.0237   -1.1973 H   0  0  0  0  0  0  0  0  0  0  0  0
    6.3895    2.0309   -0.1178 H   0  0  0  0  0  0  0  0  0  0  0  0
    4.8182    2.6150   -0.6959 H   0  0  0  0  0  0  0  0  0  0  0  0
    5.2640    0.2200    1.1836 H   0  0  0  0  0  0  0  0  0  0  0  0
    4.6617    1.8076    1.6866 H   0  0  0  0  0  0  0  0  0  0  0  0
    3.6376   -1.4002    0.1227 H   0  0  0  0  0  0  0  0  0  0  0  0
   -2.2896    2.4748   -1.2005 H   0  0  0  0  0  0  0  0  0  0  0  0
   -4.6565    3.1277   -1.0221 H   0  0  0  0  0  0  0  0  0  0  0  0
   -6.2334    1.7498    0.3352 H   0  0  0  0  0  0  0  0  0  0  0  0
   -3.0558   -0.9063    1.3877 H   0  0  0  0  0  0  0  0  0  0  0  0
   -2.7237   -1.6553   -1.0866 H   0  0  0  0  0  0  0  0  0  0  0  0
    0.2732   -4.6966   -1.3483 H   0  0  0  0  0  0  0  0  0  0  0  0
    1.9894   -3.1171   -0.5666 H   0  0  0  0  0  0  0  0  0  0  0  0
  1  2  1  0
  2  3  1  0
  3  4  1  0
  4  5  2  0
  5  6  1  0
  6  7  2  0
  6  8  1  0
  8  9  2  0
  8 10  1  0
 10 11  1  0
 11 12  2  0
 12 13  1  0
 13 14  2  0
 14 15  1  0
 15 16  1  0
 15 17  2  0
 10 18  1  0
 18 19  2  0
 19 20  1  0
 20 21  1  0
 20 22  2  0
 22 23  1  0
 23 24  2  0
  7  3  1  0
 17 11  1  0
 24 18  1  0
 24  5  1  0
  1 25  1  0
  1 26  1  0
  1 27  1  0
  2 28  1  0
  2 29  1  0
  4 30  1  0
 12 31  1  0
 13 32  1  0
 14 33  1  0
 17 34  1  0
 19 35  1  0
 22 36  1  0
 23 37  1  0
M  END
>  <mol_id>  (1) 
23451

>  <source_index>  (1) 
1

>  <layer>  (1) 
L2

>  <uniprot>  (1) 
P31153

>  <paff>  (1) 
6.9066000000000001

>  <smiles>  (1) 
CCn1cc2c(n1)c(=O)n(-c1cccc(F)c1)c1cc(Cl)ccc21

$$$$
