L2:P31153:23451


 24 27  0  0  0  0  0  0  0  0999 V2000
  -32.0607   -6.8335  -46.7170 N   0  0  0  0  0  0  0  0  0  0  0  0
  -30.7931   -6.8323  -46.2007 C   0  0  0  0  0  0  0  0  0  0  0  0
  -30.9086   -6.2398  -44.9684 C   0  0  0  0  0  0  0  0  0  0  0  0
  -32.2680   -5.9204  -44.8168 C   0  0  0  0  0  0  0  0  0  0  0  0
  -32.9785   -6.2857  -45.8966 N   0  0  0  0  0  0  0  0  0  0  0  0
  -32.7873   -5.2537  -43.6204 C   0  0  0  0  0  0  0  0  0  0  0  0
  -33.9766   -4.9534  -43.5141 O   0  0  0  0  0  0  0  0  0  0  0  0
  -31.7964   -4.9489  -42.6367 N   0  0  0  0  0  0  0  0  0  0  0  0
  -30.3997   -5.3611  -42.7582 C   0  0  0  0  0  0  0  0  0  0  0  0
  -29.4793   -5.2297  -41.7018 C   0  0  0  0  0  0  0  0  0  0  0  0
  -28.1468   -5.6268  -41.8513 C   0  0  0  0  0  0  0  0  0  0  0  0
  -27.0486   -5.4322  -40.5400 Cl  0  0  0  0  0  0  0  0  0  0  0  0
  -27.6989   -6.1867  -43.0421 C   0  0  0  0  0  0  0  0  0  0  0  0
  -28.5964   -6.3786  -44.0889 C   0  0  0  0  0  0  0  0  0  0  0  0
  -29.9346   -5.9866  -43.9447 C   0  0  0  0  0  0  0  0  0  0  0  0
  -32.1914   -4.1590  -41.5089 C   0  0  0  0  0  0  0  0  0  0  0  0
  -32.4455   -4.7669  -40.2690 C   0  0  0  0  0  0  0  0  0  0  0  0
  -32.8575   -4.0087  -39.1682 C   0  0  0  0  0  0  0  0  0  0  0  0
  -33.0357   -2.6343  -39.2995 C   0  0  0  0  0  0  0  0  0  0  0  0
  -32.8108   -2.0335  -40.5312 C   0  0  0  0  0  0  0  0  0  0  0  0
  -32.9994   -0.7140  -40.6644 F   0  0  0  0  0  0  0  0  0  0  0  0
  -32.3993   -2.7777  -41.6330 C   0  0  0  0  0  0  0  0  0  0  0  0
  -33.4465   -6.4228  -48.7117 C   0  0  0  0  0  0  0  0  0  0  0  0
  -32.4702   -7.3492  -48.0095 C   0  0  0  0  0  0  0  0  0  0  0  0
 23 24  1  0  0  0
 24  1  1  0  0  0
  1  2  1  0  0  0
  2  3  2  0  0  0
  3  4  1  0  0  0
  4  5  2  0  0  0
  4  6  1  0  0  0
  6  7  2  0  0  0
  6  8  1  0  0  0
  8 16  1  0  0  0
 16 17  2  0  0  0
 17 18  1  0  0  0
 18 19  2  0  0  0
 19 20  1  0  0  0
 20 21  1  0  0  0
 20 22  2  0  0  0
  8  9  1  0  0  0
  9 10  2  0  0  0
 10 11  1  0  0  0
 11 12  1  0  0  0
 11 13  2  0  0  0
 13 14  1  0  0  0
 14 15  2  0  0  0
  5  1  1  0  0  0
 22 16  1  0  0  0
 15  9  1  0  0  0
 15  3  1  0  0  0
M  END
> <minimizedAffinity>
-10.90777

$$$$
