L2:P31153:23669


 32 36  0  0  0  0  0  0  0  0999 V2000
  -35.3196    3.1709  -51.3277 C   0  0  0  0  0  0  0  0  0  0  0  0
  -35.7691    2.1442  -52.0860 C   0  0  0  0  0  0  0  0  0  0  0  0
  -35.2266    0.7329  -51.8359 C   0  0  0  0  0  0  0  0  0  0  0  0
  -35.6116   -0.1805  -52.5704 O   0  0  0  0  0  0  0  0  0  0  0  0
  -34.2790    0.5594  -50.8039 N   0  0  0  0  0  0  0  0  0  0  0  0
  -33.9646    1.6696  -50.0321 C   0  0  0  0  0  0  0  0  0  0  0  0
  -33.2357    1.7502  -48.8773 N   0  0  0  0  0  0  0  0  0  0  0  0
  -33.1456    3.0071  -48.3904 N   0  0  0  0  0  0  0  0  0  0  0  0
  -33.9087    3.7262  -49.2228 C   0  0  0  0  0  0  0  0  0  0  0  0
  -34.4408    2.9344  -50.2466 C   0  0  0  0  0  0  0  0  0  0  0  0
  -32.7887    1.0023  -48.3581 H   0  0  0  0  0  0  0  0  0  0  0  0
  -33.6775   -0.7063  -50.5145 C   0  0  0  0  0  0  0  0  0  0  0  0
  -32.3533   -0.9970  -51.0155 C   0  0  0  0  0  0  0  0  0  0  0  0
  -31.6500   -2.2046  -50.7822 C   0  0  0  0  0  0  0  0  0  0  0  0
  -32.3686   -3.1333  -50.0174 C   0  0  0  0  0  0  0  0  0  0  0  0
  -32.0265   -4.3639  -49.6036 N   0  0  0  0  0  0  0  0  0  0  0  0
  -33.1025   -4.8079  -48.9188 N   0  0  0  0  0  0  0  0  0  0  0  0
  -33.0687   -6.1298  -48.3400 C   0  0  0  0  0  0  0  0  0  0  0  0
  -34.1353   -3.9172  -48.8530 C   0  0  0  0  0  0  0  0  0  0  0  0
  -33.6945   -2.8286  -49.5524 C   0  0  0  0  0  0  0  0  0  0  0  0
  -34.4133   -1.6567  -49.7640 C   0  0  0  0  0  0  0  0  0  0  0  0
  -36.7520    2.3713  -53.1702 C   0  0  0  0  0  0  0  0  0  0  0  0
  -36.3206    2.5718  -54.4893 C   0  0  0  0  0  0  0  0  0  0  0  0
  -37.2442    2.7918  -55.5162 C   0  0  0  0  0  0  0  0  0  0  0  0
  -38.6134    2.8139  -55.2360 C   0  0  0  0  0  0  0  0  0  0  0  0
  -39.0540    2.6123  -53.9250 C   0  0  0  0  0  0  0  0  0  0  0  0
  -38.1289    2.3902  -52.9000 C   0  0  0  0  0  0  0  0  0  0  0  0
  -39.5608    3.0414  -56.2876 C   0  0  0  0  0  0  0  0  0  0  0  0
  -40.3235    3.2265  -57.1426 N   0  0  0  0  0  0  0  0  0  0  0  0
  -35.7531    4.4756  -51.4639 O   0  0  0  0  0  0  0  0  0  0  0  0
  -35.6101    5.8984  -53.3740 C   0  0  0  0  0  0  0  0  0  0  0  0
  -34.8338    5.2518  -52.2425 C   0  0  0  0  0  0  0  0  0  0  0  0
 31 32  1  0  0  0
 32 30  1  0  0  0
 30  1  1  0  0  0
  1  2  2  0  0  0
  2 22  1  0  0  0
 22 23  2  0  0  0
 23 24  1  0  0  0
 24 25  2  0  0  0
 25 28  1  0  0  0
 28 29  3  0  0  0
 25 26  1  0  0  0
 26 27  2  0  0  0
  2  3  1  0  0  0
  3  4  2  0  0  0
  3  5  1  0  0  0
  5 12  1  0  0  0
 12 13  1  0  0  0
 13 14  2  0  0  0
 14 15  1  0  0  0
 15 16  2  0  0  0
 16 17  1  0  0  0
 17 18  1  0  0  0
 17 19  1  0  0  0
 19 20  2  0  0  0
 20 21  1  0  0  0
  5  6  1  0  0  0
  6  7  1  0  0  0
  7  8  1  0  0  0
  8  9  2  0  0  0
  9 10  1  0  0  0
 10  1  1  0  0  0
 27 22  1  0  0  0
 21 12  2  0  0  0
 10  6  2  0  0  0
 20 15  1  0  0  0
  7 11  1  0  0  0
M  END
> <minimizedAffinity>
-6.59331

$$$$
