L2:P31153:23669
 OpenBabel09212617443D

 49 53  0  0  0  0  0  0  0  0999 V2000
  -35.3196    3.1709  -51.3277 C   0  0  0  0  0  0  0  0  0  0  0  0
  -35.7691    2.1442  -52.0860 C   0  0  0  0  0  0  0  0  0  0  0  0
  -35.2266    0.7329  -51.8359 C   0  0  0  0  0  0  0  0  0  0  0  0
  -35.6116   -0.1805  -52.5704 O   0  0  0  0  0  0  0  0  0  0  0  0
  -34.2790    0.5594  -50.8039 N   0  0  0  0  0  0  0  0  0  0  0  0
  -33.9646    1.6696  -50.0321 C   0  0  0  0  0  0  0  0  0  0  0  0
  -33.2357    1.7502  -48.8773 N   0  0  0  0  0  0  0  0  0  0  0  0
  -33.1456    3.0071  -48.3904 N   0  0  0  0  0  0  0  0  0  0  0  0
  -33.9087    3.7262  -49.2228 C   0  0  0  0  0  0  0  0  0  0  0  0
  -34.4408    2.9344  -50.2466 C   0  0  0  0  0  0  0  0  0  0  0  0
  -32.7887    1.0023  -48.3581 H   0  0  0  0  0  0  0  0  0  0  0  0
  -33.6775   -0.7063  -50.5145 C   0  0  0  0  0  0  0  0  0  0  0  0
  -32.3533   -0.9970  -51.0155 C   0  0  0  0  0  0  0  0  0  0  0  0
  -31.6500   -2.2046  -50.7822 C   0  0  0  0  0  0  0  0  0  0  0  0
  -32.3686   -3.1333  -50.0174 C   0  0  0  0  0  0  0  0  0  0  0  0
  -32.0265   -4.3639  -49.6036 N   0  0  0  0  0  0  0  0  0  0  0  0
  -33.1025   -4.8079  -48.9188 N   0  0  0  0  0  0  0  0  0  0  0  0
  -33.0687   -6.1298  -48.3400 C   0  0  0  0  0  0  0  0  0  0  0  0
  -34.1353   -3.9172  -48.8530 C   0  0  0  0  0  0  0  0  0  0  0  0
  -33.6945   -2.8286  -49.5524 C   0  0  0  0  0  0  0  0  0  0  0  0
  -34.4133   -1.6567  -49.7640 C   0  0  0  0  0  0  0  0  0  0  0  0
  -36.7520    2.3713  -53.1702 C   0  0  0  0  0  0  0  0  0  0  0  0
  -36.3206    2.5718  -54.4893 C   0  0  0  0  0  0  0  0  0  0  0  0
  -37.2442    2.7918  -55.5162 C   0  0  0  0  0  0  0  0  0  0  0  0
  -38.6134    2.8139  -55.2360 C   0  0  0  0  0  0  0  0  0  0  0  0
  -39.0540    2.6123  -53.9250 C   0  0  0  0  0  0  0  0  0  0  0  0
  -38.1289    2.3902  -52.9000 C   0  0  0  0  0  0  0  0  0  0  0  0
  -39.5608    3.0414  -56.2876 C   0  0  0  0  0  0  0  0  0  0  0  0
  -40.3235    3.2265  -57.1426 N   0  0  0  0  0  0  0  0  0  0  0  0
  -35.7531    4.4756  -51.4639 O   0  0  0  0  0  0  0  0  0  0  0  0
  -35.6101    5.8984  -53.3740 C   0  0  0  0  0  0  0  0  0  0  0  0
  -34.8338    5.2518  -52.2425 C   0  0  0  0  0  0  0  0  0  0  0  0
  -34.0828    4.7384  -49.1220 H   0  0  0  0  0  0  0  0  0  0  0  0
  -31.8866   -0.2730  -51.5839 H   0  0  0  0  0  0  0  0  0  0  0  0
  -30.6991   -2.3833  -51.1413 H   0  0  0  0  0  0  0  0  0  0  0  0
  -32.1278   -6.5905  -48.5576 H   0  0  0  0  0  0  0  0  0  0  0  0
  -33.8592   -6.7206  -48.7536 H   0  0  0  0  0  0  0  0  0  0  0  0
  -33.1941   -6.0583  -47.2798 H   0  0  0  0  0  0  0  0  0  0  0  0
  -35.0449   -4.0387  -48.3810 H   0  0  0  0  0  0  0  0  0  0  0  0
  -35.3714   -1.4978  -49.4149 H   0  0  0  0  0  0  0  0  0  0  0  0
  -35.3114    2.5569  -54.7045 H   0  0  0  0  0  0  0  0  0  0  0  0
  -36.9141    2.9381  -56.4830 H   0  0  0  0  0  0  0  0  0  0  0  0
  -40.0639    2.6274  -53.7130 H   0  0  0  0  0  0  0  0  0  0  0  0
  -38.4622    2.2387  -51.9351 H   0  0  0  0  0  0  0  0  0  0  0  0
  -34.9454    6.4856  -53.9726 H   0  0  0  0  0  0  0  0  0  0  0  0
  -36.3745    6.5275  -52.9682 H   0  0  0  0  0  0  0  0  0  0  0  0
  -36.0579    5.1382  -53.9794 H   0  0  0  0  0  0  0  0  0  0  0  0
  -34.3866    6.0070  -51.6305 H   0  0  0  0  0  0  0  0  0  0  0  0
  -34.0570    4.6280  -52.6327 H   0  0  0  0  0  0  0  0  0  0  0  0
  1  2  2  0  0  0  0
  2 22  1  0  0  0  0
  2  3  1  0  0  0  0
  3  4  2  0  0  0  0
  3  5  1  0  0  0  0
  5 12  1  0  0  0  0
  5  6  1  0  0  0  0
  6  7  1  0  0  0  0
  7  8  1  0  0  0  0
  7 11  1  0  0  0  0
  8  9  2  0  0  0  0
  9 10  1  0  0  0  0
  9 33  1  0  0  0  0
 10  1  1  0  0  0  0
 10  6  2  0  0  0  0
 12 13  1  0  0  0  0
 13 14  2  0  0  0  0
 13 34  1  0  0  0  0
 14 15  1  0  0  0  0
 14 35  1  0  0  0  0
 15 16  2  0  0  0  0
 16 17  1  0  0  0  0
 17 18  1  0  0  0  0
 17 19  1  0  0  0  0
 18 36  1  0  0  0  0
 18 37  1  0  0  0  0
 18 38  1  0  0  0  0
 19 20  2  0  0  0  0
 19 39  1  0  0  0  0
 20 21  1  0  0  0  0
 20 15  1  0  0  0  0
 21 12  2  0  0  0  0
 21 40  1  0  0  0  0
 22 23  2  0  0  0  0
 23 24  1  0  0  0  0
 23 41  1  0  0  0  0
 24 25  2  0  0  0  0
 24 42  1  0  0  0  0
 25 28  1  0  0  0  0
 25 26  1  0  0  0  0
 26 27  2  0  0  0  0
 26 43  1  0  0  0  0
 27 22  1  0  0  0  0
 27 44  1  0  0  0  0
 28 29  3  0  0  0  0
 30  1  1  0  0  0  0
 31 32  1  0  0  0  0
 31 45  1  0  0  0  0
 31 46  1  0  0  0  0
 31 47  1  0  0  0  0
 32 30  1  0  0  0  0
 32 48  1  0  0  0  0
 32 49  1  0  0  0  0
M  END
>  <minimizedAffinity>
-6.59331

$$$$
