L2:P31153:34605
     RDKit          3D

 51 54  0  0  0  0  0  0  0  0999 V2000
   -8.3859   -0.7893   -0.5615 C   0  0  0  0  0  0  0  0  0  0  0  0
   -7.4527    0.2808   -0.6401 O   0  0  0  0  0  0  0  0  0  0  0  0
   -6.1275   -0.0464   -0.5674 C   0  0  0  0  0  0  0  0  0  0  0  0
   -5.6047   -1.3326   -0.4405 C   0  0  0  0  0  0  0  0  0  0  0  0
   -4.2190   -1.5245   -0.3784 C   0  0  0  0  0  0  0  0  0  0  0  0
   -3.3425   -0.4316   -0.4319 C   0  0  0  0  0  0  0  0  0  0  0  0
   -1.8726   -0.6909   -0.3917 C   0  0  0  0  0  0  0  0  0  0  0  0
   -1.4311   -1.7886   -0.9348 N   0  0  0  0  0  0  0  0  0  0  0  0
   -0.0508   -2.0092   -0.9580 C   0  0  0  0  0  0  0  0  0  0  0  0
    0.4602   -3.1252   -1.5861 C   0  0  0  0  0  0  0  0  0  0  0  0
    1.7748   -3.3938   -1.7124 N   0  0  0  0  0  0  0  0  0  0  0  0
    2.6160   -2.4967   -1.2014 C   0  0  0  0  0  0  0  0  0  0  0  0
    3.9445   -2.7575   -1.3557 N   0  0  0  0  0  0  0  0  0  0  0  0
    4.9593   -1.7976   -0.9409 C   0  0  0  0  0  0  0  0  0  0  0  0
    6.3933   -2.2692   -1.1936 C   0  0  0  0  0  0  0  0  0  0  0  0
    7.2870   -1.3299   -0.8083 F   0  0  0  0  0  0  0  0  0  0  0  0
    6.6710   -3.4013   -0.5074 F   0  0  0  0  0  0  0  0  0  0  0  0
    6.6065   -2.5235   -2.5050 F   0  0  0  0  0  0  0  0  0  0  0  0
    2.2248   -1.3865   -0.5675 N   0  0  0  0  0  0  0  0  0  0  0  0
    0.8985   -1.1523   -0.4278 C   0  0  0  0  0  0  0  0  0  0  0  0
    0.4349    0.0278    0.2311 N   0  0  0  0  0  0  0  0  0  0  0  0
    1.3882    0.9139    0.8377 C   0  0  0  0  0  0  0  0  0  0  0  0
    2.4911    0.4390    1.5631 C   0  0  0  0  0  0  0  0  0  0  0  0
    3.4002    1.3203    2.1552 C   0  0  0  0  0  0  0  0  0  0  0  0
    3.2177    2.6979    2.0462 C   0  0  0  0  0  0  0  0  0  0  0  0
    2.1149    3.1962    1.3565 C   0  0  0  0  0  0  0  0  0  0  0  0
    1.8254    4.5196    1.1688 O   0  0  0  0  0  0  0  0  0  0  0  0
    2.3813    5.4174    2.1146 C   0  0  0  0  0  0  0  0  0  0  0  0
    3.6959    5.6002    1.8356 F   0  0  0  0  0  0  0  0  0  0  0  0
    1.7781    6.6200    1.9348 F   0  0  0  0  0  0  0  0  0  0  0  0
    1.2163    2.3057    0.7545 C   0  0  0  0  0  0  0  0  0  0  0  0
   -0.9353    0.3084    0.2959 C   0  0  0  0  0  0  0  0  0  0  0  0
   -1.4401    1.2459    0.9056 O   0  0  0  0  0  0  0  0  0  0  0  0
   -3.8681    0.8544   -0.5761 C   0  0  0  0  0  0  0  0  0  0  0  0
   -5.2531    1.0409   -0.6370 C   0  0  0  0  0  0  0  0  0  0  0  0
   -8.3070   -1.3126    0.3972 H   0  0  0  0  0  0  0  0  0  0  0  0
   -8.2642   -1.4812   -1.4014 H   0  0  0  0  0  0  0  0  0  0  0  0
   -9.3911   -0.3616   -0.6255 H   0  0  0  0  0  0  0  0  0  0  0  0
   -6.2433   -2.2083   -0.3906 H   0  0  0  0  0  0  0  0  0  0  0  0
   -3.8309   -2.5369   -0.2855 H   0  0  0  0  0  0  0  0  0  0  0  0
   -0.2053   -3.8572   -2.0351 H   0  0  0  0  0  0  0  0  0  0  0  0
    4.1725   -3.5917   -1.8788 H   0  0  0  0  0  0  0  0  0  0  0  0
    4.8551   -1.5922    0.1311 H   0  0  0  0  0  0  0  0  0  0  0  0
    4.8102   -0.8530   -1.4775 H   0  0  0  0  0  0  0  0  0  0  0  0
    2.6492   -0.6271    1.7073 H   0  0  0  0  0  0  0  0  0  0  0  0
    4.2528    0.9274    2.7042 H   0  0  0  0  0  0  0  0  0  0  0  0
    3.9626    3.3490    2.4938 H   0  0  0  0  0  0  0  0  0  0  0  0
    2.2417    5.1028    3.1549 H   0  0  0  0  0  0  0  0  0  0  0  0
    0.3814    2.7261    0.1972 H   0  0  0  0  0  0  0  0  0  0  0  0
   -3.2258    1.7277   -0.6520 H   0  0  0  0  0  0  0  0  0  0  0  0
   -5.6544    2.0466   -0.7429 H   0  0  0  0  0  0  0  0  0  0  0  0
  1  2  1  0
  2  3  1  0
  3  4  2  0
  4  5  1  0
  5  6  2  0
  6  7  1  0
  7  8  2  0
  8  9  1  0
  9 10  2  0
 10 11  1  0
 11 12  2  0
 12 13  1  0
 13 14  1  0
 14 15  1  0
 15 16  1  0
 15 17  1  0
 15 18  1  0
 12 19  1  0
 19 20  2  0
 20 21  1  0
 21 22  1  0
 22 23  2  0
 23 24  1  0
 24 25  2  0
 25 26  1  0
 26 27  1  0
 27 28  1  0
 28 29  1  0
 28 30  1  0
 26 31  2  0
 21 32  1  0
 32 33  2  0
  6 34  1  0
 34 35  2  0
 35  3  1  0
 32  7  1  0
 20  9  1  0
 31 22  1  0
  1 36  1  0
  1 37  1  0
  1 38  1  0
  4 39  1  0
  5 40  1  0
 10 41  1  0
 13 42  1  0
 14 43  1  0
 14 44  1  0
 23 45  1  0
 24 46  1  0
 25 47  1  0
 28 48  1  0
 31 49  1  0
 34 50  1  0
 35 51  1  0
M  END
>  <mol_id>  (1) 
34605

>  <source_index>  (1) 
3

>  <layer>  (1) 
L2

>  <uniprot>  (1) 
P31153

>  <paff>  (1) 
6

>  <smiles>  (1) 
COc1ccc(-c2nc3cnc(NCC(F)(F)F)nc3n(-c3cccc(OC(F)F)c3)c2=O)cc1

$$$$
