L2:P31153:34605


 36 39  0  0  0  0  0  0  0  0999 V2000
  -36.4508    5.6166  -46.5843 C   0  0  0  0  0  0  0  0  0  0  0  0
  -37.5996    6.2288  -46.5668 N   0  0  0  0  0  0  0  0  0  0  0  0
  -38.2478    6.3889  -45.3385 C   0  0  0  0  0  0  0  0  0  0  0  0
  -39.4976    6.9689  -45.2871 C   0  0  0  0  0  0  0  0  0  0  0  0
  -40.2254    7.1127  -44.1620 N   0  0  0  0  0  0  0  0  0  0  0  0
  -39.6848    6.6398  -43.0405 C   0  0  0  0  0  0  0  0  0  0  0  0
  -38.4784    6.0669  -42.9802 N   0  0  0  0  0  0  0  0  0  0  0  0
  -37.7535    5.9593  -44.1188 C   0  0  0  0  0  0  0  0  0  0  0  0
  -36.4647    5.3424  -44.1037 N   0  0  0  0  0  0  0  0  0  0  0  0
  -35.7574    5.1552  -45.2974 C   0  0  0  0  0  0  0  0  0  0  0  0
  -34.6159    4.7138  -45.3847 O   0  0  0  0  0  0  0  0  0  0  0  0
  -34.5615    5.0821  -50.4177 C   0  0  0  0  0  0  0  0  0  0  0  0
  -34.2191    6.1552  -49.5963 C   0  0  0  0  0  0  0  0  0  0  0  0
  -34.8382    6.3112  -48.3500 C   0  0  0  0  0  0  0  0  0  0  0  0
  -35.7981    5.3900  -47.9080 C   0  0  0  0  0  0  0  0  0  0  0  0
  -36.1517    4.3253  -48.7400 C   0  0  0  0  0  0  0  0  0  0  0  0
  -35.5299    4.1735  -49.9838 C   0  0  0  0  0  0  0  0  0  0  0  0
  -34.1126    3.4672  -52.1038 C   0  0  0  0  0  0  0  0  0  0  0  0
  -34.0384    4.8134  -51.6517 O   0  0  0  0  0  0  0  0  0  0  0  0
  -35.8980    4.9306  -42.8502 C   0  0  0  0  0  0  0  0  0  0  0  0
  -36.0671    5.6769  -41.6744 C   0  0  0  0  0  0  0  0  0  0  0  0
  -35.4964    5.2629  -40.4675 C   0  0  0  0  0  0  0  0  0  0  0  0
  -34.7312    4.0990  -40.4136 C   0  0  0  0  0  0  0  0  0  0  0  0
  -34.5229    3.3549  -41.5725 C   0  0  0  0  0  0  0  0  0  0  0  0
  -35.1102    3.7699  -42.7749 C   0  0  0  0  0  0  0  0  0  0  0  0
  -33.8037    2.1946  -41.6544 O   0  0  0  0  0  0  0  0  0  0  0  0
  -34.5370    1.0323  -42.0021 C   0  0  0  0  0  0  0  0  0  0  0  0
  -33.7292    0.1842  -42.6858 F   0  0  0  0  0  0  0  0  0  0  0  0
  -34.8685    0.4017  -40.8467 F   0  0  0  0  0  0  0  0  0  0  0  0
  -40.4354    6.7615  -41.9098 N   0  0  0  0  0  0  0  0  0  0  0  0
  -41.2623    7.3372  -41.9890 H   0  0  0  0  0  0  0  0  0  0  0  0
  -40.1504    5.9686  -40.7210 C   0  0  0  0  0  0  0  0  0  0  0  0
  -40.5802    4.5044  -40.8394 C   0  0  0  0  0  0  0  0  0  0  0  0
  -40.7995    3.9638  -39.6191 F   0  0  0  0  0  0  0  0  0  0  0  0
  -41.7234    4.3794  -41.5515 F   0  0  0  0  0  0  0  0  0  0  0  0
  -39.6329    3.7589  -41.4531 F   0  0  0  0  0  0  0  0  0  0  0  0
 18 19  1  0  0  0
 19 12  1  0  0  0
 12 13  2  0  0  0
 13 14  1  0  0  0
 14 15  2  0  0  0
 15  1  1  0  0  0
  1  2  2  0  0  0
  2  3  1  0  0  0
  3  4  2  0  0  0
  4  5  1  0  0  0
  5  6  2  0  0  0
  6 30  1  0  0  0
 30 32  1  0  0  0
 32 33  1  0  0  0
 33 34  1  0  0  0
 33 35  1  0  0  0
 33 36  1  0  0  0
  6  7  1  0  0  0
  7  8  2  0  0  0
  8  9  1  0  0  0
  9 20  1  0  0  0
 20 21  2  0  0  0
 21 22  1  0  0  0
 22 23  2  0  0  0
 23 24  1  0  0  0
 24 26  1  0  0  0
 26 27  1  0  0  0
 27 28  1  0  0  0
 27 29  1  0  0  0
 24 25  2  0  0  0
  9 10  1  0  0  0
 10 11  2  0  0  0
 15 16  1  0  0  0
 16 17  2  0  0  0
 17 12  1  0  0  0
 10  1  1  0  0  0
  8  3  1  0  0  0
 25 20  1  0  0  0
 30 31  1  0  0  0
M  END
> <minimizedAffinity>
-9.19149

$$$$
