L2:P31153:41758
     RDKit          3D

 43 45  0  0  0  0  0  0  0  0999 V2000
   -3.5457    4.6375   -0.4847 C   0  0  0  0  0  0  0  0  0  0  0  0
   -2.7783    3.4367   -0.4137 O   0  0  0  0  0  0  0  0  0  0  0  0
   -3.3147    2.4780    0.3837 C   0  0  0  0  0  0  0  0  0  0  0  0
   -4.4001    2.5494    0.9479 O   0  0  0  0  0  0  0  0  0  0  0  0
   -2.4502    1.2750    0.3889 C   0  0  0  0  0  0  0  0  0  0  0  0
   -3.0283    0.0753    0.1681 C   0  0  0  0  0  0  0  0  0  0  0  0
   -4.3898   -0.1101    0.0286 N   0  0  0  0  0  0  0  0  0  0  0  0
   -2.1502   -1.1264    0.0938 C   0  0  0  0  0  0  0  0  0  0  0  0
   -2.6738   -2.4038   -0.1997 C   0  0  0  0  0  0  0  0  0  0  0  0
   -1.8718   -3.5471   -0.2022 C   0  0  0  0  0  0  0  0  0  0  0  0
   -0.5175   -3.4511    0.1044 C   0  0  0  0  0  0  0  0  0  0  0  0
    0.3652   -4.6747    0.1189 C   0  0  0  0  0  0  0  0  0  0  0  0
    1.3533   -4.6049    1.0537 F   0  0  0  0  0  0  0  0  0  0  0  0
    0.9893   -4.8772   -1.0730 F   0  0  0  0  0  0  0  0  0  0  0  0
   -0.3171   -5.8231    0.3857 F   0  0  0  0  0  0  0  0  0  0  0  0
    0.0216   -2.1803    0.3575 C   0  0  0  0  0  0  0  0  0  0  0  0
   -0.7629   -1.0061    0.3107 C   0  0  0  0  0  0  0  0  0  0  0  0
   -0.2010    0.2923    0.5317 N   0  0  0  0  0  0  0  0  0  0  0  0
    1.2206    0.4469    0.6010 C   0  0  0  0  0  0  0  0  0  0  0  0
    1.8101    1.0776    1.7023 C   0  0  0  0  0  0  0  0  0  0  0  0
    3.1975    1.2488    1.7603 C   0  0  0  0  0  0  0  0  0  0  0  0
    4.0192    0.8146    0.7164 C   0  0  0  0  0  0  0  0  0  0  0  0
    5.3534    1.0433    0.9059 O   0  0  0  0  0  0  0  0  0  0  0  0
    6.2307    0.6492   -0.1424 C   0  0  0  0  0  0  0  0  0  0  0  0
    3.4413    0.2118   -0.3972 C   0  0  0  0  0  0  0  0  0  0  0  0
    2.0570    0.0409   -0.4503 C   0  0  0  0  0  0  0  0  0  0  0  0
    1.5345   -0.5100   -1.5576 F   0  0  0  0  0  0  0  0  0  0  0  0
   -0.9949    1.4337    0.6382 C   0  0  0  0  0  0  0  0  0  0  0  0
   -0.5519    2.5474    0.9265 O   0  0  0  0  0  0  0  0  0  0  0  0
   -3.0019    5.3513   -1.1096 H   0  0  0  0  0  0  0  0  0  0  0  0
   -3.6709    5.0745    0.5110 H   0  0  0  0  0  0  0  0  0  0  0  0
   -4.5181    4.4417   -0.9474 H   0  0  0  0  0  0  0  0  0  0  0  0
   -5.0011    0.6906    0.2042 H   0  0  0  0  0  0  0  0  0  0  0  0
   -4.8116   -1.0175    0.1665 H   0  0  0  0  0  0  0  0  0  0  0  0
   -3.7220   -2.5436   -0.4472 H   0  0  0  0  0  0  0  0  0  0  0  0
   -2.3189   -4.5133   -0.4333 H   0  0  0  0  0  0  0  0  0  0  0  0
    1.0805   -2.1360    0.6046 H   0  0  0  0  0  0  0  0  0  0  0  0
    1.2002    1.4366    2.5282 H   0  0  0  0  0  0  0  0  0  0  0  0
    3.6406    1.7350    2.6273 H   0  0  0  0  0  0  0  0  0  0  0  0
    6.1935   -0.4336   -0.3011 H   0  0  0  0  0  0  0  0  0  0  0  0
    7.2502    0.9068    0.1603 H   0  0  0  0  0  0  0  0  0  0  0  0
    6.0098    1.1925   -1.0670 H   0  0  0  0  0  0  0  0  0  0  0  0
    4.0243   -0.1283   -1.2446 H   0  0  0  0  0  0  0  0  0  0  0  0
  1  2  1  0
  2  3  1  0
  3  4  2  0
  3  5  1  0
  5  6  2  0
  6  7  1  0
  6  8  1  0
  8  9  2  0
  9 10  1  0
 10 11  2  0
 11 12  1  0
 12 13  1  0
 12 14  1  0
 12 15  1  0
 11 16  1  0
 16 17  2  0
 17 18  1  0
 18 19  1  0
 19 20  2  0
 20 21  1  0
 21 22  2  0
 22 23  1  0
 23 24  1  0
 22 25  1  0
 25 26  2  0
 26 27  1  0
 18 28  1  0
 28 29  2  0
 28  5  1  0
 17  8  1  0
 26 19  1  0
  1 30  1  0
  1 31  1  0
  1 32  1  0
  7 33  1  0
  7 34  1  0
  9 35  1  0
 10 36  1  0
 16 37  1  0
 20 38  1  0
 21 39  1  0
 24 40  1  0
 24 41  1  0
 24 42  1  0
 25 43  1  0
M  END
>  <mol_id>  (1) 
41758

>  <source_index>  (1) 
4

>  <layer>  (1) 
L2

>  <uniprot>  (1) 
P31153

>  <paff>  (1) 
8.0022000000000002

>  <smiles>  (1) 
COC(=O)c1c(N)c2ccc(C(F)(F)F)cc2n(-c2ccc(OC)cc2F)c1=O

$$$$
