L2:P31153:41758


 31 33  0  0  0  0  0  0  0  0999 V2000
  -34.4394    0.7074  -51.6516 C   0  0  0  0  0  0  0  0  0  0  0  0
  -33.7747    1.0851  -50.5391 C   0  0  0  0  0  0  0  0  0  0  0  0
  -32.7272    0.3732  -49.9882 N   0  0  0  0  0  0  0  0  0  0  0  0
  -34.2100    2.3314  -49.8478 C   0  0  0  0  0  0  0  0  0  0  0  0
  -33.5226    2.8252  -48.7183 C   0  0  0  0  0  0  0  0  0  0  0  0
  -33.9634    3.9520  -48.0208 C   0  0  0  0  0  0  0  0  0  0  0  0
  -35.1190    4.6151  -48.4236 C   0  0  0  0  0  0  0  0  0  0  0  0
  -35.7870    4.1569  -49.5696 C   0  0  0  0  0  0  0  0  0  0  0  0
  -35.3253    3.0521  -50.3197 C   0  0  0  0  0  0  0  0  0  0  0  0
  -35.9882    2.6117  -51.5101 N   0  0  0  0  0  0  0  0  0  0  0  0
  -35.6281    1.4344  -52.1650 C   0  0  0  0  0  0  0  0  0  0  0  0
  -36.2417    0.9774  -53.1316 O   0  0  0  0  0  0  0  0  0  0  0  0
  -32.5106   -0.5431  -50.3872 H   0  0  0  0  0  0  0  0  0  0  0  0
  -32.4560    0.5025  -49.0238 H   0  0  0  0  0  0  0  0  0  0  0  0
  -37.0230    3.4172  -52.0844 C   0  0  0  0  0  0  0  0  0  0  0  0
  -36.7042    4.4454  -52.9785 C   0  0  0  0  0  0  0  0  0  0  0  0
  -37.7132    5.2473  -53.5230 C   0  0  0  0  0  0  0  0  0  0  0  0
  -39.0523    5.0539  -53.1726 C   0  0  0  0  0  0  0  0  0  0  0  0
  -39.3783    4.0529  -52.2620 C   0  0  0  0  0  0  0  0  0  0  0  0
  -38.3691    3.2536  -51.7227 C   0  0  0  0  0  0  0  0  0  0  0  0
  -38.7196    2.3244  -50.8192 F   0  0  0  0  0  0  0  0  0  0  0  0
  -39.9313    5.9059  -53.7806 O   0  0  0  0  0  0  0  0  0  0  0  0
  -40.5996    6.8458  -52.9476 C   0  0  0  0  0  0  0  0  0  0  0  0
  -35.6198    5.8275  -47.6780 C   0  0  0  0  0  0  0  0  0  0  0  0
  -34.9765    6.9735  -48.0359 F   0  0  0  0  0  0  0  0  0  0  0  0
  -35.4587    5.7109  -46.3321 F   0  0  0  0  0  0  0  0  0  0  0  0
  -36.9455    6.0685  -47.8783 F   0  0  0  0  0  0  0  0  0  0  0  0
  -33.9559   -0.4874  -52.3819 C   0  0  0  0  0  0  0  0  0  0  0  0
  -33.3051   -0.4446  -53.4193 O   0  0  0  0  0  0  0  0  0  0  0  0
  -35.0049   -2.5536  -52.6997 C   0  0  0  0  0  0  0  0  0  0  0  0
  -34.4240   -1.6174  -51.7932 O   0  0  0  0  0  0  0  0  0  0  0  0
 30 31  1  0  0  0
 31 28  1  0  0  0
 28 29  2  0  0  0
 28  1  1  0  0  0
  1  2  2  0  0  0
  2  3  1  0  0  0
  2  4  1  0  0  0
  4  5  2  0  0  0
  5  6  1  0  0  0
  6  7  2  0  0  0
  7 24  1  0  0  0
 24 25  1  0  0  0
 24 26  1  0  0  0
 24 27  1  0  0  0
  7  8  1  0  0  0
  8  9  2  0  0  0
  9 10  1  0  0  0
 10 15  1  0  0  0
 15 16  2  0  0  0
 16 17  1  0  0  0
 17 18  2  0  0  0
 18 22  1  0  0  0
 22 23  1  0  0  0
 18 19  1  0  0  0
 19 20  2  0  0  0
 20 21  1  0  0  0
 10 11  1  0  0  0
 11 12  2  0  0  0
 11  1  1  0  0  0
  9  4  1  0  0  0
 20 15  1  0  0  0
  3 13  1  0  0  0
  3 14  1  0  0  0
M  END
> <minimizedAffinity>
-6.65069

$$$$
