L2:P31153:87187
     RDKit          3D

 46 48  0  0  0  0  0  0  0  0999 V2000
   -3.8462    4.6223    0.5619 C   0  0  0  0  0  0  0  0  0  0  0  0
   -3.0975    3.4102    0.6428 O   0  0  0  0  0  0  0  0  0  0  0  0
   -3.5812    2.4044   -0.1305 C   0  0  0  0  0  0  0  0  0  0  0  0
   -4.6145    2.4472   -0.7876 O   0  0  0  0  0  0  0  0  0  0  0  0
   -2.7381    1.1962    0.0228 C   0  0  0  0  0  0  0  0  0  0  0  0
   -3.3518    0.0149    0.2439 C   0  0  0  0  0  0  0  0  0  0  0  0
   -4.7210   -0.1641    0.2393 N   0  0  0  0  0  0  0  0  0  0  0  0
   -2.5016   -1.1704    0.5366 C   0  0  0  0  0  0  0  0  0  0  0  0
   -3.0668   -2.3764    1.0048 C   0  0  0  0  0  0  0  0  0  0  0  0
   -2.2783   -3.4795    1.3380 C   0  0  0  0  0  0  0  0  0  0  0  0
   -0.8918   -3.4019    1.2401 C   0  0  0  0  0  0  0  0  0  0  0  0
   -0.0137   -4.5597    1.6468 C   0  0  0  0  0  0  0  0  0  0  0  0
    0.4834   -4.4145    2.9048 F   0  0  0  0  0  0  0  0  0  0  0  0
    1.0658   -4.7126    0.8305 F   0  0  0  0  0  0  0  0  0  0  0  0
   -0.6622   -5.7571    1.6334 F   0  0  0  0  0  0  0  0  0  0  0  0
   -0.3188   -2.1966    0.8047 C   0  0  0  0  0  0  0  0  0  0  0  0
   -1.1013   -1.0853    0.4178 C   0  0  0  0  0  0  0  0  0  0  0  0
   -0.5089    0.1502   -0.0006 N   0  0  0  0  0  0  0  0  0  0  0  0
    0.8858    0.1895   -0.3280 C   0  0  0  0  0  0  0  0  0  0  0  0
    1.7152    1.1833    0.2052 C   0  0  0  0  0  0  0  0  0  0  0  0
    3.0724    1.2365   -0.1279 C   0  0  0  0  0  0  0  0  0  0  0  0
    3.6306    0.3066   -1.0164 C   0  0  0  0  0  0  0  0  0  0  0  0
    5.0966    0.3654   -1.3879 C   0  0  1  0  0  0  0  0  0  0  0  0
    5.4426    1.5940   -2.2182 C   0  0  0  0  0  0  0  0  0  0  0  0
    5.9015    0.3647   -0.2100 O   0  0  0  0  0  0  0  0  0  0  0  0
    2.7974   -0.6720   -1.5723 C   0  0  0  0  0  0  0  0  0  0  0  0
    1.4400   -0.7250   -1.2375 C   0  0  0  0  0  0  0  0  0  0  0  0
   -1.2651    1.3180   -0.1384 C   0  0  0  0  0  0  0  0  0  0  0  0
   -0.7915    2.4068   -0.4703 O   0  0  0  0  0  0  0  0  0  0  0  0
   -3.8790    4.9873   -0.4695 H   0  0  0  0  0  0  0  0  0  0  0  0
   -4.8574    4.4725    0.9527 H   0  0  0  0  0  0  0  0  0  0  0  0
   -3.3440    5.3730    1.1784 H   0  0  0  0  0  0  0  0  0  0  0  0
   -5.3014    0.6250   -0.0560 H   0  0  0  0  0  0  0  0  0  0  0  0
   -5.1186   -1.0803    0.0808 H   0  0  0  0  0  0  0  0  0  0  0  0
   -4.1384   -2.4752    1.1569 H   0  0  0  0  0  0  0  0  0  0  0  0
   -2.7572   -4.3888    1.6999 H   0  0  0  0  0  0  0  0  0  0  0  0
    0.7687   -2.1380    0.8109 H   0  0  0  0  0  0  0  0  0  0  0  0
    1.3173    1.9256    0.8940 H   0  0  0  0  0  0  0  0  0  0  0  0
    3.6933    2.0183    0.3071 H   0  0  0  0  0  0  0  0  0  0  0  0
    5.3714   -0.5326   -1.9530 H   0  0  0  0  0  0  0  0  0  0  0  0
    6.5047    1.5834   -2.4866 H   0  0  0  0  0  0  0  0  0  0  0  0
    4.8504    1.6355   -3.1381 H   0  0  0  0  0  0  0  0  0  0  0  0
    5.2740    2.5198   -1.6567 H   0  0  0  0  0  0  0  0  0  0  0  0
    5.4281   -0.1547    0.4623 H   0  0  0  0  0  0  0  0  0  0  0  0
    3.1930   -1.3941   -2.2839 H   0  0  0  0  0  0  0  0  0  0  0  0
    0.8142   -1.4718   -1.7211 H   0  0  0  0  0  0  0  0  0  0  0  0
  1  2  1  0
  2  3  1  0
  3  4  2  0
  3  5  1  0
  5  6  2  0
  6  7  1  0
  6  8  1  0
  8  9  2  0
  9 10  1  0
 10 11  2  0
 11 12  1  0
 12 13  1  0
 12 14  1  0
 12 15  1  0
 11 16  1  0
 16 17  2  0
 17 18  1  0
 18 19  1  0
 19 20  2  0
 20 21  1  0
 21 22  2  0
 22 23  1  0
 23 24  1  0
 23 25  1  0
 22 26  1  0
 26 27  2  0
 18 28  1  0
 28 29  2  0
 28  5  1  0
 17  8  1  0
 27 19  1  0
  1 30  1  0
  1 31  1  0
  1 32  1  0
  7 33  1  0
  7 34  1  0
  9 35  1  0
 10 36  1  0
 16 37  1  0
 20 38  1  0
 21 39  1  0
 23 40  1  6
 24 41  1  0
 24 42  1  0
 24 43  1  0
 25 44  1  0
 26 45  1  0
 27 46  1  0
M  END
>  <mol_id>  (1) 
87187

>  <source_index>  (1) 
5

>  <layer>  (1) 
L2

>  <uniprot>  (1) 
P31153

>  <paff>  (1) 
9.1079000000000008

>  <smiles>  (1) 
COC(=O)c1c(N)c2ccc(C(F)(F)F)cc2n(-c2ccc([C@@H](C)O)cc2)c1=O

$$$$
