L2:P31153:87187
 OpenBabel09212617453D

 46 48  0  0  0  0  0  0  0  0999 V2000
  -36.6088    6.0951  -46.2966 C   0  0  0  0  0  0  0  0  0  0  0  0
  -37.9088    6.4258  -46.1491 C   0  0  0  0  0  0  0  0  0  0  0  0
  -38.7097    6.9082  -47.1653 N   0  0  0  0  0  0  0  0  0  0  0  0
  -38.5166    6.2862  -44.7983 C   0  0  0  0  0  0  0  0  0  0  0  0
  -39.7890    6.8260  -44.5111 C   0  0  0  0  0  0  0  0  0  0  0  0
  -40.3494    6.7534  -43.2343 C   0  0  0  0  0  0  0  0  0  0  0  0
  -39.6402    6.1612  -42.1930 C   0  0  0  0  0  0  0  0  0  0  0  0
  -38.3612    5.6489  -42.4618 C   0  0  0  0  0  0  0  0  0  0  0  0
  -37.7965    5.6702  -43.7571 C   0  0  0  0  0  0  0  0  0  0  0  0
  -36.4801    5.1690  -44.0185 N   0  0  0  0  0  0  0  0  0  0  0  0
  -35.8270    5.4162  -45.2297 C   0  0  0  0  0  0  0  0  0  0  0  0
  -34.6857    5.0264  -45.4857 O   0  0  0  0  0  0  0  0  0  0  0  0
  -38.3225    6.9133  -48.1123 H   0  0  0  0  0  0  0  0  0  0  0  0
  -39.7162    6.8302  -47.1069 H   0  0  0  0  0  0  0  0  0  0  0  0
  -35.8250    4.3579  -43.0352 C   0  0  0  0  0  0  0  0  0  0  0  0
  -34.4439    4.4613  -42.8314 C   0  0  0  0  0  0  0  0  0  0  0  0
  -33.7983    3.6572  -41.8867 C   0  0  0  0  0  0  0  0  0  0  0  0
  -34.5159    2.7170  -41.1338 C   0  0  0  0  0  0  0  0  0  0  0  0
  -35.8931    2.5925  -41.3548 C   0  0  0  0  0  0  0  0  0  0  0  0
  -36.5381    3.3983  -42.2994 C   0  0  0  0  0  0  0  0  0  0  0  0
  -33.8209    1.8375  -40.1170 C   0  0  1  0  0  0  0  0  0  0  0  0
  -34.7910    0.9528  -39.3458 C   0  0  0  0  0  0  0  0  0  0  0  0
  -32.8566    1.0083  -40.7634 O   0  0  0  0  0  0  0  0  0  0  0  0
  -32.5139    1.5052  -41.5259 H   0  0  0  0  0  0  0  0  0  0  0  0
  -40.1986    6.1193  -40.7918 C   0  0  0  0  0  0  0  0  0  0  0  0
  -41.4026    5.4886  -40.7338 F   0  0  0  0  0  0  0  0  0  0  0  0
  -40.3981    7.3608  -40.2683 F   0  0  0  0  0  0  0  0  0  0  0  0
  -39.3897    5.4697  -39.9097 F   0  0  0  0  0  0  0  0  0  0  0  0
  -35.9628    6.3632  -47.6023 C   0  0  0  0  0  0  0  0  0  0  0  0
  -35.3660    7.3970  -47.8787 O   0  0  0  0  0  0  0  0  0  0  0  0
  -34.8093    4.9028  -49.0184 C   0  0  0  0  0  0  0  0  0  0  0  0
  -36.0410    5.2632  -48.3945 O   0  0  0  0  0  0  0  0  0  0  0  0
  -40.3200    7.2873  -45.2662 H   0  0  0  0  0  0  0  0  0  0  0  0
  -41.2909    7.1394  -43.0622 H   0  0  0  0  0  0  0  0  0  0  0  0
  -37.8143    5.2426  -41.6866 H   0  0  0  0  0  0  0  0  0  0  0  0
  -33.8959    5.1386  -43.3846 H   0  0  0  0  0  0  0  0  0  0  0  0
  -32.7814    3.7571  -41.7420 H   0  0  0  0  0  0  0  0  0  0  0  0
  -36.4370    1.9003  -40.8162 H   0  0  0  0  0  0  0  0  0  0  0  0
  -37.5517    3.2857  -42.4573 H   0  0  0  0  0  0  0  0  0  0  0  0
  -33.3459    2.4940  -39.4182 H   0  0  0  0  0  0  0  0  0  0  0  0
  -35.2805    0.2850  -40.0235 H   0  0  0  0  0  0  0  0  0  0  0  0
  -35.5210    1.5645  -38.8582 H   0  0  0  0  0  0  0  0  0  0  0  0
  -34.2532    0.3872  -38.6138 H   0  0  0  0  0  0  0  0  0  0  0  0
  -34.9565    4.0312  -49.6214 H   0  0  0  0  0  0  0  0  0  0  0  0
  -34.0758    4.6970  -48.2671 H   0  0  0  0  0  0  0  0  0  0  0  0
  -34.4720    5.7100  -49.6345 H   0  0  0  0  0  0  0  0  0  0  0  0
  1  2  2  0  0  0  0
  2  3  1  0  0  0  0
  2  4  1  0  0  0  0
  3 13  1  0  0  0  0
  3 14  1  0  0  0  0
  4  5  2  0  0  0  0
  5  6  1  0  0  0  0
  5 33  1  0  0  0  0
  6  7  2  0  0  0  0
  6 34  1  0  0  0  0
  7 25  1  0  0  0  0
  7  8  1  0  0  0  0
  8  9  2  0  0  0  0
  8 35  1  0  0  0  0
  9 10  1  0  0  0  0
  9  4  1  0  0  0  0
 10 15  1  0  0  0  0
 10 11  1  0  0  0  0
 11 12  2  0  0  0  0
 11  1  1  0  0  0  0
 15 16  2  0  0  0  0
 16 17  1  0  0  0  0
 16 36  1  0  0  0  0
 17 18  2  0  0  0  0
 17 37  1  0  0  0  0
 18 21  1  0  0  0  0
 18 19  1  0  0  0  0
 19 20  2  0  0  0  0
 19 38  1  0  0  0  0
 20 15  1  0  0  0  0
 20 39  1  0  0  0  0
 21 22  1  0  0  0  0
 21 23  1  0  0  0  0
 21 40  1  1  0  0  0
 22 41  1  0  0  0  0
 22 42  1  0  0  0  0
 22 43  1  0  0  0  0
 23 24  1  0  0  0  0
 25 26  1  0  0  0  0
 25 27  1  0  0  0  0
 25 28  1  0  0  0  0
 29 30  2  0  0  0  0
 29  1  1  0  0  0  0
 31 32  1  0  0  0  0
 31 44  1  0  0  0  0
 31 45  1  0  0  0  0
 31 46  1  0  0  0  0
 32 29  1  0  0  0  0
M  END
>  <minimizedAffinity>
-10.35707

$$$$
