L2:P31153:92789
     RDKit          3D

 52 56  0  0  0  0  0  0  0  0999 V2000
    1.5495   -1.3098   -0.3995 O   0  0  0  0  0  0  0  0  0  0  0  0
    1.0455   -0.2447   -0.0567 C   0  0  0  0  0  0  0  0  0  0  0  0
    1.9837    0.9173    0.2907 C   0  0  0  0  0  0  0  0  0  0  0  0
    3.4625    0.7082    0.2915 C   0  0  0  0  0  0  0  0  0  0  0  0
    4.2892    1.7763   -0.1251 C   0  0  0  0  0  0  0  0  0  0  0  0
    5.6814    1.6504   -0.1187 C   0  0  0  0  0  0  0  0  0  0  0  0
    6.2169    0.4537    0.3056 C   0  0  0  0  0  0  0  0  0  0  0  0
    5.4197   -0.5958    0.7336 C   0  0  0  0  0  0  0  0  0  0  0  0
    4.0385   -0.4864    0.7472 C   0  0  0  0  0  0  0  0  0  0  0  0
    6.2838   -1.7038    1.1988 C   0  0  0  0  0  0  0  0  0  0  0  0
    7.6123   -1.2409    0.5986 C   0  0  0  0  0  0  0  0  0  0  0  0
    7.5592    0.1883    0.3742 O   0  0  0  0  0  0  0  0  0  0  0  0
    1.5350    2.1068    0.5691 N   0  0  0  0  0  0  0  0  0  0  0  0
    0.1515    2.2998    0.6205 C   0  0  0  0  0  0  0  0  0  0  0  0
   -0.3613    3.5211    1.0029 C   0  0  0  0  0  0  0  0  0  0  0  0
   -1.6751    3.7851    1.1451 N   0  0  0  0  0  0  0  0  0  0  0  0
   -2.5134    2.7795    0.9008 C   0  0  0  0  0  0  0  0  0  0  0  0
   -3.8388    3.0452    1.0948 N   0  0  0  0  0  0  0  0  0  0  0  0
   -4.8735    2.1337    0.6239 C   0  0  0  0  0  0  0  0  0  0  0  0
   -5.2166    2.2740   -0.8641 C   0  0  0  0  0  0  0  0  0  0  0  0
   -5.6842    3.5153   -1.1393 F   0  0  0  0  0  0  0  0  0  0  0  0
   -6.1878    1.3958   -1.2122 F   0  0  0  0  0  0  0  0  0  0  0  0
   -4.1619    2.0456   -1.6752 F   0  0  0  0  0  0  0  0  0  0  0  0
   -2.1224    1.5632    0.5069 N   0  0  0  0  0  0  0  0  0  0  0  0
   -0.7964    1.3258    0.3564 C   0  0  0  0  0  0  0  0  0  0  0  0
   -0.3267    0.0277   -0.0161 N   0  0  0  0  0  0  0  0  0  0  0  0
   -1.2809   -0.9916   -0.3425 C   0  0  0  0  0  0  0  0  0  0  0  0
   -1.0931   -2.3109    0.0908 C   0  0  0  0  0  0  0  0  0  0  0  0
   -2.0174   -3.3132   -0.2272 C   0  0  0  0  0  0  0  0  0  0  0  0
   -3.1410   -3.0296   -1.0035 C   0  0  0  0  0  0  0  0  0  0  0  0
   -3.9612   -4.0963   -1.2351 O   0  0  0  0  0  0  0  0  0  0  0  0
   -4.9601   -3.9264   -2.2259 C   0  0  0  0  0  0  0  0  0  0  0  0
   -5.9263   -3.1029   -1.7494 F   0  0  0  0  0  0  0  0  0  0  0  0
   -5.5449   -5.1356   -2.4220 F   0  0  0  0  0  0  0  0  0  0  0  0
   -3.3358   -1.7269   -1.4543 C   0  0  0  0  0  0  0  0  0  0  0  0
   -2.4090   -0.7249   -1.1328 C   0  0  0  0  0  0  0  0  0  0  0  0
    3.8474    2.7141   -0.4566 H   0  0  0  0  0  0  0  0  0  0  0  0
    6.3219    2.4654   -0.4370 H   0  0  0  0  0  0  0  0  0  0  0  0
    3.4371   -1.3103    1.1174 H   0  0  0  0  0  0  0  0  0  0  0  0
    6.3275   -1.7166    2.2925 H   0  0  0  0  0  0  0  0  0  0  0  0
    5.9867   -2.6859    0.8225 H   0  0  0  0  0  0  0  0  0  0  0  0
    7.7982   -1.7239   -0.3694 H   0  0  0  0  0  0  0  0  0  0  0  0
    8.4548   -1.4726    1.2585 H   0  0  0  0  0  0  0  0  0  0  0  0
    0.3033    4.3497    1.2311 H   0  0  0  0  0  0  0  0  0  0  0  0
   -4.0472    4.0098    1.3108 H   0  0  0  0  0  0  0  0  0  0  0  0
   -4.6158    1.0926    0.8513 H   0  0  0  0  0  0  0  0  0  0  0  0
   -5.7837    2.3474    1.1961 H   0  0  0  0  0  0  0  0  0  0  0  0
   -0.2393   -2.5822    0.7070 H   0  0  0  0  0  0  0  0  0  0  0  0
   -1.8520   -4.3251    0.1366 H   0  0  0  0  0  0  0  0  0  0  0  0
   -4.5701   -3.5630   -3.1830 H   0  0  0  0  0  0  0  0  0  0  0  0
   -4.1972   -1.4405   -2.0506 H   0  0  0  0  0  0  0  0  0  0  0  0
   -2.5726    0.2681   -1.5438 H   0  0  0  0  0  0  0  0  0  0  0  0
  1  2  2  0
  2  3  1  0
  3  4  1  0
  4  5  2  0
  5  6  1  0
  6  7  2  0
  7  8  1  0
  8  9  2  0
  8 10  1  0
 10 11  1  0
 11 12  1  0
  3 13  2  0
 13 14  1  0
 14 15  2  0
 15 16  1  0
 16 17  2  0
 17 18  1  0
 18 19  1  0
 19 20  1  0
 20 21  1  0
 20 22  1  0
 20 23  1  0
 17 24  1  0
 24 25  2  0
 25 26  1  0
 26 27  1  0
 27 28  2  0
 28 29  1  0
 29 30  2  0
 30 31  1  0
 31 32  1  0
 32 33  1  0
 32 34  1  0
 30 35  1  0
 35 36  2  0
 26  2  1  0
 36 27  1  0
  9  4  1  0
 25 14  1  0
 12  7  1  0
  5 37  1  0
  6 38  1  0
  9 39  1  0
 10 40  1  0
 10 41  1  0
 11 42  1  0
 11 43  1  0
 15 44  1  0
 18 45  1  0
 19 46  1  0
 19 47  1  0
 28 48  1  0
 29 49  1  0
 32 50  1  0
 35 51  1  0
 36 52  1  0
M  END
>  <mol_id>  (1) 
92789

>  <source_index>  (1) 
6

>  <layer>  (1) 
L2

>  <uniprot>  (1) 
P31153

>  <paff>  (1) 
7.0506000000000002

>  <smiles>  (1) 
O=c1c(-c2ccc3c(c2)CCO3)nc2cnc(NCC(F)(F)F)nc2n1-c1ccc(OC(F)F)cc1

$$$$
