L2:P31153:92789
 OpenBabel09212617453D

 52 56  0  0  0  0  0  0  0  0999 V2000
  -36.3640    0.0229  -51.6556 O   0  0  0  0  0  0  0  0  0  0  0  0
  -35.7438    0.8071  -50.9440 C   0  0  0  0  0  0  0  0  0  0  0  0
  -34.6033    0.2510  -50.0830 C   0  0  0  0  0  0  0  0  0  0  0  0
  -33.8329    1.0249  -49.3749 N   0  0  0  0  0  0  0  0  0  0  0  0
  -34.1095    2.3949  -49.3502 C   0  0  0  0  0  0  0  0  0  0  0  0
  -33.3742    3.2329  -48.5392 C   0  0  0  0  0  0  0  0  0  0  0  0
  -33.6059    4.5529  -48.3976 N   0  0  0  0  0  0  0  0  0  0  0  0
  -34.6242    5.0556  -49.0934 C   0  0  0  0  0  0  0  0  0  0  0  0
  -35.3875    4.3355  -49.9217 N   0  0  0  0  0  0  0  0  0  0  0  0
  -35.1258    3.0127  -50.0590 C   0  0  0  0  0  0  0  0  0  0  0  0
  -35.9443    2.1914  -50.8957 N   0  0  0  0  0  0  0  0  0  0  0  0
  -34.3331   -1.2176  -50.0600 C   0  0  0  0  0  0  0  0  0  0  0  0
  -34.5115   -1.9114  -48.8415 C   0  0  0  0  0  0  0  0  0  0  0  0
  -34.3019   -3.2914  -48.7645 C   0  0  0  0  0  0  0  0  0  0  0  0
  -33.9164   -3.9483  -49.9129 C   0  0  0  0  0  0  0  0  0  0  0  0
  -33.7548   -3.2844  -51.1185 C   0  0  0  0  0  0  0  0  0  0  0  0
  -33.9703   -1.9194  -51.2186 C   0  0  0  0  0  0  0  0  0  0  0  0
  -33.4191   -4.2673  -52.1730 C   0  0  0  0  0  0  0  0  0  0  0  0
  -33.0531   -5.4574  -51.2847 C   0  0  0  0  0  0  0  0  0  0  0  0
  -33.6839   -5.2961  -49.9917 O   0  0  0  0  0  0  0  0  0  0  0  0
  -36.9758    2.8051  -51.6801 C   0  0  0  0  0  0  0  0  0  0  0  0
  -38.2625    2.9829  -51.1547 C   0  0  0  0  0  0  0  0  0  0  0  0
  -39.2767    3.5770  -51.9153 C   0  0  0  0  0  0  0  0  0  0  0  0
  -39.0391    3.9891  -53.2264 C   0  0  0  0  0  0  0  0  0  0  0  0
  -37.7700    3.8072  -53.7692 C   0  0  0  0  0  0  0  0  0  0  0  0
  -36.7559    3.2132  -53.0043 C   0  0  0  0  0  0  0  0  0  0  0  0
  -40.1123    4.5557  -53.8521 O   0  0  0  0  0  0  0  0  0  0  0  0
  -41.3299    4.5806  -53.1275 C   0  0  0  0  0  0  0  0  0  0  0  0
  -42.3276    4.1067  -53.9142 F   0  0  0  0  0  0  0  0  0  0  0  0
  -41.6228    5.8815  -52.8735 F   0  0  0  0  0  0  0  0  0  0  0  0
  -34.8793    6.3839  -48.9050 N   0  0  0  0  0  0  0  0  0  0  0  0
  -35.0784    6.8982  -49.7514 H   0  0  0  0  0  0  0  0  0  0  0  0
  -35.2438    6.9095  -47.5957 C   0  0  0  0  0  0  0  0  0  0  0  0
  -36.3897    6.1601  -46.9052 C   0  0  0  0  0  0  0  0  0  0  0  0
  -35.9174    5.1335  -46.1581 F   0  0  0  0  0  0  0  0  0  0  0  0
  -37.2321    5.6299  -47.8243 F   0  0  0  0  0  0  0  0  0  0  0  0
  -37.1272    6.9492  -46.0954 F   0  0  0  0  0  0  0  0  0  0  0  0
  -32.5934    2.8215  -48.0043 H   0  0  0  0  0  0  0  0  0  0  0  0
  -34.8003   -1.3924  -47.9976 H   0  0  0  0  0  0  0  0  0  0  0  0
  -34.4316   -3.8014  -47.8768 H   0  0  0  0  0  0  0  0  0  0  0  0
  -33.8665   -1.4319  -52.1222 H   0  0  0  0  0  0  0  0  0  0  0  0
  -32.5934   -3.9457  -52.7728 H   0  0  0  0  0  0  0  0  0  0  0  0
  -34.1894   -4.4505  -52.8927 H   0  0  0  0  0  0  0  0  0  0  0  0
  -31.9910   -5.4997  -51.1623 H   0  0  0  0  0  0  0  0  0  0  0  0
  -33.3920   -6.3644  -51.7401 H   0  0  0  0  0  0  0  0  0  0  0  0
  -38.4657    2.6711  -50.1922 H   0  0  0  0  0  0  0  0  0  0  0  0
  -40.2120    3.7117  -51.5005 H   0  0  0  0  0  0  0  0  0  0  0  0
  -37.5752    4.1101  -54.7363 H   0  0  0  0  0  0  0  0  0  0  0  0
  -35.8245    3.0727  -53.4260 H   0  0  0  0  0  0  0  0  0  0  0  0
  -41.2388    3.9972  -52.2352 H   0  0  0  0  0  0  0  0  0  0  0  0
  -35.5375    7.9314  -47.7159 H   0  0  0  0  0  0  0  0  0  0  0  0
  -34.3834    6.7917  -46.9706 H   0  0  0  0  0  0  0  0  0  0  0  0
  1  2  2  0  0  0  0
  2  3  1  0  0  0  0
  3 12  1  0  0  0  0
  3  4  2  0  0  0  0
  4  5  1  0  0  0  0
  5  6  2  0  0  0  0
  6  7  1  0  0  0  0
  6 38  1  0  0  0  0
  7  8  2  0  0  0  0
  8 31  1  0  0  0  0
  8  9  1  0  0  0  0
  9 10  2  0  0  0  0
 10 11  1  0  0  0  0
 10  5  1  0  0  0  0
 11 21  1  0  0  0  0
 11  2  1  0  0  0  0
 12 13  2  0  0  0  0
 13 14  1  0  0  0  0
 13 39  1  0  0  0  0
 14 15  2  0  0  0  0
 14 40  1  0  0  0  0
 15 16  1  0  0  0  0
 16 17  2  0  0  0  0
 16 18  1  0  0  0  0
 17 12  1  0  0  0  0
 17 41  1  0  0  0  0
 18 19  1  0  0  0  0
 18 42  1  0  0  0  0
 18 43  1  0  0  0  0
 19 20  1  0  0  0  0
 19 44  1  0  0  0  0
 19 45  1  0  0  0  0
 20 15  1  0  0  0  0
 21 22  2  0  0  0  0
 22 23  1  0  0  0  0
 22 46  1  0  0  0  0
 23 24  2  0  0  0  0
 23 47  1  0  0  0  0
 24 27  1  0  0  0  0
 24 25  1  0  0  0  0
 25 26  2  0  0  0  0
 25 48  1  0  0  0  0
 26 21  1  0  0  0  0
 26 49  1  0  0  0  0
 27 28  1  0  0  0  0
 28 29  1  0  0  0  0
 28 30  1  0  0  0  0
 28 50  1  0  0  0  0
 31 33  1  0  0  0  0
 31 32  1  0  0  0  0
 33 34  1  0  0  0  0
 33 51  1  0  0  0  0
 33 52  1  0  0  0  0
 34 35  1  0  0  0  0
 34 36  1  0  0  0  0
 34 37  1  0  0  0  0
M  END
>  <minimizedAffinity>
-8.81308

$$$$
