L4:P42226:11604
     RDKit          3D

 90 95  0  0  0  0  0  0  0  0999 V2000
    4.1002  -44.5067  -21.0375 C   0  0  1  0  0  0  0  0  0  0  0  0
    2.6432  -44.4236  -20.5907 C   0  0  0  0  0  0  0  0  0  0  0  0
    2.0901  -43.3641  -20.3213 O   0  0  0  0  0  0  0  0  0  0  0  0
    1.9790  -45.6154  -20.4794 N   0  0  0  0  0  0  0  0  0  0  0  0
    0.5775  -45.6445  -20.0716 C   0  0  0  0  0  0  0  0  0  0  0  0
    0.4003  -46.9810  -19.3446 C   0  0  0  0  0  0  0  0  0  0  0  0
    1.8165  -47.5268  -19.1640 C   0  0  0  0  0  0  0  0  0  0  0  0
    2.5677  -46.9366  -20.3720 C   0  0  1  0  0  0  0  0  0  0  0  0
    2.2708  -47.7913  -21.6148 C   0  0  0  0  0  0  0  0  0  0  0  0
    1.2584  -47.5675  -22.2789 O   0  0  0  0  0  0  0  0  0  0  0  0
    3.1224  -48.8112  -21.8704 N   0  0  0  0  0  0  0  0  0  0  0  0
    4.2780  -49.1931  -21.0580 C   0  0  0  0  0  0  0  0  0  0  0  0
    4.7119  -50.6097  -21.3916 C   0  0  0  0  0  0  0  0  0  0  0  0
    3.5874  -51.4619  -21.4840 O   0  0  0  0  0  0  0  0  0  0  0  0
    2.7771  -51.1229  -22.6236 C   0  0  1  0  0  0  0  0  0  0  0  0
    2.9136  -49.6577  -23.0395 C   0  0  0  0  0  0  0  0  0  0  0  0
    3.0610  -52.0842  -23.7480 C   0  0  0  0  0  0  0  0  0  0  0  0
    3.1130  -51.6751  -25.0757 C   0  0  0  0  0  0  0  0  0  0  0  0
    3.4171  -52.5847  -26.0814 C   0  0  0  0  0  0  0  0  0  0  0  0
    3.5644  -53.9299  -25.7866 C   0  0  0  0  0  0  0  0  0  0  0  0
    3.4661  -54.3564  -24.4686 C   0  0  0  0  0  0  0  0  0  0  0  0
    3.2353  -53.4357  -23.4600 C   0  0  0  0  0  0  0  0  0  0  0  0
    4.1992  -45.2651  -22.2750 N   0  0  0  0  0  0  0  0  0  0  0  0
    5.2090  -46.1569  -22.4331 C   0  0  0  0  0  0  0  0  0  0  0  0
    5.9806  -46.4704  -21.5172 O   0  0  0  0  0  0  0  0  0  0  0  0
    3.8289  -44.8134  -23.0970 H   0  0  0  0  0  0  0  0  0  0  0  0
    5.3259  -46.7879  -23.7513 C   0  0  0  0  0  0  0  0  0  0  0  0
    4.4722  -46.8332  -24.8139 C   0  0  0  0  0  0  0  0  0  0  0  0
    4.8933  -47.7197  -25.8481 C   0  0  0  0  0  0  0  0  0  0  0  0
    4.2357  -48.0628  -27.0351 C   0  0  0  0  0  0  0  0  0  0  0  0
    4.7728  -49.0339  -27.8609 C   0  0  0  0  0  0  0  0  0  0  0  0
    5.9861  -49.6481  -27.5100 C   0  0  0  0  0  0  0  0  0  0  0  0
    6.6696  -49.3128  -26.3614 C   0  0  0  0  0  0  0  0  0  0  0  0
    6.1150  -48.3549  -25.5234 C   0  0  0  0  0  0  0  0  0  0  0  0
    6.7291  -47.8211  -23.9794 S   0  0  0  0  0  0  0  0  0  0  0  0
    4.0847  -49.4599  -29.1308 C   0  0  0  0  0  0  0  0  0  0  0  0
    4.4863  -50.7345  -29.4625 F   0  0  0  0  0  0  0  0  0  0  0  0
    4.4767  -48.6489  -30.1785 F   0  0  0  0  0  0  0  0  0  0  0  0
    2.1978  -49.4576  -29.0602 P   0  0  0  0  0  0  0  0  0  0  0  0
    1.7776  -48.0154  -28.9093 O   0  0  0  0  0  0  0  0  0  0  0  0
    1.9869  -50.2857  -27.6603 O   0  0  0  0  0  0  0  0  0  0  0  0
    1.6638  -50.3243  -30.1818 O   0  0  0  0  0  0  0  0  0  0  0  0
    1.5508  -49.7532  -26.9648 H   0  0  0  0  0  0  0  0  0  0  0  0
    1.1472  -51.6470  -29.9884 H   0  0  0  0  0  0  0  0  0  0  0  0
    4.7698  -43.1395  -21.1794 C   0  0  0  0  0  0  0  0  0  0  0  0
    6.7439  -40.5944  -16.4943 C   0  0  0  0  0  0  0  0  0  0  0  0
    6.2835  -41.2484  -17.6941 N   0  0  0  0  0  0  0  0  0  0  0  0
    5.9366  -42.6396  -17.4350 C   0  0  0  0  0  0  0  0  0  0  0  0
    5.2416  -43.3208  -18.6189 C   0  0  0  0  0  0  0  0  0  0  0  0
    5.4114  -42.5307  -19.9125 C   0  0  0  0  0  0  0  0  0  0  0  0
    4.8740  -41.1150  -19.7108 C   0  0  0  0  0  0  0  0  0  0  0  0
    5.1710  -40.5539  -18.3241 C   0  0  0  0  0  0  0  0  0  0  0  0
    4.6588  -45.0964  -20.3154 H   0  0  0  0  0  0  0  0  0  0  0  0
   -0.0735  -45.5718  -20.9385 H   0  0  0  0  0  0  0  0  0  0  0  0
    0.3944  -44.7865  -19.4333 H   0  0  0  0  0  0  0  0  0  0  0  0
   -0.2014  -47.6638  -19.9440 H   0  0  0  0  0  0  0  0  0  0  0  0
   -0.1009  -46.8436  -18.3810 H   0  0  0  0  0  0  0  0  0  0  0  0
    1.8630  -48.6144  -19.1422 H   0  0  0  0  0  0  0  0  0  0  0  0
    2.2678  -47.1454  -18.2446 H   0  0  0  0  0  0  0  0  0  0  0  0
    3.6366  -46.8668  -20.1971 H   0  0  0  0  0  0  0  0  0  0  0  0
    3.9997  -49.1584  -20.0065 H   0  0  0  0  0  0  0  0  0  0  0  0
    5.0971  -48.4931  -21.2141 H   0  0  0  0  0  0  0  0  0  0  0  0
    5.3397  -50.9999  -20.5939 H   0  0  0  0  0  0  0  0  0  0  0  0
    5.3022  -50.6325  -22.3139 H   0  0  0  0  0  0  0  0  0  0  0  0
    1.7505  -51.2672  -22.2650 H   0  0  0  0  0  0  0  0  0  0  0  0
    2.0242  -49.3133  -23.5585 H   0  0  0  0  0  0  0  0  0  0  0  0
    3.7591  -49.5460  -23.7095 H   0  0  0  0  0  0  0  0  0  0  0  0
    2.8955  -50.6575  -25.3636 H   0  0  0  0  0  0  0  0  0  0  0  0
    3.4889  -52.2358  -27.1001 H   0  0  0  0  0  0  0  0  0  0  0  0
    3.7163  -54.6403  -26.5877 H   0  0  0  0  0  0  0  0  0  0  0  0
    3.5412  -55.4078  -24.2264 H   0  0  0  0  0  0  0  0  0  0  0  0
    3.1928  -53.7667  -22.4308 H   0  0  0  0  0  0  0  0  0  0  0  0
    3.5318  -46.3013  -24.8601 H   0  0  0  0  0  0  0  0  0  0  0  0
    3.2959  -47.5966  -27.2935 H   0  0  0  0  0  0  0  0  0  0  0  0
    6.3840  -50.4151  -28.1583 H   0  0  0  0  0  0  0  0  0  0  0  0
    7.6077  -49.7933  -26.1219 H   0  0  0  0  0  0  0  0  0  0  0  0
    5.5471  -43.2531  -21.9373 H   0  0  0  0  0  0  0  0  0  0  0  0
    4.0282  -42.4472  -21.5831 H   0  0  0  0  0  0  0  0  0  0  0  0
    7.5857  -41.1408  -16.0702 H   0  0  0  0  0  0  0  0  0  0  0  0
    5.9673  -40.5146  -15.7118 H   0  0  0  0  0  0  0  0  0  0  0  0
    7.0805  -39.5865  -16.7301 H   0  0  0  0  0  0  0  0  0  0  0  0
    5.2895  -42.7215  -16.5414 H   0  0  0  0  0  0  0  0  0  0  0  0
    6.8614  -43.1699  -17.1912 H   0  0  0  0  0  0  0  0  0  0  0  0
    4.1797  -43.4477  -18.4170 H   0  0  0  0  0  0  0  0  0  0  0  0
    5.6466  -44.3280  -18.7247 H   0  0  0  0  0  0  0  0  0  0  0  0
    6.4923  -42.4569  -20.0691 H   0  0  0  0  0  0  0  0  0  0  0  0
    3.8021  -41.1068  -19.8890 H   0  0  0  0  0  0  0  0  0  0  0  0
    5.2849  -40.4660  -20.4836 H   0  0  0  0  0  0  0  0  0  0  0  0
    4.2657  -40.6020  -17.6858 H   0  0  0  0  0  0  0  0  0  0  0  0
    5.4201  -39.4948  -18.3980 H   0  0  0  0  0  0  0  0  0  0  0  0
  1 23  1  0
  1  2  1  0
  1 53  1  1
  2  3  2  0
  2  4  1  0
  4  5  1  0
  5  6  1  0
  5 54  1  0
  5 55  1  0
  6  7  1  0
  6 56  1  0
  6 57  1  0
  7  8  1  0
  7 58  1  0
  7 59  1  0
  8  9  1  0
  8  4  1  0
  8 60  1  1
  9 10  2  0
  9 11  1  0
 11 12  1  0
 12 13  1  0
 12 61  1  0
 12 62  1  0
 13 14  1  0
 13 63  1  0
 13 64  1  0
 14 15  1  0
 15 17  1  0
 15 16  1  0
 15 65  1  1
 16 11  1  0
 16 66  1  0
 16 67  1  0
 17 18  2  0
 18 19  1  0
 18 68  1  0
 19 20  2  0
 19 69  1  0
 20 21  1  0
 20 70  1  0
 21 22  2  0
 21 71  1  0
 22 17  1  0
 22 72  1  0
 23 24  1  0
 23 26  1  0
 24 25  2  0
 24 27  1  0
 27 28  2  0
 28 29  1  0
 28 73  1  0
 29 30  2  0
 30 31  1  0
 30 74  1  0
 31 36  1  0
 31 32  2  0
 32 33  1  0
 32 75  1  0
 33 34  2  0
 33 76  1  0
 34 35  1  0
 34 29  1  0
 35 27  1  0
 36 37  1  0
 36 38  1  0
 36 39  1  0
 39 40  2  0
 39 41  1  0
 39 42  1  0
 41 43  1  0
 42 44  1  0
 45  1  1  0
 45 77  1  0
 45 78  1  0
 46 47  1  0
 46 79  1  0
 46 80  1  0
 46 81  1  0
 47 48  1  0
 48 49  1  0
 48 82  1  0
 48 83  1  0
 49 50  1  0
 49 84  1  0
 49 85  1  0
 50 45  1  0
 50 51  1  0
 50 86  1  0
 51 52  1  0
 51 87  1  0
 51 88  1  0
 52 47  1  0
 52 89  1  0
 52 90  1  0
M  END
>  <minimizedAffinity>  (1) 
-6.51133

>  <mol_id>  (1) 
11604

>  <source_index>  (1) 
0

>  <layer>  (1) 
L4

>  <uniprot>  (1) 
P42226

>  <paff>  (1) 
6.6021000000000001

>  <smiles>  (1) 
CN1CCC(C[C@H](NC(=O)c2cc3cc(C(F)(F)P(=O)(O)O)ccc3s2)C(=O)N2CCC[C@H]2C(=O)N2CCO[C@H](c3ccccc3)C2)CC1

>  <aimnet_interaction_kcal_mol>  (1) 
-131.4971319890422

$$$$
L4:P42226:24276
     RDKit          3D

 94 99  0  0  0  0  0  0  0  0999 V2000
    3.2899  -48.0704  -28.5466 C   0  0  1  0  0  0  0  0  0  0  0  0
    2.7567  -47.0193  -29.5368 C   0  0  0  0  0  0  0  0  0  0  0  0
    1.5485  -46.7467  -29.5399 O   0  0  0  0  0  0  0  0  0  0  0  0
    3.5944  -46.3750  -30.3571 N   0  0  0  0  0  0  0  0  0  0  0  0
    5.0460  -46.5682  -30.5032 C   0  0  0  0  0  0  0  0  0  0  0  0
    5.5191  -45.2204  -31.0202 C   0  0  0  0  0  0  0  0  0  0  0  0
    4.3509  -44.7431  -31.8735 C   0  0  0  0  0  0  0  0  0  0  0  0
    3.1264  -45.1889  -31.0805 C   0  0  1  0  0  0  0  0  0  0  0  0
    1.9290  -45.4583  -31.9979 C   0  0  0  0  0  0  0  0  0  0  0  0
    1.8992  -46.4652  -32.6874 O   0  0  0  0  0  0  0  0  0  0  0  0
    0.9768  -44.4712  -32.0788 N   0  0  0  0  0  0  0  0  0  0  0  0
    0.6552  -43.5101  -31.0463 C   0  0  0  0  0  0  0  0  0  0  0  0
    0.4017  -42.1505  -31.6404 C   0  0  0  0  0  0  0  0  0  0  0  0
   -0.6323  -42.1947  -32.6198 O   0  0  0  0  0  0  0  0  0  0  0  0
   -0.3242  -43.1368  -33.6709 C   0  0  1  0  0  0  0  0  0  0  0  0
   -0.0462  -44.5361  -33.1114 C   0  0  0  0  0  0  0  0  0  0  0  0
   -1.4722  -43.0627  -34.6343 C   0  0  0  0  0  0  0  0  0  0  0  0
   -1.2946  -42.4911  -35.8902 C   0  0  0  0  0  0  0  0  0  0  0  0
   -2.3653  -42.3454  -36.7604 C   0  0  0  0  0  0  0  0  0  0  0  0
   -3.6316  -42.7865  -36.4061 C   0  0  0  0  0  0  0  0  0  0  0  0
   -3.8058  -43.3753  -35.1581 C   0  0  0  0  0  0  0  0  0  0  0  0
   -2.7480  -43.4790  -34.2669 C   0  0  0  0  0  0  0  0  0  0  0  0
    2.9976  -47.6285  -27.1903 N   0  0  0  0  0  0  0  0  0  0  0  0
    3.7829  -46.7672  -26.5114 C   0  0  0  0  0  0  0  0  0  0  0  0
    4.7799  -46.2227  -26.9831 O   0  0  0  0  0  0  0  0  0  0  0  0
    2.1627  -47.9928  -26.7553 H   0  0  0  0  0  0  0  0  0  0  0  0
    3.3192  -46.4900  -25.1316 C   0  0  0  0  0  0  0  0  0  0  0  0
    2.4360  -47.1853  -24.3652 C   0  0  0  0  0  0  0  0  0  0  0  0
    2.1553  -46.5552  -23.1239 C   0  0  0  0  0  0  0  0  0  0  0  0
    1.3302  -47.0023  -22.0954 C   0  0  0  0  0  0  0  0  0  0  0  0
    1.1890  -46.2399  -20.9425 C   0  0  0  0  0  0  0  0  0  0  0  0
    1.7362  -44.9445  -20.8902 C   0  0  0  0  0  0  0  0  0  0  0  0
    2.5661  -44.4823  -21.9043 C   0  0  0  0  0  0  0  0  0  0  0  0
    2.8371  -45.3178  -22.9833 C   0  0  0  0  0  0  0  0  0  0  0  0
    3.8851  -45.0193  -24.3500 S   0  0  0  0  0  0  0  0  0  0  0  0
    0.4574  -46.8909  -19.8177 C   0  0  0  0  0  0  0  0  0  0  0  0
   -0.8404  -47.1875  -20.1977 F   0  0  0  0  0  0  0  0  0  0  0  0
    1.0285  -48.1061  -19.4629 F   0  0  0  0  0  0  0  0  0  0  0  0
    0.2601  -45.8814  -18.2195 P   0  0  0  0  0  0  0  0  0  0  0  0
   -0.6645  -44.7291  -18.3591 O   0  0  0  0  0  0  0  0  0  0  0  0
   -0.3654  -46.9549  -17.0960 O   0  0  0  0  0  0  0  0  0  0  0  0
    1.7191  -45.6499  -17.6537 O   0  0  0  0  0  0  0  0  0  0  0  0
   -1.1329  -46.5096  -16.6832 H   0  0  0  0  0  0  0  0  0  0  0  0
    1.8696  -44.6578  -17.6941 H   0  0  0  0  0  0  0  0  0  0  0  0
    2.6411  -49.4402  -28.7883 C   0  0  0  0  0  0  0  0  0  0  0  0
    4.3797  -52.9586  -26.9633 C   0  0  0  0  0  0  0  0  0  0  0  0
    4.3548  -52.7746  -28.3415 C   0  0  0  0  0  0  0  0  0  0  0  0
    3.8704  -51.6043  -28.9043 C   0  0  0  0  0  0  0  0  0  0  0  0
    3.3326  -50.5902  -28.1218 C   0  0  0  0  0  0  0  0  0  0  0  0
    3.3857  -50.7480  -26.7359 C   0  0  0  0  0  0  0  0  0  0  0  0
    3.9142  -51.9008  -26.1781 C   0  0  0  0  0  0  0  0  0  0  0  0
    3.6934  -54.8439  -25.4781 C   0  0  0  0  0  0  0  0  0  0  0  0
    4.8429  -54.2565  -26.3071 C   0  0  0  0  0  0  0  0  0  0  0  0
    6.0386  -53.9685  -25.3913 C   0  0  0  0  0  0  0  0  0  0  0  0
    5.2622  -55.3055  -27.3336 C   0  0  0  0  0  0  0  0  0  0  0  0
    4.3670  -48.1582  -28.6283 H   0  0  0  0  0  0  0  0  0  0  0  0
    5.2350  -47.3691  -31.2207 H   0  0  0  0  0  0  0  0  0  0  0  0
    5.4977  -46.8322  -29.5529 H   0  0  0  0  0  0  0  0  0  0  0  0
    6.4508  -45.2977  -31.5769 H   0  0  0  0  0  0  0  0  0  0  0  0
    5.6819  -44.5396  -30.1865 H   0  0  0  0  0  0  0  0  0  0  0  0
    4.3547  -45.2437  -32.8415 H   0  0  0  0  0  0  0  0  0  0  0  0
    4.3571  -43.6701  -32.0510 H   0  0  0  0  0  0  0  0  0  0  0  0
    2.8695  -44.4462  -30.3360 H   0  0  0  0  0  0  0  0  0  0  0  0
    1.4710  -43.4146  -30.3509 H   0  0  0  0  0  0  0  0  0  0  0  0
   -0.2260  -43.8487  -30.5016 H   0  0  0  0  0  0  0  0  0  0  0  0
    1.3201  -41.7538  -32.0881 H   0  0  0  0  0  0  0  0  0  0  0  0
    0.0754  -41.4594  -30.8651 H   0  0  0  0  0  0  0  0  0  0  0  0
    0.5884  -42.7957  -34.1734 H   0  0  0  0  0  0  0  0  0  0  0  0
    0.2842  -45.2061  -33.8990 H   0  0  0  0  0  0  0  0  0  0  0  0
   -0.9625  -44.9504  -32.6883 H   0  0  0  0  0  0  0  0  0  0  0  0
   -0.3088  -42.1552  -36.1887 H   0  0  0  0  0  0  0  0  0  0  0  0
   -2.2140  -41.8924  -37.7316 H   0  0  0  0  0  0  0  0  0  0  0  0
   -4.4702  -42.6848  -37.0982 H   0  0  0  0  0  0  0  0  0  0  0  0
   -4.7559  -43.8149  -34.8952 H   0  0  0  0  0  0  0  0  0  0  0  0
   -2.9199  -43.8978  -33.2833 H   0  0  0  0  0  0  0  0  0  0  0  0
    1.9558  -48.1013  -24.6680 H   0  0  0  0  0  0  0  0  0  0  0  0
    0.8122  -47.9439  -22.2052 H   0  0  0  0  0  0  0  0  0  0  0  0
    1.4616  -44.2534  -20.1052 H   0  0  0  0  0  0  0  0  0  0  0  0
    2.9328  -43.4649  -21.8837 H   0  0  0  0  0  0  0  0  0  0  0  0
    1.6016  -49.3980  -28.4647 H   0  0  0  0  0  0  0  0  0  0  0  0
    2.5857  -49.6068  -29.8626 H   0  0  0  0  0  0  0  0  0  0  0  0
    4.6589  -53.5711  -28.9994 H   0  0  0  0  0  0  0  0  0  0  0  0
    3.8373  -51.5127  -29.9808 H   0  0  0  0  0  0  0  0  0  0  0  0
    2.9901  -49.9944  -26.0718 H   0  0  0  0  0  0  0  0  0  0  0  0
    3.9468  -51.9756  -25.0972 H   0  0  0  0  0  0  0  0  0  0  0  0
    4.0097  -55.7680  -24.9949 H   0  0  0  0  0  0  0  0  0  0  0  0
    2.8423  -55.0716  -26.1165 H   0  0  0  0  0  0  0  0  0  0  0  0
    3.3585  -54.1579  -24.7010 H   0  0  0  0  0  0  0  0  0  0  0  0
    6.3850  -54.8898  -24.9220 H   0  0  0  0  0  0  0  0  0  0  0  0
    5.7860  -53.2663  -24.5979 H   0  0  0  0  0  0  0  0  0  0  0  0
    6.8679  -53.5466  -25.9580 H   0  0  0  0  0  0  0  0  0  0  0  0
    5.5723  -56.2169  -26.8224 H   0  0  0  0  0  0  0  0  0  0  0  0
    6.1031  -54.9638  -27.9360 H   0  0  0  0  0  0  0  0  0  0  0  0
    4.4410  -55.5525  -28.0012 H   0  0  0  0  0  0  0  0  0  0  0  0
  1 23  1  0
  1  2  1  0
  1 56  1  1
  2  3  2  0
  2  4  1  0
  4  5  1  0
  5  6  1  0
  5 57  1  0
  5 58  1  0
  6  7  1  0
  6 59  1  0
  6 60  1  0
  7  8  1  0
  7 61  1  0
  7 62  1  0
  8  9  1  0
  8  4  1  0
  8 63  1  1
  9 10  2  0
  9 11  1  0
 11 12  1  0
 12 13  1  0
 12 64  1  0
 12 65  1  0
 13 14  1  0
 13 66  1  0
 13 67  1  0
 14 15  1  0
 15 17  1  0
 15 16  1  0
 15 68  1  6
 16 11  1  0
 16 69  1  0
 16 70  1  0
 17 18  2  0
 18 19  1  0
 18 71  1  0
 19 20  2  0
 19 72  1  0
 20 21  1  0
 20 73  1  0
 21 22  2  0
 21 74  1  0
 22 17  1  0
 22 75  1  0
 23 24  1  0
 23 26  1  0
 24 25  2  0
 24 27  1  0
 27 28  2  0
 28 29  1  0
 28 76  1  0
 29 30  2  0
 30 31  1  0
 30 77  1  0
 31 36  1  0
 31 32  2  0
 32 33  1  0
 32 78  1  0
 33 34  2  0
 33 79  1  0
 34 35  1  0
 34 29  1  0
 35 27  1  0
 36 37  1  0
 36 38  1  0
 36 39  1  0
 39 40  2  0
 39 41  1  0
 39 42  1  0
 41 43  1  0
 42 44  1  0
 45  1  1  0
 45 80  1  0
 45 81  1  0
 46 47  2  0
 47 48  1  0
 47 82  1  0
 48 49  2  0
 48 83  1  0
 49 45  1  0
 49 50  1  0
 50 51  2  0
 50 84  1  0
 51 46  1  0
 51 85  1  0
 52 53  1  0
 52 86  1  0
 52 87  1  0
 52 88  1  0
 53 54  1  0
 53 55  1  0
 53 46  1  0
 54 89  1  0
 54 90  1  0
 54 91  1  0
 55 92  1  0
 55 93  1  0
 55 94  1  0
M  END
>  <minimizedAffinity>  (2) 
-8.57822

>  <mol_id>  (2) 
24276

>  <source_index>  (2) 
1

>  <layer>  (2) 
L4

>  <uniprot>  (2) 
P42226

>  <paff>  (2) 
6.7958999999999996

>  <smiles>  (2) 
CC(C)(C)c1ccc(C[C@H](NC(=O)c2cc3cc(C(F)(F)P(=O)(O)O)ccc3s2)C(=O)N2CCC[C@H]2C(=O)N2CCO[C@H](c3ccccc3)C2)cc1

>  <aimnet_interaction_kcal_mol>  (2) 
-113.94119784728385

$$$$
L4:P42226:26786
     RDKit          3D

 87 92  0  0  0  0  0  0  0  0999 V2000
    5.1057  -47.5435  -27.9107 C   0  0  2  0  0  0  0  0  0  0  0  0
    4.3335  -48.8480  -28.1358 C   0  0  0  0  0  0  0  0  0  0  0  0
    4.2117  -49.6247  -27.1865 O   0  0  0  0  0  0  0  0  0  0  0  0
    3.7884  -49.1084  -29.3322 N   0  0  0  0  0  0  0  0  0  0  0  0
    3.0901  -50.3901  -29.5180 C   0  0  0  0  0  0  0  0  0  0  0  0
    2.6150  -50.3495  -30.9603 C   0  0  0  0  0  0  0  0  0  0  0  0
    3.5178  -49.3162  -31.6159 C   0  0  0  0  0  0  0  0  0  0  0  0
    3.6683  -48.2583  -30.5140 C   0  0  1  0  0  0  0  0  0  0  0  0
    2.4357  -47.3444  -30.3803 C   0  0  0  0  0  0  0  0  0  0  0  0
    1.5959  -47.5635  -29.5089 O   0  0  0  0  0  0  0  0  0  0  0  0
    2.3268  -46.2975  -31.2316 N   0  0  0  0  0  0  0  0  0  0  0  0
    1.4600  -45.1647  -30.9077 C   0  0  0  0  0  0  0  0  0  0  0  0
    0.5271  -44.8593  -32.0569 C   0  0  0  0  0  0  0  0  0  0  0  0
    1.2515  -44.6497  -33.2612 O   0  0  0  0  0  0  0  0  0  0  0  0
    2.0471  -45.7776  -33.6237 C   0  0  1  0  0  0  0  0  0  0  0  0
    3.0183  -46.1265  -32.4983 C   0  0  0  0  0  0  0  0  0  0  0  0
    1.2097  -46.9061  -34.1789 C   0  0  0  0  0  0  0  0  0  0  0  0
    0.8036  -46.7715  -35.5253 C   0  0  0  0  0  0  0  0  0  0  0  0
    0.1317  -47.7709  -36.1660 C   0  0  0  0  0  0  0  0  0  0  0  0
   -0.1651  -48.9804  -35.5026 C   0  0  0  0  0  0  0  0  0  0  0  0
   -0.7863  -50.0600  -36.1597 C   0  0  0  0  0  0  0  0  0  0  0  0
   -1.0442  -51.2277  -35.4928 C   0  0  0  0  0  0  0  0  0  0  0  0
   -0.7141  -51.3541  -34.1335 C   0  0  0  0  0  0  0  0  0  0  0  0
   -0.1259  -50.3118  -33.4672 C   0  0  0  0  0  0  0  0  0  0  0  0
    0.1714  -49.0996  -34.1259 C   0  0  0  0  0  0  0  0  0  0  0  0
    0.7911  -48.0048  -33.4786 C   0  0  0  0  0  0  0  0  0  0  0  0
    7.1830  -48.7596  -27.0782 C   0  0  0  0  0  0  0  0  0  0  0  0
    6.6553  -47.7181  -28.0564 C   0  0  0  0  0  0  0  0  0  0  0  0
    7.3392  -46.3849  -27.7778 C   0  0  0  0  0  0  0  0  0  0  0  0
    6.9948  -48.1590  -29.4745 C   0  0  0  0  0  0  0  0  0  0  0  0
    4.6960  -47.1525  -26.5828 N   0  0  0  0  0  0  0  0  0  0  0  0
    4.4133  -45.8998  -26.1860 C   0  0  0  0  0  0  0  0  0  0  0  0
    4.6715  -44.8763  -26.8175 O   0  0  0  0  0  0  0  0  0  0  0  0
    4.4197  -47.9485  -26.0242 H   0  0  0  0  0  0  0  0  0  0  0  0
    3.7506  -45.8157  -24.8608 C   0  0  0  0  0  0  0  0  0  0  0  0
    2.9082  -46.6882  -24.2397 C   0  0  0  0  0  0  0  0  0  0  0  0
    2.4120  -46.1956  -22.9979 C   0  0  0  0  0  0  0  0  0  0  0  0
    1.5599  -46.8071  -22.0785 C   0  0  0  0  0  0  0  0  0  0  0  0
    1.1831  -46.1130  -20.9312 C   0  0  0  0  0  0  0  0  0  0  0  0
    1.5076  -44.7489  -20.7889 C   0  0  0  0  0  0  0  0  0  0  0  0
    2.3805  -44.1340  -21.6720 C   0  0  0  0  0  0  0  0  0  0  0  0
    2.8781  -44.8808  -22.7330 C   0  0  0  0  0  0  0  0  0  0  0  0
    3.9834  -44.3306  -23.9623 S   0  0  0  0  0  0  0  0  0  0  0  0
    0.4623  -46.8596  -19.8615 C   0  0  0  0  0  0  0  0  0  0  0  0
   -0.8294  -47.1791  -20.2517 F   0  0  0  0  0  0  0  0  0  0  0  0
    1.0680  -48.0657  -19.5532 F   0  0  0  0  0  0  0  0  0  0  0  0
    0.2509  -45.8971  -18.2321 P   0  0  0  0  0  0  0  0  0  0  0  0
   -0.6908  -44.7534  -18.3424 O   0  0  0  0  0  0  0  0  0  0  0  0
   -0.3631  -46.9926  -17.1205 O   0  0  0  0  0  0  0  0  0  0  0  0
    1.7058  -45.6573  -17.6587 O   0  0  0  0  0  0  0  0  0  0  0  0
   -1.1276  -46.5497  -16.7016 H   0  0  0  0  0  0  0  0  0  0  0  0
    1.8593  -44.6651  -17.7110 H   0  0  0  0  0  0  0  0  0  0  0  0
    4.7913  -46.7665  -28.6055 H   0  0  0  0  0  0  0  0  0  0  0  0
    2.2799  -50.4734  -28.8030 H   0  0  0  0  0  0  0  0  0  0  0  0
    3.7727  -51.2158  -29.3188 H   0  0  0  0  0  0  0  0  0  0  0  0
    1.5831  -50.0147  -30.9731 H   0  0  0  0  0  0  0  0  0  0  0  0
    2.6394  -51.3248  -31.4330 H   0  0  0  0  0  0  0  0  0  0  0  0
    3.1283  -48.9421  -32.5542 H   0  0  0  0  0  0  0  0  0  0  0  0
    4.5020  -49.7449  -31.8179 H   0  0  0  0  0  0  0  0  0  0  0  0
    4.5532  -47.6387  -30.6475 H   0  0  0  0  0  0  0  0  0  0  0  0
    2.0754  -44.2915  -30.6818 H   0  0  0  0  0  0  0  0  0  0  0  0
    0.8790  -45.4096  -30.0301 H   0  0  0  0  0  0  0  0  0  0  0  0
   -0.0102  -43.9325  -31.8570 H   0  0  0  0  0  0  0  0  0  0  0  0
   -0.2045  -45.6635  -32.1815 H   0  0  0  0  0  0  0  0  0  0  0  0
    2.6602  -45.4113  -34.4480 H   0  0  0  0  0  0  0  0  0  0  0  0
    3.7322  -45.3041  -32.4013 H   0  0  0  0  0  0  0  0  0  0  0  0
    3.5767  -47.0160  -32.7616 H   0  0  0  0  0  0  0  0  0  0  0  0
    1.0355  -45.8498  -36.0417 H   0  0  0  0  0  0  0  0  0  0  0  0
   -0.1804  -47.6453  -37.1948 H   0  0  0  0  0  0  0  0  0  0  0  0
   -1.0568  -49.9403  -37.2010 H   0  0  0  0  0  0  0  0  0  0  0  0
   -1.4835  -52.0684  -36.0127 H   0  0  0  0  0  0  0  0  0  0  0  0
   -0.9196  -52.2798  -33.6131 H   0  0  0  0  0  0  0  0  0  0  0  0
    0.1034  -50.4213  -32.4172 H   0  0  0  0  0  0  0  0  0  0  0  0
    0.9108  -48.0421  -32.4067 H   0  0  0  0  0  0  0  0  0  0  0  0
    8.2654  -48.8351  -27.1740 H   0  0  0  0  0  0  0  0  0  0  0  0
    6.7532  -49.7377  -27.2681 H   0  0  0  0  0  0  0  0  0  0  0  0
    6.9574  -48.4876  -26.0497 H   0  0  0  0  0  0  0  0  0  0  0  0
    8.4088  -46.4813  -27.9647 H   0  0  0  0  0  0  0  0  0  0  0  0
    7.2036  -46.0656  -26.7480 H   0  0  0  0  0  0  0  0  0  0  0  0
    6.9522  -45.5952  -28.4181 H   0  0  0  0  0  0  0  0  0  0  0  0
    8.0684  -48.3131  -29.5703 H   0  0  0  0  0  0  0  0  0  0  0  0
    6.7088  -47.4024  -30.2047 H   0  0  0  0  0  0  0  0  0  0  0  0
    6.5067  -49.0953  -29.7363 H   0  0  0  0  0  0  0  0  0  0  0  0
    2.5973  -47.6264  -24.6757 H   0  0  0  0  0  0  0  0  0  0  0  0
    1.2074  -47.8112  -22.2730 H   0  0  0  0  0  0  0  0  0  0  0  0
    1.0098  -44.1382  -20.0463 H   0  0  0  0  0  0  0  0  0  0  0  0
    2.6190  -43.0799  -21.5879 H   0  0  0  0  0  0  0  0  0  0  0  0
  1 31  1  0
  1  2  1  0
  1 53  1  6
  2  3  2  0
  2  4  1  0
  4  5  1  0
  5  6  1  0
  5 54  1  0
  5 55  1  0
  6  7  1  0
  6 56  1  0
  6 57  1  0
  7  8  1  0
  7 58  1  0
  7 59  1  0
  8  9  1  0
  8  4  1  0
  8 60  1  6
  9 10  2  0
  9 11  1  0
 11 12  1  0
 12 13  1  0
 12 61  1  0
 12 62  1  0
 13 14  1  0
 13 63  1  0
 13 64  1  0
 14 15  1  0
 15 17  1  0
 15 16  1  0
 15 65  1  6
 16 11  1  0
 16 66  1  0
 16 67  1  0
 17 18  2  0
 18 19  1  0
 18 68  1  0
 19 20  2  0
 19 69  1  0
 20 21  1  0
 21 22  2  0
 21 70  1  0
 22 23  1  0
 22 71  1  0
 23 24  2  0
 23 72  1  0
 24 25  1  0
 24 73  1  0
 25 26  2  0
 25 20  1  0
 26 17  1  0
 26 74  1  0
 27 28  1  0
 27 75  1  0
 27 76  1  0
 27 77  1  0
 28 29  1  0
 28 30  1  0
 28  1  1  0
 29 78  1  0
 29 79  1  0
 29 80  1  0
 30 81  1  0
 30 82  1  0
 30 83  1  0
 31 32  1  0
 31 34  1  0
 32 33  2  0
 32 35  1  0
 35 36  2  0
 36 37  1  0
 36 84  1  0
 37 38  2  0
 38 39  1  0
 38 85  1  0
 39 44  1  0
 39 40  2  0
 40 41  1  0
 40 86  1  0
 41 42  2  0
 41 87  1  0
 42 43  1  0
 42 37  1  0
 43 35  1  0
 44 45  1  0
 44 46  1  0
 44 47  1  0
 47 48  2  0
 47 49  1  0
 47 50  1  0
 49 51  1  0
 50 52  1  0
M  END
>  <minimizedAffinity>  (3) 
-8.29678

>  <mol_id>  (3) 
26786

>  <source_index>  (3) 
2

>  <layer>  (3) 
L4

>  <uniprot>  (3) 
P42226

>  <paff>  (3) 
7.0808999999999997

>  <smiles>  (3) 
CC(C)(C)[C@H](NC(=O)c1cc2cc(C(F)(F)P(=O)(O)O)ccc2s1)C(=O)N1CCC[C@H]1C(=O)N1CCOC(c2ccc3ccccc3c2)C1

>  <aimnet_interaction_kcal_mol>  (3) 
-88.757285399585612

$$$$
L4:P42226:41686
     RDKit          3D

115122  0  0  0  0  0  0  0  0999 V2000
    3.0573  -48.3703  -32.9488 C   0  0  0  0  0  0  0  0  0  0  0  0
    4.0177  -48.0235  -32.0163 C   0  0  0  0  0  0  0  0  0  0  0  0
    3.7190  -47.1265  -30.9749 C   0  0  0  0  0  0  0  0  0  0  0  0
    2.4469  -46.5249  -30.9707 C   0  0  0  0  0  0  0  0  0  0  0  0
    1.5183  -46.8520  -31.9481 C   0  0  0  0  0  0  0  0  0  0  0  0
    1.7681  -47.7998  -32.9280 C   0  0  0  0  0  0  0  0  0  0  0  0
    4.6529  -46.8498  -30.0103 N   0  0  0  0  0  0  0  0  0  0  0  0
    4.3971  -45.8231  -29.0267 C   0  0  0  0  0  0  0  0  0  0  0  0
    5.6836  -45.4486  -28.3182 C   0  0  0  0  0  0  0  0  0  0  0  0
    6.3425  -46.5707  -27.6642 N   0  0  0  0  0  0  0  0  0  0  0  0
    6.0241  -47.8559  -28.2621 C   0  0  0  0  0  0  0  0  0  0  0  0
    5.7816  -47.7293  -29.7513 C   0  0  0  0  0  0  0  0  0  0  0  0
    6.3249  -46.5802  -26.2152 C   0  0  0  0  0  0  0  0  0  0  0  0
    4.9563  -46.8365  -25.5381 C   0  0  0  0  0  0  0  0  0  0  0  0
    4.4335  -45.8029  -24.5794 C   0  0  0  0  0  0  0  0  0  0  0  0
    4.7430  -44.4403  -24.6840 C   0  0  0  0  0  0  0  0  0  0  0  0
    4.2808  -43.4968  -23.7811 C   0  0  0  0  0  0  0  0  0  0  0  0
    3.4539  -43.8514  -22.7191 C   0  0  0  0  0  0  0  0  0  0  0  0
    3.1082  -45.1833  -22.6264 C   0  0  0  0  0  0  0  0  0  0  0  0
    3.5714  -46.1437  -23.5420 C   0  0  0  0  0  0  0  0  0  0  0  0
    2.9956  -47.3672  -23.1656 N   0  0  0  0  0  0  0  0  0  0  0  0
    3.0707  -48.6473  -23.8287 C   0  0  0  0  0  0  0  0  0  0  0  0
    2.2164  -47.2053  -22.0449 C   0  0  0  0  0  0  0  0  0  0  0  0
    1.6014  -48.0672  -21.4073 O   0  0  0  0  0  0  0  0  0  0  0  0
    2.2603  -45.8482  -21.7399 N   0  0  0  0  0  0  0  0  0  0  0  0
    1.6794  -45.3022  -20.5301 C   0  0  1  0  0  0  0  0  0  0  0  0
    0.1740  -45.5329  -20.4908 C   0  0  0  0  0  0  0  0  0  0  0  0
   -0.4074  -45.5145  -19.0801 C   0  0  0  0  0  0  0  0  0  0  0  0
    0.3164  -46.4526  -18.1467 C   0  0  0  0  0  0  0  0  0  0  0  0
   -0.2199  -47.1656  -17.2697 O   0  0  0  0  0  0  0  0  0  0  0  0
    1.6611  -46.4730  -18.3171 N   0  0  0  0  0  0  0  0  0  0  0  0
    2.4377  -45.8747  -19.3358 C   0  0  0  0  0  0  0  0  0  0  0  0
    3.6404  -45.8692  -19.2230 O   0  0  0  0  0  0  0  0  0  0  0  0
    2.2121  -47.0042  -17.6557 H   0  0  0  0  0  0  0  0  0  0  0  0
    0.7512  -48.2521  -33.8944 C   0  0  0  0  0  0  0  0  0  0  0  0
    0.1508  -49.4963  -33.6814 C   0  0  0  0  0  0  0  0  0  0  0  0
   -0.6042  -50.1122  -34.6673 C   0  0  0  0  0  0  0  0  0  0  0  0
   -0.9138  -49.3872  -35.8097 C   0  0  0  0  0  0  0  0  0  0  0  0
   -0.4239  -48.1063  -35.9794 C   0  0  0  0  0  0  0  0  0  0  0  0
    0.4474  -47.5290  -35.0592 C   0  0  0  0  0  0  0  0  0  0  0  0
    1.0955  -46.1930  -35.3430 C   0  0  1  0  0  0  0  0  0  0  0  0
    1.6495  -46.0799  -36.7627 C   0  0  0  0  0  0  0  0  0  0  0  0
    2.2538  -44.7122  -37.0298 C   0  0  0  0  0  0  0  0  0  0  0  0
    1.2549  -43.6122  -36.7111 C   0  0  0  0  0  0  0  0  0  0  0  0
    0.7909  -43.7466  -35.3356 N   0  0  0  0  0  0  0  0  0  0  0  0
    1.3148  -42.9260  -34.3885 C   0  0  0  0  0  0  0  0  0  0  0  0
    2.1705  -42.0799  -34.6342 O   0  0  0  0  0  0  0  0  0  0  0  0
    0.1419  -45.0258  -35.0758 C   0  0  0  0  0  0  0  0  0  0  0  0
    0.8209  -43.1082  -32.9633 C   0  0  0  0  0  0  0  0  0  0  0  0
    1.5058  -42.1593  -32.0104 C   0  0  0  0  0  0  0  0  0  0  0  0
    0.8852  -40.8434  -31.9067 N   0  0  0  0  0  0  0  0  0  0  0  0
    1.0806  -39.9551  -30.9068 C   0  0  0  0  0  0  0  0  0  0  0  0
    0.2898  -38.8841  -31.2286 C   0  0  0  0  0  0  0  0  0  0  0  0
   -0.3407  -39.1721  -32.3965 N   0  0  0  0  0  0  0  0  0  0  0  0
    0.0175  -40.3688  -32.8045 N   0  0  0  0  0  0  0  0  0  0  0  0
   -1.1562  -51.5032  -34.4976 C   0  0  0  0  0  0  0  0  0  0  0  0
   -2.2402  -51.8007  -35.0077 O   0  0  0  0  0  0  0  0  0  0  0  0
   -0.4320  -52.3773  -33.7580 N   0  0  0  0  0  0  0  0  0  0  0  0
    1.0084  -52.3277  -33.5489 C   0  0  0  0  0  0  0  0  0  0  0  0
   -1.0663  -53.5612  -33.2010 C   0  0  0  0  0  0  0  0  0  0  0  0
    4.3915  -50.1151  -33.8713 C   0  0  0  0  0  0  0  0  0  0  0  0
    3.2549  -49.2669  -33.9457 O   0  0  0  0  0  0  0  0  0  0  0  0
    5.0154  -48.4194  -32.0891 H   0  0  0  0  0  0  0  0  0  0  0  0
    2.1827  -45.8101  -30.2063 H   0  0  0  0  0  0  0  0  0  0  0  0
    0.5481  -46.3733  -31.9367 H   0  0  0  0  0  0  0  0  0  0  0  0
    3.6465  -46.1535  -28.2992 H   0  0  0  0  0  0  0  0  0  0  0  0
    4.0047  -44.9381  -29.5206 H   0  0  0  0  0  0  0  0  0  0  0  0
    5.4661  -44.6736  -27.5894 H   0  0  0  0  0  0  0  0  0  0  0  0
    6.3487  -44.9978  -29.0627 H   0  0  0  0  0  0  0  0  0  0  0  0
    5.1330  -48.3215  -27.8165 H   0  0  0  0  0  0  0  0  0  0  0  0
    6.8525  -48.5474  -28.0927 H   0  0  0  0  0  0  0  0  0  0  0  0
    5.5603  -48.7130  -30.1530 H   0  0  0  0  0  0  0  0  0  0  0  0
    6.6913  -47.3659  -30.2448 H   0  0  0  0  0  0  0  0  0  0  0  0
    6.7524  -45.6406  -25.8728 H   0  0  0  0  0  0  0  0  0  0  0  0
    7.0327  -47.3455  -25.8966 H   0  0  0  0  0  0  0  0  0  0  0  0
    5.0194  -47.7868  -25.0156 H   0  0  0  0  0  0  0  0  0  0  0  0
    4.1925  -46.9893  -26.3031 H   0  0  0  0  0  0  0  0  0  0  0  0
    5.3778  -44.0985  -25.4878 H   0  0  0  0  0  0  0  0  0  0  0  0
    4.5635  -42.4583  -23.8936 H   0  0  0  0  0  0  0  0  0  0  0  0
    3.0928  -43.0907  -22.0418 H   0  0  0  0  0  0  0  0  0  0  0  0
    4.0646  -49.0791  -23.7437 H   0  0  0  0  0  0  0  0  0  0  0  0
    2.7875  -48.5656  -24.8722 H   0  0  0  0  0  0  0  0  0  0  0  0
    2.3633  -49.3041  -23.3377 H   0  0  0  0  0  0  0  0  0  0  0  0
    1.9005  -44.2329  -20.5342 H   0  0  0  0  0  0  0  0  0  0  0  0
   -0.0404  -46.4903  -20.9536 H   0  0  0  0  0  0  0  0  0  0  0  0
   -0.3083  -44.7657  -21.0915 H   0  0  0  0  0  0  0  0  0  0  0  0
   -1.4629  -45.7902  -19.1093 H   0  0  0  0  0  0  0  0  0  0  0  0
   -0.3664  -44.4980  -18.6765 H   0  0  0  0  0  0  0  0  0  0  0  0
    0.2769  -49.9943  -32.7268 H   0  0  0  0  0  0  0  0  0  0  0  0
   -1.5549  -49.8268  -36.5597 H   0  0  0  0  0  0  0  0  0  0  0  0
   -0.7309  -47.5422  -36.8476 H   0  0  0  0  0  0  0  0  0  0  0  0
    1.9289  -46.0821  -34.6482 H   0  0  0  0  0  0  0  0  0  0  0  0
    0.8462  -46.2501  -37.4806 H   0  0  0  0  0  0  0  0  0  0  0  0
    2.3844  -46.8667  -36.9317 H   0  0  0  0  0  0  0  0  0  0  0  0
    2.5602  -44.6384  -38.0736 H   0  0  0  0  0  0  0  0  0  0  0  0
    3.1521  -44.5720  -36.4260 H   0  0  0  0  0  0  0  0  0  0  0  0
    0.3848  -43.6849  -37.3661 H   0  0  0  0  0  0  0  0  0  0  0  0
    1.6874  -42.6254  -36.8224 H   0  0  0  0  0  0  0  0  0  0  0  0
   -0.7218  -45.1055  -35.7373 H   0  0  0  0  0  0  0  0  0  0  0  0
   -0.2415  -45.0603  -34.0635 H   0  0  0  0  0  0  0  0  0  0  0  0
    1.0572  -44.1266  -32.6556 H   0  0  0  0  0  0  0  0  0  0  0  0
   -0.2627  -43.0060  -32.9191 H   0  0  0  0  0  0  0  0  0  0  0  0
    2.5412  -42.0185  -32.3129 H   0  0  0  0  0  0  0  0  0  0  0  0
    1.5171  -42.5567  -30.9988 H   0  0  0  0  0  0  0  0  0  0  0  0
    1.7323  -40.1530  -30.0753 H   0  0  0  0  0  0  0  0  0  0  0  0
    0.1195  -37.9643  -30.6880 H   0  0  0  0  0  0  0  0  0  0  0  0
    1.4645  -51.5374  -34.1310 H   0  0  0  0  0  0  0  0  0  0  0  0
    1.4344  -53.2802  -33.8674 H   0  0  0  0  0  0  0  0  0  0  0  0
    1.2308  -52.2045  -32.4892 H   0  0  0  0  0  0  0  0  0  0  0  0
   -2.1363  -53.4083  -33.1609 H   0  0  0  0  0  0  0  0  0  0  0  0
   -0.6906  -53.7295  -32.1949 H   0  0  0  0  0  0  0  0  0  0  0  0
   -0.8470  -54.4374  -33.8114 H   0  0  0  0  0  0  0  0  0  0  0  0
    4.2661  -50.8574  -34.6522 H   0  0  0  0  0  0  0  0  0  0  0  0
    4.4392  -50.6139  -32.9034 H   0  0  0  0  0  0  0  0  0  0  0  0
    5.3170  -49.5643  -34.0476 H   0  0  0  0  0  0  0  0  0  0  0  0
  1  2  2  0
  2  3  1  0
  2 63  1  0
  3  7  1  0
  3  4  2  0
  4  5  1  0
  4 64  1  0
  5  6  2  0
  5 65  1  0
  6 35  1  0
  6  1  1  0
  7  8  1  0
  8  9  1  0
  8 66  1  0
  8 67  1  0
  9 10  1  0
  9 68  1  0
  9 69  1  0
 10 13  1  0
 10 11  1  0
 11 12  1  0
 11 70  1  0
 11 71  1  0
 12  7  1  0
 12 72  1  0
 12 73  1  0
 13 14  1  0
 13 74  1  0
 13 75  1  0
 14 15  1  0
 14 76  1  0
 14 77  1  0
 15 16  2  0
 16 17  1  0
 16 78  1  0
 17 18  2  0
 17 79  1  0
 18 19  1  0
 18 80  1  0
 19 20  2  0
 20 21  1  0
 20 15  1  0
 21 22  1  0
 21 23  1  0
 22 81  1  0
 22 82  1  0
 22 83  1  0
 23 24  2  0
 23 25  1  0
 25 26  1  0
 25 19  1  0
 26 27  1  0
 26 84  1  6
 27 28  1  0
 27 85  1  0
 27 86  1  0
 28 29  1  0
 28 87  1  0
 28 88  1  0
 29 30  2  0
 29 31  1  0
 31 32  1  0
 31 34  1  0
 32 33  2  0
 32 26  1  0
 35 36  2  0
 36 37  1  0
 36 89  1  0
 37 56  1  0
 37 38  2  0
 38 39  1  0
 38 90  1  0
 39 40  2  0
 39 91  1  0
 40 41  1  0
 40 35  1  0
 41 42  1  0
 41 92  1  1
 42 43  1  0
 42 93  1  0
 42 94  1  0
 43 44  1  0
 43 95  1  0
 43 96  1  0
 44 45  1  0
 44 97  1  0
 44 98  1  0
 45 46  1  0
 45 48  1  0
 46 47  2  0
 46 49  1  0
 48 41  1  0
 48 99  1  0
 48100  1  0
 49 50  1  0
 49101  1  0
 49102  1  0
 50 51  1  0
 50103  1  0
 50104  1  0
 51 52  1  0
 52 53  2  0
 52105  1  0
 53 54  1  0
 53106  1  0
 54 55  2  0
 55 51  1  0
 56 57  2  0
 56 58  1  0
 58 59  1  0
 58 60  1  0
 59107  1  0
 59108  1  0
 59109  1  0
 60110  1  0
 60111  1  0
 60112  1  0
 61 62  1  0
 61113  1  0
 61114  1  0
 61115  1  0
 62  1  1  0
M  END
>  <minimizedAffinity>  (4) 
-7.79062

>  <mol_id>  (4) 
41686

>  <source_index>  (4) 
3

>  <layer>  (4) 
L4

>  <uniprot>  (4) 
P42226

>  <paff>  (4) 
6.2595999999999998

>  <smiles>  (4) 
COc1cc(N2CCN(CCc3cccc4c3n(C)c(=O)n4C3CCC(=O)NC3=O)CC2)ccc1-c1cc(C(=O)N(C)C)ccc1C1CCCN(C(=O)CCn2ccnn2)C1

>  <aimnet_interaction_kcal_mol>  (4) 
-121.17546668100044

$$$$
L4:P42226:89566
     RDKit          3D

119127  0  0  0  0  0  0  0  0999 V2000
    2.7608  -47.0180  -31.1115 C   0  0  0  0  0  0  0  0  0  0  0  0
    3.3930  -47.0742  -29.8806 C   0  0  0  0  0  0  0  0  0  0  0  0
    3.2299  -48.1735  -29.0245 C   0  0  0  0  0  0  0  0  0  0  0  0
    2.3161  -49.1631  -29.4046 C   0  0  0  0  0  0  0  0  0  0  0  0
    1.6928  -49.0969  -30.6330 C   0  0  0  0  0  0  0  0  0  0  0  0
    1.8942  -48.0503  -31.5320 C   0  0  0  0  0  0  0  0  0  0  0  0
    1.1695  -47.9973  -32.8055 C   0  0  0  0  0  0  0  0  0  0  0  0
    0.5558  -46.8223  -33.1756 C   0  0  0  0  0  0  0  0  0  0  0  0
   -0.1494  -46.6658  -34.3832 C   0  0  0  0  0  0  0  0  0  0  0  0
   -0.2737  -47.7573  -35.2059 C   0  0  0  0  0  0  0  0  0  0  0  0
    0.2722  -49.0068  -34.8518 C   0  0  0  0  0  0  0  0  0  0  0  0
    0.0782  -50.1386  -35.6682 C   0  0  0  0  0  0  0  0  0  0  0  0
    0.6024  -51.3542  -35.3230 C   0  0  0  0  0  0  0  0  0  0  0  0
    1.3776  -51.4833  -34.1622 C   0  0  0  0  0  0  0  0  0  0  0  0
    1.6397  -50.3845  -33.3827 C   0  0  0  0  0  0  0  0  0  0  0  0
    1.0382  -49.1406  -33.6574 C   0  0  0  0  0  0  0  0  0  0  0  0
   -0.7755  -45.3806  -34.7053 C   0  0  0  0  0  0  0  0  0  0  0  0
   -1.3349  -44.6425  -33.7459 C   0  0  0  0  0  0  0  0  0  0  0  0
   -2.2472  -43.4955  -34.0019 C   0  0  0  0  0  0  0  0  0  0  0  0
   -2.5824  -43.3985  -35.4807 C   0  0  0  0  0  0  0  0  0  0  0  0
   -1.3490  -43.5692  -36.2383 N   0  0  0  0  0  0  0  0  0  0  0  0
   -0.4501  -42.5826  -36.4695 C   0  0  0  0  0  0  0  0  0  0  0  0
    0.7373  -42.8035  -36.7022 O   0  0  0  0  0  0  0  0  0  0  0  0
   -0.8655  -44.9424  -36.1486 C   0  0  0  0  0  0  0  0  0  0  0  0
   -0.9357  -41.1355  -36.4634 C   0  0  0  0  0  0  0  0  0  0  0  0
    0.1842  -40.2070  -36.0359 C   0  0  0  0  0  0  0  0  0  0  0  0
    0.4653  -40.3234  -34.6117 N   0  0  0  0  0  0  0  0  0  0  0  0
    1.3447  -41.1170  -33.9713 C   0  0  0  0  0  0  0  0  0  0  0  0
    1.0980  -40.8892  -32.6332 C   0  0  0  0  0  0  0  0  0  0  0  0
    0.0867  -39.9941  -32.5319 N   0  0  0  0  0  0  0  0  0  0  0  0
   -0.2939  -39.6461  -33.7325 N   0  0  0  0  0  0  0  0  0  0  0  0
    1.9900  -52.7986  -33.7966 C   0  0  0  0  0  0  0  0  0  0  0  0
    3.1833  -52.9803  -34.0500 O   0  0  0  0  0  0  0  0  0  0  0  0
    1.1938  -53.7075  -33.1927 N   0  0  0  0  0  0  0  0  0  0  0  0
    1.7761  -54.9080  -32.6250 C   0  0  0  0  0  0  0  0  0  0  0  0
   -0.2139  -53.5053  -32.8859 C   0  0  0  0  0  0  0  0  0  0  0  0
    3.9336  -48.2736  -27.8265 N   0  0  0  0  0  0  0  0  0  0  0  0
    4.9339  -47.2579  -27.5594 C   0  0  0  0  0  0  0  0  0  0  0  0
    5.5208  -47.3724  -26.1694 C   0  0  0  0  0  0  0  0  0  0  0  0
    5.9843  -48.7187  -25.9204 N   0  0  0  0  0  0  0  0  0  0  0  0
    4.8656  -49.6353  -26.0142 C   0  0  0  0  0  0  0  0  0  0  0  0
    4.3282  -49.6212  -27.4249 C   0  0  0  0  0  0  0  0  0  0  0  0
    6.8663  -48.8602  -24.7880 C   0  0  0  0  0  0  0  0  0  0  0  0
    6.4206  -48.2298  -23.4590 C   0  0  0  0  0  0  0  0  0  0  0  0
    5.1474  -48.7682  -22.8889 C   0  0  0  0  0  0  0  0  0  0  0  0
    4.9589  -50.1548  -22.7484 C   0  0  0  0  0  0  0  0  0  0  0  0
    3.7689  -50.7102  -22.3163 C   0  0  0  0  0  0  0  0  0  0  0  0
    2.6995  -49.8977  -21.9469 C   0  0  0  0  0  0  0  0  0  0  0  0
    2.8870  -48.5333  -22.0323 C   0  0  0  0  0  0  0  0  0  0  0  0
    4.1002  -47.9633  -22.4586 C   0  0  0  0  0  0  0  0  0  0  0  0
    3.9832  -46.5806  -22.2635 N   0  0  0  0  0  0  0  0  0  0  0  0
    4.9494  -45.5249  -22.4640 C   0  0  0  0  0  0  0  0  0  0  0  0
    2.7649  -46.2864  -21.6833 C   0  0  0  0  0  0  0  0  0  0  0  0
    2.3811  -45.2166  -21.2373 O   0  0  0  0  0  0  0  0  0  0  0  0
    2.0560  -47.4840  -21.6548 N   0  0  0  0  0  0  0  0  0  0  0  0
    0.8186  -47.6673  -20.9417 C   0  0  1  0  0  0  0  0  0  0  0  0
    1.0388  -47.9150  -19.4578 C   0  0  0  0  0  0  0  0  0  0  0  0
    1.1754  -46.6059  -18.7011 C   0  0  0  0  0  0  0  0  0  0  0  0
   -0.0813  -45.7961  -18.8536 C   0  0  0  0  0  0  0  0  0  0  0  0
   -0.6899  -45.2723  -17.9261 O   0  0  0  0  0  0  0  0  0  0  0  0
   -0.5469  -45.7277  -20.1411 N   0  0  0  0  0  0  0  0  0  0  0  0
   -0.1605  -46.5197  -21.2321 C   0  0  0  0  0  0  0  0  0  0  0  0
   -0.6431  -46.3602  -22.3253 O   0  0  0  0  0  0  0  0  0  0  0  0
   -1.1970  -44.9797  -20.3464 H   0  0  0  0  0  0  0  0  0  0  0  0
    3.5601  -44.7894  -31.5151 C   0  0  0  0  0  0  0  0  0  0  0  0
    2.9636  -45.9950  -31.9831 O   0  0  0  0  0  0  0  0  0  0  0  0
    4.0305  -46.2584  -29.5921 H   0  0  0  0  0  0  0  0  0  0  0  0
    2.0661  -49.9803  -28.7525 H   0  0  0  0  0  0  0  0  0  0  0  0
    1.0208  -49.8959  -30.9035 H   0  0  0  0  0  0  0  0  0  0  0  0
    0.6566  -45.9774  -32.5169 H   0  0  0  0  0  0  0  0  0  0  0  0
   -0.8189  -47.6870  -36.1369 H   0  0  0  0  0  0  0  0  0  0  0  0
   -0.4873  -50.0311  -36.5853 H   0  0  0  0  0  0  0  0  0  0  0  0
    0.4424  -52.2200  -35.9525 H   0  0  0  0  0  0  0  0  0  0  0  0
    2.3335  -50.4953  -32.5640 H   0  0  0  0  0  0  0  0  0  0  0  0
   -1.1739  -44.9166  -32.7135 H   0  0  0  0  0  0  0  0  0  0  0  0
   -1.7482  -42.5772  -33.6776 H   0  0  0  0  0  0  0  0  0  0  0  0
   -3.1525  -43.5961  -33.4009 H   0  0  0  0  0  0  0  0  0  0  0  0
   -3.0864  -42.4769  -35.7463 H   0  0  0  0  0  0  0  0  0  0  0  0
   -3.2564  -44.2000  -35.7717 H   0  0  0  0  0  0  0  0  0  0  0  0
    0.0984  -44.9867  -36.6461 H   0  0  0  0  0  0  0  0  0  0  0  0
   -1.5619  -45.5795  -36.6969 H   0  0  0  0  0  0  0  0  0  0  0  0
   -1.8060  -40.9795  -35.8343 H   0  0  0  0  0  0  0  0  0  0  0  0
   -1.2274  -40.8781  -37.4801 H   0  0  0  0  0  0  0  0  0  0  0  0
   -0.0779  -39.1692  -36.2150 H   0  0  0  0  0  0  0  0  0  0  0  0
    1.0937  -40.4551  -36.5721 H   0  0  0  0  0  0  0  0  0  0  0  0
    2.0201  -41.7730  -34.4886 H   0  0  0  0  0  0  0  0  0  0  0  0
    1.5752  -41.3125  -31.7642 H   0  0  0  0  0  0  0  0  0  0  0  0
    2.7630  -55.0570  -33.0479 H   0  0  0  0  0  0  0  0  0  0  0  0
    1.1311  -55.7582  -32.8481 H   0  0  0  0  0  0  0  0  0  0  0  0
    1.8541  -54.7992  -31.5394 H   0  0  0  0  0  0  0  0  0  0  0  0
   -0.5080  -52.4738  -33.0367 H   0  0  0  0  0  0  0  0  0  0  0  0
   -0.3764  -53.7471  -31.8417 H   0  0  0  0  0  0  0  0  0  0  0  0
   -0.8387  -54.1564  -33.5014 H   0  0  0  0  0  0  0  0  0  0  0  0
    4.4725  -46.2760  -27.6356 H   0  0  0  0  0  0  0  0  0  0  0  0
    5.7469  -47.3119  -28.2948 H   0  0  0  0  0  0  0  0  0  0  0  0
    4.7616  -47.0390  -25.4419 H   0  0  0  0  0  0  0  0  0  0  0  0
    6.3620  -46.6820  -26.0915 H   0  0  0  0  0  0  0  0  0  0  0  0
    4.0509  -49.4099  -25.3098 H   0  0  0  0  0  0  0  0  0  0  0  0
    5.2116  -50.6413  -25.7855 H   0  0  0  0  0  0  0  0  0  0  0  0
    3.4786  -50.2919  -27.4782 H   0  0  0  0  0  0  0  0  0  0  0  0
    5.0949  -50.0069  -28.1082 H   0  0  0  0  0  0  0  0  0  0  0  0
    7.8202  -48.4016  -25.0530 H   0  0  0  0  0  0  0  0  0  0  0  0
    7.0673  -49.9205  -24.6514 H   0  0  0  0  0  0  0  0  0  0  0  0
    6.3607  -47.1585  -23.6059 H   0  0  0  0  0  0  0  0  0  0  0  0
    7.2283  -48.3887  -22.7391 H   0  0  0  0  0  0  0  0  0  0  0  0
    5.7745  -50.8202  -22.9979 H   0  0  0  0  0  0  0  0  0  0  0  0
    3.6745  -51.7842  -22.2486 H   0  0  0  0  0  0  0  0  0  0  0  0
    1.7850  -50.3212  -21.5652 H   0  0  0  0  0  0  0  0  0  0  0  0
    5.8578  -45.7176  -21.8988 H   0  0  0  0  0  0  0  0  0  0  0  0
    4.5043  -44.6016  -22.1078 H   0  0  0  0  0  0  0  0  0  0  0  0
    5.1922  -45.4126  -23.5171 H   0  0  0  0  0  0  0  0  0  0  0  0
    0.3555  -48.5445  -21.3834 H   0  0  0  0  0  0  0  0  0  0  0  0
    1.9216  -48.5426  -19.3212 H   0  0  0  0  0  0  0  0  0  0  0  0
    0.1844  -48.4799  -19.0644 H   0  0  0  0  0  0  0  0  0  0  0  0
    1.9974  -46.0216  -19.1149 H   0  0  0  0  0  0  0  0  0  0  0  0
    1.3635  -46.7681  -17.6415 H   0  0  0  0  0  0  0  0  0  0  0  0
    3.4479  -44.0714  -32.3227 H   0  0  0  0  0  0  0  0  0  0  0  0
    4.6223  -44.9256  -31.3029 H   0  0  0  0  0  0  0  0  0  0  0  0
    3.0593  -44.3988  -30.6307 H   0  0  0  0  0  0  0  0  0  0  0  0
  1  2  2  0
  2  3  1  0
  2 67  1  0
  3 37  1  0
  3  4  2  0
  4  5  1  0
  4 68  1  0
  5  6  2  0
  5 69  1  0
  6  7  1  0
  6  1  1  0
  7  8  2  0
  8  9  1  0
  8 70  1  0
  9 17  1  0
  9 10  2  0
 10 11  1  0
 10 71  1  0
 11 12  2  0
 12 13  1  0
 12 72  1  0
 13 14  2  0
 13 73  1  0
 14 32  1  0
 14 15  1  0
 15 16  2  0
 15 74  1  0
 16  7  1  0
 16 11  1  0
 17 18  2  0
 18 19  1  0
 18 75  1  0
 19 20  1  0
 19 76  1  0
 19 77  1  0
 20 21  1  0
 20 78  1  0
 20 79  1  0
 21 22  1  0
 21 24  1  0
 22 23  2  0
 22 25  1  0
 24 17  1  0
 24 80  1  0
 24 81  1  0
 25 26  1  0
 25 82  1  0
 25 83  1  0
 26 27  1  0
 26 84  1  0
 26 85  1  0
 27 28  1  0
 28 29  2  0
 28 86  1  0
 29 30  1  0
 29 87  1  0
 30 31  2  0
 31 27  1  0
 32 33  2  0
 32 34  1  0
 34 35  1  0
 34 36  1  0
 35 88  1  0
 35 89  1  0
 35 90  1  0
 36 91  1  0
 36 92  1  0
 36 93  1  0
 37 38  1  0
 38 39  1  0
 38 94  1  0
 38 95  1  0
 39 40  1  0
 39 96  1  0
 39 97  1  0
 40 43  1  0
 40 41  1  0
 41 42  1  0
 41 98  1  0
 41 99  1  0
 42 37  1  0
 42100  1  0
 42101  1  0
 43 44  1  0
 43102  1  0
 43103  1  0
 44 45  1  0
 44104  1  0
 44105  1  0
 45 46  2  0
 46 47  1  0
 46106  1  0
 47 48  2  0
 47107  1  0
 48 49  1  0
 48108  1  0
 49 50  2  0
 50 51  1  0
 50 45  1  0
 51 52  1  0
 51 53  1  0
 52109  1  0
 52110  1  0
 52111  1  0
 53 54  2  0
 53 55  1  0
 55 56  1  0
 55 49  1  0
 56 57  1  0
 56112  1  6
 57 58  1  0
 57113  1  0
 57114  1  0
 58 59  1  0
 58115  1  0
 58116  1  0
 59 60  2  0
 59 61  1  0
 61 62  1  0
 61 64  1  0
 62 63  2  0
 62 56  1  0
 65 66  1  0
 65117  1  0
 65118  1  0
 65119  1  0
 66  1  1  0
M  END
>  <minimizedAffinity>  (5) 
-8.34156

>  <mol_id>  (5) 
89566

>  <source_index>  (5) 
4

>  <layer>  (5) 
L4

>  <uniprot>  (5) 
P42226

>  <paff>  (5) 
7

>  <smiles>  (5) 
COc1cc(N2CCN(CCc3cccc4c3n(C)c(=O)n4C3CCC(=O)NC3=O)CC2)ccc1-c1cc(C2=CCCN(C(=O)CCn3ccnn3)C2)cc2ccc(C(=O)N(C)C)cc12

>  <aimnet_interaction_kcal_mol>  (5) 
-79.824759199320312

$$$$
L4:P42226:94248
     RDKit          3D

 81 85  0  0  0  0  0  0  0  0999 V2000
    4.8985  -48.1224  -27.3515 C   0  0  2  0  0  0  0  0  0  0  0  0
    4.0097  -49.2879  -27.7890 C   0  0  0  0  0  0  0  0  0  0  0  0
    3.6421  -50.1078  -26.9462 O   0  0  0  0  0  0  0  0  0  0  0  0
    3.6256  -49.3473  -29.0723 N   0  0  0  0  0  0  0  0  0  0  0  0
    2.7907  -50.4601  -29.5363 C   0  0  0  0  0  0  0  0  0  0  0  0
    2.5040  -50.1393  -30.9983 C   0  0  0  0  0  0  0  0  0  0  0  0
    3.5964  -49.1493  -31.3909 C   0  0  0  0  0  0  0  0  0  0  0  0
    3.8193  -48.3437  -30.1051 C   0  0  1  0  0  0  0  0  0  0  0  0
    2.7694  -47.2370  -29.9761 C   0  0  0  0  0  0  0  0  0  0  0  0
    1.7102  -47.4577  -29.3820 O   0  0  0  0  0  0  0  0  0  0  0  0
    3.0250  -46.0671  -30.5978 N   0  0  0  0  0  0  0  0  0  0  0  0
    4.3638  -45.5859  -30.9406 C   0  0  0  0  0  0  0  0  0  0  0  0
    4.2513  -44.3778  -31.8523 C   0  0  0  0  0  0  0  0  0  0  0  0
    3.3152  -44.6333  -32.8843 O   0  0  0  0  0  0  0  0  0  0  0  0
    1.9715  -44.8059  -32.3955 C   0  0  2  0  0  0  0  0  0  0  0  0
    1.9669  -45.1206  -30.9116 C   0  0  0  0  0  0  0  0  0  0  0  0
    1.3128  -45.8470  -33.2585 C   0  0  0  0  0  0  0  0  0  0  0  0
    1.1220  -45.5554  -34.6075 C   0  0  0  0  0  0  0  0  0  0  0  0
    0.5309  -46.4774  -35.4556 C   0  0  0  0  0  0  0  0  0  0  0  0
    0.1317  -47.7145  -34.9651 C   0  0  0  0  0  0  0  0  0  0  0  0
    0.3296  -48.0193  -33.6286 C   0  0  0  0  0  0  0  0  0  0  0  0
    0.9116  -47.0881  -32.7825 C   0  0  0  0  0  0  0  0  0  0  0  0
    6.5919  -49.5971  -26.1469 C   0  0  0  0  0  0  0  0  0  0  0  0
    6.4020  -48.5060  -27.1928 C   0  0  0  0  0  0  0  0  0  0  0  0
    7.1830  -47.2670  -26.7709 C   0  0  0  0  0  0  0  0  0  0  0  0
    6.9375  -49.0013  -28.5293 C   0  0  0  0  0  0  0  0  0  0  0  0
    4.2997  -47.6769  -26.1186 N   0  0  0  0  0  0  0  0  0  0  0  0
    4.0500  -46.3849  -25.8512 C   0  0  0  0  0  0  0  0  0  0  0  0
    4.4184  -45.4394  -26.5493 O   0  0  0  0  0  0  0  0  0  0  0  0
    3.8172  -48.4140  -25.6258 H   0  0  0  0  0  0  0  0  0  0  0  0
    3.3060  -46.1509  -24.5942 C   0  0  0  0  0  0  0  0  0  0  0  0
    2.3535  -46.9088  -23.9797 C   0  0  0  0  0  0  0  0  0  0  0  0
    1.8653  -46.3131  -22.7804 C   0  0  0  0  0  0  0  0  0  0  0  0
    0.9118  -46.7877  -21.8801 C   0  0  0  0  0  0  0  0  0  0  0  0
    0.5476  -46.0070  -20.7890 C   0  0  0  0  0  0  0  0  0  0  0  0
    1.0233  -44.6816  -20.6806 C   0  0  0  0  0  0  0  0  0  0  0  0
    2.0076  -44.2081  -21.5283 C   0  0  0  0  0  0  0  0  0  0  0  0
    2.4557  -45.0413  -22.5460 C   0  0  0  0  0  0  0  0  0  0  0  0
    3.6418  -44.6492  -23.7588 S   0  0  0  0  0  0  0  0  0  0  0  0
   -0.3221  -46.5949  -19.7424 C   0  0  0  0  0  0  0  0  0  0  0  0
   -1.6176  -46.1005  -19.7944 F   0  0  0  0  0  0  0  0  0  0  0  0
   -0.4602  -47.9749  -19.8838 F   0  0  0  0  0  0  0  0  0  0  0  0
    0.2754  -46.3573  -17.9384 P   0  0  0  0  0  0  0  0  0  0  0  0
    1.5488  -47.0300  -17.5928 O   0  0  0  0  0  0  0  0  0  0  0  0
   -0.0273  -44.8126  -17.7577 O   0  0  0  0  0  0  0  0  0  0  0  0
   -0.8872  -47.0191  -16.9631 O   0  0  0  0  0  0  0  0  0  0  0  0
    0.8013  -44.2542  -17.8589 H   0  0  0  0  0  0  0  0  0  0  0  0
   -1.7024  -46.5152  -16.7740 H   0  0  0  0  0  0  0  0  0  0  0  0
    4.8476  -47.2938  -28.0534 H   0  0  0  0  0  0  0  0  0  0  0  0
    1.8932  -50.5277  -28.9337 H   0  0  0  0  0  0  0  0  0  0  0  0
    3.3224  -51.4019  -29.4053 H   0  0  0  0  0  0  0  0  0  0  0  0
    1.5213  -49.6847  -31.0925 H   0  0  0  0  0  0  0  0  0  0  0  0
    2.4977  -51.0326  -31.6123 H   0  0  0  0  0  0  0  0  0  0  0  0
    3.3351  -48.5250  -32.2408 H   0  0  0  0  0  0  0  0  0  0  0  0
    4.5203  -49.6749  -31.6375 H   0  0  0  0  0  0  0  0  0  0  0  0
    4.8164  -47.9195  -30.0519 H   0  0  0  0  0  0  0  0  0  0  0  0
    4.8949  -46.3736  -31.4683 H   0  0  0  0  0  0  0  0  0  0  0  0
    4.9217  -45.3237  -30.0384 H   0  0  0  0  0  0  0  0  0  0  0  0
    5.2083  -44.1979  -32.3394 H   0  0  0  0  0  0  0  0  0  0  0  0
    3.9904  -43.4852  -31.2760 H   0  0  0  0  0  0  0  0  0  0  0  0
    1.4413  -43.8561  -32.5372 H   0  0  0  0  0  0  0  0  0  0  0  0
    1.0142  -45.5282  -30.6017 H   0  0  0  0  0  0  0  0  0  0  0  0
    2.1274  -44.1994  -30.3573 H   0  0  0  0  0  0  0  0  0  0  0  0
    1.4542  -44.5974  -34.9878 H   0  0  0  0  0  0  0  0  0  0  0  0
    0.3807  -46.2370  -36.4998 H   0  0  0  0  0  0  0  0  0  0  0  0
   -0.3391  -48.4340  -35.6200 H   0  0  0  0  0  0  0  0  0  0  0  0
    0.0255  -48.9808  -33.2391 H   0  0  0  0  0  0  0  0  0  0  0  0
    1.0502  -47.3477  -31.7457 H   0  0  0  0  0  0  0  0  0  0  0  0
    7.6514  -49.8318  -26.0500 H   0  0  0  0  0  0  0  0  0  0  0  0
    6.0615  -50.5027  -26.4210 H   0  0  0  0  0  0  0  0  0  0  0  0
    6.2302  -49.2779  -25.1718 H   0  0  0  0  0  0  0  0  0  0  0  0
    8.2472  -47.4989  -26.7307 H   0  0  0  0  0  0  0  0  0  0  0  0
    6.8791  -46.9081  -25.7908 H   0  0  0  0  0  0  0  0  0  0  0  0
    7.0423  -46.4498  -27.4762 H   0  0  0  0  0  0  0  0  0  0  0  0
    7.9829  -49.2904  -28.4331 H   0  0  0  0  0  0  0  0  0  0  0  0
    6.8844  -48.2220  -29.2899 H   0  0  0  0  0  0  0  0  0  0  0  0
    6.3876  -49.8678  -28.8904 H   0  0  0  0  0  0  0  0  0  0  0  0
    1.9665  -47.8267  -24.4011 H   0  0  0  0  0  0  0  0  0  0  0  0
    0.4625  -47.7526  -22.0432 H   0  0  0  0  0  0  0  0  0  0  0  0
    0.5505  -43.9934  -19.9948 H   0  0  0  0  0  0  0  0  0  0  0  0
    2.3677  -43.1890  -21.4598 H   0  0  0  0  0  0  0  0  0  0  0  0
  1 27  1  0
  1  2  1  0
  1 49  1  6
  2  3  2  0
  2  4  1  0
  4  5  1  0
  5  6  1  0
  5 50  1  0
  5 51  1  0
  6  7  1  0
  6 52  1  0
  6 53  1  0
  7  8  1  0
  7 54  1  0
  7 55  1  0
  8  9  1  0
  8  4  1  0
  8 56  1  6
  9 10  2  0
  9 11  1  0
 11 12  1  0
 12 13  1  0
 12 57  1  0
 12 58  1  0
 13 14  1  0
 13 59  1  0
 13 60  1  0
 14 15  1  0
 15 17  1  0
 15 16  1  0
 15 61  1  1
 16 11  1  0
 16 62  1  0
 16 63  1  0
 17 18  2  0
 18 19  1  0
 18 64  1  0
 19 20  2  0
 19 65  1  0
 20 21  1  0
 20 66  1  0
 21 22  2  0
 21 67  1  0
 22 17  1  0
 22 68  1  0
 23 24  1  0
 23 69  1  0
 23 70  1  0
 23 71  1  0
 24 25  1  0
 24 26  1  0
 24  1  1  0
 25 72  1  0
 25 73  1  0
 25 74  1  0
 26 75  1  0
 26 76  1  0
 26 77  1  0
 27 28  1  0
 27 30  1  0
 28 29  2  0
 28 31  1  0
 31 32  2  0
 32 33  1  0
 32 78  1  0
 33 34  2  0
 34 35  1  0
 34 79  1  0
 35 40  1  0
 35 36  2  0
 36 37  1  0
 36 80  1  0
 37 38  2  0
 37 81  1  0
 38 39  1  0
 38 33  1  0
 39 31  1  0
 40 41  1  0
 40 42  1  0
 40 43  1  0
 43 44  2  0
 43 45  1  0
 43 46  1  0
 45 47  1  0
 46 48  1  0
M  END
>  <minimizedAffinity>  (6) 
-7.58723

>  <mol_id>  (6) 
94248

>  <source_index>  (6) 
5

>  <layer>  (6) 
L4

>  <uniprot>  (6) 
P42226

>  <paff>  (6) 
6.2441000000000004

>  <smiles>  (6) 
CC(C)(C)[C@H](NC(=O)c1cc2cc(C(F)(F)P(=O)(O)O)ccc2s1)C(=O)N1CCC[C@H]1C(=O)N1CCO[C@@H](c2ccccc2)C1

>  <aimnet_interaction_kcal_mol>  (6) 
-92.947349908709072

$$$$
L4:P42226:115838
     RDKit          3D

 87 92  0  0  0  0  0  0  0  0999 V2000
    3.8962  -47.9823  -28.4435 C   0  0  2  0  0  0  0  0  0  0  0  0
    3.2464  -46.9495  -29.3620 C   0  0  0  0  0  0  0  0  0  0  0  0
    2.0141  -46.8162  -29.3681 O   0  0  0  0  0  0  0  0  0  0  0  0
    4.0442  -46.1770  -30.1118 N   0  0  0  0  0  0  0  0  0  0  0  0
    5.5118  -46.0980  -30.0955 C   0  0  0  0  0  0  0  0  0  0  0  0
    5.7700  -44.8261  -30.8315 C   0  0  0  0  0  0  0  0  0  0  0  0
    6.9613  -44.1362  -30.9606 C   0  0  0  0  0  0  0  0  0  0  0  0
    6.9673  -42.9569  -31.6927 C   0  0  0  0  0  0  0  0  0  0  0  0
    5.7958  -42.4792  -32.2745 C   0  0  0  0  0  0  0  0  0  0  0  0
    4.6036  -43.1757  -32.1393 C   0  0  0  0  0  0  0  0  0  0  0  0
    4.6094  -44.3538  -31.4187 C   0  0  0  0  0  0  0  0  0  0  0  0
    3.4782  -45.2929  -31.1365 C   0  0  1  0  0  0  0  0  0  0  0  0
    3.1636  -46.1774  -32.3655 C   0  0  0  0  0  0  0  0  0  0  0  0
    4.0864  -46.7688  -32.9183 O   0  0  0  0  0  0  0  0  0  0  0  0
    1.8638  -46.3222  -32.7139 N   0  0  0  0  0  0  0  0  0  0  0  0
    0.7937  -45.4323  -32.2669 C   0  0  0  0  0  0  0  0  0  0  0  0
   -0.4544  -45.6399  -33.0991 C   0  0  0  0  0  0  0  0  0  0  0  0
   -0.0826  -45.7468  -34.5666 C   0  0  0  0  0  0  0  0  0  0  0  0
    0.8014  -46.9804  -34.8465 C   0  0  1  0  0  0  0  0  0  0  0  0
    1.4627  -47.4464  -33.5519 C   0  0  0  0  0  0  0  0  0  0  0  0
    0.0804  -48.0905  -35.5888 C   0  0  0  0  0  0  0  0  0  0  0  0
    0.1469  -49.4301  -35.2106 C   0  0  0  0  0  0  0  0  0  0  0  0
   -0.4603  -50.4214  -35.9734 C   0  0  0  0  0  0  0  0  0  0  0  0
   -1.1482  -50.0907  -37.1285 C   0  0  0  0  0  0  0  0  0  0  0  0
   -1.2492  -48.7596  -37.5086 C   0  0  0  0  0  0  0  0  0  0  0  0
   -0.6313  -47.7801  -36.7498 C   0  0  0  0  0  0  0  0  0  0  0  0
    4.1859  -49.6385  -30.2894 C   0  0  0  0  0  0  0  0  0  0  0  0
    3.6479  -49.4527  -28.8742 C   0  0  0  0  0  0  0  0  0  0  0  0
    4.4055  -50.3746  -27.9237 C   0  0  0  0  0  0  0  0  0  0  0  0
    2.1700  -49.8065  -28.8568 C   0  0  0  0  0  0  0  0  0  0  0  0
    3.4269  -47.7050  -27.1002 N   0  0  0  0  0  0  0  0  0  0  0  0
    4.0484  -46.7726  -26.3475 C   0  0  0  0  0  0  0  0  0  0  0  0
    5.0890  -46.2006  -26.6701 O   0  0  0  0  0  0  0  0  0  0  0  0
    2.4819  -47.9748  -26.8886 H   0  0  0  0  0  0  0  0  0  0  0  0
    3.3889  -46.4426  -25.0657 C   0  0  0  0  0  0  0  0  0  0  0  0
    2.4309  -47.1119  -24.3714 C   0  0  0  0  0  0  0  0  0  0  0  0
    2.0952  -46.4762  -23.1462 C   0  0  0  0  0  0  0  0  0  0  0  0
    1.2117  -46.9006  -22.1584 C   0  0  0  0  0  0  0  0  0  0  0  0
    1.0869  -46.1719  -20.9802 C   0  0  0  0  0  0  0  0  0  0  0  0
    1.7025  -44.9111  -20.8717 C   0  0  0  0  0  0  0  0  0  0  0  0
    2.5446  -44.4385  -21.8680 C   0  0  0  0  0  0  0  0  0  0  0  0
    2.8043  -45.2559  -22.9633 C   0  0  0  0  0  0  0  0  0  0  0  0
    3.9102  -44.9643  -24.2771 S   0  0  0  0  0  0  0  0  0  0  0  0
    0.2962  -46.8228  -19.8986 C   0  0  0  0  0  0  0  0  0  0  0  0
   -1.0574  -46.8420  -20.2316 F   0  0  0  0  0  0  0  0  0  0  0  0
    0.6558  -48.1546  -19.7466 F   0  0  0  0  0  0  0  0  0  0  0  0
    0.3093  -46.1243  -18.1135 P   0  0  0  0  0  0  0  0  0  0  0  0
   -0.2904  -47.1124  -17.1516 O   0  0  0  0  0  0  0  0  0  0  0  0
    1.7903  -45.6919  -17.7617 O   0  0  0  0  0  0  0  0  0  0  0  0
   -0.6000  -44.7972  -18.1849 O   0  0  0  0  0  0  0  0  0  0  0  0
    1.8703  -44.6987  -17.7852 H   0  0  0  0  0  0  0  0  0  0  0  0
   -0.4562  -44.1783  -18.9229 H   0  0  0  0  0  0  0  0  0  0  0  0
    4.9672  -47.8164  -28.4151 H   0  0  0  0  0  0  0  0  0  0  0  0
    5.9345  -46.9585  -30.6173 H   0  0  0  0  0  0  0  0  0  0  0  0
    5.8898  -46.0774  -29.0751 H   0  0  0  0  0  0  0  0  0  0  0  0
    7.8689  -44.5046  -30.4988 H   0  0  0  0  0  0  0  0  0  0  0  0
    7.8881  -42.4014  -31.8119 H   0  0  0  0  0  0  0  0  0  0  0  0
    5.8148  -41.5542  -32.8340 H   0  0  0  0  0  0  0  0  0  0  0  0
    3.6896  -42.7881  -32.5690 H   0  0  0  0  0  0  0  0  0  0  0  0
    2.6091  -44.7899  -30.7288 H   0  0  0  0  0  0  0  0  0  0  0  0
    1.1199  -44.3965  -32.3839 H   0  0  0  0  0  0  0  0  0  0  0  0
    0.5934  -45.5931  -31.2092 H   0  0  0  0  0  0  0  0  0  0  0  0
   -1.1289  -44.8005  -32.9280 H   0  0  0  0  0  0  0  0  0  0  0  0
   -0.9918  -46.5326  -32.7780 H   0  0  0  0  0  0  0  0  0  0  0  0
    0.4524  -44.8362  -34.8431 H   0  0  0  0  0  0  0  0  0  0  0  0
   -0.9829  -45.7746  -35.1705 H   0  0  0  0  0  0  0  0  0  0  0  0
    1.6077  -46.6511  -35.5044 H   0  0  0  0  0  0  0  0  0  0  0  0
    2.3577  -48.0317  -33.7379 H   0  0  0  0  0  0  0  0  0  0  0  0
    0.7655  -48.0569  -32.9774 H   0  0  0  0  0  0  0  0  0  0  0  0
    0.6898  -49.7344  -34.3282 H   0  0  0  0  0  0  0  0  0  0  0  0
   -0.3796  -51.4575  -35.6697 H   0  0  0  0  0  0  0  0  0  0  0  0
   -1.5867  -50.8687  -37.7433 H   0  0  0  0  0  0  0  0  0  0  0  0
   -1.8135  -48.4873  -38.3898 H   0  0  0  0  0  0  0  0  0  0  0  0
   -0.7005  -46.7527  -37.0793 H   0  0  0  0  0  0  0  0  0  0  0  0
    4.0319  -50.6664  -30.6113 H   0  0  0  0  0  0  0  0  0  0  0  0
    5.2538  -49.4230  -30.3404 H   0  0  0  0  0  0  0  0  0  0  0  0
    3.6727  -48.9942  -30.9988 H   0  0  0  0  0  0  0  0  0  0  0  0
    4.2423  -51.4105  -28.2138 H   0  0  0  0  0  0  0  0  0  0  0  0
    4.0654  -50.2590  -26.8970 H   0  0  0  0  0  0  0  0  0  0  0  0
    5.4781  -50.1821  -27.9497 H   0  0  0  0  0  0  0  0  0  0  0  0
    2.0141  -50.8309  -29.1857 H   0  0  0  0  0  0  0  0  0  0  0  0
    1.6140  -49.1616  -29.5309 H   0  0  0  0  0  0  0  0  0  0  0  0
    1.7546  -49.7283  -27.8556 H   0  0  0  0  0  0  0  0  0  0  0  0
    1.9545  -48.0131  -24.7231 H   0  0  0  0  0  0  0  0  0  0  0  0
    0.6403  -47.8038  -22.3099 H   0  0  0  0  0  0  0  0  0  0  0  0
    1.5093  -44.2570  -20.0327 H   0  0  0  0  0  0  0  0  0  0  0  0
    2.9348  -43.4305  -21.8192 H   0  0  0  0  0  0  0  0  0  0  0  0
  1 31  1  0
  1  2  1  0
  1 53  1  1
  2  3  2  0
  2  4  1  0
  4  5  1  0
  5  6  1  0
  5 54  1  0
  5 55  1  0
  6  7  2  0
  7  8  1  0
  7 56  1  0
  8  9  2  0
  8 57  1  0
  9 10  1  0
  9 58  1  0
 10 11  2  0
 10 59  1  0
 11 12  1  0
 11  6  1  0
 12 13  1  0
 12  4  1  0
 12 60  1  1
 13 14  2  0
 13 15  1  0
 15 16  1  0
 16 17  1  0
 16 61  1  0
 16 62  1  0
 17 18  1  0
 17 63  1  0
 17 64  1  0
 18 19  1  0
 18 65  1  0
 18 66  1  0
 19 21  1  0
 19 20  1  0
 19 67  1  6
 20 15  1  0
 20 68  1  0
 20 69  1  0
 21 22  2  0
 22 23  1  0
 22 70  1  0
 23 24  2  0
 23 71  1  0
 24 25  1  0
 24 72  1  0
 25 26  2  0
 25 73  1  0
 26 21  1  0
 26 74  1  0
 27 28  1  0
 27 75  1  0
 27 76  1  0
 27 77  1  0
 28 29  1  0
 28 30  1  0
 28  1  1  0
 29 78  1  0
 29 79  1  0
 29 80  1  0
 30 81  1  0
 30 82  1  0
 30 83  1  0
 31 32  1  0
 31 34  1  0
 32 33  2  0
 32 35  1  0
 35 36  2  0
 36 37  1  0
 36 84  1  0
 37 38  2  0
 38 39  1  0
 38 85  1  0
 39 44  1  0
 39 40  2  0
 40 41  1  0
 40 86  1  0
 41 42  2  0
 41 87  1  0
 42 43  1  0
 42 37  1  0
 43 35  1  0
 44 45  1  0
 44 46  1  0
 44 47  1  0
 47 48  2  0
 47 49  1  0
 47 50  1  0
 49 51  1  0
 50 52  1  0
M  END
>  <minimizedAffinity>  (7) 
-8.31022

>  <mol_id>  (7) 
115838

>  <source_index>  (7) 
6

>  <layer>  (7) 
L4

>  <uniprot>  (7) 
P42226

>  <paff>  (7) 
7.3768000000000002

>  <smiles>  (7) 
CC(C)(C)[C@H](NC(=O)c1cc2cc(C(F)(F)P(=O)(O)O)ccc2s1)C(=O)N1Cc2ccccc2[C@H]1C(=O)N1CCC[C@H](c2ccccc2)C1

>  <aimnet_interaction_kcal_mol>  (7) 
-113.88847913216554

$$$$
L4:P42226:120290
     RDKit          3D

 81 85  0  0  0  0  0  0  0  0999 V2000
  -11.5579  -36.7803  -23.0372 C   0  0  2  0  0  0  0  0  0  0  0  0
  -12.0108  -37.8404  -24.0508 C   0  0  0  0  0  0  0  0  0  0  0  0
  -11.4096  -38.9121  -24.1545 O   0  0  0  0  0  0  0  0  0  0  0  0
  -13.1115  -37.5441  -24.7826 N   0  0  0  0  0  0  0  0  0  0  0  0
  -14.1540  -36.5765  -24.3974 C   0  0  0  0  0  0  0  0  0  0  0  0
  -15.2384  -36.7806  -25.4447 C   0  0  0  0  0  0  0  0  0  0  0  0
  -15.0587  -38.2299  -25.8725 C   0  0  0  0  0  0  0  0  0  0  0  0
  -13.5348  -38.3803  -25.8969 C   0  0  1  0  0  0  0  0  0  0  0  0
  -12.9336  -37.8794  -27.2277 C   0  0  0  0  0  0  0  0  0  0  0  0
  -12.4414  -36.7617  -27.3155 O   0  0  0  0  0  0  0  0  0  0  0  0
  -12.9859  -38.7371  -28.2892 N   0  0  0  0  0  0  0  0  0  0  0  0
  -12.2702  -38.3974  -29.5158 C   0  0  0  0  0  0  0  0  0  0  0  0
  -13.0403  -38.8813  -30.7240 C   0  0  0  0  0  0  0  0  0  0  0  0
  -13.2081  -40.2990  -30.7298 O   0  0  0  0  0  0  0  0  0  0  0  0
  -13.3692  -40.8759  -29.4366 C   0  0  2  0  0  0  0  0  0  0  0  0
  -13.8858  -39.8686  -28.4082 C   0  0  0  0  0  0  0  0  0  0  0  0
  -12.1055  -41.5694  -28.9941 C   0  0  0  0  0  0  0  0  0  0  0  0
  -10.9288  -41.5388  -29.7354 C   0  0  0  0  0  0  0  0  0  0  0  0
   -9.7782  -42.1917  -29.3168 C   0  0  0  0  0  0  0  0  0  0  0  0
   -9.8235  -42.9134  -28.1415 C   0  0  0  0  0  0  0  0  0  0  0  0
   -8.7291  -43.5786  -27.6998 F   0  0  0  0  0  0  0  0  0  0  0  0
  -10.9737  -43.0086  -27.3870 C   0  0  0  0  0  0  0  0  0  0  0  0
  -12.0916  -42.3457  -27.8421 C   0  0  0  0  0  0  0  0  0  0  0  0
  -13.2399  -42.5106  -27.1295 F   0  0  0  0  0  0  0  0  0  0  0  0
   -9.0987  -36.7459  -23.7106 C   0  0  0  0  0  0  0  0  0  0  0  0
  -10.3552  -35.9131  -23.5041 C   0  0  0  0  0  0  0  0  0  0  0  0
  -10.0999  -34.8661  -22.4226 C   0  0  0  0  0  0  0  0  0  0  0  0
  -10.7357  -35.2212  -24.8070 C   0  0  0  0  0  0  0  0  0  0  0  0
  -11.2709  -37.4423  -21.7919 N   0  0  0  0  0  0  0  0  0  0  0  0
  -12.0521  -37.2340  -20.6953 C   0  0  0  0  0  0  0  0  0  0  0  0
  -13.1205  -36.6261  -20.7329 O   0  0  0  0  0  0  0  0  0  0  0  0
  -10.7244  -38.2833  -21.8753 H   0  0  0  0  0  0  0  0  0  0  0  0
  -11.4970  -37.7667  -19.4346 C   0  0  0  0  0  0  0  0  0  0  0  0
  -10.2035  -38.0188  -19.0875 C   0  0  0  0  0  0  0  0  0  0  0  0
  -10.0670  -38.6277  -17.8053 C   0  0  0  0  0  0  0  0  0  0  0  0
   -8.9068  -39.0529  -17.1482 C   0  0  0  0  0  0  0  0  0  0  0  0
   -9.0002  -39.6737  -15.9175 C   0  0  0  0  0  0  0  0  0  0  0  0
  -10.2621  -39.8942  -15.3436 C   0  0  0  0  0  0  0  0  0  0  0  0
  -11.4185  -39.4689  -15.9630 C   0  0  0  0  0  0  0  0  0  0  0  0
  -11.3254  -38.8191  -17.1883 C   0  0  0  0  0  0  0  0  0  0  0  0
  -12.6302  -38.1900  -18.1647 S   0  0  0  0  0  0  0  0  0  0  0  0
   -7.7900  -40.1311  -15.1518 C   0  0  0  0  0  0  0  0  0  0  0  0
   -7.9540  -39.8633  -13.8127 F   0  0  0  0  0  0  0  0  0  0  0  0
   -7.6399  -41.5058  -15.2460 F   0  0  0  0  0  0  0  0  0  0  0  0
   -6.1295  -39.3503  -15.6277 P   0  0  0  0  0  0  0  0  0  0  0  0
   -6.1083  -37.8787  -15.4837 O   0  0  0  0  0  0  0  0  0  0  0  0
   -5.8954  -39.8290  -17.1473 O   0  0  0  0  0  0  0  0  0  0  0  0
   -5.1022  -40.1151  -14.6573 O   0  0  0  0  0  0  0  0  0  0  0  0
   -5.3680  -40.6576  -17.2180 H   0  0  0  0  0  0  0  0  0  0  0  0
   -4.6067  -40.8315  -15.0868 H   0  0  0  0  0  0  0  0  0  0  0  0
  -12.3748  -36.1058  -22.8121 H   0  0  0  0  0  0  0  0  0  0  0  0
  -13.7660  -35.5614  -24.4042 H   0  0  0  0  0  0  0  0  0  0  0  0
  -14.5216  -36.7959  -23.3946 H   0  0  0  0  0  0  0  0  0  0  0  0
  -15.0614  -36.1215  -26.2910 H   0  0  0  0  0  0  0  0  0  0  0  0
  -16.2314  -36.5720  -25.0555 H   0  0  0  0  0  0  0  0  0  0  0  0
  -15.5304  -38.4465  -26.8277 H   0  0  0  0  0  0  0  0  0  0  0  0
  -15.4766  -38.9095  -25.1279 H   0  0  0  0  0  0  0  0  0  0  0  0
  -13.1904  -39.3965  -25.7191 H   0  0  0  0  0  0  0  0  0  0  0  0
  -11.2861  -38.8578  -29.4931 H   0  0  0  0  0  0  0  0  0  0  0  0
  -12.1287  -37.3219  -29.5535 H   0  0  0  0  0  0  0  0  0  0  0  0
  -12.5097  -38.6365  -31.6419 H   0  0  0  0  0  0  0  0  0  0  0  0
  -14.0182  -38.3885  -30.7696 H   0  0  0  0  0  0  0  0  0  0  0  0
  -14.1484  -41.6360  -29.5394 H   0  0  0  0  0  0  0  0  0  0  0  0
  -13.9943  -40.3599  -27.4511 H   0  0  0  0  0  0  0  0  0  0  0  0
  -14.8801  -39.5461  -28.7285 H   0  0  0  0  0  0  0  0  0  0  0  0
  -10.9168  -40.9931  -30.6672 H   0  0  0  0  0  0  0  0  0  0  0  0
   -8.8667  -42.1326  -29.8942 H   0  0  0  0  0  0  0  0  0  0  0  0
  -11.0068  -43.5901  -26.4825 H   0  0  0  0  0  0  0  0  0  0  0  0
   -8.3014  -36.1245  -24.1119 H   0  0  0  0  0  0  0  0  0  0  0  0
   -9.2752  -37.5569  -24.4068 H   0  0  0  0  0  0  0  0  0  0  0  0
   -8.7344  -37.1721  -22.7773 H   0  0  0  0  0  0  0  0  0  0  0  0
   -9.2878  -34.2045  -22.7198 H   0  0  0  0  0  0  0  0  0  0  0  0
   -9.8220  -35.3273  -21.4783 H   0  0  0  0  0  0  0  0  0  0  0  0
  -10.9857  -34.2569  -22.2475 H   0  0  0  0  0  0  0  0  0  0  0  0
   -9.9476  -34.5470  -25.1346 H   0  0  0  0  0  0  0  0  0  0  0  0
  -11.6420  -34.6276  -24.6790 H   0  0  0  0  0  0  0  0  0  0  0  0
  -10.9182  -35.9338  -25.6052 H   0  0  0  0  0  0  0  0  0  0  0  0
   -9.3668  -37.7921  -19.7358 H   0  0  0  0  0  0  0  0  0  0  0  0
   -7.9530  -38.9045  -17.6262 H   0  0  0  0  0  0  0  0  0  0  0  0
  -10.3213  -40.4074  -14.3936 H   0  0  0  0  0  0  0  0  0  0  0  0
  -12.3799  -39.6508  -15.5041 H   0  0  0  0  0  0  0  0  0  0  0  0
  1 29  1  0
  1  2  1  0
  1 51  1  1
  2  3  2  0
  2  4  1  0
  4  5  1  0
  5  6  1  0
  5 52  1  0
  5 53  1  0
  6  7  1  0
  6 54  1  0
  6 55  1  0
  7  8  1  0
  7 56  1  0
  7 57  1  0
  8  9  1  0
  8  4  1  0
  8 58  1  1
  9 10  2  0
  9 11  1  0
 11 12  1  0
 12 13  1  0
 12 59  1  0
 12 60  1  0
 13 14  1  0
 13 61  1  0
 13 62  1  0
 14 15  1  0
 15 17  1  0
 15 16  1  0
 15 63  1  6
 16 11  1  0
 16 64  1  0
 16 65  1  0
 17 18  2  0
 18 19  1  0
 18 66  1  0
 19 20  2  0
 19 67  1  0
 20 21  1  0
 20 22  1  0
 22 23  2  0
 22 68  1  0
 23 24  1  0
 23 17  1  0
 25 26  1  0
 25 69  1  0
 25 70  1  0
 25 71  1  0
 26 27  1  0
 26 28  1  0
 26  1  1  0
 27 72  1  0
 27 73  1  0
 27 74  1  0
 28 75  1  0
 28 76  1  0
 28 77  1  0
 29 30  1  0
 29 32  1  0
 30 31  2  0
 30 33  1  0
 33 34  2  0
 34 35  1  0
 34 78  1  0
 35 36  2  0
 36 37  1  0
 36 79  1  0
 37 42  1  0
 37 38  2  0
 38 39  1  0
 38 80  1  0
 39 40  2  0
 39 81  1  0
 40 41  1  0
 40 35  1  0
 41 33  1  0
 42 43  1  0
 42 44  1  0
 42 45  1  0
 45 46  2  0
 45 47  1  0
 45 48  1  0
 47 49  1  0
 48 50  1  0
M  END
>  <minimizedAffinity>  (8) 
-8.08148

>  <mol_id>  (8) 
120290

>  <source_index>  (8) 
7

>  <layer>  (8) 
L4

>  <uniprot>  (8) 
P42226

>  <paff>  (8) 
6.3768000000000002

>  <smiles>  (8) 
CC(C)(C)[C@H](NC(=O)c1cc2cc(C(F)(F)P(=O)(O)O)ccc2s1)C(=O)N1CCC[C@H]1C(=O)N1CCOC(c2ccc(F)cc2F)C1

>  <aimnet_interaction_kcal_mol>  (8) 
-63.051478871303075

$$$$
L4:P42226:125214
     RDKit          3D

 82 86  0  0  0  0  0  0  0  0999 V2000
    3.7374  -48.0459  -28.2372 C   0  0  2  0  0  0  0  0  0  0  0  0
    2.8919  -47.2929  -29.2632 C   0  0  0  0  0  0  0  0  0  0  0  0
    1.6663  -47.4605  -29.3108 O   0  0  0  0  0  0  0  0  0  0  0  0
    3.4807  -46.4068  -30.0810 N   0  0  0  0  0  0  0  0  0  0  0  0
    4.8696  -45.9237  -30.0659 C   0  0  0  0  0  0  0  0  0  0  0  0
    5.0103  -45.2035  -31.4087 C   0  0  1  0  0  0  0  0  0  0  0  0
    5.4534  -46.0748  -32.4307 O   0  0  0  0  0  0  0  0  0  0  0  0
    3.6094  -44.6423  -31.6355 C   0  0  0  0  0  0  0  0  0  0  0  0
    2.6701  -45.7250  -31.0889 C   0  0  1  0  0  0  0  0  0  0  0  0
    4.7537  -46.7394  -32.5731 H   0  0  0  0  0  0  0  0  0  0  0  0
    2.2482  -46.7043  -32.1855 C   0  0  0  0  0  0  0  0  0  0  0  0
    3.0287  -47.5802  -32.5581 O   0  0  0  0  0  0  0  0  0  0  0  0
    1.0101  -46.5596  -32.7164 N   0  0  0  0  0  0  0  0  0  0  0  0
    0.2688  -45.3151  -32.7870 C   0  0  0  0  0  0  0  0  0  0  0  0
    0.1656  -44.8747  -34.2359 C   0  0  0  0  0  0  0  0  0  0  0  0
   -0.4038  -45.8918  -35.0337 O   0  0  0  0  0  0  0  0  0  0  0  0
    0.3605  -47.0979  -35.0124 C   0  0  1  0  0  0  0  0  0  0  0  0
    0.4601  -47.6047  -33.5721 C   0  0  0  0  0  0  0  0  0  0  0  0
   -0.2635  -48.0754  -35.9748 C   0  0  0  0  0  0  0  0  0  0  0  0
   -0.0244  -49.4420  -35.8490 C   0  0  0  0  0  0  0  0  0  0  0  0
   -0.4617  -50.3263  -36.8248 C   0  0  0  0  0  0  0  0  0  0  0  0
   -1.1565  -49.8530  -37.9273 C   0  0  0  0  0  0  0  0  0  0  0  0
   -1.4454  -48.5017  -38.0383 C   0  0  0  0  0  0  0  0  0  0  0  0
   -1.0133  -47.6224  -37.0570 C   0  0  0  0  0  0  0  0  0  0  0  0
    2.5125  -50.2830  -28.1249 C   0  0  0  0  0  0  0  0  0  0  0  0
    3.8031  -49.5737  -28.5087 C   0  0  0  0  0  0  0  0  0  0  0  0
    4.9539  -50.1419  -27.6854 C   0  0  0  0  0  0  0  0  0  0  0  0
    4.0708  -49.8056  -29.9891 C   0  0  0  0  0  0  0  0  0  0  0  0
    3.2340  -47.7476  -26.9091 N   0  0  0  0  0  0  0  0  0  0  0  0
    3.8272  -46.8148  -26.1324 C   0  0  0  0  0  0  0  0  0  0  0  0
    4.8457  -46.1992  -26.4493 O   0  0  0  0  0  0  0  0  0  0  0  0
    2.3445  -48.1464  -26.6543 H   0  0  0  0  0  0  0  0  0  0  0  0
    3.1708  -46.5226  -24.8340 C   0  0  0  0  0  0  0  0  0  0  0  0
    2.2140  -47.1943  -24.1357 C   0  0  0  0  0  0  0  0  0  0  0  0
    1.8687  -46.5565  -22.9091 C   0  0  0  0  0  0  0  0  0  0  0  0
    0.9678  -46.9683  -21.9285 C   0  0  0  0  0  0  0  0  0  0  0  0
    0.7158  -46.1604  -20.8269 C   0  0  0  0  0  0  0  0  0  0  0  0
    1.2788  -44.8680  -20.7718 C   0  0  0  0  0  0  0  0  0  0  0  0
    2.2282  -44.4631  -21.6958 C   0  0  0  0  0  0  0  0  0  0  0  0
    2.5625  -45.3278  -22.7332 C   0  0  0  0  0  0  0  0  0  0  0  0
    3.7001  -45.0535  -24.0268 S   0  0  0  0  0  0  0  0  0  0  0  0
   -0.1453  -46.7029  -19.7453 C   0  0  0  0  0  0  0  0  0  0  0  0
   -0.2053  -48.0966  -19.7760 F   0  0  0  0  0  0  0  0  0  0  0  0
   -1.4664  -46.2912  -19.8724 F   0  0  0  0  0  0  0  0  0  0  0  0
    0.3622  -46.3078  -17.9330 P   0  0  0  0  0  0  0  0  0  0  0  0
    1.6553  -46.8785  -17.4930 O   0  0  0  0  0  0  0  0  0  0  0  0
   -0.0391  -44.7753  -17.8713 O   0  0  0  0  0  0  0  0  0  0  0  0
   -0.8048  -46.9901  -16.9714 O   0  0  0  0  0  0  0  0  0  0  0  0
    0.7833  -44.1947  -17.9092 H   0  0  0  0  0  0  0  0  0  0  0  0
   -1.6400  -46.5056  -16.8310 H   0  0  0  0  0  0  0  0  0  0  0  0
    4.7454  -47.6515  -28.2522 H   0  0  0  0  0  0  0  0  0  0  0  0
    5.5726  -46.7467  -29.9832 H   0  0  0  0  0  0  0  0  0  0  0  0
    5.0260  -45.2313  -29.2394 H   0  0  0  0  0  0  0  0  0  0  0  0
    5.7540  -44.4104  -31.3356 H   0  0  0  0  0  0  0  0  0  0  0  0
    3.4363  -44.4244  -32.6874 H   0  0  0  0  0  0  0  0  0  0  0  0
    3.4674  -43.7284  -31.0617 H   0  0  0  0  0  0  0  0  0  0  0  0
    1.7904  -45.3161  -30.6000 H   0  0  0  0  0  0  0  0  0  0  0  0
    0.7542  -44.5534  -32.1880 H   0  0  0  0  0  0  0  0  0  0  0  0
   -0.7316  -45.4806  -32.3859 H   0  0  0  0  0  0  0  0  0  0  0  0
    1.1552  -44.5982  -34.6233 H   0  0  0  0  0  0  0  0  0  0  0  0
   -0.4902  -44.0099  -34.3320 H   0  0  0  0  0  0  0  0  0  0  0  0
    1.3818  -46.8781  -35.3587 H   0  0  0  0  0  0  0  0  0  0  0  0
    1.1062  -48.4690  -33.4824 H   0  0  0  0  0  0  0  0  0  0  0  0
   -0.5368  -47.8581  -33.2141 H   0  0  0  0  0  0  0  0  0  0  0  0
    0.5165  -49.8343  -34.9990 H   0  0  0  0  0  0  0  0  0  0  0  0
   -0.2511  -51.3838  -36.7283 H   0  0  0  0  0  0  0  0  0  0  0  0
   -1.4727  -50.5376  -38.7050 H   0  0  0  0  0  0  0  0  0  0  0  0
   -2.0277  -48.1353  -38.8713 H   0  0  0  0  0  0  0  0  0  0  0  0
   -1.2730  -46.5781  -37.1367 H   0  0  0  0  0  0  0  0  0  0  0  0
    2.5341  -51.3106  -28.4746 H   0  0  0  0  0  0  0  0  0  0  0  0
    1.6429  -49.8190  -28.5807 H   0  0  0  0  0  0  0  0  0  0  0  0
    2.3697  -50.3127  -27.0477 H   0  0  0  0  0  0  0  0  0  0  0  0
    4.9981  -51.2218  -27.8137 H   0  0  0  0  0  0  0  0  0  0  0  0
    4.8366  -49.9341  -26.6230 H   0  0  0  0  0  0  0  0  0  0  0  0
    5.9095  -49.7287  -28.0066 H   0  0  0  0  0  0  0  0  0  0  0  0
    4.2567  -50.8620  -30.1704 H   0  0  0  0  0  0  0  0  0  0  0  0
    4.9395  -49.2438  -30.3326 H   0  0  0  0  0  0  0  0  0  0  0  0
    3.2163  -49.5214  -30.5962 H   0  0  0  0  0  0  0  0  0  0  0  0
    1.7415  -48.0971  -24.4921 H   0  0  0  0  0  0  0  0  0  0  0  0
    0.4701  -47.9165  -22.0351 H   0  0  0  0  0  0  0  0  0  0  0  0
    0.9133  -44.1424  -20.0618 H   0  0  0  0  0  0  0  0  0  0  0  0
    2.6379  -43.4628  -21.6556 H   0  0  0  0  0  0  0  0  0  0  0  0
  1 29  1  0
  1  2  1  0
  1 51  1  1
  2  3  2  0
  2  4  1  0
  4  5  1  0
  5  6  1  0
  5 52  1  0
  5 53  1  0
  6  7  1  0
  6  8  1  0
  6 54  1  1
  7 10  1  0
  8  9  1  0
  8 55  1  0
  8 56  1  0
  9 11  1  0
  9  4  1  0
  9 57  1  1
 11 12  2  0
 11 13  1  0
 13 14  1  0
 14 15  1  0
 14 58  1  0
 14 59  1  0
 15 16  1  0
 15 60  1  0
 15 61  1  0
 16 17  1  0
 17 19  1  0
 17 18  1  0
 17 62  1  6
 18 13  1  0
 18 63  1  0
 18 64  1  0
 19 20  2  0
 20 21  1  0
 20 65  1  0
 21 22  2  0
 21 66  1  0
 22 23  1  0
 22 67  1  0
 23 24  2  0
 23 68  1  0
 24 19  1  0
 24 69  1  0
 25 26  1  0
 25 70  1  0
 25 71  1  0
 25 72  1  0
 26 27  1  0
 26 28  1  0
 26  1  1  0
 27 73  1  0
 27 74  1  0
 27 75  1  0
 28 76  1  0
 28 77  1  0
 28 78  1  0
 29 30  1  0
 29 32  1  0
 30 31  2  0
 30 33  1  0
 33 34  2  0
 34 35  1  0
 34 79  1  0
 35 36  2  0
 36 37  1  0
 36 80  1  0
 37 42  1  0
 37 38  2  0
 38 39  1  0
 38 81  1  0
 39 40  2  0
 39 82  1  0
 40 41  1  0
 40 35  1  0
 41 33  1  0
 42 43  1  0
 42 44  1  0
 42 45  1  0
 45 46  2  0
 45 47  1  0
 45 48  1  0
 47 49  1  0
 48 50  1  0
M  END
>  <minimizedAffinity>  (9) 
-7.86575

>  <mol_id>  (9) 
125214

>  <source_index>  (9) 
8

>  <layer>  (9) 
L4

>  <uniprot>  (9) 
P42226

>  <paff>  (9) 
8

>  <smiles>  (9) 
CC(C)(C)[C@H](NC(=O)c1cc2cc(C(F)(F)P(=O)(O)O)ccc2s1)C(=O)N1C[C@@H](O)C[C@H]1C(=O)N1CCO[C@H](c2ccccc2)C1

>  <aimnet_interaction_kcal_mol>  (9) 
-94.633723550576818

$$$$
L4:P42226:143645
     RDKit          3D

 84 88  0  0  0  0  0  0  0  0999 V2000
    1.5386  -47.0682  -20.1211 C   0  0  2  0  0  0  0  0  0  0  0  0
    1.9209  -48.0739  -19.0067 C   0  0  0  0  0  0  0  0  0  0  0  0
    1.2364  -48.0549  -17.9539 O   0  0  0  0  0  0  0  0  0  0  0  0
    3.0196  -48.8644  -19.0828 N   0  0  0  0  0  0  0  0  0  0  0  0
    3.5819  -49.3309  -17.8051 C   0  0  0  0  0  0  0  0  0  0  0  0
    5.0956  -49.3260  -17.8176 C   0  0  0  0  0  0  0  0  0  0  0  0
    5.6345  -50.1193  -18.9893 C   0  0  0  0  0  0  0  0  0  0  0  0
    5.0700  -49.5548  -20.2757 C   0  0  0  0  0  0  0  0  0  0  0  0
    3.5398  -49.5357  -20.2858 C   0  0  1  0  0  0  0  0  0  0  0  0
    2.9286  -50.9255  -20.4470 C   0  0  0  0  0  0  0  0  0  0  0  0
    2.3987  -51.5279  -19.5055 O   0  0  0  0  0  0  0  0  0  0  0  0
    3.0134  -51.4547  -21.6988 N   0  0  0  0  0  0  0  0  0  0  0  0
    2.5472  -52.8434  -21.8110 C   0  0  0  0  0  0  0  0  0  0  0  0
    2.6758  -53.3971  -23.2033 C   0  0  0  0  0  0  0  0  0  0  0  0
    2.1815  -52.4525  -24.1522 O   0  0  0  0  0  0  0  0  0  0  0  0
    3.0136  -51.2898  -24.2178 C   0  0  1  0  0  0  0  0  0  0  0  0
    2.9925  -50.5750  -22.8821 C   0  0  0  0  0  0  0  0  0  0  0  0
    4.3709  -51.6169  -24.7619 C   0  0  0  0  0  0  0  0  0  0  0  0
    5.5362  -51.5521  -24.0083 C   0  0  0  0  0  0  0  0  0  0  0  0
    6.7635  -51.8414  -24.5869 C   0  0  0  0  0  0  0  0  0  0  0  0
    6.8352  -52.2176  -25.9195 C   0  0  0  0  0  0  0  0  0  0  0  0
    5.6724  -52.3185  -26.6684 C   0  0  0  0  0  0  0  0  0  0  0  0
    4.4507  -52.0165  -26.0940 C   0  0  0  0  0  0  0  0  0  0  0  0
   -0.5655  -46.0888  -19.0521 C   0  0  0  0  0  0  0  0  0  0  0  0
    0.0029  -46.8533  -20.2492 C   0  0  0  0  0  0  0  0  0  0  0  0
   -0.2678  -45.9803  -21.4728 C   0  0  0  0  0  0  0  0  0  0  0  0
   -0.6679  -48.2062  -20.4483 C   0  0  0  0  0  0  0  0  0  0  0  0
    2.1005  -47.3177  -21.4170 N   0  0  0  0  0  0  0  0  0  0  0  0
    3.2856  -46.7318  -21.8108 C   0  0  0  0  0  0  0  0  0  0  0  0
    3.9683  -46.0819  -21.0251 O   0  0  0  0  0  0  0  0  0  0  0  0
    1.5104  -47.7035  -22.1375 H   0  0  0  0  0  0  0  0  0  0  0  0
    3.6780  -47.0595  -23.1862 C   0  0  0  0  0  0  0  0  0  0  0  0
    2.9261  -47.3946  -24.2838 C   0  0  0  0  0  0  0  0  0  0  0  0
    3.6917  -47.9052  -25.3725 C   0  0  0  0  0  0  0  0  0  0  0  0
    3.2504  -48.3711  -26.6200 C   0  0  0  0  0  0  0  0  0  0  0  0
    4.1688  -48.8483  -27.5309 C   0  0  0  0  0  0  0  0  0  0  0  0
    5.5334  -48.8828  -27.1922 C   0  0  0  0  0  0  0  0  0  0  0  0
    5.9918  -48.4307  -25.9762 C   0  0  0  0  0  0  0  0  0  0  0  0
    5.0739  -47.9241  -25.0668 C   0  0  0  0  0  0  0  0  0  0  0  0
    5.4011  -47.2741  -23.4772 S   0  0  0  0  0  0  0  0  0  0  0  0
    3.8077  -49.3504  -28.9040 C   0  0  0  0  0  0  0  0  0  0  0  0
    4.1879  -50.6843  -29.0278 F   0  0  0  0  0  0  0  0  0  0  0  0
    4.5707  -48.6700  -29.8322 F   0  0  0  0  0  0  0  0  0  0  0  0
    1.9948  -49.2298  -29.4726 P   0  0  0  0  0  0  0  0  0  0  0  0
    1.5996  -47.7923  -29.3071 O   0  0  0  0  0  0  0  0  0  0  0  0
    2.1183  -49.5600  -31.0700 O   0  0  0  0  0  0  0  0  0  0  0  0
    1.2255  -50.3512  -28.7804 O   0  0  0  0  0  0  0  0  0  0  0  0
    2.2093  -50.5102  -31.2196 H   0  0  0  0  0  0  0  0  0  0  0  0
    0.7332  -51.7043  -29.6645 H   0  0  0  0  0  0  0  0  0  0  0  0
    1.9757  -46.1250  -19.7784 H   0  0  0  0  0  0  0  0  0  0  0  0
    3.2135  -50.3344  -17.5947 H   0  0  0  0  0  0  0  0  0  0  0  0
    3.2121  -48.6691  -17.0301 H   0  0  0  0  0  0  0  0  0  0  0  0
    5.4537  -49.7386  -16.8724 H   0  0  0  0  0  0  0  0  0  0  0  0
    5.4533  -48.2948  -17.8727 H   0  0  0  0  0  0  0  0  0  0  0  0
    5.3444  -51.1665  -18.8871 H   0  0  0  0  0  0  0  0  0  0  0  0
    6.7241  -50.0873  -19.0157 H   0  0  0  0  0  0  0  0  0  0  0  0
    5.4183  -50.1292  -21.1320 H   0  0  0  0  0  0  0  0  0  0  0  0
    5.4214  -48.5353  -20.4260 H   0  0  0  0  0  0  0  0  0  0  0  0
    3.2512  -48.9520  -21.1384 H   0  0  0  0  0  0  0  0  0  0  0  0
    1.5080  -52.8919  -21.4822 H   0  0  0  0  0  0  0  0  0  0  0  0
    3.1104  -53.4498  -21.1029 H   0  0  0  0  0  0  0  0  0  0  0  0
    2.0744  -54.2945  -23.3148 H   0  0  0  0  0  0  0  0  0  0  0  0
    3.7149  -53.6436  -23.4195 H   0  0  0  0  0  0  0  0  0  0  0  0
    2.5228  -50.6191  -24.9214 H   0  0  0  0  0  0  0  0  0  0  0  0
    2.0887  -49.9708  -22.8402 H   0  0  0  0  0  0  0  0  0  0  0  0
    3.8249  -49.8890  -22.8500 H   0  0  0  0  0  0  0  0  0  0  0  0
    5.5066  -51.2833  -22.9637 H   0  0  0  0  0  0  0  0  0  0  0  0
    7.6640  -51.7691  -23.9904 H   0  0  0  0  0  0  0  0  0  0  0  0
    7.7930  -52.4279  -26.3744 H   0  0  0  0  0  0  0  0  0  0  0  0
    5.7197  -52.6137  -27.7067 H   0  0  0  0  0  0  0  0  0  0  0  0
    3.5505  -52.0715  -26.6918 H   0  0  0  0  0  0  0  0  0  0  0  0
   -1.6270  -45.8873  -19.2172 H   0  0  0  0  0  0  0  0  0  0  0  0
   -0.0589  -45.1289  -18.9783 H   0  0  0  0  0  0  0  0  0  0  0  0
   -0.4586  -46.6138  -18.1106 H   0  0  0  0  0  0  0  0  0  0  0  0
   -1.2897  -45.6154  -21.4486 H   0  0  0  0  0  0  0  0  0  0  0  0
   -0.1649  -46.5094  -22.4182 H   0  0  0  0  0  0  0  0  0  0  0  0
    0.3987  -45.1217  -21.4920 H   0  0  0  0  0  0  0  0  0  0  0  0
   -1.7206  -48.0957  -20.7087 H   0  0  0  0  0  0  0  0  0  0  0  0
   -0.5322  -48.8379  -19.5751 H   0  0  0  0  0  0  0  0  0  0  0  0
   -0.2119  -48.7404  -21.2763 H   0  0  0  0  0  0  0  0  0  0  0  0
    1.8522  -47.2780  -24.3432 H   0  0  0  0  0  0  0  0  0  0  0  0
    2.1925  -48.3798  -26.8294 H   0  0  0  0  0  0  0  0  0  0  0  0
    6.2319  -49.2782  -27.9168 H   0  0  0  0  0  0  0  0  0  0  0  0
    7.0419  -48.4886  -25.7293 H   0  0  0  0  0  0  0  0  0  0  0  0
  1 28  1  0
  1  2  1  0
  1 50  1  1
  2  3  2  0
  2  4  1  0
  4  5  1  0
  5  6  1  0
  5 51  1  0
  5 52  1  0
  6  7  1  0
  6 53  1  0
  6 54  1  0
  7  8  1  0
  7 55  1  0
  7 56  1  0
  8  9  1  0
  8 57  1  0
  8 58  1  0
  9 10  1  0
  9  4  1  0
  9 59  1  6
 10 11  2  0
 10 12  1  0
 12 13  1  0
 13 14  1  0
 13 60  1  0
 13 61  1  0
 14 15  1  0
 14 62  1  0
 14 63  1  0
 15 16  1  0
 16 18  1  0
 16 17  1  0
 16 64  1  6
 17 12  1  0
 17 65  1  0
 17 66  1  0
 18 19  2  0
 19 20  1  0
 19 67  1  0
 20 21  2  0
 20 68  1  0
 21 22  1  0
 21 69  1  0
 22 23  2  0
 22 70  1  0
 23 18  1  0
 23 71  1  0
 24 25  1  0
 24 72  1  0
 24 73  1  0
 24 74  1  0
 25 26  1  0
 25 27  1  0
 25  1  1  0
 26 75  1  0
 26 76  1  0
 26 77  1  0
 27 78  1  0
 27 79  1  0
 27 80  1  0
 28 29  1  0
 28 31  1  0
 29 30  2  0
 29 32  1  0
 32 33  2  0
 33 34  1  0
 33 81  1  0
 34 35  2  0
 35 36  1  0
 35 82  1  0
 36 41  1  0
 36 37  2  0
 37 38  1  0
 37 83  1  0
 38 39  2  0
 38 84  1  0
 39 40  1  0
 39 34  1  0
 40 32  1  0
 41 42  1  0
 41 43  1  0
 41 44  1  0
 44 45  2  0
 44 46  1  0
 44 47  1  0
 46 48  1  0
 47 49  1  0
M  END
>  <minimizedAffinity>  (10) 
-6.22687

>  <mol_id>  (10) 
143645

>  <source_index>  (10) 
9

>  <layer>  (10) 
L4

>  <uniprot>  (10) 
P42226

>  <paff>  (10) 
6.9585999999999997

>  <smiles>  (10) 
CC(C)(C)[C@H](NC(=O)c1cc2cc(C(F)(F)P(=O)(O)O)ccc2s1)C(=O)N1CCCC[C@H]1C(=O)N1CCO[C@H](c2ccccc2)C1

>  <aimnet_interaction_kcal_mol>  (10) 
-183.97316577897928

$$$$
