L4:P42226:11604
     RDKit          3D

 90 95  0  0  0  0  0  0  0  0999 V2000
    3.9803  -48.1925  -28.4510 C   0  0  1  0  0  0  0  0  0  0  0  0
    3.6433  -47.0621  -29.4468 C   0  0  0  0  0  0  0  0  0  0  0  0
    2.8768  -46.1463  -29.1292 O   0  0  0  0  0  0  0  0  0  0  0  0
    4.1484  -47.1669  -30.7235 N   0  0  0  0  0  0  0  0  0  0  0  0
    5.1854  -48.0700  -31.1923 C   0  0  0  0  0  0  0  0  0  0  0  0
    5.2414  -47.8509  -32.6971 C   0  0  0  0  0  0  0  0  0  0  0  0
    4.7531  -46.4138  -32.8646 C   0  0  0  0  0  0  0  0  0  0  0  0
    3.6762  -46.2832  -31.7888 C   0  0  1  0  0  0  0  0  0  0  0  0
    2.2979  -46.7794  -32.3104 C   0  0  0  0  0  0  0  0  0  0  0  0
    2.1293  -47.9572  -32.6480 O   0  0  0  0  0  0  0  0  0  0  0  0
    1.2762  -45.8520  -32.4515 N   0  0  0  0  0  0  0  0  0  0  0  0
   -0.0060  -46.2895  -33.0070 C   0  0  0  0  0  0  0  0  0  0  0  0
   -0.7289  -45.1260  -33.6919 C   0  0  0  0  0  0  0  0  0  0  0  0
   -0.9968  -44.0187  -32.8239 O   0  0  0  0  0  0  0  0  0  0  0  0
   -0.0950  -43.9047  -31.7070 C   0  0  1  0  0  0  0  0  0  0  0  0
    1.3199  -44.4497  -32.0158 C   0  0  0  0  0  0  0  0  0  0  0  0
   -0.0313  -42.4556  -31.2675 C   0  0  0  0  0  0  0  0  0  0  0  0
    0.3301  -41.4559  -32.1854 C   0  0  0  0  0  0  0  0  0  0  0  0
    0.3683  -40.1146  -31.7980 C   0  0  0  0  0  0  0  0  0  0  0  0
    0.0398  -39.7556  -30.4936 C   0  0  0  0  0  0  0  0  0  0  0  0
   -0.3221  -40.7360  -29.5726 C   0  0  0  0  0  0  0  0  0  0  0  0
   -0.3589  -42.0783  -29.9565 C   0  0  0  0  0  0  0  0  0  0  0  0
    3.4152  -47.8190  -27.1588 N   0  0  0  0  0  0  0  0  0  0  0  0
    4.1790  -47.2127  -26.1824 C   0  0  0  0  0  0  0  0  0  0  0  0
    5.3937  -47.0858  -26.3271 O   0  0  0  0  0  0  0  0  0  0  0  0
    2.4208  -47.6319  -27.1673 H   0  0  0  0  0  0  0  0  0  0  0  0
    3.4456  -46.7838  -24.9956 C   0  0  0  0  0  0  0  0  0  0  0  0
    2.4176  -47.3911  -24.3005 C   0  0  0  0  0  0  0  0  0  0  0  0
    2.0036  -46.6622  -23.1341 C   0  0  0  0  0  0  0  0  0  0  0  0
    1.0105  -46.9569  -22.1679 C   0  0  0  0  0  0  0  0  0  0  0  0
    0.7857  -46.0999  -21.0742 C   0  0  0  0  0  0  0  0  0  0  0  0
    1.5553  -44.9402  -20.9512 C   0  0  0  0  0  0  0  0  0  0  0  0
    2.5334  -44.6207  -21.8959 C   0  0  0  0  0  0  0  0  0  0  0  0
    2.7462  -45.4923  -22.9801 C   0  0  0  0  0  0  0  0  0  0  0  0
    3.8877  -45.3057  -24.2490 S   0  0  0  0  0  0  0  0  0  0  0  0
   -0.2744  -46.4239  -20.0521 C   0  0  0  0  0  0  0  0  0  0  0  0
   -1.5095  -45.9359  -20.3658 F   0  0  0  0  0  0  0  0  0  0  0  0
   -0.4368  -47.7651  -19.8563 F   0  0  0  0  0  0  0  0  0  0  0  0
   -0.0791  -45.8327  -18.3568 P   0  0  0  0  0  0  0  0  0  0  0  0
    1.2288  -45.9955  -17.6412 O   0  0  0  0  0  0  0  0  0  0  0  0
   -0.5228  -44.2798  -18.3102 O   0  0  0  0  0  0  0  0  0  0  0  0
   -1.2632  -46.4662  -17.4625 O   0  0  0  0  0  0  0  0  0  0  0  0
   -0.2245  -43.8383  -17.4924 H   0  0  0  0  0  0  0  0  0  0  0  0
   -1.0966  -46.3621  -16.5058 H   0  0  0  0  0  0  0  0  0  0  0  0
    3.3632  -49.5029  -28.9748 C   0  0  0  0  0  0  0  0  0  0  0  0
    5.9888  -52.3281  -25.1125 C   0  0  0  0  0  0  0  0  0  0  0  0
    5.6454  -51.2316  -26.0133 N   0  0  0  0  0  0  0  0  0  0  0  0
    4.1986  -50.9814  -26.0571 C   0  0  0  0  0  0  0  0  0  0  0  0
    3.5330  -51.4501  -27.3508 C   0  0  0  0  0  0  0  0  0  0  0  0
    4.1502  -50.7760  -28.5943 C   0  0  0  0  0  0  0  0  0  0  0  0
    5.6497  -50.4971  -28.3783 C   0  0  0  0  0  0  0  0  0  0  0  0
    6.2548  -51.4346  -27.3342 C   0  0  0  0  0  0  0  0  0  0  0  0
    5.0354  -48.3367  -28.3467 H   0  0  0  0  0  0  0  0  0  0  0  0
    4.9307  -49.0849  -30.9685 H   0  0  0  0  0  0  0  0  0  0  0  0
    6.1277  -47.8817  -30.7216 H   0  0  0  0  0  0  0  0  0  0  0  0
    4.5974  -48.5360  -33.2079 H   0  0  0  0  0  0  0  0  0  0  0  0
    6.2171  -48.0106  -33.1062 H   0  0  0  0  0  0  0  0  0  0  0  0
    4.3415  -46.2597  -33.8402 H   0  0  0  0  0  0  0  0  0  0  0  0
    5.5354  -45.6906  -32.7651 H   0  0  0  0  0  0  0  0  0  0  0  0
    3.5342  -45.2698  -31.4762 H   0  0  0  0  0  0  0  0  0  0  0  0
   -0.6201  -46.6670  -32.2163 H   0  0  0  0  0  0  0  0  0  0  0  0
    0.1783  -47.0533  -33.7334 H   0  0  0  0  0  0  0  0  0  0  0  0
   -1.6604  -45.4868  -34.0753 H   0  0  0  0  0  0  0  0  0  0  0  0
   -0.0794  -44.7669  -34.4627 H   0  0  0  0  0  0  0  0  0  0  0  0
   -0.4773  -44.5123  -30.9136 H   0  0  0  0  0  0  0  0  0  0  0  0
    1.9196  -44.3791  -31.1325 H   0  0  0  0  0  0  0  0  0  0  0  0
    1.7377  -43.8657  -32.8091 H   0  0  0  0  0  0  0  0  0  0  0  0
    0.5697  -41.7149  -33.1552 H   0  0  0  0  0  0  0  0  0  0  0  0
    0.6403  -39.3888  -32.4794 H   0  0  0  0  0  0  0  0  0  0  0  0
    0.0644  -38.7639  -30.2092 H   0  0  0  0  0  0  0  0  0  0  0  0
   -0.5634  -40.4701  -28.6051 H   0  0  0  0  0  0  0  0  0  0  0  0
   -0.6296  -42.7993  -29.2695 H   0  0  0  0  0  0  0  0  0  0  0  0
    1.9882  -48.2832  -24.5915 H   0  0  0  0  0  0  0  0  0  0  0  0
    0.4431  -47.8131  -22.2674 H   0  0  0  0  0  0  0  0  0  0  0  0
    1.3986  -44.3095  -20.1495 H   0  0  0  0  0  0  0  0  0  0  0  0
    3.0918  -43.7581  -21.8002 H   0  0  0  0  0  0  0  0  0  0  0  0
    2.3739  -49.5895  -28.5764 H   0  0  0  0  0  0  0  0  0  0  0  0
    3.3791  -49.4421  -30.0430 H   0  0  0  0  0  0  0  0  0  0  0  0
    5.5356  -52.1606  -24.1578 H   0  0  0  0  0  0  0  0  0  0  0  0
    7.0517  -52.3770  -24.9991 H   0  0  0  0  0  0  0  0  0  0  0  0
    5.6308  -53.2502  -25.5204 H   0  0  0  0  0  0  0  0  0  0  0  0
    4.0345  -49.9290  -25.9548 H   0  0  0  0  0  0  0  0  0  0  0  0
    3.7599  -51.5425  -25.2586 H   0  0  0  0  0  0  0  0  0  0  0  0
    2.4908  -51.2112  -27.3096 H   0  0  0  0  0  0  0  0  0  0  0  0
    3.6843  -52.5058  -27.4372 H   0  0  0  0  0  0  0  0  0  0  0  0
    4.0746  -51.4492  -29.4225 H   0  0  0  0  0  0  0  0  0  0  0  0
    5.7703  -49.4865  -28.0481 H   0  0  0  0  0  0  0  0  0  0  0  0
    6.1563  -50.6606  -29.3065 H   0  0  0  0  0  0  0  0  0  0  0  0
    7.3059  -51.2465  -27.2651 H   0  0  0  0  0  0  0  0  0  0  0  0
    6.0684  -52.4431  -27.6393 H   0  0  0  0  0  0  0  0  0  0  0  0
  1 23  1  0
  1  2  1  0
  1 53  1  1
  2  3  2  0
  2  4  1  0
  4  5  1  0
  5  6  1  0
  5 54  1  0
  5 55  1  0
  6  7  1  0
  6 56  1  0
  6 57  1  0
  7  8  1  0
  7 58  1  0
  7 59  1  0
  8  9  1  0
  8  4  1  0
  8 60  1  1
  9 10  2  0
  9 11  1  0
 11 12  1  0
 12 13  1  0
 12 61  1  0
 12 62  1  0
 13 14  1  0
 13 63  1  0
 13 64  1  0
 14 15  1  0
 15 17  1  0
 15 16  1  0
 15 65  1  1
 16 11  1  0
 16 66  1  0
 16 67  1  0
 17 18  2  0
 18 19  1  0
 18 68  1  0
 19 20  2  0
 19 69  1  0
 20 21  1  0
 20 70  1  0
 21 22  2  0
 21 71  1  0
 22 17  1  0
 22 72  1  0
 23 24  1  0
 23 26  1  0
 24 25  2  0
 24 27  1  0
 27 28  2  0
 28 29  1  0
 28 73  1  0
 29 30  2  0
 30 31  1  0
 30 74  1  0
 31 36  1  0
 31 32  2  0
 32 33  1  0
 32 75  1  0
 33 34  2  0
 33 76  1  0
 34 35  1  0
 34 29  1  0
 35 27  1  0
 36 37  1  0
 36 38  1  0
 36 39  1  0
 39 40  2  0
 39 41  1  0
 39 42  1  0
 41 43  1  0
 42 44  1  0
 45  1  1  0
 45 77  1  0
 45 78  1  0
 46 47  1  0
 46 79  1  0
 46 80  1  0
 46 81  1  0
 47 48  1  0
 48 49  1  0
 48 82  1  0
 48 83  1  0
 49 50  1  0
 49 84  1  0
 49 85  1  0
 50 45  1  0
 50 51  1  0
 50 86  1  0
 51 52  1  0
 51 87  1  0
 51 88  1  0
 52 47  1  0
 52 89  1  0
 52 90  1  0
M  END
>  <minimizedAffinity>  (1) 
-7.91236

>  <mol_id>  (1) 
11604

>  <source_index>  (1) 
0

>  <layer>  (1) 
L4

>  <uniprot>  (1) 
P42226

>  <paff>  (1) 
6.6021000000000001

>  <smiles>  (1) 
CN1CCC(C[C@H](NC(=O)c2cc3cc(C(F)(F)P(=O)(O)O)ccc3s2)C(=O)N2CCC[C@H]2C(=O)N2CCO[C@H](c3ccccc3)C2)CC1

$$$$
L4:P42226:24276
     RDKit          3D

 94 99  0  0  0  0  0  0  0  0999 V2000
    3.3100  -48.5724  -28.2544 C   0  0  1  0  0  0  0  0  0  0  0  0
    2.9234  -47.6351  -29.4184 C   0  0  0  0  0  0  0  0  0  0  0  0
    2.0900  -46.7363  -29.2555 O   0  0  0  0  0  0  0  0  0  0  0  0
    3.5394  -47.8149  -30.6405 N   0  0  0  0  0  0  0  0  0  0  0  0
    4.6762  -48.6628  -30.9520 C   0  0  0  0  0  0  0  0  0  0  0  0
    5.4454  -47.8566  -31.9834 C   0  0  0  0  0  0  0  0  0  0  0  0
    4.3447  -47.1694  -32.7810 C   0  0  0  0  0  0  0  0  0  0  0  0
    3.2330  -46.9098  -31.7542 C   0  0  1  0  0  0  0  0  0  0  0  0
    1.8573  -47.2085  -32.3991 C   0  0  0  0  0  0  0  0  0  0  0  0
    1.5808  -48.3371  -32.8170 O   0  0  0  0  0  0  0  0  0  0  0  0
    0.9845  -46.1445  -32.5876 N   0  0  0  0  0  0  0  0  0  0  0  0
   -0.2792  -46.3800  -33.2892 C   0  0  0  0  0  0  0  0  0  0  0  0
   -0.7750  -45.0988  -33.9642 C   0  0  0  0  0  0  0  0  0  0  0  0
   -0.9941  -44.0149  -33.0534 O   0  0  0  0  0  0  0  0  0  0  0  0
   -0.1642  -44.0428  -31.8762 C   0  0  1  0  0  0  0  0  0  0  0  0
    1.1850  -44.7666  -32.1145 C   0  0  0  0  0  0  0  0  0  0  0  0
   -0.0635  -42.6169  -31.3623 C   0  0  0  0  0  0  0  0  0  0  0  0
    0.3475  -41.6118  -32.2574 C   0  0  0  0  0  0  0  0  0  0  0  0
    0.4586  -40.2814  -31.8490 C   0  0  0  0  0  0  0  0  0  0  0  0
    0.1643  -39.9317  -30.5351 C   0  0  0  0  0  0  0  0  0  0  0  0
   -0.2331  -40.9141  -29.6306 C   0  0  0  0  0  0  0  0  0  0  0  0
   -0.3422  -42.2471  -30.0381 C   0  0  0  0  0  0  0  0  0  0  0  0
    3.0383  -47.8778  -26.9969 N   0  0  0  0  0  0  0  0  0  0  0  0
    3.9366  -47.8742  -25.9552 C   0  0  0  0  0  0  0  0  0  0  0  0
    5.0688  -48.3299  -26.1134 O   0  0  0  0  0  0  0  0  0  0  0  0
    2.0784  -47.5820  -26.8672 H   0  0  0  0  0  0  0  0  0  0  0  0
    3.4391  -47.3296  -24.6977 C   0  0  0  0  0  0  0  0  0  0  0  0
    2.8950  -47.9610  -23.5948 C   0  0  0  0  0  0  0  0  0  0  0  0
    2.5452  -47.0595  -22.5322 C   0  0  0  0  0  0  0  0  0  0  0  0
    1.9808  -47.3124  -21.2570 C   0  0  0  0  0  0  0  0  0  0  0  0
    1.7292  -46.2625  -20.3559 C   0  0  0  0  0  0  0  0  0  0  0  0
    2.0269  -44.9526  -20.7370 C   0  0  0  0  0  0  0  0  0  0  0  0
    2.5831  -44.6760  -21.9890 C   0  0  0  0  0  0  0  0  0  0  0  0
    2.8381  -45.7402  -22.8740 C   0  0  0  0  0  0  0  0  0  0  0  0
    3.5167  -45.6370  -24.4484 S   0  0  0  0  0  0  0  0  0  0  0  0
    1.1206  -46.5446  -19.0071 C   0  0  0  0  0  0  0  0  0  0  0  0
    0.8657  -47.8660  -18.7846 F   0  0  0  0  0  0  0  0  0  0  0  0
    1.8958  -46.1258  -17.9644 F   0  0  0  0  0  0  0  0  0  0  0  0
   -0.4644  -45.7737  -18.6165 P   0  0  0  0  0  0  0  0  0  0  0  0
   -0.5177  -44.2918  -18.3937 O   0  0  0  0  0  0  0  0  0  0  0  0
   -1.5191  -46.1829  -19.7681 O   0  0  0  0  0  0  0  0  0  0  0  0
   -1.1321  -46.5396  -17.3628 O   0  0  0  0  0  0  0  0  0  0  0  0
   -2.3311  -45.6448  -19.7386 H   0  0  0  0  0  0  0  0  0  0  0  0
   -1.8624  -46.0360  -16.9566 H   0  0  0  0  0  0  0  0  0  0  0  0
    2.6101  -49.9424  -28.3359 C   0  0  0  0  0  0  0  0  0  0  0  0
    4.8320  -53.2729  -26.6057 C   0  0  0  0  0  0  0  0  0  0  0  0
    3.8667  -52.5679  -25.8626 C   0  0  0  0  0  0  0  0  0  0  0  0
    3.1608  -51.4926  -26.4123 C   0  0  0  0  0  0  0  0  0  0  0  0
    3.3911  -51.0889  -27.7313 C   0  0  0  0  0  0  0  0  0  0  0  0
    4.3449  -51.7790  -28.4814 C   0  0  0  0  0  0  0  0  0  0  0  0
    5.0526  -52.8519  -27.9266 C   0  0  0  0  0  0  0  0  0  0  0  0
    5.5348  -54.4668  -24.4255 C   0  0  0  0  0  0  0  0  0  0  0  0
    5.5953  -54.4464  -25.9699 C   0  0  0  0  0  0  0  0  0  0  0  0
    5.0031  -55.7837  -26.4662 C   0  0  0  0  0  0  0  0  0  0  0  0
    7.0853  -54.3699  -26.3700 C   0  0  0  0  0  0  0  0  0  0  0  0
    4.3540  -48.7986  -28.3167 H   0  0  0  0  0  0  0  0  0  0  0  0
    4.3553  -49.5987  -31.3594 H   0  0  0  0  0  0  0  0  0  0  0  0
    5.2628  -48.9074  -30.0912 H   0  0  0  0  0  0  0  0  0  0  0  0
    6.0315  -48.4956  -32.6104 H   0  0  0  0  0  0  0  0  0  0  0  0
    6.1382  -47.1684  -31.5460 H   0  0  0  0  0  0  0  0  0  0  0  0
    3.9933  -47.8052  -33.5666 H   0  0  0  0  0  0  0  0  0  0  0  0
    4.6832  -46.2699  -33.2513 H   0  0  0  0  0  0  0  0  0  0  0  0
    3.1870  -45.8957  -31.4161 H   0  0  0  0  0  0  0  0  0  0  0  0
   -1.0139  -46.7125  -32.5859 H   0  0  0  0  0  0  0  0  0  0  0  0
   -0.1194  -47.1236  -34.0418 H   0  0  0  0  0  0  0  0  0  0  0  0
   -1.6979  -45.3142  -34.4610 H   0  0  0  0  0  0  0  0  0  0  0  0
   -0.0089  -44.7866  -34.6428 H   0  0  0  0  0  0  0  0  0  0  0  0
   -0.6039  -44.6409  -31.1055 H   0  0  0  0  0  0  0  0  0  0  0  0
    1.7327  -44.7913  -31.1957 H   0  0  0  0  0  0  0  0  0  0  0  0
    1.7242  -44.2298  -32.8668 H   0  0  0  0  0  0  0  0  0  0  0  0
    0.5708  -41.8627  -33.2332 H   0  0  0  0  0  0  0  0  0  0  0  0
    0.7588  -39.5581  -32.5211 H   0  0  0  0  0  0  0  0  0  0  0  0
    0.2401  -38.9483  -30.2315 H   0  0  0  0  0  0  0  0  0  0  0  0
   -0.4481  -40.6565  -28.6547 H   0  0  0  0  0  0  0  0  0  0  0  0
   -0.6309  -42.9669  -29.3572 H   0  0  0  0  0  0  0  0  0  0  0  0
    2.7537  -48.9818  -23.5400 H   0  0  0  0  0  0  0  0  0  0  0  0
    1.7511  -48.2813  -20.9857 H   0  0  0  0  0  0  0  0  0  0  0  0
    1.8333  -44.1770  -20.0843 H   0  0  0  0  0  0  0  0  0  0  0  0
    2.8037  -43.7051  -22.2607 H   0  0  0  0  0  0  0  0  0  0  0  0
    1.6741  -49.8695  -27.8225 H   0  0  0  0  0  0  0  0  0  0  0  0
    2.5033  -50.1655  -29.3769 H   0  0  0  0  0  0  0  0  0  0  0  0
    3.6751  -52.8511  -24.8889 H   0  0  0  0  0  0  0  0  0  0  0  0
    2.4635  -50.9925  -25.8391 H   0  0  0  0  0  0  0  0  0  0  0  0
    4.5304  -51.4950  -29.4561 H   0  0  0  0  0  0  0  0  0  0  0  0
    5.7530  -53.3450  -28.5022 H   0  0  0  0  0  0  0  0  0  0  0  0
    6.0857  -55.3073  -24.0581 H   0  0  0  0  0  0  0  0  0  0  0  0
    4.5154  -54.5428  -24.1095 H   0  0  0  0  0  0  0  0  0  0  0  0
    5.9614  -53.5645  -24.0399 H   0  0  0  0  0  0  0  0  0  0  0  0
    5.5372  -56.5972  -26.0213 H   0  0  0  0  0  0  0  0  0  0  0  0
    5.0909  -55.8393  -27.5311 H   0  0  0  0  0  0  0  0  0  0  0  0
    3.9710  -55.8411  -26.1899 H   0  0  0  0  0  0  0  0  0  0  0  0
    7.6159  -55.1868  -25.9272 H   0  0  0  0  0  0  0  0  0  0  0  0
    7.5003  -53.4461  -26.0248 H   0  0  0  0  0  0  0  0  0  0  0  0
    7.1718  -54.4239  -27.4351 H   0  0  0  0  0  0  0  0  0  0  0  0
  1 23  1  0
  1  2  1  0
  1 56  1  6
  2  3  2  0
  2  4  1  0
  4  5  1  0
  5  6  1  0
  5 57  1  0
  5 58  1  0
  6  7  1  0
  6 59  1  0
  6 60  1  0
  7  8  1  0
  7 61  1  0
  7 62  1  0
  8  9  1  0
  8  4  1  0
  8 63  1  1
  9 10  2  0
  9 11  1  0
 11 12  1  0
 12 13  1  0
 12 64  1  0
 12 65  1  0
 13 14  1  0
 13 66  1  0
 13 67  1  0
 14 15  1  0
 15 17  1  0
 15 16  1  0
 15 68  1  1
 16 11  1  0
 16 69  1  0
 16 70  1  0
 17 18  2  0
 18 19  1  0
 18 71  1  0
 19 20  2  0
 19 72  1  0
 20 21  1  0
 20 73  1  0
 21 22  2  0
 21 74  1  0
 22 17  1  0
 22 75  1  0
 23 24  1  0
 23 26  1  0
 24 25  2  0
 24 27  1  0
 27 28  2  0
 28 29  1  0
 28 76  1  0
 29 30  2  0
 30 31  1  0
 30 77  1  0
 31 36  1  0
 31 32  2  0
 32 33  1  0
 32 78  1  0
 33 34  2  0
 33 79  1  0
 34 35  1  0
 34 29  1  0
 35 27  1  0
 36 37  1  0
 36 38  1  0
 36 39  1  0
 39 40  2  0
 39 41  1  0
 39 42  1  0
 41 43  1  0
 42 44  1  0
 45  1  1  0
 45 80  1  0
 45 81  1  0
 46 47  2  0
 47 48  1  0
 47 82  1  0
 48 49  2  0
 48 83  1  0
 49 45  1  0
 49 50  1  0
 50 51  2  0
 50 84  1  0
 51 46  1  0
 51 85  1  0
 52 53  1  0
 52 86  1  0
 52 87  1  0
 52 88  1  0
 53 54  1  0
 53 55  1  0
 53 46  1  0
 54 89  1  0
 54 90  1  0
 54 91  1  0
 55 92  1  0
 55 93  1  0
 55 94  1  0
M  END
>  <minimizedAffinity>  (2) 
-8.33336

>  <mol_id>  (2) 
24276

>  <source_index>  (2) 
1

>  <layer>  (2) 
L4

>  <uniprot>  (2) 
P42226

>  <paff>  (2) 
6.7958999999999996

>  <smiles>  (2) 
CC(C)(C)c1ccc(C[C@H](NC(=O)c2cc3cc(C(F)(F)P(=O)(O)O)ccc3s2)C(=O)N2CCC[C@H]2C(=O)N2CCO[C@H](c3ccccc3)C2)cc1

$$$$
L4:P42226:26786
     RDKit          3D

 87 92  0  0  0  0  0  0  0  0999 V2000
    3.4936  -48.1136  -28.3707 C   0  0  2  0  0  0  0  0  0  0  0  0
    3.3985  -46.9478  -29.3990 C   0  0  0  0  0  0  0  0  0  0  0  0
    2.2726  -46.6034  -29.7933 O   0  0  0  0  0  0  0  0  0  0  0  0
    4.5116  -46.3476  -29.9521 N   0  0  0  0  0  0  0  0  0  0  0  0
    5.9139  -46.5277  -29.6308 C   0  0  0  0  0  0  0  0  0  0  0  0
    6.6530  -45.5935  -30.5751 C   0  0  0  0  0  0  0  0  0  0  0  0
    5.6756  -44.4278  -30.6951 C   0  0  0  0  0  0  0  0  0  0  0  0
    4.3094  -45.1271  -30.7467 C   0  0  1  0  0  0  0  0  0  0  0  0
    3.8538  -45.1890  -32.2300 C   0  0  0  0  0  0  0  0  0  0  0  0
    4.6460  -45.6588  -33.0598 O   0  0  0  0  0  0  0  0  0  0  0  0
    2.5069  -45.0463  -32.5540 N   0  0  0  0  0  0  0  0  0  0  0  0
    1.6391  -43.9532  -32.1343 C   0  0  0  0  0  0  0  0  0  0  0  0
    0.1830  -44.4222  -31.9579 C   0  0  0  0  0  0  0  0  0  0  0  0
   -0.1233  -45.6492  -32.6245 O   0  0  0  0  0  0  0  0  0  0  0  0
    0.5111  -45.7437  -33.9157 C   0  0  1  0  0  0  0  0  0  0  0  0
    2.0597  -45.7040  -33.7843 C   0  0  0  0  0  0  0  0  0  0  0  0
    0.0696  -47.0307  -34.5910 C   0  0  0  0  0  0  0  0  0  0  0  0
   -0.2407  -47.0476  -35.9618 C   0  0  0  0  0  0  0  0  0  0  0  0
   -0.7729  -48.1906  -36.5585 C   0  0  0  0  0  0  0  0  0  0  0  0
   -1.0133  -49.3478  -35.7986 C   0  0  0  0  0  0  0  0  0  0  0  0
   -1.5755  -50.4987  -36.3793 C   0  0  0  0  0  0  0  0  0  0  0  0
   -1.7921  -51.6440  -35.6126 C   0  0  0  0  0  0  0  0  0  0  0  0
   -1.4458  -51.6583  -34.2660 C   0  0  0  0  0  0  0  0  0  0  0  0
   -0.8933  -50.5198  -33.6749 C   0  0  0  0  0  0  0  0  0  0  0  0
   -0.6777  -49.3550  -34.4230 C   0  0  0  0  0  0  0  0  0  0  0  0
   -0.1356  -48.1968  -33.8375 C   0  0  0  0  0  0  0  0  0  0  0  0
    3.7561  -50.0113  -30.0094 C   0  0  0  0  0  0  0  0  0  0  0  0
    2.9985  -49.5504  -28.7299 C   0  0  0  0  0  0  0  0  0  0  0  0
    1.5023  -49.5657  -29.0789 C   0  0  0  0  0  0  0  0  0  0  0  0
    3.3047  -50.6170  -27.6580 C   0  0  0  0  0  0  0  0  0  0  0  0
    3.0384  -47.6481  -27.0539 N   0  0  0  0  0  0  0  0  0  0  0  0
    3.9482  -47.1889  -26.1162 C   0  0  0  0  0  0  0  0  0  0  0  0
    5.1556  -47.1893  -26.3281 O   0  0  0  0  0  0  0  0  0  0  0  0
    2.0516  -47.4914  -26.8929 H   0  0  0  0  0  0  0  0  0  0  0  0
    3.3718  -46.7504  -24.8623 C   0  0  0  0  0  0  0  0  0  0  0  0
    2.6725  -47.4506  -23.9036 C   0  0  0  0  0  0  0  0  0  0  0  0
    2.3730  -46.6660  -22.7378 C   0  0  0  0  0  0  0  0  0  0  0  0
    1.7495  -47.0351  -21.5196 C   0  0  0  0  0  0  0  0  0  0  0  0
    1.5826  -46.0865  -20.4823 C   0  0  0  0  0  0  0  0  0  0  0  0
    2.0171  -44.7714  -20.6716 C   0  0  0  0  0  0  0  0  0  0  0  0
    2.6375  -44.3896  -21.8663 C   0  0  0  0  0  0  0  0  0  0  0  0
    2.8215  -45.3490  -22.8864 C   0  0  0  0  0  0  0  0  0  0  0  0
    3.6017  -45.1185  -24.3984 S   0  0  0  0  0  0  0  0  0  0  0  0
    1.0013  -46.5102  -19.1503 C   0  0  0  0  0  0  0  0  0  0  0  0
    0.8480  -47.8536  -19.0093 F   0  0  0  0  0  0  0  0  0  0  0  0
    1.7280  -46.0799  -18.0800 F   0  0  0  0  0  0  0  0  0  0  0  0
   -0.6463  -45.8692  -18.7371 P   0  0  0  0  0  0  0  0  0  0  0  0
   -1.7601  -45.9529  -19.7387 O   0  0  0  0  0  0  0  0  0  0  0  0
   -1.0868  -46.4911  -17.3097 O   0  0  0  0  0  0  0  0  0  0  0  0
   -0.4844  -44.3438  -18.2468 O   0  0  0  0  0  0  0  0  0  0  0  0
   -0.4086  -46.4365  -16.6123 H   0  0  0  0  0  0  0  0  0  0  0  0
   -1.3705  -43.9243  -18.1793 H   0  0  0  0  0  0  0  0  0  0  0  0
    4.5405  -48.3348  -28.3800 H   0  0  0  0  0  0  0  0  0  0  0  0
    6.2109  -47.5423  -29.7957 H   0  0  0  0  0  0  0  0  0  0  0  0
    6.1234  -46.3119  -28.6039 H   0  0  0  0  0  0  0  0  0  0  0  0
    6.8251  -46.0562  -31.5244 H   0  0  0  0  0  0  0  0  0  0  0  0
    7.6244  -45.3088  -30.2285 H   0  0  0  0  0  0  0  0  0  0  0  0
    5.8543  -43.8664  -31.5883 H   0  0  0  0  0  0  0  0  0  0  0  0
    5.7589  -43.7233  -29.8941 H   0  0  0  0  0  0  0  0  0  0  0  0
    3.4606  -44.6475  -30.3058 H   0  0  0  0  0  0  0  0  0  0  0  0
    1.6683  -43.1822  -32.8756 H   0  0  0  0  0  0  0  0  0  0  0  0
    1.9905  -43.5896  -31.1913 H   0  0  0  0  0  0  0  0  0  0  0  0
   -0.4634  -43.6612  -32.3425 H   0  0  0  0  0  0  0  0  0  0  0  0
    0.0415  -44.5974  -30.9119 H   0  0  0  0  0  0  0  0  0  0  0  0
    0.2165  -44.9043  -34.5102 H   0  0  0  0  0  0  0  0  0  0  0  0
    2.4606  -45.1722  -34.6218 H   0  0  0  0  0  0  0  0  0  0  0  0
    2.4071  -46.7156  -33.7542 H   0  0  0  0  0  0  0  0  0  0  0  0
   -0.0729  -46.2048  -36.5333 H   0  0  0  0  0  0  0  0  0  0  0  0
   -0.9920  -48.1863  -37.5670 H   0  0  0  0  0  0  0  0  0  0  0  0
   -1.8296  -50.4960  -37.3795 H   0  0  0  0  0  0  0  0  0  0  0  0
   -2.2102  -52.4822  -36.0458 H   0  0  0  0  0  0  0  0  0  0  0  0
   -1.5970  -52.5101  -33.7033 H   0  0  0  0  0  0  0  0  0  0  0  0
   -0.6407  -50.5368  -32.6744 H   0  0  0  0  0  0  0  0  0  0  0  0
    0.1156  -48.2046  -32.8366 H   0  0  0  0  0  0  0  0  0  0  0  0
    3.4351  -50.9958  -30.2788 H   0  0  0  0  0  0  0  0  0  0  0  0
    4.8087  -50.0194  -29.8172 H   0  0  0  0  0  0  0  0  0  0  0  0
    3.5452  -49.3354  -30.8117 H   0  0  0  0  0  0  0  0  0  0  0  0
    1.2021  -50.5644  -29.3184 H   0  0  0  0  0  0  0  0  0  0  0  0
    1.3258  -48.9287  -29.9203 H   0  0  0  0  0  0  0  0  0  0  0  0
    0.9370  -49.2146  -28.2410 H   0  0  0  0  0  0  0  0  0  0  0  0
    2.9333  -51.5663  -27.9832 H   0  0  0  0  0  0  0  0  0  0  0  0
    2.8307  -50.3446  -26.7382 H   0  0  0  0  0  0  0  0  0  0  0  0
    4.3624  -50.6797  -27.5092 H   0  0  0  0  0  0  0  0  0  0  0  0
    2.3924  -48.4379  -24.0118 H   0  0  0  0  0  0  0  0  0  0  0  0
    1.4148  -48.0024  -21.3879 H   0  0  0  0  0  0  0  0  0  0  0  0
    1.8789  -44.0750  -19.9226 H   0  0  0  0  0  0  0  0  0  0  0  0
    2.9571  -43.4176  -22.0006 H   0  0  0  0  0  0  0  0  0  0  0  0
  1 31  1  0
  1  2  1  0
  1 53  1  1
  2  3  2  0
  2  4  1  0
  4  5  1  0
  5  6  1  0
  5 54  1  0
  5 55  1  0
  6  7  1  0
  6 56  1  0
  6 57  1  0
  7  8  1  0
  7 58  1  0
  7 59  1  0
  8  9  1  0
  8  4  1  0
  8 60  1  1
  9 10  2  0
  9 11  1  0
 11 12  1  0
 12 13  1  0
 12 61  1  0
 12 62  1  0
 13 14  1  0
 13 63  1  0
 13 64  1  0
 14 15  1  0
 15 17  1  0
 15 16  1  0
 15 65  1  6
 16 11  1  0
 16 66  1  0
 16 67  1  0
 17 18  2  0
 18 19  1  0
 18 68  1  0
 19 20  2  0
 19 69  1  0
 20 21  1  0
 21 22  2  0
 21 70  1  0
 22 23  1  0
 22 71  1  0
 23 24  2  0
 23 72  1  0
 24 25  1  0
 24 73  1  0
 25 26  2  0
 25 20  1  0
 26 17  1  0
 26 74  1  0
 27 28  1  0
 27 75  1  0
 27 76  1  0
 27 77  1  0
 28 29  1  0
 28 30  1  0
 28  1  1  0
 29 78  1  0
 29 79  1  0
 29 80  1  0
 30 81  1  0
 30 82  1  0
 30 83  1  0
 31 32  1  0
 31 34  1  0
 32 33  2  0
 32 35  1  0
 35 36  2  0
 36 37  1  0
 36 84  1  0
 37 38  2  0
 38 39  1  0
 38 85  1  0
 39 44  1  0
 39 40  2  0
 40 41  1  0
 40 86  1  0
 41 42  2  0
 41 87  1  0
 42 43  1  0
 42 37  1  0
 43 35  1  0
 44 45  1  0
 44 46  1  0
 44 47  1  0
 47 48  2  0
 47 49  1  0
 47 50  1  0
 49 51  1  0
 50 52  1  0
M  END
>  <minimizedAffinity>  (3) 
-8.12248

>  <mol_id>  (3) 
26786

>  <source_index>  (3) 
2

>  <layer>  (3) 
L4

>  <uniprot>  (3) 
P42226

>  <paff>  (3) 
7.0808999999999997

>  <smiles>  (3) 
CC(C)(C)[C@H](NC(=O)c1cc2cc(C(F)(F)P(=O)(O)O)ccc2s1)C(=O)N1CCC[C@H]1C(=O)N1CCOC(c2ccc3ccccc3c2)C1

$$$$
L4:P42226:41686
     RDKit          3D

115122  0  0  0  0  0  0  0  0999 V2000
    3.8909  -46.1395  -31.5575 C   0  0  0  0  0  0  0  0  0  0  0  0
    4.9280  -46.9202  -31.0180 C   0  0  0  0  0  0  0  0  0  0  0  0
    4.6948  -47.9096  -30.0485 C   0  0  0  0  0  0  0  0  0  0  0  0
    3.3640  -48.0887  -29.6401 C   0  0  0  0  0  0  0  0  0  0  0  0
    2.3173  -47.3267  -30.1686 C   0  0  0  0  0  0  0  0  0  0  0  0
    2.5661  -46.3361  -31.1256 C   0  0  0  0  0  0  0  0  0  0  0  0
    5.7090  -48.6812  -29.4736 N   0  0  0  0  0  0  0  0  0  0  0  0
    5.5691  -50.1393  -29.2906 C   0  0  0  0  0  0  0  0  0  0  0  0
    5.3497  -50.4707  -27.7982 C   0  0  0  0  0  0  0  0  0  0  0  0
    6.5013  -50.1063  -26.9360 N   0  0  0  0  0  0  0  0  0  0  0  0
    7.2990  -49.0170  -27.5519 C   0  0  0  0  0  0  0  0  0  0  0  0
    6.4984  -48.0066  -28.4114 C   0  0  0  0  0  0  0  0  0  0  0  0
    6.0846  -49.7541  -25.5683 C   0  0  0  0  0  0  0  0  0  0  0  0
    4.5926  -50.0146  -25.2948 C   0  0  0  0  0  0  0  0  0  0  0  0
    3.8814  -48.7503  -24.8897 C   0  0  0  0  0  0  0  0  0  0  0  0
    4.1140  -47.5853  -25.6520 C   0  0  0  0  0  0  0  0  0  0  0  0
    3.5490  -46.3450  -25.3084 C   0  0  0  0  0  0  0  0  0  0  0  0
    2.7320  -46.2237  -24.1866 C   0  0  0  0  0  0  0  0  0  0  0  0
    2.4978  -47.3637  -23.4419 C   0  0  0  0  0  0  0  0  0  0  0  0
    3.0572  -48.6120  -23.7760 C   0  0  0  0  0  0  0  0  0  0  0  0
    2.6250  -49.5258  -22.7926 N   0  0  0  0  0  0  0  0  0  0  0  0
    2.9170  -50.9265  -22.7095 C   0  0  0  0  0  0  0  0  0  0  0  0
    1.8263  -48.8532  -21.8459 C   0  0  0  0  0  0  0  0  0  0  0  0
    1.3188  -49.3307  -20.8418 O   0  0  0  0  0  0  0  0  0  0  0  0
    1.7254  -47.5183  -22.2778 N   0  0  0  0  0  0  0  0  0  0  0  0
    1.0665  -46.4582  -21.5424 C   0  0  1  0  0  0  0  0  0  0  0  0
   -0.3693  -46.7968  -21.1364 C   0  0  0  0  0  0  0  0  0  0  0  0
   -0.9848  -45.6044  -20.4193 C   0  0  0  0  0  0  0  0  0  0  0  0
   -0.1510  -45.1810  -19.2331 C   0  0  0  0  0  0  0  0  0  0  0  0
   -0.6232  -44.5313  -18.3038 O   0  0  0  0  0  0  0  0  0  0  0  0
    1.1856  -45.4853  -19.2765 N   0  0  0  0  0  0  0  0  0  0  0  0
    1.8907  -46.0701  -20.3066 C   0  0  0  0  0  0  0  0  0  0  0  0
    3.1160  -46.1540  -20.2404 O   0  0  0  0  0  0  0  0  0  0  0  0
    1.7358  -45.1857  -18.4841 H   0  0  0  0  0  0  0  0  0  0  0  0
    1.4461  -45.5364  -31.6552 C   0  0  0  0  0  0  0  0  0  0  0  0
    1.1812  -44.2889  -31.0565 C   0  0  0  0  0  0  0  0  0  0  0  0
    0.1261  -43.4823  -31.4942 C   0  0  0  0  0  0  0  0  0  0  0  0
   -0.7169  -43.9381  -32.5056 C   0  0  0  0  0  0  0  0  0  0  0  0
   -0.4654  -45.1688  -33.1146 C   0  0  0  0  0  0  0  0  0  0  0  0
    0.6224  -45.9769  -32.7211 C   0  0  0  0  0  0  0  0  0  0  0  0
    0.8742  -47.3025  -33.4412 C   0  0  1  0  0  0  0  0  0  0  0  0
   -0.3287  -48.2629  -33.3117 C   0  0  0  0  0  0  0  0  0  0  0  0
   -0.4839  -49.1316  -34.5556 C   0  0  0  0  0  0  0  0  0  0  0  0
   -0.6994  -48.2593  -35.7909 C   0  0  0  0  0  0  0  0  0  0  0  0
    0.1893  -47.0983  -35.8444 N   0  0  0  0  0  0  0  0  0  0  0  0
   -0.0433  -46.1595  -36.8379 C   0  0  0  0  0  0  0  0  0  0  0  0
   -0.9417  -46.3080  -37.6688 O   0  0  0  0  0  0  0  0  0  0  0  0
    1.3183  -47.0953  -34.9097 C   0  0  0  0  0  0  0  0  0  0  0  0
    0.8598  -44.9415  -36.8851 C   0  0  0  0  0  0  0  0  0  0  0  0
    0.2248  -43.8064  -37.6808 C   0  0  0  0  0  0  0  0  0  0  0  0
   -0.7175  -43.0468  -36.8842 N   0  0  0  0  0  0  0  0  0  0  0  0
   -2.0684  -42.9575  -37.0243 C   0  0  0  0  0  0  0  0  0  0  0  0
   -2.4500  -42.1303  -35.9976 C   0  0  0  0  0  0  0  0  0  0  0  0
   -1.3481  -41.7493  -35.2853 N   0  0  0  0  0  0  0  0  0  0  0  0
   -0.2846  -42.3154  -35.8407 N   0  0  0  0  0  0  0  0  0  0  0  0
   -0.1214  -42.1962  -30.7947 C   0  0  0  0  0  0  0  0  0  0  0  0
   -0.5812  -42.2519  -29.6554 O   0  0  0  0  0  0  0  0  0  0  0  0
    0.1612  -40.9920  -31.4394 N   0  0  0  0  0  0  0  0  0  0  0  0
    1.0528  -40.8442  -32.5837 C   0  0  0  0  0  0  0  0  0  0  0  0
   -0.2482  -39.7571  -30.7959 C   0  0  0  0  0  0  0  0  0  0  0  0
    4.5195  -45.5298  -33.7851 C   0  0  0  0  0  0  0  0  0  0  0  0
    4.0732  -45.1491  -32.4918 O   0  0  0  0  0  0  0  0  0  0  0  0
    5.8937  -46.7610  -31.3454 H   0  0  0  0  0  0  0  0  0  0  0  0
    3.1514  -48.8047  -28.9279 H   0  0  0  0  0  0  0  0  0  0  0  0
    1.3507  -47.4966  -29.8495 H   0  0  0  0  0  0  0  0  0  0  0  0
    6.4584  -50.6255  -29.6336 H   0  0  0  0  0  0  0  0  0  0  0  0
    4.7254  -50.4824  -29.8522 H   0  0  0  0  0  0  0  0  0  0  0  0
    5.1774  -51.5228  -27.7066 H   0  0  0  0  0  0  0  0  0  0  0  0
    4.5127  -49.8923  -27.4669 H   0  0  0  0  0  0  0  0  0  0  0  0
    8.0418  -49.4659  -28.1777 H   0  0  0  0  0  0  0  0  0  0  0  0
    7.7037  -48.4533  -26.7375 H   0  0  0  0  0  0  0  0  0  0  0  0
    7.1835  -47.3249  -28.8706 H   0  0  0  0  0  0  0  0  0  0  0  0
    5.8149  -47.4940  -27.7673 H   0  0  0  0  0  0  0  0  0  0  0  0
    6.2811  -48.7140  -25.4116 H   0  0  0  0  0  0  0  0  0  0  0  0
    6.6407  -50.3774  -24.8995 H   0  0  0  0  0  0  0  0  0  0  0  0
    4.5030  -50.7327  -24.5067 H   0  0  0  0  0  0  0  0  0  0  0  0
    4.1435  -50.3813  -26.1941 H   0  0  0  0  0  0  0  0  0  0  0  0
    4.7173  -47.6461  -26.4871 H   0  0  0  0  0  0  0  0  0  0  0  0
    3.7412  -45.5163  -25.8927 H   0  0  0  0  0  0  0  0  0  0  0  0
    2.3173  -45.3165  -23.9218 H   0  0  0  0  0  0  0  0  0  0  0  0
    3.5375  -51.2110  -23.5335 H   0  0  0  0  0  0  0  0  0  0  0  0
    2.0041  -51.4837  -22.7415 H   0  0  0  0  0  0  0  0  0  0  0  0
    3.4274  -51.1306  -21.7915 H   0  0  0  0  0  0  0  0  0  0  0  0
    1.0032  -45.6256  -22.2114 H   0  0  0  0  0  0  0  0  0  0  0  0
   -0.3653  -47.6438  -20.4826 H   0  0  0  0  0  0  0  0  0  0  0  0
   -0.9439  -47.0249  -22.0097 H   0  0  0  0  0  0  0  0  0  0  0  0
   -1.9636  -45.8707  -20.0789 H   0  0  0  0  0  0  0  0  0  0  0  0
   -1.0302  -44.7859  -21.1070 H   0  0  0  0  0  0  0  0  0  0  0  0
    1.7776  -43.9639  -30.2795 H   0  0  0  0  0  0  0  0  0  0  0  0
   -1.5241  -43.3681  -32.8033 H   0  0  0  0  0  0  0  0  0  0  0  0
   -1.0890  -45.4949  -33.8695 H   0  0  0  0  0  0  0  0  0  0  0  0
    1.6965  -47.7770  -32.9478 H   0  0  0  0  0  0  0  0  0  0  0  0
   -1.2205  -47.6875  -33.1755 H   0  0  0  0  0  0  0  0  0  0  0  0
   -0.1586  -48.9042  -32.4723 H   0  0  0  0  0  0  0  0  0  0  0  0
   -1.3261  -49.7795  -34.4303 H   0  0  0  0  0  0  0  0  0  0  0  0
    0.4072  -49.7086  -34.6893 H   0  0  0  0  0  0  0  0  0  0  0  0
   -1.7115  -47.9120  -35.7885 H   0  0  0  0  0  0  0  0  0  0  0  0
   -0.4814  -48.8638  -36.6465 H   0  0  0  0  0  0  0  0  0  0  0  0
    1.8239  -46.1554  -34.9857 H   0  0  0  0  0  0  0  0  0  0  0  0
    1.9598  -47.9102  -35.1729 H   0  0  0  0  0  0  0  0  0  0  0  0
    1.7865  -45.2133  -37.3458 H   0  0  0  0  0  0  0  0  0  0  0  0
    1.0183  -44.6017  -35.8830 H   0  0  0  0  0  0  0  0  0  0  0  0
   -0.2894  -44.2202  -38.5230 H   0  0  0  0  0  0  0  0  0  0  0  0
    1.0051  -43.1435  -37.9916 H   0  0  0  0  0  0  0  0  0  0  0  0
   -2.6659  -43.4066  -37.7359 H   0  0  0  0  0  0  0  0  0  0  0  0
   -3.4196  -41.8408  -35.7950 H   0  0  0  0  0  0  0  0  0  0  0  0
    1.2895  -41.8101  -32.9785 H   0  0  0  0  0  0  0  0  0  0  0  0
    1.9527  -40.3553  -32.2739 H   0  0  0  0  0  0  0  0  0  0  0  0
    0.5705  -40.2588  -33.3384 H   0  0  0  0  0  0  0  0  0  0  0  0
   -0.8964  -39.9808  -29.9745 H   0  0  0  0  0  0  0  0  0  0  0  0
   -0.7661  -39.1418  -31.5017 H   0  0  0  0  0  0  0  0  0  0  0  0
    0.6161  -39.2383  -30.4371 H   0  0  0  0  0  0  0  0  0  0  0  0
    4.6152  -44.6593  -34.3999 H   0  0  0  0  0  0  0  0  0  0  0  0
    3.8105  -46.2003  -34.2240 H   0  0  0  0  0  0  0  0  0  0  0  0
    5.4690  -46.0166  -33.7058 H   0  0  0  0  0  0  0  0  0  0  0  0
  1  2  2  0
  2  3  1  0
  2 63  1  0
  3  7  1  0
  3  4  2  0
  4  5  1  0
  4 64  1  0
  5  6  2  0
  5 65  1  0
  6 35  1  0
  6  1  1  0
  7  8  1  0
  8  9  1  0
  8 66  1  0
  8 67  1  0
  9 10  1  0
  9 68  1  0
  9 69  1  0
 10 13  1  0
 10 11  1  0
 11 12  1  0
 11 70  1  0
 11 71  1  0
 12  7  1  0
 12 72  1  0
 12 73  1  0
 13 14  1  0
 13 74  1  0
 13 75  1  0
 14 15  1  0
 14 76  1  0
 14 77  1  0
 15 16  2  0
 16 17  1  0
 16 78  1  0
 17 18  2  0
 17 79  1  0
 18 19  1  0
 18 80  1  0
 19 20  2  0
 20 21  1  0
 20 15  1  0
 21 22  1  0
 21 23  1  0
 22 81  1  0
 22 82  1  0
 22 83  1  0
 23 24  2  0
 23 25  1  0
 25 26  1  0
 25 19  1  0
 26 27  1  0
 26 84  1  6
 27 28  1  0
 27 85  1  0
 27 86  1  0
 28 29  1  0
 28 87  1  0
 28 88  1  0
 29 30  2  0
 29 31  1  0
 31 32  1  0
 31 34  1  0
 32 33  2  0
 32 26  1  0
 35 36  2  0
 36 37  1  0
 36 89  1  0
 37 56  1  0
 37 38  2  0
 38 39  1  0
 38 90  1  0
 39 40  2  0
 39 91  1  0
 40 41  1  0
 40 35  1  0
 41 42  1  0
 41 92  1  1
 42 43  1  0
 42 93  1  0
 42 94  1  0
 43 44  1  0
 43 95  1  0
 43 96  1  0
 44 45  1  0
 44 97  1  0
 44 98  1  0
 45 46  1  0
 45 48  1  0
 46 47  2  0
 46 49  1  0
 48 41  1  0
 48 99  1  0
 48100  1  0
 49 50  1  0
 49101  1  0
 49102  1  0
 50 51  1  0
 50103  1  0
 50104  1  0
 51 52  1  0
 52 53  2  0
 52105  1  0
 53 54  1  0
 53106  1  0
 54 55  2  0
 55 51  1  0
 56 57  2  0
 56 58  1  0
 58 59  1  0
 58 60  1  0
 59107  1  0
 59108  1  0
 59109  1  0
 60110  1  0
 60111  1  0
 60112  1  0
 61 62  1  0
 61113  1  0
 61114  1  0
 61115  1  0
 62  1  1  0
M  END
>  <minimizedAffinity>  (4) 
-7.36411

>  <mol_id>  (4) 
41686

>  <source_index>  (4) 
3

>  <layer>  (4) 
L4

>  <uniprot>  (4) 
P42226

>  <paff>  (4) 
6.2595999999999998

>  <smiles>  (4) 
COc1cc(N2CCN(CCc3cccc4c3n(C)c(=O)n4C3CCC(=O)NC3=O)CC2)ccc1-c1cc(C(=O)N(C)C)ccc1C1CCCN(C(=O)CCn2ccnn2)C1

$$$$
L4:P42226:89566
     RDKit          3D

119127  0  0  0  0  0  0  0  0999 V2000
    3.7124  -48.6976  -30.5085 C   0  0  0  0  0  0  0  0  0  0  0  0
    4.3701  -49.5077  -29.5699 C   0  0  0  0  0  0  0  0  0  0  0  0
    3.6849  -50.1691  -28.5325 C   0  0  0  0  0  0  0  0  0  0  0  0
    2.3100  -49.9189  -28.4317 C   0  0  0  0  0  0  0  0  0  0  0  0
    1.6406  -49.0950  -29.3475 C   0  0  0  0  0  0  0  0  0  0  0  0
    2.3279  -48.4828  -30.4029 C   0  0  0  0  0  0  0  0  0  0  0  0
    1.5857  -47.6982  -31.4097 C   0  0  0  0  0  0  0  0  0  0  0  0
    1.4631  -46.3099  -31.1875 C   0  0  0  0  0  0  0  0  0  0  0  0
    0.7365  -45.4823  -32.0475 C   0  0  0  0  0  0  0  0  0  0  0  0
    0.1262  -46.0698  -33.1622 C   0  0  0  0  0  0  0  0  0  0  0  0
    0.2349  -47.4441  -33.4281 C   0  0  0  0  0  0  0  0  0  0  0  0
   -0.4017  -47.9882  -34.5578 C   0  0  0  0  0  0  0  0  0  0  0  0
   -0.3327  -49.3517  -34.8313 C   0  0  0  0  0  0  0  0  0  0  0  0
    0.3718  -50.1789  -33.9632 C   0  0  0  0  0  0  0  0  0  0  0  0
    1.0298  -49.6610  -32.8440 C   0  0  0  0  0  0  0  0  0  0  0  0
    0.9691  -48.2813  -32.5476 C   0  0  0  0  0  0  0  0  0  0  0  0
    0.5535  -44.0410  -31.7474 C   0  0  0  0  0  0  0  0  0  0  0  0
   -0.1432  -43.6438  -30.6641 C   0  0  0  0  0  0  0  0  0  0  0  0
   -0.3090  -42.1976  -30.3029 C   0  0  0  0  0  0  0  0  0  0  0  0
    0.1004  -41.2521  -31.4325 C   0  0  0  0  0  0  0  0  0  0  0  0
    1.3029  -41.7229  -32.1197 N   0  0  0  0  0  0  0  0  0  0  0  0
    2.2823  -40.8843  -32.6334 C   0  0  0  0  0  0  0  0  0  0  0  0
    2.9898  -41.2112  -33.5846 O   0  0  0  0  0  0  0  0  0  0  0  0
    1.2085  -43.0613  -32.7043 C   0  0  0  0  0  0  0  0  0  0  0  0
    2.4418  -39.5316  -31.9681 C   0  0  0  0  0  0  0  0  0  0  0  0
    2.5255  -38.4001  -32.9900 C   0  0  0  0  0  0  0  0  0  0  0  0
    1.4347  -37.4498  -32.8886 N   0  0  0  0  0  0  0  0  0  0  0  0
    1.5048  -36.0870  -32.8744 C   0  0  0  0  0  0  0  0  0  0  0  0
    0.1969  -35.6947  -32.7110 C   0  0  0  0  0  0  0  0  0  0  0  0
   -0.5986  -36.7958  -32.5934 N   0  0  0  0  0  0  0  0  0  0  0  0
    0.1752  -37.8709  -32.6815 N   0  0  0  0  0  0  0  0  0  0  0  0
    0.4183  -51.6248  -34.2342 C   0  0  0  0  0  0  0  0  0  0  0  0
   -0.4204  -52.3294  -33.6793 O   0  0  0  0  0  0  0  0  0  0  0  0
    1.4197  -52.0997  -35.0776 N   0  0  0  0  0  0  0  0  0  0  0  0
    2.4720  -51.2790  -35.6638 C   0  0  0  0  0  0  0  0  0  0  0  0
    1.5509  -53.5341  -35.2608 C   0  0  0  0  0  0  0  0  0  0  0  0
    4.3872  -51.0144  -27.6612 N   0  0  0  0  0  0  0  0  0  0  0  0
    3.6050  -51.4887  -26.4903 C   0  0  0  0  0  0  0  0  0  0  0  0
    4.4855  -51.7219  -25.2350 C   0  0  0  0  0  0  0  0  0  0  0  0
    5.2853  -50.5345  -24.8767 N   0  0  0  0  0  0  0  0  0  0  0  0
    6.0006  -49.9907  -26.0626 C   0  0  0  0  0  0  0  0  0  0  0  0
    5.8122  -50.7869  -27.3744 C   0  0  0  0  0  0  0  0  0  0  0  0
    6.2052  -50.7504  -23.7521 C   0  0  0  0  0  0  0  0  0  0  0  0
    6.4741  -49.4847  -22.9160 C   0  0  0  0  0  0  0  0  0  0  0  0
    5.2777  -49.1185  -22.0747 C   0  0  0  0  0  0  0  0  0  0  0  0
    4.9514  -49.9707  -20.9953 C   0  0  0  0  0  0  0  0  0  0  0  0
    3.8179  -49.7598  -20.1922 C   0  0  0  0  0  0  0  0  0  0  0  0
    2.9625  -48.6917  -20.4428 C   0  0  0  0  0  0  0  0  0  0  0  0
    3.2808  -47.8529  -21.4947 C   0  0  0  0  0  0  0  0  0  0  0  0
    4.4181  -48.0491  -22.3030 C   0  0  0  0  0  0  0  0  0  0  0  0
    4.4212  -47.0123  -23.2581 N   0  0  0  0  0  0  0  0  0  0  0  0
    5.4138  -46.7444  -24.2557 C   0  0  0  0  0  0  0  0  0  0  0  0
    3.3037  -46.1785  -23.0472 C   0  0  0  0  0  0  0  0  0  0  0  0
    3.0040  -45.1754  -23.6761 O   0  0  0  0  0  0  0  0  0  0  0  0
    2.6020  -46.7145  -21.9538 N   0  0  0  0  0  0  0  0  0  0  0  0
    1.3873  -46.1502  -21.4048 C   0  0  1  0  0  0  0  0  0  0  0  0
    0.2561  -47.1705  -21.2986 C   0  0  0  0  0  0  0  0  0  0  0  0
   -0.9823  -46.4950  -20.7275 C   0  0  0  0  0  0  0  0  0  0  0  0
   -0.6903  -45.8613  -19.3886 C   0  0  0  0  0  0  0  0  0  0  0  0
   -1.5704  -45.6472  -18.5596 O   0  0  0  0  0  0  0  0  0  0  0  0
    0.6015  -45.4538  -19.1690 N   0  0  0  0  0  0  0  0  0  0  0  0
    1.6668  -45.5009  -20.0415 C   0  0  0  0  0  0  0  0  0  0  0  0
    2.7260  -44.9489  -19.7469 O   0  0  0  0  0  0  0  0  0  0  0  0
    0.7804  -45.0016  -18.2827 H   0  0  0  0  0  0  0  0  0  0  0  0
    5.3168  -47.0721  -31.1470 C   0  0  0  0  0  0  0  0  0  0  0  0
    4.3595  -48.0500  -31.5345 O   0  0  0  0  0  0  0  0  0  0  0  0
    5.3931  -49.6229  -29.6426 H   0  0  0  0  0  0  0  0  0  0  0  0
    1.7757  -50.3527  -27.6627 H   0  0  0  0  0  0  0  0  0  0  0  0
    0.6262  -48.9373  -29.2423 H   0  0  0  0  0  0  0  0  0  0  0  0
    1.9246  -45.8929  -30.3640 H   0  0  0  0  0  0  0  0  0  0  0  0
   -0.4189  -45.4759  -33.8066 H   0  0  0  0  0  0  0  0  0  0  0  0
   -0.9276  -47.3680  -35.1933 H   0  0  0  0  0  0  0  0  0  0  0  0
   -0.7974  -49.7426  -35.6657 H   0  0  0  0  0  0  0  0  0  0  0  0
    1.5652  -50.2928  -32.2282 H   0  0  0  0  0  0  0  0  0  0  0  0
   -0.5780  -44.3602  -30.0618 H   0  0  0  0  0  0  0  0  0  0  0  0
    0.2964  -41.9881  -29.4459 H   0  0  0  0  0  0  0  0  0  0  0  0
   -1.3478  -42.0325  -30.1063 H   0  0  0  0  0  0  0  0  0  0  0  0
    0.2922  -40.2829  -31.0217 H   0  0  0  0  0  0  0  0  0  0  0  0
   -0.6983  -41.2146  -32.1435 H   0  0  0  0  0  0  0  0  0  0  0  0
    2.1931  -43.4090  -32.9380 H   0  0  0  0  0  0  0  0  0  0  0  0
    0.6067  -43.0006  -33.5869 H   0  0  0  0  0  0  0  0  0  0  0  0
    3.3383  -39.5371  -31.3840 H   0  0  0  0  0  0  0  0  0  0  0  0
    1.5822  -39.3608  -31.3543 H   0  0  0  0  0  0  0  0  0  0  0  0
    2.5128  -38.8275  -33.9709 H   0  0  0  0  0  0  0  0  0  0  0  0
    3.4304  -37.8639  -32.7938 H   0  0  0  0  0  0  0  0  0  0  0  0
    2.3424  -35.4909  -32.9650 H   0  0  0  0  0  0  0  0  0  0  0  0
   -0.1320  -34.7170  -32.6819 H   0  0  0  0  0  0  0  0  0  0  0  0
    2.2709  -50.2468  -35.4665 H   0  0  0  0  0  0  0  0  0  0  0  0
    2.5031  -51.4406  -36.7211 H   0  0  0  0  0  0  0  0  0  0  0  0
    3.4145  -51.5472  -35.2341 H   0  0  0  0  0  0  0  0  0  0  0  0
    0.7273  -54.0304  -34.7915 H   0  0  0  0  0  0  0  0  0  0  0  0
    2.4668  -53.8677  -34.8195 H   0  0  0  0  0  0  0  0  0  0  0  0
    1.5553  -53.7612  -36.3064 H   0  0  0  0  0  0  0  0  0  0  0  0
    3.1271  -52.4105  -26.7489 H   0  0  0  0  0  0  0  0  0  0  0  0
    2.8932  -50.7274  -26.2481 H   0  0  0  0  0  0  0  0  0  0  0  0
    5.1503  -52.5376  -25.4290 H   0  0  0  0  0  0  0  0  0  0  0  0
    3.8321  -51.9333  -24.4145 H   0  0  0  0  0  0  0  0  0  0  0  0
    7.0462  -49.9701  -25.8364 H   0  0  0  0  0  0  0  0  0  0  0  0
    5.5799  -49.0234  -26.2422 H   0  0  0  0  0  0  0  0  0  0  0  0
    6.3045  -51.7324  -27.2821 H   0  0  0  0  0  0  0  0  0  0  0  0
    6.2321  -50.2186  -28.1779 H   0  0  0  0  0  0  0  0  0  0  0  0
    7.1378  -51.1015  -24.1419 H   0  0  0  0  0  0  0  0  0  0  0  0
    5.7397  -51.4605  -23.1010 H   0  0  0  0  0  0  0  0  0  0  0  0
    6.6979  -48.6725  -23.5756 H   0  0  0  0  0  0  0  0  0  0  0  0
    7.2986  -49.6807  -22.2628 H   0  0  0  0  0  0  0  0  0  0  0  0
    5.5658  -50.7741  -20.7903 H   0  0  0  0  0  0  0  0  0  0  0  0
    3.6183  -50.4026  -19.4099 H   0  0  0  0  0  0  0  0  0  0  0  0
    2.1223  -48.5316  -19.8654 H   0  0  0  0  0  0  0  0  0  0  0  0
    6.1611  -47.5097  -24.2298 H   0  0  0  0  0  0  0  0  0  0  0  0
    5.8682  -45.7955  -24.0609 H   0  0  0  0  0  0  0  0  0  0  0  0
    4.9535  -46.7279  -25.2215 H   0  0  0  0  0  0  0  0  0  0  0  0
    1.0552  -45.3979  -22.0894 H   0  0  0  0  0  0  0  0  0  0  0  0
    0.5560  -47.9700  -20.6538 H   0  0  0  0  0  0  0  0  0  0  0  0
    0.0344  -47.5606  -22.2700 H   0  0  0  0  0  0  0  0  0  0  0  0
   -1.7542  -47.2261  -20.6067 H   0  0  0  0  0  0  0  0  0  0  0  0
   -1.2924  -45.7273  -21.4052 H   0  0  0  0  0  0  0  0  0  0  0  0
    5.7546  -46.6358  -32.0204 H   0  0  0  0  0  0  0  0  0  0  0  0
    6.0810  -47.5348  -30.5581 H   0  0  0  0  0  0  0  0  0  0  0  0
    4.8350  -46.3100  -30.5709 H   0  0  0  0  0  0  0  0  0  0  0  0
  1  2  2  0
  2  3  1  0
  2 67  1  0
  3 37  1  0
  3  4  2  0
  4  5  1  0
  4 68  1  0
  5  6  2  0
  5 69  1  0
  6  7  1  0
  6  1  1  0
  7  8  2  0
  8  9  1  0
  8 70  1  0
  9 17  1  0
  9 10  2  0
 10 11  1  0
 10 71  1  0
 11 12  2  0
 12 13  1  0
 12 72  1  0
 13 14  2  0
 13 73  1  0
 14 32  1  0
 14 15  1  0
 15 16  2  0
 15 74  1  0
 16  7  1  0
 16 11  1  0
 17 18  2  0
 18 19  1  0
 18 75  1  0
 19 20  1  0
 19 76  1  0
 19 77  1  0
 20 21  1  0
 20 78  1  0
 20 79  1  0
 21 22  1  0
 21 24  1  0
 22 23  2  0
 22 25  1  0
 24 17  1  0
 24 80  1  0
 24 81  1  0
 25 26  1  0
 25 82  1  0
 25 83  1  0
 26 27  1  0
 26 84  1  0
 26 85  1  0
 27 28  1  0
 28 29  2  0
 28 86  1  0
 29 30  1  0
 29 87  1  0
 30 31  2  0
 31 27  1  0
 32 33  2  0
 32 34  1  0
 34 35  1  0
 34 36  1  0
 35 88  1  0
 35 89  1  0
 35 90  1  0
 36 91  1  0
 36 92  1  0
 36 93  1  0
 37 38  1  0
 38 39  1  0
 38 94  1  0
 38 95  1  0
 39 40  1  0
 39 96  1  0
 39 97  1  0
 40 43  1  0
 40 41  1  0
 41 42  1  0
 41 98  1  0
 41 99  1  0
 42 37  1  0
 42100  1  0
 42101  1  0
 43 44  1  0
 43102  1  0
 43103  1  0
 44 45  1  0
 44104  1  0
 44105  1  0
 45 46  2  0
 46 47  1  0
 46106  1  0
 47 48  2  0
 47107  1  0
 48 49  1  0
 48108  1  0
 49 50  2  0
 50 51  1  0
 50 45  1  0
 51 52  1  0
 51 53  1  0
 52109  1  0
 52110  1  0
 52111  1  0
 53 54  2  0
 53 55  1  0
 55 56  1  0
 55 49  1  0
 56 57  1  0
 56112  1  6
 57 58  1  0
 57113  1  0
 57114  1  0
 58 59  1  0
 58115  1  0
 58116  1  0
 59 60  2  0
 59 61  1  0
 61 62  1  0
 61 64  1  0
 62 63  2  0
 62 56  1  0
 65 66  1  0
 65117  1  0
 65118  1  0
 65119  1  0
 66  1  1  0
M  END
>  <minimizedAffinity>  (5) 
-7.81978

>  <mol_id>  (5) 
89566

>  <source_index>  (5) 
4

>  <layer>  (5) 
L4

>  <uniprot>  (5) 
P42226

>  <paff>  (5) 
7

>  <smiles>  (5) 
COc1cc(N2CCN(CCc3cccc4c3n(C)c(=O)n4C3CCC(=O)NC3=O)CC2)ccc1-c1cc(C2=CCCN(C(=O)CCn3ccnn3)C2)cc2ccc(C(=O)N(C)C)cc12

$$$$
L4:P42226:94248
     RDKit          3D

 81 85  0  0  0  0  0  0  0  0999 V2000
    5.9384  -47.8656  -27.5282 C   0  0  2  0  0  0  0  0  0  0  0  0
    5.7141  -49.3638  -27.1932 C   0  0  0  0  0  0  0  0  0  0  0  0
    5.9525  -49.7785  -26.0498 O   0  0  0  0  0  0  0  0  0  0  0  0
    5.3123  -50.2236  -28.1884 N   0  0  0  0  0  0  0  0  0  0  0  0
    5.2581  -51.6599  -27.9499 C   0  0  0  0  0  0  0  0  0  0  0  0
    4.6786  -52.2614  -29.2228 C   0  0  0  0  0  0  0  0  0  0  0  0
    5.0189  -51.2234  -30.2897 C   0  0  0  0  0  0  0  0  0  0  0  0
    4.8482  -49.8972  -29.5411 C   0  0  1  0  0  0  0  0  0  0  0  0
    3.3637  -49.4478  -29.5630 C   0  0  0  0  0  0  0  0  0  0  0  0
    2.5494  -49.8887  -28.7478 O   0  0  0  0  0  0  0  0  0  0  0  0
    2.9766  -48.5770  -30.5787 N   0  0  0  0  0  0  0  0  0  0  0  0
    3.8935  -47.7907  -31.4062 C   0  0  0  0  0  0  0  0  0  0  0  0
    3.2936  -47.4854  -32.7816 C   0  0  0  0  0  0  0  0  0  0  0  0
    1.9914  -46.8938  -32.6787 O   0  0  0  0  0  0  0  0  0  0  0  0
    1.0618  -47.7482  -31.9685 C   0  0  2  0  0  0  0  0  0  0  0  0
    1.6065  -48.0412  -30.5504 C   0  0  0  0  0  0  0  0  0  0  0  0
    0.6631  -48.9371  -32.8373 C   0  0  0  0  0  0  0  0  0  0  0  0
    1.1114  -50.2447  -32.5974 C   0  0  0  0  0  0  0  0  0  0  0  0
    0.7348  -51.2974  -33.4384 C   0  0  0  0  0  0  0  0  0  0  0  0
   -0.1072  -51.0614  -34.5234 C   0  0  0  0  0  0  0  0  0  0  0  0
   -0.5788  -49.7739  -34.7631 C   0  0  0  0  0  0  0  0  0  0  0  0
   -0.1999  -48.7214  -33.9269 C   0  0  0  0  0  0  0  0  0  0  0  0
    7.5837  -46.1483  -28.4197 C   0  0  0  0  0  0  0  0  0  0  0  0
    7.4560  -47.4964  -27.6760 C   0  0  0  0  0  0  0  0  0  0  0  0
    8.2126  -48.5497  -28.5100 C   0  0  0  0  0  0  0  0  0  0  0  0
    8.1668  -47.3605  -26.3135 C   0  0  0  0  0  0  0  0  0  0  0  0
    5.3193  -47.1424  -26.4158 N   0  0  0  0  0  0  0  0  0  0  0  0
    3.9964  -46.7476  -26.4384 C   0  0  0  0  0  0  0  0  0  0  0  0
    3.3579  -46.7044  -27.4894 O   0  0  0  0  0  0  0  0  0  0  0  0
    5.6928  -47.3642  -25.4970 H   0  0  0  0  0  0  0  0  0  0  0  0
    3.4311  -46.3767  -25.1465 C   0  0  0  0  0  0  0  0  0  0  0  0
    2.4602  -47.0578  -24.4380 C   0  0  0  0  0  0  0  0  0  0  0  0
    2.1103  -46.4288  -23.1946 C   0  0  0  0  0  0  0  0  0  0  0  0
    1.1728  -46.8026  -22.1980 C   0  0  0  0  0  0  0  0  0  0  0  0
    0.9833  -46.0193  -21.0436 C   0  0  0  0  0  0  0  0  0  0  0  0
    1.7253  -44.8454  -20.8960 C   0  0  0  0  0  0  0  0  0  0  0  0
    2.6633  -44.4583  -21.8589 C   0  0  0  0  0  0  0  0  0  0  0  0
    2.8430  -45.2592  -22.9999 C   0  0  0  0  0  0  0  0  0  0  0  0
    3.9290  -44.9743  -24.3026 S   0  0  0  0  0  0  0  0  0  0  0  0
   -0.0527  -46.4352  -20.0327 C   0  0  0  0  0  0  0  0  0  0  0  0
   -1.3185  -46.0597  -20.3902 F   0  0  0  0  0  0  0  0  0  0  0  0
   -0.1154  -47.7868  -19.8423 F   0  0  0  0  0  0  0  0  0  0  0  0
   -0.0101  -45.8367  -18.3249 P   0  0  0  0  0  0  0  0  0  0  0  0
    1.2854  -45.9290  -17.5705 O   0  0  0  0  0  0  0  0  0  0  0  0
   -1.2013  -46.5297  -17.4911 O   0  0  0  0  0  0  0  0  0  0  0  0
   -0.5448  -44.3108  -18.3207 O   0  0  0  0  0  0  0  0  0  0  0  0
   -1.1639  -46.2746  -16.5474 H   0  0  0  0  0  0  0  0  0  0  0  0
    0.1118  -43.6860  -18.6883 H   0  0  0  0  0  0  0  0  0  0  0  0
    5.5089  -47.6118  -28.4748 H   0  0  0  0  0  0  0  0  0  0  0  0
    4.6275  -51.8766  -27.1130 H   0  0  0  0  0  0  0  0  0  0  0  0
    6.2238  -52.0618  -27.7245 H   0  0  0  0  0  0  0  0  0  0  0  0
    3.6198  -52.3906  -29.1379 H   0  0  0  0  0  0  0  0  0  0  0  0
    5.0713  -53.2320  -29.4432 H   0  0  0  0  0  0  0  0  0  0  0  0
    4.3451  -51.2875  -31.1184 H   0  0  0  0  0  0  0  0  0  0  0  0
    5.9955  -51.3507  -30.7079 H   0  0  0  0  0  0  0  0  0  0  0  0
    5.3898  -49.0803  -29.9704 H   0  0  0  0  0  0  0  0  0  0  0  0
    4.8010  -48.3419  -31.5382 H   0  0  0  0  0  0  0  0  0  0  0  0
    4.0785  -46.8615  -30.9090 H   0  0  0  0  0  0  0  0  0  0  0  0
    3.2161  -48.3978  -33.3352 H   0  0  0  0  0  0  0  0  0  0  0  0
    3.9364  -46.7872  -33.2757 H   0  0  0  0  0  0  0  0  0  0  0  0
    0.1255  -47.2638  -31.7855 H   0  0  0  0  0  0  0  0  0  0  0  0
    0.9669  -48.7565  -30.0770 H   0  0  0  0  0  0  0  0  0  0  0  0
    1.6270  -47.1178  -30.0101 H   0  0  0  0  0  0  0  0  0  0  0  0
    1.7267  -50.4324  -31.7904 H   0  0  0  0  0  0  0  0  0  0  0  0
    1.0817  -52.2518  -33.2546 H   0  0  0  0  0  0  0  0  0  0  0  0
   -0.3799  -51.8377  -35.1464 H   0  0  0  0  0  0  0  0  0  0  0  0
   -1.2097  -49.5967  -35.5603 H   0  0  0  0  0  0  0  0  0  0  0  0
   -0.5584  -47.7714  -34.1112 H   0  0  0  0  0  0  0  0  0  0  0  0
    8.6180  -45.8939  -28.5219 H   0  0  0  0  0  0  0  0  0  0  0  0
    7.0820  -45.3848  -27.8627 H   0  0  0  0  0  0  0  0  0  0  0  0
    7.1395  -46.2325  -29.3895 H   0  0  0  0  0  0  0  0  0  0  0  0
    9.2417  -48.2683  -28.5912 H   0  0  0  0  0  0  0  0  0  0  0  0
    7.7807  -48.6083  -29.4872 H   0  0  0  0  0  0  0  0  0  0  0  0
    8.1404  -49.5035  -28.0304 H   0  0  0  0  0  0  0  0  0  0  0  0
    9.1948  -47.1089  -26.4710 H   0  0  0  0  0  0  0  0  0  0  0  0
    8.1037  -48.2883  -25.7842 H   0  0  0  0  0  0  0  0  0  0  0  0
    7.6949  -46.5900  -25.7403 H   0  0  0  0  0  0  0  0  0  0  0  0
    2.0279  -47.9341  -24.7699 H   0  0  0  0  0  0  0  0  0  0  0  0
    0.6193  -47.6648  -22.3214 H   0  0  0  0  0  0  0  0  0  0  0  0
    1.5792  -44.2539  -20.0630 H   0  0  0  0  0  0  0  0  0  0  0  0
    3.2161  -43.5960  -21.7332 H   0  0  0  0  0  0  0  0  0  0  0  0
  1 27  1  0
  1  2  1  0
  1 49  1  6
  2  3  2  0
  2  4  1  0
  4  5  1  0
  5  6  1  0
  5 50  1  0
  5 51  1  0
  6  7  1  0
  6 52  1  0
  6 53  1  0
  7  8  1  0
  7 54  1  0
  7 55  1  0
  8  9  1  0
  8  4  1  0
  8 56  1  6
  9 10  2  0
  9 11  1  0
 11 12  1  0
 12 13  1  0
 12 57  1  0
 12 58  1  0
 13 14  1  0
 13 59  1  0
 13 60  1  0
 14 15  1  0
 15 17  1  0
 15 16  1  0
 15 61  1  1
 16 11  1  0
 16 62  1  0
 16 63  1  0
 17 18  2  0
 18 19  1  0
 18 64  1  0
 19 20  2  0
 19 65  1  0
 20 21  1  0
 20 66  1  0
 21 22  2  0
 21 67  1  0
 22 17  1  0
 22 68  1  0
 23 24  1  0
 23 69  1  0
 23 70  1  0
 23 71  1  0
 24 25  1  0
 24 26  1  0
 24  1  1  0
 25 72  1  0
 25 73  1  0
 25 74  1  0
 26 75  1  0
 26 76  1  0
 26 77  1  0
 27 28  1  0
 27 30  1  0
 28 29  2  0
 28 31  1  0
 31 32  2  0
 32 33  1  0
 32 78  1  0
 33 34  2  0
 34 35  1  0
 34 79  1  0
 35 40  1  0
 35 36  2  0
 36 37  1  0
 36 80  1  0
 37 38  2  0
 37 81  1  0
 38 39  1  0
 38 33  1  0
 39 31  1  0
 40 41  1  0
 40 42  1  0
 40 43  1  0
 43 44  2  0
 43 45  1  0
 43 46  1  0
 45 47  1  0
 46 48  1  0
M  END
>  <minimizedAffinity>  (6) 
-7.13058

>  <mol_id>  (6) 
94248

>  <source_index>  (6) 
5

>  <layer>  (6) 
L4

>  <uniprot>  (6) 
P42226

>  <paff>  (6) 
6.2441000000000004

>  <smiles>  (6) 
CC(C)(C)[C@H](NC(=O)c1cc2cc(C(F)(F)P(=O)(O)O)ccc2s1)C(=O)N1CCC[C@H]1C(=O)N1CCO[C@@H](c2ccccc2)C1

$$$$
L4:P42226:115838
     RDKit          3D

 87 92  0  0  0  0  0  0  0  0999 V2000
    5.6200  -48.4591  -27.6279 C   0  0  2  0  0  0  0  0  0  0  0  0
    5.1573  -49.9321  -27.7554 C   0  0  0  0  0  0  0  0  0  0  0  0
    5.0648  -50.6394  -26.7462 O   0  0  0  0  0  0  0  0  0  0  0  0
    4.8830  -50.4361  -29.0033 N   0  0  0  0  0  0  0  0  0  0  0  0
    4.5356  -51.8438  -29.1731 C   0  0  0  0  0  0  0  0  0  0  0  0
    4.5585  -52.0248  -30.6567 C   0  0  0  0  0  0  0  0  0  0  0  0
    4.4422  -53.1965  -31.3837 C   0  0  0  0  0  0  0  0  0  0  0  0
    4.4761  -53.1125  -32.7754 C   0  0  0  0  0  0  0  0  0  0  0  0
    4.6257  -51.8724  -33.4175 C   0  0  0  0  0  0  0  0  0  0  0  0
    4.7356  -50.6946  -32.6761 C   0  0  0  0  0  0  0  0  0  0  0  0
    4.6995  -50.7834  -31.2950 C   0  0  0  0  0  0  0  0  0  0  0  0
    4.7562  -49.6805  -30.2665 C   0  0  1  0  0  0  0  0  0  0  0  0
    3.4362  -48.8550  -30.2946 C   0  0  0  0  0  0  0  0  0  0  0  0
    2.3729  -49.3486  -29.9012 O   0  0  0  0  0  0  0  0  0  0  0  0
    3.4739  -47.5708  -30.8563 N   0  0  0  0  0  0  0  0  0  0  0  0
    4.6652  -46.7197  -30.8224 C   0  0  0  0  0  0  0  0  0  0  0  0
    4.6740  -45.6813  -31.9420 C   0  0  0  0  0  0  0  0  0  0  0  0
    3.3681  -44.8913  -31.9913 C   0  0  0  0  0  0  0  0  0  0  0  0
    2.1791  -45.8574  -32.1047 C   0  0  1  0  0  0  0  0  0  0  0  0
    2.1931  -46.8558  -30.9372 C   0  0  0  0  0  0  0  0  0  0  0  0
    0.8461  -45.1476  -32.2208 C   0  0  0  0  0  0  0  0  0  0  0  0
   -0.1868  -45.6238  -33.0425 C   0  0  0  0  0  0  0  0  0  0  0  0
   -1.3998  -44.9337  -33.1301 C   0  0  0  0  0  0  0  0  0  0  0  0
   -1.5918  -43.7563  -32.4099 C   0  0  0  0  0  0  0  0  0  0  0  0
   -0.5693  -43.2676  -31.5988 C   0  0  0  0  0  0  0  0  0  0  0  0
    0.6410  -43.9560  -31.5053 C   0  0  0  0  0  0  0  0  0  0  0  0
    7.6474  -47.0038  -28.2092 C   0  0  0  0  0  0  0  0  0  0  0  0
    7.1745  -48.3025  -27.5263 C   0  0  0  0  0  0  0  0  0  0  0  0
    7.9296  -49.4839  -28.1682 C   0  0  0  0  0  0  0  0  0  0  0  0
    7.5968  -48.2184  -26.0426 C   0  0  0  0  0  0  0  0  0  0  0  0
    4.9396  -47.9510  -26.4403 N   0  0  0  0  0  0  0  0  0  0  0  0
    3.8731  -47.0886  -26.4735 C   0  0  0  0  0  0  0  0  0  0  0  0
    3.4363  -46.6526  -27.5361 O   0  0  0  0  0  0  0  0  0  0  0  0
    5.2187  -48.3446  -25.5472 H   0  0  0  0  0  0  0  0  0  0  0  0
    3.3496  -46.6882  -25.1754 C   0  0  0  0  0  0  0  0  0  0  0  0
    2.4148  -47.3615  -24.4153 C   0  0  0  0  0  0  0  0  0  0  0  0
    2.0443  -46.6667  -23.2144 C   0  0  0  0  0  0  0  0  0  0  0  0
    1.0906  -46.9920  -22.2174 C   0  0  0  0  0  0  0  0  0  0  0  0
    0.8716  -46.1474  -21.1174 C   0  0  0  0  0  0  0  0  0  0  0  0
    1.6390  -44.9850  -21.0042 C   0  0  0  0  0  0  0  0  0  0  0  0
    2.5923  -44.6407  -21.9650 C   0  0  0  0  0  0  0  0  0  0  0  0
    2.7732  -45.4887  -23.0730 C   0  0  0  0  0  0  0  0  0  0  0  0
    3.8517  -45.2561  -24.3921 S   0  0  0  0  0  0  0  0  0  0  0  0
   -0.1576  -46.4268  -20.0504 C   0  0  0  0  0  0  0  0  0  0  0  0
   -0.3141  -47.7701  -19.8336 F   0  0  0  0  0  0  0  0  0  0  0  0
   -1.3952  -45.9665  -20.4047 F   0  0  0  0  0  0  0  0  0  0  0  0
   -0.0406  -45.8317  -18.3569 P   0  0  0  0  0  0  0  0  0  0  0  0
    1.2497  -45.9635  -17.6019 O   0  0  0  0  0  0  0  0  0  0  0  0
   -1.2287  -46.5000  -17.4880 O   0  0  0  0  0  0  0  0  0  0  0  0
   -0.5258  -44.2895  -18.3102 O   0  0  0  0  0  0  0  0  0  0  0  0
   -1.0515  -46.4367  -16.5299 H   0  0  0  0  0  0  0  0  0  0  0  0
   -0.2083  -43.8396  -17.5058 H   0  0  0  0  0  0  0  0  0  0  0  0
    5.3680  -47.9038  -28.5071 H   0  0  0  0  0  0  0  0  0  0  0  0
    3.5634  -52.0496  -28.7764 H   0  0  0  0  0  0  0  0  0  0  0  0
    5.2016  -52.5052  -28.6594 H   0  0  0  0  0  0  0  0  0  0  0  0
    4.3335  -54.1066  -30.9095 H   0  0  0  0  0  0  0  0  0  0  0  0
    4.3902  -53.9719  -33.3402 H   0  0  0  0  0  0  0  0  0  0  0  0
    4.6547  -51.8314  -34.4483 H   0  0  0  0  0  0  0  0  0  0  0  0
    4.8410  -49.7815  -33.1453 H   0  0  0  0  0  0  0  0  0  0  0  0
    5.5469  -48.9762  -30.4202 H   0  0  0  0  0  0  0  0  0  0  0  0
    5.5322  -47.3388  -30.9218 H   0  0  0  0  0  0  0  0  0  0  0  0
    4.6624  -46.1934  -29.8908 H   0  0  0  0  0  0  0  0  0  0  0  0
    4.8119  -46.1817  -32.8777 H   0  0  0  0  0  0  0  0  0  0  0  0
    5.4721  -44.9942  -31.7528 H   0  0  0  0  0  0  0  0  0  0  0  0
    3.3788  -44.2401  -32.8402 H   0  0  0  0  0  0  0  0  0  0  0  0
    3.2703  -44.3145  -31.0954 H   0  0  0  0  0  0  0  0  0  0  0  0
    2.2964  -46.3987  -33.0202 H   0  0  0  0  0  0  0  0  0  0  0  0
    1.4061  -47.5669  -31.0782 H   0  0  0  0  0  0  0  0  0  0  0  0
    2.0547  -46.3104  -30.0271 H   0  0  0  0  0  0  0  0  0  0  0  0
   -0.0502  -46.4901  -33.5864 H   0  0  0  0  0  0  0  0  0  0  0  0
   -2.1560  -45.2979  -33.7306 H   0  0  0  0  0  0  0  0  0  0  0  0
   -2.4876  -43.2483  -32.4769 H   0  0  0  0  0  0  0  0  0  0  0  0
   -0.7075  -42.3946  -31.0661 H   0  0  0  0  0  0  0  0  0  0  0  0
    1.3936  -43.5858  -30.9040 H   0  0  0  0  0  0  0  0  0  0  0  0
    8.7110  -46.9232  -28.1245 H   0  0  0  0  0  0  0  0  0  0  0  0
    7.1870  -46.1629  -27.7340 H   0  0  0  0  0  0  0  0  0  0  0  0
    7.3724  -47.0239  -29.2431 H   0  0  0  0  0  0  0  0  0  0  0  0
    8.9838  -49.3279  -28.0719 H   0  0  0  0  0  0  0  0  0  0  0  0
    7.6721  -49.5509  -29.2046 H   0  0  0  0  0  0  0  0  0  0  0  0
    7.6568  -50.3926  -27.6735 H   0  0  0  0  0  0  0  0  0  0  0  0
    8.6596  -48.1115  -25.9798 H   0  0  0  0  0  0  0  0  0  0  0  0
    7.2976  -49.1118  -25.5354 H   0  0  0  0  0  0  0  0  0  0  0  0
    7.1257  -47.3737  -25.5850 H   0  0  0  0  0  0  0  0  0  0  0  0
    2.0200  -48.2763  -24.6841 H   0  0  0  0  0  0  0  0  0  0  0  0
    0.5474  -47.8654  -22.3016 H   0  0  0  0  0  0  0  0  0  0  0  0
    1.4978  -44.3659  -20.1907 H   0  0  0  0  0  0  0  0  0  0  0  0
    3.1535  -43.7805  -21.8642 H   0  0  0  0  0  0  0  0  0  0  0  0
  1 31  1  0
  1  2  1  0
  1 53  1  6
  2  3  2  0
  2  4  1  0
  4  5  1  0
  5  6  1  0
  5 54  1  0
  5 55  1  0
  6  7  2  0
  7  8  1  0
  7 56  1  0
  8  9  2  0
  8 57  1  0
  9 10  1  0
  9 58  1  0
 10 11  2  0
 10 59  1  0
 11 12  1  0
 11  6  1  0
 12 13  1  0
 12  4  1  0
 12 60  1  6
 13 14  2  0
 13 15  1  0
 15 16  1  0
 16 17  1  0
 16 61  1  0
 16 62  1  0
 17 18  1  0
 17 63  1  0
 17 64  1  0
 18 19  1  0
 18 65  1  0
 18 66  1  0
 19 21  1  0
 19 20  1  0
 19 67  1  6
 20 15  1  0
 20 68  1  0
 20 69  1  0
 21 22  2  0
 22 23  1  0
 22 70  1  0
 23 24  2  0
 23 71  1  0
 24 25  1  0
 24 72  1  0
 25 26  2  0
 25 73  1  0
 26 21  1  0
 26 74  1  0
 27 28  1  0
 27 75  1  0
 27 76  1  0
 27 77  1  0
 28 29  1  0
 28 30  1  0
 28  1  1  0
 29 78  1  0
 29 79  1  0
 29 80  1  0
 30 81  1  0
 30 82  1  0
 30 83  1  0
 31 32  1  0
 31 34  1  0
 32 33  2  0
 32 35  1  0
 35 36  2  0
 36 37  1  0
 36 84  1  0
 37 38  2  0
 38 39  1  0
 38 85  1  0
 39 44  1  0
 39 40  2  0
 40 41  1  0
 40 86  1  0
 41 42  2  0
 41 87  1  0
 42 43  1  0
 42 37  1  0
 43 35  1  0
 44 45  1  0
 44 46  1  0
 44 47  1  0
 47 48  2  0
 47 49  1  0
 47 50  1  0
 49 51  1  0
 50 52  1  0
M  END
>  <minimizedAffinity>  (7) 
-7.51932

>  <mol_id>  (7) 
115838

>  <source_index>  (7) 
6

>  <layer>  (7) 
L4

>  <uniprot>  (7) 
P42226

>  <paff>  (7) 
7.3768000000000002

>  <smiles>  (7) 
CC(C)(C)[C@H](NC(=O)c1cc2cc(C(F)(F)P(=O)(O)O)ccc2s1)C(=O)N1Cc2ccccc2[C@H]1C(=O)N1CCC[C@H](c2ccccc2)C1

$$$$
L4:P42226:120290
     RDKit          3D

 81 85  0  0  0  0  0  0  0  0999 V2000
    5.7867  -47.8689  -27.5563 C   0  0  2  0  0  0  0  0  0  0  0  0
    5.6256  -49.3842  -27.2572 C   0  0  0  0  0  0  0  0  0  0  0  0
    5.8436  -49.8165  -26.1183 O   0  0  0  0  0  0  0  0  0  0  0  0
    5.2107  -50.2387  -28.2590 N   0  0  0  0  0  0  0  0  0  0  0  0
    5.2768  -51.6768  -28.0473 C   0  0  0  0  0  0  0  0  0  0  0  0
    4.7833  -52.2989  -29.3414 C   0  0  0  0  0  0  0  0  0  0  0  0
    5.1549  -51.2564  -30.3848 C   0  0  0  0  0  0  0  0  0  0  0  0
    4.9415  -49.9174  -29.6605 C   0  0  1  0  0  0  0  0  0  0  0  0
    3.5888  -49.3043  -30.1216 C   0  0  0  0  0  0  0  0  0  0  0  0
    2.5728  -49.6732  -29.5111 O   0  0  0  0  0  0  0  0  0  0  0  0
    3.5127  -48.2637  -31.0283 N   0  0  0  0  0  0  0  0  0  0  0  0
    4.5560  -47.8410  -31.9673 C   0  0  0  0  0  0  0  0  0  0  0  0
    3.9958  -47.0131  -33.1320 C   0  0  0  0  0  0  0  0  0  0  0  0
    3.2835  -45.8597  -32.6749 O   0  0  0  0  0  0  0  0  0  0  0  0
    2.3472  -46.1490  -31.6192 C   0  0  2  0  0  0  0  0  0  0  0  0
    2.1991  -47.6517  -31.2779 C   0  0  0  0  0  0  0  0  0  0  0  0
    1.0361  -45.4766  -31.9554 C   0  0  0  0  0  0  0  0  0  0  0  0
    0.5920  -44.3737  -31.2060 C   0  0  0  0  0  0  0  0  0  0  0  0
   -0.6153  -43.7451  -31.5202 C   0  0  0  0  0  0  0  0  0  0  0  0
   -1.3779  -44.2129  -32.5850 C   0  0  0  0  0  0  0  0  0  0  0  0
   -2.5349  -43.6066  -32.8826 F   0  0  0  0  0  0  0  0  0  0  0  0
   -0.9590  -45.2957  -33.3433 C   0  0  0  0  0  0  0  0  0  0  0  0
    0.2446  -45.9155  -33.0256 C   0  0  0  0  0  0  0  0  0  0  0  0
    0.6399  -46.9572  -33.7720 F   0  0  0  0  0  0  0  0  0  0  0  0
    7.3958  -46.1651  -28.5861 C   0  0  0  0  0  0  0  0  0  0  0  0
    7.2786  -47.4155  -27.6950 C   0  0  0  0  0  0  0  0  0  0  0  0
    8.1890  -48.5097  -28.2898 C   0  0  0  0  0  0  0  0  0  0  0  0
    7.8269  -47.0439  -26.2981 C   0  0  0  0  0  0  0  0  0  0  0  0
    5.1308  -47.1911  -26.4325 N   0  0  0  0  0  0  0  0  0  0  0  0
    3.7773  -46.9317  -26.4241 C   0  0  0  0  0  0  0  0  0  0  0  0
    3.0920  -47.0716  -27.4343 O   0  0  0  0  0  0  0  0  0  0  0  0
    5.5516  -47.3296  -25.5193 H   0  0  0  0  0  0  0  0  0  0  0  0
    3.2125  -46.5239  -25.1457 C   0  0  0  0  0  0  0  0  0  0  0  0
    2.1910  -47.1527  -24.4616 C   0  0  0  0  0  0  0  0  0  0  0  0
    1.8586  -46.5159  -23.2208 C   0  0  0  0  0  0  0  0  0  0  0  0
    0.8895  -46.8508  -22.2436 C   0  0  0  0  0  0  0  0  0  0  0  0
    0.7286  -46.0680  -21.0868 C   0  0  0  0  0  0  0  0  0  0  0  0
    1.5423  -44.9479  -20.9062 C   0  0  0  0  0  0  0  0  0  0  0  0
    2.5093  -44.5969  -21.8523 C   0  0  0  0  0  0  0  0  0  0  0  0
    2.6554  -45.3918  -23.0039 C   0  0  0  0  0  0  0  0  0  0  0  0
    3.7717  -45.1554  -24.2911 S   0  0  0  0  0  0  0  0  0  0  0  0
   -0.2929  -46.4441  -20.0444 C   0  0  0  0  0  0  0  0  0  0  0  0
   -0.4267  -47.7906  -19.8672 F   0  0  0  0  0  0  0  0  0  0  0  0
   -1.5433  -45.9724  -20.3208 F   0  0  0  0  0  0  0  0  0  0  0  0
   -0.0588  -45.8807  -18.3444 P   0  0  0  0  0  0  0  0  0  0  0  0
    1.2677  -46.0481  -17.6672 O   0  0  0  0  0  0  0  0  0  0  0  0
   -1.2154  -46.5387  -17.4284 O   0  0  0  0  0  0  0  0  0  0  0  0
   -0.5113  -44.3331  -18.2609 O   0  0  0  0  0  0  0  0  0  0  0  0
   -1.0121  -46.4658  -16.4769 H   0  0  0  0  0  0  0  0  0  0  0  0
   -0.1985  -43.9003  -17.4445 H   0  0  0  0  0  0  0  0  0  0  0  0
    5.3495  -47.6252  -28.5020 H   0  0  0  0  0  0  0  0  0  0  0  0
    4.6482  -51.9641  -27.2305 H   0  0  0  0  0  0  0  0  0  0  0  0
    6.2683  -51.9978  -27.8047 H   0  0  0  0  0  0  0  0  0  0  0  0
    3.7252  -52.4555  -29.3139 H   0  0  0  0  0  0  0  0  0  0  0  0
    5.2088  -53.2611  -29.5362 H   0  0  0  0  0  0  0  0  0  0  0  0
    4.5185  -51.3315  -31.2417 H   0  0  0  0  0  0  0  0  0  0  0  0
    6.1541  -51.3744  -30.7489 H   0  0  0  0  0  0  0  0  0  0  0  0
    5.5877  -49.0947  -29.8854 H   0  0  0  0  0  0  0  0  0  0  0  0
    5.0344  -48.7120  -32.3640 H   0  0  0  0  0  0  0  0  0  0  0  0
    5.2463  -47.2237  -31.4312 H   0  0  0  0  0  0  0  0  0  0  0  0
    3.3305  -47.6262  -33.7032 H   0  0  0  0  0  0  0  0  0  0  0  0
    4.8201  -46.6787  -33.7267 H   0  0  0  0  0  0  0  0  0  0  0  0
    2.7358  -45.7458  -30.7074 H   0  0  0  0  0  0  0  0  0  0  0  0
    1.7290  -48.1528  -32.0982 H   0  0  0  0  0  0  0  0  0  0  0  0
    1.6043  -47.7450  -30.3934 H   0  0  0  0  0  0  0  0  0  0  0  0
    1.1614  -44.0260  -30.4186 H   0  0  0  0  0  0  0  0  0  0  0  0
   -0.9396  -42.9378  -30.9651 H   0  0  0  0  0  0  0  0  0  0  0  0
   -1.5317  -45.6363  -34.1313 H   0  0  0  0  0  0  0  0  0  0  0  0
    8.4235  -45.8775  -28.6637 H   0  0  0  0  0  0  0  0  0  0  0  0
    6.8331  -45.3646  -28.1531 H   0  0  0  0  0  0  0  0  0  0  0  0
    7.0122  -46.3844  -29.5606 H   0  0  0  0  0  0  0  0  0  0  0  0
    9.1911  -48.1411  -28.3591 H   0  0  0  0  0  0  0  0  0  0  0  0
    7.8380  -48.7743  -29.2653 H   0  0  0  0  0  0  0  0  0  0  0  0
    8.1693  -49.3726  -27.6575 H   0  0  0  0  0  0  0  0  0  0  0  0
    8.8469  -46.7330  -26.3864 H   0  0  0  0  0  0  0  0  0  0  0  0
    7.7683  -47.8961  -25.6537 H   0  0  0  0  0  0  0  0  0  0  0  0
    7.2450  -46.2454  -25.8873 H   0  0  0  0  0  0  0  0  0  0  0  0
    1.7133  -47.9987  -24.8096 H   0  0  0  0  0  0  0  0  0  0  0  0
    0.2929  -47.6813  -22.3827 H   0  0  0  0  0  0  0  0  0  0  0  0
    1.4277  -44.3691  -20.0595 H   0  0  0  0  0  0  0  0  0  0  0  0
    3.1067  -43.7678  -21.7084 H   0  0  0  0  0  0  0  0  0  0  0  0
  1 29  1  0
  1  2  1  0
  1 51  1  6
  2  3  2  0
  2  4  1  0
  4  5  1  0
  5  6  1  0
  5 52  1  0
  5 53  1  0
  6  7  1  0
  6 54  1  0
  6 55  1  0
  7  8  1  0
  7 56  1  0
  7 57  1  0
  8  9  1  0
  8  4  1  0
  8 58  1  6
  9 10  2  0
  9 11  1  0
 11 12  1  0
 12 13  1  0
 12 59  1  0
 12 60  1  0
 13 14  1  0
 13 61  1  0
 13 62  1  0
 14 15  1  0
 15 17  1  0
 15 16  1  0
 15 63  1  1
 16 11  1  0
 16 64  1  0
 16 65  1  0
 17 18  2  0
 18 19  1  0
 18 66  1  0
 19 20  2  0
 19 67  1  0
 20 21  1  0
 20 22  1  0
 22 23  2  0
 22 68  1  0
 23 24  1  0
 23 17  1  0
 25 26  1  0
 25 69  1  0
 25 70  1  0
 25 71  1  0
 26 27  1  0
 26 28  1  0
 26  1  1  0
 27 72  1  0
 27 73  1  0
 27 74  1  0
 28 75  1  0
 28 76  1  0
 28 77  1  0
 29 30  1  0
 29 32  1  0
 30 31  2  0
 30 33  1  0
 33 34  2  0
 34 35  1  0
 34 78  1  0
 35 36  2  0
 36 37  1  0
 36 79  1  0
 37 42  1  0
 37 38  2  0
 38 39  1  0
 38 80  1  0
 39 40  2  0
 39 81  1  0
 40 41  1  0
 40 35  1  0
 41 33  1  0
 42 43  1  0
 42 44  1  0
 42 45  1  0
 45 46  2  0
 45 47  1  0
 45 48  1  0
 47 49  1  0
 48 50  1  0
M  END
>  <minimizedAffinity>  (8) 
-7.70422

>  <mol_id>  (8) 
120290

>  <source_index>  (8) 
7

>  <layer>  (8) 
L4

>  <uniprot>  (8) 
P42226

>  <paff>  (8) 
6.3768000000000002

>  <smiles>  (8) 
CC(C)(C)[C@H](NC(=O)c1cc2cc(C(F)(F)P(=O)(O)O)ccc2s1)C(=O)N1CCC[C@H]1C(=O)N1CCOC(c2ccc(F)cc2F)C1

$$$$
L4:P42226:125214
     RDKit          3D

 82 86  0  0  0  0  0  0  0  0999 V2000
    5.4564  -47.8360  -27.8196 C   0  0  2  0  0  0  0  0  0  0  0  0
    4.8212  -49.2060  -28.1725 C   0  0  0  0  0  0  0  0  0  0  0  0
    4.8281  -50.1212  -27.3436 O   0  0  0  0  0  0  0  0  0  0  0  0
    4.2521  -49.3723  -29.4140 N   0  0  0  0  0  0  0  0  0  0  0  0
    3.6546  -50.6454  -29.8000 C   0  0  0  0  0  0  0  0  0  0  0  0
    2.9762  -50.3736  -31.1464 C   0  0  1  0  0  0  0  0  0  0  0  0
    1.6000  -50.0337  -30.9931 O   0  0  0  0  0  0  0  0  0  0  0  0
    3.7477  -49.1800  -31.7109 C   0  0  0  0  0  0  0  0  0  0  0  0
    4.0917  -48.3625  -30.4653 C   0  0  1  0  0  0  0  0  0  0  0  0
    1.4973  -49.4301  -30.2232 H   0  0  0  0  0  0  0  0  0  0  0  0
    2.9351  -47.3895  -30.1146 C   0  0  0  0  0  0  0  0  0  0  0  0
    2.4535  -47.3952  -28.9771 O   0  0  0  0  0  0  0  0  0  0  0  0
    2.4338  -46.5707  -31.1213 N   0  0  0  0  0  0  0  0  0  0  0  0
    1.6105  -45.4372  -30.6962 C   0  0  0  0  0  0  0  0  0  0  0  0
    0.7085  -44.9227  -31.8218 C   0  0  0  0  0  0  0  0  0  0  0  0
    1.4586  -44.6076  -33.0003 O   0  0  0  0  0  0  0  0  0  0  0  0
    2.1854  -45.7413  -33.5036 C   0  0  1  0  0  0  0  0  0  0  0  0
    3.0917  -46.3823  -32.4222 C   0  0  0  0  0  0  0  0  0  0  0  0
    1.2612  -46.6846  -34.2670 C   0  0  0  0  0  0  0  0  0  0  0  0
    0.6462  -46.2185  -35.4428 C   0  0  0  0  0  0  0  0  0  0  0  0
   -0.2156  -47.0349  -36.1763 C   0  0  0  0  0  0  0  0  0  0  0  0
   -0.4918  -48.3260  -35.7362 C   0  0  0  0  0  0  0  0  0  0  0  0
    0.0967  -48.8001  -34.5656 C   0  0  0  0  0  0  0  0  0  0  0  0
    0.9661  -47.9863  -33.8369 C   0  0  0  0  0  0  0  0  0  0  0  0
    7.6633  -48.9676  -28.5411 C   0  0  0  0  0  0  0  0  0  0  0  0
    7.0114  -47.8806  -27.6638 C   0  0  0  0  0  0  0  0  0  0  0  0
    7.3722  -48.1691  -26.1885 C   0  0  0  0  0  0  0  0  0  0  0  0
    7.6408  -46.5227  -28.0343 C   0  0  0  0  0  0  0  0  0  0  0  0
    4.7927  -47.4207  -26.5840 N   0  0  0  0  0  0  0  0  0  0  0  0
    4.3397  -46.1326  -26.3783 C   0  0  0  0  0  0  0  0  0  0  0  0
    4.5562  -45.2532  -27.2100 O   0  0  0  0  0  0  0  0  0  0  0  0
    4.4609  -48.1760  -25.9939 H   0  0  0  0  0  0  0  0  0  0  0  0
    3.6305  -45.9193  -25.1211 C   0  0  0  0  0  0  0  0  0  0  0  0
    2.6204  -46.6533  -24.5276 C   0  0  0  0  0  0  0  0  0  0  0  0
    2.2069  -46.1330  -23.2535 C   0  0  0  0  0  0  0  0  0  0  0  0
    1.2291  -46.6015  -22.3415 C   0  0  0  0  0  0  0  0  0  0  0  0
    0.9828  -45.9333  -21.1243 C   0  0  0  0  0  0  0  0  0  0  0  0
    1.7001  -44.7692  -20.8397 C   0  0  0  0  0  0  0  0  0  0  0  0
    2.6742  -44.2864  -21.7209 C   0  0  0  0  0  0  0  0  0  0  0  0
    2.9192  -44.9809  -22.9203 C   0  0  0  0  0  0  0  0  0  0  0  0
    4.0642  -44.5821  -24.1390 S   0  0  0  0  0  0  0  0  0  0  0  0
   -0.0786  -46.4599  -20.1907 C   0  0  0  0  0  0  0  0  0  0  0  0
   -1.3405  -46.1368  -20.5973 F   0  0  0  0  0  0  0  0  0  0  0  0
   -0.0619  -47.8223  -20.0746 F   0  0  0  0  0  0  0  0  0  0  0  0
   -0.1355  -45.9788  -18.4521 P   0  0  0  0  0  0  0  0  0  0  0  0
   -0.9965  -46.7435  -17.4890 O   0  0  0  0  0  0  0  0  0  0  0  0
   -0.5200  -44.4119  -18.3554 O   0  0  0  0  0  0  0  0  0  0  0  0
    1.3727  -45.9095  -17.8793 O   0  0  0  0  0  0  0  0  0  0  0  0
   -0.9467  -44.2122  -17.4969 H   0  0  0  0  0  0  0  0  0  0  0  0
    1.3969  -45.8619  -16.9053 H   0  0  0  0  0  0  0  0  0  0  0  0
    5.3104  -47.1375  -28.6169 H   0  0  0  0  0  0  0  0  0  0  0  0
    2.9349  -50.9588  -29.0728 H   0  0  0  0  0  0  0  0  0  0  0  0
    4.3825  -51.4267  -29.8674 H   0  0  0  0  0  0  0  0  0  0  0  0
    2.9945  -51.2362  -31.7792 H   0  0  0  0  0  0  0  0  0  0  0  0
    3.1389  -48.6141  -32.3847 H   0  0  0  0  0  0  0  0  0  0  0  0
    4.6106  -49.4678  -32.2743 H   0  0  0  0  0  0  0  0  0  0  0  0
    4.9649  -47.7580  -30.5954 H   0  0  0  0  0  0  0  0  0  0  0  0
    2.2543  -44.6431  -30.3803 H   0  0  0  0  0  0  0  0  0  0  0  0
    0.9813  -45.7698  -29.8972 H   0  0  0  0  0  0  0  0  0  0  0  0
    0.2039  -44.0409  -31.4860 H   0  0  0  0  0  0  0  0  0  0  0  0
    0.0096  -45.6946  -32.0680 H   0  0  0  0  0  0  0  0  0  0  0  0
    2.8918  -45.4147  -34.2379 H   0  0  0  0  0  0  0  0  0  0  0  0
    3.9430  -45.7500  -32.2796 H   0  0  0  0  0  0  0  0  0  0  0  0
    3.3548  -47.3563  -32.7784 H   0  0  0  0  0  0  0  0  0  0  0  0
    0.8352  -45.2576  -35.7682 H   0  0  0  0  0  0  0  0  0  0  0  0
   -0.6477  -46.6816  -37.0443 H   0  0  0  0  0  0  0  0  0  0  0  0
   -1.1309  -48.9307  -36.2755 H   0  0  0  0  0  0  0  0  0  0  0  0
   -0.1107  -49.7559  -34.2362 H   0  0  0  0  0  0  0  0  0  0  0  0
    1.3968  -48.3471  -32.9712 H   0  0  0  0  0  0  0  0  0  0  0  0
    8.7234  -48.9544  -28.3964 H   0  0  0  0  0  0  0  0  0  0  0  0
    7.4414  -48.7760  -29.5701 H   0  0  0  0  0  0  0  0  0  0  0  0
    7.2777  -49.9269  -28.2657 H   0  0  0  0  0  0  0  0  0  0  0  0
    8.4363  -48.1998  -26.0810 H   0  0  0  0  0  0  0  0  0  0  0  0
    6.9570  -49.1113  -25.8975 H   0  0  0  0  0  0  0  0  0  0  0  0
    6.9730  -47.3959  -25.5659 H   0  0  0  0  0  0  0  0  0  0  0  0
    8.7032  -46.5789  -27.9198 H   0  0  0  0  0  0  0  0  0  0  0  0
    7.2523  -45.7619  -27.3900 H   0  0  0  0  0  0  0  0  0  0  0  0
    7.4037  -46.2850  -29.0503 H   0  0  0  0  0  0  0  0  0  0  0  0
    2.2036  -47.4936  -24.9580 H   0  0  0  0  0  0  0  0  0  0  0  0
    0.6865  -47.4484  -22.5725 H   0  0  0  0  0  0  0  0  0  0  0  0
    1.5086  -44.2564  -19.9648 H   0  0  0  0  0  0  0  0  0  0  0  0
    3.2063  -43.4317  -21.4941 H   0  0  0  0  0  0  0  0  0  0  0  0
  1 29  1  0
  1  2  1  0
  1 51  1  6
  2  3  2  0
  2  4  1  0
  4  5  1  0
  5  6  1  0
  5 52  1  0
  5 53  1  0
  6  7  1  0
  6  8  1  0
  6 54  1  6
  7 10  1  0
  8  9  1  0
  8 55  1  0
  8 56  1  0
  9 11  1  0
  9  4  1  0
  9 57  1  6
 11 12  2  0
 11 13  1  0
 13 14  1  0
 14 15  1  0
 14 58  1  0
 14 59  1  0
 15 16  1  0
 15 60  1  0
 15 61  1  0
 16 17  1  0
 17 19  1  0
 17 18  1  0
 17 62  1  6
 18 13  1  0
 18 63  1  0
 18 64  1  0
 19 20  2  0
 20 21  1  0
 20 65  1  0
 21 22  2  0
 21 66  1  0
 22 23  1  0
 22 67  1  0
 23 24  2  0
 23 68  1  0
 24 19  1  0
 24 69  1  0
 25 26  1  0
 25 70  1  0
 25 71  1  0
 25 72  1  0
 26 27  1  0
 26 28  1  0
 26  1  1  0
 27 73  1  0
 27 74  1  0
 27 75  1  0
 28 76  1  0
 28 77  1  0
 28 78  1  0
 29 30  1  0
 29 32  1  0
 30 31  2  0
 30 33  1  0
 33 34  2  0
 34 35  1  0
 34 79  1  0
 35 36  2  0
 36 37  1  0
 36 80  1  0
 37 42  1  0
 37 38  2  0
 38 39  1  0
 38 81  1  0
 39 40  2  0
 39 82  1  0
 40 41  1  0
 40 35  1  0
 41 33  1  0
 42 43  1  0
 42 44  1  0
 42 45  1  0
 45 46  2  0
 45 47  1  0
 45 48  1  0
 47 49  1  0
 48 50  1  0
M  END
>  <minimizedAffinity>  (9) 
-7.33751

>  <mol_id>  (9) 
125214

>  <source_index>  (9) 
8

>  <layer>  (9) 
L4

>  <uniprot>  (9) 
P42226

>  <paff>  (9) 
8

>  <smiles>  (9) 
CC(C)(C)[C@H](NC(=O)c1cc2cc(C(F)(F)P(=O)(O)O)ccc2s1)C(=O)N1C[C@@H](O)C[C@H]1C(=O)N1CCO[C@H](c2ccccc2)C1

$$$$
L4:P42226:143645
     RDKit          3D

 84 88  0  0  0  0  0  0  0  0999 V2000
   -8.7506  -47.5694  -30.1653 C   0  0  2  0  0  0  0  0  0  0  0  0
   -7.6905  -48.7116  -29.9986 C   0  0  0  0  0  0  0  0  0  0  0  0
   -6.5110  -48.4473  -29.7276 O   0  0  0  0  0  0  0  0  0  0  0  0
   -8.0845  -50.0346  -30.2692 N   0  0  0  0  0  0  0  0  0  0  0  0
   -8.7136  -50.3112  -31.5700 C   0  0  0  0  0  0  0  0  0  0  0  0
   -7.8328  -51.1812  -32.4768 C   0  0  0  0  0  0  0  0  0  0  0  0
   -6.3495  -50.8923  -32.2377 C   0  0  0  0  0  0  0  0  0  0  0  0
   -5.9624  -51.1865  -30.7740 C   0  0  0  0  0  0  0  0  0  0  0  0
   -7.1643  -51.1002  -29.8097 C   0  0  1  0  0  0  0  0  0  0  0  0
   -6.8605  -50.9444  -28.2795 C   0  0  0  0  0  0  0  0  0  0  0  0
   -5.7177  -50.6465  -27.8920 O   0  0  0  0  0  0  0  0  0  0  0  0
   -7.8832  -51.0643  -27.3531 N   0  0  0  0  0  0  0  0  0  0  0  0
   -9.3151  -50.9140  -27.6097 C   0  0  0  0  0  0  0  0  0  0  0  0
  -10.0510  -50.3735  -26.3745 C   0  0  0  0  0  0  0  0  0  0  0  0
   -9.9117  -51.2200  -25.2245 O   0  0  0  0  0  0  0  0  0  0  0  0
   -8.6268  -51.8661  -25.1211 C   0  0  1  0  0  0  0  0  0  0  0  0
   -7.5220  -51.1617  -25.9330 C   0  0  0  0  0  0  0  0  0  0  0  0
   -8.2320  -51.9894  -23.6629 C   0  0  0  0  0  0  0  0  0  0  0  0
   -6.8859  -52.0441  -23.2687 C   0  0  0  0  0  0  0  0  0  0  0  0
   -6.5481  -52.1866  -21.9245 C   0  0  0  0  0  0  0  0  0  0  0  0
   -7.5510  -52.2858  -20.9594 C   0  0  0  0  0  0  0  0  0  0  0  0
   -8.8949  -52.2416  -21.3349 C   0  0  0  0  0  0  0  0  0  0  0  0
   -9.2334  -52.0973  -22.6801 C   0  0  0  0  0  0  0  0  0  0  0  0
   -9.7627  -46.8071  -32.4566 C   0  0  0  0  0  0  0  0  0  0  0  0
   -8.5850  -46.6740  -31.4508 C   0  0  0  0  0  0  0  0  0  0  0  0
   -8.5360  -45.1808  -31.0366 C   0  0  0  0  0  0  0  0  0  0  0  0
   -7.2769  -47.0134  -32.1972 C   0  0  0  0  0  0  0  0  0  0  0  0
   -8.8299  -46.7195  -28.9733 N   0  0  0  0  0  0  0  0  0  0  0  0
   -9.8772  -46.7659  -28.0803 C   0  0  0  0  0  0  0  0  0  0  0  0
  -10.7982  -47.5690  -28.2108 O   0  0  0  0  0  0  0  0  0  0  0  0
   -8.0510  -46.0959  -28.7929 H   0  0  0  0  0  0  0  0  0  0  0  0
   -9.8182  -45.8324  -26.9671 C   0  0  0  0  0  0  0  0  0  0  0  0
   -8.9922  -44.7331  -26.8779 C   0  0  0  0  0  0  0  0  0  0  0  0
   -9.1655  -43.9752  -25.6790 C   0  0  0  0  0  0  0  0  0  0  0  0
   -8.5337  -42.7864  -25.2487 C   0  0  0  0  0  0  0  0  0  0  0  0
   -8.8733  -42.1956  -24.0182 C   0  0  0  0  0  0  0  0  0  0  0  0
   -9.8386  -42.8049  -23.2122 C   0  0  0  0  0  0  0  0  0  0  0  0
  -10.4657  -43.9884  -23.6111 C   0  0  0  0  0  0  0  0  0  0  0  0
  -10.1258  -44.5542  -24.8549 C   0  0  0  0  0  0  0  0  0  0  0  0
  -10.7790  -45.9810  -25.5666 S   0  0  0  0  0  0  0  0  0  0  0  0
   -8.2450  -40.8931  -23.6011 C   0  0  0  0  0  0  0  0  0  0  0  0
   -9.0482  -40.1566  -22.7766 F   0  0  0  0  0  0  0  0  0  0  0  0
   -7.9338  -40.0800  -24.6632 F   0  0  0  0  0  0  0  0  0  0  0  0
   -6.6637  -40.8900  -22.7221 P   0  0  0  0  0  0  0  0  0  0  0  0
   -6.2326  -39.6309  -22.0275 O   0  0  0  0  0  0  0  0  0  0  0  0
   -5.5172  -41.3915  -23.7423 O   0  0  0  0  0  0  0  0  0  0  0  0
   -6.6528  -42.1755  -21.7370 O   0  0  0  0  0  0  0  0  0  0  0  0
   -4.6313  -41.2722  -23.3501 H   0  0  0  0  0  0  0  0  0  0  0  0
   -7.0985  -42.9568  -22.1339 H   0  0  0  0  0  0  0  0  0  0  0  0
   -9.6707  -48.0997  -30.2961 H   0  0  0  0  0  0  0  0  0  0  0  0
   -8.9018  -49.3812  -32.0646 H   0  0  0  0  0  0  0  0  0  0  0  0
   -9.6197  -50.8492  -31.3846 H   0  0  0  0  0  0  0  0  0  0  0  0
   -8.0698  -50.9732  -33.4993 H   0  0  0  0  0  0  0  0  0  0  0  0
   -8.0213  -52.2100  -32.2511 H   0  0  0  0  0  0  0  0  0  0  0  0
   -6.1539  -49.8624  -32.4519 H   0  0  0  0  0  0  0  0  0  0  0  0
   -5.7699  -51.5231  -32.8788 H   0  0  0  0  0  0  0  0  0  0  0  0
   -5.2248  -50.4753  -30.4657 H   0  0  0  0  0  0  0  0  0  0  0  0
   -5.5883  -52.1882  -30.7344 H   0  0  0  0  0  0  0  0  0  0  0  0
   -7.6112  -52.0710  -29.8618 H   0  0  0  0  0  0  0  0  0  0  0  0
   -9.7245  -51.8679  -27.8693 H   0  0  0  0  0  0  0  0  0  0  0  0
   -9.4427  -50.2159  -28.4105 H   0  0  0  0  0  0  0  0  0  0  0  0
  -11.0913  -50.2850  -26.6089 H   0  0  0  0  0  0  0  0  0  0  0  0
   -9.6149  -49.4274  -26.1304 H   0  0  0  0  0  0  0  0  0  0  0  0
   -8.7287  -52.8405  -25.5512 H   0  0  0  0  0  0  0  0  0  0  0  0
   -6.6133  -51.7193  -25.8419 H   0  0  0  0  0  0  0  0  0  0  0  0
   -7.3988  -50.1713  -25.5472 H   0  0  0  0  0  0  0  0  0  0  0  0
   -6.1409  -51.9783  -23.9798 H   0  0  0  0  0  0  0  0  0  0  0  0
   -5.5559  -52.2188  -21.6426 H   0  0  0  0  0  0  0  0  0  0  0  0
   -7.2984  -52.3922  -19.9645 H   0  0  0  0  0  0  0  0  0  0  0  0
   -9.6352  -52.3154  -20.6196 H   0  0  0  0  0  0  0  0  0  0  0  0
  -10.2271  -52.0694  -22.9573 H   0  0  0  0  0  0  0  0  0  0  0  0
   -9.5840  -46.1744  -33.3008 H   0  0  0  0  0  0  0  0  0  0  0  0
  -10.6745  -46.5152  -31.9788 H   0  0  0  0  0  0  0  0  0  0  0  0
   -9.8403  -47.8233  -32.7825 H   0  0  0  0  0  0  0  0  0  0  0  0
   -8.4235  -44.5721  -31.9094 H   0  0  0  0  0  0  0  0  0  0  0  0
   -7.7065  -45.0198  -30.3801 H   0  0  0  0  0  0  0  0  0  0  0  0
   -9.4441  -44.9200  -30.5344 H   0  0  0  0  0  0  0  0  0  0  0  0
   -7.1895  -46.3923  -33.0641 H   0  0  0  0  0  0  0  0  0  0  0  0
   -7.2924  -48.0411  -32.4948 H   0  0  0  0  0  0  0  0  0  0  0  0
   -6.4422  -46.8420  -31.5500 H   0  0  0  0  0  0  0  0  0  0  0  0
   -8.3105  -44.4802  -27.6103 H   0  0  0  0  0  0  0  0  0  0  0  0
   -7.8148  -42.3467  -25.8443 H   0  0  0  0  0  0  0  0  0  0  0  0
  -10.0921  -42.3746  -22.3091 H   0  0  0  0  0  0  0  0  0  0  0  0
  -11.1668  -44.4405  -23.0037 H   0  0  0  0  0  0  0  0  0  0  0  0
  1 28  1  0
  1  2  1  0
  1 50  1  6
  2  3  2  0
  2  4  1  0
  4  5  1  0
  5  6  1  0
  5 51  1  0
  5 52  1  0
  6  7  1  0
  6 53  1  0
  6 54  1  0
  7  8  1  0
  7 55  1  0
  7 56  1  0
  8  9  1  0
  8 57  1  0
  8 58  1  0
  9 10  1  0
  9  4  1  0
  9 59  1  1
 10 11  2  0
 10 12  1  0
 12 13  1  0
 13 14  1  0
 13 60  1  0
 13 61  1  0
 14 15  1  0
 14 62  1  0
 14 63  1  0
 15 16  1  0
 16 18  1  0
 16 17  1  0
 16 64  1  6
 17 12  1  0
 17 65  1  0
 17 66  1  0
 18 19  2  0
 19 20  1  0
 19 67  1  0
 20 21  2  0
 20 68  1  0
 21 22  1  0
 21 69  1  0
 22 23  2  0
 22 70  1  0
 23 18  1  0
 23 71  1  0
 24 25  1  0
 24 72  1  0
 24 73  1  0
 24 74  1  0
 25 26  1  0
 25 27  1  0
 25  1  1  0
 26 75  1  0
 26 76  1  0
 26 77  1  0
 27 78  1  0
 27 79  1  0
 27 80  1  0
 28 29  1  0
 28 31  1  0
 29 30  2  0
 29 32  1  0
 32 33  2  0
 33 34  1  0
 33 81  1  0
 34 35  2  0
 35 36  1  0
 35 82  1  0
 36 41  1  0
 36 37  2  0
 37 38  1  0
 37 83  1  0
 38 39  2  0
 38 84  1  0
 39 40  1  0
 39 34  1  0
 40 32  1  0
 41 42  1  0
 41 43  1  0
 41 44  1  0
 44 45  2  0
 44 46  1  0
 44 47  1  0
 46 48  1  0
 47 49  1  0
M  END
>  <minimizedAffinity>  (10) 
-7.53874

>  <mol_id>  (10) 
143645

>  <source_index>  (10) 
9

>  <layer>  (10) 
L4

>  <uniprot>  (10) 
P42226

>  <paff>  (10) 
6.9585999999999997

>  <smiles>  (10) 
CC(C)(C)[C@H](NC(=O)c1cc2cc(C(F)(F)P(=O)(O)O)ccc2s1)C(=O)N1CCCC[C@H]1C(=O)N1CCO[C@H](c2ccccc2)C1

$$$$
