L4:P42226:11604
     RDKit          3D

 90 95  0  0  0  0  0  0  0  0999 V2000
    3.4114  -45.0819  -20.9788 C   0  0  1  0  0  0  0  0  0  0  0  0
    1.9059  -44.8569  -20.6732 C   0  0  0  0  0  0  0  0  0  0  0  0
    1.4940  -43.6861  -20.6529 O   0  0  0  0  0  0  0  0  0  0  0  0
    0.9977  -45.8904  -20.5893 N   0  0  0  0  0  0  0  0  0  0  0  0
   -0.4151  -45.5550  -20.4916 C   0  0  0  0  0  0  0  0  0  0  0  0
   -1.1463  -46.8792  -20.5757 C   0  0  0  0  0  0  0  0  0  0  0  0
   -0.1613  -47.8406  -19.9278 C   0  0  0  0  0  0  0  0  0  0  0  0
    1.2045  -47.3395  -20.4256 C   0  0  1  0  0  0  0  0  0  0  0  0
    1.5951  -48.0611  -21.7417 C   0  0  0  0  0  0  0  0  0  0  0  0
    1.2632  -47.6063  -22.8397 O   0  0  0  0  0  0  0  0  0  0  0  0
    2.3409  -49.2312  -21.6585 N   0  0  0  0  0  0  0  0  0  0  0  0
    2.9401  -49.7928  -20.4416 C   0  0  0  0  0  0  0  0  0  0  0  0
    4.1392  -50.6833  -20.7834 C   0  0  0  0  0  0  0  0  0  0  0  0
    3.8057  -51.7979  -21.6239 O   0  0  0  0  0  0  0  0  0  0  0  0
    2.7567  -51.5143  -22.5745 C   0  0  1  0  0  0  0  0  0  0  0  0
    2.5920  -50.0062  -22.8858 C   0  0  0  0  0  0  0  0  0  0  0  0
    3.0309  -52.3557  -23.8009 C   0  0  0  0  0  0  0  0  0  0  0  0
    3.1757  -51.7463  -25.0571 C   0  0  0  0  0  0  0  0  0  0  0  0
    3.4160  -52.5134  -26.1988 C   0  0  0  0  0  0  0  0  0  0  0  0
    3.5137  -53.8984  -26.1014 C   0  0  0  0  0  0  0  0  0  0  0  0
    3.3678  -54.5180  -24.8638 C   0  0  0  0  0  0  0  0  0  0  0  0
    3.1244  -53.7527  -23.7218 C   0  0  0  0  0  0  0  0  0  0  0  0
    3.7754  -45.8379  -22.1698 N   0  0  0  0  0  0  0  0  0  0  0  0
    4.8008  -46.7632  -22.1629 C   0  0  0  0  0  0  0  0  0  0  0  0
    5.3716  -47.0831  -21.1247 O   0  0  0  0  0  0  0  0  0  0  0  0
    3.2589  -45.6481  -23.0168 H   0  0  0  0  0  0  0  0  0  0  0  0
    5.0760  -47.3477  -23.4652 C   0  0  0  0  0  0  0  0  0  0  0  0
    4.5754  -47.0055  -24.7053 C   0  0  0  0  0  0  0  0  0  0  0  0
    4.9606  -47.9217  -25.7385 C   0  0  0  0  0  0  0  0  0  0  0  0
    4.5606  -47.9861  -27.0932 C   0  0  0  0  0  0  0  0  0  0  0  0
    4.9328  -49.0758  -27.9007 C   0  0  0  0  0  0  0  0  0  0  0  0
    5.8130  -50.0309  -27.3918 C   0  0  0  0  0  0  0  0  0  0  0  0
    6.2805  -49.9504  -26.0759 C   0  0  0  0  0  0  0  0  0  0  0  0
    5.8125  -48.9115  -25.2503 C   0  0  0  0  0  0  0  0  0  0  0  0
    6.1536  -48.6692  -23.5818 S   0  0  0  0  0  0  0  0  0  0  0  0
    4.2941  -49.2468  -29.2582 C   0  0  0  0  0  0  0  0  0  0  0  0
    4.5036  -50.4630  -29.8338 F   0  0  0  0  0  0  0  0  0  0  0  0
    4.6706  -48.3077  -30.1678 F   0  0  0  0  0  0  0  0  0  0  0  0
    2.4811  -49.1035  -29.2867 P   0  0  0  0  0  0  0  0  0  0  0  0
    1.8943  -47.7239  -29.2090 O   0  0  0  0  0  0  0  0  0  0  0  0
    1.9244  -50.0054  -28.0718 O   0  0  0  0  0  0  0  0  0  0  0  0
    1.8720  -49.9111  -30.5387 O   0  0  0  0  0  0  0  0  0  0  0  0
    1.0161  -49.7767  -27.7730 H   0  0  0  0  0  0  0  0  0  0  0  0
    0.9272  -49.7184  -30.6826 H   0  0  0  0  0  0  0  0  0  0  0  0
    4.1265  -43.7107  -20.9815 C   0  0  0  0  0  0  0  0  0  0  0  0
    7.0013  -42.5250  -16.1357 C   0  0  0  0  0  0  0  0  0  0  0  0
    6.4411  -42.8020  -17.4546 N   0  0  0  0  0  0  0  0  0  0  0  0
    6.0160  -44.2037  -17.5645 C   0  0  0  0  0  0  0  0  0  0  0  0
    4.9436  -44.4446  -18.6401 C   0  0  0  0  0  0  0  0  0  0  0  0
    5.0836  -43.4539  -19.7980 C   0  0  0  0  0  0  0  0  0  0  0  0
    4.9901  -42.0064  -19.2746 C   0  0  0  0  0  0  0  0  0  0  0  0
    5.3624  -41.8744  -17.7916 C   0  0  0  0  0  0  0  0  0  0  0  0
    3.7368  -45.7300  -20.1920 H   0  0  0  0  0  0  0  0  0  0  0  0
   -0.7051  -44.9147  -21.2983 H   0  0  0  0  0  0  0  0  0  0  0  0
   -0.6395  -45.0319  -19.5856 H   0  0  0  0  0  0  0  0  0  0  0  0
   -1.3394  -47.1504  -21.5926 H   0  0  0  0  0  0  0  0  0  0  0  0
   -2.1056  -46.8677  -20.1020 H   0  0  0  0  0  0  0  0  0  0  0  0
   -0.3403  -48.8458  -20.2479 H   0  0  0  0  0  0  0  0  0  0  0  0
   -0.2360  -47.8594  -18.8606 H   0  0  0  0  0  0  0  0  0  0  0  0
    2.0176  -47.5412  -19.7599 H   0  0  0  0  0  0  0  0  0  0  0  0
    2.2058  -50.3764  -19.9267 H   0  0  0  0  0  0  0  0  0  0  0  0
    3.2777  -48.9872  -19.8236 H   0  0  0  0  0  0  0  0  0  0  0  0
    4.5523  -51.0594  -19.8708 H   0  0  0  0  0  0  0  0  0  0  0  0
    4.8351  -50.0781  -21.3260 H   0  0  0  0  0  0  0  0  0  0  0  0
    1.8074  -51.7761  -22.1558 H   0  0  0  0  0  0  0  0  0  0  0  0
    1.7672  -49.8764  -23.5550 H   0  0  0  0  0  0  0  0  0  0  0  0
    3.4988  -49.6518  -23.3297 H   0  0  0  0  0  0  0  0  0  0  0  0
    3.1038  -50.7200  -25.1377 H   0  0  0  0  0  0  0  0  0  0  0  0
    3.5213  -52.0527  -27.1163 H   0  0  0  0  0  0  0  0  0  0  0  0
    3.6940  -54.4647  -26.9451 H   0  0  0  0  0  0  0  0  0  0  0  0
    3.4396  -55.5449  -24.7901 H   0  0  0  0  0  0  0  0  0  0  0  0
    3.0120  -54.2205  -22.8088 H   0  0  0  0  0  0  0  0  0  0  0  0
    3.9848  -46.1757  -24.8715 H   0  0  0  0  0  0  0  0  0  0  0  0
    3.9895  -47.2255  -27.4936 H   0  0  0  0  0  0  0  0  0  0  0  0
    6.1239  -50.8084  -27.9951 H   0  0  0  0  0  0  0  0  0  0  0  0
    6.9574  -50.6415  -25.7165 H   0  0  0  0  0  0  0  0  0  0  0  0
    4.6942  -43.6375  -21.8855 H   0  0  0  0  0  0  0  0  0  0  0  0
    3.3522  -42.9772  -20.8955 H   0  0  0  0  0  0  0  0  0  0  0  0
    7.7850  -43.2231  -15.9273 H   0  0  0  0  0  0  0  0  0  0  0  0
    6.2342  -42.6185  -15.3956 H   0  0  0  0  0  0  0  0  0  0  0  0
    7.3954  -41.5304  -16.1173 H   0  0  0  0  0  0  0  0  0  0  0  0
    5.6206  -44.5114  -16.6191 H   0  0  0  0  0  0  0  0  0  0  0  0
    6.8778  -44.7691  -17.8516 H   0  0  0  0  0  0  0  0  0  0  0  0
    3.9756  -44.3301  -18.1987 H   0  0  0  0  0  0  0  0  0  0  0  0
    5.0695  -45.4346  -19.0261 H   0  0  0  0  0  0  0  0  0  0  0  0
    6.0571  -43.6114  -20.2132 H   0  0  0  0  0  0  0  0  0  0  0  0
    3.9855  -41.6619  -19.4050 H   0  0  0  0  0  0  0  0  0  0  0  0
    5.6913  -41.4210  -19.8318 H   0  0  0  0  0  0  0  0  0  0  0  0
    4.5051  -42.0970  -17.1913 H   0  0  0  0  0  0  0  0  0  0  0  0
    5.6921  -40.8740  -17.6033 H   0  0  0  0  0  0  0  0  0  0  0  0
  1 23  1  0
  1  2  1  0
  1 53  1  1
  2  3  2  0
  2  4  1  0
  4  5  1  0
  5  6  1  0
  5 54  1  0
  5 55  1  0
  6  7  1  0
  6 56  1  0
  6 57  1  0
  7  8  1  0
  7 58  1  0
  7 59  1  0
  8  9  1  0
  8  4  1  0
  8 60  1  1
  9 10  2  0
  9 11  1  0
 11 12  1  0
 12 13  1  0
 12 61  1  0
 12 62  1  0
 13 14  1  0
 13 63  1  0
 13 64  1  0
 14 15  1  0
 15 17  1  0
 15 16  1  0
 15 65  1  1
 16 11  1  0
 16 66  1  0
 16 67  1  0
 17 18  2  0
 18 19  1  0
 18 68  1  0
 19 20  2  0
 19 69  1  0
 20 21  1  0
 20 70  1  0
 21 22  2  0
 21 71  1  0
 22 17  1  0
 22 72  1  0
 23 24  1  0
 23 26  1  0
 24 25  2  0
 24 27  1  0
 27 28  2  0
 28 29  1  0
 28 73  1  0
 29 30  2  0
 30 31  1  0
 30 74  1  0
 31 36  1  0
 31 32  2  0
 32 33  1  0
 32 75  1  0
 33 34  2  0
 33 76  1  0
 34 35  1  0
 34 29  1  0
 35 27  1  0
 36 37  1  0
 36 38  1  0
 36 39  1  0
 39 40  2  0
 39 41  1  0
 39 42  1  0
 41 43  1  0
 42 44  1  0
 45  1  1  0
 45 77  1  0
 45 78  1  0
 46 47  1  0
 46 79  1  0
 46 80  1  0
 46 81  1  0
 47 48  1  0
 48 49  1  0
 48 82  1  0
 48 83  1  0
 49 50  1  0
 49 84  1  0
 49 85  1  0
 50 45  1  0
 50 51  1  0
 50 86  1  0
 51 52  1  0
 51 87  1  0
 51 88  1  0
 52 47  1  0
 52 89  1  0
 52 90  1  0
M  END
>  <minimizedAffinity>  (1) 
-6.51133

>  <mol_id>  (1) 
11604

>  <source_index>  (1) 
0

>  <layer>  (1) 
L4

>  <uniprot>  (1) 
P42226

>  <paff>  (1) 
6.6021000000000001

>  <smiles>  (1) 
CN1CCC(C[C@H](NC(=O)c2cc3cc(C(F)(F)P(=O)(O)O)ccc3s2)C(=O)N2CCC[C@H]2C(=O)N2CCO[C@H](c3ccccc3)C2)CC1

$$$$
L4:P42226:24276
     RDKit          3D

 94 99  0  0  0  0  0  0  0  0999 V2000
    3.2827  -48.2508  -28.4809 C   0  0  1  0  0  0  0  0  0  0  0  0
    2.7959  -47.1062  -29.4179 C   0  0  0  0  0  0  0  0  0  0  0  0
    1.5967  -46.9730  -29.6816 O   0  0  0  0  0  0  0  0  0  0  0  0
    3.7359  -46.3696  -30.1195 N   0  0  0  0  0  0  0  0  0  0  0  0
    5.1852  -46.3871  -29.9721 C   0  0  0  0  0  0  0  0  0  0  0  0
    5.6440  -45.0255  -30.4703 C   0  0  0  0  0  0  0  0  0  0  0  0
    4.5999  -44.6635  -31.5127 C   0  0  0  0  0  0  0  0  0  0  0  0
    3.2995  -45.2168  -30.9182 C   0  0  1  0  0  0  0  0  0  0  0  0
    2.2494  -45.3702  -32.0470 C   0  0  0  0  0  0  0  0  0  0  0  0
    2.4771  -46.2044  -32.9349 O   0  0  0  0  0  0  0  0  0  0  0  0
    1.0249  -44.7301  -32.0012 N   0  0  0  0  0  0  0  0  0  0  0  0
    0.4747  -43.9060  -30.9297 C   0  0  0  0  0  0  0  0  0  0  0  0
    0.1238  -42.5133  -31.4621 C   0  0  0  0  0  0  0  0  0  0  0  0
   -0.7925  -42.6027  -32.5634 O   0  0  0  0  0  0  0  0  0  0  0  0
   -0.2190  -43.3678  -33.6509 C   0  0  1  0  0  0  0  0  0  0  0  0
    0.1426  -44.7947  -33.1751 C   0  0  0  0  0  0  0  0  0  0  0  0
   -1.1930  -43.4135  -34.8115 C   0  0  0  0  0  0  0  0  0  0  0  0
   -0.7581  -43.6048  -36.1317 C   0  0  0  0  0  0  0  0  0  0  0  0
   -1.6709  -43.6141  -37.1881 C   0  0  0  0  0  0  0  0  0  0  0  0
   -3.0288  -43.4266  -36.9391 C   0  0  0  0  0  0  0  0  0  0  0  0
   -3.4754  -43.2292  -35.6344 C   0  0  0  0  0  0  0  0  0  0  0  0
   -2.5639  -43.2205  -34.5769 C   0  0  0  0  0  0  0  0  0  0  0  0
    3.1010  -48.0805  -27.0390 N   0  0  0  0  0  0  0  0  0  0  0  0
    3.8227  -47.1412  -26.3227 C   0  0  0  0  0  0  0  0  0  0  0  0
    4.9067  -46.7246  -26.7208 O   0  0  0  0  0  0  0  0  0  0  0  0
    2.2270  -48.3858  -26.6328 H   0  0  0  0  0  0  0  0  0  0  0  0
    3.2247  -46.6934  -25.0734 C   0  0  0  0  0  0  0  0  0  0  0  0
    2.2194  -47.3335  -24.3769 C   0  0  0  0  0  0  0  0  0  0  0  0
    1.8695  -46.6818  -23.1505 C   0  0  0  0  0  0  0  0  0  0  0  0
    0.9196  -47.0323  -22.1606 C   0  0  0  0  0  0  0  0  0  0  0  0
    0.7433  -46.2361  -21.0151 C   0  0  0  0  0  0  0  0  0  0  0  0
    1.5206  -45.0873  -20.8597 C   0  0  0  0  0  0  0  0  0  0  0  0
    2.4662  -44.7193  -21.8211 C   0  0  0  0  0  0  0  0  0  0  0  0
    2.6303  -45.5281  -22.9605 C   0  0  0  0  0  0  0  0  0  0  0  0
    3.7312  -45.2812  -24.2602 S   0  0  0  0  0  0  0  0  0  0  0  0
   -0.2905  -46.6035  -19.9802 C   0  0  0  0  0  0  0  0  0  0  0  0
   -1.5686  -46.3502  -20.3768 F   0  0  0  0  0  0  0  0  0  0  0  0
   -0.2480  -47.9110  -19.6053 F   0  0  0  0  0  0  0  0  0  0  0  0
   -0.2312  -45.7441  -18.3850 P   0  0  0  0  0  0  0  0  0  0  0  0
   -0.5435  -44.2798  -18.3318 O   0  0  0  0  0  0  0  0  0  0  0  0
   -1.1830  -46.5473  -17.3555 O   0  0  0  0  0  0  0  0  0  0  0  0
    1.1869  -46.0832  -17.6866 O   0  0  0  0  0  0  0  0  0  0  0  0
   -1.3022  -46.0167  -16.5423 H   0  0  0  0  0  0  0  0  0  0  0  0
    1.5546  -46.9663  -17.8796 H   0  0  0  0  0  0  0  0  0  0  0  0
    2.8584  -49.6611  -28.9718 C   0  0  0  0  0  0  0  0  0  0  0  0
    4.5285  -53.1265  -26.9282 C   0  0  0  0  0  0  0  0  0  0  0  0
    4.9450  -52.7696  -28.2204 C   0  0  0  0  0  0  0  0  0  0  0  0
    4.4323  -51.6387  -28.8679 C   0  0  0  0  0  0  0  0  0  0  0  0
    3.4798  -50.8308  -28.2451 C   0  0  0  0  0  0  0  0  0  0  0  0
    3.0740  -51.1575  -26.9471 C   0  0  0  0  0  0  0  0  0  0  0  0
    3.5872  -52.2877  -26.3038 C   0  0  0  0  0  0  0  0  0  0  0  0
    3.8848  -55.0755  -25.4621 C   0  0  0  0  0  0  0  0  0  0  0  0
    5.0469  -54.3801  -26.2036 C   0  0  0  0  0  0  0  0  0  0  0  0
    6.1452  -54.0873  -25.1567 C   0  0  0  0  0  0  0  0  0  0  0  0
    5.6488  -55.3576  -27.2370 C   0  0  0  0  0  0  0  0  0  0  0  0
    4.3445  -48.1655  -28.5818 H   0  0  0  0  0  0  0  0  0  0  0  0
    5.6146  -47.1688  -30.5632 H   0  0  0  0  0  0  0  0  0  0  0  0
    5.4858  -46.5692  -28.9615 H   0  0  0  0  0  0  0  0  0  0  0  0
    6.6181  -45.0863  -30.9088 H   0  0  0  0  0  0  0  0  0  0  0  0
    5.7240  -44.2992  -29.6886 H   0  0  0  0  0  0  0  0  0  0  0  0
    4.8194  -45.1269  -32.4518 H   0  0  0  0  0  0  0  0  0  0  0  0
    4.5549  -43.6133  -31.7124 H   0  0  0  0  0  0  0  0  0  0  0  0
    2.7470  -44.5988  -30.2416 H   0  0  0  0  0  0  0  0  0  0  0  0
    1.1988  -43.8134  -30.1474 H   0  0  0  0  0  0  0  0  0  0  0  0
   -0.4126  -44.3699  -30.5524 H   0  0  0  0  0  0  0  0  0  0  0  0
    1.0191  -42.0275  -31.7896 H   0  0  0  0  0  0  0  0  0  0  0  0
   -0.3389  -41.9532  -30.6765 H   0  0  0  0  0  0  0  0  0  0  0  0
    0.6820  -42.8929  -33.9788 H   0  0  0  0  0  0  0  0  0  0  0  0
    0.6431  -45.3145  -33.9652 H   0  0  0  0  0  0  0  0  0  0  0  0
   -0.7554  -45.3120  -32.9088 H   0  0  0  0  0  0  0  0  0  0  0  0
    0.2468  -43.7400  -36.3238 H   0  0  0  0  0  0  0  0  0  0  0  0
   -1.3394  -43.7600  -38.1545 H   0  0  0  0  0  0  0  0  0  0  0  0
   -3.7031  -43.4339  -37.7203 H   0  0  0  0  0  0  0  0  0  0  0  0
   -4.4810  -43.0893  -35.4494 H   0  0  0  0  0  0  0  0  0  0  0  0
   -2.9011  -43.0707  -33.6131 H   0  0  0  0  0  0  0  0  0  0  0  0
    1.7639  -48.1983  -24.7080 H   0  0  0  0  0  0  0  0  0  0  0  0
    0.3490  -47.8836  -22.2815 H   0  0  0  0  0  0  0  0  0  0  0  0
    1.3951  -44.4996  -20.0207 H   0  0  0  0  0  0  0  0  0  0  0  0
    3.0353  -43.8674  -21.6970 H   0  0  0  0  0  0  0  0  0  0  0  0
    1.7963  -49.7380  -28.8676 H   0  0  0  0  0  0  0  0  0  0  0  0
    3.2060  -49.7315  -29.9813 H   0  0  0  0  0  0  0  0  0  0  0  0
    5.6448  -53.3538  -28.7041 H   0  0  0  0  0  0  0  0  0  0  0  0
    4.7624  -51.4000  -29.8161 H   0  0  0  0  0  0  0  0  0  0  0  0
    2.3893  -50.5587  -26.4596 H   0  0  0  0  0  0  0  0  0  0  0  0
    3.2680  -52.5120  -25.3484 H   0  0  0  0  0  0  0  0  0  0  0  0
    4.2521  -55.9463  -24.9604 H   0  0  0  0  0  0  0  0  0  0  0  0
    3.1320  -55.3608  -26.1669 H   0  0  0  0  0  0  0  0  0  0  0  0
    3.4650  -54.4013  -24.7451 H   0  0  0  0  0  0  0  0  0  0  0  0
    6.4535  -55.0033  -24.6975 H   0  0  0  0  0  0  0  0  0  0  0  0
    5.7585  -53.4262  -24.4095 H   0  0  0  0  0  0  0  0  0  0  0  0
    6.9840  -53.6297  -25.6382 H   0  0  0  0  0  0  0  0  0  0  0  0
    6.0099  -56.2304  -26.7342 H   0  0  0  0  0  0  0  0  0  0  0  0
    6.4580  -54.8809  -27.7497 H   0  0  0  0  0  0  0  0  0  0  0  0
    4.8955  -55.6387  -27.9430 H   0  0  0  0  0  0  0  0  0  0  0  0
  1 23  1  0
  1  2  1  0
  1 56  1  1
  2  3  2  0
  2  4  1  0
  4  5  1  0
  5  6  1  0
  5 57  1  0
  5 58  1  0
  6  7  1  0
  6 59  1  0
  6 60  1  0
  7  8  1  0
  7 61  1  0
  7 62  1  0
  8  9  1  0
  8  4  1  0
  8 63  1  1
  9 10  2  0
  9 11  1  0
 11 12  1  0
 12 13  1  0
 12 64  1  0
 12 65  1  0
 13 14  1  0
 13 66  1  0
 13 67  1  0
 14 15  1  0
 15 17  1  0
 15 16  1  0
 15 68  1  6
 16 11  1  0
 16 69  1  0
 16 70  1  0
 17 18  2  0
 18 19  1  0
 18 71  1  0
 19 20  2  0
 19 72  1  0
 20 21  1  0
 20 73  1  0
 21 22  2  0
 21 74  1  0
 22 17  1  0
 22 75  1  0
 23 24  1  0
 23 26  1  0
 24 25  2  0
 24 27  1  0
 27 28  2  0
 28 29  1  0
 28 76  1  0
 29 30  2  0
 30 31  1  0
 30 77  1  0
 31 36  1  0
 31 32  2  0
 32 33  1  0
 32 78  1  0
 33 34  2  0
 33 79  1  0
 34 35  1  0
 34 29  1  0
 35 27  1  0
 36 37  1  0
 36 38  1  0
 36 39  1  0
 39 40  2  0
 39 41  1  0
 39 42  1  0
 41 43  1  0
 42 44  1  0
 45  1  1  0
 45 80  1  0
 45 81  1  0
 46 47  2  0
 47 48  1  0
 47 82  1  0
 48 49  2  0
 48 83  1  0
 49 45  1  0
 49 50  1  0
 50 51  2  0
 50 84  1  0
 51 46  1  0
 51 85  1  0
 52 53  1  0
 52 86  1  0
 52 87  1  0
 52 88  1  0
 53 54  1  0
 53 55  1  0
 53 46  1  0
 54 89  1  0
 54 90  1  0
 54 91  1  0
 55 92  1  0
 55 93  1  0
 55 94  1  0
M  END
>  <minimizedAffinity>  (2) 
-8.57822

>  <mol_id>  (2) 
24276

>  <source_index>  (2) 
1

>  <layer>  (2) 
L4

>  <uniprot>  (2) 
P42226

>  <paff>  (2) 
6.7958999999999996

>  <smiles>  (2) 
CC(C)(C)c1ccc(C[C@H](NC(=O)c2cc3cc(C(F)(F)P(=O)(O)O)ccc3s2)C(=O)N2CCC[C@H]2C(=O)N2CCO[C@H](c3ccccc3)C2)cc1

$$$$
L4:P42226:26786
     RDKit          3D

 87 92  0  0  0  0  0  0  0  0999 V2000
    5.3284  -47.8068  -28.1011 C   0  0  2  0  0  0  0  0  0  0  0  0
    4.6136  -49.1243  -28.4995 C   0  0  0  0  0  0  0  0  0  0  0  0
    4.5369  -50.0730  -27.7139 O   0  0  0  0  0  0  0  0  0  0  0  0
    3.9624  -49.1766  -29.7154 N   0  0  0  0  0  0  0  0  0  0  0  0
    3.2997  -50.4018  -30.1322 C   0  0  0  0  0  0  0  0  0  0  0  0
    2.6045  -50.0595  -31.4397 C   0  0  0  0  0  0  0  0  0  0  0  0
    3.4371  -48.9049  -31.9858 C   0  0  0  0  0  0  0  0  0  0  0  0
    3.8138  -48.1195  -30.7271 C   0  0  1  0  0  0  0  0  0  0  0  0
    2.6870  -47.1129  -30.3558 C   0  0  0  0  0  0  0  0  0  0  0  0
    2.1971  -47.1055  -29.2214 O   0  0  0  0  0  0  0  0  0  0  0  0
    2.2274  -46.2447  -31.3425 N   0  0  0  0  0  0  0  0  0  0  0  0
    1.3176  -45.1648  -30.9490 C   0  0  0  0  0  0  0  0  0  0  0  0
    0.3788  -44.7454  -32.0776 C   0  0  0  0  0  0  0  0  0  0  0  0
    1.1014  -44.4100  -33.2670 O   0  0  0  0  0  0  0  0  0  0  0  0
    1.9115  -45.4943  -33.7480 C   0  0  1  0  0  0  0  0  0  0  0  0
    2.8571  -46.0602  -32.6563 C   0  0  0  0  0  0  0  0  0  0  0  0
    1.0606  -46.5012  -34.5087 C   0  0  0  0  0  0  0  0  0  0  0  0
    0.6422  -46.3050  -35.8294 C   0  0  0  0  0  0  0  0  0  0  0  0
   -0.1385  -47.2620  -36.4851 C   0  0  0  0  0  0  0  0  0  0  0  0
   -0.5127  -48.4494  -35.8410 C   0  0  0  0  0  0  0  0  0  0  0  0
   -1.2973  -49.4192  -36.4865 C   0  0  0  0  0  0  0  0  0  0  0  0
   -1.6525  -50.5997  -35.8321 C   0  0  0  0  0  0  0  0  0  0  0  0
   -1.2265  -50.8258  -34.5268 C   0  0  0  0  0  0  0  0  0  0  0  0
   -0.4456  -49.8713  -33.8728 C   0  0  0  0  0  0  0  0  0  0  0  0
   -0.0822  -48.6770  -34.5165 C   0  0  0  0  0  0  0  0  0  0  0  0
    0.7027  -47.7043  -33.8726 C   0  0  0  0  0  0  0  0  0  0  0  0
    7.2858  -48.3443  -26.5648 C   0  0  0  0  0  0  0  0  0  0  0  0
    6.8878  -47.9135  -27.9919 C   0  0  0  0  0  0  0  0  0  0  0  0
    7.6217  -46.6048  -28.3450 C   0  0  0  0  0  0  0  0  0  0  0  0
    7.3981  -49.0063  -28.9601 C   0  0  0  0  0  0  0  0  0  0  0  0
    4.7079  -47.3952  -26.8450 N   0  0  0  0  0  0  0  0  0  0  0  0
    4.3931  -46.0852  -26.5583 C   0  0  0  0  0  0  0  0  0  0  0  0
    4.6731  -45.1806  -27.3432 O   0  0  0  0  0  0  0  0  0  0  0  0
    4.4655  -48.1274  -26.1900 H   0  0  0  0  0  0  0  0  0  0  0  0
    3.7139  -45.8850  -25.2883 C   0  0  0  0  0  0  0  0  0  0  0  0
    2.6892  -46.6093  -24.7114 C   0  0  0  0  0  0  0  0  0  0  0  0
    2.2676  -46.0866  -23.4431 C   0  0  0  0  0  0  0  0  0  0  0  0
    1.2601  -46.5335  -22.5530 C   0  0  0  0  0  0  0  0  0  0  0  0
    1.0105  -45.8605  -21.3434 C   0  0  0  0  0  0  0  0  0  0  0  0
    1.7626  -44.7261  -21.0326 C   0  0  0  0  0  0  0  0  0  0  0  0
    2.7606  -44.2617  -21.8946 C   0  0  0  0  0  0  0  0  0  0  0  0
    3.0004  -44.9521  -23.0964 C   0  0  0  0  0  0  0  0  0  0  0  0
    4.1575  -44.5589  -24.3061 S   0  0  0  0  0  0  0  0  0  0  0  0
   -0.0629  -46.3436  -20.4052 C   0  0  0  0  0  0  0  0  0  0  0  0
   -1.3232  -46.0283  -20.8086 F   0  0  0  0  0  0  0  0  0  0  0  0
   -0.0437  -47.6969  -20.2044 F   0  0  0  0  0  0  0  0  0  0  0  0
   -0.0490  -45.7759  -18.6858 P   0  0  0  0  0  0  0  0  0  0  0  0
   -0.5277  -44.3877  -18.3863 O   0  0  0  0  0  0  0  0  0  0  0  0
   -0.8314  -46.8527  -17.7745 O   0  0  0  0  0  0  0  0  0  0  0  0
    1.4411  -46.0477  -18.1197 O   0  0  0  0  0  0  0  0  0  0  0  0
   -0.9549  -46.5061  -16.8696 H   0  0  0  0  0  0  0  0  0  0  0  0
    1.8413  -46.8648  -18.4802 H   0  0  0  0  0  0  0  0  0  0  0  0
    5.2028  -47.0772  -28.8736 H   0  0  0  0  0  0  0  0  0  0  0  0
    2.5852  -50.7095  -29.3976 H   0  0  0  0  0  0  0  0  0  0  0  0
    3.9922  -51.2090  -30.2490 H   0  0  0  0  0  0  0  0  0  0  0  0
    1.5930  -49.7555  -31.2682 H   0  0  0  0  0  0  0  0  0  0  0  0
    2.5454  -50.8891  -32.1129 H   0  0  0  0  0  0  0  0  0  0  0  0
    2.8626  -48.3014  -32.6571 H   0  0  0  0  0  0  0  0  0  0  0  0
    4.2876  -49.2299  -32.5479 H   0  0  0  0  0  0  0  0  0  0  0  0
    4.6972  -47.5251  -30.8330 H   0  0  0  0  0  0  0  0  0  0  0  0
    1.8999  -44.3166  -30.6549 H   0  0  0  0  0  0  0  0  0  0  0  0
    0.7135  -45.5281  -30.1440 H   0  0  0  0  0  0  0  0  0  0  0  0
   -0.1848  -43.8925  -31.7616 H   0  0  0  0  0  0  0  0  0  0  0  0
   -0.2668  -45.5693  -32.2994 H   0  0  0  0  0  0  0  0  0  0  0  0
    2.6049  -45.1276  -34.4757 H   0  0  0  0  0  0  0  0  0  0  0  0
    3.6781  -45.3836  -32.5416 H   0  0  0  0  0  0  0  0  0  0  0  0
    3.1593  -47.0314  -32.9885 H   0  0  0  0  0  0  0  0  0  0  0  0
    0.9135  -45.4422  -36.3264 H   0  0  0  0  0  0  0  0  0  0  0  0
   -0.4433  -47.0918  -37.4563 H   0  0  0  0  0  0  0  0  0  0  0  0
   -1.6146  -49.2571  -37.4551 H   0  0  0  0  0  0  0  0  0  0  0  0
   -2.2307  -51.3044  -36.3159 H   0  0  0  0  0  0  0  0  0  0  0  0
   -1.4878  -51.6988  -34.0424 H   0  0  0  0  0  0  0  0  0  0  0  0
   -0.1317  -50.0452  -32.9052 H   0  0  0  0  0  0  0  0  0  0  0  0
    1.0250  -47.8773  -32.9076 H   0  0  0  0  0  0  0  0  0  0  0  0
    8.3513  -48.4150  -26.4977 H   0  0  0  0  0  0  0  0  0  0  0  0
    6.8506  -49.2968  -26.3454 H   0  0  0  0  0  0  0  0  0  0  0  0
    6.9315  -47.6198  -25.8617 H   0  0  0  0  0  0  0  0  0  0  0  0
    8.6773  -46.7508  -28.2491 H   0  0  0  0  0  0  0  0  0  0  0  0
    7.3071  -45.8286  -27.6791 H   0  0  0  0  0  0  0  0  0  0  0  0
    7.3901  -46.3265  -29.3519 H   0  0  0  0  0  0  0  0  0  0  0  0
    8.4630  -49.0795  -28.8859 H   0  0  0  0  0  0  0  0  0  0  0  0
    7.1273  -48.7492  -29.9628 H   0  0  0  0  0  0  0  0  0  0  0  0
    6.9570  -49.9462  -28.7014 H   0  0  0  0  0  0  0  0  0  0  0  0
    2.2683  -47.4438  -25.1490 H   0  0  0  0  0  0  0  0  0  0  0  0
    0.7005  -47.3659  -22.7959 H   0  0  0  0  0  0  0  0  0  0  0  0
    1.5787  -44.2216  -20.1513 H   0  0  0  0  0  0  0  0  0  0  0  0
    3.3133  -43.4245  -21.6526 H   0  0  0  0  0  0  0  0  0  0  0  0
  1 31  1  0
  1  2  1  0
  1 53  1  6
  2  3  2  0
  2  4  1  0
  4  5  1  0
  5  6  1  0
  5 54  1  0
  5 55  1  0
  6  7  1  0
  6 56  1  0
  6 57  1  0
  7  8  1  0
  7 58  1  0
  7 59  1  0
  8  9  1  0
  8  4  1  0
  8 60  1  6
  9 10  2  0
  9 11  1  0
 11 12  1  0
 12 13  1  0
 12 61  1  0
 12 62  1  0
 13 14  1  0
 13 63  1  0
 13 64  1  0
 14 15  1  0
 15 17  1  0
 15 16  1  0
 15 65  1  6
 16 11  1  0
 16 66  1  0
 16 67  1  0
 17 18  2  0
 18 19  1  0
 18 68  1  0
 19 20  2  0
 19 69  1  0
 20 21  1  0
 21 22  2  0
 21 70  1  0
 22 23  1  0
 22 71  1  0
 23 24  2  0
 23 72  1  0
 24 25  1  0
 24 73  1  0
 25 26  2  0
 25 20  1  0
 26 17  1  0
 26 74  1  0
 27 28  1  0
 27 75  1  0
 27 76  1  0
 27 77  1  0
 28 29  1  0
 28 30  1  0
 28  1  1  0
 29 78  1  0
 29 79  1  0
 29 80  1  0
 30 81  1  0
 30 82  1  0
 30 83  1  0
 31 32  1  0
 31 34  1  0
 32 33  2  0
 32 35  1  0
 35 36  2  0
 36 37  1  0
 36 84  1  0
 37 38  2  0
 38 39  1  0
 38 85  1  0
 39 44  1  0
 39 40  2  0
 40 41  1  0
 40 86  1  0
 41 42  2  0
 41 87  1  0
 42 43  1  0
 42 37  1  0
 43 35  1  0
 44 45  1  0
 44 46  1  0
 44 47  1  0
 47 48  2  0
 47 49  1  0
 47 50  1  0
 49 51  1  0
 50 52  1  0
M  END
>  <minimizedAffinity>  (3) 
-8.29678

>  <mol_id>  (3) 
26786

>  <source_index>  (3) 
2

>  <layer>  (3) 
L4

>  <uniprot>  (3) 
P42226

>  <paff>  (3) 
7.0808999999999997

>  <smiles>  (3) 
CC(C)(C)[C@H](NC(=O)c1cc2cc(C(F)(F)P(=O)(O)O)ccc2s1)C(=O)N1CCC[C@H]1C(=O)N1CCOC(c2ccc3ccccc3c2)C1

$$$$
L4:P42226:41686
     RDKit          3D

115122  0  0  0  0  0  0  0  0999 V2000
    3.0307  -48.6286  -32.7261 C   0  0  0  0  0  0  0  0  0  0  0  0
    3.9280  -48.1937  -31.7351 C   0  0  0  0  0  0  0  0  0  0  0  0
    3.4986  -47.5909  -30.5384 C   0  0  0  0  0  0  0  0  0  0  0  0
    2.1171  -47.4240  -30.3809 C   0  0  0  0  0  0  0  0  0  0  0  0
    1.2066  -47.8567  -31.3500 C   0  0  0  0  0  0  0  0  0  0  0  0
    1.6457  -48.4888  -32.5222 C   0  0  0  0  0  0  0  0  0  0  0  0
    4.3948  -47.1782  -29.5671 N   0  0  0  0  0  0  0  0  0  0  0  0
    4.5295  -45.7664  -29.1789 C   0  0  0  0  0  0  0  0  0  0  0  0
    5.9621  -45.4503  -28.6812 C   0  0  0  0  0  0  0  0  0  0  0  0
    6.4806  -46.3100  -27.5962 N   0  0  0  0  0  0  0  0  0  0  0  0
    5.7372  -47.5845  -27.5183 C   0  0  0  0  0  0  0  0  0  0  0  0
    5.2950  -48.1310  -28.8944 C   0  0  0  0  0  0  0  0  0  0  0  0
    6.5225  -45.6431  -26.2855 C   0  0  0  0  0  0  0  0  0  0  0  0
    5.8139  -46.4413  -25.1727 C   0  0  0  0  0  0  0  0  0  0  0  0
    4.8590  -45.6043  -24.3605 C   0  0  0  0  0  0  0  0  0  0  0  0
    4.9915  -44.2001  -24.4253 C   0  0  0  0  0  0  0  0  0  0  0  0
    4.1732  -43.3360  -23.6779 C   0  0  0  0  0  0  0  0  0  0  0  0
    3.1908  -43.8449  -22.8329 C   0  0  0  0  0  0  0  0  0  0  0  0
    3.0605  -45.2186  -22.7633 C   0  0  0  0  0  0  0  0  0  0  0  0
    3.8743  -46.0952  -23.5081 C   0  0  0  0  0  0  0  0  0  0  0  0
    3.4635  -47.4054  -23.1822 N   0  0  0  0  0  0  0  0  0  0  0  0
    3.9812  -48.6392  -23.6895 C   0  0  0  0  0  0  0  0  0  0  0  0
    2.4094  -47.3463  -22.2485 C   0  0  0  0  0  0  0  0  0  0  0  0
    1.8106  -48.2885  -21.7523 O   0  0  0  0  0  0  0  0  0  0  0  0
    2.1665  -45.9848  -21.9995 N   0  0  0  0  0  0  0  0  0  0  0  0
    1.1578  -45.4876  -21.0889 C   0  0  1  0  0  0  0  0  0  0  0  0
   -0.1950  -46.1761  -21.2774 C   0  0  0  0  0  0  0  0  0  0  0  0
   -1.1923  -45.6367  -20.2665 C   0  0  0  0  0  0  0  0  0  0  0  0
   -0.6889  -45.8190  -18.8550 C   0  0  0  0  0  0  0  0  0  0  0  0
   -1.4492  -45.9085  -17.8953 O   0  0  0  0  0  0  0  0  0  0  0  0
    0.6719  -45.7946  -18.6829 N   0  0  0  0  0  0  0  0  0  0  0  0
    1.6477  -45.6179  -19.6386 C   0  0  0  0  0  0  0  0  0  0  0  0
    2.8198  -45.4705  -19.2955 O   0  0  0  0  0  0  0  0  0  0  0  0
    1.0018  -45.8832  -17.7316 H   0  0  0  0  0  0  0  0  0  0  0  0
    0.6502  -48.9283  -33.5135 C   0  0  0  0  0  0  0  0  0  0  0  0
    0.1137  -50.2227  -33.3336 C   0  0  0  0  0  0  0  0  0  0  0  0
   -0.8499  -50.7366  -34.2008 C   0  0  0  0  0  0  0  0  0  0  0  0
   -1.2775  -49.9899  -35.2923 C   0  0  0  0  0  0  0  0  0  0  0  0
   -0.7570  -48.7115  -35.4884 C   0  0  0  0  0  0  0  0  0  0  0  0
    0.2135  -48.1536  -34.6177 C   0  0  0  0  0  0  0  0  0  0  0  0
    0.6656  -46.7344  -34.9658 C   0  0  1  0  0  0  0  0  0  0  0  0
    1.3126  -46.6693  -36.3619 C   0  0  0  0  0  0  0  0  0  0  0  0
    1.9382  -45.2933  -36.6027 C   0  0  0  0  0  0  0  0  0  0  0  0
    0.9352  -44.1675  -36.3643 C   0  0  0  0  0  0  0  0  0  0  0  0
    0.2999  -44.2892  -35.0527 N   0  0  0  0  0  0  0  0  0  0  0  0
    0.2762  -43.1929  -34.2036 C   0  0  0  0  0  0  0  0  0  0  0  0
    0.8705  -42.1467  -34.4676 O   0  0  0  0  0  0  0  0  0  0  0  0
   -0.3471  -45.5858  -34.7994 C   0  0  0  0  0  0  0  0  0  0  0  0
   -0.4899  -43.3416  -32.9022 C   0  0  0  0  0  0  0  0  0  0  0  0
    0.3613  -42.9812  -31.6906 C   0  0  0  0  0  0  0  0  0  0  0  0
   -0.0371  -41.7292  -31.0830 N   0  0  0  0  0  0  0  0  0  0  0  0
   -0.2578  -41.4577  -29.7674 C   0  0  0  0  0  0  0  0  0  0  0  0
   -0.6334  -40.1370  -29.7651 C   0  0  0  0  0  0  0  0  0  0  0  0
   -0.6391  -39.6616  -31.0460 N   0  0  0  0  0  0  0  0  0  0  0  0
   -0.2744  -40.6507  -31.8519 N   0  0  0  0  0  0  0  0  0  0  0  0
   -1.3628  -52.1042  -33.9769 C   0  0  0  0  0  0  0  0  0  0  0  0
   -2.4688  -52.2110  -33.4523 O   0  0  0  0  0  0  0  0  0  0  0  0
   -0.5735  -53.1882  -34.3537 N   0  0  0  0  0  0  0  0  0  0  0  0
    0.6268  -53.1016  -35.1735 C   0  0  0  0  0  0  0  0  0  0  0  0
   -0.9938  -54.5241  -33.9681 C   0  0  0  0  0  0  0  0  0  0  0  0
    4.2197  -48.4246  -34.7906 C   0  0  0  0  0  0  0  0  0  0  0  0
    3.4083  -49.1980  -33.9178 O   0  0  0  0  0  0  0  0  0  0  0  0
    4.9401  -48.3214  -31.8913 H   0  0  0  0  0  0  0  0  0  0  0  0
    1.7611  -46.9690  -29.5258 H   0  0  0  0  0  0  0  0  0  0  0  0
    0.1963  -47.7086  -31.2003 H   0  0  0  0  0  0  0  0  0  0  0  0
    3.8337  -45.5533  -28.3945 H   0  0  0  0  0  0  0  0  0  0  0  0
    4.3307  -45.1608  -30.0383 H   0  0  0  0  0  0  0  0  0  0  0  0
    5.9699  -44.4399  -28.3291 H   0  0  0  0  0  0  0  0  0  0  0  0
    6.6025  -45.6296  -29.5194 H   0  0  0  0  0  0  0  0  0  0  0  0
    4.8639  -47.4301  -26.9197 H   0  0  0  0  0  0  0  0  0  0  0  0
    6.4010  -48.3081  -27.0932 H   0  0  0  0  0  0  0  0  0  0  0  0
    4.7829  -49.0602  -28.7555 H   0  0  0  0  0  0  0  0  0  0  0  0
    6.1631  -48.2736  -29.5035 H   0  0  0  0  0  0  0  0  0  0  0  0
    6.0469  -44.6888  -26.3746 H   0  0  0  0  0  0  0  0  0  0  0  0
    7.5519  -45.5558  -26.0068 H   0  0  0  0  0  0  0  0  0  0  0  0
    6.5570  -46.8436  -24.5163 H   0  0  0  0  0  0  0  0  0  0  0  0
    5.2401  -47.2096  -25.6474 H   0  0  0  0  0  0  0  0  0  0  0  0
    5.7131  -43.7949  -25.0419 H   0  0  0  0  0  0  0  0  0  0  0  0
    4.3017  -42.3150  -23.7561 H   0  0  0  0  0  0  0  0  0  0  0  0
    2.5834  -43.2202  -22.2799 H   0  0  0  0  0  0  0  0  0  0  0  0
    4.7726  -48.4366  -24.3805 H   0  0  0  0  0  0  0  0  0  0  0  0
    3.2009  -49.1753  -24.1881 H   0  0  0  0  0  0  0  0  0  0  0  0
    4.3572  -49.2282  -22.8792 H   0  0  0  0  0  0  0  0  0  0  0  0
    1.0029  -44.4532  -21.3143 H   0  0  0  0  0  0  0  0  0  0  0  0
   -0.0799  -47.2303  -21.1351 H   0  0  0  0  0  0  0  0  0  0  0  0
   -0.5549  -45.9829  -22.2664 H   0  0  0  0  0  0  0  0  0  0  0  0
   -2.1193  -46.1596  -20.3771 H   0  0  0  0  0  0  0  0  0  0  0  0
   -1.3264  -44.5906  -20.4467 H   0  0  0  0  0  0  0  0  0  0  0  0
    0.4418  -50.8002  -32.5437 H   0  0  0  0  0  0  0  0  0  0  0  0
   -1.9722  -50.3772  -35.9499 H   0  0  0  0  0  0  0  0  0  0  0  0
   -1.0880  -48.1543  -36.2915 H   0  0  0  0  0  0  0  0  0  0  0  0
    1.3843  -46.5458  -34.1959 H   0  0  0  0  0  0  0  0  0  0  0  0
    0.5642  -46.8501  -37.1050 H   0  0  0  0  0  0  0  0  0  0  0  0
    2.0804  -47.4122  -36.4210 H   0  0  0  0  0  0  0  0  0  0  0  0
    2.2836  -45.2416  -37.6141 H   0  0  0  0  0  0  0  0  0  0  0  0
    2.7479  -45.1699  -35.9142 H   0  0  0  0  0  0  0  0  0  0  0  0
    0.1806  -44.2070  -37.1219 H   0  0  0  0  0  0  0  0  0  0  0  0
    1.4596  -43.2355  -36.3998 H   0  0  0  0  0  0  0  0  0  0  0  0
   -1.1499  -45.7206  -35.4938 H   0  0  0  0  0  0  0  0  0  0  0  0
   -0.7214  -45.5963  -33.7971 H   0  0  0  0  0  0  0  0  0  0  0  0
   -0.8135  -44.3570  -32.8066 H   0  0  0  0  0  0  0  0  0  0  0  0
   -1.3221  -42.6696  -32.9315 H   0  0  0  0  0  0  0  0  0  0  0  0
    1.3824  -42.9021  -32.0004 H   0  0  0  0  0  0  0  0  0  0  0  0
    0.2290  -43.7523  -30.9606 H   0  0  0  0  0  0  0  0  0  0  0  0
   -0.1647  -42.0950  -28.9610 H   0  0  0  0  0  0  0  0  0  0  0  0
   -0.8743  -39.5880  -28.9251 H   0  0  0  0  0  0  0  0  0  0  0  0
    0.8358  -52.0753  -35.3926 H   0  0  0  0  0  0  0  0  0  0  0  0
    0.4742  -53.6374  -36.0870 H   0  0  0  0  0  0  0  0  0  0  0  0
    1.4524  -53.5284  -34.6433 H   0  0  0  0  0  0  0  0  0  0  0  0
   -1.8803  -54.4610  -33.3722 H   0  0  0  0  0  0  0  0  0  0  0  0
   -0.2163  -54.9932  -33.4022 H   0  0  0  0  0  0  0  0  0  0  0  0
   -1.1945  -55.1022  -34.8459 H   0  0  0  0  0  0  0  0  0  0  0  0
    4.4344  -48.9905  -35.6730 H   0  0  0  0  0  0  0  0  0  0  0  0
    5.1350  -48.1726  -34.2970 H   0  0  0  0  0  0  0  0  0  0  0  0
    3.7008  -47.5282  -35.0593 H   0  0  0  0  0  0  0  0  0  0  0  0
  1  2  2  0
  2  3  1  0
  2 63  1  0
  3  7  1  0
  3  4  2  0
  4  5  1  0
  4 64  1  0
  5  6  2  0
  5 65  1  0
  6 35  1  0
  6  1  1  0
  7  8  1  0
  8  9  1  0
  8 66  1  0
  8 67  1  0
  9 10  1  0
  9 68  1  0
  9 69  1  0
 10 13  1  0
 10 11  1  0
 11 12  1  0
 11 70  1  0
 11 71  1  0
 12  7  1  0
 12 72  1  0
 12 73  1  0
 13 14  1  0
 13 74  1  0
 13 75  1  0
 14 15  1  0
 14 76  1  0
 14 77  1  0
 15 16  2  0
 16 17  1  0
 16 78  1  0
 17 18  2  0
 17 79  1  0
 18 19  1  0
 18 80  1  0
 19 20  2  0
 20 21  1  0
 20 15  1  0
 21 22  1  0
 21 23  1  0
 22 81  1  0
 22 82  1  0
 22 83  1  0
 23 24  2  0
 23 25  1  0
 25 26  1  0
 25 19  1  0
 26 27  1  0
 26 84  1  6
 27 28  1  0
 27 85  1  0
 27 86  1  0
 28 29  1  0
 28 87  1  0
 28 88  1  0
 29 30  2  0
 29 31  1  0
 31 32  1  0
 31 34  1  0
 32 33  2  0
 32 26  1  0
 35 36  2  0
 36 37  1  0
 36 89  1  0
 37 56  1  0
 37 38  2  0
 38 39  1  0
 38 90  1  0
 39 40  2  0
 39 91  1  0
 40 41  1  0
 40 35  1  0
 41 42  1  0
 41 92  1  1
 42 43  1  0
 42 93  1  0
 42 94  1  0
 43 44  1  0
 43 95  1  0
 43 96  1  0
 44 45  1  0
 44 97  1  0
 44 98  1  0
 45 46  1  0
 45 48  1  0
 46 47  2  0
 46 49  1  0
 48 41  1  0
 48 99  1  0
 48100  1  0
 49 50  1  0
 49101  1  0
 49102  1  0
 50 51  1  0
 50103  1  0
 50104  1  0
 51 52  1  0
 52 53  2  0
 52105  1  0
 53 54  1  0
 53106  1  0
 54 55  2  0
 55 51  1  0
 56 57  2  0
 56 58  1  0
 58 59  1  0
 58 60  1  0
 59107  1  0
 59108  1  0
 59109  1  0
 60110  1  0
 60111  1  0
 60112  1  0
 61 62  1  0
 61113  1  0
 61114  1  0
 61115  1  0
 62  1  1  0
M  END
>  <minimizedAffinity>  (4) 
-7.79062

>  <mol_id>  (4) 
41686

>  <source_index>  (4) 
3

>  <layer>  (4) 
L4

>  <uniprot>  (4) 
P42226

>  <paff>  (4) 
6.2595999999999998

>  <smiles>  (4) 
COc1cc(N2CCN(CCc3cccc4c3n(C)c(=O)n4C3CCC(=O)NC3=O)CC2)ccc1-c1cc(C(=O)N(C)C)ccc1C1CCCN(C(=O)CCn2ccnn2)C1

$$$$
L4:P42226:89566
     RDKit          3D

119127  0  0  0  0  0  0  0  0999 V2000
    3.4713  -48.8504  -31.2165 C   0  0  0  0  0  0  0  0  0  0  0  0
    4.2371  -49.0760  -30.0616 C   0  0  0  0  0  0  0  0  0  0  0  0
    3.6415  -49.4001  -28.8338 C   0  0  0  0  0  0  0  0  0  0  0  0
    2.2422  -49.4891  -28.8112 C   0  0  0  0  0  0  0  0  0  0  0  0
    1.4674  -49.2477  -29.9523 C   0  0  0  0  0  0  0  0  0  0  0  0
    2.0692  -48.9179  -31.1728 C   0  0  0  0  0  0  0  0  0  0  0  0
    1.2310  -48.6673  -32.3618 C   0  0  0  0  0  0  0  0  0  0  0  0
    0.7647  -47.3554  -32.5796 C   0  0  0  0  0  0  0  0  0  0  0  0
   -0.0232  -47.0324  -33.6865 C   0  0  0  0  0  0  0  0  0  0  0  0
   -0.3504  -48.0466  -34.5944 C   0  0  0  0  0  0  0  0  0  0  0  0
    0.0907  -49.3665  -34.4124 C   0  0  0  0  0  0  0  0  0  0  0  0
   -0.2465  -50.3569  -35.3528 C   0  0  0  0  0  0  0  0  0  0  0  0
    0.1834  -51.6735  -35.1952 C   0  0  0  0  0  0  0  0  0  0  0  0
    0.9410  -52.0141  -34.0774 C   0  0  0  0  0  0  0  0  0  0  0  0
    1.2974  -51.0400  -33.1407 C   0  0  0  0  0  0  0  0  0  0  0  0
    0.8858  -49.6952  -33.2846 C   0  0  0  0  0  0  0  0  0  0  0  0
   -0.4924  -45.6493  -33.9094 C   0  0  0  0  0  0  0  0  0  0  0  0
   -0.9983  -44.9474  -32.8758 C   0  0  0  0  0  0  0  0  0  0  0  0
   -1.5147  -43.5489  -33.0441 C   0  0  0  0  0  0  0  0  0  0  0  0
   -1.7629  -43.2114  -34.5145 C   0  0  0  0  0  0  0  0  0  0  0  0
   -0.6392  -43.6488  -35.3448 N   0  0  0  0  0  0  0  0  0  0  0  0
    0.0806  -42.8443  -36.2140 C   0  0  0  0  0  0  0  0  0  0  0  0
    0.9445  -43.2948  -36.9673 O   0  0  0  0  0  0  0  0  0  0  0  0
   -0.3404  -45.0847  -35.3095 C   0  0  0  0  0  0  0  0  0  0  0  0
   -0.2418  -41.3661  -36.2144 C   0  0  0  0  0  0  0  0  0  0  0  0
    0.8919  -40.5617  -35.5915 C   0  0  0  0  0  0  0  0  0  0  0  0
    0.7387  -40.4353  -34.1588 N   0  0  0  0  0  0  0  0  0  0  0  0
    1.5284  -40.9565  -33.1791 C   0  0  0  0  0  0  0  0  0  0  0  0
    0.9372  -40.5198  -32.0186 C   0  0  0  0  0  0  0  0  0  0  0  0
   -0.1597  -39.7640  -32.3214 N   0  0  0  0  0  0  0  0  0  0  0  0
   -0.2763  -39.7212  -33.6421 N   0  0  0  0  0  0  0  0  0  0  0  0
    1.4453  -53.3926  -33.8993 C   0  0  0  0  0  0  0  0  0  0  0  0
    2.6276  -53.5979  -34.1655 O   0  0  0  0  0  0  0  0  0  0  0  0
    0.5674  -54.3792  -33.4567 N   0  0  0  0  0  0  0  0  0  0  0  0
    1.0131  -55.7617  -33.4617 C   0  0  0  0  0  0  0  0  0  0  0  0
   -0.7604  -54.1325  -32.9126 C   0  0  0  0  0  0  0  0  0  0  0  0
    4.3815  -49.6421  -27.6803 N   0  0  0  0  0  0  0  0  0  0  0  0
    5.3392  -48.6073  -27.2496 C   0  0  0  0  0  0  0  0  0  0  0  0
    5.7150  -48.7782  -25.7579 C   0  0  0  0  0  0  0  0  0  0  0  0
    6.1928  -50.1403  -25.4220 N   0  0  0  0  0  0  0  0  0  0  0  0
    5.1490  -51.1125  -25.8297 C   0  0  0  0  0  0  0  0  0  0  0  0
    4.7753  -51.0145  -27.3258 C   0  0  0  0  0  0  0  0  0  0  0  0
    6.4801  -50.2878  -23.9831 C   0  0  0  0  0  0  0  0  0  0  0  0
    5.9410  -49.1189  -23.1402 C   0  0  0  0  0  0  0  0  0  0  0  0
    4.5875  -49.4304  -22.5560 C   0  0  0  0  0  0  0  0  0  0  0  0
    4.2578  -50.7842  -22.3299 C   0  0  0  0  0  0  0  0  0  0  0  0
    3.0328  -51.1660  -21.7567 C   0  0  0  0  0  0  0  0  0  0  0  0
    2.0936  -50.2071  -21.3846 C   0  0  0  0  0  0  0  0  0  0  0  0
    2.4141  -48.8808  -21.6037 C   0  0  0  0  0  0  0  0  0  0  0  0
    3.6382  -48.4860  -22.1760 C   0  0  0  0  0  0  0  0  0  0  0  0
    3.6253  -47.0774  -22.2282 N   0  0  0  0  0  0  0  0  0  0  0  0
    4.6339  -46.2111  -22.7638 C   0  0  0  0  0  0  0  0  0  0  0  0
    2.4121  -46.6011  -21.6950 C   0  0  0  0  0  0  0  0  0  0  0  0
    2.0686  -45.4354  -21.5785 O   0  0  0  0  0  0  0  0  0  0  0  0
    1.6606  -47.7279  -21.3216 N   0  0  0  0  0  0  0  0  0  0  0  0
    0.3710  -47.6969  -20.6590 C   0  0  1  0  0  0  0  0  0  0  0  0
    0.4394  -47.6963  -19.1336 C   0  0  0  0  0  0  0  0  0  0  0  0
    0.6905  -46.3208  -18.5441 C   0  0  0  0  0  0  0  0  0  0  0  0
   -0.2515  -45.2841  -19.1050 C   0  0  0  0  0  0  0  0  0  0  0  0
   -0.5748  -44.2831  -18.4697 O   0  0  0  0  0  0  0  0  0  0  0  0
   -0.7258  -45.4937  -20.3746 N   0  0  0  0  0  0  0  0  0  0  0  0
   -0.4922  -46.5591  -21.2106 C   0  0  0  0  0  0  0  0  0  0  0  0
   -0.9278  -46.5555  -22.3619 O   0  0  0  0  0  0  0  0  0  0  0  0
   -1.2931  -44.7505  -20.7564 H   0  0  0  0  0  0  0  0  0  0  0  0
    5.2437  -47.7123  -32.2329 C   0  0  0  0  0  0  0  0  0  0  0  0
    4.0608  -48.4912  -32.4055 O   0  0  0  0  0  0  0  0  0  0  0  0
    5.2649  -49.0014  -30.1175 H   0  0  0  0  0  0  0  0  0  0  0  0
    1.7700  -49.7396  -27.9284 H   0  0  0  0  0  0  0  0  0  0  0  0
    0.4392  -49.3137  -29.8930 H   0  0  0  0  0  0  0  0  0  0  0  0
    1.0116  -46.6150  -31.9044 H   0  0  0  0  0  0  0  0  0  0  0  0
   -0.9299  -47.8182  -35.4173 H   0  0  0  0  0  0  0  0  0  0  0  0
   -0.8211  -50.1048  -36.1721 H   0  0  0  0  0  0  0  0  0  0  0  0
   -0.0572  -52.3884  -35.8995 H   0  0  0  0  0  0  0  0  0  0  0  0
    1.8730  -51.3080  -32.3271 H   0  0  0  0  0  0  0  0  0  0  0  0
   -1.0314  -45.3847  -31.9416 H   0  0  0  0  0  0  0  0  0  0  0  0
   -0.7952  -42.8634  -32.6476 H   0  0  0  0  0  0  0  0  0  0  0  0
   -2.4456  -43.4718  -32.5222 H   0  0  0  0  0  0  0  0  0  0  0  0
   -1.8831  -42.1530  -34.6161 H   0  0  0  0  0  0  0  0  0  0  0  0
   -2.6471  -43.7193  -34.8386 H   0  0  0  0  0  0  0  0  0  0  0  0
    0.6658  -45.2388  -35.6393 H   0  0  0  0  0  0  0  0  0  0  0  0
   -1.0327  -45.5879  -35.9517 H   0  0  0  0  0  0  0  0  0  0  0  0
   -1.1373  -41.2028  -35.6519 H   0  0  0  0  0  0  0  0  0  0  0  0
   -0.3723  -41.0452  -37.2268 H   0  0  0  0  0  0  0  0  0  0  0  0
    0.9019  -39.5840  -36.0261 H   0  0  0  0  0  0  0  0  0  0  0  0
    1.8094  -41.0779  -35.7830 H   0  0  0  0  0  0  0  0  0  0  0  0
    2.3720  -41.5416  -33.2839 H   0  0  0  0  0  0  0  0  0  0  0  0
    1.2704  -40.7303  -31.0648 H   0  0  0  0  0  0  0  0  0  0  0  0
    1.9957  -55.8182  -33.8816 H   0  0  0  0  0  0  0  0  0  0  0  0
    0.3401  -56.3513  -34.0485 H   0  0  0  0  0  0  0  0  0  0  0  0
    1.0319  -56.1340  -32.4587 H   0  0  0  0  0  0  0  0  0  0  0  0
   -0.9770  -53.0858  -32.9614 H   0  0  0  0  0  0  0  0  0  0  0  0
   -0.7941  -54.4566  -31.8934 H   0  0  0  0  0  0  0  0  0  0  0  0
   -1.4859  -54.6738  -33.4831 H   0  0  0  0  0  0  0  0  0  0  0  0
    4.8975  -47.6429  -27.3899 H   0  0  0  0  0  0  0  0  0  0  0  0
    6.2288  -48.7039  -27.8362 H   0  0  0  0  0  0  0  0  0  0  0  0
    4.8504  -48.5664  -25.1642 H   0  0  0  0  0  0  0  0  0  0  0  0
    6.5203  -48.1031  -25.5564 H   0  0  0  0  0  0  0  0  0  0  0  0
    4.2699  -50.9315  -25.2472 H   0  0  0  0  0  0  0  0  0  0  0  0
    5.5462  -52.0924  -25.6652 H   0  0  0  0  0  0  0  0  0  0  0  0
    3.9588  -51.6761  -27.5269 H   0  0  0  0  0  0  0  0  0  0  0  0
    5.6296  -51.2864  -27.9098 H   0  0  0  0  0  0  0  0  0  0  0  0
    7.5405  -50.3431  -23.8509 H   0  0  0  0  0  0  0  0  0  0  0  0
    5.9892  -51.1775  -23.6480 H   0  0  0  0  0  0  0  0  0  0  0  0
    5.8591  -48.2520  -23.7620 H   0  0  0  0  0  0  0  0  0  0  0  0
    6.6217  -48.9486  -22.3324 H   0  0  0  0  0  0  0  0  0  0  0  0
    4.9367  -51.5155  -22.5934 H   0  0  0  0  0  0  0  0  0  0  0  0
    2.8271  -52.1666  -21.6100 H   0  0  0  0  0  0  0  0  0  0  0  0
    1.1920  -50.4770  -20.9611 H   0  0  0  0  0  0  0  0  0  0  0  0
    5.4607  -46.7965  -23.1081 H   0  0  0  0  0  0  0  0  0  0  0  0
    4.9666  -45.5373  -22.0021 H   0  0  0  0  0  0  0  0  0  0  0  0
    4.2273  -45.6528  -23.5810 H   0  0  0  0  0  0  0  0  0  0  0  0
   -0.1053  -48.6260  -20.8929 H   0  0  0  0  0  0  0  0  0  0  0  0
    1.2330  -48.3462  -18.8291 H   0  0  0  0  0  0  0  0  0  0  0  0
   -0.5128  -48.0261  -18.7737 H   0  0  0  0  0  0  0  0  0  0  0  0
    1.6961  -46.0290  -18.7645 H   0  0  0  0  0  0  0  0  0  0  0  0
    0.5266  -46.3791  -17.4883 H   0  0  0  0  0  0  0  0  0  0  0  0
    5.6519  -47.4666  -33.1910 H   0  0  0  0  0  0  0  0  0  0  0  0
    5.9618  -48.2737  -31.6725 H   0  0  0  0  0  0  0  0  0  0  0  0
    5.0045  -46.8124  -31.7057 H   0  0  0  0  0  0  0  0  0  0  0  0
  1  2  2  0
  2  3  1  0
  2 67  1  0
  3 37  1  0
  3  4  2  0
  4  5  1  0
  4 68  1  0
  5  6  2  0
  5 69  1  0
  6  7  1  0
  6  1  1  0
  7  8  2  0
  8  9  1  0
  8 70  1  0
  9 17  1  0
  9 10  2  0
 10 11  1  0
 10 71  1  0
 11 12  2  0
 12 13  1  0
 12 72  1  0
 13 14  2  0
 13 73  1  0
 14 32  1  0
 14 15  1  0
 15 16  2  0
 15 74  1  0
 16  7  1  0
 16 11  1  0
 17 18  2  0
 18 19  1  0
 18 75  1  0
 19 20  1  0
 19 76  1  0
 19 77  1  0
 20 21  1  0
 20 78  1  0
 20 79  1  0
 21 22  1  0
 21 24  1  0
 22 23  2  0
 22 25  1  0
 24 17  1  0
 24 80  1  0
 24 81  1  0
 25 26  1  0
 25 82  1  0
 25 83  1  0
 26 27  1  0
 26 84  1  0
 26 85  1  0
 27 28  1  0
 28 29  2  0
 28 86  1  0
 29 30  1  0
 29 87  1  0
 30 31  2  0
 31 27  1  0
 32 33  2  0
 32 34  1  0
 34 35  1  0
 34 36  1  0
 35 88  1  0
 35 89  1  0
 35 90  1  0
 36 91  1  0
 36 92  1  0
 36 93  1  0
 37 38  1  0
 38 39  1  0
 38 94  1  0
 38 95  1  0
 39 40  1  0
 39 96  1  0
 39 97  1  0
 40 43  1  0
 40 41  1  0
 41 42  1  0
 41 98  1  0
 41 99  1  0
 42 37  1  0
 42100  1  0
 42101  1  0
 43 44  1  0
 43102  1  0
 43103  1  0
 44 45  1  0
 44104  1  0
 44105  1  0
 45 46  2  0
 46 47  1  0
 46106  1  0
 47 48  2  0
 47107  1  0
 48 49  1  0
 48108  1  0
 49 50  2  0
 50 51  1  0
 50 45  1  0
 51 52  1  0
 51 53  1  0
 52109  1  0
 52110  1  0
 52111  1  0
 53 54  2  0
 53 55  1  0
 55 56  1  0
 55 49  1  0
 56 57  1  0
 56112  1  1
 57 58  1  0
 57113  1  0
 57114  1  0
 58 59  1  0
 58115  1  0
 58116  1  0
 59 60  2  0
 59 61  1  0
 61 62  1  0
 61 64  1  0
 62 63  2  0
 62 56  1  0
 65 66  1  0
 65117  1  0
 65118  1  0
 65119  1  0
 66  1  1  0
M  END
>  <minimizedAffinity>  (5) 
-8.34156

>  <mol_id>  (5) 
89566

>  <source_index>  (5) 
4

>  <layer>  (5) 
L4

>  <uniprot>  (5) 
P42226

>  <paff>  (5) 
7

>  <smiles>  (5) 
COc1cc(N2CCN(CCc3cccc4c3n(C)c(=O)n4C3CCC(=O)NC3=O)CC2)ccc1-c1cc(C2=CCCN(C(=O)CCn3ccnn3)C2)cc2ccc(C(=O)N(C)C)cc12

$$$$
L4:P42226:94248
     RDKit          3D

 81 85  0  0  0  0  0  0  0  0999 V2000
    5.6231  -48.1299  -27.6457 C   0  0  2  0  0  0  0  0  0  0  0  0
    4.9525  -49.4619  -28.0880 C   0  0  0  0  0  0  0  0  0  0  0  0
    4.8831  -50.4344  -27.3331 O   0  0  0  0  0  0  0  0  0  0  0  0
    4.3725  -49.5154  -29.3408 N   0  0  0  0  0  0  0  0  0  0  0  0
    3.7950  -50.7582  -29.8283 C   0  0  0  0  0  0  0  0  0  0  0  0
    3.1908  -50.4214  -31.1839 C   0  0  0  0  0  0  0  0  0  0  0  0
    3.9959  -49.2077  -31.6394 C   0  0  0  0  0  0  0  0  0  0  0  0
    4.2373  -48.4425  -30.3342 C   0  0  1  0  0  0  0  0  0  0  0  0
    3.0183  -47.5274  -30.0362 C   0  0  0  0  0  0  0  0  0  0  0  0
    2.2404  -47.7782  -29.1099 O   0  0  0  0  0  0  0  0  0  0  0  0
    2.7965  -46.4535  -30.8826 N   0  0  0  0  0  0  0  0  0  0  0  0
    3.7090  -45.9955  -31.9357 C   0  0  0  0  0  0  0  0  0  0  0  0
    3.3633  -44.5759  -32.3943 C   0  0  0  0  0  0  0  0  0  0  0  0
    2.0190  -44.4462  -32.8746 O   0  0  0  0  0  0  0  0  0  0  0  0
    1.0401  -45.2541  -32.1763 C   0  0  2  0  0  0  0  0  0  0  0  0
    1.5470  -45.6895  -30.7797 C   0  0  0  0  0  0  0  0  0  0  0  0
    0.5765  -46.3757  -33.1055 C   0  0  0  0  0  0  0  0  0  0  0  0
    0.4919  -46.1367  -34.4895 C   0  0  0  0  0  0  0  0  0  0  0  0
    0.0546  -47.1281  -35.3708 C   0  0  0  0  0  0  0  0  0  0  0  0
   -0.3203  -48.3765  -34.8840 C   0  0  0  0  0  0  0  0  0  0  0  0
   -0.2625  -48.6301  -33.5174 C   0  0  0  0  0  0  0  0  0  0  0  0
    0.1758  -47.6376  -32.6351 C   0  0  0  0  0  0  0  0  0  0  0  0
    7.4504  -48.6023  -25.9366 C   0  0  0  0  0  0  0  0  0  0  0  0
    7.1719  -48.2100  -27.4070 C   0  0  0  0  0  0  0  0  0  0  0  0
    7.8164  -46.8254  -27.6351 C   0  0  0  0  0  0  0  0  0  0  0  0
    7.8750  -49.2500  -28.3020 C   0  0  0  0  0  0  0  0  0  0  0  0
    4.9064  -47.6761  -26.4535 N   0  0  0  0  0  0  0  0  0  0  0  0
    4.3158  -46.4338  -26.3585 C   0  0  0  0  0  0  0  0  0  0  0  0
    4.3669  -45.6388  -27.2962 O   0  0  0  0  0  0  0  0  0  0  0  0
    4.8248  -48.3345  -25.6895 H   0  0  0  0  0  0  0  0  0  0  0  0
    3.6317  -46.1655  -25.1019 C   0  0  0  0  0  0  0  0  0  0  0  0
    2.6150  -46.8592  -24.4741 C   0  0  0  0  0  0  0  0  0  0  0  0
    2.1876  -46.2551  -23.2440 C   0  0  0  0  0  0  0  0  0  0  0  0
    1.1849  -46.6507  -22.3250 C   0  0  0  0  0  0  0  0  0  0  0  0
    0.9266  -45.8972  -21.1658 C   0  0  0  0  0  0  0  0  0  0  0  0
    1.6742  -44.7420  -20.9261 C   0  0  0  0  0  0  0  0  0  0  0  0
    2.6682  -44.3283  -21.8180 C   0  0  0  0  0  0  0  0  0  0  0  0
    2.9111  -45.0946  -22.9731 C   0  0  0  0  0  0  0  0  0  0  0  0
    4.0662  -44.7745  -24.2049 S   0  0  0  0  0  0  0  0  0  0  0  0
   -0.1315  -46.3385  -20.1913 C   0  0  0  0  0  0  0  0  0  0  0  0
   -1.3544  -45.7735  -20.4404 F   0  0  0  0  0  0  0  0  0  0  0  0
   -0.3318  -47.6849  -20.1430 F   0  0  0  0  0  0  0  0  0  0  0  0
    0.0635  -45.9071  -18.4436 P   0  0  0  0  0  0  0  0  0  0  0  0
    1.4153  -46.0404  -17.8119 O   0  0  0  0  0  0  0  0  0  0  0  0
   -0.5464  -44.4160  -18.2783 O   0  0  0  0  0  0  0  0  0  0  0  0
   -1.0494  -46.6910  -17.5780 O   0  0  0  0  0  0  0  0  0  0  0  0
   -1.3359  -44.2752  -18.8402 H   0  0  0  0  0  0  0  0  0  0  0  0
   -0.8826  -46.5697  -16.6223 H   0  0  0  0  0  0  0  0  0  0  0  0
    5.5453  -47.4272  -28.4488 H   0  0  0  0  0  0  0  0  0  0  0  0
    3.0378  -51.1071  -29.1576 H   0  0  0  0  0  0  0  0  0  0  0  0
    4.5278  -51.5344  -29.9020 H   0  0  0  0  0  0  0  0  0  0  0  0
    2.1528  -50.1790  -31.0907 H   0  0  0  0  0  0  0  0  0  0  0  0
    3.2371  -51.2365  -31.8756 H   0  0  0  0  0  0  0  0  0  0  0  0
    3.4383  -48.6155  -32.3345 H   0  0  0  0  0  0  0  0  0  0  0  0
    4.9005  -49.4691  -32.1476 H   0  0  0  0  0  0  0  0  0  0  0  0
    5.0917  -47.7986  -30.3508 H   0  0  0  0  0  0  0  0  0  0  0  0
    3.6368  -46.6590  -32.7720 H   0  0  0  0  0  0  0  0  0  0  0  0
    4.7036  -45.9897  -31.5411 H   0  0  0  0  0  0  0  0  0  0  0  0
    4.0333  -44.3010  -33.1820 H   0  0  0  0  0  0  0  0  0  0  0  0
    3.4582  -43.9359  -31.5421 H   0  0  0  0  0  0  0  0  0  0  0  0
    0.1662  -44.6830  -31.9417 H   0  0  0  0  0  0  0  0  0  0  0  0
    0.8023  -46.2997  -30.3128 H   0  0  0  0  0  0  0  0  0  0  0  0
    1.7340  -44.8110  -30.1982 H   0  0  0  0  0  0  0  0  0  0  0  0
    0.7580  -45.2112  -34.8605 H   0  0  0  0  0  0  0  0  0  0  0  0
    0.0095  -46.9346  -36.3835 H   0  0  0  0  0  0  0  0  0  0  0  0
   -0.6400  -49.1114  -35.5342 H   0  0  0  0  0  0  0  0  0  0  0  0
   -0.5440  -49.5538  -33.1535 H   0  0  0  0  0  0  0  0  0  0  0  0
    0.2054  -47.8351  -31.6226 H   0  0  0  0  0  0  0  0  0  0  0  0
    8.5069  -48.6564  -25.7759 H   0  0  0  0  0  0  0  0  0  0  0  0
    7.0093  -49.5554  -25.7321 H   0  0  0  0  0  0  0  0  0  0  0  0
    7.0277  -47.8664  -25.2849 H   0  0  0  0  0  0  0  0  0  0  0  0
    8.8715  -46.8915  -27.4698 H   0  0  0  0  0  0  0  0  0  0  0  0
    7.3923  -46.1179  -26.9536 H   0  0  0  0  0  0  0  0  0  0  0  0
    7.6320  -46.5073  -28.6400 H   0  0  0  0  0  0  0  0  0  0  0  0
    8.9236  -49.2530  -28.0892 H   0  0  0  0  0  0  0  0  0  0  0  0
    7.7205  -48.9982  -29.3304 H   0  0  0  0  0  0  0  0  0  0  0  0
    7.4688  -50.2206  -28.1076 H   0  0  0  0  0  0  0  0  0  0  0  0
    2.2032  -47.7266  -24.8524 H   0  0  0  0  0  0  0  0  0  0  0  0
    0.6355  -47.5048  -22.5088 H   0  0  0  0  0  0  0  0  0  0  0  0
    1.4899  -44.1850  -20.0771 H   0  0  0  0  0  0  0  0  0  0  0  0
    3.2158  -43.4735  -21.6320 H   0  0  0  0  0  0  0  0  0  0  0  0
  1 27  1  0
  1  2  1  0
  1 49  1  6
  2  3  2  0
  2  4  1  0
  4  5  1  0
  5  6  1  0
  5 50  1  0
  5 51  1  0
  6  7  1  0
  6 52  1  0
  6 53  1  0
  7  8  1  0
  7 54  1  0
  7 55  1  0
  8  9  1  0
  8  4  1  0
  8 56  1  6
  9 10  2  0
  9 11  1  0
 11 12  1  0
 12 13  1  0
 12 57  1  0
 12 58  1  0
 13 14  1  0
 13 59  1  0
 13 60  1  0
 14 15  1  0
 15 17  1  0
 15 16  1  0
 15 61  1  1
 16 11  1  0
 16 62  1  0
 16 63  1  0
 17 18  2  0
 18 19  1  0
 18 64  1  0
 19 20  2  0
 19 65  1  0
 20 21  1  0
 20 66  1  0
 21 22  2  0
 21 67  1  0
 22 17  1  0
 22 68  1  0
 23 24  1  0
 23 69  1  0
 23 70  1  0
 23 71  1  0
 24 25  1  0
 24 26  1  0
 24  1  1  0
 25 72  1  0
 25 73  1  0
 25 74  1  0
 26 75  1  0
 26 76  1  0
 26 77  1  0
 27 28  1  0
 27 30  1  0
 28 29  2  0
 28 31  1  0
 31 32  2  0
 32 33  1  0
 32 78  1  0
 33 34  2  0
 34 35  1  0
 34 79  1  0
 35 40  1  0
 35 36  2  0
 36 37  1  0
 36 80  1  0
 37 38  2  0
 37 81  1  0
 38 39  1  0
 38 33  1  0
 39 31  1  0
 40 41  1  0
 40 42  1  0
 40 43  1  0
 43 44  2  0
 43 45  1  0
 43 46  1  0
 45 47  1  0
 46 48  1  0
M  END
>  <minimizedAffinity>  (6) 
-7.58723

>  <mol_id>  (6) 
94248

>  <source_index>  (6) 
5

>  <layer>  (6) 
L4

>  <uniprot>  (6) 
P42226

>  <paff>  (6) 
6.2441000000000004

>  <smiles>  (6) 
CC(C)(C)[C@H](NC(=O)c1cc2cc(C(F)(F)P(=O)(O)O)ccc2s1)C(=O)N1CCC[C@H]1C(=O)N1CCO[C@@H](c2ccccc2)C1

$$$$
L4:P42226:115838
     RDKit          3D

 87 92  0  0  0  0  0  0  0  0999 V2000
    4.2445  -48.1528  -28.1963 C   0  0  2  0  0  0  0  0  0  0  0  0
    3.3969  -47.3670  -29.2268 C   0  0  0  0  0  0  0  0  0  0  0  0
    2.1620  -47.3697  -29.1648 O   0  0  0  0  0  0  0  0  0  0  0  0
    4.0483  -46.6541  -30.2015 N   0  0  0  0  0  0  0  0  0  0  0  0
    5.4789  -46.3650  -30.2829 C   0  0  0  0  0  0  0  0  0  0  0  0
    5.5685  -45.3220  -31.3494 C   0  0  0  0  0  0  0  0  0  0  0  0
    6.6854  -44.6318  -31.7886 C   0  0  0  0  0  0  0  0  0  0  0  0
    6.5222  -43.6919  -32.8086 C   0  0  0  0  0  0  0  0  0  0  0  0
    5.2575  -43.4574  -33.3719 C   0  0  0  0  0  0  0  0  0  0  0  0
    4.1363  -44.1593  -32.9241 C   0  0  0  0  0  0  0  0  0  0  0  0
    4.3065  -45.0906  -31.9114 C   0  0  0  0  0  0  0  0  0  0  0  0
    3.2779  -45.9777  -31.2577 C   0  0  1  0  0  0  0  0  0  0  0  0
    2.7324  -47.0332  -32.2606 C   0  0  0  0  0  0  0  0  0  0  0  0
    3.4022  -48.0308  -32.5543 O   0  0  0  0  0  0  0  0  0  0  0  0
    1.4856  -46.8006  -32.8435 N   0  0  0  0  0  0  0  0  0  0  0  0
    0.5955  -45.7146  -32.4421 C   0  0  0  0  0  0  0  0  0  0  0  0
   -0.7238  -45.6999  -33.2090 C   0  0  0  0  0  0  0  0  0  0  0  0
   -0.4812  -45.8322  -34.7101 C   0  0  0  0  0  0  0  0  0  0  0  0
    0.3953  -47.0567  -35.0627 C   0  0  1  0  0  0  0  0  0  0  0  0
    0.9613  -47.7620  -33.8139 C   0  0  0  0  0  0  0  0  0  0  0  0
   -0.3265  -48.0466  -35.9620 C   0  0  0  0  0  0  0  0  0  0  0  0
   -0.5934  -49.3443  -35.5005 C   0  0  0  0  0  0  0  0  0  0  0  0
   -1.2642  -50.2639  -36.3092 C   0  0  0  0  0  0  0  0  0  0  0  0
   -1.6789  -49.8981  -37.5875 C   0  0  0  0  0  0  0  0  0  0  0  0
   -1.4246  -48.6122  -38.0581 C   0  0  0  0  0  0  0  0  0  0  0  0
   -0.7542  -47.6912  -37.2510 C   0  0  0  0  0  0  0  0  0  0  0  0
    4.3809  -50.0558  -29.8728 C   0  0  0  0  0  0  0  0  0  0  0  0
    4.1836  -49.7009  -28.3857 C   0  0  0  0  0  0  0  0  0  0  0  0
    5.3351  -50.3538  -27.5892 C   0  0  0  0  0  0  0  0  0  0  0  0
    2.8575  -50.3238  -27.9098 C   0  0  0  0  0  0  0  0  0  0  0  0
    3.7516  -47.7270  -26.8885 N   0  0  0  0  0  0  0  0  0  0  0  0
    4.3328  -46.7044  -26.1734 C   0  0  0  0  0  0  0  0  0  0  0  0
    5.3699  -46.1660  -26.5557 O   0  0  0  0  0  0  0  0  0  0  0  0
    2.8270  -48.0311  -26.6072 H   0  0  0  0  0  0  0  0  0  0  0  0
    3.6404  -46.3022  -24.9570 C   0  0  0  0  0  0  0  0  0  0  0  0
    2.5838  -46.9598  -24.3587 C   0  0  0  0  0  0  0  0  0  0  0  0
    2.1124  -46.3197  -23.1658 C   0  0  0  0  0  0  0  0  0  0  0  0
    1.0652  -46.6761  -22.2813 C   0  0  0  0  0  0  0  0  0  0  0  0
    0.7744  -45.8905  -21.1527 C   0  0  0  0  0  0  0  0  0  0  0  0
    1.5267  -44.7396  -20.9124 C   0  0  0  0  0  0  0  0  0  0  0  0
    2.5652  -44.3644  -21.7696 C   0  0  0  0  0  0  0  0  0  0  0  0
    2.8461  -45.1655  -22.8919 C   0  0  0  0  0  0  0  0  0  0  0  0
    4.0666  -44.9025  -24.0756 S   0  0  0  0  0  0  0  0  0  0  0  0
   -0.3510  -46.2651  -20.2315 C   0  0  0  0  0  0  0  0  0  0  0  0
   -1.5404  -45.6450  -20.5023 F   0  0  0  0  0  0  0  0  0  0  0  0
   -0.6370  -47.5986  -20.2179 F   0  0  0  0  0  0  0  0  0  0  0  0
   -0.1904  -45.9122  -18.4639 P   0  0  0  0  0  0  0  0  0  0  0  0
   -0.9577  -46.7627  -17.4986 O   0  0  0  0  0  0  0  0  0  0  0  0
    1.3842  -45.9066  -18.1114 O   0  0  0  0  0  0  0  0  0  0  0  0
   -0.4828  -44.3337  -18.2748 O   0  0  0  0  0  0  0  0  0  0  0  0
    1.5127  -45.8201  -17.1463 H   0  0  0  0  0  0  0  0  0  0  0  0
   -0.3491  -43.8186  -19.0964 H   0  0  0  0  0  0  0  0  0  0  0  0
    5.2851  -47.9355  -28.3183 H   0  0  0  0  0  0  0  0  0  0  0  0
    6.0301  -47.2400  -30.5575 H   0  0  0  0  0  0  0  0  0  0  0  0
    5.8906  -46.0410  -29.3499 H   0  0  0  0  0  0  0  0  0  0  0  0
    7.6138  -44.8072  -31.3734 H   0  0  0  0  0  0  0  0  0  0  0  0
    7.3398  -43.1641  -33.1520 H   0  0  0  0  0  0  0  0  0  0  0  0
    5.1555  -42.7590  -34.1248 H   0  0  0  0  0  0  0  0  0  0  0  0
    3.2056  -43.9892  -33.3362 H   0  0  0  0  0  0  0  0  0  0  0  0
    2.4299  -45.4323  -30.8995 H   0  0  0  0  0  0  0  0  0  0  0  0
    1.0969  -44.7846  -32.6112 H   0  0  0  0  0  0  0  0  0  0  0  0
    0.3597  -45.8639  -31.4091 H   0  0  0  0  0  0  0  0  0  0  0  0
   -1.2313  -44.7779  -33.0158 H   0  0  0  0  0  0  0  0  0  0  0  0
   -1.3181  -46.5282  -32.8839 H   0  0  0  0  0  0  0  0  0  0  0  0
    0.0097  -44.9473  -35.0577 H   0  0  0  0  0  0  0  0  0  0  0  0
   -1.4319  -45.9660  -35.1825 H   0  0  0  0  0  0  0  0  0  0  0  0
    1.2262  -46.6662  -35.6123 H   0  0  0  0  0  0  0  0  0  0  0  0
    1.7512  -48.4184  -34.1139 H   0  0  0  0  0  0  0  0  0  0  0  0
    0.1670  -48.3076  -33.3488 H   0  0  0  0  0  0  0  0  0  0  0  0
   -0.2909  -49.6220  -34.5537 H   0  0  0  0  0  0  0  0  0  0  0  0
   -1.4530  -51.2162  -35.9592 H   0  0  0  0  0  0  0  0  0  0  0  0
   -2.1738  -50.5787  -38.1849 H   0  0  0  0  0  0  0  0  0  0  0  0
   -1.7322  -48.3398  -39.0048 H   0  0  0  0  0  0  0  0  0  0  0  0
   -0.5712  -46.7395  -37.6056 H   0  0  0  0  0  0  0  0  0  0  0  0
    4.3379  -51.1180  -29.9947 H   0  0  0  0  0  0  0  0  0  0  0  0
    5.3339  -49.6973  -30.2016 H   0  0  0  0  0  0  0  0  0  0  0  0
    3.6078  -49.5985  -30.4542 H   0  0  0  0  0  0  0  0  0  0  0  0
    5.2986  -51.4157  -27.7152 H   0  0  0  0  0  0  0  0  0  0  0  0
    5.2318  -50.1140  -26.5515 H   0  0  0  0  0  0  0  0  0  0  0  0
    6.2724  -49.9839  -27.9492 H   0  0  0  0  0  0  0  0  0  0  0  0
    2.8834  -51.3817  -28.0679 H   0  0  0  0  0  0  0  0  0  0  0  0
    2.0456  -49.9002  -28.4633 H   0  0  0  0  0  0  0  0  0  0  0  0
    2.7224  -50.1221  -26.8677 H   0  0  0  0  0  0  0  0  0  0  0  0
    2.1729  -47.8288  -24.7343 H   0  0  0  0  0  0  0  0  0  0  0  0
    0.5079  -47.5244  -22.4681 H   0  0  0  0  0  0  0  0  0  0  0  0
    1.3127  -44.1562  -20.0885 H   0  0  0  0  0  0  0  0  0  0  0  0
    3.1174  -43.5129  -21.5823 H   0  0  0  0  0  0  0  0  0  0  0  0
  1 31  1  0
  1  2  1  0
  1 53  1  1
  2  3  2  0
  2  4  1  0
  4  5  1  0
  5  6  1  0
  5 54  1  0
  5 55  1  0
  6  7  2  0
  7  8  1  0
  7 56  1  0
  8  9  2  0
  8 57  1  0
  9 10  1  0
  9 58  1  0
 10 11  2  0
 10 59  1  0
 11 12  1  0
 11  6  1  0
 12 13  1  0
 12  4  1  0
 12 60  1  1
 13 14  2  0
 13 15  1  0
 15 16  1  0
 16 17  1  0
 16 61  1  0
 16 62  1  0
 17 18  1  0
 17 63  1  0
 17 64  1  0
 18 19  1  0
 18 65  1  0
 18 66  1  0
 19 21  1  0
 19 20  1  0
 19 67  1  6
 20 15  1  0
 20 68  1  0
 20 69  1  0
 21 22  2  0
 22 23  1  0
 22 70  1  0
 23 24  2  0
 23 71  1  0
 24 25  1  0
 24 72  1  0
 25 26  2  0
 25 73  1  0
 26 21  1  0
 26 74  1  0
 27 28  1  0
 27 75  1  0
 27 76  1  0
 27 77  1  0
 28 29  1  0
 28 30  1  0
 28  1  1  0
 29 78  1  0
 29 79  1  0
 29 80  1  0
 30 81  1  0
 30 82  1  0
 30 83  1  0
 31 32  1  0
 31 34  1  0
 32 33  2  0
 32 35  1  0
 35 36  2  0
 36 37  1  0
 36 84  1  0
 37 38  2  0
 38 39  1  0
 38 85  1  0
 39 44  1  0
 39 40  2  0
 40 41  1  0
 40 86  1  0
 41 42  2  0
 41 87  1  0
 42 43  1  0
 42 37  1  0
 43 35  1  0
 44 45  1  0
 44 46  1  0
 44 47  1  0
 47 48  2  0
 47 49  1  0
 47 50  1  0
 49 51  1  0
 50 52  1  0
M  END
>  <minimizedAffinity>  (7) 
-8.31022

>  <mol_id>  (7) 
115838

>  <source_index>  (7) 
6

>  <layer>  (7) 
L4

>  <uniprot>  (7) 
P42226

>  <paff>  (7) 
7.3768000000000002

>  <smiles>  (7) 
CC(C)(C)[C@H](NC(=O)c1cc2cc(C(F)(F)P(=O)(O)O)ccc2s1)C(=O)N1Cc2ccccc2[C@H]1C(=O)N1CCC[C@H](c2ccccc2)C1

$$$$
L4:P42226:120290
     RDKit          3D

 81 85  0  0  0  0  0  0  0  0999 V2000
  -11.2619  -36.4529  -23.3560 C   0  0  2  0  0  0  0  0  0  0  0  0
  -11.7425  -37.4775  -24.4340 C   0  0  0  0  0  0  0  0  0  0  0  0
  -11.0132  -38.4428  -24.6973 O   0  0  0  0  0  0  0  0  0  0  0  0
  -13.0040  -37.4215  -24.9864 N   0  0  0  0  0  0  0  0  0  0  0  0
  -14.0870  -36.4911  -24.7093 C   0  0  0  0  0  0  0  0  0  0  0  0
  -15.3176  -37.0375  -25.4240 C   0  0  0  0  0  0  0  0  0  0  0  0
  -14.9308  -38.4542  -25.8313 C   0  0  0  0  0  0  0  0  0  0  0  0
  -13.4105  -38.3997  -26.0010 C   0  0  1  0  0  0  0  0  0  0  0  0
  -13.0379  -37.9037  -27.4257 C   0  0  0  0  0  0  0  0  0  0  0  0
  -12.4700  -36.8127  -27.5683 O   0  0  0  0  0  0  0  0  0  0  0  0
  -13.3184  -38.6884  -28.5328 N   0  0  0  0  0  0  0  0  0  0  0  0
  -12.9694  -38.1478  -29.8484 C   0  0  0  0  0  0  0  0  0  0  0  0
  -13.4301  -39.0439  -30.9986 C   0  0  0  0  0  0  0  0  0  0  0  0
  -12.9463  -40.3807  -30.8582 O   0  0  0  0  0  0  0  0  0  0  0  0
  -13.2810  -40.9838  -29.5965 C   0  0  2  0  0  0  0  0  0  0  0  0
  -13.9130  -40.0270  -28.5464 C   0  0  0  0  0  0  0  0  0  0  0  0
  -12.0839  -41.7412  -29.0571 C   0  0  0  0  0  0  0  0  0  0  0  0
  -10.8521  -41.6733  -29.7353 C   0  0  0  0  0  0  0  0  0  0  0  0
   -9.7501  -42.4034  -29.2841 C   0  0  0  0  0  0  0  0  0  0  0  0
   -9.8724  -43.2061  -28.1564 C   0  0  0  0  0  0  0  0  0  0  0  0
   -8.8148  -43.9123  -27.7349 F   0  0  0  0  0  0  0  0  0  0  0  0
  -11.0708  -43.2864  -27.4662 C   0  0  0  0  0  0  0  0  0  0  0  0
  -12.1645  -42.5556  -27.9199 C   0  0  0  0  0  0  0  0  0  0  0  0
  -13.3095  -42.6540  -27.2335 F   0  0  0  0  0  0  0  0  0  0  0  0
   -8.7460  -36.0825  -23.4865 C   0  0  0  0  0  0  0  0  0  0  0  0
  -10.1264  -35.4949  -23.8630 C   0  0  0  0  0  0  0  0  0  0  0  0
  -10.2298  -34.1124  -23.1827 C   0  0  0  0  0  0  0  0  0  0  0  0
  -10.1641  -35.2848  -25.3859 C   0  0  0  0  0  0  0  0  0  0  0  0
  -10.9431  -37.0364  -22.0562 N   0  0  0  0  0  0  0  0  0  0  0  0
  -11.5202  -36.5906  -20.8850 C   0  0  0  0  0  0  0  0  0  0  0  0
  -12.3259  -35.6645  -20.8751 O   0  0  0  0  0  0  0  0  0  0  0  0
  -10.2895  -37.8042  -21.9956 H   0  0  0  0  0  0  0  0  0  0  0  0
  -11.1106  -37.2889  -19.6737 C   0  0  0  0  0  0  0  0  0  0  0  0
   -9.8147  -37.5571  -19.2806 C   0  0  0  0  0  0  0  0  0  0  0  0
   -9.7283  -38.2635  -18.0364 C   0  0  0  0  0  0  0  0  0  0  0  0
   -8.5996  -38.7132  -17.3092 C   0  0  0  0  0  0  0  0  0  0  0  0
   -8.7501  -39.3985  -16.0910 C   0  0  0  0  0  0  0  0  0  0  0  0
  -10.0348  -39.6402  -15.6017 C   0  0  0  0  0  0  0  0  0  0  0  0
  -11.1665  -39.2054  -16.2979 C   0  0  0  0  0  0  0  0  0  0  0  0
  -10.9963  -38.5181  -17.5140 C   0  0  0  0  0  0  0  0  0  0  0  0
  -12.2323  -37.8945  -18.5359 S   0  0  0  0  0  0  0  0  0  0  0  0
   -7.5378  -39.8882  -15.3418 C   0  0  0  0  0  0  0  0  0  0  0  0
   -7.7562  -40.0570  -14.0058 F   0  0  0  0  0  0  0  0  0  0  0  0
   -7.0583  -41.0807  -15.8002 F   0  0  0  0  0  0  0  0  0  0  0  0
   -6.0441  -38.8746  -15.3406 P   0  0  0  0  0  0  0  0  0  0  0  0
   -6.1419  -37.3801  -15.2754 O   0  0  0  0  0  0  0  0  0  0  0  0
   -5.1458  -39.2994  -16.6133 O   0  0  0  0  0  0  0  0  0  0  0  0
   -5.0800  -39.4003  -14.1564 O   0  0  0  0  0  0  0  0  0  0  0  0
   -4.4502  -38.6444  -16.8088 H   0  0  0  0  0  0  0  0  0  0  0  0
   -4.3700  -38.7636  -13.9527 H   0  0  0  0  0  0  0  0  0  0  0  0
  -12.1271  -35.8459  -23.1890 H   0  0  0  0  0  0  0  0  0  0  0  0
  -13.8437  -35.5183  -25.0827 H   0  0  0  0  0  0  0  0  0  0  0  0
  -14.2588  -36.3982  -23.6573 H   0  0  0  0  0  0  0  0  0  0  0  0
  -15.5470  -36.4464  -26.2859 H   0  0  0  0  0  0  0  0  0  0  0  0
  -16.1886  -37.0183  -24.8028 H   0  0  0  0  0  0  0  0  0  0  0  0
  -15.4049  -38.7266  -26.7510 H   0  0  0  0  0  0  0  0  0  0  0  0
  -15.2348  -39.1835  -25.1097 H   0  0  0  0  0  0  0  0  0  0  0  0
  -12.9339  -39.3508  -25.8866 H   0  0  0  0  0  0  0  0  0  0  0  0
  -11.9061  -38.0410  -29.9030 H   0  0  0  0  0  0  0  0  0  0  0  0
  -13.4687  -37.2073  -29.9529 H   0  0  0  0  0  0  0  0  0  0  0  0
  -13.0661  -38.6391  -31.9198 H   0  0  0  0  0  0  0  0  0  0  0  0
  -14.4996  -39.0751  -30.9872 H   0  0  0  0  0  0  0  0  0  0  0  0
  -14.0748  -41.6733  -29.7947 H   0  0  0  0  0  0  0  0  0  0  0  0
  -13.7886  -40.4612  -27.5764 H   0  0  0  0  0  0  0  0  0  0  0  0
  -14.9424  -39.9080  -28.8130 H   0  0  0  0  0  0  0  0  0  0  0  0
  -10.7625  -41.0784  -30.5738 H   0  0  0  0  0  0  0  0  0  0  0  0
   -8.8499  -42.3470  -29.7856 H   0  0  0  0  0  0  0  0  0  0  0  0
  -11.1514  -43.8806  -26.6263 H   0  0  0  0  0  0  0  0  0  0  0  0
   -7.9734  -35.4283  -23.8328 H   0  0  0  0  0  0  0  0  0  0  0  0
   -8.6309  -37.0434  -23.9429 H   0  0  0  0  0  0  0  0  0  0  0  0
   -8.6788  -36.1823  -22.4233 H   0  0  0  0  0  0  0  0  0  0  0  0
   -9.4472  -33.4780  -23.5433 H   0  0  0  0  0  0  0  0  0  0  0  0
  -10.1353  -34.2283  -22.1232 H   0  0  0  0  0  0  0  0  0  0  0  0
  -11.1785  -33.6730  -23.4102 H   0  0  0  0  0  0  0  0  0  0  0  0
   -9.3717  -34.6264  -25.6748 H   0  0  0  0  0  0  0  0  0  0  0  0
  -11.1039  -34.8551  -25.6635 H   0  0  0  0  0  0  0  0  0  0  0  0
  -10.0430  -36.2267  -25.8790 H   0  0  0  0  0  0  0  0  0  0  0  0
   -8.9875  -37.2760  -19.8299 H   0  0  0  0  0  0  0  0  0  0  0  0
   -7.6527  -38.5353  -17.6789 H   0  0  0  0  0  0  0  0  0  0  0  0
  -10.1512  -40.1484  -14.7111 H   0  0  0  0  0  0  0  0  0  0  0  0
  -12.1120  -39.3857  -15.9258 H   0  0  0  0  0  0  0  0  0  0  0  0
  1 29  1  0
  1  2  1  0
  1 51  1  1
  2  3  2  0
  2  4  1  0
  4  5  1  0
  5  6  1  0
  5 52  1  0
  5 53  1  0
  6  7  1  0
  6 54  1  0
  6 55  1  0
  7  8  1  0
  7 56  1  0
  7 57  1  0
  8  9  1  0
  8  4  1  0
  8 58  1  1
  9 10  2  0
  9 11  1  0
 11 12  1  0
 12 13  1  0
 12 59  1  0
 12 60  1  0
 13 14  1  0
 13 61  1  0
 13 62  1  0
 14 15  1  0
 15 17  1  0
 15 16  1  0
 15 63  1  6
 16 11  1  0
 16 64  1  0
 16 65  1  0
 17 18  2  0
 18 19  1  0
 18 66  1  0
 19 20  2  0
 19 67  1  0
 20 21  1  0
 20 22  1  0
 22 23  2  0
 22 68  1  0
 23 24  1  0
 23 17  1  0
 25 26  1  0
 25 69  1  0
 25 70  1  0
 25 71  1  0
 26 27  1  0
 26 28  1  0
 26  1  1  0
 27 72  1  0
 27 73  1  0
 27 74  1  0
 28 75  1  0
 28 76  1  0
 28 77  1  0
 29 30  1  0
 29 32  1  0
 30 31  2  0
 30 33  1  0
 33 34  2  0
 34 35  1  0
 34 78  1  0
 35 36  2  0
 36 37  1  0
 36 79  1  0
 37 42  1  0
 37 38  2  0
 38 39  1  0
 38 80  1  0
 39 40  2  0
 39 81  1  0
 40 41  1  0
 40 35  1  0
 41 33  1  0
 42 43  1  0
 42 44  1  0
 42 45  1  0
 45 46  2  0
 45 47  1  0
 45 48  1  0
 47 49  1  0
 48 50  1  0
M  END
>  <minimizedAffinity>  (8) 
-8.08148

>  <mol_id>  (8) 
120290

>  <source_index>  (8) 
7

>  <layer>  (8) 
L4

>  <uniprot>  (8) 
P42226

>  <paff>  (8) 
6.3768000000000002

>  <smiles>  (8) 
CC(C)(C)[C@H](NC(=O)c1cc2cc(C(F)(F)P(=O)(O)O)ccc2s1)C(=O)N1CCC[C@H]1C(=O)N1CCOC(c2ccc(F)cc2F)C1

$$$$
L4:P42226:125214
     RDKit          3D

 82 86  0  0  0  0  0  0  0  0999 V2000
    4.1420  -47.9358  -28.3720 C   0  0  2  0  0  0  0  0  0  0  0  0
    3.1701  -47.2343  -29.3531 C   0  0  0  0  0  0  0  0  0  0  0  0
    1.9464  -47.3538  -29.2224 O   0  0  0  0  0  0  0  0  0  0  0  0
    3.6979  -46.4447  -30.3477 N   0  0  0  0  0  0  0  0  0  0  0  0
    5.0953  -46.0754  -30.5456 C   0  0  0  0  0  0  0  0  0  0  0  0
    5.1056  -45.2657  -31.8431 C   0  0  1  0  0  0  0  0  0  0  0  0
    5.3492  -46.0953  -32.9771 O   0  0  0  0  0  0  0  0  0  0  0  0
    3.6990  -44.6701  -31.9101 C   0  0  0  0  0  0  0  0  0  0  0  0
    2.8210  -45.7653  -31.3018 C   0  0  1  0  0  0  0  0  0  0  0  0
    4.7802  -46.8936  -32.9160 H   0  0  0  0  0  0  0  0  0  0  0  0
    2.3593  -46.7491  -32.4025 C   0  0  0  0  0  0  0  0  0  0  0  0
    3.0568  -47.7341  -32.6763 O   0  0  0  0  0  0  0  0  0  0  0  0
    1.2173  -46.4480  -33.1252 N   0  0  0  0  0  0  0  0  0  0  0  0
    0.3465  -45.2867  -32.9216 C   0  0  0  0  0  0  0  0  0  0  0  0
   -0.1265  -44.7078  -34.2602 C   0  0  0  0  0  0  0  0  0  0  0  0
   -0.7339  -45.7116  -35.0812 O   0  0  0  0  0  0  0  0  0  0  0  0
    0.2072  -46.7644  -35.3824 C   0  0  1  0  0  0  0  0  0  0  0  0
    0.6917  -47.4345  -34.0801 C   0  0  0  0  0  0  0  0  0  0  0  0
   -0.4349  -47.7779  -36.3086 C   0  0  0  0  0  0  0  0  0  0  0  0
   -0.8116  -49.0362  -35.8120 C   0  0  0  0  0  0  0  0  0  0  0  0
   -1.4311  -49.9728  -36.6418 C   0  0  0  0  0  0  0  0  0  0  0  0
   -1.6857  -49.6628  -37.9760 C   0  0  0  0  0  0  0  0  0  0  0  0
   -1.3225  -48.4166  -38.4816 C   0  0  0  0  0  0  0  0  0  0  0  0
   -0.7036  -47.4788  -37.6530 C   0  0  0  0  0  0  0  0  0  0  0  0
    3.0802  -50.2693  -27.9865 C   0  0  0  0  0  0  0  0  0  0  0  0
    4.2543  -49.4770  -28.5926 C   0  0  0  0  0  0  0  0  0  0  0  0
    5.5623  -49.9863  -27.9474 C   0  0  0  0  0  0  0  0  0  0  0  0
    4.3216  -49.7906  -30.1003 C   0  0  0  0  0  0  0  0  0  0  0  0
    3.6411  -47.5933  -27.0389 N   0  0  0  0  0  0  0  0  0  0  0  0
    4.1613  -46.5372  -26.3174 C   0  0  0  0  0  0  0  0  0  0  0  0
    5.1189  -45.8956  -26.7463 O   0  0  0  0  0  0  0  0  0  0  0  0
    2.7342  -47.9589  -26.7882 H   0  0  0  0  0  0  0  0  0  0  0  0
    3.4799  -46.2513  -25.0603 C   0  0  0  0  0  0  0  0  0  0  0  0
    2.4875  -46.9505  -24.3989 C   0  0  0  0  0  0  0  0  0  0  0  0
    2.0722  -46.3318  -23.1708 C   0  0  0  0  0  0  0  0  0  0  0  0
    1.0956  -46.7289  -22.2245 C   0  0  0  0  0  0  0  0  0  0  0  0
    0.8528  -45.9626  -21.0701 C   0  0  0  0  0  0  0  0  0  0  0  0
    1.5932  -44.7988  -20.8590 C   0  0  0  0  0  0  0  0  0  0  0  0
    2.5618  -44.3841  -21.7773 C   0  0  0  0  0  0  0  0  0  0  0  0
    2.7885  -45.1610  -22.9284 C   0  0  0  0  0  0  0  0  0  0  0  0
    3.9212  -44.8495  -24.1820 S   0  0  0  0  0  0  0  0  0  0  0  0
   -0.2115  -46.3790  -20.0858 C   0  0  0  0  0  0  0  0  0  0  0  0
   -0.3317  -47.7271  -19.9466 F   0  0  0  0  0  0  0  0  0  0  0  0
   -1.4504  -45.9048  -20.3962 F   0  0  0  0  0  0  0  0  0  0  0  0
   -0.0361  -45.8279  -18.3677 P   0  0  0  0  0  0  0  0  0  0  0  0
    1.2854  -45.9856  -17.6797 O   0  0  0  0  0  0  0  0  0  0  0  0
   -0.5151  -44.2870  -18.2875 O   0  0  0  0  0  0  0  0  0  0  0  0
   -1.2425  -46.4779  -17.5093 O   0  0  0  0  0  0  0  0  0  0  0  0
   -0.2711  -43.9146  -17.4165 H   0  0  0  0  0  0  0  0  0  0  0  0
   -2.0919  -46.5725  -17.9808 H   0  0  0  0  0  0  0  0  0  0  0  0
    5.1464  -47.5994  -28.5236 H   0  0  0  0  0  0  0  0  0  0  0  0
    5.7060  -46.9488  -30.6415 H   0  0  0  0  0  0  0  0  0  0  0  0
    5.4870  -45.5194  -29.7195 H   0  0  0  0  0  0  0  0  0  0  0  0
    5.8795  -44.5269  -31.8526 H   0  0  0  0  0  0  0  0  0  0  0  0
    3.4156  -44.4703  -32.9224 H   0  0  0  0  0  0  0  0  0  0  0  0
    3.6164  -43.7350  -31.3965 H   0  0  0  0  0  0  0  0  0  0  0  0
    1.9374  -45.3769  -30.8400 H   0  0  0  0  0  0  0  0  0  0  0  0
    0.8876  -44.5339  -32.3874 H   0  0  0  0  0  0  0  0  0  0  0  0
   -0.5121  -45.6001  -32.3653 H   0  0  0  0  0  0  0  0  0  0  0  0
    0.7150  -44.2974  -34.7782 H   0  0  0  0  0  0  0  0  0  0  0  0
   -0.8564  -43.9516  -34.0596 H   0  0  0  0  0  0  0  0  0  0  0  0
    1.0590  -46.3461  -35.8766 H   0  0  0  0  0  0  0  0  0  0  0  0
    1.4656  -48.1344  -34.3171 H   0  0  0  0  0  0  0  0  0  0  0  0
   -0.1435  -47.9262  -33.6267 H   0  0  0  0  0  0  0  0  0  0  0  0
   -0.6287  -49.2711  -34.8239 H   0  0  0  0  0  0  0  0  0  0  0  0
   -1.7006  -50.8956  -36.2665 H   0  0  0  0  0  0  0  0  0  0  0  0
   -2.1429  -50.3557  -38.5891 H   0  0  0  0  0  0  0  0  0  0  0  0
   -1.5111  -48.1864  -39.4697 H   0  0  0  0  0  0  0  0  0  0  0  0
   -0.4410  -46.5560  -38.0332 H   0  0  0  0  0  0  0  0  0  0  0  0
    3.2204  -51.3135  -28.1734 H   0  0  0  0  0  0  0  0  0  0  0  0
    2.1634  -49.9467  -28.4342 H   0  0  0  0  0  0  0  0  0  0  0  0
    3.0414  -50.0979  -26.9310 H   0  0  0  0  0  0  0  0  0  0  0  0
    5.6451  -51.0428  -28.0953 H   0  0  0  0  0  0  0  0  0  0  0  0
    5.5495  -49.7729  -26.8990 H   0  0  0  0  0  0  0  0  0  0  0  0
    6.3982  -49.4960  -28.4010 H   0  0  0  0  0  0  0  0  0  0  0  0
    4.3984  -50.8485  -30.2415 H   0  0  0  0  0  0  0  0  0  0  0  0
    5.1778  -49.3108  -30.5265 H   0  0  0  0  0  0  0  0  0  0  0  0
    3.4354  -49.4302  -30.5795 H   0  0  0  0  0  0  0  0  0  0  0  0
    2.0840  -47.8318  -24.7532 H   0  0  0  0  0  0  0  0  0  0  0  0
    0.5544  -47.5929  -22.3844 H   0  0  0  0  0  0  0  0  0  0  0  0
    1.4229  -44.2353  -20.0113 H   0  0  0  0  0  0  0  0  0  0  0  0
    3.1028  -43.5207  -21.6135 H   0  0  0  0  0  0  0  0  0  0  0  0
  1 29  1  0
  1  2  1  0
  1 51  1  1
  2  3  2  0
  2  4  1  0
  4  5  1  0
  5  6  1  0
  5 52  1  0
  5 53  1  0
  6  7  1  0
  6  8  1  0
  6 54  1  1
  7 10  1  0
  8  9  1  0
  8 55  1  0
  8 56  1  0
  9 11  1  0
  9  4  1  0
  9 57  1  1
 11 12  2  0
 11 13  1  0
 13 14  1  0
 14 15  1  0
 14 58  1  0
 14 59  1  0
 15 16  1  0
 15 60  1  0
 15 61  1  0
 16 17  1  0
 17 19  1  0
 17 18  1  0
 17 62  1  6
 18 13  1  0
 18 63  1  0
 18 64  1  0
 19 20  2  0
 20 21  1  0
 20 65  1  0
 21 22  2  0
 21 66  1  0
 22 23  1  0
 22 67  1  0
 23 24  2  0
 23 68  1  0
 24 19  1  0
 24 69  1  0
 25 26  1  0
 25 70  1  0
 25 71  1  0
 25 72  1  0
 26 27  1  0
 26 28  1  0
 26  1  1  0
 27 73  1  0
 27 74  1  0
 27 75  1  0
 28 76  1  0
 28 77  1  0
 28 78  1  0
 29 30  1  0
 29 32  1  0
 30 31  2  0
 30 33  1  0
 33 34  2  0
 34 35  1  0
 34 79  1  0
 35 36  2  0
 36 37  1  0
 36 80  1  0
 37 42  1  0
 37 38  2  0
 38 39  1  0
 38 81  1  0
 39 40  2  0
 39 82  1  0
 40 41  1  0
 40 35  1  0
 41 33  1  0
 42 43  1  0
 42 44  1  0
 42 45  1  0
 45 46  2  0
 45 47  1  0
 45 48  1  0
 47 49  1  0
 48 50  1  0
M  END
>  <minimizedAffinity>  (9) 
-7.86575

>  <mol_id>  (9) 
125214

>  <source_index>  (9) 
8

>  <layer>  (9) 
L4

>  <uniprot>  (9) 
P42226

>  <paff>  (9) 
8

>  <smiles>  (9) 
CC(C)(C)[C@H](NC(=O)c1cc2cc(C(F)(F)P(=O)(O)O)ccc2s1)C(=O)N1C[C@@H](O)C[C@H]1C(=O)N1CCO[C@H](c2ccccc2)C1

$$$$
L4:P42226:143645
     RDKit          3D

 84 88  0  0  0  0  0  0  0  0999 V2000
    1.5700  -45.9108  -20.2938 C   0  0  2  0  0  0  0  0  0  0  0  0
    2.4534  -46.3243  -19.0595 C   0  0  0  0  0  0  0  0  0  0  0  0
    2.2348  -45.7064  -18.0044 O   0  0  0  0  0  0  0  0  0  0  0  0
    3.3435  -47.3977  -19.0523 N   0  0  0  0  0  0  0  0  0  0  0  0
    3.9876  -47.7198  -17.7675 C   0  0  0  0  0  0  0  0  0  0  0  0
    5.5082  -47.7030  -17.8806 C   0  0  0  0  0  0  0  0  0  0  0  0
    5.9853  -48.6242  -18.9952 C   0  0  0  0  0  0  0  0  0  0  0  0
    5.2972  -48.2691  -20.3098 C   0  0  0  0  0  0  0  0  0  0  0  0
    3.7648  -48.2587  -20.1840 C   0  0  1  0  0  0  0  0  0  0  0  0
    3.2027  -49.7126  -20.1624 C   0  0  0  0  0  0  0  0  0  0  0  0
    3.0574  -50.3253  -19.1021 O   0  0  0  0  0  0  0  0  0  0  0  0
    2.8955  -50.3242  -21.3835 N   0  0  0  0  0  0  0  0  0  0  0  0
    2.2057  -51.6173  -21.3312 C   0  0  0  0  0  0  0  0  0  0  0  0
    2.4319  -52.4616  -22.5820 C   0  0  0  0  0  0  0  0  0  0  0  0
    2.0773  -51.7355  -23.7629 O   0  0  0  0  0  0  0  0  0  0  0  0
    2.8728  -50.5531  -23.9313 C   0  0  1  0  0  0  0  0  0  0  0  0
    2.8359  -49.6363  -22.6820 C   0  0  0  0  0  0  0  0  0  0  0  0
    4.2406  -50.8888  -24.5009 C   0  0  0  0  0  0  0  0  0  0  0  0
    5.3843  -50.5025  -23.7797 C   0  0  0  0  0  0  0  0  0  0  0  0
    6.6643  -50.8100  -24.2426 C   0  0  0  0  0  0  0  0  0  0  0  0
    6.8223  -51.4945  -25.4439 C   0  0  0  0  0  0  0  0  0  0  0  0
    5.7018  -51.8612  -26.1854 C   0  0  0  0  0  0  0  0  0  0  0  0
    4.4201  -51.5560  -25.7203 C   0  0  0  0  0  0  0  0  0  0  0  0
   -0.7517  -45.4253  -19.3009 C   0  0  0  0  0  0  0  0  0  0  0  0
    0.0813  -46.4031  -20.1582 C   0  0  0  0  0  0  0  0  0  0  0  0
   -0.5852  -46.4551  -21.5537 C   0  0  0  0  0  0  0  0  0  0  0  0
   -0.0139  -47.7994  -19.5201 C   0  0  0  0  0  0  0  0  0  0  0  0
    2.1066  -46.1999  -21.6206 N   0  0  0  0  0  0  0  0  0  0  0  0
    3.0324  -45.3772  -22.2340 C   0  0  0  0  0  0  0  0  0  0  0  0
    3.4165  -44.3359  -21.7137 O   0  0  0  0  0  0  0  0  0  0  0  0
    1.8138  -47.0467  -22.0803 H   0  0  0  0  0  0  0  0  0  0  0  0
    3.5644  -45.9291  -23.4709 C   0  0  0  0  0  0  0  0  0  0  0  0
    2.9045  -46.3773  -24.5987 C   0  0  0  0  0  0  0  0  0  0  0  0
    3.7733  -47.0237  -25.5413 C   0  0  0  0  0  0  0  0  0  0  0  0
    3.4828  -47.6720  -26.7660 C   0  0  0  0  0  0  0  0  0  0  0  0
    4.5004  -48.2889  -27.5155 C   0  0  0  0  0  0  0  0  0  0  0  0
    5.8164  -48.2282  -27.0562 C   0  0  0  0  0  0  0  0  0  0  0  0
    6.1334  -47.5775  -25.8614 C   0  0  0  0  0  0  0  0  0  0  0  0
    5.0999  -46.9872  -25.1120 C   0  0  0  0  0  0  0  0  0  0  0  0
    5.2511  -46.1563  -23.6148 S   0  0  0  0  0  0  0  0  0  0  0  0
    4.1701  -48.9971  -28.8037 C   0  0  0  0  0  0  0  0  0  0  0  0
    4.5788  -50.2998  -28.8173 F   0  0  0  0  0  0  0  0  0  0  0  0
    4.7279  -48.4175  -29.9055 F   0  0  0  0  0  0  0  0  0  0  0  0
    2.4432  -49.1499  -29.3025 P   0  0  0  0  0  0  0  0  0  0  0  0
    1.6058  -47.9249  -29.5126 O   0  0  0  0  0  0  0  0  0  0  0  0
    2.3865  -50.0731  -30.6267 O   0  0  0  0  0  0  0  0  0  0  0  0
    1.7048  -50.1394  -28.2633 O   0  0  0  0  0  0  0  0  0  0  0  0
    1.5219  -50.0162  -31.0752 H   0  0  0  0  0  0  0  0  0  0  0  0
    0.7329  -50.0890  -28.3304 H   0  0  0  0  0  0  0  0  0  0  0  0
    1.5933  -44.8423  -20.2414 H   0  0  0  0  0  0  0  0  0  0  0  0
    3.6735  -48.6943  -17.4565 H   0  0  0  0  0  0  0  0  0  0  0  0
    3.6975  -46.9780  -17.0531 H   0  0  0  0  0  0  0  0  0  0  0  0
    5.9312  -48.0284  -16.9532 H   0  0  0  0  0  0  0  0  0  0  0  0
    5.8211  -46.7052  -18.1071 H   0  0  0  0  0  0  0  0  0  0  0  0
    5.7543  -49.6370  -18.7387 H   0  0  0  0  0  0  0  0  0  0  0  0
    7.0422  -48.5069  -19.1139 H   0  0  0  0  0  0  0  0  0  0  0  0
    5.5765  -48.9898  -21.0497 H   0  0  0  0  0  0  0  0  0  0  0  0
    5.6090  -47.2835  -20.5859 H   0  0  0  0  0  0  0  0  0  0  0  0
    3.3257  -47.8111  -21.0510 H   0  0  0  0  0  0  0  0  0  0  0  0
    1.1559  -51.4402  -21.2240 H   0  0  0  0  0  0  0  0  0  0  0  0
    2.6046  -52.1608  -20.5003 H   0  0  0  0  0  0  0  0  0  0  0  0
    1.8312  -53.3450  -22.5210 H   0  0  0  0  0  0  0  0  0  0  0  0
    3.4696  -52.7165  -22.6377 H   0  0  0  0  0  0  0  0  0  0  0  0
    2.4315  -49.9319  -24.6825 H   0  0  0  0  0  0  0  0  0  0  0  0
    1.9265  -49.0733  -22.7142 H   0  0  0  0  0  0  0  0  0  0  0  0
    3.7202  -49.0362  -22.7347 H   0  0  0  0  0  0  0  0  0  0  0  0
    5.2753  -49.9835  -22.8944 H   0  0  0  0  0  0  0  0  0  0  0  0
    7.4928  -50.5301  -23.6947 H   0  0  0  0  0  0  0  0  0  0  0  0
    7.7676  -51.7299  -25.7846 H   0  0  0  0  0  0  0  0  0  0  0  0
    5.8186  -52.3600  -27.0813 H   0  0  0  0  0  0  0  0  0  0  0  0
    3.5964  -51.8249  -26.2809 H   0  0  0  0  0  0  0  0  0  0  0  0
   -1.7569  -45.7842  -19.2258 H   0  0  0  0  0  0  0  0  0  0  0  0
   -0.7514  -44.4589  -19.7603 H   0  0  0  0  0  0  0  0  0  0  0  0
   -0.3240  -45.3553  -18.3226 H   0  0  0  0  0  0  0  0  0  0  0  0
   -1.5964  -46.7904  -21.4537 H   0  0  0  0  0  0  0  0  0  0  0  0
   -0.0453  -47.1325  -22.1818 H   0  0  0  0  0  0  0  0  0  0  0  0
   -0.5748  -45.4784  -21.9905 H   0  0  0  0  0  0  0  0  0  0  0  0
   -1.0413  -48.0899  -19.4492 H   0  0  0  0  0  0  0  0  0  0  0  0
    0.4180  -47.7745  -18.5415 H   0  0  0  0  0  0  0  0  0  0  0  0
    0.5153  -48.5051  -20.1257 H   0  0  0  0  0  0  0  0  0  0  0  0
    1.8902  -46.2595  -24.7484 H   0  0  0  0  0  0  0  0  0  0  0  0
    2.5112  -47.6921  -27.1134 H   0  0  0  0  0  0  0  0  0  0  0  0
    6.5677  -48.6711  -27.6080 H   0  0  0  0  0  0  0  0  0  0  0  0
    7.1109  -47.5306  -25.5337 H   0  0  0  0  0  0  0  0  0  0  0  0
  1 28  1  0
  1  2  1  0
  1 50  1  6
  2  3  2  0
  2  4  1  0
  4  5  1  0
  5  6  1  0
  5 51  1  0
  5 52  1  0
  6  7  1  0
  6 53  1  0
  6 54  1  0
  7  8  1  0
  7 55  1  0
  7 56  1  0
  8  9  1  0
  8 57  1  0
  8 58  1  0
  9 10  1  0
  9  4  1  0
  9 59  1  6
 10 11  2  0
 10 12  1  0
 12 13  1  0
 13 14  1  0
 13 60  1  0
 13 61  1  0
 14 15  1  0
 14 62  1  0
 14 63  1  0
 15 16  1  0
 16 18  1  0
 16 17  1  0
 16 64  1  6
 17 12  1  0
 17 65  1  0
 17 66  1  0
 18 19  2  0
 19 20  1  0
 19 67  1  0
 20 21  2  0
 20 68  1  0
 21 22  1  0
 21 69  1  0
 22 23  2  0
 22 70  1  0
 23 18  1  0
 23 71  1  0
 24 25  1  0
 24 72  1  0
 24 73  1  0
 24 74  1  0
 25 26  1  0
 25 27  1  0
 25  1  1  0
 26 75  1  0
 26 76  1  0
 26 77  1  0
 27 78  1  0
 27 79  1  0
 27 80  1  0
 28 29  1  0
 28 31  1  0
 29 30  2  0
 29 32  1  0
 32 33  2  0
 33 34  1  0
 33 81  1  0
 34 35  2  0
 35 36  1  0
 35 82  1  0
 36 41  1  0
 36 37  2  0
 37 38  1  0
 37 83  1  0
 38 39  2  0
 38 84  1  0
 39 40  1  0
 39 34  1  0
 40 32  1  0
 41 42  1  0
 41 43  1  0
 41 44  1  0
 44 45  2  0
 44 46  1  0
 44 47  1  0
 46 48  1  0
 47 49  1  0
M  END
>  <minimizedAffinity>  (10) 
-6.22687

>  <mol_id>  (10) 
143645

>  <source_index>  (10) 
9

>  <layer>  (10) 
L4

>  <uniprot>  (10) 
P42226

>  <paff>  (10) 
6.9585999999999997

>  <smiles>  (10) 
CC(C)(C)[C@H](NC(=O)c1cc2cc(C(F)(F)P(=O)(O)O)ccc2s1)C(=O)N1CCCC[C@H]1C(=O)N1CCO[C@H](c2ccccc2)C1

$$$$
