L1:Q06124:118200


 37 40  0  0  0  0  0  0  0  0999 V2000
   25.1882   22.2358    3.9699 O   0  0  0  0  0  0  0  0  0  0  0  0
   25.7819   21.3090    3.4614 C   0  0  0  0  0  0  0  0  0  0  0  0
   27.0731   20.8781    3.6834 N   0  0  0  0  0  0  0  0  0  0  0  0
   27.3689   19.7746    2.8881 C   0  0  0  0  0  0  0  0  0  0  0  0
   28.5566   19.0757    2.8368 C   0  0  0  0  0  0  0  0  0  0  0  0
   28.6262   17.9919    1.9522 C   0  0  0  0  0  0  0  0  0  0  0  0
   27.5153   17.6438    1.1473 C   0  0  0  0  0  0  0  0  0  0  0  0
   26.3112   18.3513    1.2170 C   0  0  0  0  0  0  0  0  0  0  0  0
   26.2786   19.4150    2.0946 C   0  0  0  0  0  0  0  0  0  0  0  0
   25.2112   20.3598    2.4004 C   0  0  0  0  0  0  0  0  0  0  0  0
   24.0373   20.3637    1.8551 N   0  0  0  0  0  0  0  0  0  0  0  0
   27.6955   21.3220    4.3427 H   0  0  0  0  0  0  0  0  0  0  0  0
   27.6478   16.2475    0.0553 S   0  0  0  0  0  0  0  0  0  0  0  0
   26.6583   16.4163   -0.9845 O   0  0  0  0  0  0  0  0  0  0  0  0
   29.0427   16.0192   -0.2426 O   0  0  0  0  0  0  0  0  0  0  0  0
   27.1036   15.0067    1.0336 N   0  0  0  0  0  0  0  0  0  0  0  0
   26.2656   15.2473    1.5611 H   0  0  0  0  0  0  0  0  0  0  0  0
   27.2162   13.6401    0.5339 C   0  0  0  0  0  0  0  0  0  0  0  0
   25.8466   13.0329    0.3465 C   0  0  0  0  0  0  0  0  0  0  0  0
   25.0961   13.2997   -0.8096 C   0  0  0  0  0  0  0  0  0  0  0  0
   23.8222   12.7503   -0.9646 C   0  0  0  0  0  0  0  0  0  0  0  0
   23.2966   11.9416    0.0359 C   0  0  0  0  0  0  0  0  0  0  0  0
   22.0734   11.4172   -0.1144 F   0  0  0  0  0  0  0  0  0  0  0  0
   24.0192   11.6723    1.1917 C   0  0  0  0  0  0  0  0  0  0  0  0
   25.2928   12.2201    1.3500 C   0  0  0  0  0  0  0  0  0  0  0  0
   23.1885   21.3322    2.2742 N   0  0  0  0  0  0  0  0  0  0  0  0
   23.3653   22.3257    2.0939 H   0  0  0  0  0  0  0  0  0  0  0  0
   22.0296   21.0016    2.9929 C   0  0  0  0  0  0  0  0  0  0  0  0
   20.7454   21.3239    2.5341 C   0  0  0  0  0  0  0  0  0  0  0  0
   19.6072   20.9857    3.2707 C   0  0  0  0  0  0  0  0  0  0  0  0
   19.7379   20.3167    4.4860 C   0  0  0  0  0  0  0  0  0  0  0  0
   21.0106   19.9867    4.9633 C   0  0  0  0  0  0  0  0  0  0  0  0
   22.1473   20.3299    4.2168 C   0  0  0  0  0  0  0  0  0  0  0  0
   21.2068   19.2766    6.2494 C   0  0  0  0  0  0  0  0  0  0  0  0
   20.4282   19.2641    7.1850 O   0  0  0  0  0  0  0  0  0  0  0  0
   22.3740   18.6106    6.3077 O   0  0  0  0  0  0  0  0  0  0  0  0
   22.3630   18.2010    7.1979 H   0  0  0  0  0  0  0  0  0  0  0  0
  1  2  2  0  0  0
  2  3  1  0  0  0
  3  4  1  0  0  0
  4  5  2  0  0  0
  5  6  1  0  0  0
  6  7  2  0  0  0
  7 13  1  0  0  0
 13 14  2  0  0  0
 13 15  2  0  0  0
 13 16  1  0  0  0
 16 18  1  0  0  0
 18 19  1  0  0  0
 19 20  2  0  0  0
 20 21  1  0  0  0
 21 22  2  0  0  0
 22 23  1  0  0  0
 22 24  1  0  0  0
 24 25  2  0  0  0
  7  8  1  0  0  0
  8  9  2  0  0  0
  9 10  1  0  0  0
 10 11  2  0  0  0
 11 26  1  0  0  0
 26 28  1  0  0  0
 28 29  2  0  0  0
 29 30  1  0  0  0
 30 31  2  0  0  0
 31 32  1  0  0  0
 32 34  1  0  0  0
 34 35  2  0  0  0
 34 36  1  0  0  0
 32 33  2  0  0  0
 10  2  1  0  0  0
 33 28  1  0  0  0
  9  4  1  0  0  0
 25 19  1  0  0  0
  3 12  1  0  0  0
 16 17  1  0  0  0
 26 27  1  0  0  0
 36 37  1  0  0  0
M  END
> <minimizedAffinity>
-9.75103

$$$$
