L1:Q06124:125082
     RDKit          3D

 56 60  0  0  0  0  0  0  0  0999 V2000
   -3.5388    0.3223   -3.6483 N   0  0  0  0  0  0  0  0  0  0  0  0
   -4.5155    0.9582   -2.7698 C   0  0  0  0  0  0  0  0  0  0  0  0
   -3.9527    1.2509   -1.3592 C   0  0  1  0  0  0  0  0  0  0  0  0
   -4.9321    2.1861   -0.6216 C   0  0  0  0  0  0  0  0  0  0  0  0
   -5.8868    1.2791    0.1521 C   0  0  0  0  0  0  0  0  0  0  0  0
   -5.3058   -0.1311    0.0740 C   0  0  0  0  0  0  0  0  0  0  0  0
   -3.8400    0.0392   -0.3782 C   0  0  0  0  0  0  0  0  0  0  0  0
   -2.9586    0.3718    0.8589 C   0  0  0  0  0  0  0  0  0  0  0  0
   -1.4646    0.4206    0.5370 C   0  0  0  0  0  0  0  0  0  0  0  0
   -1.0362   -0.8187   -0.1199 N   0  0  0  0  0  0  0  0  0  0  0  0
    0.2567   -1.1987    0.0664 C   0  0  0  0  0  0  0  0  0  0  0  0
    1.1753   -0.5800    0.7847 N   0  0  0  0  0  0  0  0  0  0  0  0
    2.3005   -1.3426    0.6761 C   0  0  0  0  0  0  0  0  0  0  0  0
    3.5073   -1.0953    1.2405 N   0  0  0  0  0  0  0  0  0  0  0  0
    4.4302   -2.0433    0.9506 C   0  0  0  0  0  0  0  0  0  0  0  0
    6.0753   -1.8536    1.6336 S   0  0  0  0  0  0  0  0  0  0  0  0
    6.1320   -0.0987    1.9686 C   0  0  0  0  0  0  0  0  0  0  0  0
    5.7759    0.3311    3.2542 C   0  0  0  0  0  0  0  0  0  0  0  0
    5.8132    1.6830    3.5799 C   0  0  0  0  0  0  0  0  0  0  0  0
    6.2200    2.5762    2.6097 C   0  0  0  0  0  0  0  0  0  0  0  0
    6.5864    2.2077    1.3649 N   0  0  0  0  0  0  0  0  0  0  0  0
    6.5350    0.8735    1.0414 C   0  0  0  0  0  0  0  0  0  0  0  0
    6.9561    0.4768   -0.3642 C   0  0  0  0  0  0  0  0  0  0  0  0
    5.9910   -0.2045   -1.0517 F   0  0  0  0  0  0  0  0  0  0  0  0
    8.0567   -0.3347   -0.3798 F   0  0  0  0  0  0  0  0  0  0  0  0
    7.2843    1.5333   -1.1667 F   0  0  0  0  0  0  0  0  0  0  0  0
    4.1533   -3.1659    0.1575 C   0  0  0  0  0  0  0  0  0  0  0  0
    2.9471   -3.4386   -0.4166 N   0  0  0  0  0  0  0  0  0  0  0  0
    2.0685   -2.4641   -0.1071 C   0  0  0  0  0  0  0  0  0  0  0  0
    0.7644   -2.3563   -0.4795 N   0  0  0  0  0  0  0  0  0  0  0  0
   -1.8104   -1.2171   -1.2965 C   0  0  0  0  0  0  0  0  0  0  0  0
   -3.3020   -1.2772   -0.9647 C   0  0  0  0  0  0  0  0  0  0  0  0
   -2.7555    0.9603   -3.7949 H   0  0  0  0  0  0  0  0  0  0  0  0
   -3.9586    0.1877   -4.5687 H   0  0  0  0  0  0  0  0  0  0  0  0
   -5.4081    0.3269   -2.7139 H   0  0  0  0  0  0  0  0  0  0  0  0
   -4.8211    1.8972   -3.2462 H   0  0  0  0  0  0  0  0  0  0  0  0
   -2.9913    1.7643   -1.4759 H   0  0  0  0  0  0  0  0  0  0  0  0
   -4.3826    2.8244    0.0807 H   0  0  0  0  0  0  0  0  0  0  0  0
   -5.4741    2.8623   -1.2911 H   0  0  0  0  0  0  0  0  0  0  0  0
   -6.8936    1.3026   -0.2784 H   0  0  0  0  0  0  0  0  0  0  0  0
   -5.9688    1.6141    1.1920 H   0  0  0  0  0  0  0  0  0  0  0  0
   -5.8738   -0.7145   -0.6614 H   0  0  0  0  0  0  0  0  0  0  0  0
   -5.3995   -0.6551    1.0315 H   0  0  0  0  0  0  0  0  0  0  0  0
   -3.1159   -0.4016    1.6241 H   0  0  0  0  0  0  0  0  0  0  0  0
   -3.2514    1.3178    1.3267 H   0  0  0  0  0  0  0  0  0  0  0  0
   -1.2317    1.2777   -0.1056 H   0  0  0  0  0  0  0  0  0  0  0  0
   -0.9317    0.5759    1.4838 H   0  0  0  0  0  0  0  0  0  0  0  0
    5.4494   -0.3840    4.0063 H   0  0  0  0  0  0  0  0  0  0  0  0
    5.5249    2.0279    4.5667 H   0  0  0  0  0  0  0  0  0  0  0  0
    6.2642    3.6430    2.8114 H   0  0  0  0  0  0  0  0  0  0  0  0
    4.9229   -3.9053   -0.0481 H   0  0  0  0  0  0  0  0  0  0  0  0
    0.2639   -3.0297   -1.0324 H   0  0  0  0  0  0  0  0  0  0  0  0
   -1.6064   -0.5091   -2.1050 H   0  0  0  0  0  0  0  0  0  0  0  0
   -1.5214   -2.2074   -1.6631 H   0  0  0  0  0  0  0  0  0  0  0  0
   -3.4552   -2.0790   -0.2279 H   0  0  0  0  0  0  0  0  0  0  0  0
   -3.8702   -1.5857   -1.8484 H   0  0  0  0  0  0  0  0  0  0  0  0
  1  2  1  0
  2  3  1  0
  3  4  1  0
  4  5  1  0
  5  6  1  0
  6  7  1  0
  7  8  1  0
  8  9  1  0
  9 10  1  0
 10 11  1  0
 11 12  2  0
 12 13  1  0
 13 14  2  0
 14 15  1  0
 15 16  1  0
 16 17  1  0
 17 18  2  0
 18 19  1  0
 19 20  2  0
 20 21  1  0
 21 22  2  0
 22 23  1  0
 23 24  1  0
 23 25  1  0
 23 26  1  0
 15 27  2  0
 27 28  1  0
 28 29  2  0
 29 30  1  0
 10 31  1  0
 31 32  1  0
  7  3  1  0
 30 11  1  0
 32  7  1  0
 29 13  1  0
 22 17  1  0
  1 33  1  0
  1 34  1  0
  2 35  1  0
  2 36  1  0
  3 37  1  6
  4 38  1  0
  4 39  1  0
  5 40  1  0
  5 41  1  0
  6 42  1  0
  6 43  1  0
  8 44  1  0
  8 45  1  0
  9 46  1  0
  9 47  1  0
 18 48  1  0
 19 49  1  0
 20 50  1  0
 27 51  1  0
 30 52  1  0
 31 53  1  0
 31 54  1  0
 32 55  1  0
 32 56  1  0
M  END
>  <mol_id>  (1) 
125082

>  <source_index>  (1) 
8

>  <layer>  (1) 
L1

>  <uniprot>  (1) 
Q06124

>  <paff>  (1) 
6.0209000000000001

>  <smiles>  (1) 
NCC1CCCC12CCN(c1nc3nc(Sc4cccnc4C(F)(F)F)cnc3[nH]1)CC2

$$$$
