L1:Q06124:125082
 OpenBabel09212617513D

 56 60  0  0  0  0  0  0  0  0999 V2000
   29.8965   22.1258    2.6747 C   0  0  0  0  0  0  0  0  0  0  0  0
   29.2444   21.4196    1.7700 N   0  0  0  0  0  0  0  0  0  0  0  0
   27.9676   21.3150    2.2372 C   0  0  0  0  0  0  0  0  0  0  0  0
   26.9317   20.6815    1.6359 N   0  0  0  0  0  0  0  0  0  0  0  0
   25.7841   20.7482    2.3523 C   0  0  0  0  0  0  0  0  0  0  0  0
   25.6904   21.3978    3.5913 C   0  0  0  0  0  0  0  0  0  0  0  0
   26.7186   22.0373    4.2180 N   0  0  0  0  0  0  0  0  0  0  0  0
   27.8320   21.9508    3.4629 C   0  0  0  0  0  0  0  0  0  0  0  0
   29.0686   22.4540    3.7248 N   0  0  0  0  0  0  0  0  0  0  0  0
   29.3253   22.9507    4.5597 H   0  0  0  0  0  0  0  0  0  0  0  0
   34.9554   22.1495    3.0728 C   0  0  1  0  0  0  0  0  0  0  0  0
   35.9328   22.7816    4.0842 C   0  0  0  0  0  0  0  0  0  0  0  0
   36.0962   24.2410    3.6645 C   0  0  0  0  0  0  0  0  0  0  0  0
   35.0344   24.5086    2.5998 C   0  0  0  0  0  0  0  0  0  0  0  0
   34.0213   23.3496    2.7114 C   0  0  0  0  0  0  0  0  0  0  0  0
   33.0093   23.6628    3.8497 C   0  0  0  0  0  0  0  0  0  0  0  0
   31.8777   22.6391    3.9467 C   0  0  0  0  0  0  0  0  0  0  0  0
   31.2090   22.4829    2.6508 N   0  0  0  0  0  0  0  0  0  0  0  0
   32.0827   22.1883    1.5139 C   0  0  0  0  0  0  0  0  0  0  0  0
   33.2042   23.2232    1.4142 C   0  0  0  0  0  0  0  0  0  0  0  0
   35.3427   20.1737    1.5828 N   0  0  0  0  0  0  0  0  0  0  0  0
   35.7734   21.5277    1.9167 C   0  0  0  0  0  0  0  0  0  0  0  0
   35.5012   19.5646    2.3866 H   0  0  0  0  0  0  0  0  0  0  0  0
   35.9406   19.8090    0.8405 H   0  0  0  0  0  0  0  0  0  0  0  0
   24.3268   19.9491    1.6843 S   0  0  0  0  0  0  0  0  0  0  0  0
   23.2096   20.0011    3.0787 C   0  0  0  0  0  0  0  0  0  0  0  0
   23.4660   19.1368    4.1517 C   0  0  0  0  0  0  0  0  0  0  0  0
   22.6404   19.1403    5.2713 C   0  0  0  0  0  0  0  0  0  0  0  0
   21.5792   20.0223    5.2957 C   0  0  0  0  0  0  0  0  0  0  0  0
   21.3028   20.8826    4.2942 N   0  0  0  0  0  0  0  0  0  0  0  0
   22.1113   20.8671    3.1836 C   0  0  0  0  0  0  0  0  0  0  0  0
   21.7872   21.8468    2.0675 C   0  0  0  0  0  0  0  0  0  0  0  0
   21.1860   21.2643    0.9869 F   0  0  0  0  0  0  0  0  0  0  0  0
   22.8968   22.4747    1.5731 F   0  0  0  0  0  0  0  0  0  0  0  0
   20.9454   22.8571    2.4398 F   0  0  0  0  0  0  0  0  0  0  0  0
   24.7735   21.3914    4.0649 H   0  0  0  0  0  0  0  0  0  0  0  0
   34.3582   21.3298    3.4139 H   0  0  0  0  0  0  0  0  0  0  0  0
   36.8766   22.2785    4.0519 H   0  0  0  0  0  0  0  0  0  0  0  0
   35.5628   22.7030    5.0851 H   0  0  0  0  0  0  0  0  0  0  0  0
   37.0737   24.4019    3.2601 H   0  0  0  0  0  0  0  0  0  0  0  0
   35.9799   24.8989    4.5003 H   0  0  0  0  0  0  0  0  0  0  0  0
   35.4786   24.5221    1.6264 H   0  0  0  0  0  0  0  0  0  0  0  0
   34.5627   25.4579    2.7455 H   0  0  0  0  0  0  0  0  0  0  0  0
   32.5815   24.6268    3.6690 H   0  0  0  0  0  0  0  0  0  0  0  0
   33.5486   23.6297    4.7733 H   0  0  0  0  0  0  0  0  0  0  0  0
   31.1648   22.9710    4.6723 H   0  0  0  0  0  0  0  0  0  0  0  0
   32.2906   21.6957    4.2372 H   0  0  0  0  0  0  0  0  0  0  0  0
   31.5058   22.2072    0.6130 H   0  0  0  0  0  0  0  0  0  0  0  0
   32.5177   21.2209    1.6549 H   0  0  0  0  0  0  0  0  0  0  0  0
   32.7707   24.1754    1.1899 H   0  0  0  0  0  0  0  0  0  0  0  0
   33.8728   22.8980    0.6447 H   0  0  0  0  0  0  0  0  0  0  0  0
   35.6634   22.1449    1.0496 H   0  0  0  0  0  0  0  0  0  0  0  0
   36.7926   21.4714    2.2375 H   0  0  0  0  0  0  0  0  0  0  0  0
   24.2722   18.4938    4.1110 H   0  0  0  0  0  0  0  0  0  0  0  0
   22.8166   18.5009    6.0620 H   0  0  0  0  0  0  0  0  0  0  0  0
   20.9643   20.0237    6.1245 H   0  0  0  0  0  0  0  0  0  0  0  0
  1  2  2  0  0  0  0
  2  3  1  0  0  0  0
  3  4  2  0  0  0  0
  4  5  1  0  0  0  0
  5 25  1  0  0  0  0
  5  6  2  0  0  0  0
  6  7  1  0  0  0  0
  6 36  1  0  0  0  0
  7  8  2  0  0  0  0
  8  9  1  0  0  0  0
  8  3  1  0  0  0  0
  9  1  1  0  0  0  0
  9 10  1  0  0  0  0
 11 12  1  0  0  0  0
 11 37  1  1  0  0  0
 12 13  1  0  0  0  0
 12 38  1  0  0  0  0
 12 39  1  0  0  0  0
 13 14  1  0  0  0  0
 13 40  1  0  0  0  0
 13 41  1  0  0  0  0
 14 15  1  0  0  0  0
 14 42  1  0  0  0  0
 14 43  1  0  0  0  0
 15 16  1  0  0  0  0
 15 11  1  0  0  0  0
 16 17  1  0  0  0  0
 16 44  1  0  0  0  0
 16 45  1  0  0  0  0
 17 18  1  0  0  0  0
 17 46  1  0  0  0  0
 17 47  1  0  0  0  0
 18  1  1  0  0  0  0
 18 19  1  0  0  0  0
 19 20  1  0  0  0  0
 19 48  1  0  0  0  0
 19 49  1  0  0  0  0
 20 15  1  0  0  0  0
 20 50  1  0  0  0  0
 20 51  1  0  0  0  0
 21 22  1  0  0  0  0
 21 23  1  0  0  0  0
 21 24  1  0  0  0  0
 22 11  1  0  0  0  0
 22 52  1  0  0  0  0
 22 53  1  0  0  0  0
 25 26  1  0  0  0  0
 26 27  2  0  0  0  0
 27 28  1  0  0  0  0
 27 54  1  0  0  0  0
 28 29  2  0  0  0  0
 28 55  1  0  0  0  0
 29 30  1  0  0  0  0
 29 56  1  0  0  0  0
 30 31  2  0  0  0  0
 31 32  1  0  0  0  0
 31 26  1  0  0  0  0
 32 33  1  0  0  0  0
 32 34  1  0  0  0  0
 32 35  1  0  0  0  0
M  END
>  <minimizedAffinity>
-7.94376

$$$$
