L1:Q06124:129145
 OpenBabel09212617513D

 56 60  0  0  0  0  0  0  0  0999 V2000
   26.8567   21.1942    2.2816 C   0  0  0  0  0  0  0  0  0  0  0  0
   27.7154   21.6526    3.2465 O   0  0  0  0  0  0  0  0  0  0  0  0
   28.9290   21.8399    2.6639 C   0  0  0  0  0  0  0  0  0  0  0  0
   30.0722   22.2959    3.3131 C   0  0  0  0  0  0  0  0  0  0  0  0
   31.2247   22.4251    2.5318 C   0  0  0  0  0  0  0  0  0  0  0  0
   32.3321   22.8765    3.2031 O   0  0  0  0  0  0  0  0  0  0  0  0
   31.2267   22.1112    1.1625 C   0  0  0  0  0  0  0  0  0  0  0  0
   30.0451   21.6528    0.5446 C   0  0  0  0  0  0  0  0  0  0  0  0
   28.8740   21.5137    1.3160 C   0  0  0  0  0  0  0  0  0  0  0  0
   27.5333   21.1020    1.0770 C   0  0  0  0  0  0  0  0  0  0  0  0
   33.0716   22.9294    2.5609 H   0  0  0  0  0  0  0  0  0  0  0  0
   22.8526   20.4186    3.6105 C   0  0  0  0  0  0  0  0  0  0  0  0
   23.9036   19.5894    4.0054 C   0  0  0  0  0  0  0  0  0  0  0  0
   25.2122   19.8371    3.5766 C   0  0  0  0  0  0  0  0  0  0  0  0
   25.4967   20.9239    2.7423 C   0  0  0  0  0  0  0  0  0  0  0  0
   24.4355   21.7578    2.3607 C   0  0  0  0  0  0  0  0  0  0  0  0
   23.1240   21.5097    2.7882 C   0  0  0  0  0  0  0  0  0  0  0  0
   21.6312   20.0664    4.1141 O   0  0  0  0  0  0  0  0  0  0  0  0
   21.0896   20.8595    5.1636 C   0  0  0  0  0  0  0  0  0  0  0  0
   20.9822   19.6733    7.2674 O   0  0  0  0  0  0  0  0  0  0  0  0
   20.3859   20.0704    6.2693 C   0  0  0  0  0  0  0  0  0  0  0  0
   19.0335   19.8942    6.0521 N   0  0  0  0  0  0  0  0  0  0  0  0
   18.6575   20.2104    5.1633 H   0  0  0  0  0  0  0  0  0  0  0  0
   18.1817   19.2189    6.9733 C   0  0  0  0  0  0  0  0  0  0  0  0
   17.5159   19.9745    8.0891 C   0  0  0  0  0  0  0  0  0  0  0  0
   16.6951   19.4455    6.9500 C   0  0  0  0  0  0  0  0  0  0  0  0
   32.4231   22.2314    0.2917 C   0  0  0  0  0  0  0  0  0  0  0  0
   33.5791   22.2855    0.6667 O   0  0  0  0  0  0  0  0  0  0  0  0
   32.1200   22.2794   -1.0217 O   0  0  0  0  0  0  0  0  0  0  0  0
   33.0040   22.3564   -1.4481 H   0  0  0  0  0  0  0  0  0  0  0  0
   26.9827   20.6968   -0.1745 C   0  0  0  0  0  0  0  0  0  0  0  0
   26.5153   20.3614   -1.2288 C   0  0  0  0  0  0  0  0  0  0  0  0
   25.9458   19.9698   -2.4803 C   0  0  0  0  0  0  0  0  0  0  0  0
   25.8966   20.8816   -3.5390 C   0  0  0  0  0  0  0  0  0  0  0  0
   25.3393   20.5049   -4.7626 C   0  0  0  0  0  0  0  0  0  0  0  0
   24.8305   19.2164   -4.9279 C   0  0  0  0  0  0  0  0  0  0  0  0
   24.8819   18.3104   -3.8688 C   0  0  0  0  0  0  0  0  0  0  0  0
   24.2525   16.7220   -4.0756 Cl  0  0  0  0  0  0  0  0  0  0  0  0
   25.4373   18.6798   -2.6445 C   0  0  0  0  0  0  0  0  0  0  0  0
   30.0696   22.5267    4.3189 H   0  0  0  0  0  0  0  0  0  0  0  0
   30.0380   21.4218   -0.4612 H   0  0  0  0  0  0  0  0  0  0  0  0
   23.7131   18.7836    4.6213 H   0  0  0  0  0  0  0  0  0  0  0  0
   25.9755   19.2118    3.8788 H   0  0  0  0  0  0  0  0  0  0  0  0
   24.6241   22.5703    1.7530 H   0  0  0  0  0  0  0  0  0  0  0  0
   22.3586   22.1360    2.4935 H   0  0  0  0  0  0  0  0  0  0  0  0
   21.8896   21.4137    5.6083 H   0  0  0  0  0  0  0  0  0  0  0  0
   20.3422   21.4805    4.7156 H   0  0  0  0  0  0  0  0  0  0  0  0
   18.8168   18.3600    6.9121 H   0  0  0  0  0  0  0  0  0  0  0  0
   17.6739   21.0279    8.1904 H   0  0  0  0  0  0  0  0  0  0  0  0
   17.4829   19.8767    9.1541 H   0  0  0  0  0  0  0  0  0  0  0  0
   16.2682   20.1217    6.2391 H   0  0  0  0  0  0  0  0  0  0  0  0
   15.8350   18.8145    6.8665 H   0  0  0  0  0  0  0  0  0  0  0  0
   26.2728   21.8347   -3.4159 H   0  0  0  0  0  0  0  0  0  0  0  0
   25.3038   21.1786   -5.5435 H   0  0  0  0  0  0  0  0  0  0  0  0
   24.4175   18.9347   -5.8307 H   0  0  0  0  0  0  0  0  0  0  0  0
   25.4723   18.0044   -1.8650 H   0  0  0  0  0  0  0  0  0  0  0  0
  1  2  1  0  0  0  0
  2  3  1  0  0  0  0
  3  4  2  0  0  0  0
  4  5  1  0  0  0  0
  4 40  1  0  0  0  0
  5  6  1  0  0  0  0
  5  7  2  0  0  0  0
  6 11  1  0  0  0  0
  7 27  1  0  0  0  0
  7  8  1  0  0  0  0
  8  9  2  0  0  0  0
  8 41  1  0  0  0  0
  9 10  1  0  0  0  0
  9  3  1  0  0  0  0
 10 31  1  0  0  0  0
 10  1  2  0  0  0  0
 12 13  2  0  0  0  0
 13 14  1  0  0  0  0
 13 42  1  0  0  0  0
 14 15  2  0  0  0  0
 14 43  1  0  0  0  0
 15  1  1  0  0  0  0
 15 16  1  0  0  0  0
 16 17  2  0  0  0  0
 16 44  1  0  0  0  0
 17 12  1  0  0  0  0
 17 45  1  0  0  0  0
 18 12  1  0  0  0  0
 19 18  1  0  0  0  0
 19 46  1  0  0  0  0
 19 47  1  0  0  0  0
 20 21  2  0  0  0  0
 21 19  1  0  0  0  0
 21 22  1  0  0  0  0
 22 24  1  0  0  0  0
 22 23  1  0  0  0  0
 24 25  1  0  0  0  0
 24 48  1  0  0  0  0
 25 26  1  0  0  0  0
 25 49  1  0  0  0  0
 25 50  1  0  0  0  0
 26 24  1  0  0  0  0
 26 51  1  0  0  0  0
 26 52  1  0  0  0  0
 27 28  2  0  0  0  0
 27 29  1  0  0  0  0
 29 30  1  0  0  0  0
 31 32  3  0  0  0  0
 32 33  1  0  0  0  0
 33 34  2  0  0  0  0
 34 35  1  0  0  0  0
 34 53  1  0  0  0  0
 35 36  2  0  0  0  0
 35 54  1  0  0  0  0
 36 37  1  0  0  0  0
 36 55  1  0  0  0  0
 37 38  1  0  0  0  0
 37 39  2  0  0  0  0
 39 33  1  0  0  0  0
 39 56  1  0  0  0  0
M  END
>  <minimizedAffinity>
-9.06223

$$$$
