L1:Q06124:129145
     RDKit          3D

 56 60  0  0  0  0  0  0  0  0999 V2000
    6.0388   -1.9771   -2.5618 O   0  0  0  0  0  0  0  0  0  0  0  0
    5.6220   -0.9605   -2.0120 C   0  0  0  0  0  0  0  0  0  0  0  0
    4.7567    0.0640   -2.7484 C   0  0  0  0  0  0  0  0  0  0  0  0
    3.9358    0.8676   -1.9092 O   0  0  0  0  0  0  0  0  0  0  0  0
    2.7594    0.3327   -1.4626 C   0  0  0  0  0  0  0  0  0  0  0  0
    1.9455    1.2250   -0.7630 C   0  0  0  0  0  0  0  0  0  0  0  0
    0.7165    0.8125   -0.2364 C   0  0  0  0  0  0  0  0  0  0  0  0
    0.2764   -0.5059   -0.3987 C   0  0  0  0  0  0  0  0  0  0  0  0
   -1.0061   -0.9520    0.1408 C   0  0  0  0  0  0  0  0  0  0  0  0
   -1.0484   -2.2675    0.5231 O   0  0  0  0  0  0  0  0  0  0  0  0
   -2.2928   -2.5161    1.0099 C   0  0  0  0  0  0  0  0  0  0  0  0
   -2.7345   -3.7395    1.5044 C   0  0  0  0  0  0  0  0  0  0  0  0
   -4.0567   -3.7899    1.9565 C   0  0  0  0  0  0  0  0  0  0  0  0
   -4.4587   -5.0099    2.4369 O   0  0  0  0  0  0  0  0  0  0  0  0
   -4.8949   -2.6633    1.9124 C   0  0  0  0  0  0  0  0  0  0  0  0
   -6.3040   -2.6664    2.3799 C   0  0  0  0  0  0  0  0  0  0  0  0
   -7.0652   -1.7176    2.3660 O   0  0  0  0  0  0  0  0  0  0  0  0
   -6.7041   -3.8661    2.8489 O   0  0  0  0  0  0  0  0  0  0  0  0
   -4.4062   -1.4430    1.4025 C   0  0  0  0  0  0  0  0  0  0  0  0
   -3.0754   -1.3718    0.9444 C   0  0  0  0  0  0  0  0  0  0  0  0
   -2.2393   -0.3690    0.3793 C   0  0  0  0  0  0  0  0  0  0  0  0
   -2.6102    0.9767    0.0876 C   0  0  0  0  0  0  0  0  0  0  0  0
   -2.9190    2.1098   -0.1640 C   0  0  0  0  0  0  0  0  0  0  0  0
   -3.2728    3.4606   -0.4706 C   0  0  0  0  0  0  0  0  0  0  0  0
   -2.7164    4.0899   -1.5882 C   0  0  0  0  0  0  0  0  0  0  0  0
   -3.0568    5.4099   -1.8908 C   0  0  0  0  0  0  0  0  0  0  0  0
   -3.9534    6.1013   -1.0756 C   0  0  0  0  0  0  0  0  0  0  0  0
   -4.5057    5.4692    0.0382 C   0  0  0  0  0  0  0  0  0  0  0  0
   -5.6107    6.3251    1.0424 Cl  0  0  0  0  0  0  0  0  0  0  0  0
   -4.1705    4.1513    0.3459 C   0  0  0  0  0  0  0  0  0  0  0  0
    1.1070   -1.3976   -1.0931 C   0  0  0  0  0  0  0  0  0  0  0  0
    2.3374   -0.9851   -1.6225 C   0  0  0  0  0  0  0  0  0  0  0  0
    5.9136   -0.6078   -0.7090 N   0  0  0  0  0  0  0  0  0  0  0  0
    6.7335   -1.4016    0.1441 C   0  0  0  0  0  0  0  0  0  0  0  0
    8.1696   -1.0277    0.3832 C   0  0  0  0  0  0  0  0  0  0  0  0
    7.1656   -0.8853    1.4890 C   0  0  0  0  0  0  0  0  0  0  0  0
    4.1722   -0.4269   -3.5354 H   0  0  0  0  0  0  0  0  0  0  0  0
    5.4510    0.7449   -3.2544 H   0  0  0  0  0  0  0  0  0  0  0  0
    2.2676    2.2543   -0.6221 H   0  0  0  0  0  0  0  0  0  0  0  0
    0.1228    1.5362    0.3158 H   0  0  0  0  0  0  0  0  0  0  0  0
   -2.0847   -4.6058    1.5356 H   0  0  0  0  0  0  0  0  0  0  0  0
   -5.3940   -4.9275    2.7206 H   0  0  0  0  0  0  0  0  0  0  0  0
   -7.6383   -3.6988    3.1106 H   0  0  0  0  0  0  0  0  0  0  0  0
   -5.0442   -0.5630    1.3607 H   0  0  0  0  0  0  0  0  0  0  0  0
   -2.0170    3.5570   -2.2294 H   0  0  0  0  0  0  0  0  0  0  0  0
   -2.6242    5.8978   -2.7609 H   0  0  0  0  0  0  0  0  0  0  0  0
   -4.2174    7.1286   -1.3130 H   0  0  0  0  0  0  0  0  0  0  0  0
   -4.6068    3.6674    1.2159 H   0  0  0  0  0  0  0  0  0  0  0  0
    0.7998   -2.4332   -1.2326 H   0  0  0  0  0  0  0  0  0  0  0  0
    2.9329   -1.7287   -2.1432 H   0  0  0  0  0  0  0  0  0  0  0  0
    5.4651    0.2244   -0.3382 H   0  0  0  0  0  0  0  0  0  0  0  0
    6.5090   -2.4652    0.0834 H   0  0  0  0  0  0  0  0  0  0  0  0
    8.8921   -1.8332    0.4467 H   0  0  0  0  0  0  0  0  0  0  0  0
    8.5510   -0.1267   -0.0821 H   0  0  0  0  0  0  0  0  0  0  0  0
    7.2104   -1.5927    2.3092 H   0  0  0  0  0  0  0  0  0  0  0  0
    6.8767    0.1163    1.7834 H   0  0  0  0  0  0  0  0  0  0  0  0
  1  2  2  0
  2  3  1  0
  3  4  1  0
  4  5  1  0
  5  6  2  0
  6  7  1  0
  7  8  2  0
  8  9  1  0
  9 10  1  0
 10 11  1  0
 11 12  2  0
 12 13  1  0
 13 14  1  0
 13 15  2  0
 15 16  1  0
 16 17  2  0
 16 18  1  0
 15 19  1  0
 19 20  2  0
 20 21  1  0
 21 22  1  0
 22 23  3  0
 23 24  1  0
 24 25  2  0
 25 26  1  0
 26 27  2  0
 27 28  1  0
 28 29  1  0
 28 30  2  0
  8 31  1  0
 31 32  2  0
  2 33  1  0
 33 34  1  0
 34 35  1  0
 35 36  1  0
 32  5  1  0
 36 34  1  0
 21  9  2  0
 30 24  1  0
 20 11  1  0
  3 37  1  0
  3 38  1  0
  6 39  1  0
  7 40  1  0
 12 41  1  0
 14 42  1  0
 18 43  1  0
 19 44  1  0
 25 45  1  0
 26 46  1  0
 27 47  1  0
 30 48  1  0
 31 49  1  0
 32 50  1  0
 33 51  1  0
 34 52  1  0
 35 53  1  0
 35 54  1  0
 36 55  1  0
 36 56  1  0
M  END
>  <mol_id>  (1) 
129145

>  <source_index>  (1) 
9

>  <layer>  (1) 
L1

>  <uniprot>  (1) 
Q06124

>  <paff>  (1) 
6.1675000000000004

>  <smiles>  (1) 
c1cc(cc(c1)Cl)C#Cc2c3cc(c(cc3oc2c4ccc(cc4)OCC(=O)NC5CC5)O)C(=O)O

$$$$
