L1:Q06124:1874
 OpenBabel09212617503D

 57 61  0  0  0  0  0  0  0  0999 V2000
   26.9624   21.1921    2.3038 C   0  0  0  0  0  0  0  0  0  0  0  0
   27.8337   21.5687    3.2925 O   0  0  0  0  0  0  0  0  0  0  0  0
   29.0457   21.7831    2.7159 C   0  0  0  0  0  0  0  0  0  0  0  0
   30.1966   22.1835    3.3880 C   0  0  0  0  0  0  0  0  0  0  0  0
   31.3465   22.3443    2.6104 C   0  0  0  0  0  0  0  0  0  0  0  0
   32.4679   22.7392    3.2976 O   0  0  0  0  0  0  0  0  0  0  0  0
   31.3379   22.1128    1.2241 C   0  0  0  0  0  0  0  0  0  0  0  0
   30.1514   21.7080    0.5816 C   0  0  0  0  0  0  0  0  0  0  0  0
   28.9809   21.5429    1.3501 C   0  0  0  0  0  0  0  0  0  0  0  0
   27.6348   21.1589    1.0938 C   0  0  0  0  0  0  0  0  0  0  0  0
   33.2190   22.8232    2.6703 H   0  0  0  0  0  0  0  0  0  0  0  0
   22.9422   20.4569    3.6095 C   0  0  0  0  0  0  0  0  0  0  0  0
   23.2373   21.5697    2.8250 C   0  0  0  0  0  0  0  0  0  0  0  0
   24.5524   21.8011    2.3997 C   0  0  0  0  0  0  0  0  0  0  0  0
   25.5956   20.9313    2.7510 C   0  0  0  0  0  0  0  0  0  0  0  0
   25.2844   19.8138    3.5337 C   0  0  0  0  0  0  0  0  0  0  0  0
   23.9714   19.5816    3.9588 C   0  0  0  0  0  0  0  0  0  0  0  0
   21.7099   20.1124    4.0900 O   0  0  0  0  0  0  0  0  0  0  0  0
   21.1972   20.8929    5.1677 C   0  0  0  0  0  0  0  0  0  0  0  0
   21.1841   19.3557    7.0297 O   0  0  0  0  0  0  0  0  0  0  0  0
   20.5286   20.0129    6.2237 C   0  0  0  0  0  0  0  0  0  0  0  0
   19.1491   20.0392    6.1906 N   0  0  0  0  0  0  0  0  0  0  0  0
   18.7179   20.6253    5.4820 H   0  0  0  0  0  0  0  0  0  0  0  0
   18.3330   19.2875    7.0838 C   0  0  0  0  0  0  0  0  0  0  0  0
   16.8346   19.3513    6.9814 C   0  0  0  0  0  0  0  0  0  0  0  0
   17.5315   19.9760    8.1542 C   0  0  0  0  0  0  0  0  0  0  0  0
   32.5869   22.2983    0.4507 C   0  0  0  0  0  0  0  0  0  0  0  0
   33.7076   22.2006    0.9221 O   0  0  0  0  0  0  0  0  0  0  0  0
   32.3855   22.5908   -0.8440 O   0  0  0  0  0  0  0  0  0  0  0  0
   33.2851   22.6824   -1.2234 H   0  0  0  0  0  0  0  0  0  0  0  0
   27.0887   20.7835   -0.1690 C   0  0  0  0  0  0  0  0  0  0  0  0
   26.6306   20.4610   -1.2313 C   0  0  0  0  0  0  0  0  0  0  0  0
   26.0817   20.0623   -2.4901 C   0  0  0  0  0  0  0  0  0  0  0  0
   26.3019   20.8444   -3.6277 C   0  0  0  0  0  0  0  0  0  0  0  0
   25.7628   20.4577   -4.8564 C   0  0  0  0  0  0  0  0  0  0  0  0
   25.0046   19.2910   -4.9468 C   0  0  0  0  0  0  0  0  0  0  0  0
   24.7901   18.5182   -3.8105 C   0  0  0  0  0  0  0  0  0  0  0  0
   24.0426   17.3856   -3.9472 O   0  0  0  0  0  0  0  0  0  0  0  0
   25.3219   18.8926   -2.5794 C   0  0  0  0  0  0  0  0  0  0  0  0
   23.9836   16.9427   -3.0846 H   0  0  0  0  0  0  0  0  0  0  0  0
   30.2007   22.3526    4.4060 H   0  0  0  0  0  0  0  0  0  0  0  0
   30.1391   21.5350   -0.4357 H   0  0  0  0  0  0  0  0  0  0  0  0
   22.4863   22.2247    2.5566 H   0  0  0  0  0  0  0  0  0  0  0  0
   24.7575   22.6275    1.8166 H   0  0  0  0  0  0  0  0  0  0  0  0
   26.0314   19.1536    3.8004 H   0  0  0  0  0  0  0  0  0  0  0  0
   23.7618   18.7532    4.5375 H   0  0  0  0  0  0  0  0  0  0  0  0
   22.0027   21.4311    5.6220 H   0  0  0  0  0  0  0  0  0  0  0  0
   20.4637   21.5668    4.7768 H   0  0  0  0  0  0  0  0  0  0  0  0
   19.0619   18.5043    7.0712 H   0  0  0  0  0  0  0  0  0  0  0  0
   16.2512   18.4646    7.1163 H   0  0  0  0  0  0  0  0  0  0  0  0
   16.1412   19.6956    6.2427 H   0  0  0  0  0  0  0  0  0  0  0  0
   17.4451   19.5345    9.1250 H   0  0  0  0  0  0  0  0  0  0  0  0
   17.5408   20.9497    8.5977 H   0  0  0  0  0  0  0  0  0  0  0  0
   26.8630   21.7078   -3.5594 H   0  0  0  0  0  0  0  0  0  0  0  0
   25.9253   21.0347   -5.6965 H   0  0  0  0  0  0  0  0  0  0  0  0
   24.6043   19.0021   -5.8531 H   0  0  0  0  0  0  0  0  0  0  0  0
   25.1568   18.3127   -1.7419 H   0  0  0  0  0  0  0  0  0  0  0  0
  1  2  1  0  0  0  0
  2  3  1  0  0  0  0
  3  4  2  0  0  0  0
  4  5  1  0  0  0  0
  4 41  1  0  0  0  0
  5  6  1  0  0  0  0
  5  7  2  0  0  0  0
  6 11  1  0  0  0  0
  7 27  1  0  0  0  0
  7  8  1  0  0  0  0
  8  9  2  0  0  0  0
  8 42  1  0  0  0  0
  9 10  1  0  0  0  0
  9  3  1  0  0  0  0
 10 31  1  0  0  0  0
 10  1  2  0  0  0  0
 12 13  2  0  0  0  0
 13 14  1  0  0  0  0
 13 43  1  0  0  0  0
 14 15  2  0  0  0  0
 14 44  1  0  0  0  0
 15  1  1  0  0  0  0
 15 16  1  0  0  0  0
 16 17  2  0  0  0  0
 16 45  1  0  0  0  0
 17 12  1  0  0  0  0
 17 46  1  0  0  0  0
 18 12  1  0  0  0  0
 19 18  1  0  0  0  0
 19 47  1  0  0  0  0
 19 48  1  0  0  0  0
 20 21  2  0  0  0  0
 21 19  1  0  0  0  0
 21 22  1  0  0  0  0
 22 24  1  0  0  0  0
 22 23  1  0  0  0  0
 24 25  1  0  0  0  0
 24 49  1  0  0  0  0
 25 26  1  0  0  0  0
 25 50  1  0  0  0  0
 25 51  1  0  0  0  0
 26 24  1  0  0  0  0
 26 52  1  0  0  0  0
 26 53  1  0  0  0  0
 27 28  2  0  0  0  0
 27 29  1  0  0  0  0
 29 30  1  0  0  0  0
 31 32  3  0  0  0  0
 32 33  1  0  0  0  0
 33 34  2  0  0  0  0
 34 35  1  0  0  0  0
 34 54  1  0  0  0  0
 35 36  2  0  0  0  0
 35 55  1  0  0  0  0
 36 37  1  0  0  0  0
 36 56  1  0  0  0  0
 37 38  1  0  0  0  0
 37 39  2  0  0  0  0
 38 40  1  0  0  0  0
 39 33  1  0  0  0  0
 39 57  1  0  0  0  0
M  END
>  <minimizedAffinity>
-9.13873

$$$$
