L1:Q06124:1874
     RDKit          3D

 57 61  0  0  0  0  0  0  0  0999 V2000
    7.1781    0.0641    2.6405 O   0  0  0  0  0  0  0  0  0  0  0  0
    6.3130    0.1845    1.7755 C   0  0  0  0  0  0  0  0  0  0  0  0
    4.9104   -0.3971    1.9514 C   0  0  0  0  0  0  0  0  0  0  0  0
    4.0677   -0.0630    0.8507 O   0  0  0  0  0  0  0  0  0  0  0  0
    2.7821   -0.5251    0.8945 C   0  0  0  0  0  0  0  0  0  0  0  0
    2.2202   -1.2980    1.9082 C   0  0  0  0  0  0  0  0  0  0  0  0
    0.8818   -1.7046    1.8223 C   0  0  0  0  0  0  0  0  0  0  0  0
    0.0799   -1.3457    0.7285 C   0  0  0  0  0  0  0  0  0  0  0  0
   -1.3159   -1.7732    0.6590 C   0  0  0  0  0  0  0  0  0  0  0  0
   -1.5877   -2.9672    1.2746 O   0  0  0  0  0  0  0  0  0  0  0  0
   -2.9121   -3.2250    1.1105 C   0  0  0  0  0  0  0  0  0  0  0  0
   -3.5781   -4.3490    1.5897 C   0  0  0  0  0  0  0  0  0  0  0  0
   -4.9468   -4.4236    1.3179 C   0  0  0  0  0  0  0  0  0  0  0  0
   -5.5801   -5.5417    1.8020 O   0  0  0  0  0  0  0  0  0  0  0  0
   -5.6122   -3.4156    0.5990 C   0  0  0  0  0  0  0  0  0  0  0  0
   -7.0643   -3.5475    0.3413 C   0  0  0  0  0  0  0  0  0  0  0  0
   -7.7460   -4.4866    0.7168 O   0  0  0  0  0  0  0  0  0  0  0  0
   -7.5868   -2.5267   -0.3569 O   0  0  0  0  0  0  0  0  0  0  0  0
   -4.9011   -2.2930    0.1313 C   0  0  0  0  0  0  0  0  0  0  0  0
   -3.5189   -2.2021    0.3944 C   0  0  0  0  0  0  0  0  0  0  0  0
   -2.4830   -1.2686    0.1105 C   0  0  0  0  0  0  0  0  0  0  0  0
   -2.6268   -0.0318   -0.5847 C   0  0  0  0  0  0  0  0  0  0  0  0
   -2.7436    1.0127   -1.1660 C   0  0  0  0  0  0  0  0  0  0  0  0
   -2.8673    2.2600   -1.8542 C   0  0  0  0  0  0  0  0  0  0  0  0
   -3.4763    2.3069   -3.1117 C   0  0  0  0  0  0  0  0  0  0  0  0
   -3.5938    3.5240   -3.7860 C   0  0  0  0  0  0  0  0  0  0  0  0
   -3.1028    4.6919   -3.2035 C   0  0  0  0  0  0  0  0  0  0  0  0
   -2.4984    4.6370   -1.9521 C   0  0  0  0  0  0  0  0  0  0  0  0
   -2.0334    5.8045   -1.4221 O   0  0  0  0  0  0  0  0  0  0  0  0
   -2.3748    3.4300   -1.2693 C   0  0  0  0  0  0  0  0  0  0  0  0
    0.6586   -0.5747   -0.2860 C   0  0  0  0  0  0  0  0  0  0  0  0
    1.9951   -0.1684   -0.2013 C   0  0  0  0  0  0  0  0  0  0  0  0
    6.5100    0.8318    0.5725 N   0  0  0  0  0  0  0  0  0  0  0  0
    7.7420    1.4484    0.2111 C   0  0  0  0  0  0  0  0  0  0  0  0
    7.9045    2.9395    0.3111 C   0  0  0  0  0  0  0  0  0  0  0  0
    7.8456    2.2822   -1.0364 C   0  0  0  0  0  0  0  0  0  0  0  0
    5.0233   -1.4848    2.0268 H   0  0  0  0  0  0  0  0  0  0  0  0
    4.5047    0.0214    2.8798 H   0  0  0  0  0  0  0  0  0  0  0  0
    2.7862   -1.6074    2.7808 H   0  0  0  0  0  0  0  0  0  0  0  0
    0.4659   -2.3070    2.6286 H   0  0  0  0  0  0  0  0  0  0  0  0
   -3.0604   -5.1225    2.1439 H   0  0  0  0  0  0  0  0  0  0  0  0
   -6.5321   -5.5032    1.5635 H   0  0  0  0  0  0  0  0  0  0  0  0
   -8.5381   -2.7463   -0.4484 H   0  0  0  0  0  0  0  0  0  0  0  0
   -5.3982   -1.5029   -0.4244 H   0  0  0  0  0  0  0  0  0  0  0  0
   -3.8612    1.4005   -3.5732 H   0  0  0  0  0  0  0  0  0  0  0  0
   -4.0669    3.5627   -4.7638 H   0  0  0  0  0  0  0  0  0  0  0  0
   -3.1911    5.6423   -3.7228 H   0  0  0  0  0  0  0  0  0  0  0  0
   -1.6493    5.6215   -0.5488 H   0  0  0  0  0  0  0  0  0  0  0  0
   -1.9019    3.3889   -0.2929 H   0  0  0  0  0  0  0  0  0  0  0  0
    0.0890   -0.2909   -1.1671 H   0  0  0  0  0  0  0  0  0  0  0  0
    2.4222    0.4280   -1.0040 H   0  0  0  0  0  0  0  0  0  0  0  0
    5.7214    0.8624   -0.0669 H   0  0  0  0  0  0  0  0  0  0  0  0
    8.6121    0.8447    0.4638 H   0  0  0  0  0  0  0  0  0  0  0  0
    7.0540    3.5291    0.6316 H   0  0  0  0  0  0  0  0  0  0  0  0
    8.8601    3.3161    0.6572 H   0  0  0  0  0  0  0  0  0  0  0  0
    8.7633    2.2185   -1.6099 H   0  0  0  0  0  0  0  0  0  0  0  0
    6.9580    2.4398   -1.6368 H   0  0  0  0  0  0  0  0  0  0  0  0
  1  2  2  0
  2  3  1  0
  3  4  1  0
  4  5  1  0
  5  6  2  0
  6  7  1  0
  7  8  2  0
  8  9  1  0
  9 10  1  0
 10 11  1  0
 11 12  2  0
 12 13  1  0
 13 14  1  0
 13 15  2  0
 15 16  1  0
 16 17  2  0
 16 18  1  0
 15 19  1  0
 19 20  2  0
 20 21  1  0
 21 22  1  0
 22 23  3  0
 23 24  1  0
 24 25  2  0
 25 26  1  0
 26 27  2  0
 27 28  1  0
 28 29  1  0
 28 30  2  0
  8 31  1  0
 31 32  2  0
  2 33  1  0
 33 34  1  0
 34 35  1  0
 35 36  1  0
 32  5  1  0
 36 34  1  0
 21  9  2  0
 30 24  1  0
 20 11  1  0
  3 37  1  0
  3 38  1  0
  6 39  1  0
  7 40  1  0
 12 41  1  0
 14 42  1  0
 18 43  1  0
 19 44  1  0
 25 45  1  0
 26 46  1  0
 27 47  1  0
 29 48  1  0
 30 49  1  0
 31 50  1  0
 32 51  1  0
 33 52  1  0
 34 53  1  0
 35 54  1  0
 35 55  1  0
 36 56  1  0
 36 57  1  0
M  END
>  <mol_id>  (1) 
1874

>  <source_index>  (1) 
0

>  <layer>  (1) 
L1

>  <uniprot>  (1) 
Q06124

>  <paff>  (1) 
6.0269000000000004

>  <smiles>  (1) 
O=C(COc1ccc(-c2oc3cc(O)c(C(=O)O)cc3c2C#Cc2cccc(O)c2)cc1)NC1CC1

$$$$
