L1:Q06124:26663
     RDKit          3D

 46 48  0  0  0  0  0  0  0  0999 V2000
   -4.8855    0.5691    0.9581 C   0  0  0  0  0  0  0  0  0  0  0  0
   -4.0138   -0.0485   -0.1567 C   0  0  0  0  0  0  0  0  0  0  0  0
   -4.8831   -0.3329   -1.4135 C   0  0  0  0  0  0  0  0  0  0  0  0
   -5.9327   -1.3236   -1.1949 N   0  0  0  0  0  0  0  0  0  0  0  0
   -2.9134    0.9816   -0.5307 C   0  0  0  0  0  0  0  0  0  0  0  0
   -1.6178    0.3210   -1.0051 C   0  0  0  0  0  0  0  0  0  0  0  0
   -1.0840   -0.5418    0.0416 N   0  0  0  0  0  0  0  0  0  0  0  0
    0.2720   -0.7275    0.2398 C   0  0  0  0  0  0  0  0  0  0  0  0
    1.2349   -0.4264   -0.7296 C   0  0  0  0  0  0  0  0  0  0  0  0
    2.5735   -0.5896   -0.5734 N   0  0  0  0  0  0  0  0  0  0  0  0
    2.9525   -1.0867    0.6268 C   0  0  0  0  0  0  0  0  0  0  0  0
    4.7072   -1.3346    0.8844 S   0  0  0  0  0  0  0  0  0  0  0  0
    5.3651    0.1553    0.1315 C   0  0  0  0  0  0  0  0  0  0  0  0
    5.9983    0.0072   -1.1138 C   0  0  0  0  0  0  0  0  0  0  0  0
    6.5404    1.1084   -1.7748 C   0  0  0  0  0  0  0  0  0  0  0  0
    6.4587    2.3713   -1.1954 C   0  0  0  0  0  0  0  0  0  0  0  0
    5.8382    2.5358    0.0475 C   0  0  0  0  0  0  0  0  0  0  0  0
    5.7894    4.1417    0.6935 Cl  0  0  0  0  0  0  0  0  0  0  0  0
    5.2908    1.4319    0.7225 C   0  0  0  0  0  0  0  0  0  0  0  0
    4.5458    1.6447    2.2801 Cl  0  0  0  0  0  0  0  0  0  0  0  0
    2.0147   -1.4009    1.6269 C   0  0  0  0  0  0  0  0  0  0  0  0
    2.3583   -1.9484    2.8528 N   0  0  0  0  0  0  0  0  0  0  0  0
    0.6879   -1.2340    1.4254 N   0  0  0  0  0  0  0  0  0  0  0  0
   -2.0063   -1.1434    1.0053 C   0  0  0  0  0  0  0  0  0  0  0  0
   -3.3700   -1.3655    0.3506 C   0  0  0  0  0  0  0  0  0  0  0  0
   -5.6694   -0.1178    1.2939 H   0  0  0  0  0  0  0  0  0  0  0  0
   -5.3705    1.4890    0.6125 H   0  0  0  0  0  0  0  0  0  0  0  0
   -4.2831    0.8208    1.8383 H   0  0  0  0  0  0  0  0  0  0  0  0
   -5.3501    0.5956   -1.7643 H   0  0  0  0  0  0  0  0  0  0  0  0
   -4.2440   -0.6908   -2.2294 H   0  0  0  0  0  0  0  0  0  0  0  0
   -6.6175   -0.9661   -0.5304 H   0  0  0  0  0  0  0  0  0  0  0  0
   -6.4417   -1.4752   -2.0653 H   0  0  0  0  0  0  0  0  0  0  0  0
   -3.2768    1.6742   -1.2998 H   0  0  0  0  0  0  0  0  0  0  0  0
   -2.6711    1.6041    0.3421 H   0  0  0  0  0  0  0  0  0  0  0  0
   -1.7874   -0.2616   -1.9176 H   0  0  0  0  0  0  0  0  0  0  0  0
   -0.9182    1.1286   -1.2507 H   0  0  0  0  0  0  0  0  0  0  0  0
    0.9528   -0.0491   -1.7057 H   0  0  0  0  0  0  0  0  0  0  0  0
    6.0609   -0.9728   -1.5845 H   0  0  0  0  0  0  0  0  0  0  0  0
    7.0211    0.9800   -2.7419 H   0  0  0  0  0  0  0  0  0  0  0  0
    6.8815    3.2272   -1.7168 H   0  0  0  0  0  0  0  0  0  0  0  0
    1.5646   -2.1042    3.4599 H   0  0  0  0  0  0  0  0  0  0  0  0
    3.2352   -1.6619    3.2648 H   0  0  0  0  0  0  0  0  0  0  0  0
   -2.0996   -0.5004    1.8885 H   0  0  0  0  0  0  0  0  0  0  0  0
   -1.6445   -2.1235    1.3413 H   0  0  0  0  0  0  0  0  0  0  0  0
   -3.2270   -2.0584   -0.4903 H   0  0  0  0  0  0  0  0  0  0  0  0
   -4.0363   -1.8764    1.0566 H   0  0  0  0  0  0  0  0  0  0  0  0
  1  2  1  0
  2  3  1  0
  3  4  1  0
  2  5  1  0
  5  6  1  0
  6  7  1  0
  7  8  1  0
  8  9  2  0
  9 10  1  0
 10 11  2  0
 11 12  1  0
 12 13  1  0
 13 14  2  0
 14 15  1  0
 15 16  2  0
 16 17  1  0
 17 18  1  0
 17 19  2  0
 19 20  1  0
 11 21  1  0
 21 22  1  0
 21 23  2  0
  7 24  1  0
 24 25  1  0
 25  2  1  0
 23  8  1  0
 19 13  1  0
  1 26  1  0
  1 27  1  0
  1 28  1  0
  3 29  1  0
  3 30  1  0
  4 31  1  0
  4 32  1  0
  5 33  1  0
  5 34  1  0
  6 35  1  0
  6 36  1  0
  9 37  1  0
 14 38  1  0
 15 39  1  0
 16 40  1  0
 22 41  1  0
 22 42  1  0
 24 43  1  0
 24 44  1  0
 25 45  1  0
 25 46  1  0
M  END
>  <mol_id>  (1) 
26663

>  <source_index>  (1) 
1

>  <layer>  (1) 
L1

>  <uniprot>  (1) 
Q06124

>  <paff>  (1) 
7.6383000000000001

>  <smiles>  (1) 
CC1(CCN(CC1)c2cnc(c(n2)N)Sc3cccc(c3Cl)Cl)CN

$$$$
