L1:Q06124:26663


 29 31  0  0  0  0  0  0  0  0999 V2000
   24.4627   20.8733    2.7634 C   0  0  0  0  0  0  0  0  0  0  0  0
   23.7976   19.9939    3.6247 C   0  0  0  0  0  0  0  0  0  0  0  0
   22.4516   19.9386    3.7926 N   0  0  0  0  0  0  0  0  0  0  0  0
   21.7458   20.8188    3.0454 C   0  0  0  0  0  0  0  0  0  0  0  0
   22.3780   21.7189    2.1688 C   0  0  0  0  0  0  0  0  0  0  0  0
   21.6900   22.6076    1.3578 N   0  0  0  0  0  0  0  0  0  0  0  0
   23.7224   21.7327    2.0227 N   0  0  0  0  0  0  0  0  0  0  0  0
   22.2959   23.1902    0.7956 H   0  0  0  0  0  0  0  0  0  0  0  0
   20.8335   23.0042    1.7182 H   0  0  0  0  0  0  0  0  0  0  0  0
   29.5202   19.5621    1.5389 C   0  0  0  0  0  0  0  0  0  0  0  0
   28.7835   20.7373    2.2174 C   0  0  0  0  0  0  0  0  0  0  0  0
   27.7773   21.3280    1.1924 C   0  0  0  0  0  0  0  0  0  0  0  0
   26.5345   21.9241    1.8558 C   0  0  0  0  0  0  0  0  0  0  0  0
   25.8384   20.9001    2.6251 N   0  0  0  0  0  0  0  0  0  0  0  0
   26.6045   19.7809    3.1746 C   0  0  0  0  0  0  0  0  0  0  0  0
   28.0346   20.2290    3.4772 C   0  0  0  0  0  0  0  0  0  0  0  0
   29.8015   21.8425    2.6154 C   0  0  0  0  0  0  0  0  0  0  0  0
   30.3470   21.6875    3.9605 N   0  0  0  0  0  0  0  0  0  0  0  0
   30.9107   20.8403    4.0133 H   0  0  0  0  0  0  0  0  0  0  0  0
   30.9839   22.4588    4.1585 H   0  0  0  0  0  0  0  0  0  0  0  0
   19.9637   20.7822    3.2171 S   0  0  0  0  0  0  0  0  0  0  0  0
   19.8079   20.4663    4.9765 C   0  0  0  0  0  0  0  0  0  0  0  0
   20.8524   20.9262    5.7958 C   0  0  0  0  0  0  0  0  0  0  0  0
   20.8191   20.7262    7.1750 C   0  0  0  0  0  0  0  0  0  0  0  0
   19.7414   20.0598    7.7509 C   0  0  0  0  0  0  0  0  0  0  0  0
   18.6963   19.5886    6.9492 C   0  0  0  0  0  0  0  0  0  0  0  0
   17.4014   18.7657    7.7520 Cl  0  0  0  0  0  0  0  0  0  0  0  0
   18.7218   19.7833    5.5580 C   0  0  0  0  0  0  0  0  0  0  0  0
   17.4297   19.1688    4.5684 Cl  0  0  0  0  0  0  0  0  0  0  0  0
 10 11  1  0  0  0
 11 17  1  0  0  0
 17 18  1  0  0  0
 11 12  1  0  0  0
 12 13  1  0  0  0
 13 14  1  0  0  0
 14  1  1  0  0  0
  1  2  2  0  0  0
  2  3  1  0  0  0
  3  4  2  0  0  0
  4 21  1  0  0  0
 21 22  1  0  0  0
 22 23  2  0  0  0
 23 24  1  0  0  0
 24 25  2  0  0  0
 25 26  1  0  0  0
 26 27  1  0  0  0
 26 28  2  0  0  0
 28 29  1  0  0  0
  4  5  1  0  0  0
  5  6  1  0  0  0
  5  7  2  0  0  0
 14 15  1  0  0  0
 15 16  1  0  0  0
 16 11  1  0  0  0
  7  1  1  0  0  0
 28 22  1  0  0  0
 18 19  1  0  0  0
 18 20  1  0  0  0
  6  8  1  0  0  0
  6  9  1  0  0  0
M  END
> <minimizedAffinity>
-8.94140

$$$$
