L1:Q06124:32578
     RDKit          3D

 54 58  0  0  0  0  0  0  0  0999 V2000
   -1.3797   -2.5988    1.2783 C   0  0  0  0  0  0  0  0  0  0  0  0
   -1.5972   -1.3256    0.5084 C   0  0  0  0  0  0  0  0  0  0  0  0
   -2.8895   -0.8818    0.4988 N   0  0  0  0  0  0  0  0  0  0  0  0
   -3.0634    0.2343   -0.2551 C   0  0  0  0  0  0  0  0  0  0  0  0
   -4.1998    1.0419   -0.5565 C   0  0  0  0  0  0  0  0  0  0  0  0
   -5.5720    0.8538   -0.0967 C   0  0  0  0  0  0  0  0  0  0  0  0
   -6.1319   -0.4343   -0.0588 C   0  0  0  0  0  0  0  0  0  0  0  0
   -7.4477   -0.6280    0.3707 C   0  0  0  0  0  0  0  0  0  0  0  0
   -8.2176    0.4634    0.7701 C   0  0  0  0  0  0  0  0  0  0  0  0
   -7.6675    1.7453    0.7435 C   0  0  0  0  0  0  0  0  0  0  0  0
   -8.6304    3.0795    1.2572 Cl  0  0  0  0  0  0  0  0  0  0  0  0
   -6.3531    1.9405    0.3147 C   0  0  0  0  0  0  0  0  0  0  0  0
   -5.8364    3.1810    0.3323 F   0  0  0  0  0  0  0  0  0  0  0  0
   -3.8659    2.0478   -1.3908 N   0  0  0  0  0  0  0  0  0  0  0  0
   -2.5398    1.8912   -1.5791 N   0  0  0  0  0  0  0  0  0  0  0  0
   -2.0099    0.8196   -0.9312 C   0  0  0  0  0  0  0  0  0  0  0  0
   -0.7285    0.4110   -0.9388 N   0  0  0  0  0  0  0  0  0  0  0  0
   -0.5234   -0.6857   -0.1691 C   0  0  0  0  0  0  0  0  0  0  0  0
    0.7834   -1.1706   -0.0768 N   0  0  0  0  0  0  0  0  0  0  0  0
    1.4710   -0.9485    1.1943 C   0  0  0  0  0  0  0  0  0  0  0  0
    2.2451    0.3699    1.1582 C   0  0  0  0  0  0  0  0  0  0  0  0
    3.2423    0.4214   -0.0168 C   0  0  0  0  0  0  0  0  0  0  0  0
    2.4351    0.1881   -1.3270 C   0  0  0  0  0  0  0  0  0  0  0  0
    1.6053   -1.0984   -1.2836 C   0  0  0  0  0  0  0  0  0  0  0  0
    3.9531    1.7761   -0.0841 C   0  0  0  0  0  0  0  0  0  0  0  0
    5.1399    1.5886   -0.8718 O   0  0  0  0  0  0  0  0  0  0  0  0
    5.4523    0.1832   -0.8893 C   0  0  1  0  0  0  0  0  0  0  0  0
    6.9361   -0.0117   -0.6212 C   0  0  0  0  0  0  0  0  0  0  0  0
    4.4622   -0.5240    0.0750 C   0  0  1  0  0  0  0  0  0  0  0  0
    4.9740   -0.6373    1.4506 N   0  0  0  0  0  0  0  0  0  0  0  0
   -0.9296   -2.3882    2.2518 H   0  0  0  0  0  0  0  0  0  0  0  0
   -0.7436   -3.2932    0.7206 H   0  0  0  0  0  0  0  0  0  0  0  0
   -2.3346   -3.1058    1.4553 H   0  0  0  0  0  0  0  0  0  0  0  0
   -5.5473   -1.2995   -0.3687 H   0  0  0  0  0  0  0  0  0  0  0  0
   -7.8693   -1.6304    0.3929 H   0  0  0  0  0  0  0  0  0  0  0  0
   -9.2405    0.3096    1.1044 H   0  0  0  0  0  0  0  0  0  0  0  0
   -2.0462    2.5503   -2.1679 H   0  0  0  0  0  0  0  0  0  0  0  0
    0.7809   -0.9312    2.0448 H   0  0  0  0  0  0  0  0  0  0  0  0
    2.1565   -1.7851    1.3717 H   0  0  0  0  0  0  0  0  0  0  0  0
    1.5332    1.2011    1.0602 H   0  0  0  0  0  0  0  0  0  0  0  0
    2.7479    0.5249    2.1196 H   0  0  0  0  0  0  0  0  0  0  0  0
    3.0848    0.1588   -2.2082 H   0  0  0  0  0  0  0  0  0  0  0  0
    1.7643    1.0424   -1.4853 H   0  0  0  0  0  0  0  0  0  0  0  0
    2.2753   -1.9661   -1.2923 H   0  0  0  0  0  0  0  0  0  0  0  0
    0.9973   -1.1899   -2.1929 H   0  0  0  0  0  0  0  0  0  0  0  0
    3.3445    2.5636   -0.5394 H   0  0  0  0  0  0  0  0  0  0  0  0
    4.2676    2.1248    0.9065 H   0  0  0  0  0  0  0  0  0  0  0  0
    5.2597   -0.1660   -1.9111 H   0  0  0  0  0  0  0  0  0  0  0  0
    7.2395    0.4581    0.3204 H   0  0  0  0  0  0  0  0  0  0  0  0
    7.2017   -1.0726   -0.5989 H   0  0  0  0  0  0  0  0  0  0  0  0
    7.5255    0.4759   -1.4058 H   0  0  0  0  0  0  0  0  0  0  0  0
    4.2561   -1.5374   -0.2825 H   0  0  0  0  0  0  0  0  0  0  0  0
    4.3554   -1.2204    2.0109 H   0  0  0  0  0  0  0  0  0  0  0  0
    5.8747   -1.1157    1.4515 H   0  0  0  0  0  0  0  0  0  0  0  0
  1  2  1  0
  2  3  2  0
  3  4  1  0
  4  5  1  0
  5  6  1  0
  6  7  2  0
  7  8  1  0
  8  9  2  0
  9 10  1  0
 10 11  1  0
 10 12  2  0
 12 13  1  0
  5 14  2  0
 14 15  1  0
 15 16  1  0
 16 17  1  0
 17 18  2  0
 18 19  1  0
 19 20  1  0
 20 21  1  0
 21 22  1  0
 22 23  1  0
 23 24  1  0
 22 25  1  0
 25 26  1  0
 26 27  1  0
 27 28  1  0
 27 29  1  0
 29 30  1  0
 18  2  1  0
 24 19  1  0
 16  4  2  0
 29 22  1  0
 12  6  1  0
  1 31  1  0
  1 32  1  0
  1 33  1  0
  7 34  1  0
  8 35  1  0
  9 36  1  0
 15 37  1  0
 20 38  1  0
 20 39  1  0
 21 40  1  0
 21 41  1  0
 23 42  1  0
 23 43  1  0
 24 44  1  0
 24 45  1  0
 25 46  1  0
 25 47  1  0
 27 48  1  6
 28 49  1  0
 28 50  1  0
 28 51  1  0
 29 52  1  6
 30 53  1  0
 30 54  1  0
M  END
>  <mol_id>  (1) 
32578

>  <source_index>  (1) 
2

>  <layer>  (1) 
L1

>  <uniprot>  (1) 
Q06124

>  <paff>  (1) 
8.0088000000000008

>  <smiles>  (1) 
Cc1nc2c(-c3cccc(Cl)c3F)n[nH]c2nc1N1CCC2(CC1)CO[C@@H](C)[C@H]2N

$$$$
