L1:Q06124:32578
 OpenBabel09212617503D

 54 58  0  0  0  0  0  0  0  0999 V2000
   21.5126   22.2481    2.0290 C   0  0  0  0  0  0  0  0  0  0  0  0
   21.8910   21.1937    3.0321 C   0  0  0  0  0  0  0  0  0  0  0  0
   20.9026   20.8741    3.9199 N   0  0  0  0  0  0  0  0  0  0  0  0
   21.2956   19.9654    4.8495 C   0  0  0  0  0  0  0  0  0  0  0  0
   20.6316   19.3414    5.9468 C   0  0  0  0  0  0  0  0  0  0  0  0
   21.4683   18.5140    6.6062 N   0  0  0  0  0  0  0  0  0  0  0  0
   22.6223   18.5939    5.9131 N   0  0  0  0  0  0  0  0  0  0  0  0
   22.5784   19.4518    4.8591 C   0  0  0  0  0  0  0  0  0  0  0  0
   23.5709   19.7418    3.9989 N   0  0  0  0  0  0  0  0  0  0  0  0
   23.1943   20.6256    3.0427 C   0  0  0  0  0  0  0  0  0  0  0  0
   23.4136   18.0374    6.2111 H   0  0  0  0  0  0  0  0  0  0  0  0
   24.1412   20.9661    2.0738 N   0  0  0  0  0  0  0  0  0  0  0  0
   24.7389   19.8576    1.3309 C   0  0  0  0  0  0  0  0  0  0  0  0
   26.0130   19.3759    2.0260 C   0  0  0  0  0  0  0  0  0  0  0  0
   27.0329   20.5166    2.2164 C   0  0  0  0  0  0  0  0  0  0  0  0
   26.3269   21.6469    3.0206 C   0  0  0  0  0  0  0  0  0  0  0  0
   25.0163   22.0991    2.3698 C   0  0  0  0  0  0  0  0  0  0  0  0
   28.2692   20.0354    2.9813 C   0  0  0  0  0  0  0  0  0  0  0  0
   29.3187   20.9811    2.7199 O   0  0  0  0  0  0  0  0  0  0  0  0
   28.9824   21.7091    1.5240 C   0  0  1  0  0  0  0  0  0  0  0  0
   30.1991   21.7852    0.6155 C   0  0  0  0  0  0  0  0  0  0  0  0
   27.7000   21.0636    0.9334 C   0  0  1  0  0  0  0  0  0  0  0  0
   27.9838   19.9980   -0.0418 N   0  0  0  0  0  0  0  0  0  0  0  0
   27.1243   19.6983   -0.4980 H   0  0  0  0  0  0  0  0  0  0  0  0
   28.5788   20.3556   -0.7890 H   0  0  0  0  0  0  0  0  0  0  0  0
   19.2537   19.5423    6.3837 C   0  0  0  0  0  0  0  0  0  0  0  0
   18.1896   19.0651    5.6000 C   0  0  0  0  0  0  0  0  0  0  0  0
   16.8650   19.2584    6.0017 C   0  0  0  0  0  0  0  0  0  0  0  0
   16.5893   19.9282    7.1927 C   0  0  0  0  0  0  0  0  0  0  0  0
   17.6396   20.3986    7.9815 C   0  0  0  0  0  0  0  0  0  0  0  0
   17.2780   21.2096    9.4589 Cl  0  0  0  0  0  0  0  0  0  0  0  0
   18.9635   20.2063    7.5816 C   0  0  0  0  0  0  0  0  0  0  0  0
   19.9567   20.6383    8.3773 F   0  0  0  0  0  0  0  0  0  0  0  0
   20.4963   22.5428    2.1875 H   0  0  0  0  0  0  0  0  0  0  0  0
   21.6196   21.8542    1.0399 H   0  0  0  0  0  0  0  0  0  0  0  0
   22.1526   23.0976    2.1458 H   0  0  0  0  0  0  0  0  0  0  0  0
   24.9796   20.1855    0.3412 H   0  0  0  0  0  0  0  0  0  0  0  0
   24.0388   19.0494    1.2902 H   0  0  0  0  0  0  0  0  0  0  0  0
   26.4613   18.6072    1.4319 H   0  0  0  0  0  0  0  0  0  0  0  0
   25.7430   19.0086    2.9940 H   0  0  0  0  0  0  0  0  0  0  0  0
   26.9866   22.4870    3.0832 H   0  0  0  0  0  0  0  0  0  0  0  0
   26.0917   21.2583    3.9894 H   0  0  0  0  0  0  0  0  0  0  0  0
   25.2407   22.6116    1.4577 H   0  0  0  0  0  0  0  0  0  0  0  0
   24.5077   22.7434    3.0562 H   0  0  0  0  0  0  0  0  0  0  0  0
   28.5572   19.0631    2.6400 H   0  0  0  0  0  0  0  0  0  0  0  0
   28.0676   19.9686    4.0300 H   0  0  0  0  0  0  0  0  0  0  0  0
   28.7375   22.7361    1.6978 H   0  0  0  0  0  0  0  0  0  0  0  0
   30.5292   20.7955    0.3778 H   0  0  0  0  0  0  0  0  0  0  0  0
   30.9846   22.3129    1.1148 H   0  0  0  0  0  0  0  0  0  0  0  0
   29.9397   22.3007   -0.2855 H   0  0  0  0  0  0  0  0  0  0  0  0
   27.0961   21.7441    0.3702 H   0  0  0  0  0  0  0  0  0  0  0  0
   18.3882   18.5666    4.7185 H   0  0  0  0  0  0  0  0  0  0  0  0
   16.0914   18.9054    5.4169 H   0  0  0  0  0  0  0  0  0  0  0  0
   15.6121   20.0756    7.4898 H   0  0  0  0  0  0  0  0  0  0  0  0
  1  2  1  0  0  0  0
  1 34  1  0  0  0  0
  1 35  1  0  0  0  0
  1 36  1  0  0  0  0
  2  3  2  0  0  0  0
  3  4  1  0  0  0  0
  4  5  1  0  0  0  0
  5 26  1  0  0  0  0
  5  6  2  0  0  0  0
  6  7  1  0  0  0  0
  7  8  1  0  0  0  0
  7 11  1  0  0  0  0
  8  9  1  0  0  0  0
  8  4  2  0  0  0  0
  9 10  2  0  0  0  0
 10 12  1  0  0  0  0
 10  2  1  0  0  0  0
 12 13  1  0  0  0  0
 13 14  1  0  0  0  0
 13 37  1  0  0  0  0
 13 38  1  0  0  0  0
 14 15  1  0  0  0  0
 14 39  1  0  0  0  0
 14 40  1  0  0  0  0
 15 16  1  0  0  0  0
 15 18  1  0  0  0  0
 16 17  1  0  0  0  0
 16 41  1  0  0  0  0
 16 42  1  0  0  0  0
 17 12  1  0  0  0  0
 17 43  1  0  0  0  0
 17 44  1  0  0  0  0
 18 19  1  0  0  0  0
 18 45  1  0  0  0  0
 18 46  1  0  0  0  0
 19 20  1  0  0  0  0
 20 21  1  0  0  0  0
 20 22  1  0  0  0  0
 20 47  1  1  0  0  0
 21 48  1  0  0  0  0
 21 49  1  0  0  0  0
 21 50  1  0  0  0  0
 22 23  1  0  0  0  0
 22 15  1  0  0  0  0
 22 51  1  6  0  0  0
 23 24  1  0  0  0  0
 23 25  1  0  0  0  0
 26 27  2  0  0  0  0
 27 28  1  0  0  0  0
 27 52  1  0  0  0  0
 28 29  2  0  0  0  0
 28 53  1  0  0  0  0
 29 30  1  0  0  0  0
 29 54  1  0  0  0  0
 30 31  1  0  0  0  0
 30 32  2  0  0  0  0
 32 33  1  0  0  0  0
 32 26  1  0  0  0  0
M  END
>  <minimizedAffinity>
-10.89865

$$$$
