L1:Q06124:39617


 37 41  0  0  0  0  0  0  0  0999 V2000
   27.3854   19.0833    2.3607 C   0  0  0  0  0  0  0  0  0  0  0  0
   26.3732   18.5518    1.6375 N   0  0  0  0  0  0  0  0  0  0  0  0
   25.1286   18.8240    2.1042 C   0  0  0  0  0  0  0  0  0  0  0  0
   24.8500   19.5921    3.2399 C   0  0  0  0  0  0  0  0  0  0  0  0
   25.8886   20.1003    3.9448 N   0  0  0  0  0  0  0  0  0  0  0  0
   27.1466   19.8651    3.5057 C   0  0  0  0  0  0  0  0  0  0  0  0
   28.1485   20.3844    4.3060 N   0  0  0  0  0  0  0  0  0  0  0  0
   29.0305   20.6453    3.8806 H   0  0  0  0  0  0  0  0  0  0  0  0
   27.8081   20.9329    5.0840 H   0  0  0  0  0  0  0  0  0  0  0  0
   23.5632   19.8462    3.6822 N   0  0  0  0  0  0  0  0  0  0  0  0
   23.0912   19.1458    4.8752 C   0  0  0  0  0  0  0  0  0  0  0  0
   21.5730   18.9763    4.7973 C   0  0  0  0  0  0  0  0  0  0  0  0
   20.8085   20.3310    4.6569 C   0  0  0  0  0  0  0  0  0  0  0  0
   21.7650   21.4330    4.1655 C   0  0  0  0  0  0  0  0  0  0  0  0
   22.7479   20.9153    3.1178 C   0  0  0  0  0  0  0  0  0  0  0  0
   20.1820   20.7131    6.0019 C   0  0  0  0  0  0  0  0  0  0  0  0
   18.9691   19.9564    6.1320 O   0  0  0  0  0  0  0  0  0  0  0  0
   18.6173   19.4275    4.8397 C   0  0  0  0  0  0  0  0  0  0  0  0
   19.5377   20.1019    3.8108 C   0  0  0  0  0  0  0  0  0  0  0  0
   18.8830   21.3162    3.3052 N   0  0  0  0  0  0  0  0  0  0  0  0
   18.6364   21.9369    4.0762 H   0  0  0  0  0  0  0  0  0  0  0  0
   19.4913   21.8319    2.6753 H   0  0  0  0  0  0  0  0  0  0  0  0
   29.0274   18.7423    1.7480 S   0  0  0  0  0  0  0  0  0  0  0  0
   27.9702   20.3392   -5.1917 C   0  0  0  0  0  0  0  0  0  0  0  0
   28.3725   21.3099   -4.1194 C   0  0  0  0  0  0  0  0  0  0  0  0
   28.5431   22.4967   -4.4172 O   0  0  0  0  0  0  0  0  0  0  0  0
   28.5437   20.8769   -2.8238 N   0  0  0  0  0  0  0  0  0  0  0  0
   28.9123   21.8650   -1.7917 C   0  0  0  0  0  0  0  0  0  0  0  0
   28.9540   21.1440   -0.4454 C   0  0  0  0  0  0  0  0  0  0  0  0
   30.1547   21.3581    0.1584 F   0  0  0  0  0  0  0  0  0  0  0  0
   28.0040   21.6577    0.3790 F   0  0  0  0  0  0  0  0  0  0  0  0
   28.7091   19.7200   -0.8368 C   0  0  0  0  0  0  0  0  0  0  0  0
   28.7084   18.6065    0.0010 C   0  0  0  0  0  0  0  0  0  0  0  0
   28.4237   17.3610   -0.5684 C   0  0  0  0  0  0  0  0  0  0  0  0
   28.1703   17.2439   -1.9398 C   0  0  0  0  0  0  0  0  0  0  0  0
   28.1906   18.3692   -2.7697 C   0  0  0  0  0  0  0  0  0  0  0  0
   28.4586   19.6098   -2.2144 C   0  0  0  0  0  0  0  0  0  0  0  0
 24 25  1  0  0  0
 25 26  2  0  0  0
 25 27  1  0  0  0
 27 28  1  0  0  0
 28 29  1  0  0  0
 29 30  1  0  0  0
 29 31  1  0  0  0
 29 32  1  0  0  0
 32 33  2  0  0  0
 33 23  1  0  0  0
 23  1  1  0  0  0
  1  2  2  0  0  0
  2  3  1  0  0  0
  3  4  2  0  0  0
  4 10  1  0  0  0
 10 11  1  0  0  0
 11 12  1  0  0  0
 12 13  1  0  0  0
 13 14  1  0  0  0
 14 15  1  0  0  0
 13 16  1  0  0  0
 16 17  1  0  0  0
 17 18  1  0  0  0
 18 19  1  0  0  0
 19 20  1  0  0  0
  4  5  1  0  0  0
  5  6  2  0  0  0
  6  7  1  0  0  0
 33 34  1  0  0  0
 34 35  2  0  0  0
 35 36  1  0  0  0
 36 37  2  0  0  0
 37 27  1  0  0  0
 37 32  1  0  0  0
  6  1  1  0  0  0
 15 10  1  0  0  0
 19 13  1  0  0  0
 20 21  1  0  0  0
 20 22  1  0  0  0
  7  8  1  0  0  0
  7  9  1  0  0  0
M  END
> <minimizedAffinity>
-9.22511

$$$$
