L1:Q06124:39617
     RDKit          3D

 59 63  0  0  0  0  0  0  0  0999 V2000
    7.7501    2.0786   -0.9777 C   0  0  0  0  0  0  0  0  0  0  0  0
    7.6053    0.5892   -0.8568 C   0  0  0  0  0  0  0  0  0  0  0  0
    8.4228   -0.1417   -1.4258 O   0  0  0  0  0  0  0  0  0  0  0  0
    6.5753    0.0526   -0.1175 N   0  0  0  0  0  0  0  0  0  0  0  0
    6.4813   -1.4152    0.0016 C   0  0  0  0  0  0  0  0  0  0  0  0
    5.3144   -1.7366    0.9339 C   0  0  0  0  0  0  0  0  0  0  0  0
    4.4584   -2.6015    0.3244 F   0  0  0  0  0  0  0  0  0  0  0  0
    5.7768   -2.3628    2.0474 F   0  0  0  0  0  0  0  0  0  0  0  0
    4.7335   -0.3826    1.1988 C   0  0  0  0  0  0  0  0  0  0  0  0
    3.5938   -0.0884    1.9446 C   0  0  0  0  0  0  0  0  0  0  0  0
    2.6186   -1.3633    2.7165 S   0  0  0  0  0  0  0  0  0  0  0  0
    1.0425   -1.1064    1.9180 C   0  0  0  0  0  0  0  0  0  0  0  0
    0.0799   -0.5585    2.6948 N   0  0  0  0  0  0  0  0  0  0  0  0
   -1.1175   -0.3759    2.0833 C   0  0  0  0  0  0  0  0  0  0  0  0
   -1.3967   -0.7115    0.7541 C   0  0  0  0  0  0  0  0  0  0  0  0
   -2.6343   -0.5082    0.1683 N   0  0  0  0  0  0  0  0  0  0  0  0
   -2.7503   -0.6766   -1.2790 C   0  0  0  0  0  0  0  0  0  0  0  0
   -3.8683    0.2238   -1.8071 C   0  0  0  0  0  0  0  0  0  0  0  0
   -5.2527   -0.0585   -1.1413 C   0  0  0  0  0  0  0  0  0  0  0  0
   -5.0605   -0.8214    0.1823 C   0  0  0  0  0  0  0  0  0  0  0  0
   -3.8445   -0.3241    0.9606 C   0  0  0  0  0  0  0  0  0  0  0  0
   -6.1376   -0.8550   -2.1058 C   0  0  0  0  0  0  0  0  0  0  0  0
   -6.6940    0.0829   -3.0393 O   0  0  0  0  0  0  0  0  0  0  0  0
   -6.5199    1.4121   -2.5133 C   0  0  0  0  0  0  0  0  0  0  0  0
   -6.0463    1.2631   -1.0593 C   0  0  1  0  0  0  0  0  0  0  0  0
   -7.2178    1.2474   -0.1727 N   0  0  0  0  0  0  0  0  0  0  0  0
   -0.4061   -1.2492    0.0035 N   0  0  0  0  0  0  0  0  0  0  0  0
    0.8000   -1.4620    0.5786 C   0  0  0  0  0  0  0  0  0  0  0  0
    1.7659   -1.9750   -0.2687 N   0  0  0  0  0  0  0  0  0  0  0  0
    3.2406    1.2567    2.0945 C   0  0  0  0  0  0  0  0  0  0  0  0
    4.0011    2.2660    1.4932 C   0  0  0  0  0  0  0  0  0  0  0  0
    5.1332    1.9529    0.7344 C   0  0  0  0  0  0  0  0  0  0  0  0
    5.4999    0.6247    0.5900 C   0  0  0  0  0  0  0  0  0  0  0  0
    8.6559    2.3074   -1.5487 H   0  0  0  0  0  0  0  0  0  0  0  0
    7.8595    2.5320    0.0101 H   0  0  0  0  0  0  0  0  0  0  0  0
    6.8998    2.4973   -1.5208 H   0  0  0  0  0  0  0  0  0  0  0  0
    6.3226   -1.8280   -1.0017 H   0  0  0  0  0  0  0  0  0  0  0  0
    7.4312   -1.8005    0.3895 H   0  0  0  0  0  0  0  0  0  0  0  0
   -1.8667    0.0817    2.7192 H   0  0  0  0  0  0  0  0  0  0  0  0
   -1.8288   -0.3820   -1.7966 H   0  0  0  0  0  0  0  0  0  0  0  0
   -2.9472   -1.7271   -1.5240 H   0  0  0  0  0  0  0  0  0  0  0  0
   -3.9229    0.1206   -2.8979 H   0  0  0  0  0  0  0  0  0  0  0  0
   -3.5680    1.2628   -1.6147 H   0  0  0  0  0  0  0  0  0  0  0  0
   -4.9177   -1.8898   -0.0349 H   0  0  0  0  0  0  0  0  0  0  0  0
   -5.9499   -0.7773    0.8181 H   0  0  0  0  0  0  0  0  0  0  0  0
   -3.9610    0.7332    1.2252 H   0  0  0  0  0  0  0  0  0  0  0  0
   -3.7958   -0.9020    1.8914 H   0  0  0  0  0  0  0  0  0  0  0  0
   -6.9744   -1.3408   -1.5907 H   0  0  0  0  0  0  0  0  0  0  0  0
   -5.5901   -1.6273   -2.6558 H   0  0  0  0  0  0  0  0  0  0  0  0
   -7.4563    1.9698   -2.6183 H   0  0  0  0  0  0  0  0  0  0  0  0
   -5.7625    1.9153   -3.1245 H   0  0  0  0  0  0  0  0  0  0  0  0
   -5.4300    2.1173   -0.7611 H   0  0  0  0  0  0  0  0  0  0  0  0
   -7.8667    0.5110   -0.4506 H   0  0  0  0  0  0  0  0  0  0  0  0
   -6.9511    1.0766    0.7929 H   0  0  0  0  0  0  0  0  0  0  0  0
    2.5028   -2.5520    0.1198 H   0  0  0  0  0  0  0  0  0  0  0  0
    1.4253   -2.1885   -1.1962 H   0  0  0  0  0  0  0  0  0  0  0  0
    2.3663    1.5349    2.6818 H   0  0  0  0  0  0  0  0  0  0  0  0
    3.7039    3.3055    1.6175 H   0  0  0  0  0  0  0  0  0  0  0  0
    5.6744    2.7742    0.2869 H   0  0  0  0  0  0  0  0  0  0  0  0
  1  2  1  0
  2  3  2  0
  2  4  1  0
  4  5  1  0
  5  6  1  0
  6  7  1  0
  6  8  1  0
  6  9  1  0
  9 10  2  0
 10 11  1  0
 11 12  1  0
 12 13  2  0
 13 14  1  0
 14 15  2  0
 15 16  1  0
 16 17  1  0
 17 18  1  0
 18 19  1  0
 19 20  1  0
 20 21  1  0
 19 22  1  0
 22 23  1  0
 23 24  1  0
 24 25  1  0
 25 26  1  0
 15 27  1  0
 27 28  2  0
 28 29  1  0
 10 30  1  0
 30 31  2  0
 31 32  1  0
 32 33  2  0
 33  4  1  0
 33  9  1  0
 28 12  1  0
 21 16  1  0
 25 19  1  0
  1 34  1  0
  1 35  1  0
  1 36  1  0
  5 37  1  0
  5 38  1  0
 14 39  1  0
 17 40  1  0
 17 41  1  0
 18 42  1  0
 18 43  1  0
 20 44  1  0
 20 45  1  0
 21 46  1  0
 21 47  1  0
 22 48  1  0
 22 49  1  0
 24 50  1  0
 24 51  1  0
 25 52  1  1
 26 53  1  0
 26 54  1  0
 29 55  1  0
 29 56  1  0
 30 57  1  0
 31 58  1  0
 32 59  1  0
M  END
>  <mol_id>  (1) 
39617

>  <source_index>  (1) 
3

>  <layer>  (1) 
L1

>  <uniprot>  (1) 
Q06124

>  <paff>  (1) 
7.585

>  <smiles>  (1) 
CC(=O)N1CC(F)(F)c2c(Sc3ncc(N4CCC5(CC4)COC[C@H]5N)nc3N)cccc21

$$$$
