L1:Q06124:53896
     RDKit          3D

 42 44  0  0  0  0  0  0  0  0999 V2000
    5.2611   -0.0599   -0.9393 C   0  0  0  0  0  0  0  0  0  0  0  0
    4.4086    0.4803    0.2217 C   0  0  0  0  0  0  0  0  0  0  0  0
    5.3419    1.1234    1.1625 N   0  0  0  0  0  0  0  0  0  0  0  0
    3.4266    1.5546   -0.2861 C   0  0  0  0  0  0  0  0  0  0  0  0
    2.1052    0.9415   -0.7495 C   0  0  0  0  0  0  0  0  0  0  0  0
    1.4661    0.2331    0.3617 N   0  0  0  0  0  0  0  0  0  0  0  0
    0.0958    0.0523    0.3055 C   0  0  0  0  0  0  0  0  0  0  0  0
   -0.6697   -0.3632    1.3995 C   0  0  0  0  0  0  0  0  0  0  0  0
   -2.0140   -0.5516    1.3788 N   0  0  0  0  0  0  0  0  0  0  0  0
   -2.6143   -0.2780    0.1951 C   0  0  0  0  0  0  0  0  0  0  0  0
   -4.0696   -0.4702    0.1845 C   0  0  0  0  0  0  0  0  0  0  0  0
   -4.5740   -1.7871    0.1896 C   0  0  0  0  0  0  0  0  0  0  0  0
   -5.9451   -2.0381    0.1700 C   0  0  0  0  0  0  0  0  0  0  0  0
   -6.8404   -0.9734    0.1515 C   0  0  0  0  0  0  0  0  0  0  0  0
   -6.3673    0.3424    0.1614 C   0  0  0  0  0  0  0  0  0  0  0  0
   -7.5542    1.6029    0.1463 Cl  0  0  0  0  0  0  0  0  0  0  0  0
   -4.9860    0.6027    0.1823 C   0  0  0  0  0  0  0  0  0  0  0  0
   -4.4099    2.2432    0.2308 Cl  0  0  0  0  0  0  0  0  0  0  0  0
   -1.8744    0.1177   -0.9323 C   0  0  0  0  0  0  0  0  0  0  0  0
   -2.4441    0.3932   -2.1630 N   0  0  0  0  0  0  0  0  0  0  0  0
   -0.5361    0.2929   -0.8690 N   0  0  0  0  0  0  0  0  0  0  0  0
    2.2958   -0.2881    1.4420 C   0  0  0  0  0  0  0  0  0  0  0  0
    3.6668   -0.6910    0.9003 C   0  0  0  0  0  0  0  0  0  0  0  0
    5.9681   -0.8239   -0.5942 H   0  0  0  0  0  0  0  0  0  0  0  0
    4.6338   -0.5160   -1.7134 H   0  0  0  0  0  0  0  0  0  0  0  0
    5.8416    0.7382   -1.4175 H   0  0  0  0  0  0  0  0  0  0  0  0
    6.0164    0.4436    1.5125 H   0  0  0  0  0  0  0  0  0  0  0  0
    4.8399    1.4788    1.9751 H   0  0  0  0  0  0  0  0  0  0  0  0
    3.8727    2.1398   -1.1000 H   0  0  0  0  0  0  0  0  0  0  0  0
    3.1995    2.2732    0.5147 H   0  0  0  0  0  0  0  0  0  0  0  0
    2.2679    0.2540   -1.5879 H   0  0  0  0  0  0  0  0  0  0  0  0
    1.4741    1.7646   -1.1083 H   0  0  0  0  0  0  0  0  0  0  0  0
   -0.2205   -0.5466    2.3684 H   0  0  0  0  0  0  0  0  0  0  0  0
   -3.8817   -2.6288    0.2171 H   0  0  0  0  0  0  0  0  0  0  0  0
   -6.3124   -3.0618    0.1760 H   0  0  0  0  0  0  0  0  0  0  0  0
   -7.9096   -1.1732    0.1388 H   0  0  0  0  0  0  0  0  0  0  0  0
   -1.7649    0.6858   -2.8540 H   0  0  0  0  0  0  0  0  0  0  0  0
   -3.2296   -0.1572   -2.4737 H   0  0  0  0  0  0  0  0  0  0  0  0
    2.3944    0.4641    2.2332 H   0  0  0  0  0  0  0  0  0  0  0  0
    1.8532   -1.1855    1.8895 H   0  0  0  0  0  0  0  0  0  0  0  0
    4.2697   -1.1232    1.7093 H   0  0  0  0  0  0  0  0  0  0  0  0
    3.5189   -1.5054    0.1771 H   0  0  0  0  0  0  0  0  0  0  0  0
  1  2  1  0
  2  3  1  0
  2  4  1  0
  4  5  1  0
  5  6  1  0
  6  7  1  0
  7  8  2  0
  8  9  1  0
  9 10  2  0
 10 11  1  0
 11 12  2  0
 12 13  1  0
 13 14  2  0
 14 15  1  0
 15 16  1  0
 15 17  2  0
 17 18  1  0
 10 19  1  0
 19 20  1  0
 19 21  2  0
  6 22  1  0
 22 23  1  0
 23  2  1  0
 21  7  1  0
 17 11  1  0
  1 24  1  0
  1 25  1  0
  1 26  1  0
  3 27  1  0
  3 28  1  0
  4 29  1  0
  4 30  1  0
  5 31  1  0
  5 32  1  0
  8 33  1  0
 12 34  1  0
 13 35  1  0
 14 36  1  0
 20 37  1  0
 20 38  1  0
 22 39  1  0
 22 40  1  0
 23 41  1  0
 23 42  1  0
M  END
>  <mol_id>  (1) 
53896

>  <source_index>  (1) 
4

>  <layer>  (1) 
L1

>  <uniprot>  (1) 
Q06124

>  <paff>  (1) 
7.1367000000000003

>  <smiles>  (1) 
CC1(N)CCN(CC1)c1cnc(c(N)n1)-c1cccc(Cl)c1Cl

$$$$
