L1:Q06124:53896
 OpenBabel09212617503D

 42 44  0  0  0  0  0  0  0  0999 V2000
   23.3063   20.6204    3.4709 C   0  0  0  0  0  0  0  0  0  0  0  0
   22.1557   21.3917    3.2798 C   0  0  0  0  0  0  0  0  0  0  0  0
   20.9699   21.1846    3.9076 N   0  0  0  0  0  0  0  0  0  0  0  0
   20.9439   20.1244    4.7511 C   0  0  0  0  0  0  0  0  0  0  0  0
   22.0873   19.3421    4.9869 C   0  0  0  0  0  0  0  0  0  0  0  0
   22.1095   18.2604    5.8497 N   0  0  0  0  0  0  0  0  0  0  0  0
   23.2495   19.5829    4.3410 N   0  0  0  0  0  0  0  0  0  0  0  0
   23.0101   17.7994    5.8793 H   0  0  0  0  0  0  0  0  0  0  0  0
   21.5693   18.3005    6.7000 H   0  0  0  0  0  0  0  0  0  0  0  0
   28.1573   19.9576    1.4043 C   0  0  0  0  0  0  0  0  0  0  0  0
   27.1258   21.0965    1.4770 C   0  0  0  0  0  0  0  0  0  0  0  0
   27.7102   22.2377    0.7519 N   0  0  0  0  0  0  0  0  0  0  0  0
   25.8239   20.6902    0.7584 C   0  0  0  0  0  0  0  0  0  0  0  0
   24.8543   19.9777    1.7012 C   0  0  0  0  0  0  0  0  0  0  0  0
   24.5000   20.8608    2.8145 N   0  0  0  0  0  0  0  0  0  0  0  0
   25.4307   21.9115    3.2108 C   0  0  0  0  0  0  0  0  0  0  0  0
   26.8681   21.4603    2.9549 C   0  0  0  0  0  0  0  0  0  0  0  0
   28.5821   22.5287    1.1932 H   0  0  0  0  0  0  0  0  0  0  0  0
   27.0843   23.0411    0.7884 H   0  0  0  0  0  0  0  0  0  0  0  0
   19.6544   19.8982    5.4152 C   0  0  0  0  0  0  0  0  0  0  0  0
   18.6076   19.3163    4.6708 C   0  0  0  0  0  0  0  0  0  0  0  0
   17.3561   19.0842    5.2392 C   0  0  0  0  0  0  0  0  0  0  0  0
   17.1293   19.4248    6.5689 C   0  0  0  0  0  0  0  0  0  0  0  0
   18.1545   19.9891    7.3342 C   0  0  0  0  0  0  0  0  0  0  0  0
   17.7840   20.3721    8.9815 Cl  0  0  0  0  0  0  0  0  0  0  0  0
   19.4193   20.2248    6.7676 C   0  0  0  0  0  0  0  0  0  0  0  0
   20.6975   20.8939    7.7393 Cl  0  0  0  0  0  0  0  0  0  0  0  0
   22.2121   22.1765    2.6121 H   0  0  0  0  0  0  0  0  0  0  0  0
   28.3372   19.7041    0.3804 H   0  0  0  0  0  0  0  0  0  0  0  0
   27.7800   19.1010    1.9228 H   0  0  0  0  0  0  0  0  0  0  0  0
   29.0722   20.2755    1.8591 H   0  0  0  0  0  0  0  0  0  0  0  0
   26.0655   20.0335   -0.0511 H   0  0  0  0  0  0  0  0  0  0  0  0
   25.3485   21.5803    0.4025 H   0  0  0  0  0  0  0  0  0  0  0  0
   25.3181   19.0928    2.0843 H   0  0  0  0  0  0  0  0  0  0  0  0
   23.9671   19.7176    1.1625 H   0  0  0  0  0  0  0  0  0  0  0  0
   25.3054   22.1215    4.2525 H   0  0  0  0  0  0  0  0  0  0  0  0
   25.2315   22.7921    2.6365 H   0  0  0  0  0  0  0  0  0  0  0  0
   27.0693   20.6003    3.5589 H   0  0  0  0  0  0  0  0  0  0  0  0
   27.5119   22.2783    3.2027 H   0  0  0  0  0  0  0  0  0  0  0  0
   18.7713   19.0571    3.6854 H   0  0  0  0  0  0  0  0  0  0  0  0
   16.6014   18.6617    4.6763 H   0  0  0  0  0  0  0  0  0  0  0  0
   16.2022   19.2606    6.9914 H   0  0  0  0  0  0  0  0  0  0  0  0
  1  2  2  0  0  0  0
  2  3  1  0  0  0  0
  2 28  1  0  0  0  0
  3  4  2  0  0  0  0
  4 20  1  0  0  0  0
  4  5  1  0  0  0  0
  5  6  1  0  0  0  0
  5  7  2  0  0  0  0
  6  8  1  0  0  0  0
  6  9  1  0  0  0  0
  7  1  1  0  0  0  0
 10 11  1  0  0  0  0
 10 29  1  0  0  0  0
 10 30  1  0  0  0  0
 10 31  1  0  0  0  0
 11 12  1  0  0  0  0
 11 13  1  0  0  0  0
 12 18  1  0  0  0  0
 12 19  1  0  0  0  0
 13 14  1  0  0  0  0
 13 32  1  0  0  0  0
 13 33  1  0  0  0  0
 14 15  1  0  0  0  0
 14 34  1  0  0  0  0
 14 35  1  0  0  0  0
 15  1  1  0  0  0  0
 15 16  1  0  0  0  0
 16 17  1  0  0  0  0
 16 36  1  0  0  0  0
 16 37  1  0  0  0  0
 17 11  1  0  0  0  0
 17 38  1  0  0  0  0
 17 39  1  0  0  0  0
 20 21  2  0  0  0  0
 21 22  1  0  0  0  0
 21 40  1  0  0  0  0
 22 23  2  0  0  0  0
 22 41  1  0  0  0  0
 23 24  1  0  0  0  0
 23 42  1  0  0  0  0
 24 25  1  0  0  0  0
 24 26  2  0  0  0  0
 26 27  1  0  0  0  0
 26 20  1  0  0  0  0
M  END
>  <minimizedAffinity>
-10.13197

$$$$
