L1:Q06124:82531
     RDKit          3D

 50 53  0  0  0  0  0  0  0  0999 V2000
   -0.3914    1.8831   -1.8165 O   0  0  0  0  0  0  0  0  0  0  0  0
   -0.9860    1.2064   -1.0023 C   0  0  0  0  0  0  0  0  0  0  0  0
   -0.3314    0.1585   -0.1511 C   0  0  0  0  0  0  0  0  0  0  0  0
    0.9202   -0.1691   -0.0782 N   0  0  0  0  0  0  0  0  0  0  0  0
    1.7710    0.4990   -0.8939 N   0  0  0  0  0  0  0  0  0  0  0  0
    3.1516    0.2519   -0.8435 C   0  0  0  0  0  0  0  0  0  0  0  0
    4.0026    0.9328   -1.7283 C   0  0  0  0  0  0  0  0  0  0  0  0
    5.3830    0.7114   -1.7165 C   0  0  0  0  0  0  0  0  0  0  0  0
    5.9212   -0.1997   -0.8076 C   0  0  0  0  0  0  0  0  0  0  0  0
    7.6629   -0.5128   -0.8006 S   0  0  0  0  0  6  0  0  0  0  0  0
    8.2206    0.1270    0.3682 O   0  0  0  0  0  0  0  0  0  0  0  0
    8.1733   -0.2650   -2.1322 O   0  0  0  0  0  0  0  0  0  0  0  0
    7.7884   -2.1099   -0.6044 O   0  0  0  0  0  0  0  0  0  0  0  0
    5.0968   -0.8957    0.0767 C   0  0  0  0  0  0  0  0  0  0  0  0
    3.7184   -0.6648    0.0542 C   0  0  0  0  0  0  0  0  0  0  0  0
   -1.4210   -0.4424    0.6664 C   0  0  0  0  0  0  0  0  0  0  0  0
   -1.2943   -1.5371    1.6431 C   0  0  0  0  0  0  0  0  0  0  0  0
   -0.2100   -2.4225    1.6421 C   0  0  0  0  0  0  0  0  0  0  0  0
   -0.1377   -3.4548    2.5860 C   0  0  0  0  0  0  0  0  0  0  0  0
   -1.1598   -3.6055    3.5318 C   0  0  0  0  0  0  0  0  0  0  0  0
   -1.0860   -4.6889    4.5209 N   0  0  0  0  0  4  0  0  0  0  0  0
   -0.1081   -5.4479    4.4707 O   0  0  0  0  0  0  0  0  0  0  0  0
   -2.0068   -4.7789    5.3448 O   0  0  0  0  0  1  0  0  0  0  0  0
   -2.2543   -2.7329    3.5355 C   0  0  0  0  0  0  0  0  0  0  0  0
   -2.3188   -1.7046    2.5890 C   0  0  0  0  0  0  0  0  0  0  0  0
   -2.5472    0.1623    0.3951 N   0  0  0  0  0  0  0  0  0  0  0  0
   -2.3068    1.1328   -0.5855 N   0  0  0  0  0  0  0  0  0  0  0  0
   -3.4012    1.9090   -1.0424 C   0  0  0  0  0  0  0  0  0  0  0  0
   -3.2446    2.9034   -2.0200 C   0  0  0  0  0  0  0  0  0  0  0  0
   -4.3369    3.6630   -2.4616 C   0  0  0  0  0  0  0  0  0  0  0  0
   -5.6062    3.4310   -1.9228 C   0  0  0  0  0  0  0  0  0  0  0  0
   -6.7529    4.2241   -2.3828 N   0  0  0  0  0  4  0  0  0  0  0  0
   -7.8582    3.9861   -1.8756 O   0  0  0  0  0  0  0  0  0  0  0  0
   -6.5473    5.0841   -3.2508 O   0  0  0  0  0  1  0  0  0  0  0  0
   -5.7870    2.4462   -0.9478 C   0  0  0  0  0  0  0  0  0  0  0  0
   -4.6876    1.6945   -0.5154 C   0  0  0  0  0  0  0  0  0  0  0  0
    1.4484    1.2178   -1.5512 H   0  0  0  0  0  0  0  0  0  0  0  0
    3.5925    1.6463   -2.4397 H   0  0  0  0  0  0  0  0  0  0  0  0
    6.0222    1.2500   -2.4127 H   0  0  0  0  0  0  0  0  0  0  0  0
    8.3112   -2.4547   -1.3592 H   0  0  0  0  0  0  0  0  0  0  0  0
    5.5145   -1.6067    0.7858 H   0  0  0  0  0  0  0  0  0  0  0  0
    3.0833   -1.2040    0.7520 H   0  0  0  0  0  0  0  0  0  0  0  0
    0.5898   -2.3468    0.9095 H   0  0  0  0  0  0  0  0  0  0  0  0
    0.7164   -4.1301    2.5655 H   0  0  0  0  0  0  0  0  0  0  0  0
   -3.0597   -2.8377    4.2606 H   0  0  0  0  0  0  0  0  0  0  0  0
   -3.1761   -1.0326    2.6021 H   0  0  0  0  0  0  0  0  0  0  0  0
   -2.2758    3.1171   -2.4648 H   0  0  0  0  0  0  0  0  0  0  0  0
   -4.1756    4.4257   -3.2217 H   0  0  0  0  0  0  0  0  0  0  0  0
   -6.7659    2.2488   -0.5152 H   0  0  0  0  0  0  0  0  0  0  0  0
   -4.8538    0.9328    0.2442 H   0  0  0  0  0  0  0  0  0  0  0  0
  1  2  2  0
  2  3  1  0
  3  4  2  0
  4  5  1  0
  5  6  1  0
  6  7  2  0
  7  8  1  0
  8  9  2  0
  9 10  1  0
 10 11  2  0
 10 12  2  0
 10 13  1  0
  9 14  1  0
 14 15  2  0
  3 16  1  0
 16 17  1  0
 17 18  2  0
 18 19  1  0
 19 20  2  0
 20 21  1  0
 21 22  2  0
 21 23  1  0
 20 24  1  0
 24 25  2  0
 16 26  2  0
 26 27  1  0
 27 28  1  0
 28 29  2  0
 29 30  1  0
 30 31  2  0
 31 32  1  0
 32 33  2  0
 32 34  1  0
 31 35  1  0
 35 36  2  0
 27  2  1  0
 36 28  1  0
 15  6  1  0
 25 17  1  0
  5 37  1  0
  7 38  1  0
  8 39  1  0
 13 40  1  0
 14 41  1  0
 15 42  1  0
 18 43  1  0
 19 44  1  0
 24 45  1  0
 25 46  1  0
 29 47  1  0
 30 48  1  0
 35 49  1  0
 36 50  1  0
M  CHG  4  21   1  23  -1  32   1  34  -1
M  END
>  <mol_id>  (1) 
82531

>  <source_index>  (1) 
5

>  <layer>  (1) 
L1

>  <uniprot>  (1) 
Q06124

>  <paff>  (1) 
7.1486999999999998

>  <smiles>  (1) 
OS(=O)(=O)c1ccc(N\N=C2\C(=O)N(N=C2c2ccc(cc2)[N+]([O-])=O)c2ccc(cc2)[N+]([O-])=O)cc1 |c:14|

$$$$
