L1:Q06124:82531


 38 41  0  0  0  0  0  0  0  0999 V2000
   26.0178   21.7953    3.8212 O   0  0  0  0  0  0  0  0  0  0  0  0
   25.8065   20.7958    3.1648 C   0  0  0  0  0  0  0  0  0  0  0  0
   26.8168   20.1706    2.2484 C   0  0  0  0  0  0  0  0  0  0  0  0
   28.0478   20.5141    2.0348 N   0  0  0  0  0  0  0  0  0  0  0  0
   26.1352   19.0026    1.6257 C   0  0  0  0  0  0  0  0  0  0  0  0
   24.9253   18.9014    2.1090 N   0  0  0  0  0  0  0  0  0  0  0  0
   24.7178   19.9500    3.0137 N   0  0  0  0  0  0  0  0  0  0  0  0
   26.6983   18.0771    0.6283 C   0  0  0  0  0  0  0  0  0  0  0  0
   26.4535   18.2117   -0.7434 C   0  0  0  0  0  0  0  0  0  0  0  0
   27.0039   17.3007   -1.6538 C   0  0  0  0  0  0  0  0  0  0  0  0
   27.7983   16.2454   -1.1877 C   0  0  0  0  0  0  0  0  0  0  0  0
   28.0410   16.0944    0.1826 C   0  0  0  0  0  0  0  0  0  0  0  0
   27.4871   17.0088    1.0851 C   0  0  0  0  0  0  0  0  0  0  0  0
   28.3745   15.2882   -2.1414 N   0  0  0  0  0  0  0  0  0  0  0  0
   27.9071   15.2672   -3.2886 O   0  0  0  0  0  0  0  0  0  0  0  0
   29.2922   14.5589   -1.7405 O   0  0  0  0  0  0  0  0  0  0  0  0
   23.4571   20.0419    3.6550 C   0  0  0  0  0  0  0  0  0  0  0  0
   23.0607   19.1247    4.6402 C   0  0  0  0  0  0  0  0  0  0  0  0
   21.8103   19.2289    5.2653 C   0  0  0  0  0  0  0  0  0  0  0  0
   20.9389   20.2615    4.9056 C   0  0  0  0  0  0  0  0  0  0  0  0
   21.3113   21.1870    3.9268 C   0  0  0  0  0  0  0  0  0  0  0  0
   22.5631   21.0717    3.3101 C   0  0  0  0  0  0  0  0  0  0  0  0
   19.6285   20.3744    5.5581 N   0  0  0  0  0  0  0  0  0  0  0  0
   18.6239   20.1134    4.8813 O   0  0  0  0  0  0  0  0  0  0  0  0
   19.6052   20.7239    6.7466 O   0  0  0  0  0  0  0  0  0  0  0  0
   28.4993   21.6021    2.7043 N   0  0  0  0  0  0  0  0  0  0  0  0
   27.8927   22.1593    3.3160 H   0  0  0  0  0  0  0  0  0  0  0  0
   29.8442   21.9919    2.6102 C   0  0  0  0  0  0  0  0  0  0  0  0
   30.4708   21.9950    1.3540 C   0  0  0  0  0  0  0  0  0  0  0  0
   31.8107   22.3697    1.2165 C   0  0  0  0  0  0  0  0  0  0  0  0
   32.5338   22.7488    2.3475 C   0  0  0  0  0  0  0  0  0  0  0  0
   31.9374   22.7465    3.6086 C   0  0  0  0  0  0  0  0  0  0  0  0
   30.5971   22.3697    3.7318 C   0  0  0  0  0  0  0  0  0  0  0  0
   34.2389   23.1970    2.1938 S   0  0  0  0  0  0  0  0  0  0  0  0
   34.5113   24.2318    3.1641 O   0  0  0  0  0  0  0  0  0  0  0  0
   34.5394   23.3609    0.7874 O   0  0  0  0  0  0  0  0  0  0  0  0
   35.0491   21.8725    2.6343 O   0  0  0  0  0  0  0  0  0  0  0  0
   35.6393   21.6321    1.8888 H   0  0  0  0  0  0  0  0  0  0  0  0
  1  2  2  0  0  0
  2  3  1  0  0  0
  3  4  2  0  0  0
  4 26  1  0  0  0
 26 28  1  0  0  0
 28 29  2  0  0  0
 29 30  1  0  0  0
 30 31  2  0  0  0
 31 34  1  0  0  0
 34 35  2  0  0  0
 34 36  2  0  0  0
 34 37  1  0  0  0
 31 32  1  0  0  0
 32 33  2  0  0  0
  3  5  1  0  0  0
  5  8  1  0  0  0
  8  9  2  0  0  0
  9 10  1  0  0  0
 10 11  2  0  0  0
 11 14  1  0  0  0
 14 15  2  0  0  0
 14 16  1  0  0  0
 11 12  1  0  0  0
 12 13  2  0  0  0
  5  6  2  0  0  0
  6  7  1  0  0  0
  7 17  1  0  0  0
 17 18  2  0  0  0
 18 19  1  0  0  0
 19 20  2  0  0  0
 20 23  1  0  0  0
 23 24  2  0  0  0
 23 25  1  0  0  0
 20 21  1  0  0  0
 21 22  2  0  0  0
  7  2  1  0  0  0
 22 17  1  0  0  0
 33 28  1  0  0  0
 13  8  1  0  0  0
 26 27  1  0  0  0
 37 38  1  0  0  0
M  CHG 1  14   1
M  CHG 1  16  -1
M  CHG 1  23   1
M  CHG 1  25  -1
M  END
> <minimizedAffinity>
-9.27830

$$$$
