L1:Q06124:95742
     RDKit          3D

 42 44  0  0  0  0  0  0  0  0999 V2000
    5.7843    0.5877   -0.5360 C   0  0  0  0  0  0  0  0  0  0  0  0
    4.3313    0.8973   -0.1407 C   0  0  0  0  0  0  0  0  0  0  0  0
    4.2036    2.3629   -0.1079 N   0  0  0  0  0  0  0  0  0  0  0  0
    3.3767    0.3004   -1.1883 C   0  0  0  0  0  0  0  0  0  0  0  0
    1.9066    0.4061   -0.7883 C   0  0  0  0  0  0  0  0  0  0  0  0
    1.6945   -0.1485    0.5517 N   0  0  0  0  0  0  0  0  0  0  0  0
    0.3810   -0.4383    0.9271 C   0  0  0  0  0  0  0  0  0  0  0  0
   -0.4993   -1.1433    0.0956 C   0  0  0  0  0  0  0  0  0  0  0  0
   -1.7878   -1.4513    0.4081 N   0  0  0  0  0  0  0  0  0  0  0  0
   -2.2040   -1.0315    1.6203 C   0  0  0  0  0  0  0  0  0  0  0  0
   -3.8739   -1.3900    2.1191 S   0  0  0  0  0  0  0  0  0  0  0  0
   -4.7395   -1.1880    0.5624 C   0  0  0  0  0  0  0  0  0  0  0  0
   -5.1584   -2.3478   -0.0924 C   0  0  0  0  0  0  0  0  0  0  0  0
   -5.8303   -2.2207   -1.2933 C   0  0  0  0  0  0  0  0  0  0  0  0
   -6.1188   -1.0361   -1.8708 N   0  0  0  0  0  0  0  0  0  0  0  0
   -5.7251    0.0844   -1.2316 C   0  0  0  0  0  0  0  0  0  0  0  0
   -6.0117    1.2613   -1.8982 N   0  0  0  0  0  0  0  0  0  0  0  0
   -5.0255    0.0565   -0.0168 C   0  0  0  0  0  0  0  0  0  0  0  0
   -4.5665    1.5492    0.7432 Cl  0  0  0  0  0  0  0  0  0  0  0  0
   -1.3427   -0.3548    2.4709 C   0  0  0  0  0  0  0  0  0  0  0  0
   -0.0566   -0.0543    2.1488 N   0  0  0  0  0  0  0  0  0  0  0  0
    2.5510    0.3676    1.6230 C   0  0  0  0  0  0  0  0  0  0  0  0
    4.0255    0.2732    1.2320 C   0  0  0  0  0  0  0  0  0  0  0  0
    6.4939    0.9904    0.1965 H   0  0  0  0  0  0  0  0  0  0  0  0
    5.9554   -0.4933   -0.5983 H   0  0  0  0  0  0  0  0  0  0  0  0
    6.0329    1.0163   -1.5142 H   0  0  0  0  0  0  0  0  0  0  0  0
    4.8669    2.7553    0.5607 H   0  0  0  0  0  0  0  0  0  0  0  0
    3.2796    2.6412    0.2198 H   0  0  0  0  0  0  0  0  0  0  0  0
    3.6190   -0.7618   -1.3323 H   0  0  0  0  0  0  0  0  0  0  0  0
    3.5223    0.7825   -2.1637 H   0  0  0  0  0  0  0  0  0  0  0  0
    1.3271   -0.1253   -1.5505 H   0  0  0  0  0  0  0  0  0  0  0  0
    1.5756    1.4518   -0.8107 H   0  0  0  0  0  0  0  0  0  0  0  0
   -0.1800   -1.5187   -0.8701 H   0  0  0  0  0  0  0  0  0  0  0  0
   -4.9547   -3.3340    0.3116 H   0  0  0  0  0  0  0  0  0  0  0  0
   -6.1639   -3.0966   -1.8429 H   0  0  0  0  0  0  0  0  0  0  0  0
   -6.1584    2.0993   -1.3549 H   0  0  0  0  0  0  0  0  0  0  0  0
   -6.5253    1.1338   -2.7595 H   0  0  0  0  0  0  0  0  0  0  0  0
   -1.6592   -0.0210    3.4531 H   0  0  0  0  0  0  0  0  0  0  0  0
    2.2839    1.4064    1.8537 H   0  0  0  0  0  0  0  0  0  0  0  0
    2.4243   -0.2182    2.5429 H   0  0  0  0  0  0  0  0  0  0  0  0
    4.3079   -0.7887    1.2131 H   0  0  0  0  0  0  0  0  0  0  0  0
    4.6384    0.7385    2.0147 H   0  0  0  0  0  0  0  0  0  0  0  0
  1  2  1  0
  2  3  1  0
  2  4  1  0
  4  5  1  0
  5  6  1  0
  6  7  1  0
  7  8  2  0
  8  9  1  0
  9 10  2  0
 10 11  1  0
 11 12  1  0
 12 13  2  0
 13 14  1  0
 14 15  2  0
 15 16  1  0
 16 17  1  0
 16 18  2  0
 18 19  1  0
 10 20  1  0
 20 21  2  0
  6 22  1  0
 22 23  1  0
 23  2  1  0
 21  7  1  0
 18 12  1  0
  1 24  1  0
  1 25  1  0
  1 26  1  0
  3 27  1  0
  3 28  1  0
  4 29  1  0
  4 30  1  0
  5 31  1  0
  5 32  1  0
  8 33  1  0
 13 34  1  0
 14 35  1  0
 17 36  1  0
 17 37  1  0
 20 38  1  0
 22 39  1  0
 22 40  1  0
 23 41  1  0
 23 42  1  0
M  END
>  <mol_id>  (1) 
95742

>  <source_index>  (1) 
6

>  <layer>  (1) 
L1

>  <uniprot>  (1) 
Q06124

>  <paff>  (1) 
8.0314999999999994

>  <smiles>  (1) 
CC1(N)CCN(c2cnc(Sc3ccnc(N)c3Cl)cn2)CC1

$$$$
