bace_000
     RDKit          3D

 44 47  0  0  1  0  0  0  0  0999 V2000
   11.6897   -2.4429    1.2336 C   0  0  0  0  0  0  0  0  0  0  0  0
   12.9894   -2.5867    0.5959 N   0  0  0  0  0  0  0  0  0  0  0  0
   14.1946   -2.5467    1.2582 C   0  0  0  0  0  0  0  0  0  0  0  0
   14.3249   -2.4249    2.5405 N   0  0  0  0  0  0  0  0  0  0  0  0
   15.2044   -2.6574    0.3852 N   0  0  0  0  0  0  0  0  0  0  0  0
   14.7231   -2.9186   -0.9598 C   0  0  1  0  0  0  0  0  0  0  0  0
   15.2202   -1.9037   -1.9594 C   0  0  0  0  0  0  0  0  0  0  0  0
   15.5924   -2.2601   -3.2452 C   0  0  0  0  0  0  0  0  0  0  0  0
   15.9188   -1.2747   -4.1635 C   0  0  0  0  0  0  0  0  0  0  0  0
   15.7774    0.0613   -3.8328 C   0  0  0  0  0  0  0  0  0  0  0  0
   15.3420    0.4342   -2.5598 C   0  0  0  0  0  0  0  0  0  0  0  0
   14.9574    1.8219   -2.2687 C   0  0  0  0  0  0  0  0  0  0  0  0
   14.2247    2.5578   -3.2031 C   0  0  0  0  0  0  0  0  0  0  0  0
   13.7717    3.8298   -2.9046 C   0  0  0  0  0  0  0  0  0  0  0  0
   14.0422    4.4047   -1.6718 C   0  0  0  0  0  0  0  0  0  0  0  0
   14.7908    3.6808   -0.7562 C   0  0  0  0  0  0  0  0  0  0  0  0
   15.1251    4.3857    0.8139 Cl  0  0  0  0  0  0  0  0  0  0  0  0
   15.2599    2.4123   -1.0407 C   0  0  0  0  0  0  0  0  0  0  0  0
   15.1987   -0.5651   -1.5950 C   0  0  0  0  0  0  0  0  0  0  0  0
   15.0639   -4.3538   -1.2817 C   0  0  0  0  0  0  0  0  0  0  0  0
   14.0422   -5.2099   -1.3568 N   0  0  0  0  0  0  0  0  0  0  0  0
   14.3581   -6.4957   -1.5099 C   0  0  0  0  0  0  0  0  0  0  0  0
   15.6706   -6.9325   -1.5741 C   0  0  0  0  0  0  0  0  0  0  0  0
   16.6468   -5.9518   -1.4871 C   0  0  0  0  0  0  0  0  0  0  0  0
   16.3552   -4.6576   -1.3630 N   0  0  0  0  0  0  0  0  0  0  0  0
   13.1780   -2.7435   -0.7706 C   0  0  0  0  0  0  0  0  0  0  0  0
   12.3137   -2.7016   -1.6055 O   0  0  0  0  0  0  0  0  0  0  0  0
   10.9379   -2.7489    0.5152 H   0  0  0  0  0  0  0  0  0  0  0  0
   11.6440   -3.0772    2.1128 H   0  0  0  0  0  0  0  0  0  0  0  0
   11.5092   -1.4150    1.5299 H   0  0  0  0  0  0  0  0  0  0  0  0
   15.2773   -2.3915    2.9569 H   0  0  0  0  0  0  0  0  0  0  0  0
   16.1576   -2.9018    0.6950 H   0  0  0  0  0  0  0  0  0  0  0  0
   15.6300   -3.2984   -3.5369 H   0  0  0  0  0  0  0  0  0  0  0  0
   16.2963   -1.5428   -5.1387 H   0  0  0  0  0  0  0  0  0  0  0  0
   16.0276    0.8137   -4.5693 H   0  0  0  0  0  0  0  0  0  0  0  0
   13.9955    2.1135   -4.1627 H   0  0  0  0  0  0  0  0  0  0  0  0
   13.2013    4.3868   -3.6362 H   0  0  0  0  0  0  0  0  0  0  0  0
   13.6839    5.3932   -1.4253 H   0  0  0  0  0  0  0  0  0  0  0  0
   15.8169    1.8688   -0.2928 H   0  0  0  0  0  0  0  0  0  0  0  0
   15.0427   -0.3019   -0.5599 H   0  0  0  0  0  0  0  0  0  0  0  0
   13.5316   -7.1915   -1.5834 H   0  0  0  0  0  0  0  0  0  0  0  0
   15.9143   -7.9796   -1.6656 H   0  0  0  0  0  0  0  0  0  0  0  0
   17.6976   -6.2123   -1.4871 H   0  0  0  0  0  0  0  0  0  0  0  0
   13.5499   -2.1566    3.1665 H   0  0  0  0  0  0  0  0  0  0  0  0
  1  2  1  0
  1 28  1  0
  1 29  1  0
  1 30  1  0
  2  3  1  0
  2 26  1  0
  3  4  1  0
  3  5  2  0
  4 31  1  0
  4 44  1  0
  5  6  1  0
  5 32  1  0
  6  7  1  6
  6 20  1  0
  6 26  1  0
  7  8  2  0
  7 19  1  0
  8  9  1  0
  8 33  1  0
  9 10  2  0
  9 34  1  0
 10 11  1  0
 10 35  1  0
 11 12  1  0
 11 19  2  0
 12 13  2  0
 12 18  1  0
 13 14  1  0
 13 36  1  0
 14 15  2  0
 14 37  1  0
 15 16  1  0
 15 38  1  0
 16 17  1  0
 16 18  2  0
 18 39  1  0
 19 40  1  0
 20 21  2  0
 20 25  1  0
 21 22  1  0
 22 23  2  0
 22 41  1  0
 23 24  1  0
 23 42  1  0
 24 25  2  0
 24 43  1  0
 26 27  2  0
M  CHG  1   5   1
M  END
>  <r_exp_dg>  (1) 
-8.543

>  <mol_id>  (1) 
0

>  <source_index>  (1) 
0

>  <paff>  (1) 
6.2631966431469506

>  <source_r_exp_dg>  (1) 
-8.5429999999999993

>  <smiles>  (1) 
CN1C(=O)[C@](c2cccc(-c3cccc(Cl)c3)c2)(c2ncccn2)N=C1N

>  <aimnet_interaction_kcal_mol>  (1) 
-172.79002475318256

$$$$
bace_001
     RDKit          3D

 46 49  0  0  1  0  0  0  0  0999 V2000
   11.7121   -2.4416    1.1999 C   0  0  0  0  0  0  0  0  0  0  0  0
   13.0019   -2.6371    0.5574 N   0  0  0  0  0  0  0  0  0  0  0  0
   14.2168   -2.6140    1.2138 C   0  0  0  0  0  0  0  0  0  0  0  0
   14.3535   -2.4370    2.4933 N   0  0  0  0  0  0  0  0  0  0  0  0
   15.2121   -2.8142    0.3498 N   0  0  0  0  0  0  0  0  0  0  0  0
   14.7197   -2.9839   -1.0131 C   0  0  1  0  0  0  0  0  0  0  0  0
   15.2327   -1.9026   -1.9445 C   0  0  0  0  0  0  0  0  0  0  0  0
   15.6726   -2.2085   -3.2270 C   0  0  0  0  0  0  0  0  0  0  0  0
   16.0232   -1.1980   -4.1075 C   0  0  0  0  0  0  0  0  0  0  0  0
   15.8795    0.1250   -3.7337 C   0  0  0  0  0  0  0  0  0  0  0  0
   15.3948    0.4577   -2.4674 C   0  0  0  0  0  0  0  0  0  0  0  0
   15.0299    1.8461   -2.1565 C   0  0  0  0  0  0  0  0  0  0  0  0
   14.3488    2.6168   -3.1022 C   0  0  0  0  0  0  0  0  0  0  0  0
   13.9503    3.9089   -2.8124 C   0  0  0  0  0  0  0  0  0  0  0  0
   14.2193    4.4654   -1.5706 C   0  0  0  0  0  0  0  0  0  0  0  0
   14.9015    3.7020   -0.6356 C   0  0  0  0  0  0  0  0  0  0  0  0
   15.2038    4.3793    0.9520 Cl  0  0  0  0  0  0  0  0  0  0  0  0
   15.3166    2.4127   -0.9142 C   0  0  0  0  0  0  0  0  0  0  0  0
   15.1889   -0.5724   -1.5434 C   0  0  0  0  0  0  0  0  0  0  0  0
   14.9325   -4.3992   -1.5468 C   0  0  0  0  0  0  0  0  0  0  0  0
   16.3340   -5.0070   -1.6529 C   0  0  0  0  0  0  0  0  0  0  0  0
   15.7263   -6.3618   -1.2498 C   0  0  0  0  0  0  0  0  0  0  0  0
   14.4851   -5.6193   -0.7131 C   0  0  0  0  0  0  0  0  0  0  0  0
   13.1870   -2.8415   -0.7974 C   0  0  0  0  0  0  0  0  0  0  0  0
   12.3098   -2.9320   -1.6249 O   0  0  0  0  0  0  0  0  0  0  0  0
   10.9485   -2.7269    0.4850 H   0  0  0  0  0  0  0  0  0  0  0  0
   11.5687   -1.4058    1.4908 H   0  0  0  0  0  0  0  0  0  0  0  0
   11.6468   -3.0680    2.0839 H   0  0  0  0  0  0  0  0  0  0  0  0
   13.5837   -2.1544    3.1170 H   0  0  0  0  0  0  0  0  0  0  0  0
   16.1751   -2.9561    0.6825 H   0  0  0  0  0  0  0  0  0  0  0  0
   15.7359   -3.2328   -3.5557 H   0  0  0  0  0  0  0  0  0  0  0  0
   16.4091   -1.4408   -5.0873 H   0  0  0  0  0  0  0  0  0  0  0  0
   16.1628    0.9025   -4.4308 H   0  0  0  0  0  0  0  0  0  0  0  0
   14.1177    2.1845   -4.0669 H   0  0  0  0  0  0  0  0  0  0  0  0
   13.4253    4.4951   -3.5556 H   0  0  0  0  0  0  0  0  0  0  0  0
   13.8957    5.4663   -1.3303 H   0  0  0  0  0  0  0  0  0  0  0  0
   15.8165    1.8344   -0.1524 H   0  0  0  0  0  0  0  0  0  0  0  0
   14.9742   -0.3360   -0.5123 H   0  0  0  0  0  0  0  0  0  0  0  0
   14.4399   -4.4488   -2.5147 H   0  0  0  0  0  0  0  0  0  0  0  0
   17.0216   -4.6094   -0.9109 H   0  0  0  0  0  0  0  0  0  0  0  0
   16.8137   -4.9490   -2.6234 H   0  0  0  0  0  0  0  0  0  0  0  0
   15.4876   -6.9772   -2.1165 H   0  0  0  0  0  0  0  0  0  0  0  0
   16.2924   -6.9649   -0.5462 H   0  0  0  0  0  0  0  0  0  0  0  0
   14.5451   -5.4542    0.3596 H   0  0  0  0  0  0  0  0  0  0  0  0
   13.5046   -6.0360   -0.9412 H   0  0  0  0  0  0  0  0  0  0  0  0
   15.3065   -2.4023    2.9087 H   0  0  0  0  0  0  0  0  0  0  0  0
  1  2  1  0
  1 26  1  0
  1 27  1  0
  1 28  1  0
  2  3  1  0
  2 24  1  0
  3  4  1  0
  3  5  2  0
  4 29  1  0
  4 46  1  0
  5  6  1  0
  5 30  1  0
  6  7  1  0
  6 20  1  6
  6 24  1  0
  7  8  2  0
  7 19  1  0
  8  9  1  0
  8 31  1  0
  9 10  2  0
  9 32  1  0
 10 11  1  0
 10 33  1  0
 11 12  1  0
 11 19  2  0
 12 13  2  0
 12 18  1  0
 13 14  1  0
 13 34  1  0
 14 15  2  0
 14 35  1  0
 15 16  1  0
 15 36  1  0
 16 17  1  0
 16 18  2  0
 18 37  1  0
 19 38  1  0
 20 21  1  0
 20 23  1  0
 20 39  1  0
 21 22  1  0
 21 40  1  0
 21 41  1  0
 22 23  1  0
 22 42  1  0
 22 43  1  0
 23 44  1  0
 23 45  1  0
 24 25  2  0
M  CHG  1   5   1
M  END
>  <r_exp_dg>  (2) 
-9.963

>  <mol_id>  (2) 
1

>  <source_index>  (2) 
1

>  <paff>  (2) 
7.3042524175560013

>  <source_r_exp_dg>  (2) 
-9.9629999999999992

>  <smiles>  (2) 
CN1C(=O)[C@](c2cccc(-c3cccc(Cl)c3)c2)(C2CCC2)N=C1N

>  <aimnet_interaction_kcal_mol>  (2) 
-175.23223695697203

$$$$
bace_002
     RDKit          3D

 46 49  0  0  1  0  0  0  0  0999 V2000
   11.6839   -2.4656    1.2111 C   0  0  0  0  0  0  0  0  0  0  0  0
   12.9952   -2.6565    0.6087 N   0  0  0  0  0  0  0  0  0  0  0  0
   14.1924   -2.5854    1.2912 C   0  0  0  0  0  0  0  0  0  0  0  0
   14.3031   -2.4202    2.5712 N   0  0  0  0  0  0  0  0  0  0  0  0
   15.2114   -2.7294    0.4446 N   0  0  0  0  0  0  0  0  0  0  0  0
   14.7655   -3.0312   -0.9096 C   0  0  2  0  0  0  0  0  0  0  0  0
   15.1795   -4.4385   -1.2964 C   0  0  0  0  0  0  0  0  0  0  0  0
   16.4501   -4.8829   -0.9443 C   0  0  0  0  0  0  0  0  0  0  0  0
   16.7702   -6.2293   -1.0302 C   0  0  0  0  0  0  0  0  0  0  0  0
   15.8490   -7.1273   -1.5451 C   0  0  0  0  0  0  0  0  0  0  0  0
   14.6259   -6.6684   -2.0094 C   0  0  0  0  0  0  0  0  0  0  0  0
   14.3032   -5.3206   -1.9183 C   0  0  0  0  0  0  0  0  0  0  0  0
   15.2234   -1.9681   -1.8935 C   0  0  0  0  0  0  0  0  0  0  0  0
   15.5969   -2.3052   -3.1839 C   0  0  0  0  0  0  0  0  0  0  0  0
   15.8727   -1.3006   -4.0984 C   0  0  0  0  0  0  0  0  0  0  0  0
   15.7285    0.0280   -3.7414 C   0  0  0  0  0  0  0  0  0  0  0  0
   15.3660    0.3839   -2.4419 C   0  0  0  0  0  0  0  0  0  0  0  0
   15.1372    1.7895   -2.0844 C   0  0  0  0  0  0  0  0  0  0  0  0
   14.4300    2.6304   -2.9474 C   0  0  0  0  0  0  0  0  0  0  0  0
   14.2118    3.9602   -2.6294 C   0  0  0  0  0  0  0  0  0  0  0  0
   14.7140    4.4844   -1.4459 C   0  0  0  0  0  0  0  0  0  0  0  0
   15.4120    3.6606   -0.5738 C   0  0  0  0  0  0  0  0  0  0  0  0
   15.6019    2.3240   -0.8809 C   0  0  0  0  0  0  0  0  0  0  0  0
   15.1916   -0.6371   -1.5040 C   0  0  0  0  0  0  0  0  0  0  0  0
   13.2152   -2.9157   -0.7312 C   0  0  0  0  0  0  0  0  0  0  0  0
   12.3545   -3.0179   -1.5735 O   0  0  0  0  0  0  0  0  0  0  0  0
   11.5258   -1.4282    1.4882 H   0  0  0  0  0  0  0  0  0  0  0  0
   10.9448   -2.7624    0.4755 H   0  0  0  0  0  0  0  0  0  0  0  0
   11.5972   -3.0848    2.0981 H   0  0  0  0  0  0  0  0  0  0  0  0
   15.2493   -2.3761    2.9987 H   0  0  0  0  0  0  0  0  0  0  0  0
   16.1583   -2.9256    0.7992 H   0  0  0  0  0  0  0  0  0  0  0  0
   17.1833   -4.1801   -0.5756 H   0  0  0  0  0  0  0  0  0  0  0  0
   17.7292   -6.5795   -0.6739 H   0  0  0  0  0  0  0  0  0  0  0  0
   16.0729   -8.1862   -1.5581 H   0  0  0  0  0  0  0  0  0  0  0  0
   13.9126   -7.3662   -2.4226 H   0  0  0  0  0  0  0  0  0  0  0  0
   13.3723   -4.9530   -2.3203 H   0  0  0  0  0  0  0  0  0  0  0  0
   15.6627   -3.3422   -3.4773 H   0  0  0  0  0  0  0  0  0  0  0  0
   16.2123   -1.5492   -5.0925 H   0  0  0  0  0  0  0  0  0  0  0  0
   15.9243    0.7941   -4.4793 H   0  0  0  0  0  0  0  0  0  0  0  0
   14.0380    2.2274   -3.8739 H   0  0  0  0  0  0  0  0  0  0  0  0
   13.6535    4.5906   -3.3097 H   0  0  0  0  0  0  0  0  0  0  0  0
   14.5579    5.5257   -1.2027 H   0  0  0  0  0  0  0  0  0  0  0  0
   15.7896    4.0534    0.3616 H   0  0  0  0  0  0  0  0  0  0  0  0
   16.0806    1.6752   -0.1606 H   0  0  0  0  0  0  0  0  0  0  0  0
   15.0159   -0.3959   -0.4671 H   0  0  0  0  0  0  0  0  0  0  0  0
   13.5176   -2.1478    3.1840 H   0  0  0  0  0  0  0  0  0  0  0  0
  1  2  1  0
  1 27  1  0
  1 28  1  0
  1 29  1  0
  2  3  1  0
  2 25  1  0
  3  4  1  0
  3  5  2  0
  4 30  1  0
  4 46  1  0
  5  6  1  0
  5 31  1  0
  6  7  1  6
  6 13  1  0
  6 25  1  0
  7  8  2  0
  7 12  1  0
  8  9  1  0
  8 32  1  0
  9 10  2  0
  9 33  1  0
 10 11  1  0
 10 34  1  0
 11 12  2  0
 11 35  1  0
 12 36  1  0
 13 14  2  0
 13 24  1  0
 14 15  1  0
 14 37  1  0
 15 16  2  0
 15 38  1  0
 16 17  1  0
 16 39  1  0
 17 18  1  0
 17 24  2  0
 18 19  2  0
 18 23  1  0
 19 20  1  0
 19 40  1  0
 20 21  2  0
 20 41  1  0
 21 22  1  0
 21 42  1  0
 22 23  2  0
 22 43  1  0
 23 44  1  0
 24 45  1  0
 25 26  2  0
M  CHG  1   5   1
M  END
>  <r_exp_dg>  (3) 
-7.933

>  <mol_id>  (3) 
2

>  <source_index>  (3) 
2

>  <paff>  (3) 
5.8159824690161557

>  <source_r_exp_dg>  (3) 
-7.9329999999999998

>  <smiles>  (3) 
CN1C(=O)[C@@](c2ccccc2)(c2cccc(-c3ccccc3)c2)N=C1N

>  <aimnet_interaction_kcal_mol>  (3) 
-176.36143202599047

$$$$
bace_003
     RDKit          3D

 48 51  0  0  1  0  0  0  0  0999 V2000
   15.3150    4.2170    0.7002 C   0  0  0  0  0  0  0  0  0  0  0  0
   15.1056    3.5885   -0.6374 C   0  0  0  0  0  0  0  0  0  0  0  0
   14.4944    4.2874   -1.6739 C   0  0  0  0  0  0  0  0  0  0  0  0
   14.2280    3.7633   -2.8729 N   0  0  0  0  0  0  0  0  0  0  0  0
   14.5756    2.4995   -3.0847 C   0  0  0  0  0  0  0  0  0  0  0  0
   15.2018    1.6922   -2.1300 C   0  0  0  0  0  0  0  0  0  0  0  0
   15.5086    0.2917   -2.4351 C   0  0  0  0  0  0  0  0  0  0  0  0
   15.9532   -0.0806   -3.7052 C   0  0  0  0  0  0  0  0  0  0  0  0
   16.0329   -1.4148   -4.0587 C   0  0  0  0  0  0  0  0  0  0  0  0
   15.6624   -2.4001   -3.1578 C   0  0  0  0  0  0  0  0  0  0  0  0
   15.2823   -2.0462   -1.8723 C   0  0  0  0  0  0  0  0  0  0  0  0
   14.7908   -3.0911   -0.8881 C   0  0  1  0  0  0  0  0  0  0  0  0
   15.1974   -4.5041   -1.2644 C   0  0  0  0  0  0  0  0  0  0  0  0
   14.3198   -5.3872   -1.8824 C   0  0  0  0  0  0  0  0  0  0  0  0
   14.6462   -6.7339   -1.9774 C   0  0  0  0  0  0  0  0  0  0  0  0
   15.8721   -7.1900   -1.5165 C   0  0  0  0  0  0  0  0  0  0  0  0
   16.7939   -6.2902   -1.0058 C   0  0  0  0  0  0  0  0  0  0  0  0
   16.4708   -4.9450   -0.9176 C   0  0  0  0  0  0  0  0  0  0  0  0
   15.2228   -2.7880    0.4690 N   0  0  0  0  0  0  0  0  0  0  0  0
   14.1983   -2.6170    1.3017 C   0  0  0  0  0  0  0  0  0  0  0  0
   14.2991   -2.4327    2.5800 N   0  0  0  0  0  0  0  0  0  0  0  0
   13.0074   -2.6801    0.6071 N   0  0  0  0  0  0  0  0  0  0  0  0
   11.6922   -2.4757    1.1966 C   0  0  0  0  0  0  0  0  0  0  0  0
   13.2396   -2.9535   -0.7288 C   0  0  0  0  0  0  0  0  0  0  0  0
   12.3880   -3.0512   -1.5804 O   0  0  0  0  0  0  0  0  0  0  0  0
   15.2899   -0.7140   -1.4906 C   0  0  0  0  0  0  0  0  0  0  0  0
   15.4685    2.2730   -0.8933 C   0  0  0  0  0  0  0  0  0  0  0  0
   16.2285    3.8481    1.1617 H   0  0  0  0  0  0  0  0  0  0  0  0
   15.3765    5.3018    0.6353 H   0  0  0  0  0  0  0  0  0  0  0  0
   14.5044    3.9741    1.3884 H   0  0  0  0  0  0  0  0  0  0  0  0
   14.1989    5.3217   -1.5357 H   0  0  0  0  0  0  0  0  0  0  0  0
   14.3331    2.0854   -4.0607 H   0  0  0  0  0  0  0  0  0  0  0  0
   16.2573    0.6714   -4.4207 H   0  0  0  0  0  0  0  0  0  0  0  0
   16.3929   -1.6810   -5.0399 H   0  0  0  0  0  0  0  0  0  0  0  0
   15.6603   -3.4371   -3.4571 H   0  0  0  0  0  0  0  0  0  0  0  0
   13.3875   -5.0211   -2.2826 H   0  0  0  0  0  0  0  0  0  0  0  0
   13.9345   -7.4320   -2.3935 H   0  0  0  0  0  0  0  0  0  0  0  0
   16.0979   -8.2483   -1.5280 H   0  0  0  0  0  0  0  0  0  0  0  0
   17.7567   -6.6373   -0.6570 H   0  0  0  0  0  0  0  0  0  0  0  0
   17.2047   -4.2400   -0.5542 H   0  0  0  0  0  0  0  0  0  0  0  0
   16.1685   -2.9803    0.8309 H   0  0  0  0  0  0  0  0  0  0  0  0
   13.5102   -2.1560    3.1868 H   0  0  0  0  0  0  0  0  0  0  0  0
   10.9571   -2.7606    0.4525 H   0  0  0  0  0  0  0  0  0  0  0  0
   11.5890   -3.0980    2.0799 H   0  0  0  0  0  0  0  0  0  0  0  0
   11.5432   -1.4376    1.4772 H   0  0  0  0  0  0  0  0  0  0  0  0
   15.1087   -0.4570   -0.4589 H   0  0  0  0  0  0  0  0  0  0  0  0
   15.9255    1.6813   -0.1121 H   0  0  0  0  0  0  0  0  0  0  0  0
   15.2430   -2.3860    3.0116 H   0  0  0  0  0  0  0  0  0  0  0  0
  1  2  1  0
  1 28  1  0
  1 29  1  0
  1 30  1  0
  2  3  2  0
  2 27  1  0
  3  4  1  0
  3 31  1  0
  4  5  2  0
  5  6  1  0
  5 32  1  0
  6  7  1  0
  6 27  2  0
  7  8  2  0
  7 26  1  0
  8  9  1  0
  8 33  1  0
  9 10  2  0
  9 34  1  0
 10 11  1  0
 10 35  1  0
 12 11  1  6
 11 26  2  0
 12 13  1  0
 12 19  1  0
 12 24  1  0
 13 14  2  0
 13 18  1  0
 14 15  1  0
 14 36  1  0
 15 16  2  0
 15 37  1  0
 16 17  1  0
 16 38  1  0
 17 18  2  0
 17 39  1  0
 18 40  1  0
 19 20  2  0
 19 41  1  0
 20 21  1  0
 20 22  1  0
 21 42  1  0
 21 48  1  0
 22 23  1  0
 22 24  1  0
 23 43  1  0
 23 44  1  0
 23 45  1  0
 24 25  2  0
 26 46  1  0
 27 47  1  0
M  CHG  1  19   1
M  END
>  <r_exp_dg>  (4) 
-9.153

>  <mol_id>  (4) 
3

>  <source_index>  (4) 
3

>  <paff>  (4) 
6.7104104676903864

>  <source_r_exp_dg>  (4) 
-9.1530000000000005

>  <smiles>  (4) 
Cc1cncc(-c2cccc([C@@]3(c4ccccc4)N=C(N)N(C)C3=O)c2)c1

>  <aimnet_interaction_kcal_mol>  (4) 
-180.32361621546903

$$$$
bace_004
     RDKit          3D

 47 50  0  0  1  0  0  0  0  0999 V2000
   15.1852    4.5908    1.6713 C   0  0  0  0  0  0  0  0  0  0  0  0
   15.8673    3.5297    1.0165 O   0  0  0  0  0  0  0  0  0  0  0  0
   15.5056    3.2799   -0.2776 C   0  0  0  0  0  0  0  0  0  0  0  0
   14.9382    4.2275   -1.1252 C   0  0  0  0  0  0  0  0  0  0  0  0
   14.5747    3.8551   -2.4145 C   0  0  0  0  0  0  0  0  0  0  0  0
   14.7691    2.5584   -2.8596 C   0  0  0  0  0  0  0  0  0  0  0  0
   15.3393    1.6063   -2.0129 C   0  0  0  0  0  0  0  0  0  0  0  0
   15.4745    0.2013   -2.4216 C   0  0  0  0  0  0  0  0  0  0  0  0
   15.8941   -0.1612   -3.6986 C   0  0  0  0  0  0  0  0  0  0  0  0
   15.9825   -1.4948   -4.0568 C   0  0  0  0  0  0  0  0  0  0  0  0
   15.6222   -2.4918   -3.1632 C   0  0  0  0  0  0  0  0  0  0  0  0
   15.1801   -2.1500   -1.8930 C   0  0  0  0  0  0  0  0  0  0  0  0
   14.6340   -3.1797   -0.9270 C   0  0  1  0  0  0  0  0  0  0  0  0
   14.7637   -4.6141   -1.3876 C   0  0  0  0  0  0  0  0  0  0  0  0
   15.9398   -5.4815   -1.1122 C   0  0  0  0  0  0  0  0  0  0  0  0
   14.6274   -5.7692   -0.4544 C   0  0  0  0  0  0  0  0  0  0  0  0
   15.1465   -2.9517    0.4207 N   0  0  0  0  0  0  0  0  0  0  0  0
   14.1653   -2.6910    1.2839 C   0  0  0  0  0  0  0  0  0  0  0  0
   14.3215   -2.4630    2.5513 N   0  0  0  0  0  0  0  0  0  0  0  0
   12.9431   -2.7063    0.6408 N   0  0  0  0  0  0  0  0  0  0  0  0
   11.6599   -2.4625    1.2810 C   0  0  0  0  0  0  0  0  0  0  0  0
   13.1084   -2.9505   -0.7086 C   0  0  0  0  0  0  0  0  0  0  0  0
   12.2238   -3.0148   -1.5295 O   0  0  0  0  0  0  0  0  0  0  0  0
   15.1685   -0.8157   -1.5150 C   0  0  0  0  0  0  0  0  0  0  0  0
   15.7316    1.9906   -0.7351 C   0  0  0  0  0  0  0  0  0  0  0  0
   15.4043    4.4793    2.7266 H   0  0  0  0  0  0  0  0  0  0  0  0
   15.5114    5.5606    1.3005 H   0  0  0  0  0  0  0  0  0  0  0  0
   14.1110    4.5110    1.5115 H   0  0  0  0  0  0  0  0  0  0  0  0
   14.7686    5.2435   -0.7938 H   0  0  0  0  0  0  0  0  0  0  0  0
   14.1314    4.5912   -3.0713 H   0  0  0  0  0  0  0  0  0  0  0  0
   14.4576    2.2690   -3.8549 H   0  0  0  0  0  0  0  0  0  0  0  0
   16.1842    0.5951   -4.4164 H   0  0  0  0  0  0  0  0  0  0  0  0
   16.3490   -1.7479   -5.0385 H   0  0  0  0  0  0  0  0  0  0  0  0
   15.6894   -3.5279   -3.4589 H   0  0  0  0  0  0  0  0  0  0  0  0
   14.2848   -4.7472   -2.3476 H   0  0  0  0  0  0  0  0  0  0  0  0
   16.2514   -6.1390   -1.9140 H   0  0  0  0  0  0  0  0  0  0  0  0
   16.7546   -5.1101   -0.5082 H   0  0  0  0  0  0  0  0  0  0  0  0
   14.5377   -5.5845    0.6074 H   0  0  0  0  0  0  0  0  0  0  0  0
   14.0543   -6.6234   -0.7887 H   0  0  0  0  0  0  0  0  0  0  0  0
   16.1209   -3.0657    0.7355 H   0  0  0  0  0  0  0  0  0  0  0  0
   13.5549   -2.1632    3.1701 H   0  0  0  0  0  0  0  0  0  0  0  0
   11.5248   -1.4096    1.5045 H   0  0  0  0  0  0  0  0  0  0  0  0
   11.6015   -3.0286    2.2046 H   0  0  0  0  0  0  0  0  0  0  0  0
   10.8892   -2.7890    0.5917 H   0  0  0  0  0  0  0  0  0  0  0  0
   14.9090   -0.5569   -0.5015 H   0  0  0  0  0  0  0  0  0  0  0  0
   16.1568    1.2665   -0.0582 H   0  0  0  0  0  0  0  0  0  0  0  0
   15.2769   -2.4231    2.9563 H   0  0  0  0  0  0  0  0  0  0  0  0
  1  2  1  0
  1 26  1  0
  1 27  1  0
  1 28  1  0
  2  3  1  0
  3  4  2  0
  3 25  1  0
  4  5  1  0
  4 29  1  0
  5  6  2  0
  5 30  1  0
  6  7  1  0
  6 31  1  0
  7  8  1  0
  7 25  2  0
  8  9  2  0
  8 24  1  0
  9 10  1  0
  9 32  1  0
 10 11  2  0
 10 33  1  0
 11 12  1  0
 11 34  1  0
 12 13  1  0
 12 24  2  0
 13 14  1  6
 13 17  1  0
 13 22  1  0
 14 15  1  0
 14 16  1  0
 14 35  1  0
 15 16  1  0
 15 36  1  0
 15 37  1  0
 16 38  1  0
 16 39  1  0
 17 18  2  0
 17 40  1  0
 18 19  1  0
 18 20  1  0
 19 41  1  0
 19 47  1  0
 20 21  1  0
 20 22  1  0
 21 42  1  0
 21 43  1  0
 21 44  1  0
 22 23  2  0
 24 45  1  0
 25 46  1  0
M  CHG  1  17   1
M  END
>  <r_exp_dg>  (5) 
-10.023

>  <mol_id>  (5) 
4

>  <source_index>  (5) 
4

>  <paff>  (5) 
7.3482402958128805

>  <source_r_exp_dg>  (5) 
-10.023

>  <smiles>  (5) 
COc1cccc(-c2cccc([C@@]3(C4CC4)N=C(N)N(C)C3=O)c2)c1

>  <aimnet_interaction_kcal_mol>  (5) 
-174.11421591249518

$$$$
bace_005
     RDKit          3D

 45 48  0  0  1  0  0  0  0  0999 V2000
   11.6690   -2.4870    1.2182 C   0  0  0  0  0  0  0  0  0  0  0  0
   12.9783   -2.6504    0.6083 N   0  0  0  0  0  0  0  0  0  0  0  0
   14.1697   -2.5941    1.2919 C   0  0  0  0  0  0  0  0  0  0  0  0
   14.2839   -2.4409    2.5733 N   0  0  0  0  0  0  0  0  0  0  0  0
   15.1941   -2.7283    0.4464 N   0  0  0  0  0  0  0  0  0  0  0  0
   14.7462   -3.0070   -0.9086 C   0  0  1  0  0  0  0  0  0  0  0  0
   15.2423   -1.9739   -1.8937 C   0  0  0  0  0  0  0  0  0  0  0  0
   15.5766   -2.3180   -3.1944 C   0  0  0  0  0  0  0  0  0  0  0  0
   15.9612   -1.3338   -4.0900 C   0  0  0  0  0  0  0  0  0  0  0  0
   15.8938   -0.0006   -3.7275 C   0  0  0  0  0  0  0  0  0  0  0  0
   15.4577    0.3691   -2.4532 C   0  0  0  0  0  0  0  0  0  0  0  0
   15.1148    1.7672   -2.1597 C   0  0  0  0  0  0  0  0  0  0  0  0
   14.4115    2.5218   -3.1012 C   0  0  0  0  0  0  0  0  0  0  0  0
   14.0534    3.8314   -2.8381 C   0  0  0  0  0  0  0  0  0  0  0  0
   14.4005    4.4260   -1.6349 C   0  0  0  0  0  0  0  0  0  0  0  0
   15.0952    3.6762   -0.6997 C   0  0  0  0  0  0  0  0  0  0  0  0
   15.5068    4.4206    0.8394 Cl  0  0  0  0  0  0  0  0  0  0  0  0
   15.4454    2.3597   -0.9392 C   0  0  0  0  0  0  0  0  0  0  0  0
   15.2677   -0.6404   -1.5062 C   0  0  0  0  0  0  0  0  0  0  0  0
   15.0985   -4.4435   -1.2312 C   0  0  0  0  0  0  0  0  0  0  0  0
   16.4125   -4.8015   -1.5098 C   0  0  0  0  0  0  0  0  0  0  0  0
   16.7193   -6.1444   -1.6147 C   0  0  0  0  0  0  0  0  0  0  0  0
   15.7030   -7.0815   -1.5022 C   0  0  0  0  0  0  0  0  0  0  0  0
   14.4168   -6.6235   -1.2590 C   0  0  0  0  0  0  0  0  0  0  0  0
   14.1119   -5.3344   -1.1158 N   0  0  0  0  0  0  0  0  0  0  0  0
   13.1963   -2.8574   -0.7485 C   0  0  0  0  0  0  0  0  0  0  0  0
   12.3466   -2.8642   -1.5994 O   0  0  0  0  0  0  0  0  0  0  0  0
   11.5932   -3.1235    2.0942 H   0  0  0  0  0  0  0  0  0  0  0  0
   11.4975   -1.4568    1.5153 H   0  0  0  0  0  0  0  0  0  0  0  0
   10.9279   -2.7791    0.4832 H   0  0  0  0  0  0  0  0  0  0  0  0
   15.2296   -2.3954    2.9968 H   0  0  0  0  0  0  0  0  0  0  0  0
   16.1388   -2.9416    0.7962 H   0  0  0  0  0  0  0  0  0  0  0  0
   15.5232   -3.3477   -3.5139 H   0  0  0  0  0  0  0  0  0  0  0  0
   16.3190   -1.6012   -5.0726 H   0  0  0  0  0  0  0  0  0  0  0  0
   16.1953    0.7551   -4.4412 H   0  0  0  0  0  0  0  0  0  0  0  0
   14.1329    2.0651   -4.0419 H   0  0  0  0  0  0  0  0  0  0  0  0
   13.5048    4.4030   -3.5752 H   0  0  0  0  0  0  0  0  0  0  0  0
   14.1310    5.4484   -1.4220 H   0  0  0  0  0  0  0  0  0  0  0  0
   15.9290    1.7857   -0.1638 H   0  0  0  0  0  0  0  0  0  0  0  0
   15.1119   -0.3865   -0.4684 H   0  0  0  0  0  0  0  0  0  0  0  0
   17.1688   -4.0400   -1.6138 H   0  0  0  0  0  0  0  0  0  0  0  0
   17.7461   -6.4598   -1.7245 H   0  0  0  0  0  0  0  0  0  0  0  0
   15.9055   -8.1404   -1.5655 H   0  0  0  0  0  0  0  0  0  0  0  0
   13.5977   -7.3251   -1.1606 H   0  0  0  0  0  0  0  0  0  0  0  0
   13.5015   -2.1667    3.1894 H   0  0  0  0  0  0  0  0  0  0  0  0
  1  2  1  0
  1 28  1  0
  1 29  1  0
  1 30  1  0
  2  3  1  0
  2 26  1  0
  3  4  1  0
  3  5  2  0
  4 31  1  0
  4 45  1  0
  5  6  1  0
  5 32  1  0
  6  7  1  6
  6 20  1  0
  6 26  1  0
  7  8  2  0
  7 19  1  0
  8  9  1  0
  8 33  1  0
  9 10  2  0
  9 34  1  0
 10 11  1  0
 10 35  1  0
 11 12  1  0
 11 19  2  0
 12 13  2  0
 12 18  1  0
 13 14  1  0
 13 36  1  0
 14 15  2  0
 14 37  1  0
 15 16  1  0
 15 38  1  0
 16 17  1  0
 16 18  2  0
 18 39  1  0
 19 40  1  0
 20 21  2  0
 20 25  1  0
 21 22  1  0
 21 41  1  0
 22 23  2  0
 22 42  1  0
 23 24  1  0
 23 43  1  0
 24 25  2  0
 24 44  1  0
 26 27  2  0
M  CHG  1   5   1
M  END
>  <r_exp_dg>  (6) 
-8.733

>  <mol_id>  (6) 
5

>  <source_index>  (6) 
5

>  <paff>  (6) 
6.4024925231933585

>  <source_r_exp_dg>  (6) 
-8.7330000000000005

>  <smiles>  (6) 
CN1C(=O)[C@](c2cccc(-c3cccc(Cl)c3)c2)(c2ccccn2)N=C1N

>  <aimnet_interaction_kcal_mol>  (6) 
-175.00354728932533

$$$$
bace_006
     RDKit          3D

 43 46  0  0  1  0  0  0  0  0999 V2000
   11.6946   -2.4755    1.2308 C   0  0  0  0  0  0  0  0  0  0  0  0
   12.9882   -2.6482    0.5877 N   0  0  0  0  0  0  0  0  0  0  0  0
   14.2034   -2.6003    1.2406 C   0  0  0  0  0  0  0  0  0  0  0  0
   14.3402   -2.4290    2.5201 N   0  0  0  0  0  0  0  0  0  0  0  0
   15.2026   -2.7729    0.3718 N   0  0  0  0  0  0  0  0  0  0  0  0
   14.7067   -3.0041   -0.9811 C   0  0  1  0  0  0  0  0  0  0  0  0
   15.1947   -1.9361   -1.9385 C   0  0  0  0  0  0  0  0  0  0  0  0
   15.6910   -2.2742   -3.1906 C   0  0  0  0  0  0  0  0  0  0  0  0
   15.9688   -1.2810   -4.1160 C   0  0  0  0  0  0  0  0  0  0  0  0
   15.7241    0.0449   -3.8076 C   0  0  0  0  0  0  0  0  0  0  0  0
   15.2432    0.4041   -2.5491 C   0  0  0  0  0  0  0  0  0  0  0  0
   14.8568    1.7914   -2.2591 C   0  0  0  0  0  0  0  0  0  0  0  0
   14.1105    2.5201   -3.1877 C   0  0  0  0  0  0  0  0  0  0  0  0
   13.6736    3.7992   -2.8953 C   0  0  0  0  0  0  0  0  0  0  0  0
   13.9757    4.3872   -1.6759 C   0  0  0  0  0  0  0  0  0  0  0  0
   14.7369    3.6680   -0.7670 C   0  0  0  0  0  0  0  0  0  0  0  0
   15.1166    4.3914    0.7845 Cl  0  0  0  0  0  0  0  0  0  0  0  0
   15.1877    2.3914   -1.0441 C   0  0  0  0  0  0  0  0  0  0  0  0
   15.0751   -0.5973   -1.5894 C   0  0  0  0  0  0  0  0  0  0  0  0
   14.9572   -4.4047   -1.4896 C   0  0  0  0  0  0  0  0  0  0  0  0
   16.2711   -5.0787   -1.3280 C   0  0  0  0  0  0  0  0  0  0  0  0
   15.0670   -5.6012   -0.6105 C   0  0  0  0  0  0  0  0  0  0  0  0
   13.1719   -2.8763   -0.7635 C   0  0  0  0  0  0  0  0  0  0  0  0
   12.2942   -2.9844   -1.5874 O   0  0  0  0  0  0  0  0  0  0  0  0
   10.9371   -2.7715    0.5137 H   0  0  0  0  0  0  0  0  0  0  0  0
   11.6389   -3.1055    2.1129 H   0  0  0  0  0  0  0  0  0  0  0  0
   11.5351   -1.4423    1.5226 H   0  0  0  0  0  0  0  0  0  0  0  0
   13.5670   -2.1504    3.1426 H   0  0  0  0  0  0  0  0  0  0  0  0
   16.1665   -2.9331    0.6983 H   0  0  0  0  0  0  0  0  0  0  0  0
   15.8599   -3.3074   -3.4494 H   0  0  0  0  0  0  0  0  0  0  0  0
   16.3834   -1.5341   -5.0801 H   0  0  0  0  0  0  0  0  0  0  0  0
   15.9300    0.8049   -4.5495 H   0  0  0  0  0  0  0  0  0  0  0  0
   13.8592    2.0646   -4.1366 H   0  0  0  0  0  0  0  0  0  0  0  0
   13.0913    4.3518   -3.6211 H   0  0  0  0  0  0  0  0  0  0  0  0
   13.6342    5.3828   -1.4343 H   0  0  0  0  0  0  0  0  0  0  0  0
   15.7545    1.8495   -0.3023 H   0  0  0  0  0  0  0  0  0  0  0  0
   14.8340   -0.3281   -0.5721 H   0  0  0  0  0  0  0  0  0  0  0  0
   14.4446   -4.5709   -2.4257 H   0  0  0  0  0  0  0  0  0  0  0  0
   16.6565   -5.6226   -2.1822 H   0  0  0  0  0  0  0  0  0  0  0  0
   17.0352   -4.5908   -0.7372 H   0  0  0  0  0  0  0  0  0  0  0  0
   15.0248   -5.4792    0.4616 H   0  0  0  0  0  0  0  0  0  0  0  0
   14.6153   -6.5214   -0.9525 H   0  0  0  0  0  0  0  0  0  0  0  0
   15.2928   -2.3904    2.9373 H   0  0  0  0  0  0  0  0  0  0  0  0
  1  2  1  0
  1 25  1  0
  1 26  1  0
  1 27  1  0
  2  3  1  0
  2 23  1  0
  3  4  1  0
  3  5  2  0
  4 28  1  0
  4 43  1  0
  5  6  1  0
  5 29  1  0
  6  7  1  0
  6 20  1  6
  6 23  1  0
  7  8  2  0
  7 19  1  0
  8  9  1  0
  8 30  1  0
  9 10  2  0
  9 31  1  0
 10 11  1  0
 10 32  1  0
 11 12  1  0
 11 19  2  0
 12 13  2  0
 12 18  1  0
 13 14  1  0
 13 33  1  0
 14 15  2  0
 14 34  1  0
 15 16  1  0
 15 35  1  0
 16 18  2  0
 16 17  1  0
 18 36  1  0
 19 37  1  0
 20 21  1  0
 20 22  1  0
 20 38  1  0
 21 22  1  0
 21 39  1  0
 21 40  1  0
 22 41  1  0
 22 42  1  0
 23 24  2  0
M  CHG  1   5   1
M  END
>  <r_exp_dg>  (7) 
-10.473

>  <mol_id>  (7) 
6

>  <source_index>  (7) 
6

>  <paff>  (7) 
7.6781521794383467

>  <source_r_exp_dg>  (7) 
-10.473000000000001

>  <smiles>  (7) 
CN1C(=O)[C@](c2cccc(-c3cccc(Cl)c3)c2)(C2CC2)N=C1N

>  <aimnet_interaction_kcal_mol>  (7) 
-175.98216470295819

$$$$
bace_007
     RDKit          3D

 42 44  0  0  1  0  0  0  0  0999 V2000
   14.5265   -5.2582   -2.2991 C   0  0  0  0  0  0  0  0  0  0  0  0
   15.2681   -4.4653   -1.2303 C   0  0  0  0  0  0  0  0  0  0  0  0
   14.7775   -3.0305   -0.9247 C   0  0  2  0  0  0  0  0  0  0  0  0
   15.1855   -1.9744   -1.9343 C   0  0  0  0  0  0  0  0  0  0  0  0
   15.6937   -2.3068   -3.1806 C   0  0  0  0  0  0  0  0  0  0  0  0
   15.9318   -1.3169   -4.1215 C   0  0  0  0  0  0  0  0  0  0  0  0
   15.6436    0.0034   -3.8329 C   0  0  0  0  0  0  0  0  0  0  0  0
   15.1637    0.3626   -2.5743 C   0  0  0  0  0  0  0  0  0  0  0  0
   14.7723    1.7496   -2.2879 C   0  0  0  0  0  0  0  0  0  0  0  0
   14.0061    2.4672   -3.2089 C   0  0  0  0  0  0  0  0  0  0  0  0
   13.5782    3.7510   -2.9226 C   0  0  0  0  0  0  0  0  0  0  0  0
   13.9122    4.3558   -1.7198 C   0  0  0  0  0  0  0  0  0  0  0  0
   14.6938    3.6470   -0.8202 C   0  0  0  0  0  0  0  0  0  0  0  0
   15.1263    4.3980    0.7047 Cl  0  0  0  0  0  0  0  0  0  0  0  0
   15.1305    2.3635   -1.0875 C   0  0  0  0  0  0  0  0  0  0  0  0
   15.0170   -0.6336   -1.6072 C   0  0  0  0  0  0  0  0  0  0  0  0
   15.2329   -2.6641    0.4124 N   0  0  0  0  0  0  0  0  0  0  0  0
   14.2154   -2.5665    1.2698 C   0  0  0  0  0  0  0  0  0  0  0  0
   14.3231   -2.3920    2.5495 N   0  0  0  0  0  0  0  0  0  0  0  0
   13.0172   -2.7121    0.6010 N   0  0  0  0  0  0  0  0  0  0  0  0
   11.7090   -2.5645    1.2173 C   0  0  0  0  0  0  0  0  0  0  0  0
   13.2394   -3.0056   -0.7352 C   0  0  0  0  0  0  0  0  0  0  0  0
   12.3757   -3.2001   -1.5602 O   0  0  0  0  0  0  0  0  0  0  0  0
   14.3290   -4.7029   -3.2124 H   0  0  0  0  0  0  0  0  0  0  0  0
   15.1142   -6.1408   -2.5643 H   0  0  0  0  0  0  0  0  0  0  0  0
   13.5596   -5.5971   -1.9341 H   0  0  0  0  0  0  0  0  0  0  0  0
   16.3337   -4.3983   -1.4584 H   0  0  0  0  0  0  0  0  0  0  0  0
   15.2051   -5.0207   -0.2945 H   0  0  0  0  0  0  0  0  0  0  0  0
   15.8991   -3.3347   -3.4261 H   0  0  0  0  0  0  0  0  0  0  0  0
   16.3537   -1.5709   -5.0817 H   0  0  0  0  0  0  0  0  0  0  0  0
   15.8189    0.7596   -4.5860 H   0  0  0  0  0  0  0  0  0  0  0  0
   13.7325    2.0005   -4.1460 H   0  0  0  0  0  0  0  0  0  0  0  0
   12.9795    4.2948   -3.6418 H   0  0  0  0  0  0  0  0  0  0  0  0
   13.5821    5.3562   -1.4822 H   0  0  0  0  0  0  0  0  0  0  0  0
   15.7096    1.8280   -0.3506 H   0  0  0  0  0  0  0  0  0  0  0  0
   14.7699   -0.3614   -0.5925 H   0  0  0  0  0  0  0  0  0  0  0  0
   16.1833   -2.8509    0.7579 H   0  0  0  0  0  0  0  0  0  0  0  0
   13.5313   -2.1377    3.1588 H   0  0  0  0  0  0  0  0  0  0  0  0
   11.6358   -3.2123    2.0856 H   0  0  0  0  0  0  0  0  0  0  0  0
   11.5330   -1.5379    1.5262 H   0  0  0  0  0  0  0  0  0  0  0  0
   10.9708   -2.8526    0.4774 H   0  0  0  0  0  0  0  0  0  0  0  0
   15.2667   -2.3403    2.9802 H   0  0  0  0  0  0  0  0  0  0  0  0
  1  2  1  0
  1 24  1  0
  1 25  1  0
  1 26  1  0
  3  2  1  6
  2 27  1  0
  2 28  1  0
  3  4  1  0
  3 17  1  0
  3 22  1  0
  4  5  2  0
  4 16  1  0
  5  6  1  0
  5 29  1  0
  6  7  2  0
  6 30  1  0
  7  8  1  0
  7 31  1  0
  8  9  1  0
  8 16  2  0
  9 10  2  0
  9 15  1  0
 10 11  1  0
 10 32  1  0
 11 12  2  0
 11 33  1  0
 12 13  1  0
 12 34  1  0
 13 14  1  0
 13 15  2  0
 15 35  1  0
 16 36  1  0
 17 18  2  0
 17 37  1  0
 18 19  1  0
 18 20  1  0
 19 38  1  0
 19 42  1  0
 20 21  1  0
 20 22  1  0
 21 39  1  0
 21 40  1  0
 21 41  1  0
 22 23  2  0
M  CHG  1  17   1
M  END
>  <r_exp_dg>  (8) 
-9.123

>  <mol_id>  (8) 
7

>  <source_index>  (8) 
7

>  <paff>  (8) 
6.6884165285619464

>  <source_r_exp_dg>  (8) 
-9.1229999999999993

>  <smiles>  (8) 
CC[C@]1(c2cccc(-c3cccc(Cl)c3)c2)N=C(N)N(C)C1=O

>  <aimnet_interaction_kcal_mol>  (8) 
-175.1042341103672

$$$$
bace_008
     RDKit          3D

 39 41  0  0  1  0  0  0  0  0999 V2000
   11.7241   -2.5262    1.1705 C   0  0  0  0  0  0  0  0  0  0  0  0
   13.0411   -2.6664    0.5696 N   0  0  0  0  0  0  0  0  0  0  0  0
   14.2300   -2.5398    1.2601 C   0  0  0  0  0  0  0  0  0  0  0  0
   14.3197   -2.3840    2.5443 N   0  0  0  0  0  0  0  0  0  0  0  0
   15.2612   -2.6379    0.4215 N   0  0  0  0  0  0  0  0  0  0  0  0
   14.8282   -2.9632   -0.9297 C   0  0  2  0  0  0  0  0  0  0  0  0
   15.2955   -4.3659   -1.3060 C   0  0  0  0  0  0  0  0  0  0  0  0
   15.2282   -1.8874   -1.9223 C   0  0  0  0  0  0  0  0  0  0  0  0
   15.6151   -2.2134   -3.2140 C   0  0  0  0  0  0  0  0  0  0  0  0
   15.8806   -1.2104   -4.1332 C   0  0  0  0  0  0  0  0  0  0  0  0
   15.7002    0.1155   -3.7854 C   0  0  0  0  0  0  0  0  0  0  0  0
   15.2907    0.4640   -2.4984 C   0  0  0  0  0  0  0  0  0  0  0  0
   14.9611    1.8597   -2.1761 C   0  0  0  0  0  0  0  0  0  0  0  0
   14.2359    2.6347   -3.0839 C   0  0  0  0  0  0  0  0  0  0  0  0
   13.9011    3.9443   -2.7915 C   0  0  0  0  0  0  0  0  0  0  0  0
   14.2800    4.5144   -1.5854 C   0  0  0  0  0  0  0  0  0  0  0  0
   15.0005    3.7448   -0.6861 C   0  0  0  0  0  0  0  0  0  0  0  0
   15.4640    4.4551    0.8541 Cl  0  0  0  0  0  0  0  0  0  0  0  0
   15.3409    2.4335   -0.9616 C   0  0  0  0  0  0  0  0  0  0  0  0
   15.1471   -0.5512   -1.5492 C   0  0  0  0  0  0  0  0  0  0  0  0
   13.2864   -2.9635   -0.7612 C   0  0  0  0  0  0  0  0  0  0  0  0
   12.4484   -3.1987   -1.6012 O   0  0  0  0  0  0  0  0  0  0  0  0
   11.5439   -1.5029    1.4884 H   0  0  0  0  0  0  0  0  0  0  0  0
   10.9949   -2.8079    0.4193 H   0  0  0  0  0  0  0  0  0  0  0  0
   11.6416   -3.1838    2.0308 H   0  0  0  0  0  0  0  0  0  0  0  0
   15.2593   -2.3375    2.9854 H   0  0  0  0  0  0  0  0  0  0  0  0
   16.2051   -2.8357    0.7808 H   0  0  0  0  0  0  0  0  0  0  0  0
   16.3766   -4.3837   -1.4362 H   0  0  0  0  0  0  0  0  0  0  0  0
   15.0396   -5.0695   -0.5167 H   0  0  0  0  0  0  0  0  0  0  0  0
   14.8167   -4.6986   -2.2225 H   0  0  0  0  0  0  0  0  0  0  0  0
   15.7003   -3.2451   -3.5159 H   0  0  0  0  0  0  0  0  0  0  0  0
   16.2356   -1.4580   -5.1224 H   0  0  0  0  0  0  0  0  0  0  0  0
   15.9001    0.8836   -4.5199 H   0  0  0  0  0  0  0  0  0  0  0  0
   13.9205    2.1943   -4.0207 H   0  0  0  0  0  0  0  0  0  0  0  0
   13.3408    4.5344   -3.5053 H   0  0  0  0  0  0  0  0  0  0  0  0
   14.0111    5.5298   -1.3443 H   0  0  0  0  0  0  0  0  0  0  0  0
   15.8607    1.8472   -0.2196 H   0  0  0  0  0  0  0  0  0  0  0  0
   14.9597   -0.3004   -0.5159 H   0  0  0  0  0  0  0  0  0  0  0  0
   13.5240   -2.1317    3.1505 H   0  0  0  0  0  0  0  0  0  0  0  0
  1  2  1  0
  1 23  1  0
  1 24  1  0
  1 25  1  0
  2  3  1  0
  2 21  1  0
  3  4  1  0
  3  5  2  0
  4 26  1  0
  4 39  1  0
  5  6  1  0
  5 27  1  0
  6  7  1  6
  6  8  1  0
  6 21  1  0
  7 28  1  0
  7 29  1  0
  7 30  1  0
  8  9  2  0
  8 20  1  0
  9 10  1  0
  9 31  1  0
 10 11  2  0
 10 32  1  0
 11 12  1  0
 11 33  1  0
 12 13  1  0
 12 20  2  0
 13 14  2  0
 13 19  1  0
 14 15  1  0
 14 34  1  0
 15 16  2  0
 15 35  1  0
 16 17  1  0
 16 36  1  0
 17 18  1  0
 17 19  2  0
 19 37  1  0
 20 38  1  0
 21 22  2  0
M  CHG  1   5   1
M  END
>  <r_exp_dg>  (9) 
-8.843

>  <mol_id>  (9) 
8

>  <source_index>  (9) 
8

>  <paff>  (9) 
6.4831381319555019

>  <source_r_exp_dg>  (9) 
-8.843

>  <smiles>  (9) 
CN1C(=O)[C@@](C)(c2cccc(-c3cccc(Cl)c3)c2)N=C1N

>  <aimnet_interaction_kcal_mol>  (9) 
-173.79525664436588

$$$$
bace_009
     RDKit          3D

 46 49  0  0  1  0  0  0  0  0999 V2000
   11.6704   -2.4436    1.2326 C   0  0  0  0  0  0  0  0  0  0  0  0
   12.9787   -2.6971    0.6529 N   0  0  0  0  0  0  0  0  0  0  0  0
   14.1716   -2.6931    1.3508 C   0  0  0  0  0  0  0  0  0  0  0  0
   14.2881   -2.4694    2.6228 N   0  0  0  0  0  0  0  0  0  0  0  0
   15.1782   -2.9665    0.5287 N   0  0  0  0  0  0  0  0  0  0  0  0
   14.7413   -3.1246   -0.8449 C   0  0  1  0  0  0  0  0  0  0  0  0
   15.3695   -2.0481   -1.6964 C   0  0  0  0  0  0  0  0  0  0  0  0
   16.5652   -2.2985   -2.3579 C   0  0  0  0  0  0  0  0  0  0  0  0
   17.0524   -1.3867   -3.2772 C   0  0  0  0  0  0  0  0  0  0  0  0
   16.4243   -0.1598   -3.4375 C   0  0  0  0  0  0  0  0  0  0  0  0
   15.3623    0.1875   -2.6115 C   0  0  0  0  0  0  0  0  0  0  0  0
   14.8750    1.5765   -2.5035 C   0  0  0  0  0  0  0  0  0  0  0  0
   14.0406    2.1334   -3.4713 C   0  0  0  0  0  0  0  0  0  0  0  0
   13.5192    3.4044   -3.2970 C   0  0  0  0  0  0  0  0  0  0  0  0
   13.8476    4.1608   -2.1817 C   0  0  0  0  0  0  0  0  0  0  0  0
   14.7057    3.6119   -1.2418 C   0  0  0  0  0  0  0  0  0  0  0  0
   15.1690    4.5666    0.1595 Cl  0  0  0  0  0  0  0  0  0  0  0  0
   15.2110    2.3342   -1.3816 C   0  0  0  0  0  0  0  0  0  0  0  0
   14.7865   -0.7949   -1.8016 C   0  0  0  0  0  0  0  0  0  0  0  0
   14.9704   -4.5305   -1.3890 C   0  0  0  0  0  0  0  0  0  0  0  0
   14.5625   -4.7045   -2.8195 C   0  0  0  0  0  0  0  0  0  0  0  0
   16.1526   -5.3029   -0.9163 C   0  0  0  0  0  0  0  0  0  0  0  0
   14.7842   -5.6989   -0.4753 C   0  0  0  0  0  0  0  0  0  0  0  0
   13.2141   -2.9025   -0.6949 C   0  0  0  0  0  0  0  0  0  0  0  0
   12.3620   -2.9134   -1.5539 O   0  0  0  0  0  0  0  0  0  0  0  0
   11.5574   -3.0266    2.1410 H   0  0  0  0  0  0  0  0  0  0  0  0
   11.5408   -1.3927    1.4717 H   0  0  0  0  0  0  0  0  0  0  0  0
   10.9281   -2.7424    0.5004 H   0  0  0  0  0  0  0  0  0  0  0  0
   13.5070   -2.1613    3.2233 H   0  0  0  0  0  0  0  0  0  0  0  0
   16.1504   -3.0589    0.8571 H   0  0  0  0  0  0  0  0  0  0  0  0
   17.1001   -3.2120   -2.1507 H   0  0  0  0  0  0  0  0  0  0  0  0
   17.9249   -1.6158   -3.8695 H   0  0  0  0  0  0  0  0  0  0  0  0
   16.7661    0.5259   -4.1999 H   0  0  0  0  0  0  0  0  0  0  0  0
   13.7952    1.5595   -4.3548 H   0  0  0  0  0  0  0  0  0  0  0  0
   12.8534    3.8199   -4.0431 H   0  0  0  0  0  0  0  0  0  0  0  0
   13.4628    5.1580   -2.0423 H   0  0  0  0  0  0  0  0  0  0  0  0
   15.8311    1.9147   -0.6046 H   0  0  0  0  0  0  0  0  0  0  0  0
   13.8823   -0.5581   -1.2590 H   0  0  0  0  0  0  0  0  0  0  0  0
   13.5183   -4.4520   -2.9781 H   0  0  0  0  0  0  0  0  0  0  0  0
   15.1546   -4.0810   -3.4851 H   0  0  0  0  0  0  0  0  0  0  0  0
   14.7085   -5.7461   -3.1059 H   0  0  0  0  0  0  0  0  0  0  0  0
   16.6391   -5.9055   -1.6687 H   0  0  0  0  0  0  0  0  0  0  0  0
   16.8454   -4.8715   -0.2062 H   0  0  0  0  0  0  0  0  0  0  0  0
   14.5149   -5.5468    0.5604 H   0  0  0  0  0  0  0  0  0  0  0  0
   14.3389   -6.5855   -0.9031 H   0  0  0  0  0  0  0  0  0  0  0  0
   15.2320   -2.4097    3.0469 H   0  0  0  0  0  0  0  0  0  0  0  0
  1  2  1  0
  1 26  1  0
  1 27  1  0
  1 28  1  0
  2  3  1  0
  2 24  1  0
  3  4  1  0
  3  5  2  0
  4 29  1  0
  4 46  1  0
  5  6  1  0
  5 30  1  0
  6  7  1  0
  6 20  1  6
  6 24  1  0
  7  8  2  0
  7 19  1  0
  8  9  1  0
  8 31  1  0
  9 10  2  0
  9 32  1  0
 10 11  1  0
 10 33  1  0
 11 12  1  0
 11 19  2  0
 12 13  2  0
 12 18  1  0
 13 14  1  0
 13 34  1  0
 14 15  2  0
 14 35  1  0
 15 16  1  0
 15 36  1  0
 16 17  1  0
 16 18  2  0
 18 37  1  0
 19 38  1  0
 20 21  1  0
 20 22  1  0
 20 23  1  0
 21 39  1  0
 21 40  1  0
 21 41  1  0
 22 23  1  0
 22 42  1  0
 22 43  1  0
 23 44  1  0
 23 45  1  0
 24 25  2  0
M  CHG  1   5   1
M  END
>  <r_exp_dg>  (10) 
-9.633

>  <mol_id>  (10) 
9

>  <source_index>  (10) 
9

>  <paff>  (10) 
7.0623169896190117

>  <source_r_exp_dg>  (10) 
-9.6329999999999991

>  <smiles>  (10) 
CN1C(=O)[C@](c2cccc(-c3cccc(Cl)c3)c2)(C2(C)CC2)N=C1N

>  <aimnet_interaction_kcal_mol>  (10) 
-176.59700700030757

$$$$
bace_010
     RDKit          3D

 42 45  0  0  1  0  0  0  0  0999 V2000
   11.6907   -2.5176    1.2304 C   0  0  0  0  0  0  0  0  0  0  0  0
   12.9964   -2.7139    0.6191 N   0  0  0  0  0  0  0  0  0  0  0  0
   14.1932   -2.6450    1.2992 C   0  0  0  0  0  0  0  0  0  0  0  0
   14.3084   -2.4344    2.5712 N   0  0  0  0  0  0  0  0  0  0  0  0
   15.2149   -2.8322    0.4593 N   0  0  0  0  0  0  0  0  0  0  0  0
   14.7606   -3.1422   -0.8856 C   0  0  1  0  0  0  0  0  0  0  0  0
   15.2473   -2.1270   -1.9026 C   0  0  0  0  0  0  0  0  0  0  0  0
   15.5439   -2.4801   -3.2109 C   0  0  0  0  0  0  0  0  0  0  0  0
   15.9077   -1.5015   -4.1209 C   0  0  0  0  0  0  0  0  0  0  0  0
   15.8184   -0.1650   -3.7796 C   0  0  0  0  0  0  0  0  0  0  0  0
   15.3817    0.2112   -2.5081 C   0  0  0  0  0  0  0  0  0  0  0  0
   14.9515    1.5931   -2.2505 C   0  0  0  0  0  0  0  0  0  0  0  0
   14.1770    2.2607   -3.2028 C   0  0  0  0  0  0  0  0  0  0  0  0
   13.6900    3.5302   -2.9536 C   0  0  0  0  0  0  0  0  0  0  0  0
   13.9849    4.1788   -1.7640 C   0  0  0  0  0  0  0  0  0  0  0  0
   14.7733    3.5223   -0.8322 C   0  0  0  0  0  0  0  0  0  0  0  0
   15.1508    4.3341    0.6766 Cl  0  0  0  0  0  0  0  0  0  0  0  0
   15.2559    2.2456   -1.0552 C   0  0  0  0  0  0  0  0  0  0  0  0
   15.2612   -0.7846   -1.5352 C   0  0  0  0  0  0  0  0  0  0  0  0
   15.0339   -4.5995   -1.1610 C   0  0  0  0  0  0  0  0  0  0  0  0
   14.1772   -5.5368   -0.8732 N   0  0  0  0  0  0  0  0  0  0  0  0
   14.6654   -6.7805   -1.1744 C   0  0  0  0  0  0  0  0  0  0  0  0
   15.9256   -6.8032   -1.6828 C   0  0  0  0  0  0  0  0  0  0  0  0
   16.5557   -5.1990   -1.7880 S   0  0  0  0  0  0  0  0  0  0  0  0
   13.2010   -2.9687   -0.7255 C   0  0  0  0  0  0  0  0  0  0  0  0
   12.3538   -3.0269   -1.5778 O   0  0  0  0  0  0  0  0  0  0  0  0
   10.9417   -2.8027    0.5003 H   0  0  0  0  0  0  0  0  0  0  0  0
   11.6040   -3.1431    2.1132 H   0  0  0  0  0  0  0  0  0  0  0  0
   11.5414   -1.4807    1.5167 H   0  0  0  0  0  0  0  0  0  0  0  0
   15.2545   -2.3839    2.9973 H   0  0  0  0  0  0  0  0  0  0  0  0
   16.1638   -3.0235    0.8175 H   0  0  0  0  0  0  0  0  0  0  0  0
   15.4664   -3.5080   -3.5293 H   0  0  0  0  0  0  0  0  0  0  0  0
   16.2681   -1.7757   -5.0989 H   0  0  0  0  0  0  0  0  0  0  0  0
   16.1007    0.5848   -4.5070 H   0  0  0  0  0  0  0  0  0  0  0  0
   13.9419    1.7645   -4.1348 H   0  0  0  0  0  0  0  0  0  0  0  0
   13.0728    4.0254   -3.6917 H   0  0  0  0  0  0  0  0  0  0  0  0
   13.6178    5.1727   -1.5568 H   0  0  0  0  0  0  0  0  0  0  0  0
   15.8247    1.7469   -0.2855 H   0  0  0  0  0  0  0  0  0  0  0  0
   15.1487   -0.5135   -0.4966 H   0  0  0  0  0  0  0  0  0  0  0  0
   14.0553   -7.6524   -0.9860 H   0  0  0  0  0  0  0  0  0  0  0  0
   16.5132   -7.6562   -1.9715 H   0  0  0  0  0  0  0  0  0  0  0  0
   13.5241   -2.1573    3.1829 H   0  0  0  0  0  0  0  0  0  0  0  0
  1  2  1  0
  1 27  1  0
  1 28  1  0
  1 29  1  0
  2  3  1  0
  2 25  1  0
  3  4  1  0
  3  5  2  0
  4 30  1  0
  4 42  1  0
  5  6  1  0
  5 31  1  0
  6  7  1  6
  6 20  1  0
  6 25  1  0
  7  8  2  0
  7 19  1  0
  8  9  1  0
  8 32  1  0
  9 10  2  0
  9 33  1  0
 10 11  1  0
 10 34  1  0
 11 12  1  0
 11 19  2  0
 12 13  2  0
 12 18  1  0
 13 14  1  0
 13 35  1  0
 14 15  2  0
 14 36  1  0
 15 16  1  0
 15 37  1  0
 16 17  1  0
 16 18  2  0
 18 38  1  0
 19 39  1  0
 20 21  2  0
 20 24  1  0
 21 22  1  0
 22 23  2  0
 22 40  1  0
 23 24  1  0
 23 41  1  0
 25 26  2  0
M  CHG  1   5   1
M  END
>  <r_exp_dg>  (11) 
-8.543

>  <mol_id>  (11) 
10

>  <source_index>  (11) 
10

>  <paff>  (11) 
6.2631966431469506

>  <source_r_exp_dg>  (11) 
-8.5429999999999993

>  <smiles>  (11) 
CN1C(=O)[C@](c2cccc(-c3cccc(Cl)c3)c2)(c2nccs2)N=C1N

>  <aimnet_interaction_kcal_mol>  (11) 
-176.65842013064758

$$$$
bace_011
     RDKit          3D

 52 55  0  0  1  0  0  0  0  0999 V2000
   11.6837   -2.3639    1.1831 C   0  0  0  0  0  0  0  0  0  0  0  0
   12.9811   -2.5856    0.5658 N   0  0  0  0  0  0  0  0  0  0  0  0
   14.1905   -2.5815    1.2365 C   0  0  0  0  0  0  0  0  0  0  0  0
   14.3192   -2.4007    2.5154 N   0  0  0  0  0  0  0  0  0  0  0  0
   15.1909   -2.8052    0.3847 N   0  0  0  0  0  0  0  0  0  0  0  0
   14.7005   -3.0625   -0.9667 C   0  0  1  0  0  0  0  0  0  0  0  0
   15.1903   -2.0098   -1.9494 C   0  0  0  0  0  0  0  0  0  0  0  0
   15.5612   -2.3266   -3.2499 C   0  0  0  0  0  0  0  0  0  0  0  0
   15.8946   -1.3239   -4.1454 C   0  0  0  0  0  0  0  0  0  0  0  0
   15.7400    0.0031   -3.7930 C   0  0  0  0  0  0  0  0  0  0  0  0
   15.2924    0.3452   -2.5184 C   0  0  0  0  0  0  0  0  0  0  0  0
   14.8792    1.7241   -2.2215 C   0  0  0  0  0  0  0  0  0  0  0  0
   14.1103    2.4321   -3.1486 C   0  0  0  0  0  0  0  0  0  0  0  0
   13.6527    3.7051   -2.8632 C   0  0  0  0  0  0  0  0  0  0  0  0
   13.9590    4.3100   -1.6534 C   0  0  0  0  0  0  0  0  0  0  0  0
   14.7398    3.6119   -0.7450 C   0  0  0  0  0  0  0  0  0  0  0  0
   15.1255    4.3596    0.7926 Cl  0  0  0  0  0  0  0  0  0  0  0  0
   15.2062    2.3381   -1.0128 C   0  0  0  0  0  0  0  0  0  0  0  0
   15.1618   -0.6719   -1.5688 C   0  0  0  0  0  0  0  0  0  0  0  0
   14.9339   -4.5294   -1.3914 C   0  0  0  0  0  0  0  0  0  0  0  0
   16.4038   -4.9125   -1.4671 C   0  0  0  0  0  0  0  0  0  0  0  0
   16.5626   -6.3103   -2.0460 C   0  0  0  0  0  0  0  0  0  0  0  0
   15.8025   -7.3355   -1.2228 C   0  0  0  0  0  0  0  0  0  0  0  0
   14.3427   -6.9491   -1.0655 C   0  0  0  0  0  0  0  0  0  0  0  0
   14.1901   -5.5398   -0.5151 C   0  0  0  0  0  0  0  0  0  0  0  0
   13.1767   -2.8632   -0.7756 C   0  0  0  0  0  0  0  0  0  0  0  0
   12.3063   -2.9431   -1.6122 O   0  0  0  0  0  0  0  0  0  0  0  0
   11.5423   -1.3198    1.4408 H   0  0  0  0  0  0  0  0  0  0  0  0
   10.9293   -2.6651    0.4648 H   0  0  0  0  0  0  0  0  0  0  0  0
   11.6003   -2.9614    2.0852 H   0  0  0  0  0  0  0  0  0  0  0  0
   13.5435   -2.1214    3.1338 H   0  0  0  0  0  0  0  0  0  0  0  0
   16.1500   -2.9721    0.7230 H   0  0  0  0  0  0  0  0  0  0  0  0
   15.5878   -3.3499   -3.5876 H   0  0  0  0  0  0  0  0  0  0  0  0
   16.2815   -1.5744   -5.1210 H   0  0  0  0  0  0  0  0  0  0  0  0
   15.9826    0.7725   -4.5138 H   0  0  0  0  0  0  0  0  0  0  0  0
   13.8568    1.9645   -4.0909 H   0  0  0  0  0  0  0  0  0  0  0  0
   13.0511    4.2392   -3.5870 H   0  0  0  0  0  0  0  0  0  0  0  0
   13.6058    5.3027   -1.4167 H   0  0  0  0  0  0  0  0  0  0  0  0
   15.7807    1.8088   -0.2680 H   0  0  0  0  0  0  0  0  0  0  0  0
   15.0108   -0.4202   -0.5301 H   0  0  0  0  0  0  0  0  0  0  0  0
   14.5000   -4.6040   -2.3891 H   0  0  0  0  0  0  0  0  0  0  0  0
   16.9663   -4.1886   -2.0468 H   0  0  0  0  0  0  0  0  0  0  0  0
   16.8382   -4.8916   -0.4691 H   0  0  0  0  0  0  0  0  0  0  0  0
   17.6207   -6.5662   -2.0745 H   0  0  0  0  0  0  0  0  0  0  0  0
   16.2149   -6.3275   -3.0827 H   0  0  0  0  0  0  0  0  0  0  0  0
   15.8894   -8.3307   -1.6572 H   0  0  0  0  0  0  0  0  0  0  0  0
   16.2579   -7.3901   -0.2354 H   0  0  0  0  0  0  0  0  0  0  0  0
   13.8414   -7.0137   -2.0353 H   0  0  0  0  0  0  0  0  0  0  0  0
   13.8339   -7.6562   -0.4098 H   0  0  0  0  0  0  0  0  0  0  0  0
   14.5813   -5.5041    0.5030 H   0  0  0  0  0  0  0  0  0  0  0  0
   13.1337   -5.2855   -0.4522 H   0  0  0  0  0  0  0  0  0  0  0  0
   15.2662   -2.3689    2.9396 H   0  0  0  0  0  0  0  0  0  0  0  0
  1  2  1  0
  1 28  1  0
  1 29  1  0
  1 30  1  0
  2  3  1  0
  2 26  1  0
  3  4  1  0
  3  5  2  0
  4 31  1  0
  4 52  1  0
  5  6  1  0
  5 32  1  0
  6  7  1  0
  6 20  1  6
  6 26  1  0
  7  8  2  0
  7 19  1  0
  8  9  1  0
  8 33  1  0
  9 10  2  0
  9 34  1  0
 10 11  1  0
 10 35  1  0
 11 12  1  0
 11 19  2  0
 12 13  2  0
 12 18  1  0
 13 14  1  0
 13 36  1  0
 14 15  2  0
 14 37  1  0
 15 16  1  0
 15 38  1  0
 16 17  1  0
 16 18  2  0
 18 39  1  0
 19 40  1  0
 20 21  1  0
 20 25  1  0
 20 41  1  0
 21 22  1  0
 21 42  1  0
 21 43  1  0
 22 23  1  0
 22 44  1  0
 22 45  1  0
 23 24  1  0
 23 46  1  0
 23 47  1  0
 24 25  1  0
 24 48  1  0
 24 49  1  0
 25 50  1  0
 25 51  1  0
 26 27  2  0
M  CHG  1   5   1
M  END
>  <r_exp_dg>  (12) 
-9.093

>  <mol_id>  (12) 
11

>  <source_index>  (12) 
11

>  <paff>  (12) 
6.6664225894335072

>  <source_r_exp_dg>  (12) 
-9.093

>  <smiles>  (12) 
CN1C(=O)[C@](c2cccc(-c3cccc(Cl)c3)c2)(C2CCCCC2)N=C1N

>  <aimnet_interaction_kcal_mol>  (12) 
-176.73340276012189

$$$$
bace_012
     RDKit          3D

 45 48  0  0  1  0  0  0  0  0999 V2000
   11.6823   -2.5043    1.2336 C   0  0  0  0  0  0  0  0  0  0  0  0
   12.9953   -2.6712    0.6277 N   0  0  0  0  0  0  0  0  0  0  0  0
   14.1902   -2.6066    1.3143 C   0  0  0  0  0  0  0  0  0  0  0  0
   14.2958   -2.4508    2.5956 N   0  0  0  0  0  0  0  0  0  0  0  0
   15.2121   -2.7408    0.4707 N   0  0  0  0  0  0  0  0  0  0  0  0
   14.7731   -3.0019   -0.8927 C   0  0  2  0  0  0  0  0  0  0  0  0
   15.2003   -4.3960   -1.3155 C   0  0  0  0  0  0  0  0  0  0  0  0
   14.3303   -5.2730   -1.9534 C   0  0  0  0  0  0  0  0  0  0  0  0
   14.6491   -6.6220   -2.0428 C   0  0  0  0  0  0  0  0  0  0  0  0
   15.8644   -7.0871   -1.5645 C   0  0  0  0  0  0  0  0  0  0  0  0
   16.7821   -6.1933   -1.0360 C   0  0  0  0  0  0  0  0  0  0  0  0
   16.4670   -4.8453   -0.9548 C   0  0  0  0  0  0  0  0  0  0  0  0
   15.2256   -1.9001   -1.8371 C   0  0  0  0  0  0  0  0  0  0  0  0
   15.5399   -2.1668   -3.1597 C   0  0  0  0  0  0  0  0  0  0  0  0
   15.8798   -1.1242   -4.0081 C   0  0  0  0  0  0  0  0  0  0  0  0
   15.8819    0.1815   -3.5456 C   0  0  0  0  0  0  0  0  0  0  0  0
   15.5587    0.4683   -2.2188 C   0  0  0  0  0  0  0  0  0  0  0  0
   15.5185    1.8528   -1.7303 C   0  0  0  0  0  0  0  0  0  0  0  0
   15.9725    2.1969   -0.4588 C   0  0  0  0  0  0  0  0  0  0  0  0
   15.9750    3.5212   -0.0646 C   0  0  0  0  0  0  0  0  0  0  0  0
   15.5518    4.5230   -0.8354 N   0  0  0  0  0  0  0  0  0  0  0  0
   15.0738    4.1943   -2.0398 C   0  0  0  0  0  0  0  0  0  0  0  0
   15.0213    2.8943   -2.5152 C   0  0  0  0  0  0  0  0  0  0  0  0
   15.2606   -0.5967   -1.3644 C   0  0  0  0  0  0  0  0  0  0  0  0
   13.2205   -2.9015   -0.7169 C   0  0  0  0  0  0  0  0  0  0  0  0
   12.3636   -2.9913   -1.5644 O   0  0  0  0  0  0  0  0  0  0  0  0
   11.5090   -1.4714    1.5192 H   0  0  0  0  0  0  0  0  0  0  0  0
   10.9452   -2.8074    0.4988 H   0  0  0  0  0  0  0  0  0  0  0  0
   11.6090   -3.1314    2.1162 H   0  0  0  0  0  0  0  0  0  0  0  0
   15.2421   -2.4028    3.0220 H   0  0  0  0  0  0  0  0  0  0  0  0
   16.1572   -2.9482    0.8265 H   0  0  0  0  0  0  0  0  0  0  0  0
   13.4056   -4.9009   -2.3654 H   0  0  0  0  0  0  0  0  0  0  0  0
   13.9378   -7.3159   -2.4653 H   0  0  0  0  0  0  0  0  0  0  0  0
   16.0849   -8.1468   -1.5783 H   0  0  0  0  0  0  0  0  0  0  0  0
   17.7346   -6.5472   -0.6668 H   0  0  0  0  0  0  0  0  0  0  0  0
   17.2011   -4.1464   -0.5805 H   0  0  0  0  0  0  0  0  0  0  0  0
   15.5089   -3.1800   -3.5311 H   0  0  0  0  0  0  0  0  0  0  0  0
   16.1507   -1.3280   -5.0333 H   0  0  0  0  0  0  0  0  0  0  0  0
   16.1675    0.9789   -4.2172 H   0  0  0  0  0  0  0  0  0  0  0  0
   16.3040    1.4326    0.2217 H   0  0  0  0  0  0  0  0  0  0  0  0
   16.3269    3.7797    0.9286 H   0  0  0  0  0  0  0  0  0  0  0  0
   14.7158    5.0153   -2.6548 H   0  0  0  0  0  0  0  0  0  0  0  0
   14.5819    2.6872   -3.4822 H   0  0  0  0  0  0  0  0  0  0  0  0
   15.0374   -0.4087   -0.3265 H   0  0  0  0  0  0  0  0  0  0  0  0
   13.5102   -2.1692    3.2053 H   0  0  0  0  0  0  0  0  0  0  0  0
  1  2  1  0
  1 27  1  0
  1 28  1  0
  1 29  1  0
  2  3  1  0
  2 25  1  0
  3  4  1  0
  3  5  2  0
  4 30  1  0
  4 45  1  0
  5  6  1  0
  5 31  1  0
  6  7  1  6
  6 13  1  0
  6 25  1  0
  7  8  2  0
  7 12  1  0
  8  9  1  0
  8 32  1  0
  9 10  2  0
  9 33  1  0
 10 11  1  0
 10 34  1  0
 11 12  2  0
 11 35  1  0
 12 36  1  0
 13 14  2  0
 13 24  1  0
 14 15  1  0
 14 37  1  0
 15 16  2  0
 15 38  1  0
 16 17  1  0
 16 39  1  0
 17 18  1  0
 17 24  2  0
 18 19  2  0
 18 23  1  0
 19 20  1  0
 19 40  1  0
 20 21  2  0
 20 41  1  0
 21 22  1  0
 22 23  2  0
 22 42  1  0
 23 43  1  0
 24 44  1  0
 25 26  2  0
M  CHG  1   5   1
M  END
>  <r_exp_dg>  (13) 
-7.853

>  <mol_id>  (13) 
12

>  <source_index>  (13) 
12

>  <paff>  (13) 
5.7573314985571713

>  <source_r_exp_dg>  (13) 
-7.8529999999999998

>  <smiles>  (13) 
CN1C(=O)[C@@](c2ccccc2)(c2cccc(-c3ccncc3)c2)N=C1N

>  <aimnet_interaction_kcal_mol>  (13) 
-177.94922178093083

$$$$
bace_013
     RDKit          3D

 42 45  0  0  1  0  0  0  0  0999 V2000
   11.6574   -2.4994    1.2985 C   0  0  0  0  0  0  0  0  0  0  0  0
   12.9452   -2.7211    0.6601 N   0  0  0  0  0  0  0  0  0  0  0  0
   14.1660   -2.6894    1.3065 C   0  0  0  0  0  0  0  0  0  0  0  0
   14.3160   -2.4617    2.5744 N   0  0  0  0  0  0  0  0  0  0  0  0
   15.1521   -2.9324    0.4432 N   0  0  0  0  0  0  0  0  0  0  0  0
   14.6459   -3.1596   -0.9044 C   0  0  1  0  0  0  0  0  0  0  0  0
   15.1870   -2.1229   -1.8640 C   0  0  0  0  0  0  0  0  0  0  0  0
   15.6639   -2.4760   -3.1186 C   0  0  0  0  0  0  0  0  0  0  0  0
   16.0141   -1.4912   -4.0281 C   0  0  0  0  0  0  0  0  0  0  0  0
   15.8613   -0.1562   -3.7029 C   0  0  0  0  0  0  0  0  0  0  0  0
   15.3797    0.2158   -2.4492 C   0  0  0  0  0  0  0  0  0  0  0  0
   15.0755    1.6193   -2.1513 C   0  0  0  0  0  0  0  0  0  0  0  0
   14.3966    2.4122   -3.0814 C   0  0  0  0  0  0  0  0  0  0  0  0
   14.0719    3.6864   -2.8839 N   0  0  0  0  0  0  0  0  0  0  0  0
   14.4222    4.2516   -1.7274 C   0  0  0  0  0  0  0  0  0  0  0  0
   15.0964    3.5358   -0.7547 C   0  0  0  0  0  0  0  0  0  0  0  0
   15.4324    4.1517    0.4027 F   0  0  0  0  0  0  0  0  0  0  0  0
   15.4230    2.2105   -0.9410 C   0  0  0  0  0  0  0  0  0  0  0  0
   15.1367   -0.7814   -1.5052 C   0  0  0  0  0  0  0  0  0  0  0  0
   14.7921   -4.5889   -1.3764 C   0  0  0  0  0  0  0  0  0  0  0  0
   15.9881   -5.4345   -1.1227 C   0  0  0  0  0  0  0  0  0  0  0  0
   14.6898   -5.7540   -0.4528 C   0  0  0  0  0  0  0  0  0  0  0  0
   13.1172   -2.9503   -0.6905 C   0  0  0  0  0  0  0  0  0  0  0  0
   12.2378   -3.0158   -1.5169 O   0  0  0  0  0  0  0  0  0  0  0  0
   11.6004   -3.0811    2.2124 H   0  0  0  0  0  0  0  0  0  0  0  0
   11.5112   -1.4512    1.5369 H   0  0  0  0  0  0  0  0  0  0  0  0
   10.8929   -2.8229    0.6011 H   0  0  0  0  0  0  0  0  0  0  0  0
   13.5456   -2.1629    3.1917 H   0  0  0  0  0  0  0  0  0  0  0  0
   16.1265   -3.0499    0.7589 H   0  0  0  0  0  0  0  0  0  0  0  0
   15.7636   -3.5160   -3.3887 H   0  0  0  0  0  0  0  0  0  0  0  0
   16.4139   -1.7535   -4.9939 H   0  0  0  0  0  0  0  0  0  0  0  0
   16.1406    0.5983   -4.4255 H   0  0  0  0  0  0  0  0  0  0  0  0
   14.0951    1.9752   -4.0298 H   0  0  0  0  0  0  0  0  0  0  0  0
   14.1633    5.2922   -1.5695 H   0  0  0  0  0  0  0  0  0  0  0  0
   15.8916    1.6457   -0.1499 H   0  0  0  0  0  0  0  0  0  0  0  0
   14.8922   -0.5083   -0.4907 H   0  0  0  0  0  0  0  0  0  0  0  0
   14.3076   -4.7229   -2.3332 H   0  0  0  0  0  0  0  0  0  0  0  0
   16.3038   -6.0748   -1.9366 H   0  0  0  0  0  0  0  0  0  0  0  0
   16.8012   -5.0521   -0.5233 H   0  0  0  0  0  0  0  0  0  0  0  0
   14.6107   -5.5794    0.6110 H   0  0  0  0  0  0  0  0  0  0  0  0
   14.1308   -6.6175   -0.7862 H   0  0  0  0  0  0  0  0  0  0  0  0
   15.2706   -2.4144    2.9829 H   0  0  0  0  0  0  0  0  0  0  0  0
  1  2  1  0
  1 25  1  0
  1 26  1  0
  1 27  1  0
  2  3  1  0
  2 23  1  0
  3  4  1  0
  3  5  2  0
  4 28  1  0
  4 42  1  0
  5  6  1  0
  5 29  1  0
  6  7  1  0
  6 20  1  6
  6 23  1  0
  7  8  2  0
  7 19  1  0
  8  9  1  0
  8 30  1  0
  9 10  2  0
  9 31  1  0
 10 11  1  0
 10 32  1  0
 11 12  1  0
 11 19  2  0
 12 13  2  0
 12 18  1  0
 13 14  1  0
 13 33  1  0
 14 15  2  0
 15 16  1  0
 15 34  1  0
 16 18  2  0
 16 17  1  0
 18 35  1  0
 19 36  1  0
 20 21  1  0
 20 22  1  0
 20 37  1  0
 21 22  1  0
 21 38  1  0
 21 39  1  0
 22 40  1  0
 22 41  1  0
 23 24  2  0
M  CHG  1   5   1
M  END
>  <r_exp_dg>  (14) 
-9.743

>  <mol_id>  (14) 
13

>  <source_index>  (14) 
13

>  <paff>  (14) 
7.1429618992064352

>  <source_r_exp_dg>  (14) 
-9.7430000000000003

>  <smiles>  (14) 
CN1C(=O)[C@](c2cccc(-c3cncc(F)c3)c2)(C2CC2)N=C1N

>  <aimnet_interaction_kcal_mol>  (14) 
-175.64816846436142

$$$$
bace_014
     RDKit          3D

 44 47  0  0  1  0  0  0  0  0999 V2000
   11.6939   -2.4731    1.2026 C   0  0  0  0  0  0  0  0  0  0  0  0
   13.0114   -2.6304    0.6039 N   0  0  0  0  0  0  0  0  0  0  0  0
   14.2029   -2.5566    1.2959 C   0  0  0  0  0  0  0  0  0  0  0  0
   14.3020   -2.4220    2.5800 N   0  0  0  0  0  0  0  0  0  0  0  0
   15.2310   -2.6657    0.4532 N   0  0  0  0  0  0  0  0  0  0  0  0
   14.7973   -2.9566   -0.9067 C   0  0  2  0  0  0  0  0  0  0  0  0
   15.2145   -4.3623   -1.3029 C   0  0  0  0  0  0  0  0  0  0  0  0
   14.3424   -5.2353   -1.9440 C   0  0  0  0  0  0  0  0  0  0  0  0
   14.6542   -6.5857   -2.0330 C   0  0  0  0  0  0  0  0  0  0  0  0
   15.8648   -7.0581   -1.5499 C   0  0  0  0  0  0  0  0  0  0  0  0
   16.7831   -6.1699   -1.0131 C   0  0  0  0  0  0  0  0  0  0  0  0
   16.4744   -4.8203   -0.9314 C   0  0  0  0  0  0  0  0  0  0  0  0
   15.2550   -1.8824   -1.8769 C   0  0  0  0  0  0  0  0  0  0  0  0
   15.5888   -2.1967   -3.1851 C   0  0  0  0  0  0  0  0  0  0  0  0
   15.8024   -1.1818   -4.1052 C   0  0  0  0  0  0  0  0  0  0  0  0
   15.6462    0.1419   -3.7313 C   0  0  0  0  0  0  0  0  0  0  0  0
   15.3709    0.4751   -2.4066 C   0  0  0  0  0  0  0  0  0  0  0  0
   15.1805    1.8829   -2.0378 C   0  0  0  0  0  0  0  0  0  0  0  0
   15.5803    2.4076   -0.7996 C   0  0  0  0  0  0  0  0  0  0  0  0
   15.4254    3.6880   -0.4808 N   0  0  0  0  0  0  0  0  0  0  0  0
   14.8183    4.4617   -1.3867 C   0  0  0  0  0  0  0  0  0  0  0  0
   14.4028    3.9505   -2.6070 C   0  0  0  0  0  0  0  0  0  0  0  0
   14.6075    2.6822   -2.9513 N   0  0  0  0  0  0  0  0  0  0  0  0
   15.2431   -0.5542   -1.4694 C   0  0  0  0  0  0  0  0  0  0  0  0
   13.2434   -2.8556   -0.7397 C   0  0  0  0  0  0  0  0  0  0  0  0
   12.3917   -2.9432   -1.5924 O   0  0  0  0  0  0  0  0  0  0  0  0
   10.9632   -2.7625    0.4559 H   0  0  0  0  0  0  0  0  0  0  0  0
   11.6114   -3.1153    2.0735 H   0  0  0  0  0  0  0  0  0  0  0  0
   11.5192   -1.4450    1.5041 H   0  0  0  0  0  0  0  0  0  0  0  0
   15.2460   -2.3787    3.0131 H   0  0  0  0  0  0  0  0  0  0  0  0
   16.1717   -2.8842    0.8144 H   0  0  0  0  0  0  0  0  0  0  0  0
   13.4229   -4.8593   -2.3636 H   0  0  0  0  0  0  0  0  0  0  0  0
   13.9414   -7.2752   -2.4600 H   0  0  0  0  0  0  0  0  0  0  0  0
   16.0807   -8.1188   -1.5681 H   0  0  0  0  0  0  0  0  0  0  0  0
   17.7322   -6.5279   -0.6397 H   0  0  0  0  0  0  0  0  0  0  0  0
   17.2102   -4.1270   -0.5512 H   0  0  0  0  0  0  0  0  0  0  0  0
   15.6673   -3.2286   -3.4915 H   0  0  0  0  0  0  0  0  0  0  0  0
   16.0924   -1.4221   -5.1166 H   0  0  0  0  0  0  0  0  0  0  0  0
   15.7385    0.9287   -4.4637 H   0  0  0  0  0  0  0  0  0  0  0  0
   16.0276    1.7689   -0.0482 H   0  0  0  0  0  0  0  0  0  0  0  0
   14.6601    5.5016   -1.1311 H   0  0  0  0  0  0  0  0  0  0  0  0
   13.8986    4.5784   -3.3345 H   0  0  0  0  0  0  0  0  0  0  0  0
   15.1117   -0.3282   -0.4226 H   0  0  0  0  0  0  0  0  0  0  0  0
   13.5132   -2.1530    3.1912 H   0  0  0  0  0  0  0  0  0  0  0  0
  1  2  1  0
  1 27  1  0
  1 28  1  0
  1 29  1  0
  2  3  1  0
  2 25  1  0
  3  4  1  0
  3  5  2  0
  4 30  1  0
  4 44  1  0
  5  6  1  0
  5 31  1  0
  6  7  1  6
  6 13  1  0
  6 25  1  0
  7  8  2  0
  7 12  1  0
  8  9  1  0
  8 32  1  0
  9 10  2  0
  9 33  1  0
 10 11  1  0
 10 34  1  0
 11 12  2  0
 11 35  1  0
 12 36  1  0
 13 14  2  0
 13 24  1  0
 14 15  1  0
 14 37  1  0
 15 16  2  0
 15 38  1  0
 16 17  1  0
 16 39  1  0
 17 18  1  0
 17 24  2  0
 18 19  2  0
 18 23  1  0
 19 20  1  0
 19 40  1  0
 20 21  2  0
 21 22  1  0
 21 41  1  0
 22 23  2  0
 22 42  1  0
 24 43  1  0
 25 26  2  0
M  CHG  1   5   1
M  END
>  <r_exp_dg>  (15) 
-9.343

>  <mol_id>  (15) 
14

>  <source_index>  (15) 
14

>  <paff>  (15) 
6.8497070469115133

>  <source_r_exp_dg>  (15) 
-9.343

>  <smiles>  (15) 
CN1C(=O)[C@@](c2ccccc2)(c2cccc(-c3cnccn3)c2)N=C1N

>  <aimnet_interaction_kcal_mol>  (15) 
-179.30038869068778

$$$$
bace_015
     RDKit          3D

 45 48  0  0  1  0  0  0  0  0999 V2000
   11.6882   -2.4836    1.2083 C   0  0  0  0  0  0  0  0  0  0  0  0
   13.0032   -2.6858    0.6175 N   0  0  0  0  0  0  0  0  0  0  0  0
   14.1947   -2.6210    1.3112 C   0  0  0  0  0  0  0  0  0  0  0  0
   14.2958   -2.4393    2.5897 N   0  0  0  0  0  0  0  0  0  0  0  0
   15.2188   -2.7864    0.4767 N   0  0  0  0  0  0  0  0  0  0  0  0
   14.7862   -3.0793   -0.8817 C   0  0  2  0  0  0  0  0  0  0  0  0
   15.1961   -4.4881   -1.2703 C   0  0  0  0  0  0  0  0  0  0  0  0
   16.4681   -4.9325   -0.9224 C   0  0  0  0  0  0  0  0  0  0  0  0
   16.7877   -6.2787   -1.0109 C   0  0  0  0  0  0  0  0  0  0  0  0
   15.8647   -7.1757   -1.5242 C   0  0  0  0  0  0  0  0  0  0  0  0
   14.6413   -6.7158   -1.9878 C   0  0  0  0  0  0  0  0  0  0  0  0
   14.3188   -5.3681   -1.8933 C   0  0  0  0  0  0  0  0  0  0  0  0
   15.2715   -2.0217   -1.8565 C   0  0  0  0  0  0  0  0  0  0  0  0
   15.6395   -2.3576   -3.1497 C   0  0  0  0  0  0  0  0  0  0  0  0
   15.9961   -1.3603   -4.0429 C   0  0  0  0  0  0  0  0  0  0  0  0
   15.9293   -0.0312   -3.6672 C   0  0  0  0  0  0  0  0  0  0  0  0
   15.5249    0.3246   -2.3797 C   0  0  0  0  0  0  0  0  0  0  0  0
   15.2966    1.7300   -2.0291 C   0  0  0  0  0  0  0  0  0  0  0  0
   15.6722    2.2754   -0.8032 C   0  0  0  0  0  0  0  0  0  0  0  0
   15.4495    3.6182   -0.5554 C   0  0  0  0  0  0  0  0  0  0  0  0
   14.8147    4.3782   -1.5256 C   0  0  0  0  0  0  0  0  0  0  0  0
   14.4165    3.8779   -2.6996 N   0  0  0  0  0  0  0  0  0  0  0  0
   14.6592    2.5914   -2.9292 C   0  0  0  0  0  0  0  0  0  0  0  0
   15.2862   -0.6944   -1.4547 C   0  0  0  0  0  0  0  0  0  0  0  0
   13.2348   -2.9480   -0.7203 C   0  0  0  0  0  0  0  0  0  0  0  0
   12.3831   -3.0404   -1.5726 O   0  0  0  0  0  0  0  0  0  0  0  0
   10.9528   -2.7700    0.4651 H   0  0  0  0  0  0  0  0  0  0  0  0
   11.5875   -3.1059    2.0917 H   0  0  0  0  0  0  0  0  0  0  0  0
   11.5375   -1.4458    1.4889 H   0  0  0  0  0  0  0  0  0  0  0  0
   15.2402   -2.3907    3.0202 H   0  0  0  0  0  0  0  0  0  0  0  0
   16.1652   -2.9804    0.8373 H   0  0  0  0  0  0  0  0  0  0  0  0
   17.2032   -4.2301   -0.5564 H   0  0  0  0  0  0  0  0  0  0  0  0
   17.7487   -6.6286   -0.6601 H   0  0  0  0  0  0  0  0  0  0  0  0
   16.0875   -8.2347   -1.5360 H   0  0  0  0  0  0  0  0  0  0  0  0
   13.9280   -7.4118   -2.4045 H   0  0  0  0  0  0  0  0  0  0  0  0
   13.3889   -4.9990   -2.2964 H   0  0  0  0  0  0  0  0  0  0  0  0
   15.6392   -3.3911   -3.4617 H   0  0  0  0  0  0  0  0  0  0  0  0
   16.3380   -1.6154   -5.0342 H   0  0  0  0  0  0  0  0  0  0  0  0
   16.2143    0.7322   -4.3785 H   0  0  0  0  0  0  0  0  0  0  0  0
   16.0983    1.6453   -0.0366 H   0  0  0  0  0  0  0  0  0  0  0  0
   15.7408    4.0614    0.3874 H   0  0  0  0  0  0  0  0  0  0  0  0
   14.6118    5.4285   -1.3605 H   0  0  0  0  0  0  0  0  0  0  0  0
   14.3183    2.2000   -3.8856 H   0  0  0  0  0  0  0  0  0  0  0  0
   15.0953   -0.4520   -0.4213 H   0  0  0  0  0  0  0  0  0  0  0  0
   13.5080   -2.1566    3.1966 H   0  0  0  0  0  0  0  0  0  0  0  0
  1  2  1  0
  1 27  1  0
  1 28  1  0
  1 29  1  0
  2  3  1  0
  2 25  1  0
  3  4  1  0
  3  5  2  0
  4 30  1  0
  4 45  1  0
  5  6  1  0
  5 31  1  0
  6  7  1  6
  6 13  1  0
  6 25  1  0
  7  8  2  0
  7 12  1  0
  8  9  1  0
  8 32  1  0
  9 10  2  0
  9 33  1  0
 10 11  1  0
 10 34  1  0
 11 12  2  0
 11 35  1  0
 12 36  1  0
 13 14  2  0
 13 24  1  0
 14 15  1  0
 14 37  1  0
 15 16  2  0
 15 38  1  0
 16 17  1  0
 16 39  1  0
 17 18  1  0
 17 24  2  0
 18 19  2  0
 18 23  1  0
 19 20  1  0
 19 40  1  0
 20 21  2  0
 20 41  1  0
 21 22  1  0
 21 42  1  0
 22 23  2  0
 23 43  1  0
 24 44  1  0
 25 26  2  0
M  CHG  1   5   1
M  END
>  <r_exp_dg>  (16) 
-9.023

>  <mol_id>  (16) 
15

>  <source_index>  (16) 
15

>  <paff>  (16) 
6.6151024659008568

>  <source_r_exp_dg>  (16) 
-9.0229999999999997

>  <smiles>  (16) 
CN1C(=O)[C@@](c2ccccc2)(c2cccc(-c3cccnc3)c2)N=C1N

>  <aimnet_interaction_kcal_mol>  (16) 
-178.04892602916226

$$$$
bace_016
     RDKit          3D

 46 49  0  0  1  0  0  0  0  0999 V2000
   11.6894   -2.5436    1.2453 C   0  0  0  0  0  0  0  0  0  0  0  0
   12.9980   -2.7533    0.6437 N   0  0  0  0  0  0  0  0  0  0  0  0
   14.1955   -2.6552    1.3237 C   0  0  0  0  0  0  0  0  0  0  0  0
   14.3042   -2.4376    2.5946 N   0  0  0  0  0  0  0  0  0  0  0  0
   15.2138   -2.8277    0.4820 N   0  0  0  0  0  0  0  0  0  0  0  0
   14.7715   -3.1594   -0.8631 C   0  0  2  0  0  0  0  0  0  0  0  0
   15.2036   -4.5647   -1.2367 C   0  0  0  0  0  0  0  0  0  0  0  0
   16.4840   -4.9842   -0.8892 C   0  0  0  0  0  0  0  0  0  0  0  0
   16.8298   -6.3237   -0.9798 C   0  0  0  0  0  0  0  0  0  0  0  0
   15.9255   -7.2374   -1.4968 C   0  0  0  0  0  0  0  0  0  0  0  0
   14.6943   -6.8002   -1.9629 C   0  0  0  0  0  0  0  0  0  0  0  0
   14.3437   -5.4598   -1.8621 C   0  0  0  0  0  0  0  0  0  0  0  0
   15.2282   -2.1130   -1.8664 C   0  0  0  0  0  0  0  0  0  0  0  0
   15.6281   -2.4684   -3.1453 C   0  0  0  0  0  0  0  0  0  0  0  0
   15.9311   -1.4842   -4.0722 C   0  0  0  0  0  0  0  0  0  0  0  0
   15.7531   -0.1495   -3.7572 C   0  0  0  0  0  0  0  0  0  0  0  0
   15.3256    0.2181   -2.4830 C   0  0  0  0  0  0  0  0  0  0  0  0
   14.9659    1.6076   -2.1771 C   0  0  0  0  0  0  0  0  0  0  0  0
   14.1921    2.3589   -3.0686 C   0  0  0  0  0  0  0  0  0  0  0  0
   13.7670    3.6002   -2.8389 N   0  0  0  0  0  0  0  0  0  0  0  0
   14.1349    4.1800   -1.6996 C   0  0  0  0  0  0  0  0  0  0  0  0
   14.9340    3.5345   -0.7532 C   0  0  0  0  0  0  0  0  0  0  0  0
   15.3430    4.2131    0.4201 C   0  0  0  0  0  0  0  0  0  0  0  0
   15.7115    4.7637    1.3725 N   0  0  0  0  0  0  0  0  0  0  0  0
   15.3305    2.2197   -0.9862 C   0  0  0  0  0  0  0  0  0  0  0  0
   15.1829   -0.7734   -1.5115 C   0  0  0  0  0  0  0  0  0  0  0  0
   13.2192   -3.0468   -0.6884 C   0  0  0  0  0  0  0  0  0  0  0  0
   12.3605   -3.1705   -1.5301 O   0  0  0  0  0  0  0  0  0  0  0  0
   11.5447   -1.5031    1.5208 H   0  0  0  0  0  0  0  0  0  0  0  0
   10.9457   -2.8322    0.5114 H   0  0  0  0  0  0  0  0  0  0  0  0
   11.5949   -3.1596    2.1337 H   0  0  0  0  0  0  0  0  0  0  0  0
   15.2504   -2.3809    3.0216 H   0  0  0  0  0  0  0  0  0  0  0  0
   16.1656   -3.0032    0.8408 H   0  0  0  0  0  0  0  0  0  0  0  0
   17.2060   -4.2684   -0.5232 H   0  0  0  0  0  0  0  0  0  0  0  0
   17.7974   -6.6545   -0.6289 H   0  0  0  0  0  0  0  0  0  0  0  0
   16.1688   -8.2918   -1.5077 H   0  0  0  0  0  0  0  0  0  0  0  0
   13.9978   -7.5083   -2.3885 H   0  0  0  0  0  0  0  0  0  0  0  0
   13.4059   -5.1082   -2.2625 H   0  0  0  0  0  0  0  0  0  0  0  0
   15.6967   -3.5096   -3.4207 H   0  0  0  0  0  0  0  0  0  0  0  0
   16.3203   -1.7481   -5.0426 H   0  0  0  0  0  0  0  0  0  0  0  0
   15.9722    0.6030   -4.5022 H   0  0  0  0  0  0  0  0  0  0  0  0
   13.8871    1.9119   -4.0099 H   0  0  0  0  0  0  0  0  0  0  0  0
   13.7967    5.1922   -1.5197 H   0  0  0  0  0  0  0  0  0  0  0  0
   15.8853    1.6840   -0.2316 H   0  0  0  0  0  0  0  0  0  0  0  0
   15.0194   -0.4997   -0.4812 H   0  0  0  0  0  0  0  0  0  0  0  0
   13.5160   -2.1575    3.2026 H   0  0  0  0  0  0  0  0  0  0  0  0
  1  2  1  0
  1 29  1  0
  1 30  1  0
  1 31  1  0
  2  3  1  0
  2 27  1  0
  3  4  1  0
  3  5  2  0
  4 32  1  0
  4 46  1  0
  5  6  1  0
  5 33  1  0
  6  7  1  6
  6 13  1  0
  6 27  1  0
  7  8  2  0
  7 12  1  0
  8  9  1  0
  8 34  1  0
  9 10  2  0
  9 35  1  0
 10 11  1  0
 10 36  1  0
 11 12  2  0
 11 37  1  0
 12 38  1  0
 13 14  2  0
 13 26  1  0
 14 15  1  0
 14 39  1  0
 15 16  2  0
 15 40  1  0
 16 17  1  0
 16 41  1  0
 17 18  1  0
 17 26  2  0
 18 19  2  0
 18 25  1  0
 19 20  1  0
 19 42  1  0
 20 21  2  0
 21 22  1  0
 21 43  1  0
 22 23  1  0
 22 25  2  0
 23 24  3  0
 25 44  1  0
 26 45  1  0
 27 28  2  0
M  CHG  1   5   1
M  END
>  <r_exp_dg>  (17) 
-9.093

>  <mol_id>  (17) 
16

>  <source_index>  (17) 
16

>  <paff>  (17) 
6.6664225894335072

>  <source_r_exp_dg>  (17) 
-9.093

>  <smiles>  (17) 
CN1C(=O)[C@@](c2ccccc2)(c2cccc(-c3cncc(C#N)c3)c2)N=C1N

>  <aimnet_interaction_kcal_mol>  (17) 
-184.28682315608529

$$$$
bace_017
     RDKit          3D

 46 49  0  0  1  0  0  0  0  0999 V2000
   11.6951   -2.4846    1.1752 C   0  0  0  0  0  0  0  0  0  0  0  0
   13.0035   -2.6499    0.5631 N   0  0  0  0  0  0  0  0  0  0  0  0
   14.2057   -2.5501    1.2382 C   0  0  0  0  0  0  0  0  0  0  0  0
   14.3160   -2.3839    2.5207 N   0  0  0  0  0  0  0  0  0  0  0  0
   15.2253   -2.6733    0.3861 N   0  0  0  0  0  0  0  0  0  0  0  0
   14.7613   -3.0002   -0.9576 C   0  0  2  0  0  0  0  0  0  0  0  0
   15.1433   -4.4402   -1.3413 C   0  0  0  0  0  0  0  0  0  0  0  0
   14.7043   -5.4852   -0.3543 C   0  0  0  0  0  0  0  0  0  0  0  0
   13.3852   -6.1908   -0.4642 C   0  0  0  0  0  0  0  0  0  0  0  0
   14.6489   -6.9254   -0.7605 C   0  0  0  0  0  0  0  0  0  0  0  0
   15.2079   -1.9531   -1.9590 C   0  0  0  0  0  0  0  0  0  0  0  0
   15.6499   -2.2836   -3.2319 C   0  0  0  0  0  0  0  0  0  0  0  0
   15.9298   -1.2845   -4.1517 C   0  0  0  0  0  0  0  0  0  0  0  0
   15.7083    0.0413   -3.8305 C   0  0  0  0  0  0  0  0  0  0  0  0
   15.2479    0.3948   -2.5631 C   0  0  0  0  0  0  0  0  0  0  0  0
   14.8517    1.7780   -2.2660 C   0  0  0  0  0  0  0  0  0  0  0  0
   14.0955    2.5031   -3.1899 C   0  0  0  0  0  0  0  0  0  0  0  0
   13.6561    3.7810   -2.8964 C   0  0  0  0  0  0  0  0  0  0  0  0
   13.9644    4.3717   -1.6799 C   0  0  0  0  0  0  0  0  0  0  0  0
   14.7321    3.6553   -0.7743 C   0  0  0  0  0  0  0  0  0  0  0  0
   15.1188    4.3821    0.7735 Cl  0  0  0  0  0  0  0  0  0  0  0  0
   15.1847    2.3794   -1.0521 C   0  0  0  0  0  0  0  0  0  0  0  0
   15.1076   -0.6120   -1.6056 C   0  0  0  0  0  0  0  0  0  0  0  0
   13.2247   -2.9247   -0.7756 C   0  0  0  0  0  0  0  0  0  0  0  0
   12.3688   -3.0933   -1.6147 O   0  0  0  0  0  0  0  0  0  0  0  0
   11.6195   -3.1141    2.0564 H   0  0  0  0  0  0  0  0  0  0  0  0
   11.5220   -1.4522    1.4642 H   0  0  0  0  0  0  0  0  0  0  0  0
   10.9548   -2.7856    0.4419 H   0  0  0  0  0  0  0  0  0  0  0  0
   13.5294   -2.1251    3.1336 H   0  0  0  0  0  0  0  0  0  0  0  0
   16.1748   -2.8638    0.7344 H   0  0  0  0  0  0  0  0  0  0  0  0
   16.2294   -4.4727   -1.4646 H   0  0  0  0  0  0  0  0  0  0  0  0
   14.6970   -4.6449   -2.3138 H   0  0  0  0  0  0  0  0  0  0  0  0
   15.0359   -5.3019    0.6578 H   0  0  0  0  0  0  0  0  0  0  0  0
   12.8602   -6.4225    0.4503 H   0  0  0  0  0  0  0  0  0  0  0  0
   12.7465   -5.9222   -1.2907 H   0  0  0  0  0  0  0  0  0  0  0  0
   14.8600   -7.1704   -1.7921 H   0  0  0  0  0  0  0  0  0  0  0  0
   14.9953   -7.6637   -0.0522 H   0  0  0  0  0  0  0  0  0  0  0  0
   15.7730   -3.3137   -3.5257 H   0  0  0  0  0  0  0  0  0  0  0  0
   16.3310   -1.5359   -5.1220 H   0  0  0  0  0  0  0  0  0  0  0  0
   15.9164    0.8045   -4.5688 H   0  0  0  0  0  0  0  0  0  0  0  0
   13.8382    2.0461   -4.1363 H   0  0  0  0  0  0  0  0  0  0  0  0
   13.0677    4.3307   -3.6194 H   0  0  0  0  0  0  0  0  0  0  0  0
   13.6232    5.3672   -1.4375 H   0  0  0  0  0  0  0  0  0  0  0  0
   15.7545    1.8392   -0.3115 H   0  0  0  0  0  0  0  0  0  0  0  0
   14.9063   -0.3516   -0.5773 H   0  0  0  0  0  0  0  0  0  0  0  0
   15.2587   -2.3453    2.9525 H   0  0  0  0  0  0  0  0  0  0  0  0
  1  2  1  0
  1 26  1  0
  1 27  1  0
  1 28  1  0
  2  3  1  0
  2 24  1  0
  3  4  1  0
  3  5  2  0
  4 29  1  0
  4 46  1  0
  5  6  1  0
  5 30  1  0
  6  7  1  6
  6 11  1  0
  6 24  1  0
  7  8  1  0
  7 31  1  0
  7 32  1  0
  8  9  1  0
  8 10  1  0
  8 33  1  0
  9 10  1  0
  9 34  1  0
  9 35  1  0
 10 36  1  0
 10 37  1  0
 11 12  2  0
 11 23  1  0
 12 13  1  0
 12 38  1  0
 13 14  2  0
 13 39  1  0
 14 15  1  0
 14 40  1  0
 15 16  1  0
 15 23  2  0
 16 17  2  0
 16 22  1  0
 17 18  1  0
 17 41  1  0
 18 19  2  0
 18 42  1  0
 19 20  1  0
 19 43  1  0
 20 21  1  0
 20 22  2  0
 22 44  1  0
 23 45  1  0
 24 25  2  0
M  CHG  1   5   1
M  END
>  <r_exp_dg>  (18) 
-9.273

>  <mol_id>  (18) 
17

>  <source_index>  (18) 
17

>  <paff>  (18) 
6.798386923378863

>  <source_r_exp_dg>  (18) 
-9.2729999999999997

>  <smiles>  (18) 
CN1C(=O)[C@@](CC2CC2)(c2cccc(-c3cccc(Cl)c3)c2)N=C1N

>  <aimnet_interaction_kcal_mol>  (18) 
-174.81130914745722

$$$$
bace_018
     RDKit          3D

 43 46  0  0  1  0  0  0  0  0999 V2000
   11.6569   -2.5092    1.3119 C   0  0  0  0  0  0  0  0  0  0  0  0
   12.9418   -2.7326    0.6687 N   0  0  0  0  0  0  0  0  0  0  0  0
   14.1654   -2.6923    1.3098 C   0  0  0  0  0  0  0  0  0  0  0  0
   14.3193   -2.4586    2.5753 N   0  0  0  0  0  0  0  0  0  0  0  0
   15.1492   -2.9330    0.4419 N   0  0  0  0  0  0  0  0  0  0  0  0
   14.6372   -3.1675   -0.9017 C   0  0  1  0  0  0  0  0  0  0  0  0
   15.1660   -2.1286   -1.8673 C   0  0  0  0  0  0  0  0  0  0  0  0
   15.6492   -2.4789   -3.1200 C   0  0  0  0  0  0  0  0  0  0  0  0
   15.9580   -1.4946   -4.0457 C   0  0  0  0  0  0  0  0  0  0  0  0
   15.7477   -0.1615   -3.7433 C   0  0  0  0  0  0  0  0  0  0  0  0
   15.2814    0.2054   -2.4836 C   0  0  0  0  0  0  0  0  0  0  0  0
   14.9344    1.5992   -2.1802 C   0  0  0  0  0  0  0  0  0  0  0  0
   14.1718    2.3576   -3.0743 C   0  0  0  0  0  0  0  0  0  0  0  0
   13.7585    3.6033   -2.8460 N   0  0  0  0  0  0  0  0  0  0  0  0
   14.1304    4.1792   -1.7060 C   0  0  0  0  0  0  0  0  0  0  0  0
   14.9226    3.5268   -0.7584 C   0  0  0  0  0  0  0  0  0  0  0  0
   15.3399    4.2049    0.4125 C   0  0  0  0  0  0  0  0  0  0  0  0
   15.7148    4.7563    1.3619 N   0  0  0  0  0  0  0  0  0  0  0  0
   15.3047    2.2073   -0.9893 C   0  0  0  0  0  0  0  0  0  0  0  0
   15.0911   -0.7854   -1.5213 C   0  0  0  0  0  0  0  0  0  0  0  0
   14.7854   -4.5957   -1.3748 C   0  0  0  0  0  0  0  0  0  0  0  0
   15.9790   -5.4433   -1.1173 C   0  0  0  0  0  0  0  0  0  0  0  0
   14.6779   -5.7610   -0.4523 C   0  0  0  0  0  0  0  0  0  0  0  0
   13.1084   -2.9631   -0.6816 C   0  0  0  0  0  0  0  0  0  0  0  0
   12.2264   -3.0318   -1.5052 O   0  0  0  0  0  0  0  0  0  0  0  0
   11.6081   -3.0812    2.2322 H   0  0  0  0  0  0  0  0  0  0  0  0
   11.5085   -1.4591    1.5408 H   0  0  0  0  0  0  0  0  0  0  0  0
   10.8895   -2.8425    0.6226 H   0  0  0  0  0  0  0  0  0  0  0  0
   13.5493   -2.1631    3.1950 H   0  0  0  0  0  0  0  0  0  0  0  0
   16.1247   -3.0491    0.7563 H   0  0  0  0  0  0  0  0  0  0  0  0
   15.7868   -3.5179   -3.3764 H   0  0  0  0  0  0  0  0  0  0  0  0
   16.3736   -1.7545   -5.0056 H   0  0  0  0  0  0  0  0  0  0  0  0
   15.9710    0.5916   -4.4866 H   0  0  0  0  0  0  0  0  0  0  0  0
   13.8666    1.9132   -4.0170 H   0  0  0  0  0  0  0  0  0  0  0  0
   13.8011    5.1944   -1.5267 H   0  0  0  0  0  0  0  0  0  0  0  0
   15.8525    1.6649   -0.2342 H   0  0  0  0  0  0  0  0  0  0  0  0
   14.8664   -0.5035   -0.5045 H   0  0  0  0  0  0  0  0  0  0  0  0
   14.3038   -4.7279   -2.3333 H   0  0  0  0  0  0  0  0  0  0  0  0
   16.2964   -6.0842   -1.9300 H   0  0  0  0  0  0  0  0  0  0  0  0
   16.7907   -5.0629   -0.5149 H   0  0  0  0  0  0  0  0  0  0  0  0
   14.5942   -5.5856    0.6111 H   0  0  0  0  0  0  0  0  0  0  0  0
   14.1187   -6.6234   -0.7881 H   0  0  0  0  0  0  0  0  0  0  0  0
   15.2753   -2.4099    2.9814 H   0  0  0  0  0  0  0  0  0  0  0  0
  1  2  1  0
  1 26  1  0
  1 27  1  0
  1 28  1  0
  2  3  1  0
  2 24  1  0
  3  4  1  0
  3  5  2  0
  4 29  1  0
  4 43  1  0
  5  6  1  0
  5 30  1  0
  6  7  1  0
  6 21  1  6
  6 24  1  0
  7  8  2  0
  7 20  1  0
  8  9  1  0
  8 31  1  0
  9 10  2  0
  9 32  1  0
 10 11  1  0
 10 33  1  0
 11 12  1  0
 11 20  2  0
 12 13  2  0
 12 19  1  0
 13 14  1  0
 13 34  1  0
 14 15  2  0
 15 16  1  0
 15 35  1  0
 16 17  1  0
 16 19  2  0
 17 18  3  0
 19 36  1  0
 20 37  1  0
 21 22  1  0
 21 23  1  0
 21 38  1  0
 22 23  1  0
 22 39  1  0
 22 40  1  0
 23 41  1  0
 23 42  1  0
 24 25  2  0
M  CHG  1   5   1
M  END
>  <r_exp_dg>  (19) 
-9.423

>  <mol_id>  (19) 
18

>  <source_index>  (19) 
18

>  <paff>  (19) 
6.9083580173704977

>  <source_r_exp_dg>  (19) 
-9.423

>  <smiles>  (19) 
CN1C(=O)[C@](c2cccc(-c3cncc(C#N)c3)c2)(C2CC2)N=C1N

>  <aimnet_interaction_kcal_mol>  (19) 
-180.89979824147045

$$$$
bace_019
     RDKit          3D

 45 48  0  0  1  0  0  0  0  0999 V2000
   11.6863   -2.5165    1.2308 C   0  0  0  0  0  0  0  0  0  0  0  0
   12.9957   -2.7341    0.6335 N   0  0  0  0  0  0  0  0  0  0  0  0
   14.1932   -2.6391    1.3140 C   0  0  0  0  0  0  0  0  0  0  0  0
   14.3032   -2.4256    2.5860 N   0  0  0  0  0  0  0  0  0  0  0  0
   15.2112   -2.8137    0.4726 N   0  0  0  0  0  0  0  0  0  0  0  0
   14.7677   -3.1575   -0.8704 C   0  0  2  0  0  0  0  0  0  0  0  0
   15.1917   -4.5695   -1.2270 C   0  0  0  0  0  0  0  0  0  0  0  0
   14.3278   -5.4670   -1.8434 C   0  0  0  0  0  0  0  0  0  0  0  0
   14.6794   -6.8069   -1.9456 C   0  0  0  0  0  0  0  0  0  0  0  0
   15.9142   -7.2421   -1.4873 C   0  0  0  0  0  0  0  0  0  0  0  0
   16.8202   -6.3271   -0.9754 C   0  0  0  0  0  0  0  0  0  0  0  0
   16.4730   -4.9883   -0.8823 C   0  0  0  0  0  0  0  0  0  0  0  0
   15.2299   -2.1281   -1.8853 C   0  0  0  0  0  0  0  0  0  0  0  0
   15.6518   -2.5118   -3.1494 C   0  0  0  0  0  0  0  0  0  0  0  0
   15.9667   -1.5483   -4.0931 C   0  0  0  0  0  0  0  0  0  0  0  0
   15.7715   -0.2093   -3.8124 C   0  0  0  0  0  0  0  0  0  0  0  0
   15.2972    0.1837   -2.5619 C   0  0  0  0  0  0  0  0  0  0  0  0
   14.8601    1.5652   -2.3363 C   0  0  0  0  0  0  0  0  0  0  0  0
   14.0657    2.2123   -3.2871 C   0  0  0  0  0  0  0  0  0  0  0  0
   13.5816    3.4428   -3.1436 N   0  0  0  0  0  0  0  0  0  0  0  0
   13.8985    4.1150   -2.0349 C   0  0  0  0  0  0  0  0  0  0  0  0
   14.6989    3.5598   -1.0471 C   0  0  0  0  0  0  0  0  0  0  0  0
   15.1038    4.5073    0.3677 Cl  0  0  0  0  0  0  0  0  0  0  0  0
   15.1763    2.2704   -1.1791 C   0  0  0  0  0  0  0  0  0  0  0  0
   15.1638   -0.7807   -1.5628 C   0  0  0  0  0  0  0  0  0  0  0  0
   13.2166   -3.0367   -0.6968 C   0  0  0  0  0  0  0  0  0  0  0  0
   12.3576   -3.1634   -1.5375 O   0  0  0  0  0  0  0  0  0  0  0  0
   11.5467   -1.4749    1.5038 H   0  0  0  0  0  0  0  0  0  0  0  0
   10.9439   -2.8018    0.4941 H   0  0  0  0  0  0  0  0  0  0  0  0
   11.5845   -3.1307    2.1197 H   0  0  0  0  0  0  0  0  0  0  0  0
   15.2491   -2.3708    3.0136 H   0  0  0  0  0  0  0  0  0  0  0  0
   16.1619   -2.9908    0.8309 H   0  0  0  0  0  0  0  0  0  0  0  0
   13.3869   -5.1174   -2.2383 H   0  0  0  0  0  0  0  0  0  0  0  0
   13.9818   -7.5159   -2.3680 H   0  0  0  0  0  0  0  0  0  0  0  0
   16.1593   -8.2960   -1.5005 H   0  0  0  0  0  0  0  0  0  0  0  0
   17.7902   -6.6568   -0.6299 H   0  0  0  0  0  0  0  0  0  0  0  0
   17.1951   -4.2715   -0.5183 H   0  0  0  0  0  0  0  0  0  0  0  0
   15.7254   -3.5588   -3.3990 H   0  0  0  0  0  0  0  0  0  0  0  0
   16.3718   -1.8303   -5.0507 H   0  0  0  0  0  0  0  0  0  0  0  0
   16.0080    0.5292   -4.5661 H   0  0  0  0  0  0  0  0  0  0  0  0
   13.8003    1.6925   -4.2031 H   0  0  0  0  0  0  0  0  0  0  0  0
   13.5140    5.1191   -1.9326 H   0  0  0  0  0  0  0  0  0  0  0  0
   15.7516    1.8163   -0.3864 H   0  0  0  0  0  0  0  0  0  0  0  0
   14.9903   -0.4810   -0.5403 H   0  0  0  0  0  0  0  0  0  0  0  0
   13.5151   -2.1484    3.1951 H   0  0  0  0  0  0  0  0  0  0  0  0
  1  2  1  0
  1 28  1  0
  1 29  1  0
  1 30  1  0
  2  3  1  0
  2 26  1  0
  3  4  1  0
  3  5  2  0
  4 31  1  0
  4 45  1  0
  5  6  1  0
  5 32  1  0
  6  7  1  6
  6 13  1  0
  6 26  1  0
  7  8  2  0
  7 12  1  0
  8  9  1  0
  8 33  1  0
  9 10  2  0
  9 34  1  0
 10 11  1  0
 10 35  1  0
 11 12  2  0
 11 36  1  0
 12 37  1  0
 13 14  2  0
 13 25  1  0
 14 15  1  0
 14 38  1  0
 15 16  2  0
 15 39  1  0
 16 17  1  0
 16 40  1  0
 17 18  1  0
 17 25  2  0
 18 19  2  0
 18 24  1  0
 19 20  1  0
 19 41  1  0
 20 21  2  0
 21 22  1  0
 21 42  1  0
 22 23  1  0
 22 24  2  0
 24 43  1  0
 25 44  1  0
 26 27  2  0
M  CHG  1   5   1
M  END
>  <r_exp_dg>  (20) 
-10.083

>  <mol_id>  (20) 
19

>  <source_index>  (20) 
19

>  <paff>  (20) 
7.3922288732444779

>  <source_r_exp_dg>  (20) 
-10.083

>  <smiles>  (20) 
CN1C(=O)[C@@](c2ccccc2)(c2cccc(-c3cncc(Cl)c3)c2)N=C1N

>  <aimnet_interaction_kcal_mol>  (20) 
-182.04739034446837

$$$$
bace_020
     RDKit          3D

 45 47  0  0  1  0  0  0  0  0999 V2000
   16.4498   -4.8269   -1.3171 C   0  0  0  0  0  0  0  0  0  0  0  0
   14.9608   -4.5415   -1.3248 C   0  0  0  0  0  0  0  0  0  0  0  0
   14.2327   -5.5480   -0.4431 C   0  0  0  0  0  0  0  0  0  0  0  0
   14.6705   -3.0783   -0.9279 C   0  0  2  0  0  0  0  0  0  0  0  0
   15.1459   -2.0331   -1.9218 C   0  0  0  0  0  0  0  0  0  0  0  0
   15.5481   -2.3689   -3.2077 C   0  0  0  0  0  0  0  0  0  0  0  0
   15.8928   -1.3757   -4.1098 C   0  0  0  0  0  0  0  0  0  0  0  0
   15.7344   -0.0445   -3.7757 C   0  0  0  0  0  0  0  0  0  0  0  0
   15.2656    0.3143   -2.5133 C   0  0  0  0  0  0  0  0  0  0  0  0
   14.8726    1.7026   -2.2321 C   0  0  0  0  0  0  0  0  0  0  0  0
   14.1225    2.4148   -3.1707 C   0  0  0  0  0  0  0  0  0  0  0  0
   13.6808    3.6963   -2.8971 C   0  0  0  0  0  0  0  0  0  0  0  0
   13.9869    4.3056   -1.6894 C   0  0  0  0  0  0  0  0  0  0  0  0
   14.7507    3.6029   -0.7703 C   0  0  0  0  0  0  0  0  0  0  0  0
   15.1351    4.3569    0.7652 Cl  0  0  0  0  0  0  0  0  0  0  0  0
   15.2010    2.3208   -1.0259 C   0  0  0  0  0  0  0  0  0  0  0  0
   15.1010   -0.6913   -1.5578 C   0  0  0  0  0  0  0  0  0  0  0  0
   15.1698   -2.8013    0.4136 N   0  0  0  0  0  0  0  0  0  0  0  0
   14.1726   -2.5889    1.2705 C   0  0  0  0  0  0  0  0  0  0  0  0
   14.3072   -2.4002    2.5463 N   0  0  0  0  0  0  0  0  0  0  0  0
   12.9582   -2.6234    0.6097 N   0  0  0  0  0  0  0  0  0  0  0  0
   11.6616   -2.4184    1.2341 C   0  0  0  0  0  0  0  0  0  0  0  0
   13.1491   -2.9218   -0.7274 C   0  0  0  0  0  0  0  0  0  0  0  0
   12.2738   -3.0574   -1.5524 O   0  0  0  0  0  0  0  0  0  0  0  0
   17.0256   -4.0484   -1.8068 H   0  0  0  0  0  0  0  0  0  0  0  0
   16.8306   -4.9110   -0.3029 H   0  0  0  0  0  0  0  0  0  0  0  0
   16.6442   -5.7777   -1.8176 H   0  0  0  0  0  0  0  0  0  0  0  0
   14.5684   -4.6555   -2.3340 H   0  0  0  0  0  0  0  0  0  0  0  0
   14.5196   -6.5576   -0.7364 H   0  0  0  0  0  0  0  0  0  0  0  0
   14.5006   -5.4289    0.6054 H   0  0  0  0  0  0  0  0  0  0  0  0
   13.1506   -5.4711   -0.5237 H   0  0  0  0  0  0  0  0  0  0  0  0
   15.5980   -3.3990   -3.5217 H   0  0  0  0  0  0  0  0  0  0  0  0
   16.2950   -1.6358   -5.0763 H   0  0  0  0  0  0  0  0  0  0  0  0
   15.9924    0.7160   -4.5004 H   0  0  0  0  0  0  0  0  0  0  0  0
   13.8719    1.9447   -4.1125 H   0  0  0  0  0  0  0  0  0  0  0  0
   13.0922    4.2340   -3.6287 H   0  0  0  0  0  0  0  0  0  0  0  0
   13.6476    5.3055   -1.4623 H   0  0  0  0  0  0  0  0  0  0  0  0
   15.7637    1.7888   -0.2740 H   0  0  0  0  0  0  0  0  0  0  0  0
   14.9182   -0.4267   -0.5278 H   0  0  0  0  0  0  0  0  0  0  0  0
   16.1329   -2.9596    0.7419 H   0  0  0  0  0  0  0  0  0  0  0  0
   13.5304   -2.1236    3.1653 H   0  0  0  0  0  0  0  0  0  0  0  0
   10.9088   -2.7455    0.5256 H   0  0  0  0  0  0  0  0  0  0  0  0
   11.5974   -3.0043    2.1450 H   0  0  0  0  0  0  0  0  0  0  0  0
   11.5021   -1.3732    1.4768 H   0  0  0  0  0  0  0  0  0  0  0  0
   15.2563   -2.3597    2.9648 H   0  0  0  0  0  0  0  0  0  0  0  0
  1  2  1  0
  1 25  1  0
  1 26  1  0
  1 27  1  0
  2  3  1  0
  4  2  1  6
  2 28  1  0
  3 29  1  0
  3 30  1  0
  3 31  1  0
  4  5  1  0
  4 18  1  0
  4 23  1  0
  5  6  2  0
  5 17  1  0
  6  7  1  0
  6 32  1  0
  7  8  2  0
  7 33  1  0
  8  9  1  0
  8 34  1  0
  9 10  1  0
  9 17  2  0
 10 11  2  0
 10 16  1  0
 11 12  1  0
 11 35  1  0
 12 13  2  0
 12 36  1  0
 13 14  1  0
 13 37  1  0
 14 15  1  0
 14 16  2  0
 16 38  1  0
 17 39  1  0
 18 19  2  0
 18 40  1  0
 19 20  1  0
 19 21  1  0
 20 41  1  0
 20 45  1  0
 21 22  1  0
 21 23  1  0
 22 42  1  0
 22 43  1  0
 22 44  1  0
 23 24  2  0
M  CHG  1  18   1
M  END
>  <r_exp_dg>  (21) 
-9.323

>  <mol_id>  (21) 
20

>  <source_index>  (21) 
20

>  <paff>  (21) 
6.8350439547094073

>  <source_r_exp_dg>  (21) 
-9.3230000000000004

>  <smiles>  (21) 
CC(C)[C@]1(c2cccc(-c3cccc(Cl)c3)c2)N=C(N)N(C)C1=O

>  <aimnet_interaction_kcal_mol>  (21) 
-175.65680297849832

$$$$
bace_021
     RDKit          3D

 47 50  0  0  1  0  0  0  0  0999 V2000
   15.1043    5.0528    2.7282 C   0  0  0  0  0  0  0  0  0  0  0  0
   15.0016    4.5155    1.4150 C   0  0  0  0  0  0  0  0  0  0  0  0
   14.8860    4.0523    0.3063 C   0  0  0  0  0  0  0  0  0  0  0  0
   14.7142    3.4262   -0.9294 C   0  0  0  0  0  0  0  0  0  0  0  0
   13.9912    4.0420   -1.9611 C   0  0  0  0  0  0  0  0  0  0  0  0
   13.7455    3.4613   -3.1323 N   0  0  0  0  0  0  0  0  0  0  0  0
   14.2107    2.2288   -3.3256 C   0  0  0  0  0  0  0  0  0  0  0  0
   14.9253    1.5081   -2.3659 C   0  0  0  0  0  0  0  0  0  0  0  0
   15.2977    0.1099   -2.5988 C   0  0  0  0  0  0  0  0  0  0  0  0
   15.8037   -0.3030   -3.8288 C   0  0  0  0  0  0  0  0  0  0  0  0
   15.9907   -1.6481   -4.0890 C   0  0  0  0  0  0  0  0  0  0  0  0
   15.6514   -2.5993   -3.1398 C   0  0  0  0  0  0  0  0  0  0  0  0
   15.1585   -2.2026   -1.9039 C   0  0  0  0  0  0  0  0  0  0  0  0
   14.6157   -3.2028   -0.9106 C   0  0  1  0  0  0  0  0  0  0  0  0
   14.7285   -4.6461   -1.3469 C   0  0  0  0  0  0  0  0  0  0  0  0
   15.9087   -5.5097   -1.0829 C   0  0  0  0  0  0  0  0  0  0  0  0
   14.6108   -5.7838   -0.3916 C   0  0  0  0  0  0  0  0  0  0  0  0
   15.1392   -2.9471    0.4263 N   0  0  0  0  0  0  0  0  0  0  0  0
   14.1618   -2.6882    1.2957 C   0  0  0  0  0  0  0  0  0  0  0  0
   14.3241   -2.4503    2.5599 N   0  0  0  0  0  0  0  0  0  0  0  0
   12.9348   -2.7171    0.6616 N   0  0  0  0  0  0  0  0  0  0  0  0
   11.6539   -2.4770    1.3067 C   0  0  0  0  0  0  0  0  0  0  0  0
   13.0917   -2.9658   -0.6869 C   0  0  0  0  0  0  0  0  0  0  0  0
   12.2043   -3.0310   -1.5045 O   0  0  0  0  0  0  0  0  0  0  0  0
   15.0837   -0.8490   -1.6075 C   0  0  0  0  0  0  0  0  0  0  0  0
   15.2053    2.1414   -1.1648 C   0  0  0  0  0  0  0  0  0  0  0  0
   14.6043    6.0109    2.7916 H   0  0  0  0  0  0  0  0  0  0  0  0
   14.6523    4.3774    3.4432 H   0  0  0  0  0  0  0  0  0  0  0  0
   16.1424    5.1749    3.0189 H   0  0  0  0  0  0  0  0  0  0  0  0
   13.6072    5.0425   -1.8215 H   0  0  0  0  0  0  0  0  0  0  0  0
   13.9912    1.7710   -4.2852 H   0  0  0  0  0  0  0  0  0  0  0  0
   16.0734    0.4237   -4.5843 H   0  0  0  0  0  0  0  0  0  0  0  0
   16.4037   -1.9379   -5.0393 H   0  0  0  0  0  0  0  0  0  0  0  0
   15.7690   -3.6483   -3.3642 H   0  0  0  0  0  0  0  0  0  0  0  0
   14.2326   -4.7934   -2.2960 H   0  0  0  0  0  0  0  0  0  0  0  0
   16.2019   -6.1803   -1.8802 H   0  0  0  0  0  0  0  0  0  0  0  0
   16.7369   -5.1276   -0.5046 H   0  0  0  0  0  0  0  0  0  0  0  0
   14.5445   -5.5804    0.6685 H   0  0  0  0  0  0  0  0  0  0  0  0
   14.0310   -6.6439   -0.6973 H   0  0  0  0  0  0  0  0  0  0  0  0
   16.1163   -3.0558    0.7352 H   0  0  0  0  0  0  0  0  0  0  0  0
   13.5553   -2.1631    3.1827 H   0  0  0  0  0  0  0  0  0  0  0  0
   10.8820   -2.8148    0.6244 H   0  0  0  0  0  0  0  0  0  0  0  0
   11.6049   -3.0352    2.2354 H   0  0  0  0  0  0  0  0  0  0  0  0
   11.5134   -1.4232    1.5209 H   0  0  0  0  0  0  0  0  0  0  0  0
   14.8376   -0.5322   -0.6061 H   0  0  0  0  0  0  0  0  0  0  0  0
   15.7683    1.6312   -0.3969 H   0  0  0  0  0  0  0  0  0  0  0  0
   15.2815   -2.4081    2.9625 H   0  0  0  0  0  0  0  0  0  0  0  0
  1  2  1  0
  1 27  1  0
  1 28  1  0
  1 29  1  0
  2  3  3  0
  3  4  1  0
  4  5  2  0
  4 26  1  0
  5  6  1  0
  5 30  1  0
  6  7  2  0
  7  8  1  0
  7 31  1  0
  8  9  1  0
  8 26  2  0
  9 10  2  0
  9 25  1  0
 10 11  1  0
 10 32  1  0
 11 12  2  0
 11 33  1  0
 12 13  1  0
 12 34  1  0
 13 14  1  0
 13 25  2  0
 14 15  1  6
 14 18  1  0
 14 23  1  0
 15 16  1  0
 15 17  1  0
 15 35  1  0
 16 17  1  0
 16 36  1  0
 16 37  1  0
 17 38  1  0
 17 39  1  0
 18 19  2  0
 18 40  1  0
 19 20  1  0
 19 21  1  0
 20 41  1  0
 20 47  1  0
 21 22  1  0
 21 23  1  0
 22 42  1  0
 22 43  1  0
 22 44  1  0
 23 24  2  0
 25 45  1  0
 26 46  1  0
M  CHG  1  18   1
M  END
>  <r_exp_dg>  (22) 
-11.35

>  <mol_id>  (22) 
21

>  <source_index>  (22) 
21

>  <paff>  (22) 
8.3211146491713528

>  <source_r_exp_dg>  (22) 
-11.35

>  <smiles>  (22) 
CC#Cc1cncc(-c2cccc([C@@]3(C4CC4)N=C(N)N(C)C3=O)c2)c1

>  <aimnet_interaction_kcal_mol>  (22) 
-178.89807969869017

$$$$
bace_022
     RDKit          3D

 45 48  0  0  1  0  0  0  0  0999 V2000
   11.6955   -2.4585    1.1908 C   0  0  0  0  0  0  0  0  0  0  0  0
   13.0130   -2.6167    0.5925 N   0  0  0  0  0  0  0  0  0  0  0  0
   14.2038   -2.5573    1.2855 C   0  0  0  0  0  0  0  0  0  0  0  0
   14.3028   -2.4300    2.5713 N   0  0  0  0  0  0  0  0  0  0  0  0
   15.2314   -2.6704    0.4446 N   0  0  0  0  0  0  0  0  0  0  0  0
   14.7986   -2.9388   -0.9212 C   0  0  2  0  0  0  0  0  0  0  0  0
   15.2165   -4.3388   -1.3335 C   0  0  0  0  0  0  0  0  0  0  0  0
   14.3433   -5.2079   -1.9783 C   0  0  0  0  0  0  0  0  0  0  0  0
   14.6477   -6.5604   -2.0607 C   0  0  0  0  0  0  0  0  0  0  0  0
   15.8535   -7.0381   -1.5713 C   0  0  0  0  0  0  0  0  0  0  0  0
   16.7755   -6.1532   -1.0352 C   0  0  0  0  0  0  0  0  0  0  0  0
   16.4739   -4.8016   -0.9588 C   0  0  0  0  0  0  0  0  0  0  0  0
   15.2554   -1.8449   -1.8731 C   0  0  0  0  0  0  0  0  0  0  0  0
   15.5695   -2.1272   -3.1931 C   0  0  0  0  0  0  0  0  0  0  0  0
   15.7938   -1.0866   -4.0823 C   0  0  0  0  0  0  0  0  0  0  0  0
   15.6765    0.2284   -3.6619 C   0  0  0  0  0  0  0  0  0  0  0  0
   15.4334    0.5300   -2.3235 C   0  0  0  0  0  0  0  0  0  0  0  0
   15.3212    1.9284   -1.8846 C   0  0  0  0  0  0  0  0  0  0  0  0
   15.6935    2.3268   -0.5994 C   0  0  0  0  0  0  0  0  0  0  0  0
   15.4769    3.6310   -0.1982 C   0  0  0  0  0  0  0  0  0  0  0  0
   14.9081    4.5179   -1.1010 C   0  0  0  0  0  0  0  0  0  0  0  0
   14.6138    4.0526   -2.3754 C   0  0  0  0  0  0  0  0  0  0  0  0
   14.8360    2.8035   -2.7831 N   0  0  0  0  0  0  0  0  0  0  0  0
   15.2634   -0.5306   -1.4272 C   0  0  0  0  0  0  0  0  0  0  0  0
   13.2449   -2.8380   -0.7530 C   0  0  0  0  0  0  0  0  0  0  0  0
   12.3917   -2.9232   -1.6041 O   0  0  0  0  0  0  0  0  0  0  0  0
   11.6097   -3.1053    2.0582 H   0  0  0  0  0  0  0  0  0  0  0  0
   11.5234   -1.4315    1.4976 H   0  0  0  0  0  0  0  0  0  0  0  0
   10.9646   -2.7413    0.4417 H   0  0  0  0  0  0  0  0  0  0  0  0
   15.2468   -2.3911    3.0038 H   0  0  0  0  0  0  0  0  0  0  0  0
   16.1715   -2.8904    0.8044 H   0  0  0  0  0  0  0  0  0  0  0  0
   13.4280   -4.8265   -2.4025 H   0  0  0  0  0  0  0  0  0  0  0  0
   13.9325   -7.2480   -2.4867 H   0  0  0  0  0  0  0  0  0  0  0  0
   16.0631   -8.1001   -1.5845 H   0  0  0  0  0  0  0  0  0  0  0  0
   17.7209   -6.5161   -0.6570 H   0  0  0  0  0  0  0  0  0  0  0  0
   17.2120   -4.1106   -0.5788 H   0  0  0  0  0  0  0  0  0  0  0  0
   15.6229   -3.1509   -3.5320 H   0  0  0  0  0  0  0  0  0  0  0  0
   16.0592   -1.3005   -5.1072 H   0  0  0  0  0  0  0  0  0  0  0  0
   15.7691    1.0352   -4.3727 H   0  0  0  0  0  0  0  0  0  0  0  0
   16.1160    1.6117    0.0864 H   0  0  0  0  0  0  0  0  0  0  0  0
   15.7324    3.9358    0.8089 H   0  0  0  0  0  0  0  0  0  0  0  0
   14.6927    5.5415   -0.8292 H   0  0  0  0  0  0  0  0  0  0  0  0
   14.1810    4.7205   -3.1126 H   0  0  0  0  0  0  0  0  0  0  0  0
   15.1096   -0.3400   -0.3769 H   0  0  0  0  0  0  0  0  0  0  0  0
   13.5156   -2.1590    3.1822 H   0  0  0  0  0  0  0  0  0  0  0  0
  1  2  1  0
  1 27  1  0
  1 28  1  0
  1 29  1  0
  2  3  1  0
  2 25  1  0
  3  4  1  0
  3  5  2  0
  4 30  1  0
  4 45  1  0
  5  6  1  0
  5 31  1  0
  6  7  1  6
  6 13  1  0
  6 25  1  0
  7  8  2  0
  7 12  1  0
  8  9  1  0
  8 32  1  0
  9 10  2  0
  9 33  1  0
 10 11  1  0
 10 34  1  0
 11 12  2  0
 11 35  1  0
 12 36  1  0
 13 14  2  0
 13 24  1  0
 14 15  1  0
 14 37  1  0
 15 16  2  0
 15 38  1  0
 16 17  1  0
 16 39  1  0
 17 18  1  0
 17 24  2  0
 18 19  2  0
 18 23  1  0
 19 20  1  0
 19 40  1  0
 20 21  2  0
 20 41  1  0
 21 22  1  0
 21 42  1  0
 22 23  2  0
 22 43  1  0
 24 44  1  0
 25 26  2  0
M  CHG  1   5   1
M  END
>  <r_exp_dg>  (23) 
-8.263

>  <mol_id>  (23) 
22

>  <source_index>  (23) 
22

>  <paff>  (23) 
6.0579175473657862

>  <source_r_exp_dg>  (23) 
-8.2629999999999999

>  <smiles>  (23) 
CN1C(=O)[C@@](c2ccccc2)(c2cccc(-c3ccccn3)c2)N=C1N

>  <aimnet_interaction_kcal_mol>  (23) 
-177.94067026215967

$$$$
bace_023
     RDKit          3D

 50 53  0  0  1  0  0  0  0  0999 V2000
   11.2821    5.5873   -4.0142 C   0  0  0  0  0  0  0  0  0  0  0  0
   11.6724    4.9720   -2.8052 O   0  0  0  0  0  0  0  0  0  0  0  0
   12.3995    3.8210   -2.9050 C   0  0  0  0  0  0  0  0  0  0  0  0
   13.0160    3.3687   -1.7382 C   0  0  0  0  0  0  0  0  0  0  0  0
   13.7447    2.1985   -1.7427 C   0  0  0  0  0  0  0  0  0  0  0  0
   13.8856    1.4349   -2.9073 C   0  0  0  0  0  0  0  0  0  0  0  0
   14.6208    0.1662   -2.9274 C   0  0  0  0  0  0  0  0  0  0  0  0
   15.3833   -0.2003   -4.0391 C   0  0  0  0  0  0  0  0  0  0  0  0
   15.9439   -1.4605   -4.1255 C   0  0  0  0  0  0  0  0  0  0  0  0
   15.7367   -2.3887   -3.1188 C   0  0  0  0  0  0  0  0  0  0  0  0
   15.0239   -2.0279   -1.9873 C   0  0  0  0  0  0  0  0  0  0  0  0
   14.6800   -3.0515   -0.9233 C   0  0  1  0  0  0  0  0  0  0  0  0
   15.1321   -4.4582   -1.2688 C   0  0  0  0  0  0  0  0  0  0  0  0
   14.2942   -5.3501   -1.9279 C   0  0  0  0  0  0  0  0  0  0  0  0
   14.6490   -6.6889   -2.0272 C   0  0  0  0  0  0  0  0  0  0  0  0
   15.8680   -7.1287   -1.5332 C   0  0  0  0  0  0  0  0  0  0  0  0
   16.7521   -6.2191   -0.9754 C   0  0  0  0  0  0  0  0  0  0  0  0
   16.3979   -4.8822   -0.8773 C   0  0  0  0  0  0  0  0  0  0  0  0
   15.1722   -2.6703    0.4006 N   0  0  0  0  0  0  0  0  0  0  0  0
   14.1810   -2.5778    1.2919 C   0  0  0  0  0  0  0  0  0  0  0  0
   14.3280   -2.4044    2.5658 N   0  0  0  0  0  0  0  0  0  0  0  0
   12.9613   -2.7204    0.6620 N   0  0  0  0  0  0  0  0  0  0  0  0
   11.6701   -2.5761    1.3159 C   0  0  0  0  0  0  0  0  0  0  0  0
   13.1370   -3.0008   -0.6776 C   0  0  0  0  0  0  0  0  0  0  0  0
   12.2484   -3.1629   -1.4799 O   0  0  0  0  0  0  0  0  0  0  0  0
   14.5349   -0.7362   -1.8637 C   0  0  0  0  0  0  0  0  0  0  0  0
   13.2836    1.9131   -4.0715 C   0  0  0  0  0  0  0  0  0  0  0  0
   12.5449    3.0855   -4.0792 C   0  0  0  0  0  0  0  0  0  0  0  0
   10.8418    6.5416   -3.7420 H   0  0  0  0  0  0  0  0  0  0  0  0
   12.1367    5.7688   -4.6717 H   0  0  0  0  0  0  0  0  0  0  0  0
   10.5387    4.9916   -4.5529 H   0  0  0  0  0  0  0  0  0  0  0  0
   12.9292    3.9586   -0.8368 H   0  0  0  0  0  0  0  0  0  0  0  0
   14.2150    1.8683   -0.8283 H   0  0  0  0  0  0  0  0  0  0  0  0
   15.5672    0.5043   -4.8376 H   0  0  0  0  0  0  0  0  0  0  0  0
   16.5437   -1.7114   -4.9860 H   0  0  0  0  0  0  0  0  0  0  0  0
   16.1104   -3.3938   -3.2201 H   0  0  0  0  0  0  0  0  0  0  0  0
   13.3662   -4.9960   -2.3485 H   0  0  0  0  0  0  0  0  0  0  0  0
   13.9648   -7.3969   -2.4710 H   0  0  0  0  0  0  0  0  0  0  0  0
   16.1164   -8.1817   -1.5566 H   0  0  0  0  0  0  0  0  0  0  0  0
   17.7107   -6.5489   -0.6004 H   0  0  0  0  0  0  0  0  0  0  0  0
   17.1045   -4.1703   -0.4789 H   0  0  0  0  0  0  0  0  0  0  0  0
   16.1344   -2.8266    0.7315 H   0  0  0  0  0  0  0  0  0  0  0  0
   13.5521   -2.1435    3.1951 H   0  0  0  0  0  0  0  0  0  0  0  0
   10.9128   -2.8981    0.6101 H   0  0  0  0  0  0  0  0  0  0  0  0
   11.6383   -3.1973    2.2050 H   0  0  0  0  0  0  0  0  0  0  0  0
   11.4889   -1.5442    1.5991 H   0  0  0  0  0  0  0  0  0  0  0  0
   14.0650   -0.4338   -0.9412 H   0  0  0  0  0  0  0  0  0  0  0  0
   13.3786    1.3492   -4.9911 H   0  0  0  0  0  0  0  0  0  0  0  0
   12.0870    3.4104   -5.0020 H   0  0  0  0  0  0  0  0  0  0  0  0
   15.2834   -2.3567    2.9747 H   0  0  0  0  0  0  0  0  0  0  0  0
  1  2  1  0
  1 29  1  0
  1 30  1  0
  1 31  1  0
  2  3  1  0
  3  4  2  0
  3 28  1  0
  4  5  1  0
  4 32  1  0
  5  6  2  0
  5 33  1  0
  6  7  1  0
  6 27  1  0
  7  8  2  0
  7 26  1  0
  8  9  1  0
  8 34  1  0
  9 10  2  0
  9 35  1  0
 10 11  1  0
 10 36  1  0
 12 11  1  6
 11 26  2  0
 12 13  1  0
 12 19  1  0
 12 24  1  0
 13 14  2  0
 13 18  1  0
 14 15  1  0
 14 37  1  0
 15 16  2  0
 15 38  1  0
 16 17  1  0
 16 39  1  0
 17 18  2  0
 17 40  1  0
 18 41  1  0
 19 20  2  0
 19 42  1  0
 20 21  1  0
 20 22  1  0
 21 43  1  0
 21 50  1  0
 22 23  1  0
 22 24  1  0
 23 44  1  0
 23 45  1  0
 23 46  1  0
 24 25  2  0
 26 47  1  0
 27 28  2  0
 27 48  1  0
 28 49  1  0
M  CHG  1  19   1
M  END
>  <r_exp_dg>  (24) 
-7.853

>  <mol_id>  (24) 
23

>  <source_index>  (24) 
23

>  <paff>  (24) 
5.7573314985571713

>  <source_r_exp_dg>  (24) 
-7.8529999999999998

>  <smiles>  (24) 
COc1ccc(-c2cccc([C@@]3(c4ccccc4)N=C(N)N(C)C3=O)c2)cc1

>  <aimnet_interaction_kcal_mol>  (24) 
-172.56973407080969

$$$$
bace_024
     RDKit          3D

 45 48  0  0  1  0  0  0  0  0999 V2000
   15.3108    4.2528    0.7221 C   0  0  0  0  0  0  0  0  0  0  0  0
   15.0929    3.6435   -0.6225 C   0  0  0  0  0  0  0  0  0  0  0  0
   14.4938    4.3624   -1.6526 C   0  0  0  0  0  0  0  0  0  0  0  0
   14.2145    3.8538   -2.8554 N   0  0  0  0  0  0  0  0  0  0  0  0
   14.5401    2.5862   -3.0788 C   0  0  0  0  0  0  0  0  0  0  0  0
   15.1599    1.7628   -2.1342 C   0  0  0  0  0  0  0  0  0  0  0  0
   15.4605    0.3654   -2.4570 C   0  0  0  0  0  0  0  0  0  0  0  0
   15.9290    0.0136   -3.7235 C   0  0  0  0  0  0  0  0  0  0  0  0
   16.0560   -1.3157   -4.0823 C   0  0  0  0  0  0  0  0  0  0  0  0
   15.7074   -2.3155   -3.1886 C   0  0  0  0  0  0  0  0  0  0  0  0
   15.2513   -1.9831   -1.9188 C   0  0  0  0  0  0  0  0  0  0  0  0
   14.7250   -3.0459   -0.9767 C   0  0  1  0  0  0  0  0  0  0  0  0
   14.9544   -4.4476   -1.4940 C   0  0  0  0  0  0  0  0  0  0  0  0
   16.2629   -5.1368   -1.3473 C   0  0  0  0  0  0  0  0  0  0  0  0
   15.0591   -5.6497   -0.6221 C   0  0  0  0  0  0  0  0  0  0  0  0
   15.2079   -2.8352    0.3842 N   0  0  0  0  0  0  0  0  0  0  0  0
   14.2058   -2.6290    1.2402 C   0  0  0  0  0  0  0  0  0  0  0  0
   14.3357   -2.4429    2.5191 N   0  0  0  0  0  0  0  0  0  0  0  0
   12.9967   -2.6547    0.5756 N   0  0  0  0  0  0  0  0  0  0  0  0
   11.6995   -2.4566    1.2044 C   0  0  0  0  0  0  0  0  0  0  0  0
   13.1902   -2.8878   -0.7744 C   0  0  0  0  0  0  0  0  0  0  0  0
   12.3189   -2.9780   -1.6067 O   0  0  0  0  0  0  0  0  0  0  0  0
   15.2202   -0.6515   -1.5297 C   0  0  0  0  0  0  0  0  0  0  0  0
   15.4358    2.3254   -0.8921 C   0  0  0  0  0  0  0  0  0  0  0  0
   14.5019    4.0046    1.4107 H   0  0  0  0  0  0  0  0  0  0  0  0
   16.2236    3.8713    1.1749 H   0  0  0  0  0  0  0  0  0  0  0  0
   15.3778    5.3380    0.6718 H   0  0  0  0  0  0  0  0  0  0  0  0
   14.2192    5.4010   -1.5080 H   0  0  0  0  0  0  0  0  0  0  0  0
   14.2851    2.1827   -4.0561 H   0  0  0  0  0  0  0  0  0  0  0  0
   16.2152    0.7803   -4.4314 H   0  0  0  0  0  0  0  0  0  0  0  0
   16.4338   -1.5672   -5.0613 H   0  0  0  0  0  0  0  0  0  0  0  0
   15.7926   -3.3492   -3.4854 H   0  0  0  0  0  0  0  0  0  0  0  0
   14.4319   -4.6031   -2.4266 H   0  0  0  0  0  0  0  0  0  0  0  0
   16.6371   -5.6790   -2.2085 H   0  0  0  0  0  0  0  0  0  0  0  0
   17.0367   -4.6581   -0.7623 H   0  0  0  0  0  0  0  0  0  0  0  0
   15.0257   -5.5308    0.4504 H   0  0  0  0  0  0  0  0  0  0  0  0
   14.5946   -6.5635   -0.9642 H   0  0  0  0  0  0  0  0  0  0  0  0
   16.1708   -2.9878    0.7175 H   0  0  0  0  0  0  0  0  0  0  0  0
   13.5611   -2.1586    3.1373 H   0  0  0  0  0  0  0  0  0  0  0  0
   10.9447   -2.7328    0.4766 H   0  0  0  0  0  0  0  0  0  0  0  0
   11.6192   -3.0897    2.0825 H   0  0  0  0  0  0  0  0  0  0  0  0
   11.5581   -1.4215    1.4995 H   0  0  0  0  0  0  0  0  0  0  0  0
   14.9939   -0.4003   -0.5052 H   0  0  0  0  0  0  0  0  0  0  0  0
   15.8867    1.7186   -0.1188 H   0  0  0  0  0  0  0  0  0  0  0  0
   15.2866   -2.4060    2.9395 H   0  0  0  0  0  0  0  0  0  0  0  0
  1  2  1  0
  1 25  1  0
  1 26  1  0
  1 27  1  0
  2  3  2  0
  2 24  1  0
  3  4  1  0
  3 28  1  0
  4  5  2  0
  5  6  1  0
  5 29  1  0
  6  7  1  0
  6 24  2  0
  7  8  2  0
  7 23  1  0
  8  9  1  0
  8 30  1  0
  9 10  2  0
  9 31  1  0
 10 11  1  0
 10 32  1  0
 11 12  1  0
 11 23  2  0
 12 13  1  6
 12 16  1  0
 12 21  1  0
 13 14  1  0
 13 15  1  0
 13 33  1  0
 14 15  1  0
 14 34  1  0
 14 35  1  0
 15 36  1  0
 15 37  1  0
 16 17  2  0
 16 38  1  0
 17 18  1  0
 17 19  1  0
 18 39  1  0
 18 45  1  0
 19 20  1  0
 19 21  1  0
 20 40  1  0
 20 41  1  0
 20 42  1  0
 21 22  2  0
 23 43  1  0
 24 44  1  0
M  CHG  1  16   1
M  END
>  <r_exp_dg>  (25) 
-9.473

>  <mol_id>  (25) 
24

>  <source_index>  (25) 
24

>  <paff>  (25) 
6.9450143495263239

>  <source_r_exp_dg>  (25) 
-9.4730000000000008

>  <smiles>  (25) 
Cc1cncc(-c2cccc([C@@]3(C4CC4)N=C(N)N(C)C3=O)c2)c1

>  <aimnet_interaction_kcal_mol>  (25) 
-176.41120526599727

$$$$
bace_025
     RDKit          3D

 45 48  0  0  1  0  0  0  0  0999 V2000
   11.7110   -2.4270    1.2199 C   0  0  0  0  0  0  0  0  0  0  0  0
   13.0088   -2.6616    0.6040 N   0  0  0  0  0  0  0  0  0  0  0  0
   14.2143   -2.6308    1.2799 C   0  0  0  0  0  0  0  0  0  0  0  0
   14.3372   -2.4229    2.5519 N   0  0  0  0  0  0  0  0  0  0  0  0
   15.2181   -2.8550    0.4301 N   0  0  0  0  0  0  0  0  0  0  0  0
   14.7507   -3.1195   -0.9243 C   0  0  2  0  0  0  0  0  0  0  0  0
   15.0994   -4.5304   -1.3656 C   0  0  0  0  0  0  0  0  0  0  0  0
   14.1325   -5.4160   -1.8235 C   0  0  0  0  0  0  0  0  0  0  0  0
   14.4832   -6.7362   -2.0601 C   0  0  0  0  0  0  0  0  0  0  0  0
   15.8082   -7.1054   -1.9381 C   0  0  0  0  0  0  0  0  0  0  0  0
   16.7743   -6.2426   -1.6298 N   0  0  0  0  0  0  0  0  0  0  0  0
   16.4170   -4.9945   -1.3129 C   0  0  0  0  0  0  0  0  0  0  0  0
   15.2307   -2.0616   -1.9098 C   0  0  0  0  0  0  0  0  0  0  0  0
   15.6146   -2.4073   -3.1970 C   0  0  0  0  0  0  0  0  0  0  0  0
   15.9524   -1.4166   -4.1042 C   0  0  0  0  0  0  0  0  0  0  0  0
   15.7908   -0.0852   -3.7706 C   0  0  0  0  0  0  0  0  0  0  0  0
   15.3291    0.2770   -2.5043 C   0  0  0  0  0  0  0  0  0  0  0  0
   14.9078    1.6584   -2.2349 C   0  0  0  0  0  0  0  0  0  0  0  0
   14.1385    2.3442   -3.1780 C   0  0  0  0  0  0  0  0  0  0  0  0
   13.6640    3.6155   -2.9131 C   0  0  0  0  0  0  0  0  0  0  0  0
   13.9611    4.2446   -1.7132 C   0  0  0  0  0  0  0  0  0  0  0  0
   14.7463    3.5701   -0.7912 C   0  0  0  0  0  0  0  0  0  0  0  0
   15.1259    4.3522    0.7318 Cl  0  0  0  0  0  0  0  0  0  0  0  0
   15.2233    2.2954   -1.0345 C   0  0  0  0  0  0  0  0  0  0  0  0
   15.1954   -0.7240   -1.5382 C   0  0  0  0  0  0  0  0  0  0  0  0
   13.2064   -2.9353   -0.7324 C   0  0  0  0  0  0  0  0  0  0  0  0
   12.3370   -3.0002   -1.5703 O   0  0  0  0  0  0  0  0  0  0  0  0
   11.5866   -1.3835    1.4894 H   0  0  0  0  0  0  0  0  0  0  0  0
   10.9528   -2.7090    0.4982 H   0  0  0  0  0  0  0  0  0  0  0  0
   11.6199   -3.0343    2.1144 H   0  0  0  0  0  0  0  0  0  0  0  0
   15.2875   -2.3831    2.9764 H   0  0  0  0  0  0  0  0  0  0  0  0
   16.1753   -3.0275    0.7717 H   0  0  0  0  0  0  0  0  0  0  0  0
   13.1218   -5.0862   -1.9987 H   0  0  0  0  0  0  0  0  0  0  0  0
   13.7366   -7.4688   -2.3250 H   0  0  0  0  0  0  0  0  0  0  0  0
   16.1078   -8.1359   -2.0855 H   0  0  0  0  0  0  0  0  0  0  0  0
   17.2200   -4.3394   -0.9939 H   0  0  0  0  0  0  0  0  0  0  0  0
   15.6444   -3.4436   -3.4979 H   0  0  0  0  0  0  0  0  0  0  0  0
   16.3510   -1.6778   -5.0717 H   0  0  0  0  0  0  0  0  0  0  0  0
   16.0426    0.6742   -4.4985 H   0  0  0  0  0  0  0  0  0  0  0  0
   13.8983    1.8601   -4.1153 H   0  0  0  0  0  0  0  0  0  0  0  0
   13.0554    4.1287   -3.6460 H   0  0  0  0  0  0  0  0  0  0  0  0
   13.5982    5.2374   -1.4920 H   0  0  0  0  0  0  0  0  0  0  0  0
   15.7975    1.7837   -0.2773 H   0  0  0  0  0  0  0  0  0  0  0  0
   15.0434   -0.4600   -0.5025 H   0  0  0  0  0  0  0  0  0  0  0  0
   13.5571   -2.1415    3.1673 H   0  0  0  0  0  0  0  0  0  0  0  0
  1  2  1  0
  1 28  1  0
  1 29  1  0
  1 30  1  0
  2  3  1  0
  2 26  1  0
  3  4  1  0
  3  5  2  0
  4 31  1  0
  4 45  1  0
  5  6  1  0
  5 32  1  0
  6  7  1  6
  6 13  1  0
  6 26  1  0
  7  8  2  0
  7 12  1  0
  8  9  1  0
  8 33  1  0
  9 10  2  0
  9 34  1  0
 10 11  1  0
 10 35  1  0
 11 12  2  0
 12 36  1  0
 13 14  2  0
 13 25  1  0
 14 15  1  0
 14 37  1  0
 15 16  2  0
 15 38  1  0
 16 17  1  0
 16 39  1  0
 17 18  1  0
 17 25  2  0
 18 19  2  0
 18 24  1  0
 19 20  1  0
 19 40  1  0
 20 21  2  0
 20 41  1  0
 21 22  1  0
 21 42  1  0
 22 23  1  0
 22 24  2  0
 24 43  1  0
 25 44  1  0
 26 27  2  0
M  CHG  1   5   1
M  END
>  <r_exp_dg>  (26) 
-9.703

>  <mol_id>  (26) 
25

>  <source_index>  (26) 
25

>  <paff>  (26) 
7.113636413976943

>  <source_r_exp_dg>  (26) 
-9.7029999999999994

>  <smiles>  (26) 
CN1C(=O)[C@@](c2cccnc2)(c2cccc(-c3cccc(Cl)c3)c2)N=C1N

>  <aimnet_interaction_kcal_mol>  (26) 
-183.55263383335964

$$$$
bace_026
     RDKit          3D

 43 46  0  0  1  0  0  0  0  0999 V2000
   11.6470   -2.4985    1.3238 C   0  0  0  0  0  0  0  0  0  0  0  0
   12.9309   -2.6850    0.6674 N   0  0  0  0  0  0  0  0  0  0  0  0
   14.1596   -2.6418    1.2980 C   0  0  0  0  0  0  0  0  0  0  0  0
   14.3203   -2.4434    2.5691 N   0  0  0  0  0  0  0  0  0  0  0  0
   15.1402   -2.8468    0.4166 N   0  0  0  0  0  0  0  0  0  0  0  0
   14.6137   -3.0883   -0.9221 C   0  0  1  0  0  0  0  0  0  0  0  0
   15.1211   -2.0567   -1.9031 C   0  0  0  0  0  0  0  0  0  0  0  0
   15.6742   -2.4328   -3.1181 C   0  0  0  0  0  0  0  0  0  0  0  0
   15.9592   -1.4734   -4.0759 C   0  0  0  0  0  0  0  0  0  0  0  0
   15.6667   -0.1432   -3.8368 C   0  0  0  0  0  0  0  0  0  0  0  0
   15.1434    0.2554   -2.6084 C   0  0  0  0  0  0  0  0  0  0  0  0
   14.7472    1.6534   -2.3857 C   0  0  0  0  0  0  0  0  0  0  0  0
   15.0995    2.3278   -1.2180 C   0  0  0  0  0  0  0  0  0  0  0  0
   14.6986    3.6387   -1.0458 C   0  0  0  0  0  0  0  0  0  0  0  0
   15.1664    4.4975    0.4080 Cl  0  0  0  0  0  0  0  0  0  0  0  0
   13.9319    4.3072   -1.9883 C   0  0  0  0  0  0  0  0  0  0  0  0
   13.5875    3.6125   -3.1326 C   0  0  0  0  0  0  0  0  0  0  0  0
   12.6123    4.4260   -4.3599 Cl  0  0  0  0  0  0  0  0  0  0  0  0
   13.9893    2.3118   -3.3557 C   0  0  0  0  0  0  0  0  0  0  0  0
   14.9486   -0.7072   -1.6178 C   0  0  0  0  0  0  0  0  0  0  0  0
   14.7631   -4.5206   -1.3824 C   0  0  0  0  0  0  0  0  0  0  0  0
   15.9489   -5.3713   -1.1029 C   0  0  0  0  0  0  0  0  0  0  0  0
   14.6382   -5.6794   -0.4530 C   0  0  0  0  0  0  0  0  0  0  0  0
   13.0884   -2.8919   -0.6879 C   0  0  0  0  0  0  0  0  0  0  0  0
   12.2000   -2.9527   -1.5048 O   0  0  0  0  0  0  0  0  0  0  0  0
   11.6260   -3.0669    2.2471 H   0  0  0  0  0  0  0  0  0  0  0  0
   11.4699   -1.4526    1.5493 H   0  0  0  0  0  0  0  0  0  0  0  0
   10.8822   -2.8587    0.6449 H   0  0  0  0  0  0  0  0  0  0  0  0
   13.5522   -2.1556    3.1932 H   0  0  0  0  0  0  0  0  0  0  0  0
   16.1156   -2.9743    0.7234 H   0  0  0  0  0  0  0  0  0  0  0  0
   15.8771   -3.4731   -3.3171 H   0  0  0  0  0  0  0  0  0  0  0  0
   16.4167   -1.7502   -5.0118 H   0  0  0  0  0  0  0  0  0  0  0  0
   15.8716    0.5893   -4.6059 H   0  0  0  0  0  0  0  0  0  0  0  0
   15.6503    1.8242   -0.4394 H   0  0  0  0  0  0  0  0  0  0  0  0
   13.6268    5.3291   -1.8368 H   0  0  0  0  0  0  0  0  0  0  0  0
   13.7102    1.8036   -4.2667 H   0  0  0  0  0  0  0  0  0  0  0  0
   14.6395   -0.4022   -0.6288 H   0  0  0  0  0  0  0  0  0  0  0  0
   14.2940   -4.6583   -2.3460 H   0  0  0  0  0  0  0  0  0  0  0  0
   16.2725   -6.0199   -1.9060 H   0  0  0  0  0  0  0  0  0  0  0  0
   16.7551   -4.9908   -0.4924 H   0  0  0  0  0  0  0  0  0  0  0  0
   14.5413   -5.4974    0.6083 H   0  0  0  0  0  0  0  0  0  0  0  0
   14.0794   -6.5414   -0.7907 H   0  0  0  0  0  0  0  0  0  0  0  0
   15.2770   -2.3964    2.9722 H   0  0  0  0  0  0  0  0  0  0  0  0
  1  2  1  0
  1 26  1  0
  1 27  1  0
  1 28  1  0
  2  3  1  0
  2 24  1  0
  3  4  1  0
  3  5  2  0
  4 29  1  0
  4 43  1  0
  5  6  1  0
  5 30  1  0
  6  7  1  0
  6 21  1  6
  6 24  1  0
  7  8  2  0
  7 20  1  0
  8  9  1  0
  8 31  1  0
  9 10  2  0
  9 32  1  0
 10 11  1  0
 10 33  1  0
 11 12  1  0
 11 20  2  0
 12 13  2  0
 12 19  1  0
 13 14  1  0
 13 34  1  0
 14 15  1  0
 14 16  2  0
 16 17  1  0
 16 35  1  0
 17 18  1  0
 17 19  2  0
 19 36  1  0
 20 37  1  0
 21 22  1  0
 21 23  1  0
 21 38  1  0
 22 23  1  0
 22 39  1  0
 22 40  1  0
 23 41  1  0
 23 42  1  0
 24 25  2  0
M  CHG  1   5   1
M  END
>  <r_exp_dg>  (27) 
-10.733

>  <mol_id>  (27) 
26

>  <source_index>  (27) 
26

>  <paff>  (27) 
7.8687681830174059

>  <source_r_exp_dg>  (27) 
-10.733000000000001

>  <smiles>  (27) 
CN1C(=O)[C@](c2cccc(-c3cc(Cl)cc(Cl)c3)c2)(C2CC2)N=C1N

>  <aimnet_interaction_kcal_mol>  (27) 
-179.81986978594932

$$$$
bace_027
     RDKit          3D

 44 47  0  0  1  0  0  0  0  0999 V2000
   11.6532   -2.5017    1.3152 C   0  0  0  0  0  0  0  0  0  0  0  0
   12.9369   -2.7121    0.6658 N   0  0  0  0  0  0  0  0  0  0  0  0
   14.1632   -2.6696    1.3020 C   0  0  0  0  0  0  0  0  0  0  0  0
   14.3204   -2.4475    2.5692 N   0  0  0  0  0  0  0  0  0  0  0  0
   15.1450   -2.8980    0.4285 N   0  0  0  0  0  0  0  0  0  0  0  0
   14.6266   -3.1366   -0.9124 C   0  0  1  0  0  0  0  0  0  0  0  0
   15.1470   -2.1002   -1.8846 C   0  0  0  0  0  0  0  0  0  0  0  0
   15.6536   -2.4612   -3.1244 C   0  0  0  0  0  0  0  0  0  0  0  0
   15.9547   -1.4841   -4.0606 C   0  0  0  0  0  0  0  0  0  0  0  0
   15.7152   -0.1513   -3.7794 C   0  0  0  0  0  0  0  0  0  0  0  0
   15.2309    0.2295   -2.5303 C   0  0  0  0  0  0  0  0  0  0  0  0
   14.8742    1.6286   -2.2532 C   0  0  0  0  0  0  0  0  0  0  0  0
   14.1070    2.3581   -3.1662 C   0  0  0  0  0  0  0  0  0  0  0  0
   13.6995    3.6500   -2.8825 C   0  0  0  0  0  0  0  0  0  0  0  0
   14.0798    4.2612   -1.7018 C   0  0  0  0  0  0  0  0  0  0  0  0
   14.8844    3.5581   -0.8010 C   0  0  0  0  0  0  0  0  0  0  0  0
   15.3358    4.1946    0.3858 C   0  0  0  0  0  0  0  0  0  0  0  0
   15.7312    4.7267    1.3376 N   0  0  0  0  0  0  0  0  0  0  0  0
   15.2599    2.2426   -1.0676 C   0  0  0  0  0  0  0  0  0  0  0  0
   15.0388   -0.7541   -1.5593 C   0  0  0  0  0  0  0  0  0  0  0  0
   14.7751   -4.5671   -1.3787 C   0  0  0  0  0  0  0  0  0  0  0  0
   15.9646   -5.4169   -1.1111 C   0  0  0  0  0  0  0  0  0  0  0  0
   14.6591   -5.7287   -0.4521 C   0  0  0  0  0  0  0  0  0  0  0  0
   13.0988   -2.9360   -0.6860 C   0  0  0  0  0  0  0  0  0  0  0  0
   12.2128   -3.0052   -1.5055 O   0  0  0  0  0  0  0  0  0  0  0  0
   11.6153   -3.0721    2.2369 H   0  0  0  0  0  0  0  0  0  0  0  0
   11.4948   -1.4530    1.5428 H   0  0  0  0  0  0  0  0  0  0  0  0
   10.8858   -2.8447    0.6305 H   0  0  0  0  0  0  0  0  0  0  0  0
   13.5511   -2.1578    3.1915 H   0  0  0  0  0  0  0  0  0  0  0  0
   16.1206   -3.0164    0.7397 H   0  0  0  0  0  0  0  0  0  0  0  0
   15.8138   -3.5015   -3.3620 H   0  0  0  0  0  0  0  0  0  0  0  0
   16.3859   -1.7494   -5.0125 H   0  0  0  0  0  0  0  0  0  0  0  0
   15.9293    0.5941   -4.5336 H   0  0  0  0  0  0  0  0  0  0  0  0
   13.8144    1.8918   -4.0977 H   0  0  0  0  0  0  0  0  0  0  0  0
   13.0848    4.1885   -3.5903 H   0  0  0  0  0  0  0  0  0  0  0  0
   13.7727    5.2717   -1.4688 H   0  0  0  0  0  0  0  0  0  0  0  0
   15.8242    1.6933   -0.3291 H   0  0  0  0  0  0  0  0  0  0  0  0
   14.7862   -0.4632   -0.5513 H   0  0  0  0  0  0  0  0  0  0  0  0
   14.2987   -4.7022   -2.3392 H   0  0  0  0  0  0  0  0  0  0  0  0
   16.2834   -6.0624   -1.9191 H   0  0  0  0  0  0  0  0  0  0  0  0
   16.7747   -5.0372   -0.5058 H   0  0  0  0  0  0  0  0  0  0  0  0
   14.5697   -5.5492    0.6103 H   0  0  0  0  0  0  0  0  0  0  0  0
   14.0993   -6.5908   -0.7880 H   0  0  0  0  0  0  0  0  0  0  0  0
   15.2768   -2.3997    2.9740 H   0  0  0  0  0  0  0  0  0  0  0  0
  1  2  1  0
  1 26  1  0
  1 27  1  0
  1 28  1  0
  2  3  1  0
  2 24  1  0
  3  4  1  0
  3  5  2  0
  4 29  1  0
  4 44  1  0
  5  6  1  0
  5 30  1  0
  6  7  1  0
  6 21  1  6
  6 24  1  0
  7  8  2  0
  7 20  1  0
  8  9  1  0
  8 31  1  0
  9 10  2  0
  9 32  1  0
 10 11  1  0
 10 33  1  0
 11 12  1  0
 11 20  2  0
 12 13  2  0
 12 19  1  0
 13 14  1  0
 13 34  1  0
 14 15  2  0
 14 35  1  0
 15 16  1  0
 15 36  1  0
 16 17  1  0
 16 19  2  0
 17 18  3  0
 19 37  1  0
 20 38  1  0
 21 22  1  0
 21 23  1  0
 21 39  1  0
 22 23  1  0
 22 40  1  0
 22 41  1  0
 23 42  1  0
 23 43  1  0
 24 25  2  0
M  CHG  1   5   1
M  END
>  <r_exp_dg>  (28) 
-9.863

>  <mol_id>  (28) 
27

>  <source_index>  (28) 
27

>  <paff>  (28) 
7.2309383548949118

>  <source_r_exp_dg>  (28) 
-9.8629999999999995

>  <smiles>  (28) 
CN1C(=O)[C@](c2cccc(-c3cccc(C#N)c3)c2)(C2CC2)N=C1N

>  <aimnet_interaction_kcal_mol>  (28) 
-178.72026019192765

$$$$
bace_028
     RDKit          3D

 45 48  0  0  1  0  0  0  0  0999 V2000
   11.6907   -2.5098    1.2218 C   0  0  0  0  0  0  0  0  0  0  0  0
   13.0024   -2.7169    0.6257 N   0  0  0  0  0  0  0  0  0  0  0  0
   14.1967   -2.6371    1.3133 C   0  0  0  0  0  0  0  0  0  0  0  0
   14.3014   -2.4377    2.5884 N   0  0  0  0  0  0  0  0  0  0  0  0
   15.2180   -2.8081    0.4757 N   0  0  0  0  0  0  0  0  0  0  0  0
   14.7807   -3.1227   -0.8760 C   0  0  2  0  0  0  0  0  0  0  0  0
   15.2008   -4.5310   -1.2538 C   0  0  0  0  0  0  0  0  0  0  0  0
   16.4777   -4.9614   -0.9064 C   0  0  0  0  0  0  0  0  0  0  0  0
   16.8125   -6.3036   -0.9973 C   0  0  0  0  0  0  0  0  0  0  0  0
   15.9006   -7.2095   -1.5147 C   0  0  0  0  0  0  0  0  0  0  0  0
   14.6725   -6.7624   -1.9788 C   0  0  0  0  0  0  0  0  0  0  0  0
   14.3331   -5.4192   -1.8783 C   0  0  0  0  0  0  0  0  0  0  0  0
   15.2553   -2.0755   -1.8679 C   0  0  0  0  0  0  0  0  0  0  0  0
   15.6421   -2.4278   -3.1517 C   0  0  0  0  0  0  0  0  0  0  0  0
   15.9919   -1.4419   -4.0596 C   0  0  0  0  0  0  0  0  0  0  0  0
   15.8847   -0.1074   -3.7150 C   0  0  0  0  0  0  0  0  0  0  0  0
   15.4493    0.2621   -2.4424 C   0  0  0  0  0  0  0  0  0  0  0  0
   15.1495    1.6627   -2.1316 C   0  0  0  0  0  0  0  0  0  0  0  0
   14.4822    2.4713   -3.0576 C   0  0  0  0  0  0  0  0  0  0  0  0
   14.1651    3.7451   -2.8493 N   0  0  0  0  0  0  0  0  0  0  0  0
   14.5079    4.2955   -1.6835 C   0  0  0  0  0  0  0  0  0  0  0  0
   15.1652    3.5634   -0.7116 C   0  0  0  0  0  0  0  0  0  0  0  0
   15.4892    4.1618    0.4579 F   0  0  0  0  0  0  0  0  0  0  0  0
   15.4860    2.2387   -0.9103 C   0  0  0  0  0  0  0  0  0  0  0  0
   15.2438   -0.7403   -1.4933 C   0  0  0  0  0  0  0  0  0  0  0  0
   13.2290   -2.9981   -0.7088 C   0  0  0  0  0  0  0  0  0  0  0  0
   12.3740   -3.1074   -1.5560 O   0  0  0  0  0  0  0  0  0  0  0  0
   11.5943   -3.1262    2.1098 H   0  0  0  0  0  0  0  0  0  0  0  0
   11.5423   -1.4699    1.4965 H   0  0  0  0  0  0  0  0  0  0  0  0
   10.9510   -2.8006    0.4846 H   0  0  0  0  0  0  0  0  0  0  0  0
   15.2466   -2.3864    3.0177 H   0  0  0  0  0  0  0  0  0  0  0  0
   16.1670   -2.9923    0.8357 H   0  0  0  0  0  0  0  0  0  0  0  0
   17.2054   -4.2513   -0.5404 H   0  0  0  0  0  0  0  0  0  0  0  0
   17.7769   -6.6430   -0.6458 H   0  0  0  0  0  0  0  0  0  0  0  0
   16.1358   -8.2657   -1.5280 H   0  0  0  0  0  0  0  0  0  0  0  0
   13.9693   -7.4648   -2.4022 H   0  0  0  0  0  0  0  0  0  0  0  0
   13.3982   -5.0599   -2.2787 H   0  0  0  0  0  0  0  0  0  0  0  0
   15.6631   -3.4664   -3.4448 H   0  0  0  0  0  0  0  0  0  0  0  0
   16.3604   -1.7064   -5.0378 H   0  0  0  0  0  0  0  0  0  0  0  0
   16.1638    0.6474   -4.4373 H   0  0  0  0  0  0  0  0  0  0  0  0
   14.1828    2.0480   -4.0127 H   0  0  0  0  0  0  0  0  0  0  0  0
   14.2561    5.3364   -1.5178 H   0  0  0  0  0  0  0  0  0  0  0  0
   15.9411    1.6632   -0.1192 H   0  0  0  0  0  0  0  0  0  0  0  0
   15.0583   -0.4804   -0.4633 H   0  0  0  0  0  0  0  0  0  0  0  0
   13.5138   -2.1555    3.1956 H   0  0  0  0  0  0  0  0  0  0  0  0
  1  2  1  0
  1 28  1  0
  1 29  1  0
  1 30  1  0
  2  3  1  0
  2 26  1  0
  3  4  1  0
  3  5  2  0
  4 31  1  0
  4 45  1  0
  5  6  1  0
  5 32  1  0
  6  7  1  6
  6 13  1  0
  6 26  1  0
  7  8  2  0
  7 12  1  0
  8  9  1  0
  8 33  1  0
  9 10  2  0
  9 34  1  0
 10 11  1  0
 10 35  1  0
 11 12  2  0
 11 36  1  0
 12 37  1  0
 13 14  2  0
 13 25  1  0
 14 15  1  0
 14 38  1  0
 15 16  2  0
 15 39  1  0
 16 17  1  0
 16 40  1  0
 17 18  1  0
 17 25  2  0
 18 19  2  0
 18 24  1  0
 19 20  1  0
 19 41  1  0
 20 21  2  0
 21 22  1  0
 21 42  1  0
 22 23  1  0
 22 24  2  0
 24 43  1  0
 25 44  1  0
 26 27  2  0
M  CHG  1   5   1
M  END
>  <r_exp_dg>  (29) 
-9.383

>  <mol_id>  (29) 
28

>  <source_index>  (29) 
28

>  <paff>  (29) 
6.8790325321410055

>  <source_r_exp_dg>  (29) 
-9.3829999999999991

>  <smiles>  (29) 
CN1C(=O)[C@@](c2ccccc2)(c2cccc(-c3cncc(F)c3)c2)N=C1N

>  <aimnet_interaction_kcal_mol>  (29) 
-179.13699964209798

$$$$
bace_029
     RDKit          3D

 42 45  0  0  1  0  0  0  0  0999 V2000
   11.6710   -2.4461    1.2425 C   0  0  0  0  0  0  0  0  0  0  0  0
   12.9675   -2.6532    0.6162 N   0  0  0  0  0  0  0  0  0  0  0  0
   14.1780   -2.6442    1.2799 C   0  0  0  0  0  0  0  0  0  0  0  0
   14.3126   -2.4607    2.5582 N   0  0  0  0  0  0  0  0  0  0  0  0
   15.1763   -2.8579    0.4232 N   0  0  0  0  0  0  0  0  0  0  0  0
   14.6921   -3.0319   -0.9409 C   0  0  1  0  0  0  0  0  0  0  0  0
   15.2332   -1.9451   -1.8497 C   0  0  0  0  0  0  0  0  0  0  0  0
   15.6130   -2.2040   -3.1587 C   0  0  0  0  0  0  0  0  0  0  0  0
   15.9485   -1.1551   -4.0023 C   0  0  0  0  0  0  0  0  0  0  0  0
   15.9318    0.1482   -3.5381 C   0  0  0  0  0  0  0  0  0  0  0  0
   15.5904    0.4274   -2.2151 C   0  0  0  0  0  0  0  0  0  0  0  0
   15.5514    1.8054   -1.7140 C   0  0  0  0  0  0  0  0  0  0  0  0
   15.9798    2.1381   -0.4305 C   0  0  0  0  0  0  0  0  0  0  0  0
   15.9566    3.4556   -0.0183 C   0  0  0  0  0  0  0  0  0  0  0  0
   15.4794    4.4177   -0.8932 C   0  0  0  0  0  0  0  0  0  0  0  0
   15.0351    4.1276   -2.1188 N   0  0  0  0  0  0  0  0  0  0  0  0
   15.0687    2.8547   -2.5030 C   0  0  0  0  0  0  0  0  0  0  0  0
   15.2674   -0.6407   -1.3749 C   0  0  0  0  0  0  0  0  0  0  0  0
   14.8569   -4.4447   -1.4598 C   0  0  0  0  0  0  0  0  0  0  0  0
   16.0229   -5.3208   -1.1668 C   0  0  0  0  0  0  0  0  0  0  0  0
   14.6853   -5.6405   -0.5824 C   0  0  0  0  0  0  0  0  0  0  0  0
   13.1593   -2.8372   -0.7407 C   0  0  0  0  0  0  0  0  0  0  0  0
   12.2905   -2.8773   -1.5792 O   0  0  0  0  0  0  0  0  0  0  0  0
   11.5183   -1.4025    1.4969 H   0  0  0  0  0  0  0  0  0  0  0  0
   10.9159   -2.7605    0.5308 H   0  0  0  0  0  0  0  0  0  0  0  0
   11.6054   -3.0435    2.1457 H   0  0  0  0  0  0  0  0  0  0  0  0
   13.5395   -2.1668    3.1747 H   0  0  0  0  0  0  0  0  0  0  0  0
   16.1414   -3.0121    0.7508 H   0  0  0  0  0  0  0  0  0  0  0  0
   15.6552   -3.2176   -3.5268 H   0  0  0  0  0  0  0  0  0  0  0  0
   16.2316   -1.3522   -5.0255 H   0  0  0  0  0  0  0  0  0  0  0  0
   16.2122    0.9518   -4.2044 H   0  0  0  0  0  0  0  0  0  0  0  0
   16.3102    1.3596    0.2369 H   0  0  0  0  0  0  0  0  0  0  0  0
   16.2866    3.7296    0.9739 H   0  0  0  0  0  0  0  0  0  0  0  0
   15.4283    5.4542   -0.5854 H   0  0  0  0  0  0  0  0  0  0  0  0
   14.6708    2.6357   -3.4908 H   0  0  0  0  0  0  0  0  0  0  0  0
   15.0224   -0.4475   -0.3435 H   0  0  0  0  0  0  0  0  0  0  0  0
   14.4150   -4.5438   -2.4410 H   0  0  0  0  0  0  0  0  0  0  0  0
   16.8068   -4.9730   -0.5097 H   0  0  0  0  0  0  0  0  0  0  0  0
   16.3745   -5.9447   -1.9782 H   0  0  0  0  0  0  0  0  0  0  0  0
   14.5483   -5.5022    0.4806 H   0  0  0  0  0  0  0  0  0  0  0  0
   14.1293   -6.4791   -0.9793 H   0  0  0  0  0  0  0  0  0  0  0  0
   15.2641   -2.4190    2.9736 H   0  0  0  0  0  0  0  0  0  0  0  0
  1  2  1  0
  1 24  1  0
  1 25  1  0
  1 26  1  0
  2  3  1  0
  2 22  1  0
  3  4  1  0
  3  5  2  0
  4 27  1  0
  4 42  1  0
  5  6  1  0
  5 28  1  0
  6  7  1  0
  6 19  1  6
  6 22  1  0
  7  8  2  0
  7 18  1  0
  8  9  1  0
  8 29  1  0
  9 10  2  0
  9 30  1  0
 10 11  1  0
 10 31  1  0
 11 12  1  0
 11 18  2  0
 12 13  2  0
 12 17  1  0
 13 14  1  0
 13 32  1  0
 14 15  2  0
 14 33  1  0
 15 16  1  0
 15 34  1  0
 16 17  2  0
 17 35  1  0
 18 36  1  0
 19 20  1  0
 19 21  1  0
 19 37  1  0
 20 21  1  0
 20 38  1  0
 20 39  1  0
 21 40  1  0
 21 41  1  0
 22 23  2  0
M  CHG  1   5   1
M  END
>  <r_exp_dg>  (30) 
-9.423

>  <mol_id>  (30) 
29

>  <source_index>  (30) 
29

>  <paff>  (30) 
6.9083580173704977

>  <source_r_exp_dg>  (30) 
-9.423

>  <smiles>  (30) 
CN1C(=O)[C@](c2cccc(-c3cccnc3)c2)(C2CC2)N=C1N

>  <aimnet_interaction_kcal_mol>  (30) 
-173.38453321209764

$$$$
bace_030
     RDKit          3D

 50 53  0  0  1  0  0  0  0  0999 V2000
   15.1859    4.5894    1.6480 C   0  0  0  0  0  0  0  0  0  0  0  0
   15.8735    3.5318    0.9940 O   0  0  0  0  0  0  0  0  0  0  0  0
   15.5095    3.2746   -0.2979 C   0  0  0  0  0  0  0  0  0  0  0  0
   14.9276    4.2112   -1.1478 C   0  0  0  0  0  0  0  0  0  0  0  0
   14.5655    3.8271   -2.4343 C   0  0  0  0  0  0  0  0  0  0  0  0
   14.7784    2.5326   -2.8758 C   0  0  0  0  0  0  0  0  0  0  0  0
   15.3640    1.5914   -2.0268 C   0  0  0  0  0  0  0  0  0  0  0  0
   15.5161    0.1874   -2.4283 C   0  0  0  0  0  0  0  0  0  0  0  0
   15.9020   -0.1789   -3.7157 C   0  0  0  0  0  0  0  0  0  0  0  0
   15.9595   -1.5130   -4.0790 C   0  0  0  0  0  0  0  0  0  0  0  0
   15.6056   -2.5057   -3.1789 C   0  0  0  0  0  0  0  0  0  0  0  0
   15.2396   -2.1575   -1.8880 C   0  0  0  0  0  0  0  0  0  0  0  0
   14.7642   -3.1979   -0.8877 C   0  0  1  0  0  0  0  0  0  0  0  0
   15.1814   -4.6065   -1.2596 C   0  0  0  0  0  0  0  0  0  0  0  0
   16.4650   -5.0276   -0.9248 C   0  0  0  0  0  0  0  0  0  0  0  0
   16.8040   -6.3694   -1.0078 C   0  0  0  0  0  0  0  0  0  0  0  0
   15.8864   -7.2840   -1.4991 C   0  0  0  0  0  0  0  0  0  0  0  0
   14.6515   -6.8464   -1.9546 C   0  0  0  0  0  0  0  0  0  0  0  0
   14.3083   -5.5033   -1.8638 C   0  0  0  0  0  0  0  0  0  0  0  0
   15.2074   -2.8809    0.4630 N   0  0  0  0  0  0  0  0  0  0  0  0
   14.1925   -2.6667    1.2963 C   0  0  0  0  0  0  0  0  0  0  0  0
   14.3045   -2.4420    2.5669 N   0  0  0  0  0  0  0  0  0  0  0  0
   12.9956   -2.7310    0.6112 N   0  0  0  0  0  0  0  0  0  0  0  0
   11.6883   -2.4803    1.2015 C   0  0  0  0  0  0  0  0  0  0  0  0
   13.2142   -3.0547   -0.7152 C   0  0  0  0  0  0  0  0  0  0  0  0
   12.3535   -3.1818   -1.5540 O   0  0  0  0  0  0  0  0  0  0  0  0
   15.2533   -0.8284   -1.5060 C   0  0  0  0  0  0  0  0  0  0  0  0
   15.7506    1.9870   -0.7508 C   0  0  0  0  0  0  0  0  0  0  0  0
   15.4159    4.4884    2.7019 H   0  0  0  0  0  0  0  0  0  0  0  0
   15.4975    5.5600    1.2673 H   0  0  0  0  0  0  0  0  0  0  0  0
   14.1112    4.4967    1.4993 H   0  0  0  0  0  0  0  0  0  0  0  0
   14.7470    5.2265   -0.8213 H   0  0  0  0  0  0  0  0  0  0  0  0
   14.1087    4.5538   -3.0927 H   0  0  0  0  0  0  0  0  0  0  0  0
   14.4688    2.2358   -3.8695 H   0  0  0  0  0  0  0  0  0  0  0  0
   16.1901    0.5735   -4.4384 H   0  0  0  0  0  0  0  0  0  0  0  0
   16.2982   -1.7704   -5.0696 H   0  0  0  0  0  0  0  0  0  0  0  0
   15.6091   -3.5419   -3.4824 H   0  0  0  0  0  0  0  0  0  0  0  0
   17.1927   -4.3096   -0.5733 H   0  0  0  0  0  0  0  0  0  0  0  0
   17.7750   -6.7025   -0.6678 H   0  0  0  0  0  0  0  0  0  0  0  0
   16.1231   -8.3399   -1.4981 H   0  0  0  0  0  0  0  0  0  0  0  0
   13.9467   -7.5562   -2.3636 H   0  0  0  0  0  0  0  0  0  0  0  0
   13.3668   -5.1494   -2.2534 H   0  0  0  0  0  0  0  0  0  0  0  0
   16.1592   -3.0479    0.8203 H   0  0  0  0  0  0  0  0  0  0  0  0
   13.5195   -2.1579    3.1737 H   0  0  0  0  0  0  0  0  0  0  0  0
   10.9436   -2.7439    0.4588 H   0  0  0  0  0  0  0  0  0  0  0  0
   11.5640   -3.0933    2.0887 H   0  0  0  0  0  0  0  0  0  0  0  0
   11.5739   -1.4362    1.4763 H   0  0  0  0  0  0  0  0  0  0  0  0
   15.0477   -0.5744   -0.4793 H   0  0  0  0  0  0  0  0  0  0  0  0
   16.1849    1.2731   -0.0690 H   0  0  0  0  0  0  0  0  0  0  0  0
   15.2508   -2.3944    2.9925 H   0  0  0  0  0  0  0  0  0  0  0  0
  1  2  1  0
  1 29  1  0
  1 30  1  0
  1 31  1  0
  2  3  1  0
  3  4  2  0
  3 28  1  0
  4  5  1  0
  4 32  1  0
  5  6  2  0
  5 33  1  0
  6  7  1  0
  6 34  1  0
  7  8  1  0
  7 28  2  0
  8  9  2  0
  8 27  1  0
  9 10  1  0
  9 35  1  0
 10 11  2  0
 10 36  1  0
 11 12  1  0
 11 37  1  0
 13 12  1  6
 12 27  2  0
 13 14  1  0
 13 20  1  0
 13 25  1  0
 14 15  2  0
 14 19  1  0
 15 16  1  0
 15 38  1  0
 16 17  2  0
 16 39  1  0
 17 18  1  0
 17 40  1  0
 18 19  2  0
 18 41  1  0
 19 42  1  0
 20 21  2  0
 20 43  1  0
 21 22  1  0
 21 23  1  0
 22 44  1  0
 22 50  1  0
 23 24  1  0
 23 25  1  0
 24 45  1  0
 24 46  1  0
 24 47  1  0
 25 26  2  0
 27 48  1  0
 28 49  1  0
M  CHG  1  20   1
M  END
>  <r_exp_dg>  (31) 
-9.633

>  <mol_id>  (31) 
30

>  <source_index>  (31) 
30

>  <paff>  (31) 
7.0623169896190117

>  <source_r_exp_dg>  (31) 
-9.6329999999999991

>  <smiles>  (31) 
COc1cccc(-c2cccc([C@@]3(c4ccccc4)N=C(N)N(C)C3=O)c2)c1

>  <aimnet_interaction_kcal_mol>  (31) 
-177.72299615921642

$$$$
bace_031
     RDKit          3D

 49 52  0  0  1  0  0  0  0  0999 V2000
   11.6934   -2.4025    1.1845 C   0  0  0  0  0  0  0  0  0  0  0  0
   12.9946   -2.5938    0.5642 N   0  0  0  0  0  0  0  0  0  0  0  0
   14.2027   -2.5538    1.2330 C   0  0  0  0  0  0  0  0  0  0  0  0
   14.3252   -2.3914    2.5144 N   0  0  0  0  0  0  0  0  0  0  0  0
   15.2113   -2.7299    0.3780 N   0  0  0  0  0  0  0  0  0  0  0  0
   14.7297   -3.0073   -0.9727 C   0  0  1  0  0  0  0  0  0  0  0  0
   15.2013   -1.9497   -1.9569 C   0  0  0  0  0  0  0  0  0  0  0  0
   15.5726   -2.2680   -3.2565 C   0  0  0  0  0  0  0  0  0  0  0  0
   15.9363   -1.2696   -4.1456 C   0  0  0  0  0  0  0  0  0  0  0  0
   15.8181    0.0588   -3.7827 C   0  0  0  0  0  0  0  0  0  0  0  0
   15.3555    0.4061   -2.5134 C   0  0  0  0  0  0  0  0  0  0  0  0
   14.9763    1.7933   -2.2120 C   0  0  0  0  0  0  0  0  0  0  0  0
   14.2718    2.5434   -3.1572 C   0  0  0  0  0  0  0  0  0  0  0  0
   13.8426    3.8257   -2.8687 C   0  0  0  0  0  0  0  0  0  0  0  0
   14.1085    4.3962   -1.6329 C   0  0  0  0  0  0  0  0  0  0  0  0
   14.8236    3.6566   -0.7034 C   0  0  0  0  0  0  0  0  0  0  0  0
   15.1430    4.3565    0.8712 Cl  0  0  0  0  0  0  0  0  0  0  0  0
   15.2671    2.3762   -0.9781 C   0  0  0  0  0  0  0  0  0  0  0  0
   15.1796   -0.6135   -1.5729 C   0  0  0  0  0  0  0  0  0  0  0  0
   15.0026   -4.4622   -1.3858 C   0  0  0  0  0  0  0  0  0  0  0  0
   16.4666   -4.8597   -1.4878 C   0  0  0  0  0  0  0  0  0  0  0  0
   16.4542   -6.3905   -1.4733 C   0  0  0  0  0  0  0  0  0  0  0  0
   15.0740   -6.8126   -0.9429 C   0  0  0  0  0  0  0  0  0  0  0  0
   14.4140   -5.5276   -0.4585 C   0  0  0  0  0  0  0  0  0  0  0  0
   13.1987   -2.8694   -0.7768 C   0  0  0  0  0  0  0  0  0  0  0  0
   12.3297   -2.9993   -1.6085 O   0  0  0  0  0  0  0  0  0  0  0  0
   11.5374   -1.3650    1.4615 H   0  0  0  0  0  0  0  0  0  0  0  0
   10.9439   -2.7007    0.4598 H   0  0  0  0  0  0  0  0  0  0  0  0
   11.6174   -3.0193    2.0744 H   0  0  0  0  0  0  0  0  0  0  0  0
   13.5453   -2.1234    3.1322 H   0  0  0  0  0  0  0  0  0  0  0  0
   16.1640   -2.9195    0.7228 H   0  0  0  0  0  0  0  0  0  0  0  0
   15.5777   -3.2925   -3.5921 H   0  0  0  0  0  0  0  0  0  0  0  0
   16.3168   -1.5240   -5.1233 H   0  0  0  0  0  0  0  0  0  0  0  0
   16.1029    0.8255   -4.4914 H   0  0  0  0  0  0  0  0  0  0  0  0
   14.0472    2.1026   -4.1195 H   0  0  0  0  0  0  0  0  0  0  0  0
   13.2964    4.3945   -3.6096 H   0  0  0  0  0  0  0  0  0  0  0  0
   13.7685    5.3930   -1.3943 H   0  0  0  0  0  0  0  0  0  0  0  0
   15.7936    1.8173   -0.2198 H   0  0  0  0  0  0  0  0  0  0  0  0
   15.0037   -0.3654   -0.5374 H   0  0  0  0  0  0  0  0  0  0  0  0
   14.5289   -4.5901   -2.3596 H   0  0  0  0  0  0  0  0  0  0  0  0
   16.9515   -4.4496   -2.3654 H   0  0  0  0  0  0  0  0  0  0  0  0
   17.0227   -4.4787   -0.6351 H   0  0  0  0  0  0  0  0  0  0  0  0
   16.6125   -6.7889   -2.4771 H   0  0  0  0  0  0  0  0  0  0  0  0
   17.2581   -6.7704   -0.8482 H   0  0  0  0  0  0  0  0  0  0  0  0
   14.4804   -7.2589   -1.7405 H   0  0  0  0  0  0  0  0  0  0  0  0
   15.1471   -7.5533   -0.1499 H   0  0  0  0  0  0  0  0  0  0  0  0
   14.7012   -5.3321    0.5735 H   0  0  0  0  0  0  0  0  0  0  0  0
   13.3270   -5.5627   -0.4916 H   0  0  0  0  0  0  0  0  0  0  0  0
   15.2708   -2.3597    2.9425 H   0  0  0  0  0  0  0  0  0  0  0  0
  1  2  1  0
  1 27  1  0
  1 28  1  0
  1 29  1  0
  2  3  1  0
  2 25  1  0
  3  4  1  0
  3  5  2  0
  4 30  1  0
  4 49  1  0
  5  6  1  0
  5 31  1  0
  6  7  1  0
  6 20  1  6
  6 25  1  0
  7  8  2  0
  7 19  1  0
  8  9  1  0
  8 32  1  0
  9 10  2  0
  9 33  1  0
 10 11  1  0
 10 34  1  0
 11 12  1  0
 11 19  2  0
 12 13  2  0
 12 18  1  0
 13 14  1  0
 13 35  1  0
 14 15  2  0
 14 36  1  0
 15 16  1  0
 15 37  1  0
 16 17  1  0
 16 18  2  0
 18 38  1  0
 19 39  1  0
 20 21  1  0
 20 24  1  0
 20 40  1  0
 21 22  1  0
 21 41  1  0
 21 42  1  0
 22 23  1  0
 22 43  1  0
 22 44  1  0
 23 24  1  0
 23 45  1  0
 23 46  1  0
 24 47  1  0
 24 48  1  0
 25 26  2  0
M  CHG  1   5   1
M  END
>  <r_exp_dg>  (32) 
-9.093

>  <mol_id>  (32) 
31

>  <source_index>  (32) 
31

>  <paff>  (32) 
6.6664225894335072

>  <source_r_exp_dg>  (32) 
-9.093

>  <smiles>  (32) 
CN1C(=O)[C@](c2cccc(-c3cccc(Cl)c3)c2)(C2CCCC2)N=C1N

>  <aimnet_interaction_kcal_mol>  (32) 
-177.03637080734711

$$$$
bace_032
     RDKit          3D

 53 56  0  0  1  0  0  0  0  0999 V2000
   15.1136    4.7275    2.1521 C   0  0  0  0  0  0  0  0  0  0  0  0
   14.7580    4.6883    0.7001 C   0  0  0  0  0  0  0  0  0  0  0  0
   15.6319    3.7773    0.0169 O   0  0  0  0  0  0  0  0  0  0  0  0
   15.1408    3.2828   -1.1558 C   0  0  0  0  0  0  0  0  0  0  0  0
   14.2549    3.9840   -1.9724 C   0  0  0  0  0  0  0  0  0  0  0  0
   13.7530    3.3725   -3.1108 C   0  0  0  0  0  0  0  0  0  0  0  0
   14.1178    2.0813   -3.4407 C   0  0  0  0  0  0  0  0  0  0  0  0
   14.9798    1.3683   -2.6058 C   0  0  0  0  0  0  0  0  0  0  0  0
   15.2290   -0.0586   -2.8380 C   0  0  0  0  0  0  0  0  0  0  0  0
   15.4425   -0.5395   -4.1260 C   0  0  0  0  0  0  0  0  0  0  0  0
   15.4875   -1.9020   -4.3554 C   0  0  0  0  0  0  0  0  0  0  0  0
   15.3469   -2.7991   -3.3106 C   0  0  0  0  0  0  0  0  0  0  0  0
   15.1388   -2.3279   -2.0204 C   0  0  0  0  0  0  0  0  0  0  0  0
   14.7288   -3.2815   -0.9121 C   0  0  1  0  0  0  0  0  0  0  0  0
   15.1568   -4.7060   -1.2072 C   0  0  0  0  0  0  0  0  0  0  0  0
   14.2861   -5.6430   -1.7531 C   0  0  0  0  0  0  0  0  0  0  0  0
   14.6687   -6.9754   -1.8405 C   0  0  0  0  0  0  0  0  0  0  0  0
   15.9307   -7.3685   -1.4193 C   0  0  0  0  0  0  0  0  0  0  0  0
   16.8334   -6.4195   -0.9677 C   0  0  0  0  0  0  0  0  0  0  0  0
   16.4584   -5.0866   -0.8978 C   0  0  0  0  0  0  0  0  0  0  0  0
   15.2046   -2.8618    0.4028 N   0  0  0  0  0  0  0  0  0  0  0  0
   14.2041   -2.6484    1.2592 C   0  0  0  0  0  0  0  0  0  0  0  0
   14.3367   -2.3879    2.5209 N   0  0  0  0  0  0  0  0  0  0  0  0
   12.9937   -2.7668    0.6088 N   0  0  0  0  0  0  0  0  0  0  0  0
   11.6991   -2.5132    1.2248 C   0  0  0  0  0  0  0  0  0  0  0  0
   13.1822   -3.1505   -0.7044 C   0  0  0  0  0  0  0  0  0  0  0  0
   12.3016   -3.3287   -1.5123 O   0  0  0  0  0  0  0  0  0  0  0  0
   15.1884   -0.9651   -1.7758 C   0  0  0  0  0  0  0  0  0  0  0  0
   15.5413    2.0041   -1.5079 C   0  0  0  0  0  0  0  0  0  0  0  0
   14.6240    5.5654    2.6364 H   0  0  0  0  0  0  0  0  0  0  0  0
   14.8167    3.8275    2.6694 H   0  0  0  0  0  0  0  0  0  0  0  0
   16.1845    4.8156    2.3027 H   0  0  0  0  0  0  0  0  0  0  0  0
   13.7258    4.3594    0.5765 H   0  0  0  0  0  0  0  0  0  0  0  0
   14.8486    5.6603    0.2201 H   0  0  0  0  0  0  0  0  0  0  0  0
   13.9602    4.9912   -1.7261 H   0  0  0  0  0  0  0  0  0  0  0  0
   13.0640    3.9158   -3.7448 H   0  0  0  0  0  0  0  0  0  0  0  0
   13.7217    1.6100   -4.3296 H   0  0  0  0  0  0  0  0  0  0  0  0
   15.6003    0.1476   -4.9462 H   0  0  0  0  0  0  0  0  0  0  0  0
   15.6389   -2.2532   -5.3610 H   0  0  0  0  0  0  0  0  0  0  0  0
   15.4008   -3.8595   -3.4990 H   0  0  0  0  0  0  0  0  0  0  0  0
   13.3196   -5.3278   -2.1130 H   0  0  0  0  0  0  0  0  0  0  0  0
   13.9774   -7.7108   -2.2292 H   0  0  0  0  0  0  0  0  0  0  0  0
   16.2012   -8.4163   -1.4152 H   0  0  0  0  0  0  0  0  0  0  0  0
   17.8219   -6.7182   -0.6470 H   0  0  0  0  0  0  0  0  0  0  0  0
   17.1761   -4.3437   -0.5792 H   0  0  0  0  0  0  0  0  0  0  0  0
   16.1605   -3.0145    0.7545 H   0  0  0  0  0  0  0  0  0  0  0  0
   13.5534   -2.1274    3.1399 H   0  0  0  0  0  0  0  0  0  0  0  0
   10.9394   -2.7920    0.5035 H   0  0  0  0  0  0  0  0  0  0  0  0
   11.5971   -3.1126    2.1239 H   0  0  0  0  0  0  0  0  0  0  0  0
   11.5881   -1.4649    1.4848 H   0  0  0  0  0  0  0  0  0  0  0  0
   15.1717   -0.6006   -0.7593 H   0  0  0  0  0  0  0  0  0  0  0  0
   16.2507    1.4858   -0.8817 H   0  0  0  0  0  0  0  0  0  0  0  0
   15.2869   -2.3391    2.9419 H   0  0  0  0  0  0  0  0  0  0  0  0
  1  2  1  0
  1 30  1  0
  1 31  1  0
  1 32  1  0
  2  3  1  0
  2 33  1  0
  2 34  1  0
  3  4  1  0
  4  5  2  0
  4 29  1  0
  5  6  1  0
  5 35  1  0
  6  7  2  0
  6 36  1  0
  7  8  1  0
  7 37  1  0
  8  9  1  0
  8 29  2  0
  9 10  2  0
  9 28  1  0
 10 11  1  0
 10 38  1  0
 11 12  2  0
 11 39  1  0
 12 13  1  0
 12 40  1  0
 14 13  1  6
 13 28  2  0
 14 15  1  0
 14 21  1  0
 14 26  1  0
 15 16  2  0
 15 20  1  0
 16 17  1  0
 16 41  1  0
 17 18  2  0
 17 42  1  0
 18 19  1  0
 18 43  1  0
 19 20  2  0
 19 44  1  0
 20 45  1  0
 21 22  2  0
 21 46  1  0
 22 23  1  0
 22 24  1  0
 23 47  1  0
 23 53  1  0
 24 25  1  0
 24 26  1  0
 25 48  1  0
 25 49  1  0
 25 50  1  0
 26 27  2  0
 28 51  1  0
 29 52  1  0
M  CHG  1  21   1
M  END
>  <r_exp_dg>  (33) 
-9.113

>  <mol_id>  (33) 
32

>  <source_index>  (33) 
32

>  <paff>  (33) 
6.6810849824608942

>  <source_r_exp_dg>  (33) 
-9.1129999999999995

>  <smiles>  (33) 
CCOc1cccc(-c2cccc([C@@]3(c4ccccc4)N=C(N)N(C)C3=O)c2)c1

>  <aimnet_interaction_kcal_mol>  (33) 
-178.67113815544118

$$$$
bace_033
     RDKit          3D

 44 47  0  0  1  0  0  0  0  0999 V2000
   11.7018   -2.4154    1.1968 C   0  0  0  0  0  0  0  0  0  0  0  0
   13.0111   -2.6777    0.6157 N   0  0  0  0  0  0  0  0  0  0  0  0
   14.2045   -2.6392    1.3176 C   0  0  0  0  0  0  0  0  0  0  0  0
   14.3063   -2.4134    2.5874 N   0  0  0  0  0  0  0  0  0  0  0  0
   15.2248   -2.8782    0.4945 N   0  0  0  0  0  0  0  0  0  0  0  0
   14.7857   -3.1693   -0.8603 C   0  0  2  0  0  0  0  0  0  0  0  0
   15.1321   -4.6036   -1.2040 C   0  0  0  0  0  0  0  0  0  0  0  0
   16.4146   -4.9900   -1.5783 C   0  0  0  0  0  0  0  0  0  0  0  0
   16.7473   -6.2674   -1.7988 N   0  0  0  0  0  0  0  0  0  0  0  0
   15.7925   -7.1681   -1.5792 C   0  0  0  0  0  0  0  0  0  0  0  0
   14.5289   -6.9207   -1.2492 N   0  0  0  0  0  0  0  0  0  0  0  0
   14.2083   -5.6351   -1.0733 C   0  0  0  0  0  0  0  0  0  0  0  0
   15.2701   -2.1273   -1.8585 C   0  0  0  0  0  0  0  0  0  0  0  0
   15.5876   -2.4645   -3.1668 C   0  0  0  0  0  0  0  0  0  0  0  0
   15.9673   -1.4781   -4.0615 C   0  0  0  0  0  0  0  0  0  0  0  0
   15.8923   -0.1467   -3.6986 C   0  0  0  0  0  0  0  0  0  0  0  0
   15.4545    0.2184   -2.4244 C   0  0  0  0  0  0  0  0  0  0  0  0
   15.0870    1.6145   -2.1468 C   0  0  0  0  0  0  0  0  0  0  0  0
   14.3527    2.3335   -3.0929 C   0  0  0  0  0  0  0  0  0  0  0  0
   13.9931    3.6484   -2.8612 C   0  0  0  0  0  0  0  0  0  0  0  0
   14.3747    4.2860   -1.6912 C   0  0  0  0  0  0  0  0  0  0  0  0
   15.0954    3.5688   -0.7507 C   0  0  0  0  0  0  0  0  0  0  0  0
   15.5527    4.3720    0.7460 Cl  0  0  0  0  0  0  0  0  0  0  0  0
   15.4390    2.2440   -0.9517 C   0  0  0  0  0  0  0  0  0  0  0  0
   15.2909   -0.7908   -1.4722 C   0  0  0  0  0  0  0  0  0  0  0  0
   13.2349   -2.9962   -0.7090 C   0  0  0  0  0  0  0  0  0  0  0  0
   12.3872   -3.1232   -1.5596 O   0  0  0  0  0  0  0  0  0  0  0  0
   10.9559   -2.6939    0.4607 H   0  0  0  0  0  0  0  0  0  0  0  0
   11.5789   -3.0098    2.0960 H   0  0  0  0  0  0  0  0  0  0  0  0
   11.5889   -1.3669    1.4516 H   0  0  0  0  0  0  0  0  0  0  0  0
   15.2502   -2.3700    3.0230 H   0  0  0  0  0  0  0  0  0  0  0  0
   16.1783   -3.0580    0.8508 H   0  0  0  0  0  0  0  0  0  0  0  0
   17.1972   -4.2544   -1.7019 H   0  0  0  0  0  0  0  0  0  0  0  0
   16.0738   -8.2118   -1.6678 H   0  0  0  0  0  0  0  0  0  0  0  0
   13.1742   -5.4392   -0.8240 H   0  0  0  0  0  0  0  0  0  0  0  0
   15.5239   -3.4896   -3.5002 H   0  0  0  0  0  0  0  0  0  0  0  0
   16.3263   -1.7435   -5.0429 H   0  0  0  0  0  0  0  0  0  0  0  0
   16.1883    0.6109   -4.4117 H   0  0  0  0  0  0  0  0  0  0  0  0
   14.0539    1.8456   -4.0114 H   0  0  0  0  0  0  0  0  0  0  0  0
   13.4184    4.1927   -3.5987 H   0  0  0  0  0  0  0  0  0  0  0  0
   14.1182    5.3180   -1.5047 H   0  0  0  0  0  0  0  0  0  0  0  0
   15.9358    1.6936   -0.1679 H   0  0  0  0  0  0  0  0  0  0  0  0
   15.1588   -0.5318   -0.4329 H   0  0  0  0  0  0  0  0  0  0  0  0
   13.5174   -2.1340    3.1964 H   0  0  0  0  0  0  0  0  0  0  0  0
  1  2  1  0
  1 28  1  0
  1 29  1  0
  1 30  1  0
  2  3  1  0
  2 26  1  0
  3  4  1  0
  3  5  2  0
  4 31  1  0
  4 44  1  0
  5  6  1  0
  5 32  1  0
  6  7  1  6
  6 13  1  0
  6 26  1  0
  7  8  2  0
  7 12  1  0
  8  9  1  0
  8 33  1  0
  9 10  2  0
 10 11  1  0
 10 34  1  0
 11 12  2  0
 12 35  1  0
 13 14  2  0
 13 25  1  0
 14 15  1  0
 14 36  1  0
 15 16  2  0
 15 37  1  0
 16 17  1  0
 16 38  1  0
 17 18  1  0
 17 25  2  0
 18 19  2  0
 18 24  1  0
 19 20  1  0
 19 39  1  0
 20 21  2  0
 20 40  1  0
 21 22  1  0
 21 41  1  0
 22 23  1  0
 22 24  2  0
 24 42  1  0
 25 43  1  0
 26 27  2  0
M  CHG  1   5   1
M  END
>  <r_exp_dg>  (34) 
-8.763

>  <mol_id>  (34) 
33

>  <source_index>  (34) 
33

>  <paff>  (34) 
6.4244864623217985

>  <source_r_exp_dg>  (34) 
-8.7629999999999999

>  <smiles>  (34) 
CN1C(=O)[C@@](c2cncnc2)(c2cccc(-c3cccc(Cl)c3)c2)N=C1N

>  <aimnet_interaction_kcal_mol>  (34) 
-186.90560688367563

$$$$
bace_034
     RDKit          3D

 42 45  0  0  1  0  0  0  0  0999 V2000
   11.6463   -2.4973    1.3190 C   0  0  0  0  0  0  0  0  0  0  0  0
   12.9304   -2.7208    0.6745 N   0  0  0  0  0  0  0  0  0  0  0  0
   14.1566   -2.6832    1.3111 C   0  0  0  0  0  0  0  0  0  0  0  0
   14.3155   -2.4521    2.5767 N   0  0  0  0  0  0  0  0  0  0  0  0
   15.1371   -2.9267    0.4407 N   0  0  0  0  0  0  0  0  0  0  0  0
   14.6178   -3.1698   -0.8996 C   0  0  1  0  0  0  0  0  0  0  0  0
   15.1472   -2.1476   -1.8775 C   0  0  0  0  0  0  0  0  0  0  0  0
   15.6699   -2.5282   -3.1051 C   0  0  0  0  0  0  0  0  0  0  0  0
   15.9780   -1.5679   -4.0551 C   0  0  0  0  0  0  0  0  0  0  0  0
   15.7280   -0.2324   -3.8006 C   0  0  0  0  0  0  0  0  0  0  0  0
   15.2129    0.1641   -2.5686 C   0  0  0  0  0  0  0  0  0  0  0  0
   14.7957    1.5535   -2.3490 C   0  0  0  0  0  0  0  0  0  0  0  0
   14.0163    2.2123   -3.3032 C   0  0  0  0  0  0  0  0  0  0  0  0
   13.5530    3.4513   -3.1618 N   0  0  0  0  0  0  0  0  0  0  0  0
   13.8797    4.1190   -2.0533 C   0  0  0  0  0  0  0  0  0  0  0  0
   14.6708    3.5528   -1.0642 C   0  0  0  0  0  0  0  0  0  0  0  0
   15.0942    4.4980    0.3472 Cl  0  0  0  0  0  0  0  0  0  0  0  0
   15.1252    2.2547   -1.1934 C   0  0  0  0  0  0  0  0  0  0  0  0
   15.0282   -0.7966   -1.5760 C   0  0  0  0  0  0  0  0  0  0  0  0
   14.7531   -4.6044   -1.3557 C   0  0  0  0  0  0  0  0  0  0  0  0
   15.9409   -5.4568   -1.0900 C   0  0  0  0  0  0  0  0  0  0  0  0
   14.6385   -5.7580   -0.4193 C   0  0  0  0  0  0  0  0  0  0  0  0
   13.0922   -2.9549   -0.6758 C   0  0  0  0  0  0  0  0  0  0  0  0
   12.2073   -3.0219   -1.4962 O   0  0  0  0  0  0  0  0  0  0  0  0
   10.8788   -2.8406    0.6345 H   0  0  0  0  0  0  0  0  0  0  0  0
   11.6019   -3.0602    2.2449 H   0  0  0  0  0  0  0  0  0  0  0  0
   11.4941   -1.4459    1.5376 H   0  0  0  0  0  0  0  0  0  0  0  0
   13.5466   -2.1565    3.1970 H   0  0  0  0  0  0  0  0  0  0  0  0
   16.1140   -3.0387    0.7502 H   0  0  0  0  0  0  0  0  0  0  0  0
   15.8329   -3.5724   -3.3204 H   0  0  0  0  0  0  0  0  0  0  0  0
   16.4170   -1.8460   -4.9983 H   0  0  0  0  0  0  0  0  0  0  0  0
   15.9547    0.5029   -4.5607 H   0  0  0  0  0  0  0  0  0  0  0  0
   13.7465    1.6964   -4.2203 H   0  0  0  0  0  0  0  0  0  0  0  0
   13.5106    5.1291   -1.9522 H   0  0  0  0  0  0  0  0  0  0  0  0
   15.6928    1.7906   -0.4009 H   0  0  0  0  0  0  0  0  0  0  0  0
   14.7693   -0.4869   -0.5745 H   0  0  0  0  0  0  0  0  0  0  0  0
   14.2705   -4.7440   -2.3126 H   0  0  0  0  0  0  0  0  0  0  0  0
   16.2522   -6.1103   -1.8946 H   0  0  0  0  0  0  0  0  0  0  0  0
   16.7568   -5.0738   -0.4946 H   0  0  0  0  0  0  0  0  0  0  0  0
   14.5570   -5.5708    0.6425 H   0  0  0  0  0  0  0  0  0  0  0  0
   14.0737   -6.6207   -0.7449 H   0  0  0  0  0  0  0  0  0  0  0  0
   15.2718   -2.4029    2.9809 H   0  0  0  0  0  0  0  0  0  0  0  0
  1  2  1  0
  1 25  1  0
  1 26  1  0
  1 27  1  0
  2  3  1  0
  2 23  1  0
  3  4  1  0
  3  5  2  0
  4 28  1  0
  4 42  1  0
  5  6  1  0
  5 29  1  0
  6  7  1  0
  6 20  1  6
  6 23  1  0
  7  8  2  0
  7 19  1  0
  8  9  1  0
  8 30  1  0
  9 10  2  0
  9 31  1  0
 10 11  1  0
 10 32  1  0
 11 12  1  0
 11 19  2  0
 12 13  2  0
 12 18  1  0
 13 14  1  0
 13 33  1  0
 14 15  2  0
 15 16  1  0
 15 34  1  0
 16 17  1  0
 16 18  2  0
 18 35  1  0
 19 36  1  0
 20 21  1  0
 20 22  1  0
 20 37  1  0
 21 22  1  0
 21 38  1  0
 21 39  1  0
 22 40  1  0
 22 41  1  0
 23 24  2  0
M  CHG  1   5   1
M  END
>  <r_exp_dg>  (35) 
-10.333

>  <mol_id>  (35) 
34

>  <source_index>  (35) 
34

>  <paff>  (35) 
7.575513330722484

>  <source_r_exp_dg>  (35) 
-10.333

>  <smiles>  (35) 
CN1C(=O)[C@](c2cccc(-c3cncc(Cl)c3)c2)(C2CC2)N=C1N

>  <aimnet_interaction_kcal_mol>  (35) 
-178.45431352563838

$$$$
bace_035
     RDKit          3D

 46 49  0  0  1  0  0  0  0  0999 V2000
   15.1645    4.5466    1.5592 C   0  0  0  0  0  0  0  0  0  0  0  0
   15.8800    3.4599    0.9825 O   0  0  0  0  0  0  0  0  0  0  0  0
   15.5577    3.1374   -0.3028 C   0  0  0  0  0  0  0  0  0  0  0  0
   15.0225    4.0271   -1.2301 C   0  0  0  0  0  0  0  0  0  0  0  0
   14.7267    3.6661   -2.4831 N   0  0  0  0  0  0  0  0  0  0  0  0
   14.9385    2.4064   -2.8455 C   0  0  0  0  0  0  0  0  0  0  0  0
   15.4577    1.4357   -1.9870 C   0  0  0  0  0  0  0  0  0  0  0  0
   15.5839    0.0363   -2.3954 C   0  0  0  0  0  0  0  0  0  0  0  0
   15.9903   -0.3276   -3.6759 C   0  0  0  0  0  0  0  0  0  0  0  0
   16.0155   -1.6596   -4.0466 C   0  0  0  0  0  0  0  0  0  0  0  0
   15.6341   -2.6483   -3.1526 C   0  0  0  0  0  0  0  0  0  0  0  0
   15.2238   -2.3032   -1.8706 C   0  0  0  0  0  0  0  0  0  0  0  0
   14.6603   -3.3249   -0.9046 C   0  0  1  0  0  0  0  0  0  0  0  0
   14.8023   -4.7528   -1.3807 C   0  0  0  0  0  0  0  0  0  0  0  0
   16.0285   -5.5729   -1.1805 C   0  0  0  0  0  0  0  0  0  0  0  0
   14.7628   -5.9250   -0.4637 C   0  0  0  0  0  0  0  0  0  0  0  0
   15.1576   -3.0952    0.4475 N   0  0  0  0  0  0  0  0  0  0  0  0
   14.1780   -2.7694    1.2904 C   0  0  0  0  0  0  0  0  0  0  0  0
   14.3302   -2.4841    2.5470 N   0  0  0  0  0  0  0  0  0  0  0  0
   12.9616   -2.7795    0.6360 N   0  0  0  0  0  0  0  0  0  0  0  0
   11.6798   -2.4836    1.2583 C   0  0  0  0  0  0  0  0  0  0  0  0
   13.1337   -3.0832   -0.7009 C   0  0  0  0  0  0  0  0  0  0  0  0
   12.2545   -3.1701   -1.5254 O   0  0  0  0  0  0  0  0  0  0  0  0
   15.2655   -0.9731   -1.4865 C   0  0  0  0  0  0  0  0  0  0  0  0
   15.7928    1.8323   -0.7007 C   0  0  0  0  0  0  0  0  0  0  0  0
   15.3792    4.5084    2.6210 H   0  0  0  0  0  0  0  0  0  0  0  0
   15.4701    5.4983    1.1287 H   0  0  0  0  0  0  0  0  0  0  0  0
   14.0937    4.4291    1.3966 H   0  0  0  0  0  0  0  0  0  0  0  0
   14.8189    5.0589   -0.9726 H   0  0  0  0  0  0  0  0  0  0  0  0
   14.6647    2.1385   -3.8622 H   0  0  0  0  0  0  0  0  0  0  0  0
   16.3134    0.4241   -4.3842 H   0  0  0  0  0  0  0  0  0  0  0  0
   16.3403   -1.9127   -5.0409 H   0  0  0  0  0  0  0  0  0  0  0  0
   15.6602   -3.6838   -3.4566 H   0  0  0  0  0  0  0  0  0  0  0  0
   14.2845   -4.8897   -2.3202 H   0  0  0  0  0  0  0  0  0  0  0  0
   16.3398   -6.1963   -2.0123 H   0  0  0  0  0  0  0  0  0  0  0  0
   16.8484   -5.1695   -0.6054 H   0  0  0  0  0  0  0  0  0  0  0  0
   14.7211   -5.7595    0.6035 H   0  0  0  0  0  0  0  0  0  0  0  0
   14.2109   -6.7989   -0.7810 H   0  0  0  0  0  0  0  0  0  0  0  0
   16.1347   -3.1802    0.7671 H   0  0  0  0  0  0  0  0  0  0  0  0
   13.5630   -2.1707    3.1597 H   0  0  0  0  0  0  0  0  0  0  0  0
   10.9078   -2.7720    0.5539 H   0  0  0  0  0  0  0  0  0  0  0  0
   11.5809   -3.0536    2.1764 H   0  0  0  0  0  0  0  0  0  0  0  0
   11.5859   -1.4268    1.4876 H   0  0  0  0  0  0  0  0  0  0  0  0
   15.0333   -0.7083   -0.4690 H   0  0  0  0  0  0  0  0  0  0  0  0
   16.1867    1.1234    0.0097 H   0  0  0  0  0  0  0  0  0  0  0  0
   15.2853   -2.4377    2.9545 H   0  0  0  0  0  0  0  0  0  0  0  0
  1  2  1  0
  1 26  1  0
  1 27  1  0
  1 28  1  0
  2  3  1  0
  3  4  2  0
  3 25  1  0
  4  5  1  0
  4 29  1  0
  5  6  2  0
  6  7  1  0
  6 30  1  0
  7  8  1  0
  7 25  2  0
  8  9  2  0
  8 24  1  0
  9 10  1  0
  9 31  1  0
 10 11  2  0
 10 32  1  0
 11 12  1  0
 11 33  1  0
 12 13  1  0
 12 24  2  0
 13 14  1  6
 13 17  1  0
 13 22  1  0
 14 15  1  0
 14 16  1  0
 14 34  1  0
 15 16  1  0
 15 35  1  0
 15 36  1  0
 16 37  1  0
 16 38  1  0
 17 18  2  0
 17 39  1  0
 18 19  1  0
 18 20  1  0
 19 40  1  0
 19 46  1  0
 20 21  1  0
 20 22  1  0
 21 41  1  0
 21 42  1  0
 21 43  1  0
 22 23  2  0
 24 44  1  0
 25 45  1  0
M  CHG  1  17   1
M  END
>  <r_exp_dg>  (36) 
-10.023

>  <mol_id>  (36) 
35

>  <source_index>  (36) 
35

>  <paff>  (36) 
7.3482402958128805

>  <source_r_exp_dg>  (36) 
-10.023

>  <smiles>  (36) 
COc1cncc(-c2cccc([C@@]3(C4CC4)N=C(N)N(C)C3=O)c2)c1

>  <aimnet_interaction_kcal_mol>  (36) 
-175.40366060908977

$$$$
