L4:Q70CQ3:11758
     RDKit          3D

 49 52  0  0  0  0  0  0  0  0999 V2000
   -0.8881  -19.4963    6.1786 C   0  0  0  0  0  0  0  0  0  0  0  0
   -1.9956  -19.3624    5.6599 O   0  0  0  0  0  0  0  0  0  0  0  0
   -0.6947  -19.4533    7.5501 N   0  0  0  0  0  0  0  0  0  0  0  0
    0.1684  -19.8774    7.8797 H   0  0  0  0  0  0  0  0  0  0  0  0
    2.3102  -20.3695    6.3636 C   0  0  0  0  0  0  0  0  0  0  0  0
    1.7746  -21.4746    5.8411 C   0  0  0  0  0  0  0  0  0  0  0  0
    0.6519  -21.1517    5.1269 N   0  0  0  0  0  0  0  0  0  0  0  0
    0.4101  -19.7198    5.3510 C   0  0  2  0  0  0  0  0  0  0  0  0
    1.5597  -19.2085    6.0781 O   0  0  0  0  0  0  0  0  0  0  0  0
   -0.1630  -21.7343    5.3279 H   0  0  0  0  0  0  0  0  0  0  0  0
    4.6912  -19.2809    9.1141 C   0  0  0  0  0  0  0  0  0  0  0  0
    5.8556  -19.9604    8.7495 C   0  0  0  0  0  0  0  0  0  0  0  0
    5.8596  -20.7678    7.6141 C   0  0  0  0  0  0  0  0  0  0  0  0
    4.7001  -20.8956    6.8435 C   0  0  0  0  0  0  0  0  0  0  0  0
    3.5170  -20.2219    7.1895 C   0  0  0  0  0  0  0  0  0  0  0  0
    3.5310  -19.4118    8.3367 C   0  0  0  0  0  0  0  0  0  0  0  0
    4.6736  -17.7806   11.2306 N   0  0  0  0  0  0  0  0  0  0  0  0
    4.6804  -18.4515   10.2837 C   0  0  0  0  0  0  0  0  0  0  0  0
   -1.8250  -19.3429    8.4573 C   0  0  2  0  0  0  0  0  0  0  0  0
   -1.5667  -18.3294    9.5635 C   0  0  0  0  0  0  0  0  0  0  0  0
   -2.5315  -18.7211   10.6851 C   0  0  2  0  0  0  0  0  0  0  0  0
   -2.7481  -20.1950   10.5176 N   0  0  0  0  0  0  0  0  0  0  0  0
   -2.1351  -20.6331    9.2293 C   0  0  0  0  0  0  0  0  0  0  0  0
   -3.0591  -21.0274   11.5181 C   0  0  0  0  0  0  0  0  0  0  0  0
   -3.2987  -21.7566   12.3832 N   0  0  0  0  0  0  0  0  0  0  0  0
   -3.8586  -17.9287   10.6924 C   0  0  0  0  0  0  0  0  0  0  0  0
   -3.9373  -16.9500   11.7589 N   0  0  0  0  0  0  0  0  0  0  0  0
   -5.0914  -16.2918   12.1082 C   0  0  0  0  0  0  0  0  0  0  0  0
   -5.2430  -15.9807   13.3683 N   0  0  0  0  0  0  0  0  0  0  0  0
   -4.0925  -16.4235   14.0037 N   0  0  0  0  0  0  0  0  0  0  0  0
   -3.3222  -17.2184   13.0447 C   0  0  0  0  0  0  0  0  0  0  0  0
   -4.3223  -16.9520   14.8431 H   0  0  0  0  0  0  0  0  0  0  0  0
    2.1501  -22.4288    5.9578 H   0  0  0  0  0  0  0  0  0  0  0  0
    0.2816  -19.2119    4.4180 H   0  0  0  0  0  0  0  0  0  0  0  0
    6.7106  -19.8647    9.3195 H   0  0  0  0  0  0  0  0  0  0  0  0
    6.7183  -21.2714    7.3420 H   0  0  0  0  0  0  0  0  0  0  0  0
    4.7136  -21.4963    6.0045 H   0  0  0  0  0  0  0  0  0  0  0  0
    2.6750  -18.9053    8.6118 H   0  0  0  0  0  0  0  0  0  0  0  0
   -2.6286  -19.0727    7.8046 H   0  0  0  0  0  0  0  0  0  0  0  0
   -1.7706  -17.3366    9.2204 H   0  0  0  0  0  0  0  0  0  0  0  0
   -0.5469  -18.3357    9.8872 H   0  0  0  0  0  0  0  0  0  0  0  0
   -2.1089  -18.4778   11.6375 H   0  0  0  0  0  0  0  0  0  0  0  0
   -2.8206  -21.2422    8.6780 H   0  0  0  0  0  0  0  0  0  0  0  0
   -1.2542  -21.2188    9.3900 H   0  0  0  0  0  0  0  0  0  0  0  0
   -4.6666  -18.6208   10.8065 H   0  0  0  0  0  0  0  0  0  0  0  0
   -3.9129  -17.3938    9.7673 H   0  0  0  0  0  0  0  0  0  0  0  0
   -5.8083  -16.0531   11.4052 H   0  0  0  0  0  0  0  0  0  0  0  0
   -3.3853  -18.2598   13.2822 H   0  0  0  0  0  0  0  0  0  0  0  0
   -2.2826  -16.9655   13.0547 H   0  0  0  0  0  0  0  0  0  0  0  0
  1  2  2  0
  1  3  1  0
  3 19  1  0
  3  4  1  0
  5  6  2  0
  6  7  1  0
  6 33  1  0
  7  8  1  0
  7 10  1  0
  8  1  1  0
  8  9  1  0
  8 34  1  6
  9  5  1  0
 11 12  2  0
 12 13  1  0
 12 35  1  0
 13 14  2  0
 13 36  1  0
 14 15  1  0
 14 37  1  0
 15  5  1  0
 15 16  2  0
 16 11  1  0
 16 38  1  0
 17 18  3  0
 18 11  1  0
 19 20  1  0
 19 39  1  6
 20 21  1  0
 20 40  1  0
 20 41  1  0
 21 26  1  0
 21 22  1  0
 21 42  1  1
 22 24  1  0
 22 23  1  0
 23 19  1  0
 23 43  1  0
 23 44  1  0
 24 25  3  0
 26 27  1  0
 26 45  1  0
 26 46  1  0
 27 28  1  0
 28 29  2  0
 28 47  1  0
 29 30  1  0
 30 31  1  0
 30 32  1  0
 31 27  1  0
 31 48  1  0
 31 49  1  0
M  END
>  <minimizedAffinity>  (1) 
-6.74343

>  <mol_id>  (1) 
11758

>  <source_index>  (1) 
0

>  <layer>  (1) 
L4

>  <uniprot>  (1) 
Q70CQ3

>  <paff>  (1) 
8.6989999999999998

>  <smiles>  (1) 
N#Cc1cccc(C2=CNC(C(=O)N[C@@H]3C[C@@H](CN4C=NNC4)N(C#N)C3)O2)c1

$$$$
L4:Q70CQ3:50763
     RDKit          3D

 67 69  0  0  0  0  0  0  0  0999 V2000
   -1.0261  -22.0744   10.6203 C   0  0  1  0  0  0  0  0  0  0  0  0
   -2.3536  -22.3413   11.1016 O   0  0  0  0  0  0  0  0  0  0  0  0
   -2.9169  -22.3531   10.3002 H   0  0  0  0  0  0  0  0  0  0  0  0
   -0.5818  -23.2165    9.6797 C   0  0  0  0  0  0  0  0  0  0  0  0
   -1.4725  -23.3255    8.5203 N   0  0  0  0  0  0  0  0  0  0  0  0
   -2.4232  -23.0106    8.7087 H   0  0  0  0  0  0  0  0  0  0  0  0
   -0.4581  -22.4033    4.5372 C   0  0  0  0  0  0  0  0  0  0  0  0
    0.2346  -23.4185    5.1923 C   0  0  0  0  0  0  0  0  0  0  0  0
   -0.0776  -23.7235    6.5227 C   0  0  0  0  0  0  0  0  0  0  0  0
   -1.0622  -23.0158    7.2238 C   0  0  0  0  0  0  0  0  0  0  0  0
   -1.7778  -22.0320    6.5205 C   0  0  0  0  0  0  0  0  0  0  0  0
   -1.4817  -21.7187    5.1900 C   0  0  0  0  0  0  0  0  0  0  0  0
   -0.1005  -22.0248    2.8442 S   0  0  0  0  0  0  0  0  0  0  0  0
    0.7783  -23.0664    2.3551 O   0  0  0  0  0  0  0  0  0  0  0  0
    0.2670  -20.6306    2.7451 O   0  0  0  0  0  0  0  0  0  0  0  0
   -1.5552  -22.2653    2.0610 N   0  0  0  0  0  0  0  0  0  0  0  0
   -2.1243  -21.4211    2.0094 H   0  0  0  0  0  0  0  0  0  0  0  0
   -3.4009  -23.1235    0.7660 C   0  0  0  0  0  0  0  0  0  0  0  0
   -2.0070  -23.4624    1.3285 C   0  0  0  0  0  0  0  0  0  0  0  0
   -1.0577  -23.7286    0.1548 C   0  0  0  0  0  0  0  0  0  0  0  0
   -2.1318  -24.7080    2.2068 C   0  0  0  0  0  0  0  0  0  0  0  0
   -0.9774  -20.6609    9.9718 C   0  0  1  0  0  0  0  0  0  0  0  0
   -1.6749  -19.6975   10.8381 N   0  0  0  0  0  0  0  0  0  0  0  0
   -2.6194  -18.8256   10.3369 C   0  0  0  0  0  0  0  0  0  0  0  0
   -2.9082  -18.7361    9.1488 O   0  0  0  0  0  0  0  0  0  0  0  0
   -1.6758  -19.8840   11.8330 H   0  0  0  0  0  0  0  0  0  0  0  0
   -3.3283  -17.9859   11.3393 C   0  0  0  0  0  0  0  0  0  0  0  0
   -3.0597  -18.0934   12.7123 C   0  0  0  0  0  0  0  0  0  0  0  0
   -3.7467  -17.2836   13.6202 C   0  0  0  0  0  0  0  0  0  0  0  0
   -4.6874  -16.3705   13.1534 C   0  0  0  0  0  0  0  0  0  0  0  0
   -5.3449  -15.5974   14.0272 F   0  0  0  0  0  0  0  0  0  0  0  0
   -4.9502  -16.2424   11.7933 C   0  0  0  0  0  0  0  0  0  0  0  0
   -4.2655  -17.0484   10.8817 C   0  0  0  0  0  0  0  0  0  0  0  0
    0.4796  -20.2105    9.7148 C   0  0  0  0  0  0  0  0  0  0  0  0
    0.8516  -19.9356    8.2744 C   0  0  0  0  0  0  0  0  0  0  0  0
    0.1940  -18.9277    7.5602 C   0  0  0  0  0  0  0  0  0  0  0  0
    0.5627  -18.6871    6.2444 C   0  0  0  0  0  0  0  0  0  0  0  0
    1.5379  -19.3619    5.6026 N   0  0  0  0  0  0  0  0  0  0  0  0
    2.1712  -20.3220    6.3101 C   0  0  0  0  0  0  0  0  0  0  0  0
    1.8744  -20.6342    7.6282 C   0  0  0  0  0  0  0  0  0  0  0  0
   -0.3213  -22.0551   11.4252 H   0  0  0  0  0  0  0  0  0  0  0  0
    0.4131  -23.0203    9.3382 H   0  0  0  0  0  0  0  0  0  0  0  0
   -0.6194  -24.1372   10.2235 H   0  0  0  0  0  0  0  0  0  0  0  0
    0.9742  -23.9433    4.6997 H   0  0  0  0  0  0  0  0  0  0  0  0
    0.4292  -24.4869    6.9974 H   0  0  0  0  0  0  0  0  0  0  0  0
   -2.5413  -21.5278    6.9979 H   0  0  0  0  0  0  0  0  0  0  0  0
   -2.0163  -20.9872    4.6960 H   0  0  0  0  0  0  0  0  0  0  0  0
   -3.7794  -23.9630    0.2211 H   0  0  0  0  0  0  0  0  0  0  0  0
   -3.3264  -22.2789    0.1133 H   0  0  0  0  0  0  0  0  0  0  0  0
   -4.0648  -22.8933    1.5729 H   0  0  0  0  0  0  0  0  0  0  0  0
   -1.3841  -24.5972   -0.3780 H   0  0  0  0  0  0  0  0  0  0  0  0
   -0.0673  -23.8894    0.5265 H   0  0  0  0  0  0  0  0  0  0  0  0
   -1.0590  -22.8850   -0.5034 H   0  0  0  0  0  0  0  0  0  0  0  0
   -2.4623  -25.5329    1.6109 H   0  0  0  0  0  0  0  0  0  0  0  0
   -2.8409  -24.5248    2.9869 H   0  0  0  0  0  0  0  0  0  0  0  0
   -1.1795  -24.9378    2.6372 H   0  0  0  0  0  0  0  0  0  0  0  0
   -1.4709  -20.7033    9.0234 H   0  0  0  0  0  0  0  0  0  0  0  0
   -2.3566  -18.7688   13.0506 H   0  0  0  0  0  0  0  0  0  0  0  0
   -3.5575  -17.3622   14.6317 H   0  0  0  0  0  0  0  0  0  0  0  0
   -5.6461  -15.5567   11.4606 H   0  0  0  0  0  0  0  0  0  0  0  0
   -4.4492  -16.9542    9.8706 H   0  0  0  0  0  0  0  0  0  0  0  0
    1.1278  -20.9806   10.0777 H   0  0  0  0  0  0  0  0  0  0  0  0
    0.5819  -19.2728   10.2200 H   0  0  0  0  0  0  0  0  0  0  0  0
   -0.5533  -18.3722    8.0051 H   0  0  0  0  0  0  0  0  0  0  0  0
    0.0613  -17.9485    5.7266 H   0  0  0  0  0  0  0  0  0  0  0  0
    2.9207  -20.8551    5.8420 H   0  0  0  0  0  0  0  0  0  0  0  0
    2.4006  -21.3707    8.1238 H   0  0  0  0  0  0  0  0  0  0  0  0
  1  2  1  0
  1 22  1  0
  1 41  1  1
  2  3  1  0
  4  1  1  0
  4 42  1  0
  4 43  1  0
  5  4  1  0
  5  6  1  0
  7  8  2  0
  8  9  1  0
  8 44  1  0
  9 10  2  0
  9 45  1  0
 10  5  1  0
 10 11  1  0
 11 12  2  0
 11 46  1  0
 12  7  1  0
 12 47  1  0
 13 14  2  0
 13 15  2  0
 13  7  1  0
 16 13  1  0
 16 17  1  0
 18 19  1  0
 18 48  1  0
 18 49  1  0
 18 50  1  0
 19 20  1  0
 19 21  1  0
 19 16  1  0
 20 51  1  0
 20 52  1  0
 20 53  1  0
 21 54  1  0
 21 55  1  0
 21 56  1  0
 22 34  1  0
 22 23  1  0
 22 57  1  6
 23 24  1  0
 23 26  1  0
 24 25  2  0
 24 27  1  0
 27 28  2  0
 28 29  1  0
 28 58  1  0
 29 30  2  0
 29 59  1  0
 30 31  1  0
 30 32  1  0
 32 33  2  0
 32 60  1  0
 33 27  1  0
 33 61  1  0
 34 35  1  0
 34 62  1  0
 34 63  1  0
 35 36  2  0
 36 37  1  0
 36 64  1  0
 37 38  2  0
 37 65  1  0
 38 39  1  0
 39 40  2  0
 39 66  1  0
 40 35  1  0
 40 67  1  0
M  END
>  <minimizedAffinity>  (2) 
-6.75766

>  <mol_id>  (2) 
50763

>  <source_index>  (2) 
1

>  <layer>  (2) 
L4

>  <uniprot>  (2) 
Q70CQ3

>  <paff>  (2) 
6.2797999999999998

>  <smiles>  (2) 
CC(C)(C)NS(=O)(=O)c1ccc(NC[C@H](O)[C@H](Cc2ccncc2)NC(=O)c2ccc(F)cc2)cc1

$$$$
L4:Q70CQ3:56067
     RDKit          3D

 65 68  0  0  0  0  0  0  0  0999 V2000
   -0.5776  -19.7242    8.1933 C   0  0  1  0  0  0  0  0  0  0  0  0
    1.8449  -19.7947    7.8692 N   0  0  0  0  0  0  0  0  0  0  0  0
    0.8225  -19.9801    8.7838 C   0  0  0  0  0  0  0  0  0  0  0  0
    0.9509  -20.2790    9.9716 O   0  0  0  0  0  0  0  0  0  0  0  0
    1.5720  -19.7078    6.8960 H   0  0  0  0  0  0  0  0  0  0  0  0
    6.0123  -19.9584    8.4368 C   0  0  0  0  0  0  0  0  0  0  0  0
    5.4067  -20.6471    7.3849 C   0  0  0  0  0  0  0  0  0  0  0  0
    4.0197  -20.5767    7.2256 C   0  0  0  0  0  0  0  0  0  0  0  0
    3.2323  -19.8327    8.1164 C   0  0  0  0  0  0  0  0  0  0  0  0
    3.8542  -19.1598    9.1717 C   0  0  0  0  0  0  0  0  0  0  0  0
    5.2426  -19.2194    9.3351 C   0  0  0  0  0  0  0  0  0  0  0  0
    7.7759  -20.0168    8.6161 S   0  0  0  0  0  0  0  0  0  0  0  0
    8.0949  -21.3226    9.1515 O   0  0  0  0  0  0  0  0  0  0  0  0
    8.2291  -18.8028    9.2545 O   0  0  0  0  0  0  0  0  0  0  0  0
    8.3204  -20.0326    7.0302 N   0  0  0  0  0  0  0  0  0  0  0  0
    7.8946  -20.7935    6.5006 H   0  0  0  0  0  0  0  0  0  0  0  0
    9.7582  -18.0385    6.5218 C   0  0  0  0  0  0  0  0  0  0  0  0
    9.6505  -19.5642    6.5827 C   0  0  0  0  0  0  0  0  0  0  0  0
    9.8405  -20.1175    5.1592 C   0  0  0  0  0  0  0  0  0  0  0  0
   10.7344  -20.1518    7.4926 C   0  0  0  0  0  0  0  0  0  0  0  0
   -1.2523  -18.7908    9.0956 N   0  0  0  0  0  0  0  0  0  0  0  0
   -2.5955  -18.9548    9.3653 C   0  0  0  0  0  0  0  0  0  0  0  0
   -3.2959  -19.7650    8.7640 O   0  0  0  0  0  0  0  0  0  0  0  0
   -0.6700  -18.4288    9.8401 H   0  0  0  0  0  0  0  0  0  0  0  0
   -3.1813  -18.1244   10.4619 C   0  0  0  0  0  0  0  0  0  0  0  0
   -4.3348  -17.3419   10.2804 C   0  0  0  0  0  0  0  0  0  0  0  0
   -4.8588  -16.5670   11.3295 C   0  0  0  0  0  0  0  0  0  0  0  0
   -4.2200  -16.6057   12.5765 C   0  0  0  0  0  0  0  0  0  0  0  0
   -4.5077  -15.9739   13.7566 N   0  0  0  0  0  0  0  0  0  0  0  0
   -3.6105  -16.3574   14.6589 N   0  0  0  0  0  0  0  0  0  0  0  0
   -2.7692  -17.2112   14.0535 N   0  0  0  0  0  0  0  0  0  0  0  0
   -3.0968  -17.4033   12.7403 C   0  0  0  0  0  0  0  0  0  0  0  0
   -2.5429  -18.1750   11.7169 C   0  0  0  0  0  0  0  0  0  0  0  0
   -2.0108  -17.6141   14.5905 H   0  0  0  0  0  0  0  0  0  0  0  0
   -0.3950  -19.1480    6.7820 C   0  0  0  0  0  0  0  0  0  0  0  0
   -0.6625  -20.1588    5.6919 C   0  0  0  0  0  0  0  0  0  0  0  0
   -1.8662  -20.8768    5.6659 C   0  0  0  0  0  0  0  0  0  0  0  0
   -2.1177  -21.7970    4.6471 C   0  0  0  0  0  0  0  0  0  0  0  0
   -1.1710  -22.0090    3.6468 C   0  0  0  0  0  0  0  0  0  0  0  0
    0.0287  -21.3003    3.6627 C   0  0  0  0  0  0  0  0  0  0  0  0
    0.2820  -20.3784    4.6798 C   0  0  0  0  0  0  0  0  0  0  0  0
   -1.1704  -20.6109    8.1088 H   0  0  0  0  0  0  0  0  0  0  0  0
    5.9780  -21.2037    6.7301 H   0  0  0  0  0  0  0  0  0  0  0  0
    3.5700  -21.0779    6.4436 H   0  0  0  0  0  0  0  0  0  0  0  0
    3.2842  -18.6139    9.8366 H   0  0  0  0  0  0  0  0  0  0  0  0
    5.6948  -18.7191   10.1163 H   0  0  0  0  0  0  0  0  0  0  0  0
   10.7385  -17.7630    6.1931 H   0  0  0  0  0  0  0  0  0  0  0  0
    9.5799  -17.6293    7.4942 H   0  0  0  0  0  0  0  0  0  0  0  0
    9.0315  -17.6568    5.8355 H   0  0  0  0  0  0  0  0  0  0  0  0
   10.7925  -19.8088    4.7807 H   0  0  0  0  0  0  0  0  0  0  0  0
    9.0654  -19.7421    4.5242 H   0  0  0  0  0  0  0  0  0  0  0  0
    9.7957  -21.1863    5.1830 H   0  0  0  0  0  0  0  0  0  0  0  0
   11.6956  -19.8121    7.1676 H   0  0  0  0  0  0  0  0  0  0  0  0
   10.6990  -21.2202    7.4455 H   0  0  0  0  0  0  0  0  0  0  0  0
   10.5655  -19.8334    8.5001 H   0  0  0  0  0  0  0  0  0  0  0  0
   -4.8048  -17.3362    9.3616 H   0  0  0  0  0  0  0  0  0  0  0  0
   -5.6964  -15.9818   11.1846 H   0  0  0  0  0  0  0  0  0  0  0  0
   -1.7042  -18.7559   11.8726 H   0  0  0  0  0  0  0  0  0  0  0  0
    0.6118  -18.7993    6.6839 H   0  0  0  0  0  0  0  0  0  0  0  0
   -1.1054  -18.3564    6.6654 H   0  0  0  0  0  0  0  0  0  0  0  0
   -2.5706  -20.7241    6.4045 H   0  0  0  0  0  0  0  0  0  0  0  0
   -3.0065  -22.3214    4.6346 H   0  0  0  0  0  0  0  0  0  0  0  0
   -1.3582  -22.6904    2.8947 H   0  0  0  0  0  0  0  0  0  0  0  0
    0.7302  -21.4571    2.9222 H   0  0  0  0  0  0  0  0  0  0  0  0
    1.1712  -19.8547    4.6866 H   0  0  0  0  0  0  0  0  0  0  0  0
  1 35  1  0
  1 21  1  0
  1 42  1  6
  2  3  1  0
  2  5  1  0
  3  4  2  0
  3  1  1  0
  6  7  2  0
  7  8  1  0
  7 43  1  0
  8  9  2  0
  8 44  1  0
  9  2  1  0
  9 10  1  0
 10 11  2  0
 10 45  1  0
 11  6  1  0
 11 46  1  0
 12 13  2  0
 12 14  2  0
 12  6  1  0
 15 12  1  0
 15 16  1  0
 17 18  1  0
 17 47  1  0
 17 48  1  0
 17 49  1  0
 18 19  1  0
 18 20  1  0
 18 15  1  0
 19 50  1  0
 19 51  1  0
 19 52  1  0
 20 53  1  0
 20 54  1  0
 20 55  1  0
 21 22  1  0
 21 24  1  0
 22 23  2  0
 22 25  1  0
 25 26  2  0
 26 27  1  0
 26 56  1  0
 27 28  2  0
 27 57  1  0
 28 29  1  0
 29 30  2  0
 30 31  1  0
 31 32  1  0
 31 34  1  0
 32 33  2  0
 32 28  1  0
 33 25  1  0
 33 58  1  0
 35 36  1  0
 35 59  1  0
 35 60  1  0
 36 37  2  0
 37 38  1  0
 37 61  1  0
 38 39  2  0
 38 62  1  0
 39 40  1  0
 39 63  1  0
 40 41  2  0
 40 64  1  0
 41 36  1  0
 41 65  1  0
M  END
>  <minimizedAffinity>  (3) 
-7.51336

>  <mol_id>  (3) 
56067

>  <source_index>  (3) 
2

>  <layer>  (3) 
L4

>  <uniprot>  (3) 
Q70CQ3

>  <paff>  (3) 
6.2797999999999998

>  <smiles>  (3) 
CC(C)(C)NS(=O)(=O)c1ccc(NC(=O)[C@H](Cc2ccccc2)NC(=O)c2ccc3nn[nH]c3c2)cc1

$$$$
L4:Q70CQ3:83746
     RDKit          3D

 77 80  0  0  0  0  0  0  0  0999 V2000
   -0.1775  -21.2190    9.2448 N   0  0  0  0  0  0  0  0  0  0  0  0
   -0.7667  -22.0534   10.1843 C   0  0  0  0  0  0  0  0  0  0  0  0
   -1.1623  -23.1982    9.9760 O   0  0  0  0  0  0  0  0  0  0  0  0
    0.1266  -20.3078    9.5951 H   0  0  0  0  0  0  0  0  0  0  0  0
   -0.8307  -21.4140   11.5971 C   0  0  2  0  0  0  0  0  0  0  0  0
   -1.1045  -22.4452   12.6988 C   0  0  0  0  0  0  0  0  0  0  0  0
   -2.6374  -22.4651   12.7736 C   0  0  2  0  0  0  0  0  0  0  0  0
   -2.9754  -20.9811   12.6221 C   0  0  0  0  0  0  0  0  0  0  0  0
   -1.9535  -20.4684   11.7166 N   0  0  0  0  0  0  0  0  0  0  0  0
   -1.8258  -19.1611   11.2908 C   0  0  0  0  0  0  0  0  0  0  0  0
   -0.8327  -18.7584   10.6859 O   0  0  0  0  0  0  0  0  0  0  0  0
   -2.9293  -18.2178   11.5531 C   0  0  0  0  0  0  0  0  0  0  0  0
   -3.1131  -17.7412   12.8569 C   0  0  0  0  0  0  0  0  0  0  0  0
   -4.1416  -16.8355   13.1168 C   0  0  0  0  0  0  0  0  0  0  0  0
   -4.9597  -16.4070   12.0756 C   0  0  0  0  0  0  0  0  0  0  0  0
   -5.9486  -15.5408   12.3294 F   0  0  0  0  0  0  0  0  0  0  0  0
   -4.7692  -16.8635   10.7745 C   0  0  0  0  0  0  0  0  0  0  0  0
   -3.7417  -17.7688   10.5061 C   0  0  0  0  0  0  0  0  0  0  0  0
   -3.2705  -23.1419   14.0027 C   0  0  0  0  0  0  0  0  0  0  0  0
   -4.8015  -23.0863   14.0675 C   0  0  0  0  0  0  0  0  0  0  0  0
   -5.3488  -23.9532   15.2101 C   0  0  0  0  0  0  0  0  0  0  0  0
   -4.3839  -24.0923   16.3863 C   0  0  0  0  0  0  0  0  0  0  0  0
   -3.5162  -22.8521   16.5519 C   0  0  0  0  0  0  0  0  0  0  0  0
   -2.6717  -22.5698   15.3072 C   0  0  0  0  0  0  0  0  0  0  0  0
   -0.8653  -21.0722    5.6143 C   0  0  0  0  0  0  0  0  0  0  0  0
   -0.9284  -20.8476    6.9976 C   0  0  0  0  0  0  0  0  0  0  0  0
   -0.0100  -21.4539    7.8669 C   0  0  0  0  0  0  0  0  0  0  0  0
    0.9998  -22.2568    7.3337 C   0  0  0  0  0  0  0  0  0  0  0  0
    1.0910  -22.4560    5.9538 C   0  0  0  0  0  0  0  0  0  0  0  0
    0.1607  -21.8621    5.0951 C   0  0  0  0  0  0  0  0  0  0  0  0
    0.2813  -22.1853    3.3568 S   0  0  0  0  0  0  0  0  0  0  0  0
    0.4973  -20.9170    2.6878 O   0  0  0  0  0  0  0  0  0  0  0  0
    1.1956  -23.2907    3.1749 O   0  0  0  0  0  0  0  0  0  0  0  0
   -1.3021  -22.6181    2.9324 N   0  0  0  0  0  0  0  0  0  0  0  0
   -1.7792  -21.7454    2.6959 H   0  0  0  0  0  0  0  0  0  0  0  0
   -1.5348  -23.6450    1.8684 C   0  0  0  0  0  0  0  0  0  0  0  0
   -1.4988  -25.0553    2.4669 C   0  0  0  0  0  0  0  0  0  0  0  0
   -0.5360  -23.5029    0.7140 C   0  0  0  0  0  0  0  0  0  0  0  0
   -2.9536  -23.3878    1.3254 C   0  0  0  0  0  0  0  0  0  0  0  0
   -2.1907  -19.1950    5.2130 C   0  0  0  0  0  0  0  0  0  0  0  0
   -1.7627  -20.4807    4.7649 O   0  0  0  0  0  0  0  0  0  0  0  0
    0.1237  -20.9448   11.7146 H   0  0  0  0  0  0  0  0  0  0  0  0
   -0.6773  -22.1367   13.6301 H   0  0  0  0  0  0  0  0  0  0  0  0
   -0.6781  -23.4053   12.4955 H   0  0  0  0  0  0  0  0  0  0  0  0
   -3.0619  -23.0948   12.0198 H   0  0  0  0  0  0  0  0  0  0  0  0
   -2.9278  -20.4832   13.5680 H   0  0  0  0  0  0  0  0  0  0  0  0
   -3.9664  -20.8238   12.2506 H   0  0  0  0  0  0  0  0  0  0  0  0
   -2.4930  -18.0573   13.6189 H   0  0  0  0  0  0  0  0  0  0  0  0
   -4.2950  -16.4853   14.0754 H   0  0  0  0  0  0  0  0  0  0  0  0
   -5.3837  -16.5346   10.0134 H   0  0  0  0  0  0  0  0  0  0  0  0
   -3.5823  -18.1044    9.5433 H   0  0  0  0  0  0  0  0  0  0  0  0
   -3.0260  -24.1780   13.8949 H   0  0  0  0  0  0  0  0  0  0  0  0
   -5.2017  -23.4401   13.1404 H   0  0  0  0  0  0  0  0  0  0  0  0
   -5.0931  -22.0725   14.2464 H   0  0  0  0  0  0  0  0  0  0  0  0
   -5.5560  -24.9297   14.8248 H   0  0  0  0  0  0  0  0  0  0  0  0
   -6.2276  -23.4677   15.5800 H   0  0  0  0  0  0  0  0  0  0  0  0
   -3.7510  -24.9384   16.2176 H   0  0  0  0  0  0  0  0  0  0  0  0
   -4.9611  -24.2174   17.2785 H   0  0  0  0  0  0  0  0  0  0  0  0
   -2.8626  -22.9972   17.3866 H   0  0  0  0  0  0  0  0  0  0  0  0
   -4.1643  -22.0149   16.7071 H   0  0  0  0  0  0  0  0  0  0  0  0
   -1.7035  -23.0019   15.4516 H   0  0  0  0  0  0  0  0  0  0  0  0
   -2.6334  -21.5067   15.1918 H   0  0  0  0  0  0  0  0  0  0  0  0
   -1.6599  -20.2284    7.3804 H   0  0  0  0  0  0  0  0  0  0  0  0
    1.6834  -22.7062    7.9628 H   0  0  0  0  0  0  0  0  0  0  0  0
    1.8468  -23.0429    5.5673 H   0  0  0  0  0  0  0  0  0  0  0  0
   -0.5202  -25.2550    2.8507 H   0  0  0  0  0  0  0  0  0  0  0  0
   -1.7372  -25.7710    1.7080 H   0  0  0  0  0  0  0  0  0  0  0  0
   -2.2139  -25.1246    3.2598 H   0  0  0  0  0  0  0  0  0  0  0  0
    0.4553  -23.6790    1.0763 H   0  0  0  0  0  0  0  0  0  0  0  0
   -0.5973  -22.5144    0.3089 H   0  0  0  0  0  0  0  0  0  0  0  0
   -0.7688  -24.2161   -0.0489 H   0  0  0  0  0  0  0  0  0  0  0  0
   -3.6627  -23.4836    2.1209 H   0  0  0  0  0  0  0  0  0  0  0  0
   -3.1774  -24.1014    0.5602 H   0  0  0  0  0  0  0  0  0  0  0  0
   -3.0059  -22.3998    0.9180 H   0  0  0  0  0  0  0  0  0  0  0  0
   -2.8872  -18.7863    4.5110 H   0  0  0  0  0  0  0  0  0  0  0  0
   -1.3441  -18.5458    5.2948 H   0  0  0  0  0  0  0  0  0  0  0  0
   -2.6617  -19.2891    6.1691 H   0  0  0  0  0  0  0  0  0  0  0  0
  1  2  1  0
  1  4  1  0
  2  3  2  0
  2  5  1  0
  5  6  1  0
  5 42  1  1
  6  7  1  0
  6 43  1  0
  6 44  1  0
  7 19  1  0
  7  8  1  0
  7 45  1  6
  8  9  1  0
  8 46  1  0
  8 47  1  0
  9 10  1  0
  9  5  1  0
 10 11  2  0
 10 12  1  0
 12 13  2  0
 13 14  1  0
 13 48  1  0
 14 15  2  0
 14 49  1  0
 15 16  1  0
 15 17  1  0
 17 18  2  0
 17 50  1  0
 18 12  1  0
 18 51  1  0
 19 20  1  0
 19 52  1  0
 20 21  1  0
 20 53  1  0
 20 54  1  0
 21 22  1  0
 21 55  1  0
 21 56  1  0
 22 23  1  0
 22 57  1  0
 22 58  1  0
 23 24  1  0
 23 59  1  0
 23 60  1  0
 24 19  1  0
 24 61  1  0
 24 62  1  0
 25 26  2  0
 26 27  1  0
 26 63  1  0
 27  1  1  0
 27 28  2  0
 28 29  1  0
 28 64  1  0
 29 30  2  0
 29 65  1  0
 30 31  1  0
 30 25  1  0
 31 32  2  0
 31 33  2  0
 31 34  1  0
 34 36  1  0
 34 35  1  0
 36 37  1  0
 36 38  1  0
 36 39  1  0
 37 66  1  0
 37 67  1  0
 37 68  1  0
 38 69  1  0
 38 70  1  0
 38 71  1  0
 39 72  1  0
 39 73  1  0
 39 74  1  0
 40 41  1  0
 40 75  1  0
 40 76  1  0
 40 77  1  0
 41 25  1  0
M  END
>  <minimizedAffinity>  (4) 
-7.22481

>  <mol_id>  (4) 
83746

>  <source_index>  (4) 
3

>  <layer>  (4) 
L4

>  <uniprot>  (4) 
Q70CQ3

>  <paff>  (4) 
6.2797999999999998

>  <smiles>  (4) 
COc1cc(NC(=O)[C@@H]2C[C@@H](C3CCCCC3)CN2C(=O)c2ccc(F)cc2)ccc1S(=O)(=O)NC(C)(C)C

$$$$
L4:Q70CQ3:83823
     RDKit          3D

 50 54  0  0  0  0  0  0  0  0999 V2000
   -0.0762  -20.1320    6.5182 N   0  0  0  0  0  0  0  0  0  0  0  0
   -0.1083  -19.2331    7.5780 C   0  0  0  0  0  0  0  0  0  0  0  0
    0.8590  -18.5102    7.8124 O   0  0  0  0  0  0  0  0  0  0  0  0
   -0.8939  -20.7115    6.3639 H   0  0  0  0  0  0  0  0  0  0  0  0
    1.3819  -22.5755    5.1427 N   0  0  0  0  0  0  0  0  0  0  0  0
    1.9721  -21.4456    5.9387 C   0  0  0  0  0  0  0  0  0  0  0  0
    1.0830  -20.2280    5.6387 C   0  0  1  0  0  0  0  0  0  0  0  0
    0.6705  -20.4831    4.1972 C   0  0  0  0  0  0  0  0  0  0  0  0
    0.3967  -21.9931    4.1600 C   0  0  1  0  0  0  0  0  0  0  0  0
    1.1796  -24.8842    6.0736 N   0  0  0  0  0  0  0  0  0  0  0  0
    1.2870  -23.8239    5.6257 C   0  0  0  0  0  0  0  0  0  0  0  0
    0.5712  -22.6118    2.7696 C   0  0  0  0  0  0  0  0  0  0  0  0
   -0.6930  -22.7890    2.0904 N   0  0  0  0  0  0  0  0  0  0  0  0
   -1.7255  -23.6069    2.4357 C   0  0  0  0  0  0  0  0  0  0  0  0
   -2.6700  -23.3641    1.4680 C   0  0  0  0  0  0  0  0  0  0  0  0
   -2.1967  -22.4265    0.5949 N   0  0  0  0  0  0  0  0  0  0  0  0
   -0.9755  -22.0845    0.9826 N   0  0  0  0  0  0  0  0  0  0  0  0
   -1.3425  -19.2423    8.3396 C   0  0  0  0  0  0  0  0  0  0  0  0
   -2.4303  -19.9370    8.0819 N   0  0  0  0  0  0  0  0  0  0  0  0
   -3.3362  -19.6208    9.0740 N   0  0  0  0  0  0  0  0  0  0  0  0
   -2.7454  -18.7537    9.8716 C   0  0  0  0  0  0  0  0  0  0  0  0
   -1.4626  -18.4663    9.4682 O   0  0  0  0  0  0  0  0  0  0  0  0
   -3.2247  -18.0758   11.0754 C   0  0  0  0  0  0  0  0  0  0  0  0
   -4.0550  -16.9427   10.9407 C   0  0  0  0  0  0  0  0  0  0  0  0
   -4.5062  -16.2388   12.0562 C   0  0  0  0  0  0  0  0  0  0  0  0
   -4.1295  -16.6515   13.3255 C   0  0  0  0  0  0  0  0  0  0  0  0
   -3.3116  -17.7717   13.4756 C   0  0  0  0  0  0  0  0  0  0  0  0
   -2.8532  -18.5208   12.3701 C   0  0  0  0  0  0  0  0  0  0  0  0
   -1.9784  -19.7391   12.6079 C   0  0  0  0  0  0  0  0  0  0  0  0
   -1.2740  -19.9058   13.9369 C   0  0  0  0  0  0  0  0  0  0  0  0
   -0.4734  -19.6140   12.7073 C   0  0  0  0  0  0  0  0  0  0  0  0
    2.9799  -21.2580    5.6322 H   0  0  0  0  0  0  0  0  0  0  0  0
    2.0023  -21.6686    6.9848 H   0  0  0  0  0  0  0  0  0  0  0  0
    1.5901  -19.2987    5.7941 H   0  0  0  0  0  0  0  0  0  0  0  0
    1.4587  -20.2213    3.5226 H   0  0  0  0  0  0  0  0  0  0  0  0
   -0.1756  -19.9003    3.8983 H   0  0  0  0  0  0  0  0  0  0  0  0
   -0.6225  -22.2019    4.4101 H   0  0  0  0  0  0  0  0  0  0  0  0
    1.0438  -23.5662    2.8735 H   0  0  0  0  0  0  0  0  0  0  0  0
    1.1687  -21.9443    2.1846 H   0  0  0  0  0  0  0  0  0  0  0  0
   -1.7846  -24.2561    3.2357 H   0  0  0  0  0  0  0  0  0  0  0  0
   -3.5942  -23.8197    1.4098 H   0  0  0  0  0  0  0  0  0  0  0  0
   -4.3337  -16.6290    9.9979 H   0  0  0  0  0  0  0  0  0  0  0  0
   -5.1170  -15.4154   11.9381 H   0  0  0  0  0  0  0  0  0  0  0  0
   -4.4531  -16.1317   14.1562 H   0  0  0  0  0  0  0  0  0  0  0  0
   -3.0325  -18.0623   14.4257 H   0  0  0  0  0  0  0  0  0  0  0  0
   -2.6469  -20.3251   12.0124 H   0  0  0  0  0  0  0  0  0  0  0  0
   -1.2178  -20.8716   14.3940 H   0  0  0  0  0  0  0  0  0  0  0  0
   -1.3667  -19.4529   14.9019 H   0  0  0  0  0  0  0  0  0  0  0  0
    0.1543  -20.3715   12.2866 H   0  0  0  0  0  0  0  0  0  0  0  0
    0.2414  -18.8668   12.4321 H   0  0  0  0  0  0  0  0  0  0  0  0
  1  2  1  0
  1  4  1  0
  2  3  2  0
  2 18  1  0
  5  6  1  0
  6  7  1  0
  6 32  1  0
  6 33  1  0
  7  1  1  0
  7  8  1  0
  7 34  1  6
  8  9  1  0
  8 35  1  0
  8 36  1  0
  9 12  1  0
  9  5  1  0
  9 37  1  1
 10 11  3  0
 11  5  1  0
 12 13  1  0
 12 38  1  0
 12 39  1  0
 13 14  1  0
 14 15  2  0
 14 40  1  0
 15 16  1  0
 15 41  1  0
 16 17  2  0
 17 13  1  0
 18 19  2  0
 19 20  1  0
 20 21  2  0
 21 23  1  0
 21 22  1  0
 22 18  1  0
 23 24  2  0
 24 25  1  0
 24 42  1  0
 25 26  2  0
 25 43  1  0
 26 27  1  0
 26 44  1  0
 27 28  2  0
 27 45  1  0
 28 29  1  0
 28 23  1  0
 29 30  1  0
 29 46  1  0
 30 31  1  0
 30 47  1  0
 30 48  1  0
 31 29  1  0
 31 49  1  0
 31 50  1  0
M  END
>  <minimizedAffinity>  (5) 
-6.70781

>  <mol_id>  (5) 
83823

>  <source_index>  (5) 
4

>  <layer>  (5) 
L4

>  <uniprot>  (5) 
Q70CQ3

>  <paff>  (5) 
7.4558999999999997

>  <smiles>  (5) 
N#CN1C[C@H](NC(=O)c2nnc(-c3ccccc3C3CC3)o2)C[C@H]1Cn1ccnn1

$$$$
L4:Q70CQ3:84276
     RDKit          3D

 61 63  0  0  0  0  0  0  0  0999 V2000
   -2.6728  -19.2741    8.5183 N   0  0  0  0  0  0  0  0  0  0  0  0
   -1.8721  -19.0914    9.6381 C   0  0  0  0  0  0  0  0  0  0  0  0
   -0.6468  -19.1779    9.6470 O   0  0  0  0  0  0  0  0  0  0  0  0
   -3.6430  -18.9693    8.6185 H   0  0  0  0  0  0  0  0  0  0  0  0
   -1.5380  -20.9006    4.8122 C   0  0  0  0  0  0  0  0  0  0  0  0
   -1.7161  -21.7182    5.9292 C   0  0  0  0  0  0  0  0  0  0  0  0
   -2.0971  -21.1468    7.1454 C   0  0  0  0  0  0  0  0  0  0  0  0
   -2.3020  -19.7641    7.2540 C   0  0  0  0  0  0  0  0  0  0  0  0
   -2.1045  -18.9563    6.1306 C   0  0  0  0  0  0  0  0  0  0  0  0
   -1.7155  -19.5193    4.9101 C   0  0  0  0  0  0  0  0  0  0  0  0
   -1.0325  -21.6222    3.2740 S   0  0  0  0  0  0  0  0  0  0  0  0
    0.0753  -22.5107    3.5403 O   0  0  0  0  0  0  0  0  0  0  0  0
   -0.9617  -20.5882    2.2639 O   0  0  0  0  0  0  0  0  0  0  0  0
   -2.3416  -22.5970    2.8992 N   0  0  0  0  0  0  0  0  0  0  0  0
   -2.9387  -22.8059    3.7005 H   0  0  0  0  0  0  0  0  0  0  0  0
   -3.3825  -23.3948    0.8554 C   0  0  0  0  0  0  0  0  0  0  0  0
   -2.2237  -23.5992    1.8239 C   0  0  2  0  0  0  0  0  0  0  0  0
   -2.2518  -25.0227    2.4129 C   0  0  0  0  0  0  0  0  0  0  0  0
   -1.4318  -25.1762    3.5693 O   0  0  0  0  0  0  0  0  0  0  0  0
   -0.8287  -24.4081    3.6465 H   0  0  0  0  0  0  0  0  0  0  0  0
   -2.6815  -18.6178   10.8780 C   0  0  1  0  0  0  0  0  0  0  0  0
   -2.1280  -19.1573   12.1322 N   0  0  0  0  0  0  0  0  0  0  0  0
   -2.4746  -20.3878   12.6328 C   0  0  0  0  0  0  0  0  0  0  0  0
   -3.2645  -21.1236   12.0485 O   0  0  0  0  0  0  0  0  0  0  0  0
   -1.3903  -18.6192   12.5657 H   0  0  0  0  0  0  0  0  0  0  0  0
   -1.8292  -20.8268   13.9010 C   0  0  0  0  0  0  0  0  0  0  0  0
   -0.6520  -20.1708   14.2953 C   0  0  0  0  0  0  0  0  0  0  0  0
   -0.0078  -20.5312   15.4814 C   0  0  0  0  0  0  0  0  0  0  0  0
   -0.5465  -21.5388   16.2742 C   0  0  0  0  0  0  0  0  0  0  0  0
    0.0664  -21.8817   17.4145 F   0  0  0  0  0  0  0  0  0  0  0  0
   -1.7203  -22.1899   15.9051 C   0  0  0  0  0  0  0  0  0  0  0  0
   -2.3686  -21.8336   14.7175 C   0  0  0  0  0  0  0  0  0  0  0  0
   -2.8638  -17.0847   10.9336 C   0  0  0  0  0  0  0  0  0  0  0  0
   -4.1691  -16.6036   11.5343 C   0  0  0  0  0  0  0  0  0  0  0  0
   -4.3299  -16.5509   12.9294 C   0  0  0  0  0  0  0  0  0  0  0  0
   -5.5190  -16.0798   13.4904 C   0  0  0  0  0  0  0  0  0  0  0  0
   -6.5621  -15.6622   12.6652 C   0  0  0  0  0  0  0  0  0  0  0  0
   -6.4167  -15.7202   11.2803 C   0  0  0  0  0  0  0  0  0  0  0  0
   -5.2286  -16.1905   10.7166 C   0  0  0  0  0  0  0  0  0  0  0  0
   -1.5675  -22.7369    5.8571 H   0  0  0  0  0  0  0  0  0  0  0  0
   -2.2292  -21.7489    7.9731 H   0  0  0  0  0  0  0  0  0  0  0  0
   -2.2467  -17.9366    6.2019 H   0  0  0  0  0  0  0  0  0  0  0  0
   -1.5606  -18.9167    4.0867 H   0  0  0  0  0  0  0  0  0  0  0  0
   -3.3174  -24.1128    0.0647 H   0  0  0  0  0  0  0  0  0  0  0  0
   -3.3348  -22.4076    0.4455 H   0  0  0  0  0  0  0  0  0  0  0  0
   -4.3088  -23.5205    1.3760 H   0  0  0  0  0  0  0  0  0  0  0  0
   -1.2937  -23.4799    1.3083 H   0  0  0  0  0  0  0  0  0  0  0  0
   -1.9115  -25.7062    1.6633 H   0  0  0  0  0  0  0  0  0  0  0  0
   -3.2598  -25.2190    2.7136 H   0  0  0  0  0  0  0  0  0  0  0  0
   -3.6649  -19.0240   10.7646 H   0  0  0  0  0  0  0  0  0  0  0  0
   -0.2609  -19.4191   13.7063 H   0  0  0  0  0  0  0  0  0  0  0  0
    0.8612  -20.0534   15.7671 H   0  0  0  0  0  0  0  0  0  0  0  0
   -2.1110  -22.9329   16.5054 H   0  0  0  0  0  0  0  0  0  0  0  0
   -3.2417  -22.3100   14.4422 H   0  0  0  0  0  0  0  0  0  0  0  0
   -2.8031  -16.7092    9.9335 H   0  0  0  0  0  0  0  0  0  0  0  0
   -2.0919  -16.7206   11.5790 H   0  0  0  0  0  0  0  0  0  0  0  0
   -3.5625  -16.8631   13.5448 H   0  0  0  0  0  0  0  0  0  0  0  0
   -5.6255  -16.0408   14.5162 H   0  0  0  0  0  0  0  0  0  0  0  0
   -7.4399  -15.3109   13.0788 H   0  0  0  0  0  0  0  0  0  0  0  0
   -7.1899  -15.4145   10.6690 H   0  0  0  0  0  0  0  0  0  0  0  0
   -5.1306  -16.2340    9.6902 H   0  0  0  0  0  0  0  0  0  0  0  0
  1  2  1  0
  1  4  1  0
  2  3  2  0
  2 21  1  0
  5  6  2  0
  6  7  1  0
  6 40  1  0
  7  8  2  0
  7 41  1  0
  8  1  1  0
  8  9  1  0
  9 10  2  0
  9 42  1  0
 10  5  1  0
 10 43  1  0
 11 12  2  0
 11 13  2  0
 11  5  1  0
 14 11  1  0
 14 15  1  0
 16 17  1  0
 16 44  1  0
 16 45  1  0
 16 46  1  0
 17 18  1  0
 17 14  1  0
 17 47  1  6
 18 19  1  0
 18 48  1  0
 18 49  1  0
 19 20  1  0
 21 33  1  0
 21 22  1  0
 21 50  1  6
 22 23  1  0
 22 25  1  0
 23 24  2  0
 23 26  1  0
 26 27  2  0
 27 28  1  0
 27 51  1  0
 28 29  2  0
 28 52  1  0
 29 30  1  0
 29 31  1  0
 31 32  2  0
 31 53  1  0
 32 26  1  0
 32 54  1  0
 33 34  1  0
 33 55  1  0
 33 56  1  0
 34 35  2  0
 35 36  1  0
 35 57  1  0
 36 37  2  0
 36 58  1  0
 37 38  1  0
 37 59  1  0
 38 39  2  0
 38 60  1  0
 39 34  1  0
 39 61  1  0
M  END
>  <minimizedAffinity>  (6) 
-7.38430

>  <mol_id>  (6) 
84276

>  <source_index>  (6) 
5

>  <layer>  (6) 
L4

>  <uniprot>  (6) 
Q70CQ3

>  <paff>  (6) 
7.3010000000000002

>  <smiles>  (6) 
C[C@H](CO)NS(=O)(=O)c1ccc(NC(=O)[C@H](Cc2ccccc2)NC(=O)c2ccc(F)cc2)cc1

$$$$
L4:Q70CQ3:88746
     RDKit          3D

 71 74  0  0  0  0  0  0  0  0999 V2000
   -2.8291  -19.4525    8.7181 N   0  0  0  0  0  0  0  0  0  0  0  0
   -2.0463  -18.9791    9.7574 C   0  0  0  0  0  0  0  0  0  0  0  0
   -0.8288  -18.8304    9.7057 O   0  0  0  0  0  0  0  0  0  0  0  0
   -3.8380  -19.3905    8.8674 H   0  0  0  0  0  0  0  0  0  0  0  0
   -0.8972  -20.1653    5.5826 C   0  0  0  0  0  0  0  0  0  0  0  0
   -1.2405  -19.5892    6.8124 C   0  0  0  0  0  0  0  0  0  0  0  0
   -2.4126  -19.9643    7.4735 C   0  0  0  0  0  0  0  0  0  0  0  0
   -3.2253  -20.9142    6.8529 C   0  0  0  0  0  0  0  0  0  0  0  0
   -2.9314  -21.5232    5.6860 N   0  0  0  0  0  0  0  0  0  0  0  0
   -1.7703  -21.1282    5.0814 C   0  0  0  0  0  0  0  0  0  0  0  0
   -1.3606  -22.0546    3.6031 S   0  0  0  0  0  0  0  0  0  0  0  0
    0.0156  -22.4984    3.6941 O   0  0  0  0  0  0  0  0  0  0  0  0
   -2.4446  -22.9749    3.3140 O   0  0  0  0  0  0  0  0  0  0  0  0
   -1.4563  -20.9333    2.3503 N   0  0  0  0  0  0  0  0  0  0  0  0
   -2.2630  -20.3156    2.3978 H   0  0  0  0  0  0  0  0  0  0  0  0
   -0.7290  -21.1487    1.1009 C   0  0  0  0  0  0  0  0  0  0  0  0
   -1.2127  -22.4269    0.4256 C   0  0  0  0  0  0  0  0  0  0  0  0
   -2.4723  -22.0339   -0.3481 C   0  0  0  0  0  0  0  0  0  0  0  0
   -2.4520  -20.5107   -0.4653 C   0  0  0  0  0  0  0  0  0  0  0  0
   -1.1040  -20.0666    0.0934 C   0  0  0  0  0  0  0  0  0  0  0  0
    1.4491  -19.7401    5.5013 C   0  0  0  0  0  0  0  0  0  0  0  0
    0.1912  -19.8199    4.8388 O   0  0  0  0  0  0  0  0  0  0  0  0
   -2.8822  -18.5169   10.9893 C   0  0  1  0  0  0  0  0  0  0  0  0
   -2.5717  -19.2490   12.2275 N   0  0  0  0  0  0  0  0  0  0  0  0
   -2.8703  -20.5810   12.4015 C   0  0  0  0  0  0  0  0  0  0  0  0
   -3.2826  -21.2739   11.4747 O   0  0  0  0  0  0  0  0  0  0  0  0
   -2.2405  -18.7155   13.0174 H   0  0  0  0  0  0  0  0  0  0  0  0
   -2.6487  -21.1744   13.7494 C   0  0  0  0  0  0  0  0  0  0  0  0
   -3.5676  -22.1384   14.1970 C   0  0  0  0  0  0  0  0  0  0  0  0
   -3.4059  -22.7400   15.4468 C   0  0  0  0  0  0  0  0  0  0  0  0
   -2.3287  -22.3774   16.2455 C   0  0  0  0  0  0  0  0  0  0  0  0
   -2.1711  -22.9534   17.4438 F   0  0  0  0  0  0  0  0  0  0  0  0
   -1.4060  -21.4299   15.8147 C   0  0  0  0  0  0  0  0  0  0  0  0
   -1.5584  -20.8293   14.5615 C   0  0  0  0  0  0  0  0  0  0  0  0
   -2.8577  -16.9857   11.1961 C   0  0  0  0  0  0  0  0  0  0  0  0
   -4.1867  -16.2831   11.5480 C   0  0  0  0  0  0  0  0  0  0  0  0
   -4.6659  -16.6828   12.9495 C   0  0  0  0  0  0  0  0  0  0  0  0
   -5.9069  -15.8834   13.3508 C   0  0  0  0  0  0  0  0  0  0  0  0
   -6.5578  -15.2794   12.2308 O   0  0  0  0  0  0  0  0  0  0  0  0
   -6.6978  -16.1874   11.1440 C   0  0  0  0  0  0  0  0  0  0  0  0
   -5.3288  -16.5351   10.5549 C   0  0  0  0  0  0  0  0  0  0  0  0
   -0.6209  -18.8801    7.2346 H   0  0  0  0  0  0  0  0  0  0  0  0
   -4.1108  -21.1677    7.3183 H   0  0  0  0  0  0  0  0  0  0  0  0
    0.3126  -21.1667    1.3451 H   0  0  0  0  0  0  0  0  0  0  0  0
   -1.4420  -23.1723    1.1582 H   0  0  0  0  0  0  0  0  0  0  0  0
   -0.4656  -22.8404   -0.2192 H   0  0  0  0  0  0  0  0  0  0  0  0
   -3.3458  -22.3523    0.1815 H   0  0  0  0  0  0  0  0  0  0  0  0
   -2.4936  -22.4959   -1.3130 H   0  0  0  0  0  0  0  0  0  0  0  0
   -3.2503  -20.0829    0.1045 H   0  0  0  0  0  0  0  0  0  0  0  0
   -2.5813  -20.1928   -1.4788 H   0  0  0  0  0  0  0  0  0  0  0  0
   -1.1899  -19.1152    0.5755 H   0  0  0  0  0  0  0  0  0  0  0  0
   -0.3655  -19.9520   -0.6724 H   0  0  0  0  0  0  0  0  0  0  0  0
    2.2056  -19.4609    4.7979 H   0  0  0  0  0  0  0  0  0  0  0  0
    1.6901  -20.6926    5.9250 H   0  0  0  0  0  0  0  0  0  0  0  0
    1.3969  -19.0068    6.2788 H   0  0  0  0  0  0  0  0  0  0  0  0
   -3.8909  -18.7771   10.7448 H   0  0  0  0  0  0  0  0  0  0  0  0
   -4.3660  -22.4032   13.5992 H   0  0  0  0  0  0  0  0  0  0  0  0
   -4.0812  -23.4483   15.7744 H   0  0  0  0  0  0  0  0  0  0  0  0
   -0.6105  -21.1708   16.4189 H   0  0  0  0  0  0  0  0  0  0  0  0
   -0.8700  -20.1334   14.2346 H   0  0  0  0  0  0  0  0  0  0  0  0
   -2.4958  -16.5474   10.2895 H   0  0  0  0  0  0  0  0  0  0  0  0
   -2.2411  -16.8412   12.0586 H   0  0  0  0  0  0  0  0  0  0  0  0
   -3.9543  -15.2396   11.5025 H   0  0  0  0  0  0  0  0  0  0  0  0
   -3.8838  -16.4929   13.6545 H   0  0  0  0  0  0  0  0  0  0  0  0
   -4.9172  -17.7228   12.9411 H   0  0  0  0  0  0  0  0  0  0  0  0
   -5.6126  -15.1130   14.0325 H   0  0  0  0  0  0  0  0  0  0  0  0
   -6.5996  -16.5642   13.7997 H   0  0  0  0  0  0  0  0  0  0  0  0
   -7.3034  -15.7375   10.3853 H   0  0  0  0  0  0  0  0  0  0  0  0
   -7.1586  -17.0848   11.5006 H   0  0  0  0  0  0  0  0  0  0  0  0
   -5.1664  -15.9349    9.6841 H   0  0  0  0  0  0  0  0  0  0  0  0
   -5.3306  -17.5780   10.3158 H   0  0  0  0  0  0  0  0  0  0  0  0
  1  2  1  0
  1  4  1  0
  2  3  2  0
  2 23  1  0
  5  6  2  0
  6  7  1  0
  6 42  1  0
  7  1  1  0
  7  8  2  0
  8  9  1  0
  8 43  1  0
  9 10  2  0
 10 11  1  0
 10  5  1  0
 11 12  2  0
 11 13  2  0
 11 14  1  0
 14 16  1  0
 14 15  1  0
 16 17  1  0
 16 44  1  0
 17 18  1  0
 17 45  1  0
 17 46  1  0
 18 19  1  0
 18 47  1  0
 18 48  1  0
 19 20  1  0
 19 49  1  0
 19 50  1  0
 20 16  1  0
 20 51  1  0
 20 52  1  0
 21 22  1  0
 21 53  1  0
 21 54  1  0
 21 55  1  0
 22  5  1  0
 23 35  1  0
 23 24  1  0
 23 56  1  6
 24 25  1  0
 24 27  1  0
 25 26  2  0
 25 28  1  0
 28 29  2  0
 29 30  1  0
 29 57  1  0
 30 31  2  0
 30 58  1  0
 31 32  1  0
 31 33  1  0
 33 34  2  0
 33 59  1  0
 34 28  1  0
 34 60  1  0
 35 36  1  0
 35 61  1  0
 35 62  1  0
 36 37  1  0
 36 63  1  0
 37 38  1  0
 37 64  1  0
 37 65  1  0
 38 39  1  0
 38 66  1  0
 38 67  1  0
 39 40  1  0
 40 41  1  0
 40 68  1  0
 40 69  1  0
 41 36  1  0
 41 70  1  0
 41 71  1  0
M  END
>  <minimizedAffinity>  (7) 
-7.41406

>  <mol_id>  (7) 
88746

>  <source_index>  (7) 
6

>  <layer>  (7) 
L4

>  <uniprot>  (7) 
Q70CQ3

>  <paff>  (7) 
7.3010000000000002

>  <smiles>  (7) 
COc1cc(NC(=O)[C@H](CC2CCOCC2)NC(=O)c2ccc(F)cc2)cnc1S(=O)(=O)NC1CCCC1

$$$$
L4:Q70CQ3:91823
     RDKit          3D

 61 64  0  0  0  0  0  0  0  0999 V2000
   -1.8454  -19.0119    9.7066 C   0  0  0  0  0  0  0  0  0  0  0  0
   -0.6137  -18.9989    9.7200 O   0  0  0  0  0  0  0  0  0  0  0  0
   -2.6035  -19.5929    8.7007 N   0  0  0  0  0  0  0  0  0  0  0  0
   -3.5793  -19.7657    8.8916 H   0  0  0  0  0  0  0  0  0  0  0  0
   -2.1573  -20.0011    7.4262 C   0  0  0  0  0  0  0  0  0  0  0  0
   -1.7011  -21.3216    7.3009 C   0  0  0  0  0  0  0  0  0  0  0  0
   -1.2702  -21.8158    6.0665 C   0  0  0  0  0  0  0  0  0  0  0  0
   -1.2957  -20.9828    4.9486 C   0  0  0  0  0  0  0  0  0  0  0  0
   -1.7626  -19.6720    5.0537 C   0  0  0  0  0  0  0  0  0  0  0  0
   -2.1894  -19.1850    6.2929 C   0  0  0  0  0  0  0  0  0  0  0  0
   -0.7741  -21.5971    3.3688 S   0  0  0  0  0  0  0  0  0  0  0  0
    0.6625  -21.4713    3.2693 O   0  0  0  0  0  0  0  0  0  0  0  0
   -1.4533  -22.8514    3.1367 O   0  0  0  0  0  0  0  0  0  0  0  0
   -1.4724  -20.4785    2.3271 N   0  0  0  0  0  0  0  0  0  0  0  0
   -2.4792  -20.4065    2.4768 H   0  0  0  0  0  0  0  0  0  0  0  0
   -1.0201  -20.5013    0.9421 C   0  0  0  0  0  0  0  0  0  0  0  0
   -2.1453  -21.0024    0.1260 C   0  0  0  0  0  0  0  0  0  0  0  0
   -2.7438  -20.5172   -1.0151 C   0  0  0  0  0  0  0  0  0  0  0  0
   -3.7810  -21.3222   -1.4026 N   0  0  0  0  0  0  0  0  0  0  0  0
   -3.8219  -22.2903   -0.5164 C   0  0  0  0  0  0  0  0  0  0  0  0
   -2.8538  -22.1399    0.4317 N   0  0  0  0  0  0  0  0  0  0  0  0
   -2.6754  -22.7622    1.2069 H   0  0  0  0  0  0  0  0  0  0  0  0
   -2.6630  -18.5424   10.9457 C   0  0  1  0  0  0  0  0  0  0  0  0
   -3.3165  -21.2456   11.6018 O   0  0  0  0  0  0  0  0  0  0  0  0
   -2.6648  -20.5728   12.3888 C   0  0  0  0  0  0  0  0  0  0  0  0
   -2.2821  -19.2637   12.1670 N   0  0  0  0  0  0  0  0  0  0  0  0
   -2.2030  -18.6995   13.0017 H   0  0  0  0  0  0  0  0  0  0  0  0
   -2.2860  -21.1435   13.7124 C   0  0  0  0  0  0  0  0  0  0  0  0
   -3.1232  -22.0399   14.3951 C   0  0  0  0  0  0  0  0  0  0  0  0
   -2.7371  -22.5400   15.6413 C   0  0  0  0  0  0  0  0  0  0  0  0
   -1.5264  -22.1386   16.2001 C   0  0  0  0  0  0  0  0  0  0  0  0
   -1.1637  -22.6200   17.3949 F   0  0  0  0  0  0  0  0  0  0  0  0
   -0.6930  -21.2415   15.5408 C   0  0  0  0  0  0  0  0  0  0  0  0
   -1.0745  -20.7392   14.2950 C   0  0  0  0  0  0  0  0  0  0  0  0
   -2.9142  -17.0297   11.1476 C   0  0  0  0  0  0  0  0  0  0  0  0
   -4.2569  -16.5417   11.6308 C   0  0  0  0  0  0  0  0  0  0  0  0
   -5.2215  -16.1144   10.7052 C   0  0  0  0  0  0  0  0  0  0  0  0
   -6.4624  -15.6381   11.1335 C   0  0  0  0  0  0  0  0  0  0  0  0
   -6.7545  -15.5772   12.4931 C   0  0  0  0  0  0  0  0  0  0  0  0
   -5.8056  -15.9923   13.4232 C   0  0  0  0  0  0  0  0  0  0  0  0
   -4.5638  -16.4696   12.9958 C   0  0  0  0  0  0  0  0  0  0  0  0
   -1.6834  -21.9357    8.1301 H   0  0  0  0  0  0  0  0  0  0  0  0
   -0.9361  -22.7887    5.9832 H   0  0  0  0  0  0  0  0  0  0  0  0
   -1.7928  -19.0644    4.2201 H   0  0  0  0  0  0  0  0  0  0  0  0
   -2.5311  -18.2143    6.3710 H   0  0  0  0  0  0  0  0  0  0  0  0
   -0.1761  -21.1514    0.8422 H   0  0  0  0  0  0  0  0  0  0  0  0
   -0.7230  -19.5244    0.6223 H   0  0  0  0  0  0  0  0  0  0  0  0
   -2.4499  -19.6615   -1.5116 H   0  0  0  0  0  0  0  0  0  0  0  0
   -4.5012  -23.0670   -0.5352 H   0  0  0  0  0  0  0  0  0  0  0  0
   -3.6563  -18.8384   10.6801 H   0  0  0  0  0  0  0  0  0  0  0  0
   -4.0217  -22.3288   13.9776 H   0  0  0  0  0  0  0  0  0  0  0  0
   -3.3461  -23.2035   16.1451 H   0  0  0  0  0  0  0  0  0  0  0  0
    0.1996  -20.9495   15.9686 H   0  0  0  0  0  0  0  0  0  0  0  0
   -0.4643  -20.0691   13.8014 H   0  0  0  0  0  0  0  0  0  0  0  0
   -2.7373  -16.5593   10.2030 H   0  0  0  0  0  0  0  0  0  0  0  0
   -2.2586  -16.7793   11.9553 H   0  0  0  0  0  0  0  0  0  0  0  0
   -5.0111  -16.1527    9.6956 H   0  0  0  0  0  0  0  0  0  0  0  0
   -7.1635  -15.3310   10.4413 H   0  0  0  0  0  0  0  0  0  0  0  0
   -7.6714  -15.2255   12.8105 H   0  0  0  0  0  0  0  0  0  0  0  0
   -6.0200  -15.9474   14.4317 H   0  0  0  0  0  0  0  0  0  0  0  0
   -3.8655  -16.7721   13.6929 H   0  0  0  0  0  0  0  0  0  0  0  0
  1  2  2  0
  1  3  1  0
  3  5  1  0
  3  4  1  0
  5  6  2  0
  6  7  1  0
  6 42  1  0
  7  8  2  0
  7 43  1  0
  8 11  1  0
  8  9  1  0
  9 10  2  0
  9 44  1  0
 10  5  1  0
 10 45  1  0
 11 12  2  0
 11 13  2  0
 11 14  1  0
 14 16  1  0
 14 15  1  0
 16 17  1  0
 16 46  1  0
 16 47  1  0
 17 18  2  0
 18 19  1  0
 18 48  1  0
 19 20  2  0
 20 21  1  0
 20 49  1  0
 21 17  1  0
 21 22  1  0
 23 35  1  0
 23  1  1  0
 23 50  1  6
 24 25  2  0
 25 26  1  0
 25 28  1  0
 26 23  1  0
 26 27  1  0
 28 29  2  0
 29 30  1  0
 29 51  1  0
 30 31  2  0
 30 52  1  0
 31 32  1  0
 31 33  1  0
 33 34  2  0
 33 53  1  0
 34 28  1  0
 34 54  1  0
 35 36  1  0
 35 55  1  0
 35 56  1  0
 36 37  2  0
 37 38  1  0
 37 57  1  0
 38 39  2  0
 38 58  1  0
 39 40  1  0
 39 59  1  0
 40 41  2  0
 40 60  1  0
 41 36  1  0
 41 61  1  0
M  END
>  <minimizedAffinity>  (8) 
-7.63195

>  <mol_id>  (8) 
91823

>  <source_index>  (8) 
7

>  <layer>  (8) 
L4

>  <uniprot>  (8) 
Q70CQ3

>  <paff>  (8) 
6.2797999999999998

>  <smiles>  (8) 
O=C(N[C@@H](Cc1ccccc1)C(=O)Nc1ccc(S(=O)(=O)NCc2cnc[nH]2)cc1)c1ccc(F)cc1

$$$$
L4:Q70CQ3:98772
     RDKit          3D

 77 80  0  0  0  0  0  0  0  0999 V2000
    1.6813  -19.4877    7.8889 N   0  0  0  0  0  0  0  0  0  0  0  0
    0.6476  -19.9611    8.6748 C   0  0  0  0  0  0  0  0  0  0  0  0
    0.7580  -20.7199    9.6365 O   0  0  0  0  0  0  0  0  0  0  0  0
    1.4148  -18.8013    7.1783 H   0  0  0  0  0  0  0  0  0  0  0  0
    5.2559  -19.5023    9.0527 C   0  0  0  0  0  0  0  0  0  0  0  0
    3.8838  -19.1988    8.9927 C   0  0  0  0  0  0  0  0  0  0  0  0
    3.0595  -19.7493    8.0054 C   0  0  0  0  0  0  0  0  0  0  0  0
    3.6148  -20.6175    7.0633 C   0  0  0  0  0  0  0  0  0  0  0  0
    4.9747  -20.9235    7.1018 C   0  0  0  0  0  0  0  0  0  0  0  0
    5.7980  -20.3604    8.0880 C   0  0  0  0  0  0  0  0  0  0  0  0
    7.5128  -20.8390    8.0926 S   0  0  0  0  0  0  0  0  0  0  0  0
    8.3722  -19.7157    7.8025 O   0  0  0  0  0  0  0  0  0  0  0  0
    7.7322  -21.6373    9.2828 O   0  0  0  0  0  0  0  0  0  0  0  0
    7.5918  -21.9358    6.8261 N   0  0  0  0  0  0  0  0  0  0  0  0
    7.3524  -22.8885    7.0960 H   0  0  0  0  0  0  0  0  0  0  0  0
    8.5157  -21.7179    5.7045 C   0  0  0  0  0  0  0  0  0  0  0  0
    7.7380  -21.0536    4.5639 C   0  0  0  0  0  0  0  0  0  0  0  0
    8.4357  -21.3118    3.2329 C   0  0  0  0  0  0  0  0  0  0  0  0
    8.4483  -22.7397    2.8884 N   0  0  0  0  0  0  0  0  0  0  0  0
    9.5162  -23.0344    1.9355 C   0  0  0  0  0  0  0  0  0  0  0  0
    8.4793  -23.6377    4.0504 C   0  0  0  0  0  0  0  0  0  0  0  0
    9.1673  -23.0383    5.2746 C   0  0  0  0  0  0  0  0  0  0  0  0
    5.9317  -19.3556   11.3414 C   0  0  0  0  0  0  0  0  0  0  0  0
    6.1000  -18.9664    9.9835 O   0  0  0  0  0  0  0  0  0  0  0  0
   -0.7560  -19.4672    8.2337 C   0  0  1  0  0  0  0  0  0  0  0  0
   -1.4350  -18.7575    9.3235 N   0  0  0  0  0  0  0  0  0  0  0  0
   -2.7300  -18.9901    9.7243 C   0  0  0  0  0  0  0  0  0  0  0  0
   -3.4510  -19.8347    9.2043 O   0  0  0  0  0  0  0  0  0  0  0  0
   -0.8955  -18.0399    9.7908 H   0  0  0  0  0  0  0  0  0  0  0  0
   -3.2426  -18.1552   10.8415 C   0  0  0  0  0  0  0  0  0  0  0  0
   -4.1578  -17.1152   10.6267 C   0  0  0  0  0  0  0  0  0  0  0  0
   -4.6210  -16.3641   11.7101 C   0  0  0  0  0  0  0  0  0  0  0  0
   -4.1766  -16.6617   12.9949 C   0  0  0  0  0  0  0  0  0  0  0  0
   -4.6264  -15.9425   14.0302 F   0  0  0  0  0  0  0  0  0  0  0  0
   -3.2803  -17.7005   13.2218 C   0  0  0  0  0  0  0  0  0  0  0  0
   -2.8158  -18.4552   12.1437 C   0  0  0  0  0  0  0  0  0  0  0  0
   -0.6848  -18.7213    6.8850 C   0  0  0  0  0  0  0  0  0  0  0  0
   -1.3981  -19.3578    5.6702 C   0  0  0  0  0  0  0  0  0  0  0  0
   -2.8138  -19.8849    5.9527 C   0  0  0  0  0  0  0  0  0  0  0  0
   -2.8531  -21.4065    5.9885 C   0  0  0  0  0  0  0  0  0  0  0  0
   -2.4014  -22.0112    4.7774 O   0  0  0  0  0  0  0  0  0  0  0  0
   -1.4200  -21.2717    4.0506 C   0  0  0  0  0  0  0  0  0  0  0  0
   -0.5427  -20.4162    4.9548 C   0  0  0  0  0  0  0  0  0  0  0  0
    3.4769  -18.5571    9.6910 H   0  0  0  0  0  0  0  0  0  0  0  0
    3.0154  -21.0351    6.3344 H   0  0  0  0  0  0  0  0  0  0  0  0
    5.3769  -21.5667    6.4021 H   0  0  0  0  0  0  0  0  0  0  0  0
    9.3157  -21.0709    5.9984 H   0  0  0  0  0  0  0  0  0  0  0  0
    7.6869  -19.9991    4.7378 H   0  0  0  0  0  0  0  0  0  0  0  0
    6.7510  -21.4652    4.5272 H   0  0  0  0  0  0  0  0  0  0  0  0
    9.4451  -20.9629    3.2982 H   0  0  0  0  0  0  0  0  0  0  0  0
    7.8960  -20.7915    2.4694 H   0  0  0  0  0  0  0  0  0  0  0  0
    9.4536  -22.3576    1.1091 H   0  0  0  0  0  0  0  0  0  0  0  0
    9.4119  -24.0390    1.5824 H   0  0  0  0  0  0  0  0  0  0  0  0
   10.4650  -22.9224    2.4172 H   0  0  0  0  0  0  0  0  0  0  0  0
    9.0010  -24.5299    3.7734 H   0  0  0  0  0  0  0  0  0  0  0  0
    7.4626  -23.8263    4.3256 H   0  0  0  0  0  0  0  0  0  0  0  0
   10.1954  -22.8570    5.0400 H   0  0  0  0  0  0  0  0  0  0  0  0
    9.0741  -23.7338    6.0824 H   0  0  0  0  0  0  0  0  0  0  0  0
    6.6593  -18.8579   11.9479 H   0  0  0  0  0  0  0  0  0  0  0  0
    6.0598  -20.4144   11.4274 H   0  0  0  0  0  0  0  0  0  0  0  0
    4.9495  -19.0873   11.6702 H   0  0  0  0  0  0  0  0  0  0  0  0
   -1.3877  -20.3078    8.0357 H   0  0  0  0  0  0  0  0  0  0  0  0
   -4.4882  -16.9051    9.6719 H   0  0  0  0  0  0  0  0  0  0  0  0
   -5.2893  -15.5925   11.5583 H   0  0  0  0  0  0  0  0  0  0  0  0
   -2.9611  -17.9117   14.1802 H   0  0  0  0  0  0  0  0  0  0  0  0
   -2.1582  -19.2341   12.3045 H   0  0  0  0  0  0  0  0  0  0  0  0
    0.3496  -18.6201    6.6306 H   0  0  0  0  0  0  0  0  0  0  0  0
   -1.2102  -17.8050    7.0560 H   0  0  0  0  0  0  0  0  0  0  0  0
   -1.5266  -18.5339    4.9996 H   0  0  0  0  0  0  0  0  0  0  0  0
   -3.4721  -19.5393    5.1832 H   0  0  0  0  0  0  0  0  0  0  0  0
   -3.1192  -19.5213    6.9116 H   0  0  0  0  0  0  0  0  0  0  0  0
   -3.8616  -21.7161    6.1672 H   0  0  0  0  0  0  0  0  0  0  0  0
   -2.1905  -21.7225    6.7670 H   0  0  0  0  0  0  0  0  0  0  0  0
   -1.9198  -20.6322    3.3534 H   0  0  0  0  0  0  0  0  0  0  0  0
   -0.7849  -21.9760    3.5552 H   0  0  0  0  0  0  0  0  0  0  0  0
    0.2044  -19.9280    4.3646 H   0  0  0  0  0  0  0  0  0  0  0  0
   -0.0759  -21.0428    5.6858 H   0  0  0  0  0  0  0  0  0  0  0  0
  1  2  1  0
  1  4  1  0
  2  3  2  0
  2 25  1  0
  5  6  2  0
  6  7  1  0
  6 44  1  0
  7  1  1  0
  7  8  2  0
  8  9  1  0
  8 45  1  0
  9 10  2  0
  9 46  1  0
 10 11  1  0
 10  5  1  0
 11 12  2  0
 11 13  2  0
 11 14  1  0
 14 16  1  0
 14 15  1  0
 16 17  1  0
 16 47  1  0
 17 18  1  0
 17 48  1  0
 17 49  1  0
 18 19  1  0
 18 50  1  0
 18 51  1  0
 19 20  1  0
 19 21  1  0
 20 52  1  0
 20 53  1  0
 20 54  1  0
 21 22  1  0
 21 55  1  0
 21 56  1  0
 22 16  1  0
 22 57  1  0
 22 58  1  0
 23 24  1  0
 23 59  1  0
 23 60  1  0
 23 61  1  0
 24  5  1  0
 25 37  1  0
 25 26  1  0
 25 62  1  6
 26 27  1  0
 26 29  1  0
 27 28  2  0
 27 30  1  0
 30 31  2  0
 31 32  1  0
 31 63  1  0
 32 33  2  0
 32 64  1  0
 33 34  1  0
 33 35  1  0
 35 36  2  0
 35 65  1  0
 36 30  1  0
 36 66  1  0
 37 38  1  0
 37 67  1  0
 37 68  1  0
 38 39  1  0
 38 69  1  0
 39 40  1  0
 39 70  1  0
 39 71  1  0
 40 41  1  0
 40 72  1  0
 40 73  1  0
 41 42  1  0
 42 43  1  0
 42 74  1  0
 42 75  1  0
 43 38  1  0
 43 76  1  0
 43 77  1  0
M  END
>  <minimizedAffinity>  (9) 
-7.31158

>  <mol_id>  (9) 
98772

>  <source_index>  (9) 
8

>  <layer>  (9) 
L4

>  <uniprot>  (9) 
Q70CQ3

>  <paff>  (9) 
6.2797999999999998

>  <smiles>  (9) 
COc1cc(NC(=O)[C@H](CC2CCOCC2)NC(=O)c2ccc(F)cc2)ccc1S(=O)(=O)NC1CCN(C)CC1

$$$$
L4:Q70CQ3:122285
     RDKit          3D

 67 69  0  0  0  0  0  0  0  0999 V2000
    1.7060  -19.5554    7.9003 N   0  0  0  0  0  0  0  0  0  0  0  0
    0.6749  -20.1155    8.6366 C   0  0  0  0  0  0  0  0  0  0  0  0
    0.7915  -20.8984    9.5790 O   0  0  0  0  0  0  0  0  0  0  0  0
    1.4406  -18.9539    7.1291 H   0  0  0  0  0  0  0  0  0  0  0  0
    5.8477  -20.2231    8.2662 C   0  0  0  0  0  0  0  0  0  0  0  0
    5.1113  -20.8313    7.2497 C   0  0  0  0  0  0  0  0  0  0  0  0
    3.7379  -20.5879    7.1560 C   0  0  0  0  0  0  0  0  0  0  0  0
    3.0917  -19.7479    8.0753 C   0  0  0  0  0  0  0  0  0  0  0  0
    3.8410  -19.1596    9.0978 C   0  0  0  0  0  0  0  0  0  0  0  0
    5.2158  -19.4002    9.2007 C   0  0  0  0  0  0  0  0  0  0  0  0
    7.5863  -20.5340    8.4196 S   0  0  0  0  0  0  0  0  0  0  0  0
    7.8675  -21.8523    7.8988 O   0  0  0  0  0  0  0  0  0  0  0  0
    7.9612  -20.1677    9.7685 O   0  0  0  0  0  0  0  0  0  0  0  0
    8.2895  -19.3895    7.4309 N   0  0  0  0  0  0  0  0  0  0  0  0
    8.1550  -18.4352    7.7642 H   0  0  0  0  0  0  0  0  0  0  0  0
   10.1218  -20.5330    6.1446 C   0  0  0  0  0  0  0  0  0  0  0  0
    8.9208  -19.5873    6.1136 C   0  0  0  0  0  0  0  0  0  0  0  0
    9.4096  -18.2008    5.6544 C   0  0  0  0  0  0  0  0  0  0  0  0
    7.8692  -20.0895    5.1185 C   0  0  0  0  0  0  0  0  0  0  0  0
   -0.7244  -19.6481    8.1764 C   0  0  1  0  0  0  0  0  0  0  0  0
   -1.3362  -18.8806    9.2536 N   0  0  0  0  0  0  0  0  0  0  0  0
   -2.6632  -19.0252    9.5837 C   0  0  0  0  0  0  0  0  0  0  0  0
   -3.4230  -19.7679    8.9720 O   0  0  0  0  0  0  0  0  0  0  0  0
   -0.6897  -18.4334    9.8973 H   0  0  0  0  0  0  0  0  0  0  0  0
   -3.1488  -18.2500   10.7597 C   0  0  0  0  0  0  0  0  0  0  0  0
   -2.6726  -18.4847   12.0587 C   0  0  0  0  0  0  0  0  0  0  0  0
   -3.1572  -17.7250   13.1271 C   0  0  0  0  0  0  0  0  0  0  0  0
   -4.1051  -16.7338   12.8944 C   0  0  0  0  0  0  0  0  0  0  0  0
   -4.5660  -16.0087   13.9214 F   0  0  0  0  0  0  0  0  0  0  0  0
   -4.5756  -16.4801   11.6113 C   0  0  0  0  0  0  0  0  0  0  0  0
   -4.0940  -17.2359   10.5405 C   0  0  0  0  0  0  0  0  0  0  0  0
   -0.6802  -18.8777    6.8417 C   0  0  0  0  0  0  0  0  0  0  0  0
   -1.1073  -19.6586    5.5758 C   0  0  0  0  0  0  0  0  0  0  0  0
   -2.1882  -20.7160    5.8544 C   0  0  0  0  0  0  0  0  0  0  0  0
   -2.1602  -21.8070    4.7929 C   0  0  0  0  0  0  0  0  0  0  0  0
   -0.9266  -22.5242    4.7670 O   0  0  0  0  0  0  0  0  0  0  0  0
    0.2105  -21.7935    5.2250 C   0  0  0  0  0  0  0  0  0  0  0  0
    0.1185  -20.3091    4.8989 C   0  0  0  0  0  0  0  0  0  0  0  0
    5.5764  -21.4558    6.5724 H   0  0  0  0  0  0  0  0  0  0  0  0
    3.1923  -21.0318    6.4008 H   0  0  0  0  0  0  0  0  0  0  0  0
    3.3767  -18.5427    9.7826 H   0  0  0  0  0  0  0  0  0  0  0  0
    5.7608  -18.9709    9.9647 H   0  0  0  0  0  0  0  0  0  0  0  0
   10.5265  -20.6280    5.1586 H   0  0  0  0  0  0  0  0  0  0  0  0
    9.8099  -21.4942    6.4963 H   0  0  0  0  0  0  0  0  0  0  0  0
   10.8695  -20.1386    6.8005 H   0  0  0  0  0  0  0  0  0  0  0  0
    9.8791  -18.2873    4.6968 H   0  0  0  0  0  0  0  0  0  0  0  0
   10.1135  -17.8179    6.3635 H   0  0  0  0  0  0  0  0  0  0  0  0
    8.5758  -17.5340    5.5839 H   0  0  0  0  0  0  0  0  0  0  0  0
    8.3245  -20.2341    4.1611 H   0  0  0  0  0  0  0  0  0  0  0  0
    7.0840  -19.3675    5.0347 H   0  0  0  0  0  0  0  0  0  0  0  0
    7.4648  -21.0176    5.4650 H   0  0  0  0  0  0  0  0  0  0  0  0
   -1.3329  -20.5046    7.9738 H   0  0  0  0  0  0  0  0  0  0  0  0
   -1.9653  -19.2175   12.2250 H   0  0  0  0  0  0  0  0  0  0  0  0
   -2.8133  -17.8986   14.0845 H   0  0  0  0  0  0  0  0  0  0  0  0
   -5.2755  -15.7388   11.4513 H   0  0  0  0  0  0  0  0  0  0  0  0
   -4.4343  -17.0481    9.5845 H   0  0  0  0  0  0  0  0  0  0  0  0
    0.3254  -18.5436    6.6930 H   0  0  0  0  0  0  0  0  0  0  0  0
   -1.4003  -18.0931    6.9452 H   0  0  0  0  0  0  0  0  0  0  0  0
   -1.5423  -18.9420    4.9109 H   0  0  0  0  0  0  0  0  0  0  0  0
   -3.1493  -20.2456    5.8493 H   0  0  0  0  0  0  0  0  0  0  0  0
   -1.9971  -21.1599    6.8090 H   0  0  0  0  0  0  0  0  0  0  0  0
   -2.3129  -21.3555    3.8349 H   0  0  0  0  0  0  0  0  0  0  0  0
   -2.9339  -22.5068    5.0308 H   0  0  0  0  0  0  0  0  0  0  0  0
    1.0864  -22.1938    4.7587 H   0  0  0  0  0  0  0  0  0  0  0  0
    0.2528  -21.8909    6.2897 H   0  0  0  0  0  0  0  0  0  0  0  0
    0.0348  -20.1901    3.8388 H   0  0  0  0  0  0  0  0  0  0  0  0
    1.0009  -19.8282    5.2665 H   0  0  0  0  0  0  0  0  0  0  0  0
  1  2  1  0
  1  4  1  0
  2  3  2  0
  2 20  1  0
  5  6  2  0
  6  7  1  0
  6 39  1  0
  7  8  2  0
  7 40  1  0
  8  1  1  0
  8  9  1  0
  9 10  2  0
  9 41  1  0
 10  5  1  0
 10 42  1  0
 11 12  2  0
 11 13  2  0
 11  5  1  0
 14 11  1  0
 14 15  1  0
 16 17  1  0
 16 43  1  0
 16 44  1  0
 16 45  1  0
 17 18  1  0
 17 19  1  0
 17 14  1  0
 18 46  1  0
 18 47  1  0
 18 48  1  0
 19 49  1  0
 19 50  1  0
 19 51  1  0
 20 32  1  0
 20 21  1  0
 20 52  1  6
 21 22  1  0
 21 24  1  0
 22 23  2  0
 22 25  1  0
 25 26  2  0
 26 27  1  0
 26 53  1  0
 27 28  2  0
 27 54  1  0
 28 29  1  0
 28 30  1  0
 30 31  2  0
 30 55  1  0
 31 25  1  0
 31 56  1  0
 32 33  1  0
 32 57  1  0
 32 58  1  0
 33 34  1  0
 33 59  1  0
 34 35  1  0
 34 60  1  0
 34 61  1  0
 35 36  1  0
 35 62  1  0
 35 63  1  0
 36 37  1  0
 37 38  1  0
 37 64  1  0
 37 65  1  0
 38 33  1  0
 38 66  1  0
 38 67  1  0
M  END
>  <minimizedAffinity>  (10) 
-7.29530

>  <mol_id>  (10) 
122285

>  <source_index>  (10) 
9

>  <layer>  (10) 
L4

>  <uniprot>  (10) 
Q70CQ3

>  <paff>  (10) 
7.3010000000000002

>  <smiles>  (10) 
CC(C)(C)NS(=O)(=O)c1ccc(NC(=O)[C@H](CC2CCOCC2)NC(=O)c2ccc(F)cc2)cc1

$$$$
