L3:Q00959:2221
     RDKit          3D

 40 41  0  0  0  0  0  0  0  0999 V2000
   19.7147   23.0352   45.1299 C   0  0  0  0  0  0  0  0  0  0  0  0
   18.9561   22.1558   45.8720 C   0  0  0  0  0  0  0  0  0  0  0  0
   19.1797   20.7980   45.4950 C   0  0  0  0  0  0  0  0  0  0  0  0
   20.0949   20.6753   44.4632 C   0  0  0  0  0  0  0  0  0  0  0  0
   20.6785   22.2174   43.9791 S   0  0  0  0  0  0  0  0  0  0  0  0
   20.5458   25.1713   46.1748 C   0  0  0  0  0  0  0  0  0  0  0  0
   20.5219   26.5785   46.2016 C   0  0  0  0  0  0  0  0  0  0  0  0
   19.7502   27.3026   45.2927 C   0  0  0  0  0  0  0  0  0  0  0  0
   18.9860   26.6336   44.3432 C   0  0  0  0  0  0  0  0  0  0  0  0
   18.9928   25.2394   44.3047 C   0  0  0  0  0  0  0  0  0  0  0  0
   19.7667   24.4955   45.2123 C   0  0  0  0  0  0  0  0  0  0  0  0
   20.6911   24.3136   48.5364 C   0  0  0  0  0  0  0  0  0  0  0  0
   21.3987   24.4517   47.1963 C   0  0  0  0  0  0  0  0  0  0  0  0
   20.5998   19.4883   43.7834 C   0  0  0  0  0  0  0  0  0  0  0  0
   21.4298   18.7144   44.2572 O   0  0  0  0  0  0  0  0  0  0  0  0
   20.0900   19.2756   42.5120 N   0  0  0  0  0  0  0  0  0  0  0  0
   19.6126   20.0440   42.0587 H   0  0  0  0  0  0  0  0  0  0  0  0
   20.6182   18.2183   41.6635 C   0  0  0  0  0  0  0  0  0  0  0  0
   19.5455   17.5783   40.7612 C   0  0  1  0  0  0  0  0  0  0  0  0
   18.1826   17.6802   41.3363 N   0  0  0  0  0  0  0  0  0  0  0  0
   18.2028   17.4012   42.3161 H   0  0  0  0  0  0  0  0  0  0  0  0
   17.8830   18.6559   41.2991 H   0  0  0  0  0  0  0  0  0  0  0  0
   19.6126   18.2792   39.4012 C   0  0  0  0  0  0  0  0  0  0  0  0
   18.8519   18.0916   38.4624 O   0  0  0  0  0  0  0  0  0  0  0  0
   20.6816   19.0935   39.2484 O   0  0  0  0  0  0  0  0  0  0  0  0
   20.5606   19.4846   38.3584 H   0  0  0  0  0  0  0  0  0  0  0  0
   18.3015   22.4461   46.6151 H   0  0  0  0  0  0  0  0  0  0  0  0
   18.7106   19.9951   45.9425 H   0  0  0  0  0  0  0  0  0  0  0  0
   21.0843   27.0826   46.9049 H   0  0  0  0  0  0  0  0  0  0  0  0
   19.7465   28.3341   45.3250 H   0  0  0  0  0  0  0  0  0  0  0  0
   18.4154   27.1671   43.6688 H   0  0  0  0  0  0  0  0  0  0  0  0
   18.4217   24.7471   43.6001 H   0  0  0  0  0  0  0  0  0  0  0  0
   21.3291   23.8006   49.2254 H   0  0  0  0  0  0  0  0  0  0  0  0
   19.7862   23.7576   48.4063 H   0  0  0  0  0  0  0  0  0  0  0  0
   20.4605   25.2856   48.9198 H   0  0  0  0  0  0  0  0  0  0  0  0
   21.6303   23.4749   46.8260 H   0  0  0  0  0  0  0  0  0  0  0  0
   22.2865   25.0288   47.3500 H   0  0  0  0  0  0  0  0  0  0  0  0
   21.0369   17.4570   42.2880 H   0  0  0  0  0  0  0  0  0  0  0  0
   21.3537   18.6589   41.0233 H   0  0  0  0  0  0  0  0  0  0  0  0
   19.7447   16.5313   40.6663 H   0  0  0  0  0  0  0  0  0  0  0  0
  1  2  2  0
  2  3  1  0
  2 27  1  0
  3  4  2  0
  3 28  1  0
  4 14  1  0
  4  5  1  0
  5  1  1  0
  6  7  2  0
  7  8  1  0
  7 29  1  0
  8  9  2  0
  8 30  1  0
  9 10  1  0
  9 31  1  0
 10 11  2  0
 10 32  1  0
 11  1  1  0
 11  6  1  0
 12 13  1  0
 12 33  1  0
 12 34  1  0
 12 35  1  0
 13  6  1  0
 13 36  1  0
 13 37  1  0
 14 15  2  0
 14 16  1  0
 16 18  1  0
 16 17  1  0
 18 19  1  0
 18 38  1  0
 18 39  1  0
 19 20  1  0
 19 23  1  0
 19 40  1  6
 20 21  1  0
 20 22  1  0
 23 24  2  0
 23 25  1  0
 25 26  1  0
M  END
>  <minimizedAffinity>  (1) 
-5.12617

>  <mol_id>  (1) 
2221

>  <source_index>  (1) 
0

>  <layer>  (1) 
L3

>  <uniprot>  (1) 
Q00959

>  <paff>  (1) 
7.2441000000000004

>  <smiles>  (1) 
CCc1ccccc1-c1ccc(C(=O)NC[C@@H](N)C(=O)O)s1

$$$$
L3:Q00959:24323
     RDKit          3D

 10  9  0  0  0  0  0  0  0  0999 V2000
   17.4080   24.9294   38.4034 N   0  0  0  0  0  0  0  0  0  0  0  0
   16.2285   24.7646   37.5329 C   0  0  0  0  0  0  0  0  0  0  0  0
   17.1120   24.7762   39.3700 H   0  0  0  0  0  0  0  0  0  0  0  0
   17.6811   25.9145   38.3834 H   0  0  0  0  0  0  0  0  0  0  0  0
   15.1012   25.6955   37.9565 C   0  0  0  0  0  0  0  0  0  0  0  0
   14.8650   26.8073   37.5095 O   0  0  0  0  0  0  0  0  0  0  0  0
   14.3301   25.1674   38.9271 O   0  0  0  0  0  0  0  0  0  0  0  0
   13.6570   25.8586   39.1011 H   0  0  0  0  0  0  0  0  0  0  0  0
   15.8875   23.7522   37.5942 H   0  0  0  0  0  0  0  0  0  0  0  0
   16.5101   25.0062   36.5293 H   0  0  0  0  0  0  0  0  0  0  0  0
  1  2  1  0
  1  3  1  0
  1  4  1  0
  2  5  1  0
  2  9  1  0
  2 10  1  0
  5  6  2  0
  5  7  1  0
  7  8  1  0
M  END
>  <minimizedAffinity>  (2) 
-4.57748

>  <mol_id>  (2) 
24323

>  <source_index>  (2) 
1

>  <layer>  (2) 
L3

>  <uniprot>  (2) 
Q00959

>  <paff>  (2) 
6

>  <smiles>  (2) 
NCC(=O)O

$$$$
L3:Q00959:43699
     RDKit          3D

 34 35  0  0  0  0  0  0  0  0999 V2000
   16.0890   24.2432   35.0621 N   0  0  0  0  0  0  0  0  0  0  0  0
   16.3848   24.3464   33.7153 C   0  0  0  0  0  0  0  0  0  0  0  0
   17.3965   24.9304   33.3335 O   0  0  0  0  0  0  0  0  0  0  0  0
   15.1518   23.9632   35.3293 H   0  0  0  0  0  0  0  0  0  0  0  0
   15.4128   23.7237   32.8215 C   0  0  0  0  0  0  0  0  0  0  0  0
   15.2208   22.3927   32.4888 C   0  0  0  0  0  0  0  0  0  0  0  0
   14.1480   22.2209   31.5746 C   0  0  0  0  0  0  0  0  0  0  0  0
   13.6604   20.4975   30.9669 Br  0  0  0  0  0  0  0  0  0  0  0  0
   13.5442   23.4013   31.2095 C   0  0  0  0  0  0  0  0  0  0  0  0
   14.2865   24.7295   31.9963 S   0  0  0  0  0  0  0  0  0  0  0  0
   12.4251   23.6482   30.2991 C   0  0  0  0  0  0  0  0  0  0  0  0
   11.1206   23.6501   30.8213 C   0  0  0  0  0  0  0  0  0  0  0  0
   10.0189   23.8686   29.9917 C   0  0  0  0  0  0  0  0  0  0  0  0
   10.2057   24.0865   28.6291 C   0  0  0  0  0  0  0  0  0  0  0  0
   11.4939   24.0868   28.0938 C   0  0  0  0  0  0  0  0  0  0  0  0
   12.6006   23.8681   28.9224 C   0  0  0  0  0  0  0  0  0  0  0  0
   14.3189   23.8904   28.1066 Br  0  0  0  0  0  0  0  0  0  0  0  0
   16.8439   24.9592   36.0812 C   0  0  0  0  0  0  0  0  0  0  0  0
   17.3940   24.9192   38.4983 N   0  0  0  0  0  0  0  0  0  0  0  0
   16.3188   24.6976   37.5029 C   0  0  1  0  0  0  0  0  0  0  0  0
   18.0608   24.1499   38.4477 H   0  0  0  0  0  0  0  0  0  0  0  0
   16.9705   24.8778   39.4292 H   0  0  0  0  0  0  0  0  0  0  0  0
   15.1220   25.6073   37.8080 C   0  0  0  0  0  0  0  0  0  0  0  0
   14.3214   25.4765   38.7234 O   0  0  0  0  0  0  0  0  0  0  0  0
   15.0477   26.6828   36.9889 O   0  0  0  0  0  0  0  0  0  0  0  0
   14.2447   27.1596   37.2865 H   0  0  0  0  0  0  0  0  0  0  0  0
   15.7905   21.6172   32.8616 H   0  0  0  0  0  0  0  0  0  0  0  0
   10.9750   23.4881   31.8300 H   0  0  0  0  0  0  0  0  0  0  0  0
    9.0662   23.8686   30.3884 H   0  0  0  0  0  0  0  0  0  0  0  0
    9.3916   24.2477   28.0156 H   0  0  0  0  0  0  0  0  0  0  0  0
   11.6313   24.2487   27.0839 H   0  0  0  0  0  0  0  0  0  0  0  0
   17.8665   24.6481   36.0314 H   0  0  0  0  0  0  0  0  0  0  0  0
   16.7385   26.0059   35.8855 H   0  0  0  0  0  0  0  0  0  0  0  0
   15.9986   23.6784   37.5630 H   0  0  0  0  0  0  0  0  0  0  0  0
  1  2  1  0
  1  4  1  0
  2  3  2  0
  2  5  1  0
  5  6  2  0
  6  7  1  0
  6 27  1  0
  7  8  1  0
  7  9  2  0
  9 11  1  0
  9 10  1  0
 10  5  1  0
 11 12  2  0
 12 13  1  0
 12 28  1  0
 13 14  2  0
 13 29  1  0
 14 15  1  0
 14 30  1  0
 15 16  2  0
 15 31  1  0
 16 17  1  0
 16 11  1  0
 18  1  1  0
 18 32  1  0
 18 33  1  0
 19 20  1  0
 19 21  1  0
 19 22  1  0
 20 18  1  0
 20 23  1  0
 20 34  1  6
 23 24  2  0
 23 25  1  0
 25 26  1  0
M  END
>  <minimizedAffinity>  (3) 
-6.68177

>  <mol_id>  (3) 
43699

>  <source_index>  (3) 
2

>  <layer>  (3) 
L3

>  <uniprot>  (3) 
Q00959

>  <paff>  (3) 
7.7446999999999999

>  <smiles>  (3) 
N[C@H](CNC(=O)c1cc(Br)c(-c2ccccc2Br)s1)C(=O)O

$$$$
L3:Q00959:68311
     RDKit          3D

 40 42  0  0  0  0  0  0  0  0999 V2000
   15.5268   23.5994   32.8969 C   0  0  0  0  0  0  0  0  0  0  0  0
   15.3174   22.2641   32.5962 C   0  0  0  0  0  0  0  0  0  0  0  0
   14.2640   22.0725   31.6534 C   0  0  0  0  0  0  0  0  0  0  0  0
   13.6934   23.2644   31.2597 C   0  0  0  0  0  0  0  0  0  0  0  0
   14.4259   24.5991   32.0367 S   0  0  0  0  0  0  0  0  0  0  0  0
   12.5936   23.4849   30.3148 C   0  0  0  0  0  0  0  0  0  0  0  0
   11.2916   23.5820   30.8339 C   0  0  0  0  0  0  0  0  0  0  0  0
   10.2030   23.7652   29.9883 C   0  0  0  0  0  0  0  0  0  0  0  0
   10.4023   23.8496   28.6129 C   0  0  0  0  0  0  0  0  0  0  0  0
   11.6897   23.7559   28.0619 C   0  0  0  0  0  0  0  0  0  0  0  0
   11.8686   23.8450   26.6712 C   0  0  0  0  0  0  0  0  0  0  0  0
   13.1385   23.7597   26.1025 C   0  0  0  0  0  0  0  0  0  0  0  0
   14.2486   23.5862   26.9177 C   0  0  0  0  0  0  0  0  0  0  0  0
   14.0877   23.4951   28.3020 C   0  0  0  0  0  0  0  0  0  0  0  0
   12.8113   23.5729   28.9106 C   0  0  0  0  0  0  0  0  0  0  0  0
   16.3212   23.9156   35.1353 N   0  0  0  0  0  0  0  0  0  0  0  0
   16.4902   24.2231   33.7964 C   0  0  0  0  0  0  0  0  0  0  0  0
   17.4122   24.9492   33.4314 O   0  0  0  0  0  0  0  0  0  0  0  0
   15.7479   23.1139   35.3684 H   0  0  0  0  0  0  0  0  0  0  0  0
   17.2861   24.3372   36.1397 C   0  0  0  0  0  0  0  0  0  0  0  0
   17.7040   24.9841   38.5086 N   0  0  0  0  0  0  0  0  0  0  0  0
   16.6975   24.4370   37.5598 C   0  0  1  0  0  0  0  0  0  0  0  0
   17.2312   25.1000   39.4099 H   0  0  0  0  0  0  0  0  0  0  0  0
   17.9541   25.9309   38.2240 H   0  0  0  0  0  0  0  0  0  0  0  0
   15.4462   25.3278   37.5507 C   0  0  0  0  0  0  0  0  0  0  0  0
   15.1114   26.1179   36.6810 O   0  0  0  0  0  0  0  0  0  0  0  0
   14.6606   25.1480   38.6388 O   0  0  0  0  0  0  0  0  0  0  0  0
   13.8925   25.7374   38.4841 H   0  0  0  0  0  0  0  0  0  0  0  0
   15.8636   21.4919   33.0090 H   0  0  0  0  0  0  0  0  0  0  0  0
   13.9636   21.1483   31.3061 H   0  0  0  0  0  0  0  0  0  0  0  0
   11.1417   23.5167   31.8529 H   0  0  0  0  0  0  0  0  0  0  0  0
    9.2506   23.8384   30.3789 H   0  0  0  0  0  0  0  0  0  0  0  0
    9.5911   23.9831   27.9891 H   0  0  0  0  0  0  0  0  0  0  0  0
   11.0467   23.9757   26.0609 H   0  0  0  0  0  0  0  0  0  0  0  0
   13.2529   23.8253   25.0790 H   0  0  0  0  0  0  0  0  0  0  0  0
   15.1910   23.5246   26.5016 H   0  0  0  0  0  0  0  0  0  0  0  0
   14.9211   23.3677   28.8972 H   0  0  0  0  0  0  0  0  0  0  0  0
   18.0885   23.6295   36.1555 H   0  0  0  0  0  0  0  0  0  0  0  0
   17.6131   25.3188   35.8668 H   0  0  0  0  0  0  0  0  0  0  0  0
   16.4257   23.4538   37.8826 H   0  0  0  0  0  0  0  0  0  0  0  0
  1  2  2  0
  2  3  1  0
  2 29  1  0
  3  4  2  0
  3 30  1  0
  4  6  1  0
  4  5  1  0
  5  1  1  0
  6  7  2  0
  7  8  1  0
  7 31  1  0
  8  9  2  0
  8 32  1  0
  9 10  1  0
  9 33  1  0
 10 11  2  0
 11 12  1  0
 11 34  1  0
 12 13  2  0
 12 35  1  0
 13 14  1  0
 13 36  1  0
 14 15  2  0
 14 37  1  0
 15  6  1  0
 15 10  1  0
 16 17  1  0
 16 19  1  0
 17 18  2  0
 17  1  1  0
 20 16  1  0
 20 38  1  0
 20 39  1  0
 21 22  1  0
 21 23  1  0
 21 24  1  0
 22 20  1  0
 22 25  1  0
 22 40  1  1
 25 26  2  0
 25 27  1  0
 27 28  1  0
M  END
>  <minimizedAffinity>  (4) 
-6.84333

>  <mol_id>  (4) 
68311

>  <source_index>  (4) 
3

>  <layer>  (4) 
L3

>  <uniprot>  (4) 
Q00959

>  <paff>  (4) 
6.9913999999999996

>  <smiles>  (4) 
N[C@H](CNC(=O)c1ccc(-c2cccc3ccccc23)s1)C(=O)O

$$$$
L3:Q00959:88721
     RDKit          3D

 46 49  0  0  0  0  0  0  0  0999 V2000
   19.1804   23.3379   45.5221 C   0  0  0  0  0  0  0  0  0  0  0  0
   19.9641   23.1891   44.3825 C   0  0  0  0  0  0  0  0  0  0  0  0
   20.3251   21.9782   43.8869 N   0  0  0  0  0  0  0  0  0  0  0  0
   19.8558   20.9125   44.5984 C   0  0  0  0  0  0  0  0  0  0  0  0
   19.0730   21.0595   45.7353 C   0  0  0  0  0  0  0  0  0  0  0  0
   18.7192   22.2781   46.2240 N   0  0  0  0  0  0  0  0  0  0  0  0
   20.2111   19.5546   44.1062 C   0  0  0  0  0  0  0  0  0  0  0  0
   20.5463   18.6657   44.8810 O   0  0  0  0  0  0  0  0  0  0  0  0
   20.1160   19.4062   42.7381 N   0  0  0  0  0  0  0  0  0  0  0  0
   19.7146   20.1837   42.2184 H   0  0  0  0  0  0  0  0  0  0  0  0
   20.2657   18.1427   42.0693 C   0  0  0  0  0  0  0  0  0  0  0  0
   21.1112   18.1251   40.8036 C   0  0  0  0  0  0  0  0  0  0  0  0
   21.6239   17.4649   42.0427 C   0  0  0  0  0  0  0  0  0  0  0  0
   19.0064   17.2798   42.0824 C   0  0  0  0  0  0  0  0  0  0  0  0
   19.0133   15.9859   42.6130 C   0  0  0  0  0  0  0  0  0  0  0  0
   17.9241   15.1756   42.6562 N   0  0  0  0  0  0  0  0  0  0  0  0
   16.7956   15.7112   42.1497 C   0  0  0  0  0  0  0  0  0  0  0  0
   16.7571   16.9910   41.6283 C   0  0  0  0  0  0  0  0  0  0  0  0
   17.8450   17.7950   41.5853 N   0  0  0  0  0  0  0  0  0  0  0  0
   18.8833   24.6187   45.9288 O   0  0  0  0  0  0  0  0  0  0  0  0
   19.7500   25.6090   45.3534 C   0  0  0  0  0  0  0  0  0  0  0  0
   18.9425   26.6471   44.5605 C   0  0  0  0  0  0  0  0  0  0  0  0
   19.5880   26.8806   43.3772 F   0  0  0  0  0  0  0  0  0  0  0  0
   17.7592   26.0594   44.2005 F   0  0  0  0  0  0  0  0  0  0  0  0
   17.5576   29.1298   47.1181 C   0  0  0  0  0  0  0  0  0  0  0  0
   17.7819   27.9524   46.4019 C   0  0  0  0  0  0  0  0  0  0  0  0
   18.7088   27.9218   45.3476 C   0  0  0  0  0  0  0  0  0  0  0  0
   19.4105   29.0954   45.0273 C   0  0  0  0  0  0  0  0  0  0  0  0
   19.1814   30.2682   45.7465 C   0  0  0  0  0  0  0  0  0  0  0  0
   18.2574   30.2902   46.7889 C   0  0  0  0  0  0  0  0  0  0  0  0
   20.0453   31.6997   45.3409 Cl  0  0  0  0  0  0  0  0  0  0  0  0
   20.2856   24.0380   43.8916 H   0  0  0  0  0  0  0  0  0  0  0  0
   18.7476   20.2129   46.2277 H   0  0  0  0  0  0  0  0  0  0  0  0
   21.5657   19.0279   40.4526 H   0  0  0  0  0  0  0  0  0  0  0  0
   20.9502   17.8115   39.7933 H   0  0  0  0  0  0  0  0  0  0  0  0
   22.4455   17.8961   42.5756 H   0  0  0  0  0  0  0  0  0  0  0  0
   21.9806   16.4846   42.2807 H   0  0  0  0  0  0  0  0  0  0  0  0
   19.9010   15.6243   42.9954 H   0  0  0  0  0  0  0  0  0  0  0  0
   15.9315   15.1470   42.1512 H   0  0  0  0  0  0  0  0  0  0  0  0
   15.8628   17.3477   41.2569 H   0  0  0  0  0  0  0  0  0  0  0  0
   20.2849   26.1045   46.1365 H   0  0  0  0  0  0  0  0  0  0  0  0
   20.4310   25.1226   44.6867 H   0  0  0  0  0  0  0  0  0  0  0  0
   16.8739   29.1413   47.8911 H   0  0  0  0  0  0  0  0  0  0  0  0
   17.2614   27.0964   46.6498 H   0  0  0  0  0  0  0  0  0  0  0  0
   20.0977   29.0900   44.2574 H   0  0  0  0  0  0  0  0  0  0  0  0
   18.0914   31.1621   47.3155 H   0  0  0  0  0  0  0  0  0  0  0  0
  1  2  2  0
  2  3  1  0
  2 32  1  0
  3  4  2  0
  4  5  1  0
  4  7  1  0
  5  6  2  0
  5 33  1  0
  6  1  1  0
  7  8  2  0
  7  9  1  0
  9 11  1  0
  9 10  1  0
 11 12  1  0
 11 14  1  0
 12 13  1  0
 12 34  1  0
 12 35  1  0
 13 11  1  0
 13 36  1  0
 13 37  1  0
 14 15  2  0
 15 16  1  0
 15 38  1  0
 16 17  2  0
 17 18  1  0
 17 39  1  0
 18 19  2  0
 18 40  1  0
 19 14  1  0
 20  1  1  0
 21 20  1  0
 21 41  1  0
 21 42  1  0
 22 21  1  0
 22 23  1  0
 22 24  1  0
 25 26  2  0
 25 43  1  0
 26 27  1  0
 26 44  1  0
 27 28  2  0
 27 22  1  0
 28 29  1  0
 28 45  1  0
 29 30  2  0
 29 31  1  0
 30 25  1  0
 30 46  1  0
M  END
>  <minimizedAffinity>  (5) 
-5.63136

>  <mol_id>  (5) 
88721

>  <source_index>  (5) 
4

>  <layer>  (5) 
L3

>  <uniprot>  (5) 
Q00959

>  <paff>  (5) 
6.7374999999999998

>  <smiles>  (5) 
c1cc(cc(c1)Cl)C(COc2cnc(cn2)C(=O)NC3(CC3)c4cnccn4)(F)F

$$$$
L3:Q00959:89763
     RDKit          3D

 45 47  0  0  0  0  0  0  0  0999 V2000
   18.1500   22.1113   47.2647 C   0  0  0  0  0  0  0  0  0  0  0  0
   19.0069   22.0581   46.0370 C   0  0  0  0  0  0  0  0  0  0  0  0
   19.4260   20.8306   45.6229 N   0  0  0  0  0  0  0  0  0  0  0  0
   20.2022   20.8294   44.5012 C   0  0  0  0  0  0  0  0  0  0  0  0
   20.5341   21.9899   43.8214 C   0  0  0  0  0  0  0  0  0  0  0  0
   20.1120   23.2155   44.2260 N   0  0  0  0  0  0  0  0  0  0  0  0
   19.3500   23.2272   45.3457 C   0  0  0  0  0  0  0  0  0  0  0  0
   20.6920   19.5099   44.0157 C   0  0  0  0  0  0  0  0  0  0  0  0
   21.5325   18.8728   44.6389 O   0  0  0  0  0  0  0  0  0  0  0  0
   20.1299   19.0970   42.8282 N   0  0  0  0  0  0  0  0  0  0  0  0
   19.5207   19.7641   42.3623 H   0  0  0  0  0  0  0  0  0  0  0  0
   20.5741   17.9207   42.1249 C   0  0  0  0  0  0  0  0  0  0  0  0
   20.1266   17.9411   40.6937 C   0  0  0  0  0  0  0  0  0  0  0  0
   20.9909   18.3058   39.6575 C   0  0  0  0  0  0  0  0  0  0  0  0
   20.5338   18.2948   38.3426 C   0  0  0  0  0  0  0  0  0  0  0  0
   19.2242   17.9106   38.1054 C   0  0  0  0  0  0  0  0  0  0  0  0
   18.3634   17.5412   39.0764 N   0  0  0  0  0  0  0  0  0  0  0  0
   18.8340   17.5589   40.3453 C   0  0  0  0  0  0  0  0  0  0  0  0
   18.8751   24.4285   45.8284 O   0  0  0  0  0  0  0  0  0  0  0  0
   19.6538   25.5760   45.4452 C   0  0  0  0  0  0  0  0  0  0  0  0
   18.8328   26.6131   44.6600 C   0  0  0  0  0  0  0  0  0  0  0  0
   17.7211   26.0259   44.1215 F   0  0  0  0  0  0  0  0  0  0  0  0
   19.5707   27.0069   43.5731 F   0  0  0  0  0  0  0  0  0  0  0  0
   18.4837   27.8004   45.5510 C   0  0  0  0  0  0  0  0  0  0  0  0
   19.0371   29.0495   45.2871 C   0  0  0  0  0  0  0  0  0  0  0  0
   18.7206   30.1056   46.1326 C   0  0  0  0  0  0  0  0  0  0  0  0
   19.3845   31.6650   45.8334 Cl  0  0  0  0  0  0  0  0  0  0  0  0
   17.8805   29.9130   47.2181 C   0  0  0  0  0  0  0  0  0  0  0  0
   17.3750   28.6445   47.4159 C   0  0  0  0  0  0  0  0  0  0  0  0
   17.6531   27.5947   46.6124 N   0  0  0  0  0  0  0  0  0  0  0  0
   18.0043   21.1204   47.6412 H   0  0  0  0  0  0  0  0  0  0  0  0
   17.2020   22.5426   47.0195 H   0  0  0  0  0  0  0  0  0  0  0  0
   18.6317   22.7089   48.0102 H   0  0  0  0  0  0  0  0  0  0  0  0
   21.1234   21.9205   42.9770 H   0  0  0  0  0  0  0  0  0  0  0  0
   20.1694   17.0540   42.6045 H   0  0  0  0  0  0  0  0  0  0  0  0
   21.6437   17.8989   42.1444 H   0  0  0  0  0  0  0  0  0  0  0  0
   21.9631   18.5819   39.8662 H   0  0  0  0  0  0  0  0  0  0  0  0
   21.1548   18.5660   37.5643 H   0  0  0  0  0  0  0  0  0  0  0  0
   18.8876   17.9067   37.1298 H   0  0  0  0  0  0  0  0  0  0  0  0
   18.1944   17.2709   41.1023 H   0  0  0  0  0  0  0  0  0  0  0  0
   20.4679   25.2486   44.8328 H   0  0  0  0  0  0  0  0  0  0  0  0
   19.9988   26.0474   46.3417 H   0  0  0  0  0  0  0  0  0  0  0  0
   19.6679   29.1882   44.4822 H   0  0  0  0  0  0  0  0  0  0  0  0
   17.6420   30.6895   47.8547 H   0  0  0  0  0  0  0  0  0  0  0  0
   16.7499   28.4891   48.2222 H   0  0  0  0  0  0  0  0  0  0  0  0
  1  2  1  0
  1 31  1  0
  1 32  1  0
  1 33  1  0
  2  3  2  0
  3  4  1  0
  4  8  1  0
  4  5  2  0
  5  6  1  0
  5 34  1  0
  6  7  2  0
  7 19  1  0
  7  2  1  0
  8  9  2  0
  8 10  1  0
 10 12  1  0
 10 11  1  0
 12 13  1  0
 12 35  1  0
 12 36  1  0
 13 14  2  0
 14 15  1  0
 14 37  1  0
 15 16  2  0
 15 38  1  0
 16 17  1  0
 16 39  1  0
 17 18  2  0
 18 13  1  0
 18 40  1  0
 19 20  1  0
 20 21  1  0
 20 41  1  0
 20 42  1  0
 21 22  1  0
 21 23  1  0
 21 24  1  0
 24 25  2  0
 25 26  1  0
 25 43  1  0
 26 27  1  0
 26 28  2  0
 28 29  1  0
 28 44  1  0
 29 30  2  0
 29 45  1  0
 30 24  1  0
M  END
>  <minimizedAffinity>  (6) 
-5.86018

>  <mol_id>  (6) 
89763

>  <source_index>  (6) 
5

>  <layer>  (6) 
L3

>  <uniprot>  (6) 
Q00959

>  <paff>  (6) 
7.3564999999999996

>  <smiles>  (6) 
Cc1nc(C(=O)NCc2cccnc2)cnc1OCC(F)(F)c1cc(Cl)ccn1

$$$$
L3:Q00959:103070
     RDKit          3D

 37 38  0  0  0  0  0  0  0  0999 V2000
   15.5823   23.7629   32.8902 C   0  0  0  0  0  0  0  0  0  0  0  0
   15.4283   22.4226   32.5814 C   0  0  0  0  0  0  0  0  0  0  0  0
   14.2917   22.1770   31.7549 C   0  0  0  0  0  0  0  0  0  0  0  0
   13.6049   23.3341   31.4526 C   0  0  0  0  0  0  0  0  0  0  0  0
   14.3498   24.7048   32.1558 S   0  0  0  0  0  0  0  0  0  0  0  0
   12.3946   23.5024   30.6445 C   0  0  0  0  0  0  0  0  0  0  0  0
   11.1477   23.5031   31.2954 C   0  0  0  0  0  0  0  0  0  0  0  0
    9.9635   23.6745   30.5785 C   0  0  0  0  0  0  0  0  0  0  0  0
   10.0077   23.8514   29.2007 C   0  0  0  0  0  0  0  0  0  0  0  0
   11.2362   23.8553   28.5399 C   0  0  0  0  0  0  0  0  0  0  0  0
   12.4432   23.6791   29.2467 C   0  0  0  0  0  0  0  0  0  0  0  0
   13.7502   23.6911   28.4909 C   0  0  0  0  0  0  0  0  0  0  0  0
   14.6441   24.6002   28.9825 F   0  0  0  0  0  0  0  0  0  0  0  0
   14.3993   22.4931   28.5413 F   0  0  0  0  0  0  0  0  0  0  0  0
   13.6178   24.0001   27.1720 F   0  0  0  0  0  0  0  0  0  0  0  0
   16.3501   24.4299   35.0593 N   0  0  0  0  0  0  0  0  0  0  0  0
   16.5975   24.4302   33.6959 C   0  0  0  0  0  0  0  0  0  0  0  0
   17.5988   24.9780   33.2377 O   0  0  0  0  0  0  0  0  0  0  0  0
   15.3852   24.3159   35.3396 H   0  0  0  0  0  0  0  0  0  0  0  0
   17.1605   25.2482   35.9515 C   0  0  0  0  0  0  0  0  0  0  0  0
   18.0938   25.3018   38.2594 N   0  0  0  0  0  0  0  0  0  0  0  0
   17.7525   24.4180   37.1016 C   0  0  1  0  0  0  0  0  0  0  0  0
   18.4598   24.6861   38.9927 H   0  0  0  0  0  0  0  0  0  0  0  0
   17.2244   25.6646   38.6529 H   0  0  0  0  0  0  0  0  0  0  0  0
   16.7644   23.3275   37.5193 C   0  0  0  0  0  0  0  0  0  0  0  0
   16.5999   22.2401   36.9924 O   0  0  0  0  0  0  0  0  0  0  0  0
   16.0412   23.6638   38.6135 O   0  0  0  0  0  0  0  0  0  0  0  0
   15.4934   22.8687   38.7872 H   0  0  0  0  0  0  0  0  0  0  0  0
   16.0659   21.6819   32.9128 H   0  0  0  0  0  0  0  0  0  0  0  0
   14.0150   21.2404   31.4213 H   0  0  0  0  0  0  0  0  0  0  0  0
   11.1084   23.3749   32.3187 H   0  0  0  0  0  0  0  0  0  0  0  0
    9.0562   23.6700   31.0703 H   0  0  0  0  0  0  0  0  0  0  0  0
    9.1334   23.9796   28.6676 H   0  0  0  0  0  0  0  0  0  0  0  0
   11.2619   23.9894   27.5170 H   0  0  0  0  0  0  0  0  0  0  0  0
   17.9607   25.6846   35.3910 H   0  0  0  0  0  0  0  0  0  0  0  0
   16.5323   26.0042   36.3742 H   0  0  0  0  0  0  0  0  0  0  0  0
   18.6538   23.9488   36.7663 H   0  0  0  0  0  0  0  0  0  0  0  0
  1  2  2  0
  2  3  1  0
  2 29  1  0
  3  4  2  0
  3 30  1  0
  4  6  1  0
  4  5  1  0
  5  1  1  0
  6  7  2  0
  7  8  1  0
  7 31  1  0
  8  9  2  0
  8 32  1  0
  9 10  1  0
  9 33  1  0
 10 11  2  0
 10 34  1  0
 11 12  1  0
 11  6  1  0
 12 13  1  0
 12 14  1  0
 12 15  1  0
 16 17  1  0
 16 19  1  0
 17 18  2  0
 17  1  1  0
 20 16  1  0
 20 35  1  0
 20 36  1  0
 21 22  1  0
 21 23  1  0
 21 24  1  0
 22 20  1  0
 22 25  1  0
 22 37  1  6
 25 26  2  0
 25 27  1  0
 27 28  1  0
M  END
>  <minimizedAffinity>  (7) 
-5.71975

>  <mol_id>  (7) 
103070

>  <source_index>  (7) 
6

>  <layer>  (7) 
L3

>  <uniprot>  (7) 
Q00959

>  <paff>  (7) 
6.8239000000000001

>  <smiles>  (7) 
N[C@H](CNC(=O)c1ccc(-c2ccccc2C(F)(F)F)s1)C(=O)O

$$$$
L3:Q00959:132547
     RDKit          3D

 38 39  0  0  0  0  0  0  0  0999 V2000
   13.7153   23.2713   31.2376 C   0  0  0  0  0  0  0  0  0  0  0  0
   14.3155   22.0825   31.5986 C   0  0  0  0  0  0  0  0  0  0  0  0
   15.3647   22.2694   32.5468 C   0  0  0  0  0  0  0  0  0  0  0  0
   15.5402   23.5985   32.8908 C   0  0  0  0  0  0  0  0  0  0  0  0
   14.4103   24.5963   32.0691 S   0  0  0  0  0  0  0  0  0  0  0  0
   12.8244   23.9377   28.9868 C   0  0  0  0  0  0  0  0  0  0  0  0
   11.7307   24.1463   28.1333 C   0  0  0  0  0  0  0  0  0  0  0  0
   10.4256   23.9161   28.5770 C   0  0  0  0  0  0  0  0  0  0  0  0
   10.2015   23.4823   29.8788 C   0  0  0  0  0  0  0  0  0  0  0  0
   11.2825   23.2784   30.7313 C   0  0  0  0  0  0  0  0  0  0  0  0
   11.0251   22.8832   31.9883 F   0  0  0  0  0  0  0  0  0  0  0  0
   12.6022   23.4940   30.3081 C   0  0  0  0  0  0  0  0  0  0  0  0
   14.5314   23.7253   27.3261 C   0  0  0  0  0  0  0  0  0  0  0  0
   14.1315   24.1493   28.6224 O   0  0  0  0  0  0  0  0  0  0  0  0
   16.4866   24.2156   33.8121 C   0  0  0  0  0  0  0  0  0  0  0  0
   17.3929   24.9773   33.4741 O   0  0  0  0  0  0  0  0  0  0  0  0
   16.3138   23.8736   35.1450 N   0  0  0  0  0  0  0  0  0  0  0  0
   15.7599   23.0545   35.3469 H   0  0  0  0  0  0  0  0  0  0  0  0
   17.2744   24.2978   36.1548 C   0  0  0  0  0  0  0  0  0  0  0  0
   16.6764   24.4180   37.5732 C   0  0  1  0  0  0  0  0  0  0  0  0
   17.6418   24.9463   38.5711 N   0  0  0  0  0  0  0  0  0  0  0  0
   17.1120   25.3793   39.3329 H   0  0  0  0  0  0  0  0  0  0  0  0
   18.1557   25.7237   38.1398 H   0  0  0  0  0  0  0  0  0  0  0  0
   15.4259   25.2990   37.5313 C   0  0  0  0  0  0  0  0  0  0  0  0
   15.1299   26.0944   36.6518 O   0  0  0  0  0  0  0  0  0  0  0  0
   14.6503   25.1864   38.6281 O   0  0  0  0  0  0  0  0  0  0  0  0
   13.9210   25.8232   38.4655 H   0  0  0  0  0  0  0  0  0  0  0  0
   14.0368   21.1619   31.2247 H   0  0  0  0  0  0  0  0  0  0  0  0
   15.9308   21.4982   32.9338 H   0  0  0  0  0  0  0  0  0  0  0  0
   11.8916   24.4731   27.1677 H   0  0  0  0  0  0  0  0  0  0  0  0
    9.6289   24.0680   27.9389 H   0  0  0  0  0  0  0  0  0  0  0  0
    9.2393   23.3125   30.2109 H   0  0  0  0  0  0  0  0  0  0  0  0
   15.5669   23.9519   27.1804 H   0  0  0  0  0  0  0  0  0  0  0  0
   13.9475   24.2348   26.5883 H   0  0  0  0  0  0  0  0  0  0  0  0
   14.3808   22.6700   27.2338 H   0  0  0  0  0  0  0  0  0  0  0  0
   17.6627   25.2534   35.8705 H   0  0  0  0  0  0  0  0  0  0  0  0
   18.0325   23.5441   36.1994 H   0  0  0  0  0  0  0  0  0  0  0  0
   16.4214   23.4287   37.8912 H   0  0  0  0  0  0  0  0  0  0  0  0
  1  2  2  0
  2  3  1  0
  2 28  1  0
  3  4  2  0
  3 29  1  0
  4 15  1  0
  4  5  1  0
  5  1  1  0
  6  7  2  0
  7  8  1  0
  7 30  1  0
  8  9  2  0
  8 31  1  0
  9 10  1  0
  9 32  1  0
 10 11  1  0
 10 12  2  0
 12  1  1  0
 12  6  1  0
 13 14  1  0
 13 33  1  0
 13 34  1  0
 13 35  1  0
 14  6  1  0
 15 16  2  0
 15 17  1  0
 17 19  1  0
 17 18  1  0
 19 20  1  0
 19 36  1  0
 19 37  1  0
 20 21  1  0
 20 24  1  0
 20 38  1  1
 21 22  1  0
 21 23  1  0
 24 25  2  0
 24 26  1  0
 26 27  1  0
M  END
>  <minimizedAffinity>  (8) 
-6.49638

>  <mol_id>  (8) 
132547

>  <source_index>  (8) 
7

>  <layer>  (8) 
L3

>  <uniprot>  (8) 
Q00959

>  <paff>  (8) 
6.5376000000000003

>  <smiles>  (8) 
COc1cccc(F)c1-c1ccc(C(=O)NC[C@@H](N)C(=O)O)s1

$$$$
L3:Q00959:132866
     RDKit          3D

 40 41  0  0  0  0  0  0  0  0999 V2000
   12.6678   24.6512   30.9353 C   0  0  0  0  0  0  0  0  0  0  0  0
   13.5174   24.6280   29.8480 C   0  0  0  0  0  0  0  0  0  0  0  0
   14.7900   24.2447   30.3360 C   0  0  0  0  0  0  0  0  0  0  0  0
   14.6541   24.0605   31.6977 C   0  0  0  0  0  0  0  0  0  0  0  0
   13.3585   24.3142   32.0650 O   0  0  0  0  0  0  0  0  0  0  0  0
   10.2255   23.9983   30.9791 C   0  0  0  0  0  0  0  0  0  0  0  0
    8.8902   24.4182   31.1386 C   0  0  0  0  0  0  0  0  0  0  0  0
    8.5761   25.7380   31.4695 C   0  0  0  0  0  0  0  0  0  0  0  0
    9.5888   26.6708   31.6437 C   0  0  0  0  0  0  0  0  0  0  0  0
   10.9163   26.2844   31.4740 C   0  0  0  0  0  0  0  0  0  0  0  0
   11.2541   24.9611   31.1306 C   0  0  0  0  0  0  0  0  0  0  0  0
   10.5910   22.1761   29.1642 C   0  0  0  0  0  0  0  0  0  0  0  0
   10.5521   22.5540   30.6420 C   0  0  0  0  0  0  0  0  0  0  0  0
   15.6139   23.6672   32.7062 C   0  0  0  0  0  0  0  0  0  0  0  0
   15.8037   22.5033   33.0507 O   0  0  0  0  0  0  0  0  0  0  0  0
   16.2947   24.7200   33.2784 N   0  0  0  0  0  0  0  0  0  0  0  0
   15.9840   25.6585   33.0412 H   0  0  0  0  0  0  0  0  0  0  0  0
   17.2292   24.5414   34.3743 C   0  0  0  0  0  0  0  0  0  0  0  0
   16.5509   24.4849   35.7542 C   0  0  1  0  0  0  0  0  0  0  0  0
   16.4362   23.0787   36.2182 N   0  0  0  0  0  0  0  0  0  0  0  0
   15.7054   22.6194   35.6743 H   0  0  0  0  0  0  0  0  0  0  0  0
   16.0969   23.1050   37.1837 H   0  0  0  0  0  0  0  0  0  0  0  0
   17.3538   25.2984   36.7754 C   0  0  0  0  0  0  0  0  0  0  0  0
   18.2787   26.0992   36.1909 O   0  0  0  0  0  0  0  0  0  0  0  0
   17.2701   25.2547   37.9928 O   0  0  0  0  0  0  0  0  0  0  0  0
   18.7037   26.5528   36.9485 H   0  0  0  0  0  0  0  0  0  0  0  0
   13.2728   24.8473   28.8697 H   0  0  0  0  0  0  0  0  0  0  0  0
   15.6522   24.1260   29.7814 H   0  0  0  0  0  0  0  0  0  0  0  0
    8.1274   23.7354   31.0080 H   0  0  0  0  0  0  0  0  0  0  0  0
    7.5901   26.0200   31.5846 H   0  0  0  0  0  0  0  0  0  0  0  0
    9.3598   27.6446   31.8974 H   0  0  0  0  0  0  0  0  0  0  0  0
   11.6666   26.9812   31.6024 H   0  0  0  0  0  0  0  0  0  0  0  0
   10.8307   21.1378   29.0678 H   0  0  0  0  0  0  0  0  0  0  0  0
   11.3350   22.7617   28.6658 H   0  0  0  0  0  0  0  0  0  0  0  0
    9.6346   22.3639   28.7227 H   0  0  0  0  0  0  0  0  0  0  0  0
   11.5146   22.3363   31.0557 H   0  0  0  0  0  0  0  0  0  0  0  0
    9.7439   21.9849   31.0517 H   0  0  0  0  0  0  0  0  0  0  0  0
   17.9186   25.3597   34.3687 H   0  0  0  0  0  0  0  0  0  0  0  0
   17.7161   23.6006   34.2234 H   0  0  0  0  0  0  0  0  0  0  0  0
   15.5705   24.9039   35.6638 H   0  0  0  0  0  0  0  0  0  0  0  0
  1  2  2  0
  2  3  1  0
  2 27  1  0
  3  4  2  0
  3 28  1  0
  4  5  1  0
  4 14  1  0
  5  1  1  0
  6  7  2  0
  7  8  1  0
  7 29  1  0
  8  9  2  0
  8 30  1  0
  9 10  1  0
  9 31  1  0
 10 11  2  0
 10 32  1  0
 11  1  1  0
 11  6  1  0
 12 13  1  0
 12 33  1  0
 12 34  1  0
 12 35  1  0
 13  6  1  0
 13 36  1  0
 13 37  1  0
 14 15  2  0
 14 16  1  0
 16 18  1  0
 16 17  1  0
 18 19  1  0
 18 38  1  0
 18 39  1  0
 19 20  1  0
 19 23  1  0
 19 40  1  6
 20 21  1  0
 20 22  1  0
 23 24  1  0
 23 25  2  0
 24 26  1  0
M  END
>  <minimizedAffinity>  (9) 
-5.58895

>  <mol_id>  (9) 
132866

>  <source_index>  (9) 
8

>  <layer>  (9) 
L3

>  <uniprot>  (9) 
Q00959

>  <paff>  (9) 
6.2675999999999998

>  <smiles>  (9) 
CCc1ccccc1-c1ccc(o1)C(=O)NC[C@@H](N)C(O)=O |r|

$$$$
L3:Q00959:139001
     RDKit          3D

 46 48  0  0  0  0  0  0  0  0999 V2000
   18.0735   21.8868   47.3383 C   0  0  0  0  0  0  0  0  0  0  0  0
   18.9374   21.9402   46.1155 C   0  0  0  0  0  0  0  0  0  0  0  0
   19.3055   23.1641   45.5433 C   0  0  0  0  0  0  0  0  0  0  0  0
   20.0722   23.2518   44.4304 N   0  0  0  0  0  0  0  0  0  0  0  0
   20.4991   22.0655   43.9254 C   0  0  0  0  0  0  0  0  0  0  0  0
   20.1509   20.8495   44.4917 C   0  0  0  0  0  0  0  0  0  0  0  0
   19.3547   20.7535   45.5954 N   0  0  0  0  0  0  0  0  0  0  0  0
   20.6448   19.5773   43.8955 C   0  0  0  0  0  0  0  0  0  0  0  0
   21.6504   19.0236   44.3237 O   0  0  0  0  0  0  0  0  0  0  0  0
   19.8770   19.1010   42.8558 N   0  0  0  0  0  0  0  0  0  0  0  0
   19.0143   19.6050   42.6667 H   0  0  0  0  0  0  0  0  0  0  0  0
   20.1039   17.8183   42.2371 C   0  0  0  0  0  0  0  0  0  0  0  0
   19.8944   17.8850   40.7533 C   0  0  0  0  0  0  0  0  0  0  0  0
   20.9139   18.3002   39.8914 C   0  0  0  0  0  0  0  0  0  0  0  0
   20.6877   18.3352   38.5189 C   0  0  0  0  0  0  0  0  0  0  0  0
   19.4430   17.9501   38.0502 C   0  0  0  0  0  0  0  0  0  0  0  0
   18.4336   17.5404   38.8483 N   0  0  0  0  0  0  0  0  0  0  0  0
   18.6836   17.5147   40.1773 C   0  0  0  0  0  0  0  0  0  0  0  0
   18.8241   24.3256   46.1057 O   0  0  0  0  0  0  0  0  0  0  0  0
   19.6040   25.4793   45.7499 C   0  0  0  0  0  0  0  0  0  0  0  0
   18.8298   26.6032   44.5690 S   0  0  0  0  0  0  0  0  0  0  0  0
   17.5191   26.1218   44.1751 O   0  0  0  0  0  0  0  0  0  0  0  0
   19.8122   26.9497   43.5562 O   0  0  0  0  0  0  0  0  0  0  0  0
   18.5566   28.0624   45.5514 C   0  0  0  0  0  0  0  0  0  0  0  0
   17.6860   28.0165   46.6443 C   0  0  0  0  0  0  0  0  0  0  0  0
   17.4904   29.1648   47.4119 C   0  0  0  0  0  0  0  0  0  0  0  0
   18.1680   30.3433   47.0907 C   0  0  0  0  0  0  0  0  0  0  0  0
   19.0468   30.3708   46.0065 C   0  0  0  0  0  0  0  0  0  0  0  0
   19.2519   29.2324   45.2320 C   0  0  0  0  0  0  0  0  0  0  0  0
   19.8811   31.8251   45.6224 Cl  0  0  0  0  0  0  0  0  0  0  0  0
   17.8194   22.8817   47.6392 H   0  0  0  0  0  0  0  0  0  0  0  0
   18.6046   21.3997   48.1292 H   0  0  0  0  0  0  0  0  0  0  0  0
   17.1795   21.3409   47.1199 H   0  0  0  0  0  0  0  0  0  0  0  0
   21.1047   22.0698   43.0898 H   0  0  0  0  0  0  0  0  0  0  0  0
   19.4236   17.1051   42.6536 H   0  0  0  0  0  0  0  0  0  0  0  0
   21.1169   17.5279   42.4227 H   0  0  0  0  0  0  0  0  0  0  0  0
   21.8315   18.5799   40.2720 H   0  0  0  0  0  0  0  0  0  0  0  0
   21.4279   18.6401   37.8676 H   0  0  0  0  0  0  0  0  0  0  0  0
   19.2771   17.9778   37.0320 H   0  0  0  0  0  0  0  0  0  0  0  0
   17.9270   17.2000   40.8046 H   0  0  0  0  0  0  0  0  0  0  0  0
   20.5246   25.1372   45.3252 H   0  0  0  0  0  0  0  0  0  0  0  0
   19.7289   26.0404   46.6524 H   0  0  0  0  0  0  0  0  0  0  0  0
   17.1927   27.1415   46.8810 H   0  0  0  0  0  0  0  0  0  0  0  0
   16.8451   29.1436   48.2170 H   0  0  0  0  0  0  0  0  0  0  0  0
   18.0188   31.1942   47.6553 H   0  0  0  0  0  0  0  0  0  0  0  0
   19.9068   29.2519   44.4347 H   0  0  0  0  0  0  0  0  0  0  0  0
  1  2  1  0
  1 31  1  0
  1 32  1  0
  1 33  1  0
  2  3  2  0
  3  4  1  0
  3 19  1  0
  4  5  2  0
  5  6  1  0
  5 34  1  0
  6  7  2  0
  6  8  1  0
  7  2  1  0
  8  9  2  0
  8 10  1  0
 10 12  1  0
 10 11  1  0
 12 13  1  0
 12 35  1  0
 12 36  1  0
 13 14  2  0
 14 15  1  0
 14 37  1  0
 15 16  2  0
 15 38  1  0
 16 17  1  0
 16 39  1  0
 17 18  2  0
 18 13  1  0
 18 40  1  0
 19 20  1  0
 20 21  1  0
 20 41  1  0
 20 42  1  0
 21 22  2  0
 21 23  2  0
 21 24  1  0
 24 25  2  0
 25 26  1  0
 25 43  1  0
 26 27  2  0
 26 44  1  0
 27 28  1  0
 27 45  1  0
 28 29  2  0
 28 30  1  0
 29 24  1  0
 29 46  1  0
M  END
>  <minimizedAffinity>  (10) 
-5.94647

>  <mol_id>  (10) 
139001

>  <source_index>  (10) 
9

>  <layer>  (10) 
L3

>  <uniprot>  (10) 
Q00959

>  <paff>  (10) 
7.6021000000000001

>  <smiles>  (10) 
Cc1c(ncc(n1)C(=O)NCc2cccnc2)OCS(=O)(=O)c3cccc(c3)Cl

$$$$
