L2:Q13822:409
     RDKit          3D

 56 60  0  0  0  0  0  0  0  0999 V2000
   -9.4675    0.8415  -42.8931 N   0  0  0  0  0  0  0  0  0  0  0  0
   -9.4479    2.2210  -42.7954 C   0  0  0  0  0  0  0  0  0  0  0  0
   -8.9219    2.6036  -41.5742 C   0  0  0  0  0  0  0  0  0  0  0  0
   -8.4689    1.4033  -40.9515 C   0  0  0  0  0  0  0  0  0  0  0  0
   -7.7728    1.1053  -39.7022 C   0  0  0  0  0  0  0  0  0  0  0  0
   -7.4667    2.1016  -38.7639 C   0  0  0  0  0  0  0  0  0  0  0  0
   -6.8218    1.7920  -37.5653 C   0  0  0  0  0  0  0  0  0  0  0  0
   -6.4688    0.4801  -37.2879 C   0  0  0  0  0  0  0  0  0  0  0  0
   -6.7525   -0.5235  -38.2140 C   0  0  0  0  0  0  0  0  0  0  0  0
   -7.3984   -0.2315  -39.4302 C   0  0  0  0  0  0  0  0  0  0  0  0
   -7.6467   -1.2644  -40.3959 N   0  0  0  0  0  0  0  0  0  0  0  0
   -7.1987   -2.6242  -40.1319 C   0  0  0  0  0  0  0  0  0  0  0  0
   -8.2221   -0.9938  -41.6460 C   0  0  0  0  0  0  0  0  0  0  0  0
   -8.2574   -1.8489  -42.5273 O   0  0  0  0  0  0  0  0  0  0  0  0
   -8.7159    0.3531  -41.8324 C   0  0  0  0  0  0  0  0  0  0  0  0
  -11.7607   -0.9721  -44.9744 N   0  0  0  0  0  0  0  0  0  0  0  0
  -11.4695   -0.3867  -43.7756 C   0  0  0  0  0  0  0  0  0  0  0  0
  -10.2069    0.1601  -43.9085 C   0  0  0  0  0  0  0  0  0  0  0  0
   -9.8213   -0.1831  -45.2200 C   0  0  0  0  0  0  0  0  0  0  0  0
  -10.7659   -0.8739  -45.8693 N   0  0  0  0  0  0  0  0  0  0  0  0
  -12.9864   -1.6625  -45.3309 C   0  0  0  0  0  0  0  0  0  0  0  0
  -14.5831   -0.2818  -46.6993 C   0  0  0  0  0  0  0  0  0  0  0  0
  -13.4577   -1.3024  -46.7366 C   0  0  0  0  0  0  0  0  0  0  0  0
   -8.9116    3.9913  -41.1135 C   0  0  0  0  0  0  0  0  0  0  0  0
   -9.9308    4.6683  -41.1121 O   0  0  0  0  0  0  0  0  0  0  0  0
   -7.6526    4.3990  -40.7152 N   0  0  0  0  0  0  0  0  0  0  0  0
   -6.9295    3.6912  -40.7384 H   0  0  0  0  0  0  0  0  0  0  0  0
   -7.2627    5.6680  -40.2429 C   0  0  0  0  0  0  0  0  0  0  0  0
   -7.7494    6.2503  -39.0702 C   0  0  0  0  0  0  0  0  0  0  0  0
   -7.3118    7.5193  -38.6727 C   0  0  0  0  0  0  0  0  0  0  0  0
   -6.3852    8.2185  -39.4435 C   0  0  0  0  0  0  0  0  0  0  0  0
   -5.9037    7.6388  -40.6103 C   0  0  0  0  0  0  0  0  0  0  0  0
   -4.9968    8.2815  -41.4010 O   0  0  0  0  0  0  0  0  0  0  0  0
   -6.3331    6.3769  -41.0133 C   0  0  0  0  0  0  0  0  0  0  0  0
   -4.7875    9.1403  -40.9975 H   0  0  0  0  0  0  0  0  0  0  0  0
   -9.7775    2.8703  -43.5267 H   0  0  0  0  0  0  0  0  0  0  0  0
   -7.7228    3.0812  -38.9632 H   0  0  0  0  0  0  0  0  0  0  0  0
   -6.6079    2.5390  -36.8861 H   0  0  0  0  0  0  0  0  0  0  0  0
   -5.9980    0.2472  -36.3996 H   0  0  0  0  0  0  0  0  0  0  0  0
   -6.4841   -1.4976  -38.0039 H   0  0  0  0  0  0  0  0  0  0  0  0
   -6.7850   -2.6785  -39.1466 H   0  0  0  0  0  0  0  0  0  0  0  0
   -6.4524   -2.8992  -40.8477 H   0  0  0  0  0  0  0  0  0  0  0  0
   -8.0294   -3.2944  -40.2074 H   0  0  0  0  0  0  0  0  0  0  0  0
  -12.0716   -0.3582  -42.9379 H   0  0  0  0  0  0  0  0  0  0  0  0
   -8.9107    0.0704  -45.6341 H   0  0  0  0  0  0  0  0  0  0  0  0
  -12.8147   -2.7176  -45.2839 H   0  0  0  0  0  0  0  0  0  0  0  0
  -13.7470   -1.3628  -44.6406 H   0  0  0  0  0  0  0  0  0  0  0  0
  -14.8893   -0.0519  -47.6984 H   0  0  0  0  0  0  0  0  0  0  0  0
  -14.2402    0.6098  -46.2173 H   0  0  0  0  0  0  0  0  0  0  0  0
  -15.4121   -0.6847  -46.1560 H   0  0  0  0  0  0  0  0  0  0  0  0
  -12.6352   -0.8938  -47.2856 H   0  0  0  0  0  0  0  0  0  0  0  0
  -13.8241   -2.1909  -47.2070 H   0  0  0  0  0  0  0  0  0  0  0  0
   -8.4366    5.7413  -38.4926 H   0  0  0  0  0  0  0  0  0  0  0  0
   -7.6776    7.9393  -37.8039 H   0  0  0  0  0  0  0  0  0  0  0  0
   -6.0613    9.1538  -39.1516 H   0  0  0  0  0  0  0  0  0  0  0  0
   -5.9645    5.9625  -41.8836 H   0  0  0  0  0  0  0  0  0  0  0  0
  1  2  1  0
  2  3  2  0
  2 36  1  0
  3 24  1  0
  3  4  1  0
  4  5  1  0
  5  6  2  0
  6  7  1  0
  6 37  1  0
  7  8  2  0
  7 38  1  0
  8  9  1  0
  8 39  1  0
  9 10  2  0
  9 40  1  0
 10 11  1  0
 10  5  1  0
 11 12  1  0
 11 13  1  0
 12 41  1  0
 12 42  1  0
 12 43  1  0
 13 14  2  0
 13 15  1  0
 15  1  1  0
 15  4  2  0
 16 17  1  0
 17 18  2  0
 17 44  1  0
 18  1  1  0
 18 19  1  0
 19 20  2  0
 19 45  1  0
 20 16  1  0
 21 16  1  0
 21 46  1  0
 21 47  1  0
 22 23  1  0
 22 48  1  0
 22 49  1  0
 22 50  1  0
 23 21  1  0
 23 51  1  0
 23 52  1  0
 24 25  2  0
 24 26  1  0
 26 28  1  0
 26 27  1  0
 28 29  2  0
 29 30  1  0
 29 53  1  0
 30 31  2  0
 30 54  1  0
 31 32  1  0
 31 55  1  0
 32 33  1  0
 32 34  2  0
 33 35  1  0
 34 28  1  0
 34 56  1  0
M  END
>  <minimizedAffinity>  (1) 
-9.72813

>  <mol_id>  (1) 
409

>  <source_index>  (1) 
0

>  <layer>  (1) 
L2

>  <uniprot>  (1) 
Q13822

>  <paff>  (1) 
6.6402000000000001

>  <smiles>  (1) 
CCCn1cc(-n2cc(C(=O)Nc3cccc(O)c3)c3c4ccccc4n(C)c(=O)c32)cn1

$$$$
L2:Q13822:31043
     RDKit          3D

 59 63  0  0  0  0  0  0  0  0999 V2000
   -9.4628    1.6043  -42.2797 N   0  0  0  0  0  0  0  0  0  0  0  0
   -9.5246    2.9862  -42.2905 C   0  0  0  0  0  0  0  0  0  0  0  0
   -8.7586    3.5056  -41.2618 C   0  0  0  0  0  0  0  0  0  0  0  0
   -8.3230    2.3834  -40.4966 C   0  0  0  0  0  0  0  0  0  0  0  0
   -7.5504    2.2279  -39.2660 C   0  0  0  0  0  0  0  0  0  0  0  0
   -7.0047    3.3254  -38.5849 C   0  0  0  0  0  0  0  0  0  0  0  0
   -6.2474    3.1532  -37.4248 C   0  0  0  0  0  0  0  0  0  0  0  0
   -6.0286    1.8790  -36.9241 C   0  0  0  0  0  0  0  0  0  0  0  0
   -6.5765    0.7751  -37.5774 C   0  0  0  0  0  0  0  0  0  0  0  0
   -7.3469    0.9282  -38.7455 C   0  0  0  0  0  0  0  0  0  0  0  0
   -7.9477   -0.2095  -39.3824 N   0  0  0  0  0  0  0  0  0  0  0  0
   -7.7827   -1.5349  -38.8026 C   0  0  0  0  0  0  0  0  0  0  0  0
   -8.7886   -0.0811  -40.4974 C   0  0  0  0  0  0  0  0  0  0  0  0
   -9.4477   -1.0328  -40.9080 O   0  0  0  0  0  0  0  0  0  0  0  0
   -8.8555    1.2388  -41.0857 C   0  0  0  0  0  0  0  0  0  0  0  0
  -11.1386   -0.4746  -44.6776 N   0  0  0  0  0  0  0  0  0  0  0  0
  -11.0912    0.0825  -43.4318 C   0  0  0  0  0  0  0  0  0  0  0  0
   -9.9193    0.8137  -43.3792 C   0  0  0  0  0  0  0  0  0  0  0  0
   -9.3559    0.6504  -44.6607 C   0  0  0  0  0  0  0  0  0  0  0  0
  -10.0986   -0.1318  -45.4527 N   0  0  0  0  0  0  0  0  0  0  0  0
  -12.1722   -1.3477  -45.2023 C   0  0  0  0  0  0  0  0  0  0  0  0
  -14.5175   -1.5254  -44.3106 C   0  0  0  0  0  0  0  0  0  0  0  0
  -13.0622   -1.9081  -44.0971 C   0  0  0  0  0  0  0  0  0  0  0  0
   -8.4950    4.9368  -41.1130 C   0  0  0  0  0  0  0  0  0  0  0  0
   -9.4035    5.7371  -40.9358 O   0  0  0  0  0  0  0  0  0  0  0  0
   -7.1461    5.2319  -41.1870 N   0  0  0  0  0  0  0  0  0  0  0  0
   -6.5353    4.4512  -41.3929 H   0  0  0  0  0  0  0  0  0  0  0  0
   -6.5262    6.4889  -41.0405 C   0  0  0  0  0  0  0  0  0  0  0  0
   -5.9021    7.1784  -42.0819 C   0  0  0  0  0  0  0  0  0  0  0  0
   -5.3180    8.4288  -41.8574 C   0  0  0  0  0  0  0  0  0  0  0  0
   -5.3505    9.0019  -40.5878 C   0  0  0  0  0  0  0  0  0  0  0  0
   -5.9704    8.3225  -39.5337 C   0  0  0  0  0  0  0  0  0  0  0  0
   -6.5574    7.0694  -39.7652 C   0  0  0  0  0  0  0  0  0  0  0  0
   -5.9978    8.9358  -38.1817 C   0  0  0  0  0  0  0  0  0  0  0  0
   -5.5629    8.1423  -37.1512 N   0  0  0  0  0  0  0  0  0  0  0  0
   -6.5148   10.4868  -37.8392 S   0  0  0  0  0  0  0  0  0  0  0  0
   -5.6109    8.5048  -36.2054 H   0  0  0  0  0  0  0  0  0  0  0  0
   -5.3397    7.1615  -37.2637 H   0  0  0  0  0  0  0  0  0  0  0  0
  -10.0638    3.5482  -42.9676 H   0  0  0  0  0  0  0  0  0  0  0  0
   -7.1658    4.2779  -38.9479 H   0  0  0  0  0  0  0  0  0  0  0  0
   -5.8508    3.9736  -36.9404 H   0  0  0  0  0  0  0  0  0  0  0  0
   -5.4625    1.7478  -36.0713 H   0  0  0  0  0  0  0  0  0  0  0  0
   -6.4142   -0.1707  -37.1976 H   0  0  0  0  0  0  0  0  0  0  0  0
   -7.1184   -1.4779  -37.9657 H   0  0  0  0  0  0  0  0  0  0  0  0
   -7.3749   -2.1973  -39.5373 H   0  0  0  0  0  0  0  0  0  0  0  0
   -8.7336   -1.9034  -38.4787 H   0  0  0  0  0  0  0  0  0  0  0  0
  -11.7904   -0.0216  -42.6799 H   0  0  0  0  0  0  0  0  0  0  0  0
   -8.4682    1.0862  -44.9558 H   0  0  0  0  0  0  0  0  0  0  0  0
  -12.7792   -0.7922  -45.8863 H   0  0  0  0  0  0  0  0  0  0  0  0
  -11.6933   -2.1708  -45.6903 H   0  0  0  0  0  0  0  0  0  0  0  0
  -15.1130   -1.9329  -43.5205 H   0  0  0  0  0  0  0  0  0  0  0  0
  -14.8547   -1.9146  -45.2485 H   0  0  0  0  0  0  0  0  0  0  0  0
  -14.6093   -0.4593  -44.3130 H   0  0  0  0  0  0  0  0  0  0  0  0
  -12.9799   -2.9749  -44.0910 H   0  0  0  0  0  0  0  0  0  0  0  0
  -12.7391   -1.4974  -43.1634 H   0  0  0  0  0  0  0  0  0  0  0  0
   -5.8716    6.7616  -43.0255 H   0  0  0  0  0  0  0  0  0  0  0  0
   -4.8608    8.9294  -42.6355 H   0  0  0  0  0  0  0  0  0  0  0  0
   -4.9185    9.9250  -40.4255 H   0  0  0  0  0  0  0  0  0  0  0  0
   -7.0171    6.5697  -38.9880 H   0  0  0  0  0  0  0  0  0  0  0  0
  1  2  1  0
  2  3  2  0
  2 39  1  0
  3 24  1  0
  3  4  1  0
  4  5  1  0
  5  6  2  0
  6  7  1  0
  6 40  1  0
  7  8  2  0
  7 41  1  0
  8  9  1  0
  8 42  1  0
  9 10  2  0
  9 43  1  0
 10 11  1  0
 10  5  1  0
 11 12  1  0
 11 13  1  0
 12 44  1  0
 12 45  1  0
 12 46  1  0
 13 14  2  0
 13 15  1  0
 15  1  1  0
 15  4  2  0
 16 17  1  0
 17 18  2  0
 17 47  1  0
 18  1  1  0
 18 19  1  0
 19 20  2  0
 19 48  1  0
 20 16  1  0
 21 16  1  0
 21 49  1  0
 21 50  1  0
 22 23  1  0
 22 51  1  0
 22 52  1  0
 22 53  1  0
 23 21  1  0
 23 54  1  0
 23 55  1  0
 24 25  2  0
 24 26  1  0
 26 28  1  0
 26 27  1  0
 28 29  2  0
 29 30  1  0
 29 56  1  0
 30 31  2  0
 30 57  1  0
 31 32  1  0
 31 58  1  0
 32 34  1  0
 32 33  2  0
 33 28  1  0
 33 59  1  0
 34 35  1  0
 34 36  2  0
 35 37  1  0
 35 38  1  0
M  END
>  <minimizedAffinity>  (2) 
-9.56530

>  <mol_id>  (2) 
31043

>  <source_index>  (2) 
1

>  <layer>  (2) 
L2

>  <uniprot>  (2) 
Q13822

>  <paff>  (2) 
6.6860999999999997

>  <smiles>  (2) 
CCCn1cc(-n2cc(C(=O)Nc3cccc(C(N)=S)c3)c3c4ccccc4n(C)c(=O)c32)cn1

$$$$
L2:Q13822:47947
     RDKit          3D

 51 54  0  0  0  0  0  0  0  0999 V2000
   -9.6957   -1.9829  -41.7322 C   0  0  0  0  0  0  0  0  0  0  0  0
  -10.2210   -2.8806  -40.7967 C   0  0  0  0  0  0  0  0  0  0  0  0
  -11.5983   -3.1120  -40.7417 C   0  0  0  0  0  0  0  0  0  0  0  0
  -12.4577   -2.4440  -41.6130 C   0  0  0  0  0  0  0  0  0  0  0  0
  -11.9444   -1.5294  -42.5330 C   0  0  0  0  0  0  0  0  0  0  0  0
  -10.5646   -1.2885  -42.5934 C   0  0  0  0  0  0  0  0  0  0  0  0
  -10.0513   -0.3234  -43.5715 C   0  0  0  0  0  0  0  0  0  0  0  0
   -9.6457    0.9295  -43.3003 C   0  0  0  0  0  0  0  0  0  0  0  0
   -9.1388    1.8750  -44.3225 C   0  0  0  0  0  0  0  0  0  0  0  0
   -8.7116    3.0479  -43.4966 C   0  0  0  0  0  0  0  0  0  0  0  0
   -8.1374    4.0020  -44.0128 O   0  0  0  0  0  0  0  0  0  0  0  0
   -9.0439    2.8471  -42.1728 N   0  0  0  0  0  0  0  0  0  0  0  0
   -9.6332    1.6160  -41.9836 C   0  0  0  0  0  0  0  0  0  0  0  0
  -10.1146    1.1338  -40.9692 O   0  0  0  0  0  0  0  0  0  0  0  0
   -8.8235    3.8114  -41.1232 C   0  0  0  0  0  0  0  0  0  0  0  0
   -9.6295    4.9585  -40.9965 C   0  0  0  0  0  0  0  0  0  0  0  0
   -9.4312    5.8917  -39.9745 C   0  0  0  0  0  0  0  0  0  0  0  0
   -8.4183    5.7007  -39.0478 C   0  0  0  0  0  0  0  0  0  0  0  0
   -7.6058    4.5821  -39.1494 C   0  0  0  0  0  0  0  0  0  0  0  0
   -6.3572    4.3315  -37.9834 Cl  0  0  0  0  0  0  0  0  0  0  0  0
   -7.8004    3.6513  -40.1722 C   0  0  0  0  0  0  0  0  0  0  0  0
   -8.3583   -1.6961  -41.8425 O   0  0  0  0  0  0  0  0  0  0  0  0
   -7.4827   -2.4895  -41.0529 C   0  0  0  0  0  0  0  0  0  0  0  0
   -5.7411    0.0731  -38.0424 C   0  0  0  0  0  0  0  0  0  0  0  0
   -7.1218    0.0828  -38.2653 C   0  0  0  0  0  0  0  0  0  0  0  0
   -7.6841   -0.7511  -39.2327 C   0  0  0  0  0  0  0  0  0  0  0  0
   -6.8728   -1.5990  -39.9977 C   0  0  0  0  0  0  0  0  0  0  0  0
   -5.4882   -1.5993  -39.7774 C   0  0  0  0  0  0  0  0  0  0  0  0
   -4.9228   -0.7674  -38.8072 C   0  0  0  0  0  0  0  0  0  0  0  0
   -3.8983    1.3770  -37.1149 N   0  0  0  0  0  0  0  0  0  0  0  0
   -5.2003    0.9774  -36.9981 C   0  0  0  0  0  0  0  0  0  0  0  0
   -5.8743    1.3217  -36.0369 O   0  0  0  0  0  0  0  0  0  0  0  0
   -3.5291    1.8739  -36.3107 H   0  0  0  0  0  0  0  0  0  0  0  0
   -3.2370    0.8822  -37.7022 H   0  0  0  0  0  0  0  0  0  0  0  0
   -9.5899   -3.3733  -40.1455 H   0  0  0  0  0  0  0  0  0  0  0  0
  -11.9805   -3.7796  -40.0538 H   0  0  0  0  0  0  0  0  0  0  0  0
  -13.4729   -2.6260  -41.5774 H   0  0  0  0  0  0  0  0  0  0  0  0
  -12.5824   -1.0286  -43.1711 H   0  0  0  0  0  0  0  0  0  0  0  0
   -9.9967   -0.6333  -44.5543 H   0  0  0  0  0  0  0  0  0  0  0  0
   -9.9097    2.1483  -45.0124 H   0  0  0  0  0  0  0  0  0  0  0  0
   -8.3534    1.4698  -44.9257 H   0  0  0  0  0  0  0  0  0  0  0  0
  -10.3887    5.1152  -41.6777 H   0  0  0  0  0  0  0  0  0  0  0  0
  -10.0392    6.7231  -39.9101 H   0  0  0  0  0  0  0  0  0  0  0  0
   -8.2704    6.3848  -38.2894 H   0  0  0  0  0  0  0  0  0  0  0  0
   -7.1801    2.8286  -40.2312 H   0  0  0  0  0  0  0  0  0  0  0  0
   -8.0307   -3.2818  -40.5873 H   0  0  0  0  0  0  0  0  0  0  0  0
   -6.7175   -2.9203  -41.6642 H   0  0  0  0  0  0  0  0  0  0  0  0
   -7.7272    0.7092  -37.7121 H   0  0  0  0  0  0  0  0  0  0  0  0
   -8.7047   -0.7431  -39.3856 H   0  0  0  0  0  0  0  0  0  0  0  0
   -4.8814   -2.2191  -40.3365 H   0  0  0  0  0  0  0  0  0  0  0  0
   -3.9022   -0.7725  -38.6544 H   0  0  0  0  0  0  0  0  0  0  0  0
  1  2  2  0
  2  3  1  0
  2 35  1  0
  3  4  2  0
  3 36  1  0
  4  5  1  0
  4 37  1  0
  5  6  2  0
  5 38  1  0
  6  7  1  0
  6  1  1  0
  7  8  2  0
  7 39  1  0
  8  9  1  0
  9 10  1  0
  9 40  1  0
  9 41  1  0
 10 11  2  0
 10 12  1  0
 12 15  1  0
 12 13  1  0
 13 14  2  0
 13  8  1  0
 15 16  2  0
 16 17  1  0
 16 42  1  0
 17 18  2  0
 17 43  1  0
 18 19  1  0
 18 44  1  0
 19 20  1  0
 19 21  2  0
 21 15  1  0
 21 45  1  0
 22  1  1  0
 23 22  1  0
 23 46  1  0
 23 47  1  0
 24 25  2  0
 25 26  1  0
 25 48  1  0
 26 27  2  0
 26 49  1  0
 27 23  1  0
 27 28  1  0
 28 29  2  0
 28 50  1  0
 29 24  1  0
 29 51  1  0
 30 31  1  0
 30 33  1  0
 30 34  1  0
 31 32  2  0
 31 24  1  0
M  END
>  <minimizedAffinity>  (3) 
-9.23463

>  <mol_id>  (3) 
47947

>  <source_index>  (3) 
2

>  <layer>  (3) 
L2

>  <uniprot>  (3) 
Q13822

>  <paff>  (3) 
6.6197999999999997

>  <smiles>  (3) 
NC(=O)c1ccc(COc2ccccc2/C=C2/CC(=O)N(c3cccc(Cl)c3)C2=O)cc1

$$$$
L2:Q13822:62797
     RDKit          3D

 61 66  0  0  0  0  0  0  0  0999 V2000
   -9.1855    1.2005  -41.6670 C   0  0  0  0  0  0  0  0  0  0  0  0
  -10.1996    1.0029  -42.5137 N   0  0  0  0  0  0  0  0  0  0  0  0
  -10.4992   -0.3357  -42.4739 N   0  0  0  0  0  0  0  0  0  0  0  0
   -9.6670   -0.9851  -41.5739 C   0  0  0  0  0  0  0  0  0  0  0  0
   -8.8405   -0.0086  -41.0362 C   0  0  0  0  0  0  0  0  0  0  0  0
   -7.8045   -0.3472  -40.0348 C   0  0  0  0  0  0  0  0  0  0  0  0
   -8.3293   -1.5194  -39.2018 C   0  0  0  0  0  0  0  0  0  0  0  0
   -8.7969   -2.6498  -40.0412 N   0  0  0  0  0  0  0  0  0  0  0  0
   -9.5640   -2.3879  -41.2168 C   0  0  0  0  0  0  0  0  0  0  0  0
  -10.0272   -3.2771  -41.9250 O   0  0  0  0  0  0  0  0  0  0  0  0
   -8.7127   -3.9676  -39.4703 C   0  0  0  0  0  0  0  0  0  0  0  0
   -7.7753   -4.8945  -39.9538 C   0  0  0  0  0  0  0  0  0  0  0  0
   -7.6526   -6.1683  -39.3886 C   0  0  0  0  0  0  0  0  0  0  0  0
   -8.4658   -6.5395  -38.3239 C   0  0  0  0  0  0  0  0  0  0  0  0
   -9.4080   -5.6422  -37.8344 C   0  0  0  0  0  0  0  0  0  0  0  0
   -9.5323   -4.3698  -38.4053 C   0  0  0  0  0  0  0  0  0  0  0  0
  -11.5795   -0.7927  -43.2858 C   0  0  0  0  0  0  0  0  0  0  0  0
  -12.8354   -1.3399  -42.9643 C   0  0  0  0  0  0  0  0  0  0  0  0
  -13.5605   -1.6376  -44.0516 N   0  0  0  0  0  0  0  0  0  0  0  0
  -12.7532   -1.3074  -45.0772 N   0  0  0  0  0  0  0  0  0  0  0  0
  -11.5724   -0.7600  -44.6693 C   0  0  0  0  0  0  0  0  0  0  0  0
  -13.1889   -1.4996  -46.4535 C   0  0  0  0  0  0  0  0  0  0  0  0
  -14.6380   -1.1525  -46.6411 C   0  0  0  0  0  0  0  0  0  0  0  0
  -15.1330   -0.6808  -47.9889 C   0  0  0  0  0  0  0  0  0  0  0  0
  -15.0776    0.2806  -46.8312 C   0  0  0  0  0  0  0  0  0  0  0  0
   -8.6908    2.9831  -40.1754 N   0  0  0  0  0  0  0  0  0  0  0  0
   -8.5911    2.5390  -41.4834 C   0  0  0  0  0  0  0  0  0  0  0  0
   -8.0506    3.1325  -42.4087 O   0  0  0  0  0  0  0  0  0  0  0  0
   -9.1804    2.3629  -39.5312 H   0  0  0  0  0  0  0  0  0  0  0  0
   -8.9104    5.3939  -39.8300 C   0  0  0  0  0  0  0  0  0  0  0  0
   -8.4455    6.5940  -39.2644 C   0  0  0  0  0  0  0  0  0  0  0  0
   -7.2920    6.6069  -38.4843 C   0  0  0  0  0  0  0  0  0  0  0  0
   -6.5945    5.4257  -38.2687 C   0  0  0  0  0  0  0  0  0  0  0  0
   -7.0493    4.2251  -38.8225 C   0  0  0  0  0  0  0  0  0  0  0  0
   -8.2079    4.1859  -39.6062 C   0  0  0  0  0  0  0  0  0  0  0  0
  -10.3407    6.0252  -41.6659 O   0  0  0  0  0  0  0  0  0  0  0  0
  -10.1640    5.3999  -40.6328 C   0  0  0  0  0  0  0  0  0  0  0  0
  -11.1368    4.6325  -40.1115 O   0  0  0  0  0  0  0  0  0  0  0  0
  -11.8880    4.7186  -40.7334 H   0  0  0  0  0  0  0  0  0  0  0  0
   -7.6196    0.4957  -39.4022 H   0  0  0  0  0  0  0  0  0  0  0  0
   -6.8874   -0.6116  -40.5185 H   0  0  0  0  0  0  0  0  0  0  0  0
   -9.1468   -1.1758  -38.6030 H   0  0  0  0  0  0  0  0  0  0  0  0
   -7.5212   -1.8760  -38.5979 H   0  0  0  0  0  0  0  0  0  0  0  0
   -7.1642   -4.6306  -40.7424 H   0  0  0  0  0  0  0  0  0  0  0  0
   -6.9576   -6.8332  -39.7625 H   0  0  0  0  0  0  0  0  0  0  0  0
   -8.3706   -7.4754  -37.8996 H   0  0  0  0  0  0  0  0  0  0  0  0
  -10.0178   -5.9148  -37.0477 H   0  0  0  0  0  0  0  0  0  0  0  0
  -10.2399   -3.7158  -38.0358 H   0  0  0  0  0  0  0  0  0  0  0  0
  -13.1622   -1.4949  -41.9978 H   0  0  0  0  0  0  0  0  0  0  0  0
  -10.8208   -0.3932  -45.2740 H   0  0  0  0  0  0  0  0  0  0  0  0
  -13.0422   -2.5250  -46.7218 H   0  0  0  0  0  0  0  0  0  0  0  0
  -12.6110   -0.8489  -47.0760 H   0  0  0  0  0  0  0  0  0  0  0  0
  -14.9016   -1.9360  -45.9617 H   0  0  0  0  0  0  0  0  0  0  0  0
  -16.0786   -1.0179  -48.3592 H   0  0  0  0  0  0  0  0  0  0  0  0
  -14.7398   -0.6893  -48.9840 H   0  0  0  0  0  0  0  0  0  0  0  0
  -15.9839    0.6263  -46.3794 H   0  0  0  0  0  0  0  0  0  0  0  0
  -14.6288    1.2374  -46.6641 H   0  0  0  0  0  0  0  0  0  0  0  0
   -8.9628    7.4718  -39.4285 H   0  0  0  0  0  0  0  0  0  0  0  0
   -6.9572    7.4901  -38.0684 H   0  0  0  0  0  0  0  0  0  0  0  0
   -5.7357    5.4340  -37.6965 H   0  0  0  0  0  0  0  0  0  0  0  0
   -6.5224    3.3545  -38.6506 H   0  0  0  0  0  0  0  0  0  0  0  0
  1  2  2  0
  2  3  1  0
  3 17  1  0
  3  4  1  0
  4  5  2  0
  5  6  1  0
  5  1  1  0
  6  7  1  0
  6 40  1  0
  6 41  1  0
  7  8  1  0
  7 42  1  0
  7 43  1  0
  8 11  1  0
  8  9  1  0
  9 10  2  0
  9  4  1  0
 11 12  2  0
 12 13  1  0
 12 44  1  0
 13 14  2  0
 13 45  1  0
 14 15  1  0
 14 46  1  0
 15 16  2  0
 15 47  1  0
 16 11  1  0
 16 48  1  0
 17 18  1  0
 18 19  2  0
 18 49  1  0
 19 20  1  0
 20 22  1  0
 20 21  1  0
 21 17  2  0
 21 50  1  0
 22 23  1  0
 22 51  1  0
 22 52  1  0
 23 24  1  0
 23 53  1  0
 24 25  1  0
 24 54  1  0
 24 55  1  0
 25 23  1  0
 25 56  1  0
 25 57  1  0
 26 27  1  0
 26 29  1  0
 27 28  2  0
 27  1  1  0
 30 31  2  0
 31 32  1  0
 31 58  1  0
 32 33  2  0
 32 59  1  0
 33 34  1  0
 33 60  1  0
 34 35  2  0
 34 61  1  0
 35 26  1  0
 35 30  1  0
 36 37  2  0
 37 38  1  0
 37 30  1  0
 38 39  1  0
M  END
>  <minimizedAffinity>  (4) 
-8.73071

>  <mol_id>  (4) 
62797

>  <source_index>  (4) 
3

>  <layer>  (4) 
L2

>  <uniprot>  (4) 
Q13822

>  <paff>  (4) 
7.3665000000000003

>  <smiles>  (4) 
O=C(O)c1ccccc1NC(=O)c1nn(-c2cnn(CC3CC3)c2)c2c1CCN(c1ccccc1)C2=O

$$$$
L2:Q13822:67279
     RDKit          3D

 78 83  0  0  0  0  0  0  0  0999 V2000
   -8.2430    4.3462  -42.5355 C   0  0  0  0  0  0  0  0  0  0  0  0
   -7.9542    3.7563  -41.3208 N   0  0  0  0  0  0  0  0  0  0  0  0
   -7.4633    4.7034  -40.5586 C   0  0  0  0  0  0  0  0  0  0  0  0
   -6.9961    4.6474  -39.2016 C   0  0  0  0  0  0  0  0  0  0  0  0
   -6.9956    3.3676  -38.4062 C   0  0  0  0  0  0  0  0  0  0  0  0
   -6.5467    5.7954  -38.6429 C   0  0  0  0  0  0  0  0  0  0  0  0
   -6.5208    7.0710  -39.3553 C   0  0  0  0  0  0  0  0  0  0  0  0
   -6.9544    7.0931  -40.6307 C   0  0  0  0  0  0  0  0  0  0  0  0
   -7.4201    5.9182  -41.2290 N   0  0  0  0  0  0  0  0  0  0  0  0
   -7.9143    5.6991  -42.5172 C   0  0  0  0  0  0  0  0  0  0  0  0
   -6.0365    8.3203  -38.7469 C   0  0  0  0  0  0  0  0  0  0  0  0
   -5.9796    8.4445  -37.3521 C   0  0  0  0  0  0  0  0  0  0  0  0
   -5.5215    9.6283  -36.7691 C   0  0  0  0  0  0  0  0  0  0  0  0
   -5.1360   10.6999  -37.5804 C   0  0  0  0  0  0  0  0  0  0  0  0
   -5.1707   10.5776  -38.9734 C   0  0  0  0  0  0  0  0  0  0  0  0
   -5.6295    9.3928  -39.5539 C   0  0  0  0  0  0  0  0  0  0  0  0
   -4.6314   11.9343  -36.9364 C   0  0  0  0  0  0  0  0  0  0  0  0
   -3.4521   11.9585  -36.5914 O   0  0  0  0  0  0  0  0  0  0  0  0
   -5.5011   13.0022  -36.7519 N   0  0  0  0  0  0  0  0  0  0  0  0
   -6.9653   12.9180  -36.8308 C   0  0  0  0  0  0  0  0  0  0  0  0
   -7.6527   13.8867  -35.8486 C   0  0  0  0  0  0  0  0  0  0  0  0
   -7.2815   15.3010  -36.0619 N   0  0  0  0  0  0  0  0  0  0  0  0
   -5.8723   15.4511  -36.4891 C   0  0  0  0  0  0  0  0  0  0  0  0
   -4.9633   14.2440  -36.1989 C   0  0  0  0  0  0  0  0  0  0  0  0
   -7.5918   16.1495  -34.8962 C   0  0  0  0  0  0  0  0  0  0  0  0
   -7.5641   15.4180  -33.5398 C   0  0  0  0  0  0  0  0  0  0  0  0
   -6.2771   15.4728  -32.9275 O   0  0  0  0  0  0  0  0  0  0  0  0
   -6.0586   16.4106  -32.7944 H   0  0  0  0  0  0  0  0  0  0  0  0
   -7.9729    6.7393  -43.4345 N   0  0  0  0  0  0  0  0  0  0  0  0
   -6.9661    7.2120  -44.2243 C   0  0  0  0  0  0  0  0  0  0  0  0
   -5.8218    6.8080  -44.3289 O   0  0  0  0  0  0  0  0  0  0  0  0
   -8.8322    7.2558  -43.5469 H   0  0  0  0  0  0  0  0  0  0  0  0
   -7.4651    8.2644  -44.9268 O   0  0  0  0  0  0  0  0  0  0  0  0
   -6.8791    8.4895  -46.2152 C   0  0  0  0  0  0  0  0  0  0  0  0
   -7.9602    8.8716  -47.1941 C   0  0  0  0  0  0  0  0  0  0  0  0
   -7.9573    8.3395  -48.5046 C   0  0  0  0  0  0  0  0  0  0  0  0
   -8.9650    8.6691  -49.4168 C   0  0  0  0  0  0  0  0  0  0  0  0
   -9.9616    9.5197  -48.9913 C   0  0  0  0  0  0  0  0  0  0  0  0
  -11.0165    9.9440  -49.7373 O   0  0  0  0  0  0  0  0  0  0  0  0
  -11.7035   10.7800  -48.7828 C   0  0  0  0  0  0  0  0  0  0  0  0
  -11.0496   10.8440  -47.4988 O   0  0  0  0  0  0  0  0  0  0  0  0
   -9.9799   10.0331  -47.7162 C   0  0  0  0  0  0  0  0  0  0  0  0
   -9.0004    9.7275  -46.7952 C   0  0  0  0  0  0  0  0  0  0  0  0
   -8.6996    1.9819  -43.2297 C   0  0  0  0  0  0  0  0  0  0  0  0
   -8.8092    3.4559  -43.5892 C   0  0  0  0  0  0  0  0  0  0  0  0
   -7.3831    2.5729  -39.0089 H   0  0  0  0  0  0  0  0  0  0  0  0
   -7.6083    3.4875  -37.5372 H   0  0  0  0  0  0  0  0  0  0  0  0
   -5.9951    3.1336  -38.1077 H   0  0  0  0  0  0  0  0  0  0  0  0
   -6.2067    5.7686  -37.6689 H   0  0  0  0  0  0  0  0  0  0  0  0
   -6.9428    7.9758  -41.1653 H   0  0  0  0  0  0  0  0  0  0  0  0
   -6.2773    7.6583  -36.7535 H   0  0  0  0  0  0  0  0  0  0  0  0
   -5.4677    9.7118  -35.7419 H   0  0  0  0  0  0  0  0  0  0  0  0
   -4.8585   11.3597  -39.5700 H   0  0  0  0  0  0  0  0  0  0  0  0
   -5.6692    9.3062  -40.5815 H   0  0  0  0  0  0  0  0  0  0  0  0
   -7.2669   11.9181  -36.5980 H   0  0  0  0  0  0  0  0  0  0  0  0
   -7.2591   13.1896  -37.8232 H   0  0  0  0  0  0  0  0  0  0  0  0
   -7.3780   13.6106  -34.8520 H   0  0  0  0  0  0  0  0  0  0  0  0
   -8.7069   13.8087  -36.0142 H   0  0  0  0  0  0  0  0  0  0  0  0
   -5.4631   16.3015  -35.9848 H   0  0  0  0  0  0  0  0  0  0  0  0
   -5.8960   15.5535  -37.5539 H   0  0  0  0  0  0  0  0  0  0  0  0
   -4.8636   14.1346  -35.1392 H   0  0  0  0  0  0  0  0  0  0  0  0
   -4.0163   14.4270  -36.6623 H   0  0  0  0  0  0  0  0  0  0  0  0
   -8.5706   16.5593  -35.0337 H   0  0  0  0  0  0  0  0  0  0  0  0
   -6.8250   16.8945  -34.8528 H   0  0  0  0  0  0  0  0  0  0  0  0
   -7.8291   14.3930  -33.6950 H   0  0  0  0  0  0  0  0  0  0  0  0
   -8.2601   15.9043  -32.8886 H   0  0  0  0  0  0  0  0  0  0  0  0
   -6.3946    7.5957  -46.5486 H   0  0  0  0  0  0  0  0  0  0  0  0
   -6.1599    9.2790  -46.1490 H   0  0  0  0  0  0  0  0  0  0  0  0
   -7.2009    7.6989  -48.7918 H   0  0  0  0  0  0  0  0  0  0  0  0
   -8.9621    8.2881  -50.3759 H   0  0  0  0  0  0  0  0  0  0  0  0
  -12.6905   10.3919  -48.6413 H   0  0  0  0  0  0  0  0  0  0  0  0
  -11.7113   11.7727  -49.1820 H   0  0  0  0  0  0  0  0  0  0  0  0
   -9.0305   10.1165  -45.8398 H   0  0  0  0  0  0  0  0  0  0  0  0
   -9.1190    1.3907  -44.0167 H   0  0  0  0  0  0  0  0  0  0  0  0
   -9.2328    1.7958  -42.3209 H   0  0  0  0  0  0  0  0  0  0  0  0
   -7.6699    1.7224  -43.0986 H   0  0  0  0  0  0  0  0  0  0  0  0
   -9.8421    3.6997  -43.7252 H   0  0  0  0  0  0  0  0  0  0  0  0
   -8.2454    3.6141  -44.4848 H   0  0  0  0  0  0  0  0  0  0  0  0
  1  2  1  0
  2  3  2  0
  3  4  1  0
  4  5  1  0
  4  6  2  0
  5 46  1  0
  5 47  1  0
  5 48  1  0
  6  7  1  0
  6 49  1  0
  7  8  2  0
  7 11  1  0
  8  9  1  0
  8 50  1  0
  9 10  1  0
  9  3  1  0
 10 29  1  0
 10  1  2  0
 11 12  2  0
 12 13  1  0
 12 51  1  0
 13 14  2  0
 13 52  1  0
 14 15  1  0
 14 17  1  0
 15 16  2  0
 15 53  1  0
 16 11  1  0
 16 54  1  0
 17 18  2  0
 17 19  1  0
 19 20  1  0
 20 21  1  0
 20 55  1  0
 20 56  1  0
 21 22  1  0
 21 57  1  0
 21 58  1  0
 22 25  1  0
 22 23  1  0
 23 24  1  0
 23 59  1  0
 23 60  1  0
 24 19  1  0
 24 61  1  0
 24 62  1  0
 25 26  1  0
 25 63  1  0
 25 64  1  0
 26 27  1  0
 26 65  1  0
 26 66  1  0
 27 28  1  0
 29 30  1  0
 29 32  1  0
 30 31  2  0
 30 33  1  0
 33 34  1  0
 34 35  1  0
 34 67  1  0
 34 68  1  0
 35 36  2  0
 36 37  1  0
 36 69  1  0
 37 38  2  0
 37 70  1  0
 38 39  1  0
 39 40  1  0
 40 41  1  0
 40 71  1  0
 40 72  1  0
 41 42  1  0
 42 43  2  0
 42 38  1  0
 43 35  1  0
 43 73  1  0
 44 45  1  0
 44 74  1  0
 44 75  1  0
 44 76  1  0
 45  1  1  0
 45 77  1  0
 45 78  1  0
M  END
>  <minimizedAffinity>  (5) 
-9.28094

>  <mol_id>  (5) 
67279

>  <source_index>  (5) 
4

>  <layer>  (5) 
L2

>  <uniprot>  (5) 
Q13822

>  <paff>  (5) 
8.5686

>  <smiles>  (5) 
CCc1nc2c(C)cc(cn2c1NC(=O)OCc1ccc2OCOc2c1)-c1ccc(cc1)C(=O)N1CCN(CCO)CC1

$$$$
L2:Q13822:81133
     RDKit          3D

 58 62  0  0  0  0  0  0  0  0999 V2000
  -10.7192   -0.3205  -42.3843 N   0  0  0  0  0  0  0  0  0  0  0  0
  -10.4869    1.0340  -42.3563 N   0  0  0  0  0  0  0  0  0  0  0  0
   -9.3506    1.2014  -41.6607 C   0  0  0  0  0  0  0  0  0  0  0  0
   -8.9243   -0.0251  -41.1230 C   0  0  0  0  0  0  0  0  0  0  0  0
   -9.8512   -0.9727  -41.5197 C   0  0  0  0  0  0  0  0  0  0  0  0
   -9.8410   -2.3487  -41.0654 C   0  0  0  0  0  0  0  0  0  0  0  0
  -10.6909   -3.1578  -41.4180 O   0  0  0  0  0  0  0  0  0  0  0  0
   -8.8005   -2.6695  -40.1467 N   0  0  0  0  0  0  0  0  0  0  0  0
   -8.1203   -1.5837  -39.4079 C   0  0  0  0  0  0  0  0  0  0  0  0
   -7.7665   -0.3689  -40.2725 C   0  0  0  0  0  0  0  0  0  0  0  0
   -8.6058   -4.0246  -39.6947 C   0  0  0  0  0  0  0  0  0  0  0  0
   -7.7635   -4.9158  -40.3804 C   0  0  0  0  0  0  0  0  0  0  0  0
   -7.5972   -6.2377  -39.9494 C   0  0  0  0  0  0  0  0  0  0  0  0
   -8.2743   -6.6973  -38.8258 C   0  0  0  0  0  0  0  0  0  0  0  0
   -9.1189   -5.8357  -38.1353 C   0  0  0  0  0  0  0  0  0  0  0  0
   -9.2833   -4.5149  -38.5679 C   0  0  0  0  0  0  0  0  0  0  0  0
  -12.8105   -1.2971  -45.1214 N   0  0  0  0  0  0  0  0  0  0  0  0
  -11.6911   -0.6777  -44.6463 C   0  0  0  0  0  0  0  0  0  0  0  0
  -11.7251   -0.8071  -43.2702 C   0  0  0  0  0  0  0  0  0  0  0  0
  -12.8933   -1.5503  -43.0237 C   0  0  0  0  0  0  0  0  0  0  0  0
  -13.5588   -1.8514  -44.1469 N   0  0  0  0  0  0  0  0  0  0  0  0
  -13.2227   -1.4010  -46.5149 C   0  0  0  0  0  0  0  0  0  0  0  0
  -12.5554   -2.2432  -48.6246 C   0  0  0  0  0  0  0  0  0  0  0  0
  -12.1281   -1.8312  -47.3307 O   0  0  0  0  0  0  0  0  0  0  0  0
   -8.7294    2.5349  -41.5214 C   0  0  0  0  0  0  0  0  0  0  0  0
   -8.2898    3.1430  -42.4903 O   0  0  0  0  0  0  0  0  0  0  0  0
   -8.7267    2.9598  -40.2071 N   0  0  0  0  0  0  0  0  0  0  0  0
   -9.1486    2.2883  -39.5682 H   0  0  0  0  0  0  0  0  0  0  0  0
   -8.2330    4.1602  -39.6734 C   0  0  0  0  0  0  0  0  0  0  0  0
   -8.7891    5.4145  -39.9318 C   0  0  0  0  0  0  0  0  0  0  0  0
   -8.2365    6.5668  -39.3589 C   0  0  0  0  0  0  0  0  0  0  0  0
   -7.1205    6.4755  -38.5208 C   0  0  0  0  0  0  0  0  0  0  0  0
   -6.5605    5.2216  -38.2587 C   0  0  0  0  0  0  0  0  0  0  0  0
   -7.1155    4.0728  -38.8335 C   0  0  0  0  0  0  0  0  0  0  0  0
   -6.5733    7.7229  -37.9351 C   0  0  0  0  0  0  0  0  0  0  0  0
   -5.6364    7.7979  -37.1620 O   0  0  0  0  0  0  0  0  0  0  0  0
   -7.2284    8.8232  -38.3464 O   0  0  0  0  0  0  0  0  0  0  0  0
   -6.7645    9.5550  -37.8877 H   0  0  0  0  0  0  0  0  0  0  0  0
   -7.2158   -1.9753  -38.9914 H   0  0  0  0  0  0  0  0  0  0  0  0
   -8.8044   -1.2425  -38.6592 H   0  0  0  0  0  0  0  0  0  0  0  0
   -6.9250   -0.6024  -40.8907 H   0  0  0  0  0  0  0  0  0  0  0  0
   -7.5230    0.4617  -39.6435 H   0  0  0  0  0  0  0  0  0  0  0  0
   -7.2572   -4.5897  -41.2185 H   0  0  0  0  0  0  0  0  0  0  0  0
   -6.9700   -6.8727  -40.4676 H   0  0  0  0  0  0  0  0  0  0  0  0
   -8.1509   -7.6709  -38.5066 H   0  0  0  0  0  0  0  0  0  0  0  0
   -9.6261   -6.1709  -37.3014 H   0  0  0  0  0  0  0  0  0  0  0  0
   -9.9164   -3.8881  -38.0470 H   0  0  0  0  0  0  0  0  0  0  0  0
  -10.9626   -0.2056  -45.2044 H   0  0  0  0  0  0  0  0  0  0  0  0
  -13.2039   -1.8328  -42.0810 H   0  0  0  0  0  0  0  0  0  0  0  0
  -14.0207   -2.1094  -46.5942 H   0  0  0  0  0  0  0  0  0  0  0  0
  -13.5485   -0.4392  -46.8520 H   0  0  0  0  0  0  0  0  0  0  0  0
  -11.7074   -2.5553  -49.1977 H   0  0  0  0  0  0  0  0  0  0  0  0
  -13.0380   -1.4255  -49.1180 H   0  0  0  0  0  0  0  0  0  0  0  0
  -13.2420   -3.0585  -48.5307 H   0  0  0  0  0  0  0  0  0  0  0  0
   -9.6126    5.4930  -40.5489 H   0  0  0  0  0  0  0  0  0  0  0  0
   -8.6554    7.4891  -39.5564 H   0  0  0  0  0  0  0  0  0  0  0  0
   -5.7375    5.1432  -37.6411 H   0  0  0  0  0  0  0  0  0  0  0  0
   -6.6966    3.1505  -38.6363 H   0  0  0  0  0  0  0  0  0  0  0  0
  1  2  1  0
  2  3  2  0
  3 25  1  0
  3  4  1  0
  4  5  2  0
  5  6  1  0
  5  1  1  0
  6  7  2  0
  6  8  1  0
  8 11  1  0
  8  9  1  0
  9 10  1  0
  9 39  1  0
  9 40  1  0
 10  4  1  0
 10 41  1  0
 10 42  1  0
 11 12  2  0
 12 13  1  0
 12 43  1  0
 13 14  2  0
 13 44  1  0
 14 15  1  0
 14 45  1  0
 15 16  2  0
 15 46  1  0
 16 11  1  0
 16 47  1  0
 17 18  1  0
 18 19  2  0
 18 48  1  0
 19  1  1  0
 19 20  1  0
 20 21  2  0
 20 49  1  0
 21 17  1  0
 22 17  1  0
 22 50  1  0
 22 51  1  0
 23 24  1  0
 23 52  1  0
 23 53  1  0
 23 54  1  0
 24 22  1  0
 25 26  2  0
 25 27  1  0
 27 29  1  0
 27 28  1  0
 29 30  2  0
 30 31  1  0
 30 55  1  0
 31 32  2  0
 31 56  1  0
 32 35  1  0
 32 33  1  0
 33 34  2  0
 33 57  1  0
 34 29  1  0
 34 58  1  0
 35 36  2  0
 35 37  1  0
 37 38  1  0
M  END
>  <minimizedAffinity>  (6) 
-8.75051

>  <mol_id>  (6) 
81133

>  <source_index>  (6) 
5

>  <layer>  (6) 
L2

>  <uniprot>  (6) 
Q13822

>  <paff>  (6) 
6.5086000000000004

>  <smiles>  (6) 
COCn1cc(-n2nc(C(=O)Nc3ccc(C(=O)O)cc3)c3c2C(=O)N(c2ccccc2)CC3)cn1

$$$$
L2:Q13822:90721
     RDKit          3D

 61 65  0  0  0  0  0  0  0  0999 V2000
   -8.9362    4.9448  -40.4929 N   0  0  0  0  0  0  0  0  0  0  0  0
   -9.0957    5.1556  -39.5117 H   0  0  0  0  0  0  0  0  0  0  0  0
   -9.5221    3.7112  -40.8224 C   0  0  0  0  0  0  0  0  0  0  0  0
   -8.7193    2.7353  -41.4014 C   0  0  0  0  0  0  0  0  0  0  0  0
   -9.2595    1.4897  -41.7087 C   0  0  0  0  0  0  0  0  0  0  0  0
  -10.5865    1.2656  -41.4142 C   0  0  0  0  0  0  0  0  0  0  0  0
  -11.3581    2.2101  -40.8438 N   0  0  0  0  0  0  0  0  0  0  0  0
  -10.8142    3.4347  -40.5391 N   0  0  0  0  0  0  0  0  0  0  0  0
  -11.1017    0.0267  -41.7275 O   0  0  0  0  0  0  0  0  0  0  0  0
  -10.2724   -0.7063  -42.6279 C   0  0  0  0  0  0  0  0  0  0  0  0
  -11.0874   -1.0033  -43.8557 C   0  0  0  0  0  0  0  0  0  0  0  0
  -12.4608   -1.2414  -43.7808 C   0  0  0  0  0  0  0  0  0  0  0  0
  -13.1842   -1.4921  -44.9451 C   0  0  0  0  0  0  0  0  0  0  0  0
  -12.5208   -1.4908  -46.1739 C   0  0  0  0  0  0  0  0  0  0  0  0
  -11.1805   -1.2544  -46.2629 N   0  0  0  0  0  0  0  0  0  0  0  0
  -10.5051   -1.0101  -45.1164 C   0  0  0  0  0  0  0  0  0  0  0  0
  -13.3209   -1.7798  -47.4376 C   0  0  0  0  0  0  0  0  0  0  0  0
  -14.1639   -0.7778  -47.8162 F   0  0  0  0  0  0  0  0  0  0  0  0
  -14.1049   -2.8931  -47.3153 F   0  0  0  0  0  0  0  0  0  0  0  0
  -12.5196   -2.0211  -48.5170 F   0  0  0  0  0  0  0  0  0  0  0  0
   -7.5224    5.0453  -40.8349 C   0  0  0  0  0  0  0  0  0  0  0  0
   -5.8608    8.6021  -38.9290 C   0  0  0  0  0  0  0  0  0  0  0  0
   -6.6951    7.7120  -38.2310 C   0  0  0  0  0  0  0  0  0  0  0  0
   -7.2288    6.5649  -38.8313 C   0  0  0  0  0  0  0  0  0  0  0  0
   -6.9446    6.2707  -40.1662 C   0  0  0  0  0  0  0  0  0  0  0  0
   -6.1314    7.1549  -40.8820 C   0  0  0  0  0  0  0  0  0  0  0  0
   -5.6055    8.3024  -40.2718 C   0  0  0  0  0  0  0  0  0  0  0  0
   -3.2909   14.0258  -38.0201 C   0  0  0  0  0  0  0  0  0  0  0  0
   -3.4759   12.9590  -36.9742 C   0  0  0  0  0  0  0  0  0  0  0  0
   -2.6700   12.8199  -36.0564 O   0  0  0  0  0  0  0  0  0  0  0  0
   -4.5949   12.1796  -37.0972 N   0  0  0  0  0  0  0  0  0  0  0  0
   -4.8254   11.0075  -36.2505 C   0  0  0  0  0  0  0  0  0  0  0  0
   -5.9601   10.2750  -37.0252 C   0  0  1  0  0  0  0  0  0  0  0  0
   -6.7655   11.4768  -37.5412 C   0  0  0  0  0  0  0  0  0  0  0  0
   -5.5411   12.0972  -38.2206 C   0  0  2  0  0  0  0  0  0  0  0  0
   -5.1165   10.9241  -39.1522 C   0  0  0  0  0  0  0  0  0  0  0  0
   -5.3735    9.7322  -38.2852 N   0  0  0  0  0  0  0  0  0  0  0  0
   -7.7267    2.9334  -41.6027 H   0  0  0  0  0  0  0  0  0  0  0  0
   -8.6818    0.7543  -42.1451 H   0  0  0  0  0  0  0  0  0  0  0  0
   -9.9554   -1.6201  -42.1704 H   0  0  0  0  0  0  0  0  0  0  0  0
   -9.4012   -0.1397  -42.8827 H   0  0  0  0  0  0  0  0  0  0  0  0
  -12.9388   -1.2318  -42.8662 H   0  0  0  0  0  0  0  0  0  0  0  0
  -14.1986   -1.6766  -44.8998 H   0  0  0  0  0  0  0  0  0  0  0  0
   -9.4936   -0.8166  -45.1829 H   0  0  0  0  0  0  0  0  0  0  0  0
   -7.0069    4.1723  -40.4927 H   0  0  0  0  0  0  0  0  0  0  0  0
   -7.4102    5.1238  -41.8961 H   0  0  0  0  0  0  0  0  0  0  0  0
   -6.9218    7.9103  -37.2439 H   0  0  0  0  0  0  0  0  0  0  0  0
   -7.8352    5.9339  -38.2843 H   0  0  0  0  0  0  0  0  0  0  0  0
   -5.9156    6.9603  -41.8722 H   0  0  0  0  0  0  0  0  0  0  0  0
   -5.0155    8.9419  -40.8267 H   0  0  0  0  0  0  0  0  0  0  0  0
   -2.3892   14.5668  -37.8221 H   0  0  0  0  0  0  0  0  0  0  0  0
   -4.1230   14.6980  -37.9950 H   0  0  0  0  0  0  0  0  0  0  0  0
   -3.2289   13.5708  -38.9866 H   0  0  0  0  0  0  0  0  0  0  0  0
   -5.1439   11.2919  -35.2694 H   0  0  0  0  0  0  0  0  0  0  0  0
   -3.9528   10.4092  -36.0909 H   0  0  0  0  0  0  0  0  0  0  0  0
   -6.4634    9.5261  -36.4501 H   0  0  0  0  0  0  0  0  0  0  0  0
   -7.1732   12.0840  -36.7602 H   0  0  0  0  0  0  0  0  0  0  0  0
   -7.6461   11.2992  -38.1225 H   0  0  0  0  0  0  0  0  0  0  0  0
   -5.6396   13.0299  -38.7357 H   0  0  0  0  0  0  0  0  0  0  0  0
   -4.0830   10.9946  -39.4203 H   0  0  0  0  0  0  0  0  0  0  0  0
   -5.6408   10.9013  -40.0847 H   0  0  0  0  0  0  0  0  0  0  0  0
  1  3  1  0
  1  2  1  0
  3  4  2  0
  4  5  1  0
  4 38  1  0
  5  6  2  0
  5 39  1  0
  6  9  1  0
  6  7  1  0
  7  8  2  0
  8  3  1  0
  9 10  1  0
 10 11  1  0
 10 40  1  0
 10 41  1  0
 11 12  2  0
 12 13  1  0
 12 42  1  0
 13 14  2  0
 13 43  1  0
 14 15  1  0
 14 17  1  0
 15 16  2  0
 16 11  1  0
 16 44  1  0
 17 18  1  0
 17 19  1  0
 17 20  1  0
 21  1  1  0
 21 45  1  0
 21 46  1  0
 22 23  2  0
 23 24  1  0
 23 47  1  0
 24 25  2  0
 24 48  1  0
 25 21  1  0
 25 26  1  0
 26 27  2  0
 26 49  1  0
 27 22  1  0
 27 50  1  0
 28 29  1  0
 28 51  1  0
 28 52  1  0
 28 53  1  0
 29 30  2  0
 29 31  1  0
 31 32  1  0
 32 33  1  0
 32 54  1  0
 32 55  1  0
 33 34  1  0
 33 56  1  1
 34 35  1  0
 34 57  1  0
 34 58  1  0
 35 36  1  0
 35 31  1  0
 35 59  1  6
 36 37  1  0
 36 60  1  0
 36 61  1  0
 37 22  1  0
 37 33  1  0
M  END
>  <minimizedAffinity>  (7) 
-9.01791

>  <mol_id>  (7) 
90721

>  <source_index>  (7) 
6

>  <layer>  (7) 
L2

>  <uniprot>  (7) 
Q13822

>  <paff>  (7) 
8.4088999999999992

>  <smiles>  (7) 
CC(=O)N1CC2CC1CN2c1ccc(CNc2ccc(OCc3ccc(nc3)C(F)(F)F)nn2)cc1

$$$$
L2:Q13822:98140
     RDKit          3D

 59 62  0  0  0  0  0  0  0  0999 V2000
   -8.6045    4.8752  -40.5425 N   0  0  0  0  0  0  0  0  0  0  0  0
   -9.5330    5.2067  -40.2758 H   0  0  0  0  0  0  0  0  0  0  0  0
   -8.8295    3.6690  -41.2155 C   0  0  0  0  0  0  0  0  0  0  0  0
   -8.3336    3.4334  -42.4901 C   0  0  0  0  0  0  0  0  0  0  0  0
   -8.6010    2.2172  -43.1118 C   0  0  0  0  0  0  0  0  0  0  0  0
   -9.3596    1.2900  -42.4304 C   0  0  0  0  0  0  0  0  0  0  0  0
   -9.8416    1.5321  -41.1962 N   0  0  0  0  0  0  0  0  0  0  0  0
   -9.5787    2.7363  -40.5924 N   0  0  0  0  0  0  0  0  0  0  0  0
   -9.6095    0.0926  -43.0645 O   0  0  0  0  0  0  0  0  0  0  0  0
  -10.8996   -0.4365  -42.7613 C   0  0  0  0  0  0  0  0  0  0  0  0
  -11.5213   -0.8852  -44.0543 C   0  0  0  0  0  0  0  0  0  0  0  0
  -12.8714   -1.2303  -44.1351 C   0  0  0  0  0  0  0  0  0  0  0  0
  -13.4132   -1.6226  -45.3576 C   0  0  0  0  0  0  0  0  0  0  0  0
  -12.5937   -1.6563  -46.4878 C   0  0  0  0  0  0  0  0  0  0  0  0
  -11.2756   -1.3114  -46.4262 N   0  0  0  0  0  0  0  0  0  0  0  0
  -10.7783   -0.9318  -45.2267 C   0  0  0  0  0  0  0  0  0  0  0  0
  -13.1989   -2.0920  -47.8161 C   0  0  0  0  0  0  0  0  0  0  0  0
  -14.0534   -1.1578  -48.3304 F   0  0  0  0  0  0  0  0  0  0  0  0
  -12.2893   -2.3414  -48.7996 F   0  0  0  0  0  0  0  0  0  0  0  0
  -13.9414   -3.2331  -47.6995 F   0  0  0  0  0  0  0  0  0  0  0  0
   -7.7496    4.7407  -39.3701 C   0  0  0  0  0  0  0  0  0  0  0  0
   -5.6586    8.4450  -38.8177 C   0  0  0  0  0  0  0  0  0  0  0  0
   -5.9955    7.6764  -37.7022 C   0  0  0  0  0  0  0  0  0  0  0  0
   -6.6746    6.4664  -37.8581 C   0  0  0  0  0  0  0  0  0  0  0  0
   -7.0196    6.0320  -39.1343 C   0  0  0  0  0  0  0  0  0  0  0  0
   -6.6776    6.8637  -40.1899 C   0  0  0  0  0  0  0  0  0  0  0  0
   -6.0155    8.0375  -40.0552 N   0  0  0  0  0  0  0  0  0  0  0  0
   -3.0678   14.1966  -37.1863 C   0  0  0  0  0  0  0  0  0  0  0  0
   -3.8631   13.7748  -38.3961 C   0  0  0  0  0  0  0  0  0  0  0  0
   -4.0383   14.5569  -39.3303 O   0  0  0  0  0  0  0  0  0  0  0  0
   -4.3767   12.4906  -38.3897 N   0  0  0  0  0  0  0  0  0  0  0  0
   -4.2458   11.5521  -37.2680 C   0  0  0  0  0  0  0  0  0  0  0  0
   -5.1831   10.3363  -37.3804 C   0  0  0  0  0  0  0  0  0  0  0  0
   -4.9921    9.6606  -38.6728 N   0  0  0  0  0  0  0  0  0  0  0  0
   -4.8762   10.5262  -39.8628 C   0  0  0  0  0  0  0  0  0  0  0  0
   -5.1353   12.0119  -39.5466 C   0  0  0  0  0  0  0  0  0  0  0  0
   -7.7722    4.1528  -42.9721 H   0  0  0  0  0  0  0  0  0  0  0  0
   -8.2409    2.0151  -44.0576 H   0  0  0  0  0  0  0  0  0  0  0  0
  -11.5064    0.3189  -42.3073 H   0  0  0  0  0  0  0  0  0  0  0  0
  -10.8189   -1.2563  -42.0784 H   0  0  0  0  0  0  0  0  0  0  0  0
  -13.4662   -1.1950  -43.2925 H   0  0  0  0  0  0  0  0  0  0  0  0
  -14.4088   -1.8852  -45.4269 H   0  0  0  0  0  0  0  0  0  0  0  0
   -9.7839   -0.6596  -45.1799 H   0  0  0  0  0  0  0  0  0  0  0  0
   -8.3499    4.5087  -38.5153 H   0  0  0  0  0  0  0  0  0  0  0  0
   -7.0421    3.9545  -39.5319 H   0  0  0  0  0  0  0  0  0  0  0  0
   -5.7413    8.0042  -36.7573 H   0  0  0  0  0  0  0  0  0  0  0  0
   -6.9191    5.8979  -37.0322 H   0  0  0  0  0  0  0  0  0  0  0  0
   -6.9455    6.5685  -41.1418 H   0  0  0  0  0  0  0  0  0  0  0  0
   -2.7293   15.2034  -37.3153 H   0  0  0  0  0  0  0  0  0  0  0  0
   -2.2242   13.5487  -37.0704 H   0  0  0  0  0  0  0  0  0  0  0  0
   -3.6857   14.1370  -36.3148 H   0  0  0  0  0  0  0  0  0  0  0  0
   -4.4720   12.0729  -36.3610 H   0  0  0  0  0  0  0  0  0  0  0  0
   -3.2422   11.1813  -37.2798 H   0  0  0  0  0  0  0  0  0  0  0  0
   -6.1983   10.6650  -37.3008 H   0  0  0  0  0  0  0  0  0  0  0  0
   -4.9568    9.6490  -36.5922 H   0  0  0  0  0  0  0  0  0  0  0  0
   -5.5890   10.2023  -40.5921 H   0  0  0  0  0  0  0  0  0  0  0  0
   -3.8729   10.4437  -40.2253 H   0  0  0  0  0  0  0  0  0  0  0  0
   -6.1786   12.1414  -39.3476 H   0  0  0  0  0  0  0  0  0  0  0  0
   -4.8174   12.5803  -40.3956 H   0  0  0  0  0  0  0  0  0  0  0  0
  1  3  1  0
  1  2  1  0
  3  4  2  0
  4  5  1  0
  4 37  1  0
  5  6  2  0
  5 38  1  0
  6  9  1  0
  6  7  1  0
  7  8  2  0
  8  3  1  0
  9 10  1  0
 10 11  1  0
 10 39  1  0
 10 40  1  0
 11 12  2  0
 12 13  1  0
 12 41  1  0
 13 14  2  0
 13 42  1  0
 14 15  1  0
 14 17  1  0
 15 16  2  0
 16 11  1  0
 16 43  1  0
 17 18  1  0
 17 19  1  0
 17 20  1  0
 21  1  1  0
 21 44  1  0
 21 45  1  0
 22 23  2  0
 23 24  1  0
 23 46  1  0
 24 25  2  0
 24 47  1  0
 25 21  1  0
 25 26  1  0
 26 27  2  0
 26 48  1  0
 27 22  1  0
 28 29  1  0
 28 49  1  0
 28 50  1  0
 28 51  1  0
 29 30  2  0
 29 31  1  0
 31 32  1  0
 32 33  1  0
 32 52  1  0
 32 53  1  0
 33 34  1  0
 33 54  1  0
 33 55  1  0
 34 35  1  0
 34 22  1  0
 35 36  1  0
 35 56  1  0
 35 57  1  0
 36 31  1  0
 36 58  1  0
 36 59  1  0
M  END
>  <minimizedAffinity>  (8) 
-8.84348

>  <mol_id>  (8) 
98140

>  <source_index>  (8) 
7

>  <layer>  (8) 
L2

>  <uniprot>  (8) 
Q13822

>  <paff>  (8) 
8.6021000000000001

>  <smiles>  (8) 
CC(=O)N1CCN(CC1)c1ccc(CNc2ccc(OCc3ccc(nc3)C(F)(F)F)nn2)cn1

$$$$
L2:Q13822:104039
     RDKit          3D

 61 64  0  0  0  0  0  0  0  0999 V2000
   -8.9637    2.4846  -40.6888 N   0  0  0  0  0  0  0  0  0  0  0  0
   -9.0575    3.8812  -40.6556 C   0  0  0  0  0  0  0  0  0  0  0  0
   -8.3751    4.3232  -39.5347 C   0  0  0  0  0  0  0  0  0  0  0  0
   -7.6531    3.2192  -39.0005 C   0  0  0  0  0  0  0  0  0  0  0  0
   -6.7303    3.0893  -37.9304 C   0  0  0  0  0  0  0  0  0  0  0  0
   -6.2181    1.8363  -37.5886 C   0  0  0  0  0  0  0  0  0  0  0  0
   -6.6378    0.7146  -38.2913 C   0  0  0  0  0  0  0  0  0  0  0  0
   -7.5545    0.8120  -39.3437 C   0  0  0  0  0  0  0  0  0  0  0  0
   -8.0370    2.0824  -39.7175 C   0  0  0  0  0  0  0  0  0  0  0  0
   -8.2875    5.6230  -39.0441 N   0  0  0  0  0  0  0  0  0  0  0  0
   -7.2746    6.5129  -39.3859 C   0  0  0  0  0  0  0  0  0  0  0  0
   -6.4217    6.3117  -40.2405 O   0  0  0  0  0  0  0  0  0  0  0  0
   -7.3922    7.6654  -38.6208 N   0  0  0  0  0  0  0  0  0  0  0  0
   -9.1752    6.0721  -38.8760 H   0  0  0  0  0  0  0  0  0  0  0  0
   -7.9531    7.5654  -37.7876 H   0  0  0  0  0  0  0  0  0  0  0  0
   -6.6382    8.8499  -38.7343 C   0  0  0  0  0  0  0  0  0  0  0  0
   -6.9502    9.8955  -37.8554 C   0  0  0  0  0  0  0  0  0  0  0  0
   -6.2541   11.1086  -37.9103 C   0  0  0  0  0  0  0  0  0  0  0  0
   -5.2378   11.2909  -38.8530 C   0  0  0  0  0  0  0  0  0  0  0  0
   -4.9292   10.2532  -39.7375 C   0  0  0  0  0  0  0  0  0  0  0  0
   -5.6279    9.0408  -39.6791 C   0  0  0  0  0  0  0  0  0  0  0  0
   -4.4712   12.5561  -38.9532 C   0  0  0  0  0  0  0  0  0  0  0  0
   -3.8873   13.1128  -38.0422 O   0  0  0  0  0  0  0  0  0  0  0  0
   -4.4712   13.0682  -40.1971 O   0  0  0  0  0  0  0  0  0  0  0  0
   -3.9389   13.8870  -40.1098 H   0  0  0  0  0  0  0  0  0  0  0  0
  -10.3439    0.4223  -43.2915 N   0  0  0  0  0  0  0  0  0  0  0  0
   -9.3602    1.2701  -42.8678 C   0  0  0  0  0  0  0  0  0  0  0  0
   -9.6759    1.6085  -41.5688 C   0  0  0  0  0  0  0  0  0  0  0  0
  -10.8619    0.8936  -41.3047 C   0  0  0  0  0  0  0  0  0  0  0  0
  -11.2707    0.1692  -42.3510 N   0  0  0  0  0  0  0  0  0  0  0  0
  -10.4569   -0.1893  -44.6026 C   0  0  0  0  0  0  0  0  0  0  0  0
  -12.6566   -1.0122  -45.5038 C   0  0  0  0  0  0  0  0  0  0  0  0
  -11.4669   -1.3327  -44.6144 C   0  0  0  0  0  0  0  0  0  0  0  0
   -9.6910    4.7039  -41.7490 C   0  0  0  0  0  0  0  0  0  0  0  0
   -8.7274    5.0043  -42.8923 C   0  0  0  0  0  0  0  0  0  0  0  0
   -5.3240    1.5792  -36.5857 O   0  0  0  0  0  0  0  0  0  0  0  0
   -3.9896    1.2754  -36.9694 C   0  0  0  0  0  0  0  0  0  0  0  0
   -6.4362    3.9255  -37.4020 H   0  0  0  0  0  0  0  0  0  0  0  0
   -6.2651   -0.2120  -38.0314 H   0  0  0  0  0  0  0  0  0  0  0  0
   -7.8731   -0.0351  -39.8397 H   0  0  0  0  0  0  0  0  0  0  0  0
   -7.7019    9.7698  -37.1596 H   0  0  0  0  0  0  0  0  0  0  0  0
   -6.4913   11.8692  -37.2543 H   0  0  0  0  0  0  0  0  0  0  0  0
   -4.1820   10.3813  -40.4377 H   0  0  0  0  0  0  0  0  0  0  0  0
   -5.3943    8.2828  -40.3393 H   0  0  0  0  0  0  0  0  0  0  0  0
   -8.5442    1.5927  -43.4110 H   0  0  0  0  0  0  0  0  0  0  0  0
  -11.3603    0.9260  -40.4016 H   0  0  0  0  0  0  0  0  0  0  0  0
  -10.7692    0.5548  -45.3052 H   0  0  0  0  0  0  0  0  0  0  0  0
   -9.5000   -0.5907  -44.8638 H   0  0  0  0  0  0  0  0  0  0  0  0
  -13.3437   -1.8323  -45.4896 H   0  0  0  0  0  0  0  0  0  0  0  0
  -12.3188   -0.8472  -46.5056 H   0  0  0  0  0  0  0  0  0  0  0  0
  -13.1450   -0.1314  -45.1425 H   0  0  0  0  0  0  0  0  0  0  0  0
  -10.9875   -2.2169  -44.9794 H   0  0  0  0  0  0  0  0  0  0  0  0
  -11.8225   -1.4783  -43.6158 H   0  0  0  0  0  0  0  0  0  0  0  0
  -10.0252    5.6302  -41.3306 H   0  0  0  0  0  0  0  0  0  0  0  0
  -10.5035    4.1359  -42.1516 H   0  0  0  0  0  0  0  0  0  0  0  0
   -7.9006    5.5734  -42.5217 H   0  0  0  0  0  0  0  0  0  0  0  0
   -9.2355    5.5648  -43.6490 H   0  0  0  0  0  0  0  0  0  0  0  0
   -8.3701    4.0855  -43.3083 H   0  0  0  0  0  0  0  0  0  0  0  0
   -3.3991    1.0966  -36.0952 H   0  0  0  0  0  0  0  0  0  0  0  0
   -3.5790    2.0993  -37.5148 H   0  0  0  0  0  0  0  0  0  0  0  0
   -3.9862    0.4016  -37.5870 H   0  0  0  0  0  0  0  0  0  0  0  0
  1  2  1  0
  2 34  1  0
  2  3  2  0
  3 10  1  0
  3  4  1  0
  4  5  2  0
  5  6  1  0
  5 38  1  0
  6 36  1  0
  6  7  2  0
  7  8  1  0
  7 39  1  0
  8  9  2  0
  8 40  1  0
  9  1  1  0
  9  4  1  0
 10 11  1  0
 10 14  1  0
 11 12  2  0
 11 13  1  0
 13 16  1  0
 13 15  1  0
 16 17  2  0
 17 18  1  0
 17 41  1  0
 18 19  2  0
 18 42  1  0
 19 22  1  0
 19 20  1  0
 20 21  2  0
 20 43  1  0
 21 16  1  0
 21 44  1  0
 22 23  2  0
 22 24  1  0
 24 25  1  0
 26 27  1  0
 27 28  2  0
 27 45  1  0
 28  1  1  0
 28 29  1  0
 29 30  2  0
 29 46  1  0
 30 26  1  0
 31 26  1  0
 31 47  1  0
 31 48  1  0
 32 33  1  0
 32 49  1  0
 32 50  1  0
 32 51  1  0
 33 31  1  0
 33 52  1  0
 33 53  1  0
 34 35  1  0
 34 54  1  0
 34 55  1  0
 35 56  1  0
 35 57  1  0
 35 58  1  0
 36 37  1  0
 37 59  1  0
 37 60  1  0
 37 61  1  0
M  END
>  <minimizedAffinity>  (9) 
-9.09305

>  <mol_id>  (9) 
104039

>  <source_index>  (9) 
8

>  <layer>  (9) 
L2

>  <uniprot>  (9) 
Q13822

>  <paff>  (9) 
6.6326000000000001

>  <smiles>  (9) 
CCCn1cc(-n2c(CC)c(NC(=O)Nc3ccc(C(=O)O)cc3)c3cc(OC)ccc32)cn1

$$$$
L2:Q13822:136645
     RDKit          3D

 61 65  0  0  0  0  0  0  0  0999 V2000
   -9.7293    0.6805  -42.5819 N   0  0  0  0  0  0  0  0  0  0  0  0
   -9.5637    2.0491  -42.4878 C   0  0  0  0  0  0  0  0  0  0  0  0
   -9.0408    2.3814  -41.2543 C   0  0  0  0  0  0  0  0  0  0  0  0
   -8.6546    1.1482  -40.6548 C   0  0  0  0  0  0  0  0  0  0  0  0
   -7.9579    0.8048  -39.4201 C   0  0  0  0  0  0  0  0  0  0  0  0
   -7.3619    1.7855  -38.6118 C   0  0  0  0  0  0  0  0  0  0  0  0
   -6.7824    1.4549  -37.3878 C   0  0  0  0  0  0  0  0  0  0  0  0
   -6.7738    0.1343  -36.9660 C   0  0  0  0  0  0  0  0  0  0  0  0
   -7.3032   -0.8619  -37.7889 C   0  0  0  0  0  0  0  0  0  0  0  0
   -7.8688   -0.5526  -39.0393 C   0  0  0  0  0  0  0  0  0  0  0  0
   -8.2995   -1.5829  -39.9445 N   0  0  0  0  0  0  0  0  0  0  0  0
   -8.8385   -1.2873  -41.2138 C   0  0  0  0  0  0  0  0  0  0  0  0
   -9.0589   -2.1882  -42.0203 O   0  0  0  0  0  0  0  0  0  0  0  0
   -9.0836    0.1151  -41.4845 C   0  0  0  0  0  0  0  0  0  0  0  0
  -12.0428   -0.9030  -44.8426 N   0  0  0  0  0  0  0  0  0  0  0  0
  -11.7492   -0.5044  -43.5687 C   0  0  0  0  0  0  0  0  0  0  0  0
  -10.5058    0.0828  -43.6212 C   0  0  0  0  0  0  0  0  0  0  0  0
  -10.1643    0.0329  -44.9936 C   0  0  0  0  0  0  0  0  0  0  0  0
  -11.0994   -0.5636  -45.7385 N   0  0  0  0  0  0  0  0  0  0  0  0
  -13.2407   -1.5960  -45.2792 C   0  0  0  0  0  0  0  0  0  0  0  0
  -14.6400   -0.1582  -46.7955 C   0  0  0  0  0  0  0  0  0  0  0  0
  -13.5986   -1.2625  -46.7244 C   0  0  0  0  0  0  0  0  0  0  0  0
   -8.9689    3.7649  -40.7891 C   0  0  0  0  0  0  0  0  0  0  0  0
   -9.9824    4.4378  -40.6587 O   0  0  0  0  0  0  0  0  0  0  0  0
   -7.6824    4.1453  -40.4735 N   0  0  0  0  0  0  0  0  0  0  0  0
   -6.9622    3.4317  -40.5892 H   0  0  0  0  0  0  0  0  0  0  0  0
   -7.2071    5.3877  -39.9938 C   0  0  0  0  0  0  0  0  0  0  0  0
   -7.1027    5.6579  -38.6224 C   0  0  0  0  0  0  0  0  0  0  0  0
   -6.6343    6.8927  -38.1619 C   0  0  0  0  0  0  0  0  0  0  0  0
   -6.2633    7.8817  -39.0639 C   0  0  0  0  0  0  0  0  0  0  0  0
   -6.3616    7.6366  -40.4313 C   0  0  0  0  0  0  0  0  0  0  0  0
   -6.8308    6.3984  -40.9096 C   0  0  0  0  0  0  0  0  0  0  0  0
   -6.8996    6.2741  -42.3946 C   0  0  0  0  0  0  0  0  0  0  0  0
   -7.3347    5.3153  -43.0070 O   0  0  0  0  0  0  0  0  0  0  0  0
   -6.4232    7.3419  -43.0651 O   0  0  0  0  0  0  0  0  0  0  0  0
   -6.5312    7.0779  -44.0067 H   0  0  0  0  0  0  0  0  0  0  0  0
   -8.1124   -2.9978  -39.6139 C   0  0  0  0  0  0  0  0  0  0  0  0
   -9.3702   -3.6098  -39.0141 C   0  0  0  0  0  0  0  0  0  0  0  0
   -9.7972    2.7249  -43.2320 H   0  0  0  0  0  0  0  0  0  0  0  0
   -7.3526    2.7675  -38.9289 H   0  0  0  0  0  0  0  0  0  0  0  0
   -6.3616    2.1900  -36.7982 H   0  0  0  0  0  0  0  0  0  0  0  0
   -6.3770   -0.1120  -36.0457 H   0  0  0  0  0  0  0  0  0  0  0  0
   -7.2791   -1.8443  -37.4736 H   0  0  0  0  0  0  0  0  0  0  0  0
  -12.3428   -0.6208  -42.7325 H   0  0  0  0  0  0  0  0  0  0  0  0
   -9.2867    0.4163  -45.3780 H   0  0  0  0  0  0  0  0  0  0  0  0
  -13.0789   -2.6506  -45.1978 H   0  0  0  0  0  0  0  0  0  0  0  0
  -14.0513   -1.2799  -44.6563 H   0  0  0  0  0  0  0  0  0  0  0  0
  -14.8684    0.0513  -47.8196 H   0  0  0  0  0  0  0  0  0  0  0  0
  -14.2564    0.7244  -46.3279 H   0  0  0  0  0  0  0  0  0  0  0  0
  -15.5285   -0.4727  -46.2891 H   0  0  0  0  0  0  0  0  0  0  0  0
  -12.7156   -0.9422  -47.2370 H   0  0  0  0  0  0  0  0  0  0  0  0
  -14.0054   -2.1399  -47.1823 H   0  0  0  0  0  0  0  0  0  0  0  0
   -7.3762    4.9331  -37.9406 H   0  0  0  0  0  0  0  0  0  0  0  0
   -6.5640    7.0698  -37.1476 H   0  0  0  0  0  0  0  0  0  0  0  0
   -5.9171    8.7922  -38.7230 H   0  0  0  0  0  0  0  0  0  0  0  0
   -6.0872    8.3714  -41.1020 H   0  0  0  0  0  0  0  0  0  0  0  0
   -7.3138   -3.0856  -38.9072 H   0  0  0  0  0  0  0  0  0  0  0  0
   -7.8858   -3.5232  -40.5181 H   0  0  0  0  0  0  0  0  0  0  0  0
   -9.6173   -3.0995  -38.1067 H   0  0  0  0  0  0  0  0  0  0  0  0
   -9.1986   -4.6452  -38.8057 H   0  0  0  0  0  0  0  0  0  0  0  0
  -10.1789   -3.5149  -39.7082 H   0  0  0  0  0  0  0  0  0  0  0  0
  1  2  1  0
  2  3  2  0
  2 39  1  0
  3 23  1  0
  3  4  1  0
  4  5  1  0
  5  6  2  0
  6  7  1  0
  6 40  1  0
  7  8  2  0
  7 41  1  0
  8  9  1  0
  8 42  1  0
  9 10  2  0
  9 43  1  0
 10 11  1  0
 10  5  1  0
 11 37  1  0
 11 12  1  0
 12 13  2  0
 12 14  1  0
 14  1  1  0
 14  4  2  0
 15 16  1  0
 16 17  2  0
 16 44  1  0
 17  1  1  0
 17 18  1  0
 18 19  2  0
 18 45  1  0
 19 15  1  0
 20 15  1  0
 20 46  1  0
 20 47  1  0
 21 22  1  0
 21 48  1  0
 21 49  1  0
 21 50  1  0
 22 20  1  0
 22 51  1  0
 22 52  1  0
 23 24  2  0
 23 25  1  0
 25 27  1  0
 25 26  1  0
 27 28  2  0
 28 29  1  0
 28 53  1  0
 29 30  2  0
 29 54  1  0
 30 31  1  0
 30 55  1  0
 31 32  2  0
 31 56  1  0
 32 33  1  0
 32 27  1  0
 33 34  2  0
 33 35  1  0
 35 36  1  0
 37 38  1  0
 37 57  1  0
 37 58  1  0
 38 59  1  0
 38 60  1  0
 38 61  1  0
M  END
>  <minimizedAffinity>  (10) 
-9.12957

>  <mol_id>  (10) 
136645

>  <source_index>  (10) 
9

>  <layer>  (10) 
L2

>  <uniprot>  (10) 
Q13822

>  <paff>  (10) 
6.9355000000000002

>  <smiles>  (10) 
CCCn1cc(-n2cc(C(=O)Nc3ccccc3C(=O)O)c3c4ccccc4n(CC)c(=O)c32)cn1

$$$$
