L3:Q9Y4K4:1811
     RDKit          3D

 48 51  0  0  0  0  0  0  0  0999 V2000
   -8.3732   12.8598   -7.7815 C   0  0  0  0  0  0  0  0  0  0  0  0
   -7.1402   13.5047   -7.7012 C   0  0  0  0  0  0  0  0  0  0  0  0
   -6.9608   14.7349   -8.3304 C   0  0  0  0  0  0  0  0  0  0  0  0
   -8.0251   15.3128   -9.0217 C   0  0  0  0  0  0  0  0  0  0  0  0
   -9.2204   14.6059   -9.0310 C   0  0  0  0  0  0  0  0  0  0  0  0
  -10.2740   15.1240   -9.6828 F   0  0  0  0  0  0  0  0  0  0  0  0
   -9.4123   13.4077   -8.4353 N   0  0  0  0  0  0  0  0  0  0  0  0
   -8.5188   11.6357   -7.1053 N   0  0  0  0  0  0  0  0  0  0  0  0
   -7.7142   11.4939   -6.5010 H   0  0  0  0  0  0  0  0  0  0  0  0
   -8.7192   10.4870   -7.9859 C   0  0  0  0  0  0  0  0  0  0  0  0
   -6.3114    9.6613   -7.8964 C   0  0  0  0  0  0  0  0  0  0  0  0
   -5.1186    9.3329   -8.4508 N   0  0  0  0  0  0  0  0  0  0  0  0
   -5.0086    9.4770   -9.7924 C   0  0  0  0  0  0  0  0  0  0  0  0
   -6.0346    9.9278  -10.6000 C   0  0  0  0  0  0  0  0  0  0  0  0
   -5.8634   10.0441  -11.9222 F   0  0  0  0  0  0  0  0  0  0  0  0
   -7.2466   10.2576  -10.0171 C   0  0  0  0  0  0  0  0  0  0  0  0
   -7.4042   10.1297   -8.6281 C   0  0  0  0  0  0  0  0  0  0  0  0
   -5.8728    8.3305   -6.0146 C   0  0  0  0  0  0  0  0  0  0  0  0
   -6.4730    9.5132   -6.5338 O   0  0  0  0  0  0  0  0  0  0  0  0
   -7.9049   16.6384   -9.7150 C   0  0  0  0  0  0  0  0  0  0  0  0
   -7.9910   16.3529  -11.1791 C   0  0  0  0  0  0  0  0  0  0  0  0
   -8.8906   16.9080  -12.0779 C   0  0  0  0  0  0  0  0  0  0  0  0
   -8.6411   16.3854  -13.3200 N   0  0  0  0  0  0  0  0  0  0  0  0
   -7.6142   15.4885  -13.2477 C   0  0  0  0  0  0  0  0  0  0  0  0
   -7.1401   14.7937  -14.2971 N   0  0  0  0  0  0  0  0  0  0  0  0
   -6.1224   13.9669  -13.9626 C   0  0  0  0  0  0  0  0  0  0  0  0
   -5.5733   13.8127  -12.6903 C   0  0  0  0  0  0  0  0  0  0  0  0
   -4.4692   12.8334  -12.4425 C   0  0  0  0  0  0  0  0  0  0  0  0
   -6.1239   14.5554  -11.6379 C   0  0  0  0  0  0  0  0  0  0  0  0
   -7.1822   15.4359  -11.9276 C   0  0  0  0  0  0  0  0  0  0  0  0
   -9.1295   16.6061  -14.1750 H   0  0  0  0  0  0  0  0  0  0  0  0
   -6.3629   13.0726   -7.1776 H   0  0  0  0  0  0  0  0  0  0  0  0
   -6.0480   15.2143   -8.2852 H   0  0  0  0  0  0  0  0  0  0  0  0
   -9.0782    9.6557   -7.4159 H   0  0  0  0  0  0  0  0  0  0  0  0
   -9.4375   10.7298   -8.7409 H   0  0  0  0  0  0  0  0  0  0  0  0
   -4.1084    9.2368  -10.2363 H   0  0  0  0  0  0  0  0  0  0  0  0
   -8.0286   10.5951  -10.5998 H   0  0  0  0  0  0  0  0  0  0  0  0
   -6.0367    8.2815   -4.9584 H   0  0  0  0  0  0  0  0  0  0  0  0
   -4.8213    8.3480   -6.2119 H   0  0  0  0  0  0  0  0  0  0  0  0
   -6.3095    7.4735   -6.4835 H   0  0  0  0  0  0  0  0  0  0  0  0
   -6.9662   17.0956   -9.4809 H   0  0  0  0  0  0  0  0  0  0  0  0
   -8.6753   17.3125   -9.4034 H   0  0  0  0  0  0  0  0  0  0  0  0
   -9.6236   17.5977  -11.8497 H   0  0  0  0  0  0  0  0  0  0  0  0
   -5.7145   13.3971  -14.7202 H   0  0  0  0  0  0  0  0  0  0  0  0
   -4.1886   12.3712  -13.3658 H   0  0  0  0  0  0  0  0  0  0  0  0
   -4.8043   12.0842  -11.7560 H   0  0  0  0  0  0  0  0  0  0  0  0
   -3.6253   13.3446  -12.0286 H   0  0  0  0  0  0  0  0  0  0  0  0
   -5.7629   14.4592  -10.6759 H   0  0  0  0  0  0  0  0  0  0  0  0
  1  2  2  0
  2  3  1  0
  2 32  1  0
  3  4  2  0
  3 33  1  0
  4 20  1  0
  4  5  1  0
  5  6  1  0
  5  7  2  0
  7  1  1  0
  8  1  1  0
  8  9  1  0
 10  8  1  0
 10 34  1  0
 10 35  1  0
 11 12  2  0
 12 13  1  0
 13 14  2  0
 13 36  1  0
 14 15  1  0
 14 16  1  0
 16 17  2  0
 16 37  1  0
 17 10  1  0
 17 11  1  0
 18 19  1  0
 18 38  1  0
 18 39  1  0
 18 40  1  0
 19 11  1  0
 20 21  1  0
 20 41  1  0
 20 42  1  0
 21 22  2  0
 22 23  1  0
 22 43  1  0
 23 24  1  0
 23 31  1  0
 24 25  2  0
 25 26  1  0
 26 27  2  0
 26 44  1  0
 27 28  1  0
 27 29  1  0
 28 45  1  0
 28 46  1  0
 28 47  1  0
 29 30  2  0
 29 48  1  0
 30 21  1  0
 30 24  1  0
M  END
>  <minimizedAffinity>  (1) 
-8.60208

>  <mol_id>  (1) 
1811

>  <source_index>  (1) 
0

>  <layer>  (1) 
L3

>  <uniprot>  (1) 
Q9Y4K4

>  <paff>  (1) 
6

>  <smiles>  (1) 
COc1ncc(F)cc1CNc1ccc(Cc2c[nH]c3ncc(C)cc23)c(F)n1

$$$$
L3:Q9Y4K4:1812
     RDKit          3D

 61 68  0  0  0  0  0  0  0  0999 V2000
   -4.0063   11.1541   -8.4700 C   0  0  0  0  0  0  0  0  0  0  0  0
   -5.4318   11.6653   -8.7866 C   0  0  1  0  0  0  0  0  0  0  0  0
   -6.4535   10.4844   -8.6729 C   0  0  1  0  0  0  0  0  0  0  0  0
   -6.8894   10.3602   -7.1914 C   0  0  1  0  0  0  0  0  0  0  0  0
   -7.6506   11.6400   -6.8214 C   0  0  0  0  0  0  0  0  0  0  0  0
   -6.8811   12.9030   -7.2290 C   0  0  1  0  0  0  0  0  0  0  0  0
   -5.5727   12.6601   -7.7419 O   0  0  0  0  0  0  0  0  0  0  0  0
   -7.6000   13.8496   -8.0735 N   0  0  0  0  0  0  0  0  0  0  0  0
   -8.5948   14.7077   -7.6281 C   0  0  0  0  0  0  0  0  0  0  0  0
   -9.2268   14.8096   -6.3753 C   0  0  0  0  0  0  0  0  0  0  0  0
  -10.2044   15.7917   -6.2018 C   0  0  0  0  0  0  0  0  0  0  0  0
  -10.5426   16.6493   -7.2404 C   0  0  0  0  0  0  0  0  0  0  0  0
   -9.9093   16.5444   -8.4831 C   0  0  0  0  0  0  0  0  0  0  0  0
   -8.9173   15.5625   -8.6958 C   0  0  0  0  0  0  0  0  0  0  0  0
   -8.0991   15.1923   -9.8072 C   0  0  0  0  0  0  0  0  0  0  0  0
   -7.3266   14.1264   -9.3771 C   0  0  0  0  0  0  0  0  0  0  0  0
   -6.3228   13.4193  -10.3364 C   0  0  0  0  0  0  0  0  0  0  0  0
   -5.5116   12.3394  -10.0957 N   0  0  0  0  0  0  0  0  0  0  0  0
   -4.9187   11.9658  -11.3017 C   0  0  0  0  0  0  0  0  0  0  0  0
   -4.1156   10.8693  -11.6696 C   0  0  0  0  0  0  0  0  0  0  0  0
   -3.6281   10.7892  -12.9785 C   0  0  0  0  0  0  0  0  0  0  0  0
   -3.9366   11.7626  -13.9167 C   0  0  0  0  0  0  0  0  0  0  0  0
   -4.7632   12.8322  -13.5707 C   0  0  0  0  0  0  0  0  0  0  0  0
   -5.2737   12.9375  -12.2577 C   0  0  0  0  0  0  0  0  0  0  0  0
   -6.1850   13.8387  -11.6419 C   0  0  0  0  0  0  0  0  0  0  0  0
   -6.9583   14.9446  -12.0323 C   0  0  0  0  0  0  0  0  0  0  0  0
   -7.8749   15.5800  -11.1373 C   0  0  0  0  0  0  0  0  0  0  0  0
   -8.5198   16.6702  -11.8848 C   0  0  0  0  0  0  0  0  0  0  0  0
   -9.3582   17.4557  -11.4915 O   0  0  0  0  0  0  0  0  0  0  0  0
   -7.9962   16.6587  -13.1592 N   0  0  0  0  0  0  0  0  0  0  0  0
   -7.0251   15.6224  -13.3685 C   0  0  0  0  0  0  0  0  0  0  0  0
   -8.3061   17.3264  -13.8516 H   0  0  0  0  0  0  0  0  0  0  0  0
   -7.7036    9.1466   -6.9602 N   0  0  0  0  0  0  0  0  0  0  0  0
   -7.0348    7.9163   -7.3629 C   0  0  0  0  0  0  0  0  0  0  0  0
   -8.5865    9.2203   -7.4644 H   0  0  0  0  0  0  0  0  0  0  0  0
   -7.6347   10.7506   -9.4565 O   0  0  0  0  0  0  0  0  0  0  0  0
   -7.7403    9.9399  -10.6166 C   0  0  0  0  0  0  0  0  0  0  0  0
   -4.0035   10.6751   -7.5132 H   0  0  0  0  0  0  0  0  0  0  0  0
   -3.3259   11.9798   -8.4576 H   0  0  0  0  0  0  0  0  0  0  0  0
   -3.7037   10.4538   -9.2203 H   0  0  0  0  0  0  0  0  0  0  0  0
   -5.9867    9.5893   -9.0277 H   0  0  0  0  0  0  0  0  0  0  0  0
   -6.0296   10.2545   -6.5633 H   0  0  0  0  0  0  0  0  0  0  0  0
   -7.8056   11.6562   -5.7628 H   0  0  0  0  0  0  0  0  0  0  0  0
   -8.5819   11.6353   -7.3483 H   0  0  0  0  0  0  0  0  0  0  0  0
   -6.7724   13.3879   -6.2814 H   0  0  0  0  0  0  0  0  0  0  0  0
   -8.9740   14.1737   -5.6028 H   0  0  0  0  0  0  0  0  0  0  0  0
  -10.6812   15.8812   -5.2909 H   0  0  0  0  0  0  0  0  0  0  0  0
  -11.2669   17.3697   -7.0942 H   0  0  0  0  0  0  0  0  0  0  0  0
  -10.1682   17.1874   -9.2477 H   0  0  0  0  0  0  0  0  0  0  0  0
   -3.8893   10.1337  -10.9821 H   0  0  0  0  0  0  0  0  0  0  0  0
   -3.0297    9.9934  -13.2500 H   0  0  0  0  0  0  0  0  0  0  0  0
   -3.5540   11.6958  -14.8728 H   0  0  0  0  0  0  0  0  0  0  0  0
   -5.0020   13.5475  -14.2752 H   0  0  0  0  0  0  0  0  0  0  0  0
   -6.0752   16.0347  -13.6380 H   0  0  0  0  0  0  0  0  0  0  0  0
   -7.2848   14.9571  -14.1653 H   0  0  0  0  0  0  0  0  0  0  0  0
   -6.1057    7.8277   -6.8397 H   0  0  0  0  0  0  0  0  0  0  0  0
   -6.8500    7.9392   -8.4166 H   0  0  0  0  0  0  0  0  0  0  0  0
   -7.6576    7.0785   -7.1282 H   0  0  0  0  0  0  0  0  0  0  0  0
   -8.6354   10.1905  -11.1466 H   0  0  0  0  0  0  0  0  0  0  0  0
   -7.7721    8.9095  -10.3300 H   0  0  0  0  0  0  0  0  0  0  0  0
   -6.8930   10.1085  -11.2479 H   0  0  0  0  0  0  0  0  0  0  0  0
  1 38  1  0
  1 39  1  0
  1 40  1  0
  2  1  1  1
  2  3  1  0
  3  4  1  0
  3 36  1  0
  3 41  1  6
  4  5  1  0
  4 33  1  0
  4 42  1  1
  5  6  1  0
  5 43  1  0
  5 44  1  0
  6  7  1  0
  6  8  1  0
  6 45  1  1
  7  2  1  0
  8  9  1  0
  9 10  2  0
 10 11  1  0
 10 46  1  0
 11 12  2  0
 11 47  1  0
 12 13  1  0
 12 48  1  0
 13 14  2  0
 13 49  1  0
 14 15  1  0
 14  9  1  0
 15 16  2  0
 16 17  1  0
 16  8  1  0
 17 18  1  0
 18 19  1  0
 18  2  1  0
 19 20  2  0
 20 21  1  0
 20 50  1  0
 21 22  2  0
 21 51  1  0
 22 23  1  0
 22 52  1  0
 23 24  2  0
 23 53  1  0
 24 25  1  0
 24 19  1  0
 25 26  1  0
 25 17  2  0
 26 27  2  0
 27 28  1  0
 27 15  1  0
 28 29  2  0
 28 30  1  0
 30 31  1  0
 30 32  1  0
 31 26  1  0
 31 54  1  0
 31 55  1  0
 33 34  1  0
 33 35  1  0
 34 56  1  0
 34 57  1  0
 34 58  1  0
 36 37  1  0
 37 59  1  0
 37 60  1  0
 37 61  1  0
M  END
>  <minimizedAffinity>  (2) 
-12.32757

>  <mol_id>  (2) 
1812

>  <source_index>  (2) 
1

>  <layer>  (2) 
L3

>  <uniprot>  (2) 
Q9Y4K4

>  <paff>  (2) 
8.5085999999999995

>  <smiles>  (2) 
C[C@@]12[C@@H]([C@@H](C[C@@H](O1)n3c4ccccc4c5c3c6n2c7ccccc7c6c8c5C(=O)NC8)NC)OC

$$$$
L3:Q9Y4K4:1813
     RDKit          3D

 69 73  0  0  0  0  0  0  0  0999 V2000
   -5.7200    9.8792   -7.2477 N   0  0  0  0  0  0  0  0  0  0  0  0
   -5.7702    8.6023   -6.7150 C   0  0  0  0  0  0  0  0  0  0  0  0
   -6.7782    8.0712   -6.2667 O   0  0  0  0  0  0  0  0  0  0  0  0
   -4.5211    7.9979   -6.7748 N   0  0  0  0  0  0  0  0  0  0  0  0
   -4.8068   10.3064   -7.3312 H   0  0  0  0  0  0  0  0  0  0  0  0
   -3.8020    8.4424   -7.3260 H   0  0  0  0  0  0  0  0  0  0  0  0
   -9.0162   12.4180   -7.9661 C   0  0  0  0  0  0  0  0  0  0  0  0
   -8.2000   12.6581   -6.8585 C   0  0  0  0  0  0  0  0  0  0  0  0
   -7.1031   11.8316   -6.5882 C   0  0  0  0  0  0  0  0  0  0  0  0
   -6.8049   10.7654   -7.4352 C   0  0  0  0  0  0  0  0  0  0  0  0
   -7.6333   10.5427   -8.5440 C   0  0  0  0  0  0  0  0  0  0  0  0
   -7.3616    9.5200   -9.3712 F   0  0  0  0  0  0  0  0  0  0  0  0
   -8.7243   11.3607   -8.8254 C   0  0  0  0  0  0  0  0  0  0  0  0
  -10.0388   13.3162   -8.1658 O   0  0  0  0  0  0  0  0  0  0  0  0
   -8.8633   16.0152  -10.2610 C   0  0  0  0  0  0  0  0  0  0  0  0
   -9.2329   14.7409   -9.8655 C   0  0  0  0  0  0  0  0  0  0  0  0
   -9.7146   14.5873   -8.5726 C   0  0  0  0  0  0  0  0  0  0  0  0
   -9.7753   15.6782   -7.7088 C   0  0  0  0  0  0  0  0  0  0  0  0
   -9.3842   16.9125   -8.1976 C   0  0  0  0  0  0  0  0  0  0  0  0
   -8.9376   17.1159   -9.4553 N   0  0  0  0  0  0  0  0  0  0  0  0
   -6.6563   15.5093  -13.2871 C   0  0  0  0  0  0  0  0  0  0  0  0
   -7.3391   15.3850  -12.0279 N   0  0  0  0  0  0  0  0  0  0  0  0
   -8.3512   16.2419  -11.6504 C   0  0  0  0  0  0  0  0  0  0  0  0
   -8.8046   17.1281  -12.3640 O   0  0  0  0  0  0  0  0  0  0  0  0
   -6.9835   14.7654  -11.3033 H   0  0  0  0  0  0  0  0  0  0  0  0
   -4.2289    6.7975   -6.1350 C   0  0  0  0  0  0  0  0  0  0  0  0
   -4.0111    6.5396   -4.7976 C   0  0  0  0  0  0  0  0  0  0  0  0
   -3.4970    5.2250   -4.7298 C   0  0  0  0  0  0  0  0  0  0  0  0
   -3.4309    4.6768   -5.9474 N   0  0  0  0  0  0  0  0  0  0  0  0
   -4.0178    5.5770   -6.7799 N   0  0  0  0  0  0  0  0  0  0  0  0
   -4.3482    5.1773   -8.1093 C   0  0  0  0  0  0  0  0  0  0  0  0
   -5.6722    5.0688   -8.5405 C   0  0  0  0  0  0  0  0  0  0  0  0
   -5.9499    4.6541   -9.8506 C   0  0  0  0  0  0  0  0  0  0  0  0
   -4.9436    4.3233  -10.7467 C   0  0  0  0  0  0  0  0  0  0  0  0
   -5.2685    3.9292  -11.9903 N   0  0  0  0  0  0  0  0  0  0  0  0
   -4.2640    3.5920  -12.8297 C   0  0  0  0  0  0  0  0  0  0  0  0
   -2.9251    3.6346  -12.4877 C   0  0  0  0  0  0  0  0  0  0  0  0
   -2.5948    4.0467  -11.2029 C   0  0  0  0  0  0  0  0  0  0  0  0
   -3.6076    4.4016  -10.3028 C   0  0  0  0  0  0  0  0  0  0  0  0
   -3.3180    4.8190   -8.9908 C   0  0  0  0  0  0  0  0  0  0  0  0
   -3.0190    4.4825   -3.4918 C   0  0  0  0  0  0  0  0  0  0  0  0
   -3.1369    2.9611   -3.7158 C   0  0  0  0  0  0  0  0  0  0  0  0
   -1.5462    4.8001   -3.1529 C   0  0  0  0  0  0  0  0  0  0  0  0
   -3.8815    4.8762   -2.2750 C   0  0  0  0  0  0  0  0  0  0  0  0
   -8.4076   13.4525   -6.2333 H   0  0  0  0  0  0  0  0  0  0  0  0
   -6.5140   12.0119   -5.7603 H   0  0  0  0  0  0  0  0  0  0  0  0
   -9.3082   11.1865   -9.6583 H   0  0  0  0  0  0  0  0  0  0  0  0
   -9.1534   13.9364  -10.5070 H   0  0  0  0  0  0  0  0  0  0  0  0
  -10.1014   15.5696   -6.7357 H   0  0  0  0  0  0  0  0  0  0  0  0
   -9.4370   17.7250   -7.5635 H   0  0  0  0  0  0  0  0  0  0  0  0
   -7.1812   16.2027  -13.9105 H   0  0  0  0  0  0  0  0  0  0  0  0
   -6.6190   14.5544  -13.7684 H   0  0  0  0  0  0  0  0  0  0  0  0
   -5.6606   15.8633  -13.1195 H   0  0  0  0  0  0  0  0  0  0  0  0
   -4.1879    7.1779   -4.0062 H   0  0  0  0  0  0  0  0  0  0  0  0
   -6.4455    5.2937   -7.8952 H   0  0  0  0  0  0  0  0  0  0  0  0
   -6.9332    4.5930  -10.1580 H   0  0  0  0  0  0  0  0  0  0  0  0
   -4.5114    3.2843  -13.7832 H   0  0  0  0  0  0  0  0  0  0  0  0
   -2.1940    3.3686  -13.1657 H   0  0  0  0  0  0  0  0  0  0  0  0
   -1.6056    4.0913  -10.9123 H   0  0  0  0  0  0  0  0  0  0  0  0
   -2.3369    4.8620   -8.6737 H   0  0  0  0  0  0  0  0  0  0  0  0
   -2.5417    2.6775   -4.5585 H   0  0  0  0  0  0  0  0  0  0  0  0
   -4.1596    2.7058   -3.8994 H   0  0  0  0  0  0  0  0  0  0  0  0
   -2.7912    2.4445   -2.8449 H   0  0  0  0  0  0  0  0  0  0  0  0
   -0.9243    4.5358   -3.9825 H   0  0  0  0  0  0  0  0  0  0  0  0
   -1.2494    4.2389   -2.2916 H   0  0  0  0  0  0  0  0  0  0  0  0
   -1.4444    5.8457   -2.9498 H   0  0  0  0  0  0  0  0  0  0  0  0
   -4.9097    4.6659   -2.4836 H   0  0  0  0  0  0  0  0  0  0  0  0
   -3.7641    5.9213   -2.0777 H   0  0  0  0  0  0  0  0  0  0  0  0
   -3.5690    4.3145   -1.4196 H   0  0  0  0  0  0  0  0  0  0  0  0
  1  2  1  0
  1  5  1  0
  2  3  2  0
  2  4  1  0
  4 26  1  0
  4  6  1  0
  7  8  2  0
  8  9  1  0
  8 45  1  0
  9 10  2  0
  9 46  1  0
 10  1  1  0
 10 11  1  0
 11 12  1  0
 11 13  2  0
 13  7  1  0
 13 47  1  0
 14  7  1  0
 15 16  2  0
 16 17  1  0
 16 48  1  0
 17 14  1  0
 17 18  2  0
 18 19  1  0
 18 49  1  0
 19 20  2  0
 19 50  1  0
 20 15  1  0
 21 22  1  0
 21 51  1  0
 21 52  1  0
 21 53  1  0
 22 23  1  0
 22 25  1  0
 23 24  2  0
 23 15  1  0
 26 27  2  0
 27 28  1  0
 27 54  1  0
 28 29  2  0
 28 41  1  0
 29 30  1  0
 30 31  1  0
 30 26  1  0
 31 32  2  0
 32 33  1  0
 32 55  1  0
 33 34  2  0
 33 56  1  0
 34 35  1  0
 35 36  2  0
 36 37  1  0
 36 57  1  0
 37 38  2  0
 37 58  1  0
 38 39  1  0
 38 59  1  0
 39 40  2  0
 39 34  1  0
 40 31  1  0
 40 60  1  0
 41 42  1  0
 41 43  1  0
 41 44  1  0
 42 61  1  0
 42 62  1  0
 42 63  1  0
 43 64  1  0
 43 65  1  0
 43 66  1  0
 44 67  1  0
 44 68  1  0
 44 69  1  0
M  END
>  <minimizedAffinity>  (3) 
-8.77846

>  <mol_id>  (3) 
1813

>  <source_index>  (3) 
2

>  <layer>  (3) 
L3

>  <uniprot>  (3) 
Q9Y4K4

>  <paff>  (3) 
7.0044000000000004

>  <smiles>  (3) 
CNC(=O)c1cc(Oc2ccc(NC(=O)Nc3cc(nn3-c3ccc4ncccc4c3)C(C)(C)C)c(F)c2)ccn1

$$$$
L3:Q9Y4K4:16994
     RDKit          3D

 68 72  0  0  0  0  0  0  0  0999 V2000
   -4.2229    7.6410   -7.8804 C   0  0  0  0  0  0  0  0  0  0  0  0
   -5.5063    8.1617   -7.6809 C   0  0  0  0  0  0  0  0  0  0  0  0
   -6.0055    9.2569   -8.4315 C   0  0  0  0  0  0  0  0  0  0  0  0
   -5.1830    9.8414   -9.4236 C   0  0  0  0  0  0  0  0  0  0  0  0
   -5.5871   10.8815  -10.1786 N   0  0  0  0  0  0  0  0  0  0  0  0
   -4.7711   11.4046  -11.1060 C   0  0  0  0  0  0  0  0  0  0  0  0
   -3.5272   10.9649  -11.3225 N   0  0  0  0  0  0  0  0  0  0  0  0
   -3.1237    9.9240  -10.5755 C   0  0  0  0  0  0  0  0  0  0  0  0
   -3.9008    9.3114   -9.6078 C   0  0  0  0  0  0  0  0  0  0  0  0
   -3.4216    8.2265   -8.8542 C   0  0  0  0  0  0  0  0  0  0  0  0
   -3.4769    5.0326   -5.4974 N   0  0  0  0  0  0  0  0  0  0  0  0
   -4.2163    6.1198   -5.8751 C   0  0  0  0  0  0  0  0  0  0  0  0
   -3.7309    6.5157   -7.1048 C   0  0  0  0  0  0  0  0  0  0  0  0
   -2.6779    5.6065   -7.3602 C   0  0  0  0  0  0  0  0  0  0  0  0
   -2.5150    4.7144   -6.3807 N   0  0  0  0  0  0  0  0  0  0  0  0
   -3.6054    4.2863   -4.2639 C   0  0  0  0  0  0  0  0  0  0  0  0
   -2.2369    3.7292   -2.1858 C   0  0  0  0  0  0  0  0  0  0  0  0
   -2.8089    4.8421   -3.0664 C   0  0  0  0  0  0  0  0  0  0  0  0
   -3.6260    5.8196   -2.2154 C   0  0  0  0  0  0  0  0  0  0  0  0
   -1.6758    5.5638   -3.5882 O   0  0  0  0  0  0  0  0  0  0  0  0
   -1.9842    6.4130   -3.9479 H   0  0  0  0  0  0  0  0  0  0  0  0
   -7.4216    9.7969   -8.1718 C   0  0  0  0  0  0  0  0  0  0  0  0
   -8.3613    8.8368   -7.4165 C   0  0  0  0  0  0  0  0  0  0  0  0
   -7.3913   11.1191   -7.3818 C   0  0  0  0  0  0  0  0  0  0  0  0
   -8.0525    9.9976   -9.4423 O   0  0  0  0  0  0  0  0  0  0  0  0
   -8.7712   10.6381   -9.3183 H   0  0  0  0  0  0  0  0  0  0  0  0
   -5.1521   12.4908  -11.8897 N   0  0  0  0  0  0  0  0  0  0  0  0
   -4.8540   12.3229  -12.8396 H   0  0  0  0  0  0  0  0  0  0  0  0
   -6.0206   13.5679  -11.6776 C   0  0  0  0  0  0  0  0  0  0  0  0
   -6.2235   14.5946  -12.6218 C   0  0  0  0  0  0  0  0  0  0  0  0
   -7.1392   15.6282  -12.3978 C   0  0  0  0  0  0  0  0  0  0  0  0
   -7.8554   15.6039  -11.2178 C   0  0  0  0  0  0  0  0  0  0  0  0
   -7.6943   14.6113  -10.2759 C   0  0  0  0  0  0  0  0  0  0  0  0
   -6.7847   13.5844  -10.4941 C   0  0  0  0  0  0  0  0  0  0  0  0
   -8.6107   14.8710   -9.1342 C   0  0  0  0  0  0  0  0  0  0  0  0
   -9.6609   13.7765   -8.9646 C   0  0  0  0  0  0  0  0  0  0  0  0
   -7.8614   15.1403   -7.8319 C   0  0  0  0  0  0  0  0  0  0  0  0
   -9.2848   16.0920   -9.5333 O   0  0  0  0  0  0  0  0  0  0  0  0
   -8.8632   16.5453  -10.7519 C   0  0  0  0  0  0  0  0  0  0  0  0
   -9.2548   17.5365  -11.3335 O   0  0  0  0  0  0  0  0  0  0  0  0
   -6.1110    7.7338   -6.9623 H   0  0  0  0  0  0  0  0  0  0  0  0
   -2.1721    9.5571  -10.7334 H   0  0  0  0  0  0  0  0  0  0  0  0
   -2.4709    7.8628   -9.0242 H   0  0  0  0  0  0  0  0  0  0  0  0
   -4.9857    6.5578   -5.3448 H   0  0  0  0  0  0  0  0  0  0  0  0
   -2.0973    5.6303   -8.2131 H   0  0  0  0  0  0  0  0  0  0  0  0
   -4.6405    4.2721   -3.9934 H   0  0  0  0  0  0  0  0  0  0  0  0
   -3.1986    3.3169   -4.4631 H   0  0  0  0  0  0  0  0  0  0  0  0
   -1.6946    4.1621   -1.3713 H   0  0  0  0  0  0  0  0  0  0  0  0
   -1.5792    3.1171   -2.7669 H   0  0  0  0  0  0  0  0  0  0  0  0
   -3.0369    3.1302   -1.8035 H   0  0  0  0  0  0  0  0  0  0  0  0
   -3.0263    6.1721   -1.4024 H   0  0  0  0  0  0  0  0  0  0  0  0
   -4.4908    5.3207   -1.8306 H   0  0  0  0  0  0  0  0  0  0  0  0
   -3.9315    6.6486   -2.8189 H   0  0  0  0  0  0  0  0  0  0  0  0
   -7.9584    8.6331   -6.4464 H   0  0  0  0  0  0  0  0  0  0  0  0
   -8.4520    7.9221   -7.9643 H   0  0  0  0  0  0  0  0  0  0  0  0
   -9.3259    9.2886   -7.3145 H   0  0  0  0  0  0  0  0  0  0  0  0
   -6.9186   10.9584   -6.4354 H   0  0  0  0  0  0  0  0  0  0  0  0
   -8.3919   11.4648   -7.2265 H   0  0  0  0  0  0  0  0  0  0  0  0
   -6.8424   11.8525   -7.9347 H   0  0  0  0  0  0  0  0  0  0  0  0
   -5.6828   14.5835  -13.5007 H   0  0  0  0  0  0  0  0  0  0  0  0
   -7.2745   16.3818  -13.0898 H   0  0  0  0  0  0  0  0  0  0  0  0
   -6.6691   12.8367   -9.7922 H   0  0  0  0  0  0  0  0  0  0  0  0
   -9.1826   12.8659   -8.6697 H   0  0  0  0  0  0  0  0  0  0  0  0
  -10.1727   13.6264   -9.8922 H   0  0  0  0  0  0  0  0  0  0  0  0
  -10.3636   14.0699   -8.2130 H   0  0  0  0  0  0  0  0  0  0  0  0
   -7.3565   14.2499   -7.5202 H   0  0  0  0  0  0  0  0  0  0  0  0
   -8.5567   15.4393   -7.0756 H   0  0  0  0  0  0  0  0  0  0  0  0
   -7.1457   15.9205   -7.9870 H   0  0  0  0  0  0  0  0  0  0  0  0
  1  2  2  0
  2  3  1  0
  2 41  1  0
  3 22  1  0
  3  4  2  0
  4  5  1  0
  5  6  2  0
  6 27  1  0
  6  7  1  0
  7  8  2  0
  8  9  1  0
  8 42  1  0
  9 10  2  0
  9  4  1  0
 10  1  1  0
 10 43  1  0
 11 12  1  0
 12 13  2  0
 12 44  1  0
 13  1  1  0
 13 14  1  0
 14 15  2  0
 14 45  1  0
 15 11  1  0
 16 11  1  0
 16 46  1  0
 16 47  1  0
 17 18  1  0
 17 48  1  0
 17 49  1  0
 17 50  1  0
 18 19  1  0
 18 20  1  0
 18 16  1  0
 19 51  1  0
 19 52  1  0
 19 53  1  0
 20 21  1  0
 22 23  1  0
 22 24  1  0
 22 25  1  0
 23 54  1  0
 23 55  1  0
 23 56  1  0
 24 57  1  0
 24 58  1  0
 24 59  1  0
 25 26  1  0
 27 29  1  0
 27 28  1  0
 29 30  2  0
 30 31  1  0
 30 60  1  0
 31 32  2  0
 31 61  1  0
 32 33  1  0
 33 34  2  0
 33 35  1  0
 34 29  1  0
 34 62  1  0
 35 36  1  0
 35 37  1  0
 35 38  1  0
 36 63  1  0
 36 64  1  0
 36 65  1  0
 37 66  1  0
 37 67  1  0
 37 68  1  0
 38 39  1  0
 39 40  2  0
 39 32  1  0
M  END
>  <minimizedAffinity>  (4) 
-8.82682

>  <mol_id>  (4) 
16994

>  <source_index>  (4) 
3

>  <layer>  (4) 
L3

>  <uniprot>  (4) 
Q9Y4K4

>  <paff>  (4) 
7.8860999999999999

>  <smiles>  (4) 
CC(C)(O)Cn1cc(-c2cc(C(C)(C)O)c3nc(Nc4ccc5c(c4)C(C)(C)OC5=O)ncc3c2)cn1

$$$$
L3:Q9Y4K4:45281
     RDKit          3D

 53 58  0  0  0  0  0  0  0  0999 V2000
   -7.3366   14.0767   -9.1728 C   0  0  0  0  0  0  0  0  0  0  0  0
   -6.7410   14.4768   -7.9917 C   0  0  0  0  0  0  0  0  0  0  0  0
   -6.3443   13.4009   -7.2572 O   0  0  0  0  0  0  0  0  0  0  0  0
   -6.6865   12.2952   -7.9726 C   0  0  0  0  0  0  0  0  0  0  0  0
   -6.4729   10.9713   -7.6099 C   0  0  0  0  0  0  0  0  0  0  0  0
   -6.9155   10.0038   -8.5244 C   0  0  0  0  0  0  0  0  0  0  0  0
   -7.5286   10.4578   -9.7033 C   0  0  0  0  0  0  0  0  0  0  0  0
   -7.7424   11.7491  -10.0685 N   0  0  0  0  0  0  0  0  0  0  0  0
   -7.3006   12.6580   -9.1637 C   0  0  0  0  0  0  0  0  0  0  0  0
   -6.6939   15.0544  -14.2341 C   0  0  0  0  0  0  0  0  0  0  0  0
   -6.1175   14.1099  -13.3987 C   0  0  0  0  0  0  0  0  0  0  0  0
   -6.4798   14.0720  -12.0528 C   0  0  0  0  0  0  0  0  0  0  0  0
   -7.4263   14.9831  -11.5165 C   0  0  0  0  0  0  0  0  0  0  0  0
   -7.8513   15.0053  -10.1630 C   0  0  0  0  0  0  0  0  0  0  0  0
   -8.7962   15.9457   -9.7462 C   0  0  0  0  0  0  0  0  0  0  0  0
   -9.2908   16.8301  -10.6802 C   0  0  0  0  0  0  0  0  0  0  0  0
   -8.9190   16.8370  -11.9749 N   0  0  0  0  0  0  0  0  0  0  0  0
   -8.0069   15.9379  -12.3814 C   0  0  0  0  0  0  0  0  0  0  0  0
   -7.6287   15.9535  -13.7175 C   0  0  0  0  0  0  0  0  0  0  0  0
   -6.7433    8.5681   -8.2554 C   0  0  0  0  0  0  0  0  0  0  0  0
   -6.2854    7.6918   -9.2470 C   0  0  0  0  0  0  0  0  0  0  0  0
   -6.1256    6.3251   -8.9830 C   0  0  0  0  0  0  0  0  0  0  0  0
   -6.4112    5.7763   -7.7242 C   0  0  0  0  0  0  0  0  0  0  0  0
   -6.8678    6.6563   -6.7373 C   0  0  0  0  0  0  0  0  0  0  0  0
   -7.0311    8.0257   -6.9957 C   0  0  0  0  0  0  0  0  0  0  0  0
   -6.2364    4.4022   -7.5212 N   0  0  0  0  0  0  0  0  0  0  0  0
   -6.0513    3.6527   -8.7907 C   0  0  0  0  0  0  0  0  0  0  0  0
   -6.2516    2.1342   -8.5855 C   0  0  0  0  0  0  0  0  0  0  0  0
   -7.5788    1.7561   -8.0585 N   0  0  0  0  0  0  0  0  0  0  0  0
   -8.1127    2.7956   -7.1556 C   0  0  0  0  0  0  0  0  0  0  0  0
   -7.0445    3.6995   -6.5044 C   0  0  0  0  0  0  0  0  0  0  0  0
   -7.4828    0.8774   -7.5507 H   0  0  0  0  0  0  0  0  0  0  0  0
   -6.6138   15.4599   -7.7046 H   0  0  0  0  0  0  0  0  0  0  0  0
   -6.0159   10.7148   -6.7208 H   0  0  0  0  0  0  0  0  0  0  0  0
   -7.8515    9.7330  -10.3632 H   0  0  0  0  0  0  0  0  0  0  0  0
   -6.4335   15.0926  -15.2320 H   0  0  0  0  0  0  0  0  0  0  0  0
   -5.4257   13.4402  -13.7701 H   0  0  0  0  0  0  0  0  0  0  0  0
   -6.0506   13.3666  -11.4337 H   0  0  0  0  0  0  0  0  0  0  0  0
   -9.1153   15.9774   -8.7653 H   0  0  0  0  0  0  0  0  0  0  0  0
   -9.9858   17.5270  -10.3700 H   0  0  0  0  0  0  0  0  0  0  0  0
   -8.0520   16.6518  -14.3485 H   0  0  0  0  0  0  0  0  0  0  0  0
   -6.0624    8.0579  -10.1858 H   0  0  0  0  0  0  0  0  0  0  0  0
   -5.7883    5.7049   -9.7358 H   0  0  0  0  0  0  0  0  0  0  0  0
   -7.0895    6.2901   -5.7983 H   0  0  0  0  0  0  0  0  0  0  0  0
   -7.3698    8.6456   -6.2434 H   0  0  0  0  0  0  0  0  0  0  0  0
   -5.0607    3.8266   -9.1560 H   0  0  0  0  0  0  0  0  0  0  0  0
   -6.7818    3.9960   -9.4931 H   0  0  0  0  0  0  0  0  0  0  0  0
   -5.5083    1.7892   -7.8974 H   0  0  0  0  0  0  0  0  0  0  0  0
   -6.1689    1.6834   -9.5524 H   0  0  0  0  0  0  0  0  0  0  0  0
   -8.6582    2.3092   -6.3741 H   0  0  0  0  0  0  0  0  0  0  0  0
   -8.7205    3.4359   -7.7602 H   0  0  0  0  0  0  0  0  0  0  0  0
   -6.3977    3.0954   -5.9031 H   0  0  0  0  0  0  0  0  0  0  0  0
   -7.5446    4.4333   -5.9076 H   0  0  0  0  0  0  0  0  0  0  0  0
  1  2  2  0
  2  3  1  0
  2 33  1  0
  3  4  1  0
  4  5  2  0
  5  6  1  0
  5 34  1  0
  6 20  1  0
  6  7  2  0
  7  8  1  0
  7 35  1  0
  8  9  2  0
  9  1  1  0
  9  4  1  0
 10 11  2  0
 10 36  1  0
 11 12  1  0
 11 37  1  0
 12 13  2  0
 12 38  1  0
 13 14  1  0
 14  1  1  0
 14 15  2  0
 15 16  1  0
 15 39  1  0
 16 17  2  0
 16 40  1  0
 17 18  1  0
 18 19  2  0
 18 13  1  0
 19 10  1  0
 19 41  1  0
 20 21  2  0
 21 22  1  0
 21 42  1  0
 22 23  2  0
 22 43  1  0
 23 26  1  0
 23 24  1  0
 24 25  2  0
 24 44  1  0
 25 20  1  0
 25 45  1  0
 26 27  1  0
 27 28  1  0
 27 46  1  0
 27 47  1  0
 28 29  1  0
 28 48  1  0
 28 49  1  0
 29 30  1  0
 29 32  1  0
 30 31  1  0
 30 50  1  0
 30 51  1  0
 31 26  1  0
 31 52  1  0
 31 53  1  0
M  END
>  <minimizedAffinity>  (5) 
-8.91373

>  <mol_id>  (5) 
45281

>  <source_index>  (5) 
4

>  <layer>  (5) 
L3

>  <uniprot>  (5) 
Q9Y4K4

>  <paff>  (5) 
6.2683999999999997

>  <smiles>  (5) 
c1ccc2c(-c3coc4cc(-c5ccc(N6CCNCC6)cc5)cnc34)ccnc2c1

$$$$
L3:Q9Y4K4:64956
     RDKit          3D

 75 81  0  0  0  0  0  0  0  0999 V2000
   -7.2630   11.9382  -11.2322 C   0  0  0  0  0  0  0  0  0  0  0  0
   -6.9963   10.5706  -11.1214 C   0  0  0  0  0  0  0  0  0  0  0  0
   -7.1831    9.8899   -9.9114 C   0  0  0  0  0  0  0  0  0  0  0  0
   -7.7350   10.6433   -8.8645 C   0  0  0  0  0  0  0  0  0  0  0  0
   -8.0158   11.9795   -8.9290 N   0  0  0  0  0  0  0  0  0  0  0  0
   -7.7275   12.6154  -10.0935 C   0  0  0  0  0  0  0  0  0  0  0  0
   -7.9397   14.0629  -10.0592 C   0  0  0  0  0  0  0  0  0  0  0  0
   -7.4106   14.9318  -11.0347 C   0  0  0  0  0  0  0  0  0  0  0  0
   -7.6255   16.3106  -10.9737 C   0  0  0  0  0  0  0  0  0  0  0  0
   -8.3808   16.8788   -9.9423 C   0  0  0  0  0  0  0  0  0  0  0  0
   -8.9259   16.0070   -8.9899 C   0  0  0  0  0  0  0  0  0  0  0  0
   -8.7288   14.6249   -9.0281 C   0  0  0  0  0  0  0  0  0  0  0  0
   -9.3968   14.0147   -7.9801 N   0  0  0  0  0  0  0  0  0  0  0  0
   -9.9720   14.9877   -7.3116 C   0  0  0  0  0  0  0  0  0  0  0  0
   -9.7097   16.2039   -7.8769 N   0  0  0  0  0  0  0  0  0  0  0  0
  -10.1754   17.4693   -7.3751 C   0  0  0  0  0  0  0  0  0  0  0  0
   -8.0751   10.0038   -7.5442 C   0  0  0  0  0  0  0  0  0  0  0  0
   -9.1515    9.1584   -7.5671 N   0  0  0  0  0  0  0  0  0  0  0  0
   -7.4365   10.1936   -6.5166 O   0  0  0  0  0  0  0  0  0  0  0  0
   -9.4446    8.6977   -6.7178 H   0  0  0  0  0  0  0  0  0  0  0  0
   -9.6471    9.0114   -8.4399 H   0  0  0  0  0  0  0  0  0  0  0  0
   -5.9858   12.4457  -13.1896 C   0  0  0  0  0  0  0  0  0  0  0  0
   -7.1381   12.6664  -12.3858 O   0  0  0  0  0  0  0  0  0  0  0  0
   -6.7798    8.5531   -9.7506 N   0  0  0  0  0  0  0  0  0  0  0  0
   -7.3277    7.8646  -10.2787 H   0  0  0  0  0  0  0  0  0  0  0  0
   -6.1169    7.8822   -8.7204 C   0  0  0  0  0  0  0  0  0  0  0  0
   -4.8275    8.2067   -8.2812 C   0  0  0  0  0  0  0  0  0  0  0  0
   -4.2408    7.4954   -7.2324 C   0  0  0  0  0  0  0  0  0  0  0  0
   -4.9700    6.4784   -6.6472 C   0  0  0  0  0  0  0  0  0  0  0  0
   -6.2384    6.2283   -7.1271 C   0  0  0  0  0  0  0  0  0  0  0  0
   -6.8277    6.8869   -8.1437 N   0  0  0  0  0  0  0  0  0  0  0  0
   -6.8856    5.1472   -6.3116 C   0  0  0  0  0  0  0  0  0  0  0  0
   -5.8721    4.7185   -5.3086 N   0  0  0  0  0  0  0  0  0  0  0  0
   -5.7147    3.2741   -5.3140 C   0  0  0  0  0  0  0  0  0  0  0  0
   -4.6413    5.5653   -5.4862 C   0  0  0  0  0  0  0  0  0  0  0  0
   -4.5211    6.4291   -4.2067 C   0  0  0  0  0  0  0  0  0  0  0  0
   -4.0722    5.6076   -2.9938 C   0  0  0  0  0  0  0  0  0  0  0  0
   -3.0384    4.6094   -3.3011 N   0  0  0  0  0  0  0  0  0  0  0  0
   -2.3217    4.8940   -4.5418 C   0  0  0  0  0  0  0  0  0  0  0  0
   -3.2842    4.8429   -5.7402 C   0  0  0  0  0  0  0  0  0  0  0  0
   -2.2317    4.3276   -2.0884 C   0  0  0  0  0  0  0  0  0  0  0  0
   -0.7626    4.7534   -2.2537 C   0  0  0  0  0  0  0  0  0  0  0  0
   -1.0028    5.9786   -1.5011 O   0  0  0  0  0  0  0  0  0  0  0  0
   -2.2651    5.4351   -1.0226 C   0  0  0  0  0  0  0  0  0  0  0  0
   -6.6554   10.0527  -11.9464 H   0  0  0  0  0  0  0  0  0  0  0  0
   -6.8528   14.5412  -11.8101 H   0  0  0  0  0  0  0  0  0  0  0  0
   -7.2205   16.9201  -11.7014 H   0  0  0  0  0  0  0  0  0  0  0  0
   -8.5305   17.8983   -9.8851 H   0  0  0  0  0  0  0  0  0  0  0  0
  -10.5488   14.8513   -6.4668 H   0  0  0  0  0  0  0  0  0  0  0  0
  -10.7643   17.3095   -6.4961 H   0  0  0  0  0  0  0  0  0  0  0  0
  -10.7719   17.9512   -8.1213 H   0  0  0  0  0  0  0  0  0  0  0  0
   -9.3364   18.0883   -7.1346 H   0  0  0  0  0  0  0  0  0  0  0  0
   -6.0248   13.0797  -14.0507 H   0  0  0  0  0  0  0  0  0  0  0  0
   -5.9588   11.4224  -13.5010 H   0  0  0  0  0  0  0  0  0  0  0  0
   -5.1068   12.6690  -12.6218 H   0  0  0  0  0  0  0  0  0  0  0  0
   -4.3085    8.9749   -8.7346 H   0  0  0  0  0  0  0  0  0  0  0  0
   -3.2894    7.7230   -6.9038 H   0  0  0  0  0  0  0  0  0  0  0  0
   -7.1588    4.3237   -6.9378 H   0  0  0  0  0  0  0  0  0  0  0  0
   -7.7782    5.4986   -5.8375 H   0  0  0  0  0  0  0  0  0  0  0  0
   -6.6696    2.8108   -5.1784 H   0  0  0  0  0  0  0  0  0  0  0  0
   -5.0610    2.9836   -4.5182 H   0  0  0  0  0  0  0  0  0  0  0  0
   -5.2976    2.9643   -6.2494 H   0  0  0  0  0  0  0  0  0  0  0  0
   -5.4751    6.8645   -3.9940 H   0  0  0  0  0  0  0  0  0  0  0  0
   -3.7812    7.1809   -4.3863 H   0  0  0  0  0  0  0  0  0  0  0  0
   -4.9255    5.0980   -2.5974 H   0  0  0  0  0  0  0  0  0  0  0  0
   -3.6430    6.2946   -2.2947 H   0  0  0  0  0  0  0  0  0  0  0  0
   -1.5498    4.1657   -4.6782 H   0  0  0  0  0  0  0  0  0  0  0  0
   -1.8958    5.8736   -4.4800 H   0  0  0  0  0  0  0  0  0  0  0  0
   -3.4853    3.8170   -5.9682 H   0  0  0  0  0  0  0  0  0  0  0  0
   -2.8044    5.3547   -6.5481 H   0  0  0  0  0  0  0  0  0  0  0  0
   -2.5596    3.3279   -1.8933 H   0  0  0  0  0  0  0  0  0  0  0  0
   -0.4723    4.9200   -3.2700 H   0  0  0  0  0  0  0  0  0  0  0  0
    0.0205    4.0894   -1.9527 H   0  0  0  0  0  0  0  0  0  0  0  0
   -3.0911    6.1076   -1.1242 H   0  0  0  0  0  0  0  0  0  0  0  0
   -2.3733    5.1749    0.0096 H   0  0  0  0  0  0  0  0  0  0  0  0
  1  2  2  0
  2  3  1  0
  2 45  1  0
  3 24  1  0
  3  4  2  0
  4 17  1  0
  4  5  1  0
  5  6  2  0
  6  7  1  0
  6  1  1  0
  7  8  2  0
  8  9  1  0
  8 46  1  0
  9 10  2  0
  9 47  1  0
 10 11  1  0
 10 48  1  0
 11 12  2  0
 12 13  1  0
 12  7  1  0
 13 14  2  0
 14 15  1  0
 14 49  1  0
 15 16  1  0
 15 11  1  0
 16 50  1  0
 16 51  1  0
 16 52  1  0
 17 18  1  0
 17 19  2  0
 18 20  1  0
 18 21  1  0
 22 23  1  0
 22 53  1  0
 22 54  1  0
 22 55  1  0
 23  1  1  0
 24 26  1  0
 24 25  1  0
 26 27  2  0
 27 28  1  0
 27 56  1  0
 28 29  2  0
 28 57  1  0
 29 30  1  0
 30 31  2  0
 30 32  1  0
 31 26  1  0
 32 33  1  0
 32 58  1  0
 32 59  1  0
 33 34  1  0
 33 35  1  0
 34 60  1  0
 34 61  1  0
 34 62  1  0
 35 36  1  0
 35 29  1  0
 36 37  1  0
 36 63  1  0
 36 64  1  0
 37 38  1  0
 37 65  1  0
 37 66  1  0
 38 41  1  0
 38 39  1  0
 39 40  1  0
 39 67  1  0
 39 68  1  0
 40 35  1  0
 40 69  1  0
 40 70  1  0
 41 42  1  0
 41 71  1  0
 42 43  1  0
 42 72  1  0
 42 73  1  0
 43 44  1  0
 44 41  1  0
 44 74  1  0
 44 75  1  0
M  END
>  <minimizedAffinity>  (6) 
-9.71077

>  <mol_id>  (6) 
64956

>  <source_index>  (6) 
5

>  <layer>  (6) 
L3

>  <uniprot>  (6) 
Q9Y4K4

>  <paff>  (6) 
6.7328000000000001

>  <smiles>  (6) 
COc1cc(Nc2ccc3c(n2)CN(C)C32CCN(C3COC3)CC2)c(C(N)=O)nc1-c1cccc2c1ncn2C

$$$$
L3:Q9Y4K4:109204
     RDKit          3D

 71 77  0  0  0  0  0  0  0  0999 V2000
   -4.9695    9.5541  -10.5063 O   0  0  0  0  0  0  0  0  0  0  0  0
   -4.6317    8.6558   -9.7365 C   0  0  0  0  0  0  0  0  0  0  0  0
   -3.3616    8.1228   -9.7883 N   0  0  0  0  0  0  0  0  0  0  0  0
   -2.9118    7.1254   -8.9737 C   0  0  0  0  0  0  0  0  0  0  0  0
   -3.6913    6.6035   -8.0241 C   0  0  0  0  0  0  0  0  0  0  0  0
   -5.0671    7.1036   -7.8304 C   0  0  0  0  0  0  0  0  0  0  0  0
   -5.9090    6.6045   -6.8139 C   0  0  0  0  0  0  0  0  0  0  0  0
   -7.2276    7.0657   -6.7255 C   0  0  0  0  0  0  0  0  0  0  0  0
   -7.7130    8.0170   -7.6239 C   0  0  0  0  0  0  0  0  0  0  0  0
   -6.8994    8.5515   -8.6305 C   0  0  0  0  0  0  0  0  0  0  0  0
   -5.5626    8.0983   -8.7090 C   0  0  0  0  0  0  0  0  0  0  0  0
   -2.7501    8.5123  -10.4954 H   0  0  0  0  0  0  0  0  0  0  0  0
   -5.4639    5.6216   -5.8278 C   0  0  0  0  0  0  0  0  0  0  0  0
   -5.4821    4.2383   -5.8789 C   0  0  0  0  0  0  0  0  0  0  0  0
   -4.9264    3.6831   -4.7541 N   0  0  0  0  0  0  0  0  0  0  0  0
   -4.5918    4.7013   -3.9912 C   0  0  0  0  0  0  0  0  0  0  0  0
   -3.9659    4.7450   -2.7119 C   0  0  0  0  0  0  0  0  0  0  0  0
   -3.7364    5.9334   -2.1279 C   0  0  0  0  0  0  0  0  0  0  0  0
   -3.1412    5.9917   -0.9188 F   0  0  0  0  0  0  0  0  0  0  0  0
   -4.1077    7.1860   -2.7566 C   0  0  0  0  0  0  0  0  0  0  0  0
   -4.6880    7.1554   -3.9696 C   0  0  0  0  0  0  0  0  0  0  0  0
   -4.9188    5.9206   -4.5888 N   0  0  0  0  0  0  0  0  0  0  0  0
   -7.4033    9.5543   -9.4997 N   0  0  0  0  0  0  0  0  0  0  0  0
   -8.1622    9.1841  -10.0825 H   0  0  0  0  0  0  0  0  0  0  0  0
   -7.6894   10.8973   -9.1606 C   0  0  0  0  0  0  0  0  0  0  0  0
   -8.6285   11.1379   -8.1704 C   0  0  0  0  0  0  0  0  0  0  0  0
   -8.9398   12.4534   -7.8303 C   0  0  0  0  0  0  0  0  0  0  0  0
   -8.3315   13.5325   -8.4911 C   0  0  0  0  0  0  0  0  0  0  0  0
   -7.3926   13.2097   -9.4836 C   0  0  0  0  0  0  0  0  0  0  0  0
   -7.0864   11.9175   -9.8003 N   0  0  0  0  0  0  0  0  0  0  0  0
   -8.6962   14.9539   -8.0974 C   0  0  0  0  0  0  0  0  0  0  0  0
   -9.4492   15.7150   -9.2033 C   0  0  0  0  0  0  0  0  0  0  0  0
   -9.8145   17.1139   -8.7225 C   0  0  0  0  0  0  0  0  0  0  0  0
  -10.5932   17.0439   -7.5292 O   0  0  0  0  0  0  0  0  0  0  0  0
   -9.8880   16.4304   -6.4508 C   0  0  0  0  0  0  0  0  0  0  0  0
   -9.5076   14.9939   -6.7931 C   0  0  0  0  0  0  0  0  0  0  0  0
   -6.6381   14.2372  -10.3176 C   0  0  0  0  0  0  0  0  0  0  0  0
   -6.9968   14.2177  -11.7417 N   0  0  0  0  0  0  0  0  0  0  0  0
   -5.9295   13.7074  -12.6008 C   0  0  0  0  0  0  0  0  0  0  0  0
   -6.5013   13.9954  -13.9762 C   0  0  0  0  0  0  0  0  0  0  0  0
   -7.1396   15.3664  -13.8081 C   0  0  2  0  0  0  0  0  0  0  0  0
   -6.2504   16.3147  -14.2179 F   0  0  0  0  0  0  0  0  0  0  0  0
   -7.3648   15.5205  -12.3046 C   0  0  0  0  0  0  0  0  0  0  0  0
   -1.9512    6.7678   -9.0938 H   0  0  0  0  0  0  0  0  0  0  0  0
   -3.3306    5.8467   -7.4223 H   0  0  0  0  0  0  0  0  0  0  0  0
   -7.8481    6.6980   -5.9874 H   0  0  0  0  0  0  0  0  0  0  0  0
   -8.6922    8.3332   -7.5447 H   0  0  0  0  0  0  0  0  0  0  0  0
   -5.8662    3.6922   -6.6658 H   0  0  0  0  0  0  0  0  0  0  0  0
   -3.6909    3.8708   -2.2374 H   0  0  0  0  0  0  0  0  0  0  0  0
   -3.9299    8.0849   -2.2819 H   0  0  0  0  0  0  0  0  0  0  0  0
   -4.9604    8.0330   -4.4393 H   0  0  0  0  0  0  0  0  0  0  0  0
   -9.0926   10.3514   -7.6898 H   0  0  0  0  0  0  0  0  0  0  0  0
   -9.6269   12.6367   -7.0824 H   0  0  0  0  0  0  0  0  0  0  0  0
   -7.7623   15.4526   -7.9427 H   0  0  0  0  0  0  0  0  0  0  0  0
  -10.3429   15.1824   -9.4535 H   0  0  0  0  0  0  0  0  0  0  0  0
   -8.8189   15.7947  -10.0643 H   0  0  0  0  0  0  0  0  0  0  0  0
  -10.3793   17.6115   -9.4830 H   0  0  0  0  0  0  0  0  0  0  0  0
   -8.9148   17.6557   -8.5177 H   0  0  0  0  0  0  0  0  0  0  0  0
  -10.5111   16.4295   -5.5809 H   0  0  0  0  0  0  0  0  0  0  0  0
   -8.9918   16.9863   -6.2697 H   0  0  0  0  0  0  0  0  0  0  0  0
  -10.3975   14.4120   -6.9129 H   0  0  0  0  0  0  0  0  0  0  0  0
   -8.9118   14.5930   -5.9999 H   0  0  0  0  0  0  0  0  0  0  0  0
   -5.5901   14.0399  -10.2302 H   0  0  0  0  0  0  0  0  0  0  0  0
   -6.9037   15.2028   -9.9407 H   0  0  0  0  0  0  0  0  0  0  0  0
   -5.7728   12.6594  -12.4521 H   0  0  0  0  0  0  0  0  0  0  0  0
   -4.9708   14.1472  -12.4211 H   0  0  0  0  0  0  0  0  0  0  0  0
   -7.2321   13.2629  -14.2489 H   0  0  0  0  0  0  0  0  0  0  0  0
   -5.7638   13.9684  -14.7510 H   0  0  0  0  0  0  0  0  0  0  0  0
   -8.0450   15.4687  -14.3691 H   0  0  0  0  0  0  0  0  0  0  0  0
   -8.3900   15.7460  -12.0971 H   0  0  0  0  0  0  0  0  0  0  0  0
   -6.7897   16.3206  -11.8874 H   0  0  0  0  0  0  0  0  0  0  0  0
  1  2  2  0
  2  3  1  0
  3  4  1  0
  3 12  1  0
  4  5  2  0
  4 44  1  0
  5  6  1  0
  5 45  1  0
  6  7  2  0
  7 13  1  0
  7  8  1  0
  8  9  2  0
  8 46  1  0
  9 10  1  0
  9 47  1  0
 10 23  1  0
 10 11  2  0
 11  2  1  0
 11  6  1  0
 13 14  2  0
 14 15  1  0
 14 48  1  0
 15 16  2  0
 16 17  1  0
 17 18  2  0
 17 49  1  0
 18 19  1  0
 18 20  1  0
 20 21  2  0
 20 50  1  0
 21 22  1  0
 21 51  1  0
 22 13  1  0
 22 16  1  0
 23 25  1  0
 23 24  1  0
 25 26  2  0
 26 27  1  0
 26 52  1  0
 27 28  2  0
 27 53  1  0
 28 31  1  0
 28 29  1  0
 29 37  1  0
 29 30  2  0
 30 25  1  0
 31 32  1  0
 31 54  1  0
 32 33  1  0
 32 55  1  0
 32 56  1  0
 33 34  1  0
 33 57  1  0
 33 58  1  0
 34 35  1  0
 35 36  1  0
 35 59  1  0
 35 60  1  0
 36 31  1  0
 36 61  1  0
 36 62  1  0
 37 38  1  0
 37 63  1  0
 37 64  1  0
 38 39  1  0
 39 40  1  0
 39 65  1  0
 39 66  1  0
 40 41  1  0
 40 67  1  0
 40 68  1  0
 41 42  1  0
 41 43  1  0
 41 69  1  6
 43 38  1  0
 43 70  1  0
 43 71  1  0
M  END
>  <minimizedAffinity>  (7) 
-9.78865

>  <mol_id>  (7) 
109204

>  <source_index>  (7) 
6

>  <layer>  (7) 
L3

>  <uniprot>  (7) 
Q9Y4K4

>  <paff>  (7) 
6.9829999999999997

>  <smiles>  (7) 
O=c1[nH]ccc2c(-c3cnc4cc(F)ccn34)ccc(Nc3ccc(C4CCOCC4)c(CN4CC[C@H](F)C4)n3)c12

$$$$
L3:Q9Y4K4:115639
     RDKit          3D

 66 71  0  0  0  0  0  0  0  0999 V2000
   -6.9324    8.3679   -8.5173 C   0  0  0  0  0  0  0  0  0  0  0  0
   -7.7121    7.7136   -7.5574 C   0  0  0  0  0  0  0  0  0  0  0  0
   -7.1462    6.8044   -6.6381 C   0  0  0  0  0  0  0  0  0  0  0  0
   -5.7746    6.5183   -6.6525 C   0  0  0  0  0  0  0  0  0  0  0  0
   -4.9961    7.1479   -7.6077 C   0  0  0  0  0  0  0  0  0  0  0  0
   -3.5277    7.0496   -7.8617 C   0  0  0  0  0  0  0  0  0  0  0  0
   -3.3441    7.9306   -8.9867 N   0  0  0  0  0  0  0  0  0  0  0  0
   -4.5132    8.5273   -9.4002 C   0  0  0  0  0  0  0  0  0  0  0  0
   -4.6513    9.2926  -10.3334 O   0  0  0  0  0  0  0  0  0  0  0  0
   -5.5800    8.0415   -8.5139 C   0  0  0  0  0  0  0  0  0  0  0  0
   -2.4645    8.1208   -9.4493 H   0  0  0  0  0  0  0  0  0  0  0  0
   -5.2002    5.5938   -5.6925 C   0  0  0  0  0  0  0  0  0  0  0  0
   -5.0413    4.2224   -5.7638 C   0  0  0  0  0  0  0  0  0  0  0  0
   -4.4780    3.7170   -4.6220 N   0  0  0  0  0  0  0  0  0  0  0  0
   -4.2734    4.7585   -3.8450 C   0  0  0  0  0  0  0  0  0  0  0  0
   -3.7184    4.8539   -2.5375 C   0  0  0  0  0  0  0  0  0  0  0  0
   -3.6207    6.0581   -1.9490 C   0  0  0  0  0  0  0  0  0  0  0  0
   -3.1001    6.1683   -0.7106 F   0  0  0  0  0  0  0  0  0  0  0  0
   -4.0610    7.2754   -2.6030 C   0  0  0  0  0  0  0  0  0  0  0  0
   -4.5872    7.1941   -3.8378 C   0  0  0  0  0  0  0  0  0  0  0  0
   -4.6932    5.9425   -4.4531 N   0  0  0  0  0  0  0  0  0  0  0  0
   -7.4470    9.3225   -9.4028 N   0  0  0  0  0  0  0  0  0  0  0  0
   -7.0695    9.2524  -10.3535 H   0  0  0  0  0  0  0  0  0  0  0  0
   -7.2366   12.8724   -9.8818 C   0  0  0  0  0  0  0  0  0  0  0  0
   -7.0634   11.5198   -9.9931 N   0  0  0  0  0  0  0  0  0  0  0  0
   -7.7625   10.6713   -9.2167 C   0  0  0  0  0  0  0  0  0  0  0  0
   -8.6980   11.1482   -8.3221 C   0  0  0  0  0  0  0  0  0  0  0  0
   -8.9020   12.5242   -8.2198 C   0  0  0  0  0  0  0  0  0  0  0  0
   -8.1639   13.4330   -8.9952 C   0  0  0  0  0  0  0  0  0  0  0  0
   -8.4746   14.9088   -8.8145 C   0  0  0  0  0  0  0  0  0  0  0  0
   -9.0666   15.2308   -7.4304 C   0  0  0  0  0  0  0  0  0  0  0  0
   -9.8767   16.5242   -7.4548 C   0  0  0  0  0  0  0  0  0  0  0  0
   -9.2655   17.4658   -8.3313 O   0  0  0  0  0  0  0  0  0  0  0  0
   -9.3556   17.0845   -9.7075 C   0  0  0  0  0  0  0  0  0  0  0  0
   -9.2899   15.5715   -9.9267 C   0  0  0  0  0  0  0  0  0  0  0  0
   -6.3083   13.6679  -10.7845 C   0  0  0  0  0  0  0  0  0  0  0  0
   -6.7568   15.2782  -12.5569 C   0  0  0  0  0  0  0  0  0  0  0  0
   -6.7965   13.8622  -12.1710 N   0  0  0  0  0  0  0  0  0  0  0  0
   -5.9742   13.0796  -13.0949 C   0  0  0  0  0  0  0  0  0  0  0  0
   -8.7264    7.9005   -7.5206 H   0  0  0  0  0  0  0  0  0  0  0  0
   -7.7532    6.3422   -5.9432 H   0  0  0  0  0  0  0  0  0  0  0  0
   -3.2441    6.0471   -8.1057 H   0  0  0  0  0  0  0  0  0  0  0  0
   -2.9304    7.3120   -7.0136 H   0  0  0  0  0  0  0  0  0  0  0  0
   -5.3138    3.6494   -6.5777 H   0  0  0  0  0  0  0  0  0  0  0  0
   -3.3941    4.0063   -2.0462 H   0  0  0  0  0  0  0  0  0  0  0  0
   -3.9720    8.1878   -2.1291 H   0  0  0  0  0  0  0  0  0  0  0  0
   -4.9089    8.0448   -4.3255 H   0  0  0  0  0  0  0  0  0  0  0  0
   -9.2404   10.4948   -7.7356 H   0  0  0  0  0  0  0  0  0  0  0  0
   -9.6105   12.8820   -7.5602 H   0  0  0  0  0  0  0  0  0  0  0  0
   -7.5054   15.3565   -8.8868 H   0  0  0  0  0  0  0  0  0  0  0  0
   -8.2677   15.3343   -6.7262 H   0  0  0  0  0  0  0  0  0  0  0  0
   -9.7201   14.4310   -7.1508 H   0  0  0  0  0  0  0  0  0  0  0  0
   -9.9187   16.9346   -6.4675 H   0  0  0  0  0  0  0  0  0  0  0  0
  -10.8663   16.3121   -7.8022 H   0  0  0  0  0  0  0  0  0  0  0  0
   -8.5457   17.5393  -10.2388 H   0  0  0  0  0  0  0  0  0  0  0  0
  -10.3096   17.4132  -10.0636 H   0  0  0  0  0  0  0  0  0  0  0  0
   -8.8274   15.3713  -10.8706 H   0  0  0  0  0  0  0  0  0  0  0  0
  -10.2834   15.1745   -9.9138 H   0  0  0  0  0  0  0  0  0  0  0  0
   -6.1646   14.6328  -10.3450 H   0  0  0  0  0  0  0  0  0  0  0  0
   -5.4063   13.0977  -10.8625 H   0  0  0  0  0  0  0  0  0  0  0  0
   -7.1143   15.3847  -13.5598 H   0  0  0  0  0  0  0  0  0  0  0  0
   -5.7502   15.6361  -12.4972 H   0  0  0  0  0  0  0  0  0  0  0  0
   -7.3770   15.8458  -11.8950 H   0  0  0  0  0  0  0  0  0  0  0  0
   -6.3280   13.2211  -14.0947 H   0  0  0  0  0  0  0  0  0  0  0  0
   -6.0371   12.0429  -12.8377 H   0  0  0  0  0  0  0  0  0  0  0  0
   -4.9564   13.4027  -13.0277 H   0  0  0  0  0  0  0  0  0  0  0  0
  1  2  2  0
  2  3  1  0
  2 40  1  0
  3  4  2  0
  3 41  1  0
  4  5  1  0
  4 12  1  0
  5  6  1  0
  6  7  1  0
  6 42  1  0
  6 43  1  0
  7  8  1  0
  7 11  1  0
  8  9  2  0
  8 10  1  0
 10  1  1  0
 10  5  2  0
 12 13  2  0
 13 14  1  0
 13 44  1  0
 14 15  2  0
 15 16  1  0
 16 17  2  0
 16 45  1  0
 17 18  1  0
 17 19  1  0
 19 20  2  0
 19 46  1  0
 20 21  1  0
 20 47  1  0
 21 12  1  0
 21 15  1  0
 22  1  1  0
 22 23  1  0
 24 25  2  0
 25 26  1  0
 26 22  1  0
 26 27  2  0
 27 28  1  0
 27 48  1  0
 28 29  2  0
 28 49  1  0
 29 30  1  0
 29 24  1  0
 30 31  1  0
 30 50  1  0
 31 32  1  0
 31 51  1  0
 31 52  1  0
 32 33  1  0
 32 53  1  0
 32 54  1  0
 33 34  1  0
 34 35  1  0
 34 55  1  0
 34 56  1  0
 35 30  1  0
 35 57  1  0
 35 58  1  0
 36 24  1  0
 36 59  1  0
 36 60  1  0
 37 38  1  0
 37 61  1  0
 37 62  1  0
 37 63  1  0
 38 39  1  0
 38 36  1  0
 39 64  1  0
 39 65  1  0
 39 66  1  0
M  END
>  <minimizedAffinity>  (8) 
-8.50856

>  <mol_id>  (8) 
115639

>  <source_index>  (8) 
7

>  <layer>  (8) 
L3

>  <uniprot>  (8) 
Q9Y4K4

>  <paff>  (8) 
6.5171000000000001

>  <smiles>  (8) 
CN(C)Cc1nc(Nc2ccc(c3CNC(=O)c23)-c2cnc3cc(F)ccn23)ccc1C1CCOCC1

$$$$
L3:Q9Y4K4:136517
     RDKit          3D

 94 99  0  0  0  0  0  0  0  0999 V2000
   -5.9130    7.9624   -9.0044 C   0  0  0  0  0  0  0  0  0  0  0  0
   -5.3130    7.4710   -7.7115 C   0  0  0  0  0  0  0  0  0  0  0  0
   -4.1664    6.6701   -7.7242 C   0  0  0  0  0  0  0  0  0  0  0  0
   -3.6081    6.2067   -6.5273 C   0  0  0  0  0  0  0  0  0  0  0  0
   -4.1574    6.5481   -5.2787 C   0  0  0  0  0  0  0  0  0  0  0  0
   -5.2972    7.3716   -5.2808 C   0  0  0  0  0  0  0  0  0  0  0  0
   -5.8701    7.8231   -6.4771 C   0  0  0  0  0  0  0  0  0  0  0  0
   -3.5590    6.0559   -4.0181 C   0  0  0  0  0  0  0  0  0  0  0  0
   -4.1390    6.3365   -2.7721 C   0  0  0  0  0  0  0  0  0  0  0  0
   -3.5854    5.8557   -1.5750 C   0  0  0  0  0  0  0  0  0  0  0  0
   -2.4242    5.0680   -1.5729 C   0  0  0  0  0  0  0  0  0  0  0  0
   -1.8466    4.7796   -2.8239 C   0  0  0  0  0  0  0  0  0  0  0  0
   -2.3954    5.2724   -4.0156 C   0  0  0  0  0  0  0  0  0  0  0  0
   -1.8079    4.4697   -0.2755 C   0  0  0  0  0  0  0  0  0  0  0  0
   -1.1967    3.1164   -0.7320 C   0  0  0  0  0  0  0  0  0  0  0  0
   -2.8803    4.1425    0.7889 C   0  0  0  0  0  0  0  0  0  0  0  0
   -0.7711    5.3900    0.2613 N   0  0  0  0  0  0  0  0  0  0  0  0
   -0.9579    6.8426    0.1695 C   0  0  0  0  0  0  0  0  0  0  0  0
   -0.2800    7.5453   -1.0307 C   0  0  0  0  0  0  0  0  0  0  0  0
    1.1566    7.2168   -1.1304 N   0  0  0  0  0  0  0  0  0  0  0  0
    1.3105    5.7487   -1.1901 C   0  0  0  0  0  0  0  0  0  0  0  0
    0.6336    5.0251   -0.0017 C   0  0  0  0  0  0  0  0  0  0  0  0
    1.7914    7.8457   -2.3092 C   0  0  0  0  0  0  0  0  0  0  0  0
    3.1356    7.1864   -2.6572 C   0  0  0  0  0  0  0  0  0  0  0  0
    3.3586    7.2597   -4.0655 O   0  0  0  0  0  0  0  0  0  0  0  0
    2.4614    7.2294   -4.4600 H   0  0  0  0  0  0  0  0  0  0  0  0
   -4.9106    8.6295   -9.7693 O   0  0  0  0  0  0  0  0  0  0  0  0
   -4.7803   10.8312  -10.8471 C   0  0  1  0  0  0  0  0  0  0  0  0
   -3.2806   11.0429  -11.1313 C   0  0  0  0  0  0  0  0  0  0  0  0
   -2.5282   10.3272  -10.0169 C   0  0  0  0  0  0  0  0  0  0  0  0
   -3.5039   10.3286   -8.8523 C   0  0  0  0  0  0  0  0  0  0  0  0
   -4.8463   10.0386   -9.5172 C   0  0  2  0  0  0  0  0  0  0  0  0
   -6.2602   12.5673  -11.8174 C   0  0  0  0  0  0  0  0  0  0  0  0
   -6.4114   11.9512  -12.8657 O   0  0  0  0  0  0  0  0  0  0  0  0
   -5.4887   12.1092  -10.7682 N   0  0  0  0  0  0  0  0  0  0  0  0
   -5.3239   12.7074   -9.9690 H   0  0  0  0  0  0  0  0  0  0  0  0
   -8.1732   15.4437  -10.2791 C   0  0  0  0  0  0  0  0  0  0  0  0
   -8.1403   16.2943  -11.3810 C   0  0  0  0  0  0  0  0  0  0  0  0
   -7.5435   16.0039  -12.5627 N   0  0  0  0  0  0  0  0  0  0  0  0
   -6.9481   14.8030  -12.6967 C   0  0  0  0  0  0  0  0  0  0  0  0
   -6.3269   14.5638  -13.9309 N   0  0  0  0  0  0  0  0  0  0  0  0
   -6.9056   13.8872  -11.6369 C   0  0  0  0  0  0  0  0  0  0  0  0
   -7.5343   14.2099  -10.4244 C   0  0  0  0  0  0  0  0  0  0  0  0
   -5.3234   14.4870  -13.8013 H   0  0  0  0  0  0  0  0  0  0  0  0
   -6.6260   13.6413  -14.2588 H   0  0  0  0  0  0  0  0  0  0  0  0
  -10.1748   15.2257   -5.7364 C   0  0  0  0  0  0  0  0  0  0  0  0
   -9.7280   15.6865   -7.0281 N   0  0  0  0  0  0  0  0  0  0  0  0
   -9.0721   14.9549   -7.9770 C   0  0  0  0  0  0  0  0  0  0  0  0
   -8.8453   15.8039   -9.0423 C   0  0  0  0  0  0  0  0  0  0  0  0
   -9.4195   17.0278   -8.6190 C   0  0  0  0  0  0  0  0  0  0  0  0
   -9.9652   16.9539   -7.4030 N   0  0  0  0  0  0  0  0  0  0  0  0
   -6.2919    7.1307   -9.5608 H   0  0  0  0  0  0  0  0  0  0  0  0
   -6.7115    8.6422   -8.7919 H   0  0  0  0  0  0  0  0  0  0  0  0
   -3.7282    6.4186   -8.6240 H   0  0  0  0  0  0  0  0  0  0  0  0
   -2.7738    5.6003   -6.5620 H   0  0  0  0  0  0  0  0  0  0  0  0
   -5.7209    7.6494   -4.3818 H   0  0  0  0  0  0  0  0  0  0  0  0
   -6.7108    8.4209   -6.4476 H   0  0  0  0  0  0  0  0  0  0  0  0
   -4.9952    6.9115   -2.7345 H   0  0  0  0  0  0  0  0  0  0  0  0
   -4.0416    6.0862   -0.6785 H   0  0  0  0  0  0  0  0  0  0  0  0
   -0.9994    4.1917   -2.8644 H   0  0  0  0  0  0  0  0  0  0  0  0
   -1.9329    5.0539   -4.9119 H   0  0  0  0  0  0  0  0  0  0  0  0
   -1.9726    2.4843   -1.1106 H   0  0  0  0  0  0  0  0  0  0  0  0
   -0.7231    2.6399    0.1008 H   0  0  0  0  0  0  0  0  0  0  0  0
   -0.4735    3.2929   -1.5006 H   0  0  0  0  0  0  0  0  0  0  0  0
   -3.6084    3.4799    0.3697 H   0  0  0  0  0  0  0  0  0  0  0  0
   -3.3593    5.0465    1.1023 H   0  0  0  0  0  0  0  0  0  0  0  0
   -2.4155    3.6746    1.6314 H   0  0  0  0  0  0  0  0  0  0  0  0
   -0.5683    7.2789    1.0655 H   0  0  0  0  0  0  0  0  0  0  0  0
   -2.0087    6.9873    0.0291 H   0  0  0  0  0  0  0  0  0  0  0  0
   -0.3842    8.6038   -0.9141 H   0  0  0  0  0  0  0  0  0  0  0  0
   -0.7582    7.2032   -1.9247 H   0  0  0  0  0  0  0  0  0  0  0  0
    2.3544    5.5140   -1.1833 H   0  0  0  0  0  0  0  0  0  0  0  0
    0.8332    5.4113   -2.0863 H   0  0  0  0  0  0  0  0  0  0  0  0
    1.1993    5.2435    0.8799 H   0  0  0  0  0  0  0  0  0  0  0  0
    0.6181    3.9883   -0.2658 H   0  0  0  0  0  0  0  0  0  0  0  0
    1.9582    8.8818   -2.1005 H   0  0  0  0  0  0  0  0  0  0  0  0
    1.1350    7.7210   -3.1450 H   0  0  0  0  0  0  0  0  0  0  0  0
    3.1177    6.1607   -2.3531 H   0  0  0  0  0  0  0  0  0  0  0  0
    3.9239    7.6994   -2.1470 H   0  0  0  0  0  0  0  0  0  0  0  0
   -5.2634   10.2911  -11.6344 H   0  0  0  0  0  0  0  0  0  0  0  0
   -3.0463   12.0869  -11.1252 H   0  0  0  0  0  0  0  0  0  0  0  0
   -3.0092   10.6587  -12.0924 H   0  0  0  0  0  0  0  0  0  0  0  0
   -1.6327   10.8550   -9.7631 H   0  0  0  0  0  0  0  0  0  0  0  0
   -2.2219    9.3405  -10.2954 H   0  0  0  0  0  0  0  0  0  0  0  0
   -3.5160   11.2805   -8.3638 H   0  0  0  0  0  0  0  0  0  0  0  0
   -3.2507    9.6178   -8.0936 H   0  0  0  0  0  0  0  0  0  0  0  0
   -5.7007   10.3130   -8.9345 H   0  0  0  0  0  0  0  0  0  0  0  0
   -8.6038   17.2120  -11.2914 H   0  0  0  0  0  0  0  0  0  0  0  0
   -7.5247   13.5372   -9.6418 H   0  0  0  0  0  0  0  0  0  0  0  0
   -9.9010   14.1991   -5.6097 H   0  0  0  0  0  0  0  0  0  0  0  0
  -11.2385   15.3218   -5.6718 H   0  0  0  0  0  0  0  0  0  0  0  0
   -9.7163   15.8144   -4.9695 H   0  0  0  0  0  0  0  0  0  0  0  0
   -8.7994   13.9618   -7.9108 H   0  0  0  0  0  0  0  0  0  0  0  0
   -9.4163   17.8868   -9.1910 H   0  0  0  0  0  0  0  0  0  0  0  0
  1  2  1  0
  1 52  1  0
  1 53  1  0
  2  3  2  0
  3  4  1  0
  3 54  1  0
  4  5  2  0
  4 55  1  0
  5  6  1  0
  5  8  1  0
  6  7  2  0
  6 56  1  0
  7  2  1  0
  7 57  1  0
  8  9  2  0
  9 10  1  0
  9 58  1  0
 10 11  2  0
 10 59  1  0
 11 12  1  0
 11 14  1  0
 12 13  2  0
 12 60  1  0
 13  8  1  0
 13 61  1  0
 14 15  1  0
 14 16  1  0
 14 17  1  0
 15 62  1  0
 15 63  1  0
 15 64  1  0
 16 65  1  0
 16 66  1  0
 16 67  1  0
 17 18  1  0
 18 19  1  0
 18 68  1  0
 18 69  1  0
 19 20  1  0
 19 70  1  0
 19 71  1  0
 20 23  1  0
 20 21  1  0
 21 22  1  0
 21 72  1  0
 21 73  1  0
 22 17  1  0
 22 74  1  0
 22 75  1  0
 23 24  1  0
 23 76  1  0
 23 77  1  0
 24 25  1  0
 24 78  1  0
 24 79  1  0
 25 26  1  0
 27  1  1  0
 28 29  1  0
 28 80  1  6
 29 30  1  0
 29 81  1  0
 29 82  1  0
 30 31  1  0
 30 83  1  0
 30 84  1  0
 31 32  1  0
 31 85  1  0
 31 86  1  0
 32 27  1  0
 32 28  1  0
 32 87  1  1
 33 34  2  0
 33 35  1  0
 35 28  1  0
 35 36  1  0
 37 38  2  0
 38 39  1  0
 38 88  1  0
 39 40  2  0
 40 41  1  0
 40 42  1  0
 41 44  1  0
 41 45  1  0
 42 43  2  0
 42 33  1  0
 43 37  1  0
 43 89  1  0
 46 47  1  0
 46 90  1  0
 46 91  1  0
 46 92  1  0
 47 48  1  0
 48 49  2  0
 48 93  1  0
 49 50  1  0
 49 37  1  0
 50 51  2  0
 50 94  1  0
 51 47  1  0
M  END
>  <minimizedAffinity>  (9) 
-7.70415

>  <mol_id>  (9) 
136517

>  <source_index>  (9) 
8

>  <layer>  (9) 
L3

>  <uniprot>  (9) 
Q9Y4K4

>  <paff>  (9) 
6.2756999999999996

>  <smiles>  (9) 
Cn1cc(cn1)-c1cnc(N)c(c1)C(=O)N[C@H]1CCC[C@@H]1OCc1ccc(cc1)-c1ccc(cc1)C(C)(C)N1CCN(CCO)CC1 |r|

$$$$
L3:Q9Y4K4:140016
     RDKit          3D

 77 84  0  0  0  0  0  0  0  0999 V2000
   -5.8650    8.2824  -10.3099 N   0  0  0  0  0  0  0  0  0  0  0  0
   -6.2988    7.7743  -11.0710 H   0  0  0  0  0  0  0  0  0  0  0  0
   -5.8563    7.4577   -9.1565 C   0  0  0  0  0  0  0  0  0  0  0  0
   -6.9028    7.6089   -8.2357 C   0  0  0  0  0  0  0  0  0  0  0  0
   -6.9472    6.8129   -7.0889 C   0  0  0  0  0  0  0  0  0  0  0  0
   -5.9450    5.8787   -6.9099 C   0  0  0  0  0  0  0  0  0  0  0  0
   -4.9455    5.8075   -7.8590 C   0  0  0  0  0  0  0  0  0  0  0  0
   -4.8563    6.5676   -8.9658 N   0  0  0  0  0  0  0  0  0  0  0  0
   -3.9460    4.7647   -7.4589 C   0  0  0  0  0  0  0  0  0  0  0  0
   -4.5473    4.0138   -6.3148 N   0  0  0  0  0  0  0  0  0  0  0  0
   -5.6851    4.8795   -5.8032 C   0  0  0  0  0  0  0  0  0  0  0  0
   -6.9936    4.1824   -5.3496 C   0  0  0  0  0  0  0  0  0  0  0  0
   -6.9508    3.6765   -3.9073 C   0  0  0  0  0  0  0  0  0  0  0  0
   -5.6259    3.4982   -3.4354 O   0  0  0  0  0  0  0  0  0  0  0  0
   -4.8735    4.7090   -3.3952 C   0  0  0  0  0  0  0  0  0  0  0  0
   -5.1448    5.6422   -4.5731 C   0  0  0  0  0  0  0  0  0  0  0  0
   -4.9410    2.6537   -6.7396 C   0  0  0  0  0  0  0  0  0  0  0  0
   -4.6041    2.2987   -8.2213 C   0  0  0  0  0  0  0  0  0  0  0  0
   -5.7394    1.8096   -9.0245 N   0  0  0  0  0  0  0  0  0  0  0  0
   -6.9593    2.6141   -8.8036 C   0  0  0  0  0  0  0  0  0  0  0  0
   -7.2193    3.6461   -9.9120 C   0  0  0  0  0  0  0  0  0  0  0  0
   -7.3738    3.0555  -11.2095 O   0  0  0  0  0  0  0  0  0  0  0  0
   -6.6661    1.8137  -11.3464 C   0  0  0  0  0  0  0  0  0  0  0  0
   -5.4095    1.7470  -10.4651 C   0  0  0  0  0  0  0  0  0  0  0  0
   -3.7134    9.4981   -8.3824 O   0  0  0  0  0  0  0  0  0  0  0  0
   -4.4645   10.4427   -8.5212 C   0  0  0  0  0  0  0  0  0  0  0  0
   -4.3217   11.6561   -7.8780 N   0  0  0  0  0  0  0  0  0  0  0  0
   -5.2438   12.6537   -8.3450 C   0  0  0  0  0  0  0  0  0  0  0  0
   -6.0701   11.9011   -9.3337 C   0  0  0  0  0  0  0  0  0  0  0  0
   -7.1272   12.3510  -10.1109 C   0  0  0  0  0  0  0  0  0  0  0  0
   -7.7219   11.4439  -10.9960 C   0  0  0  0  0  0  0  0  0  0  0  0
   -7.2759   10.1109  -11.0743 C   0  0  0  0  0  0  0  0  0  0  0  0
   -6.2176    9.6438  -10.2780 C   0  0  0  0  0  0  0  0  0  0  0  0
   -5.6291   10.5720   -9.4231 C   0  0  0  0  0  0  0  0  0  0  0  0
   -3.5209   11.8259   -7.2846 H   0  0  0  0  0  0  0  0  0  0  0  0
   -7.6151   13.7152  -10.0193 C   0  0  0  0  0  0  0  0  0  0  0  0
   -7.4940   14.7692  -10.9051 C   0  0  0  0  0  0  0  0  0  0  0  0
   -8.0911   15.9057  -10.4257 N   0  0  0  0  0  0  0  0  0  0  0  0
   -8.5936   15.5682   -9.2579 C   0  0  0  0  0  0  0  0  0  0  0  0
   -9.3242   16.3267   -8.2998 C   0  0  0  0  0  0  0  0  0  0  0  0
   -9.7341   15.7361   -7.1645 C   0  0  0  0  0  0  0  0  0  0  0  0
  -10.4260   16.4392   -6.2457 F   0  0  0  0  0  0  0  0  0  0  0  0
   -9.4596   14.3414   -6.8766 C   0  0  0  0  0  0  0  0  0  0  0  0
   -8.7693   13.6178   -7.7752 C   0  0  0  0  0  0  0  0  0  0  0  0
   -8.3374   14.2296   -8.9569 N   0  0  0  0  0  0  0  0  0  0  0  0
   -7.6414    8.3094   -8.4056 H   0  0  0  0  0  0  0  0  0  0  0  0
   -7.7051    6.9192   -6.3966 H   0  0  0  0  0  0  0  0  0  0  0  0
   -3.0303    5.2279   -7.1560 H   0  0  0  0  0  0  0  0  0  0  0  0
   -3.7231    4.1102   -8.2756 H   0  0  0  0  0  0  0  0  0  0  0  0
   -7.1736    3.3483   -5.9952 H   0  0  0  0  0  0  0  0  0  0  0  0
   -7.7727    4.9139   -5.4020 H   0  0  0  0  0  0  0  0  0  0  0  0
   -7.4625    2.7381   -3.8571 H   0  0  0  0  0  0  0  0  0  0  0  0
   -7.4204    4.4131   -3.2895 H   0  0  0  0  0  0  0  0  0  0  0  0
   -3.8329    4.4598   -3.3949 H   0  0  0  0  0  0  0  0  0  0  0  0
   -5.1697    5.2309   -2.5093 H   0  0  0  0  0  0  0  0  0  0  0  0
   -4.2325    6.1316   -4.8434 H   0  0  0  0  0  0  0  0  0  0  0  0
   -5.8883    6.3495   -4.2700 H   0  0  0  0  0  0  0  0  0  0  0  0
   -5.9987    2.5588   -6.6084 H   0  0  0  0  0  0  0  0  0  0  0  0
   -4.3738    1.9772   -6.1351 H   0  0  0  0  0  0  0  0  0  0  0  0
   -3.8507    1.5389   -8.2163 H   0  0  0  0  0  0  0  0  0  0  0  0
   -4.2879    3.2120   -8.6804 H   0  0  0  0  0  0  0  0  0  0  0  0
   -6.8592    3.1334   -7.8735 H   0  0  0  0  0  0  0  0  0  0  0  0
   -7.7879    1.9371   -8.8019 H   0  0  0  0  0  0  0  0  0  0  0  0
   -6.3936    4.3259   -9.9440 H   0  0  0  0  0  0  0  0  0  0  0  0
   -8.1385    4.1406   -9.6765 H   0  0  0  0  0  0  0  0  0  0  0  0
   -6.3735    1.6974  -12.3690 H   0  0  0  0  0  0  0  0  0  0  0  0
   -7.3237    1.0306  -11.0314 H   0  0  0  0  0  0  0  0  0  0  0  0
   -4.7719    2.5707  -10.7096 H   0  0  0  0  0  0  0  0  0  0  0  0
   -4.9234    0.8124  -10.6526 H   0  0  0  0  0  0  0  0  0  0  0  0
   -4.7284   13.4666   -8.8124 H   0  0  0  0  0  0  0  0  0  0  0  0
   -5.8207   13.0982   -7.5611 H   0  0  0  0  0  0  0  0  0  0  0  0
   -8.4983   11.7568  -11.5996 H   0  0  0  0  0  0  0  0  0  0  0  0
   -7.7370    9.4625  -11.7316 H   0  0  0  0  0  0  0  0  0  0  0  0
   -7.0128   14.7079  -11.8160 H   0  0  0  0  0  0  0  0  0  0  0  0
   -9.5371   17.3211   -8.4756 H   0  0  0  0  0  0  0  0  0  0  0  0
   -9.7883   13.9120   -5.9976 H   0  0  0  0  0  0  0  0  0  0  0  0
   -8.5606   12.6232   -7.5955 H   0  0  0  0  0  0  0  0  0  0  0  0
  1  3  1  0
  1  2  1  0
  3  4  2  0
  4  5  1  0
  4 46  1  0
  5  6  2  0
  5 47  1  0
  6  7  1  0
  7  8  2  0
  7  9  1  0
  8  3  1  0
  9 10  1  0
  9 48  1  0
  9 49  1  0
 10 17  1  0
 10 11  1  0
 11 12  1  0
 11  6  1  0
 12 13  1  0
 12 50  1  0
 12 51  1  0
 13 14  1  0
 13 52  1  0
 13 53  1  0
 14 15  1  0
 15 16  1  0
 15 54  1  0
 15 55  1  0
 16 11  1  0
 16 56  1  0
 16 57  1  0
 17 18  1  0
 17 58  1  0
 17 59  1  0
 18 19  1  0
 18 60  1  0
 18 61  1  0
 19 20  1  0
 20 21  1  0
 20 62  1  0
 20 63  1  0
 21 22  1  0
 21 64  1  0
 21 65  1  0
 22 23  1  0
 23 24  1  0
 23 66  1  0
 23 67  1  0
 24 19  1  0
 24 68  1  0
 24 69  1  0
 25 26  2  0
 26 27  1  0
 27 28  1  0
 27 35  1  0
 28 29  1  0
 28 70  1  0
 28 71  1  0
 29 30  2  0
 30 36  1  0
 30 31  1  0
 31 32  2  0
 31 72  1  0
 32 33  1  0
 32 73  1  0
 33  1  1  0
 33 34  2  0
 34 26  1  0
 34 29  1  0
 36 37  2  0
 37 38  1  0
 37 74  1  0
 38 39  2  0
 39 40  1  0
 40 41  2  0
 40 75  1  0
 41 42  1  0
 41 43  1  0
 43 44  2  0
 43 76  1  0
 44 45  1  0
 44 77  1  0
 45 36  1  0
 45 39  1  0
M  END
>  <minimizedAffinity>  (10) 
-9.23209

>  <mol_id>  (10) 
140016

>  <source_index>  (10) 
9

>  <layer>  (10) 
L3

>  <uniprot>  (10) 
Q9Y4K4

>  <paff>  (10) 
6.7374999999999998

>  <smiles>  (10) 
O=C1NCc2c(-c3cnc4cc(F)ccn34)ccc(Nc3ccc4c(n3)CN(CCN3CCOCC3)C43CCOCC3)c21

$$$$
