L4:Q96PC2:47771
     RDKit          3D

 32 35  0  0  0  0  0  0  0  0999 V2000
   -3.2731   -2.1559    0.7090 C   0  0  0  0  0  0  0  0  0  0  0  0
   -3.4511   -3.2582    1.5009 O   0  0  0  0  0  0  0  0  0  0  0  0
   -4.7984   -3.5062    1.6964 N   0  0  0  0  0  0  0  0  0  0  0  0
   -5.4631   -2.5496    1.0317 C   0  0  0  0  0  0  0  0  0  0  0  0
   -6.8439   -2.3304    0.9050 C   0  0  0  0  0  0  0  0  0  0  0  0
   -7.1803   -1.1959    0.1254 C   0  0  0  0  0  0  0  0  0  0  0  0
   -6.2162   -0.3203   -0.4889 C   0  0  0  0  0  0  0  0  0  0  0  0
   -4.8191   -0.5411   -0.3658 C   0  0  0  0  0  0  0  0  0  0  0  0
   -4.5163   -1.6704    0.3958 C   0  0  0  0  0  0  0  0  0  0  0  0
    0.8131   -1.1827   -0.1486 C   0  0  0  0  0  0  0  0  0  0  0  0
    0.4942   -2.1839    0.7790 C   0  0  0  0  0  0  0  0  0  0  0  0
   -0.8406   -2.5008    1.0523 C   0  0  0  0  0  0  0  0  0  0  0  0
   -1.8874   -1.8193    0.4151 C   0  0  0  0  0  0  0  0  0  0  0  0
   -1.5659   -0.8181   -0.5106 C   0  0  0  0  0  0  0  0  0  0  0  0
   -0.2315   -0.4990   -0.7861 C   0  0  0  0  0  0  0  0  0  0  0  0
    2.7870   -1.5290   -1.4650 F   0  0  0  0  0  0  0  0  0  0  0  0
    2.2524   -0.8240   -0.4290 C   0  0  0  0  0  0  0  0  0  0  0  0
    3.0611   -1.0591    0.6404 F   0  0  0  0  0  0  0  0  0  0  0  0
    2.4237    0.4895   -0.7470 F   0  0  0  0  0  0  0  0  0  0  0  0
   -6.6459    0.8391   -1.2769 C   0  0  0  0  0  0  0  0  0  0  0  0
   -7.6690    1.6368   -1.0257 N   0  0  0  0  0  0  0  0  0  0  0  0
   -7.6951    2.5754   -2.0268 N   0  0  0  0  0  0  0  0  0  0  0  0
   -6.7158    2.3695   -2.8927 N   0  0  0  0  0  0  0  0  0  0  0  0
   -6.0681    1.2924   -2.4330 N   0  0  0  0  0  0  0  0  0  0  0  0
   -5.2779    0.9343   -2.9512 H   0  0  0  0  0  0  0  0  0  0  0  0
   -7.5517   -2.9417    1.3412 H   0  0  0  0  0  0  0  0  0  0  0  0
   -8.1810   -0.9835   -0.0109 H   0  0  0  0  0  0  0  0  0  0  0  0
   -4.1044    0.0681   -0.7936 H   0  0  0  0  0  0  0  0  0  0  0  0
    1.2504   -2.6915    1.2644 H   0  0  0  0  0  0  0  0  0  0  0  0
   -1.0579   -3.2463    1.7321 H   0  0  0  0  0  0  0  0  0  0  0  0
   -2.3222   -0.3098   -0.9951 H   0  0  0  0  0  0  0  0  0  0  0  0
   -0.0143    0.2470   -1.4653 H   0  0  0  0  0  0  0  0  0  0  0  0
  1  2  1  0
  2  3  1  0
  3  4  2  0
  4  5  1  0
  5  6  2  0
  5 26  1  0
  6  7  1  0
  6 27  1  0
  7 20  1  0
  7  8  2  0
  8  9  1  0
  8 28  1  0
  9  1  2  0
  9  4  1  0
 10 11  2  0
 11 12  1  0
 11 29  1  0
 12 13  2  0
 12 30  1  0
 13  1  1  0
 13 14  1  0
 14 15  2  0
 14 31  1  0
 15 10  1  0
 15 32  1  0
 16 17  1  0
 17 18  1  0
 17 19  1  0
 17 10  1  0
 20 21  2  0
 21 22  1  0
 22 23  2  0
 23 24  1  0
 24 20  1  0
 24 25  1  0
M  END
>  <minimizedAffinity>  (1) 
-11.50184

>  <mol_id>  (1) 
47771

>  <source_index>  (1) 
0

>  <layer>  (1) 
L4

>  <uniprot>  (1) 
Q96PC2

>  <paff>  (1) 
6.2595999999999998

>  <smiles>  (1) 
FC(F)(F)c1ccc(-c2onc3ccc(-c4nnn[nH]4)cc23)cc1

$$$$
L4:Q96PC2:56692
     RDKit          3D

 29 32  0  0  0  0  0  0  0  0999 V2000
   -3.4205   -1.8674    0.2945 C   0  0  0  0  0  0  0  0  0  0  0  0
   -4.1529   -2.8743    0.8631 O   0  0  0  0  0  0  0  0  0  0  0  0
   -3.3204   -3.8471    1.3878 N   0  0  0  0  0  0  0  0  0  0  0  0
   -2.0637   -3.4410    1.1539 C   0  0  0  0  0  0  0  0  0  0  0  0
   -0.8419   -4.0494    1.4820 C   0  0  0  0  0  0  0  0  0  0  0  0
    0.2984   -3.3097    1.0810 C   0  0  0  0  0  0  0  0  0  0  0  0
    0.2436   -2.0403    0.4036 C   0  0  0  0  0  0  0  0  0  0  0  0
   -0.9904   -1.4239    0.0669 C   0  0  0  0  0  0  0  0  0  0  0  0
   -2.0958   -2.1784    0.4619 C   0  0  0  0  0  0  0  0  0  0  0  0
   -6.4359    2.2158   -2.0586 F   0  0  0  0  0  0  0  0  0  0  0  0
   -5.7128    1.2396   -1.4956 C   0  0  0  0  0  0  0  0  0  0  0  0
   -6.1116   -0.0820   -1.6448 C   0  0  0  0  0  0  0  0  0  0  0  0
   -5.3558   -1.0999   -1.0577 C   0  0  0  0  0  0  0  0  0  0  0  0
   -4.2005   -0.7999   -0.3155 C   0  0  0  0  0  0  0  0  0  0  0  0
   -3.8145    0.5437   -0.1858 C   0  0  0  0  0  0  0  0  0  0  0  0
   -4.5710    1.5619   -0.7734 C   0  0  0  0  0  0  0  0  0  0  0  0
    1.4720   -1.3335    0.0273 C   0  0  0  0  0  0  0  0  0  0  0  0
    1.5710   -0.2673   -0.7471 N   0  0  0  0  0  0  0  0  0  0  0  0
    2.9046    0.0503   -0.8158 N   0  0  0  0  0  0  0  0  0  0  0  0
    3.6281   -0.7915   -0.0954 N   0  0  0  0  0  0  0  0  0  0  0  0
    2.7428   -1.6460    0.4311 N   0  0  0  0  0  0  0  0  0  0  0  0
    3.0709   -2.3810    1.0421 H   0  0  0  0  0  0  0  0  0  0  0  0
   -0.7796   -4.9555    1.9720 H   0  0  0  0  0  0  0  0  0  0  0  0
    1.2283   -3.7065    1.2879 H   0  0  0  0  0  0  0  0  0  0  0  0
   -1.0621   -0.5156   -0.4178 H   0  0  0  0  0  0  0  0  0  0  0  0
   -6.9603   -0.3108   -2.1855 H   0  0  0  0  0  0  0  0  0  0  0  0
   -5.6490   -2.0829   -1.1702 H   0  0  0  0  0  0  0  0  0  0  0  0
   -2.9643    0.7819    0.3484 H   0  0  0  0  0  0  0  0  0  0  0  0
   -4.2827    2.5475   -0.6711 H   0  0  0  0  0  0  0  0  0  0  0  0
  1  2  1  0
  2  3  1  0
  3  4  2  0
  4  5  1  0
  5  6  2  0
  5 23  1  0
  6  7  1  0
  6 24  1  0
  7 17  1  0
  7  8  2  0
  8  9  1  0
  8 25  1  0
  9  1  2  0
  9  4  1  0
 10 11  1  0
 11 12  2  0
 12 13  1  0
 12 26  1  0
 13 14  2  0
 13 27  1  0
 14  1  1  0
 14 15  1  0
 15 16  2  0
 15 28  1  0
 16 11  1  0
 16 29  1  0
 17 18  2  0
 18 19  1  0
 19 20  2  0
 20 21  1  0
 21 17  1  0
 21 22  1  0
M  END
>  <minimizedAffinity>  (2) 
-10.53873

>  <mol_id>  (2) 
56692

>  <source_index>  (2) 
1

>  <layer>  (2) 
L4

>  <uniprot>  (2) 
Q96PC2

>  <paff>  (2) 
6.2595999999999998

>  <smiles>  (2) 
Fc1ccc(-c2onc3ccc(-c4nnn[nH]4)cc23)cc1

$$$$
L4:Q96PC2:78778
     RDKit          3D

 35 38  0  0  0  0  0  0  0  0999 V2000
   -2.8797   -2.8840    0.8486 C   0  0  0  0  0  0  0  0  0  0  0  0
   -3.2863   -4.0608    1.4127 O   0  0  0  0  0  0  0  0  0  0  0  0
   -2.1927   -4.8181    1.7963 N   0  0  0  0  0  0  0  0  0  0  0  0
   -1.1008   -4.1147    1.4584 C   0  0  0  0  0  0  0  0  0  0  0  0
    0.2582   -4.4221    1.6158 C   0  0  0  0  0  0  0  0  0  0  0  0
    1.1286   -3.4256    1.1121 C   0  0  0  0  0  0  0  0  0  0  0  0
    0.6986   -2.2018    0.4827 C   0  0  0  0  0  0  0  0  0  0  0  0
   -0.6740   -1.8825    0.3286 C   0  0  0  0  0  0  0  0  0  0  0  0
   -1.5094   -2.8772    0.8438 C   0  0  0  0  0  0  0  0  0  0  0  0
   -4.3304    1.3294   -1.4067 C   0  0  0  0  0  0  0  0  0  0  0  0
   -4.6635    0.0805   -0.6446 C   0  0  0  0  0  0  0  0  0  0  0  0
   -5.9967   -0.2528   -0.3774 C   0  0  0  0  0  0  0  0  0  0  0  0
   -6.3182   -1.4329    0.3038 C   0  0  0  0  0  0  0  0  0  0  0  0
   -7.7527   -1.8017    0.5446 C   0  0  0  0  0  0  0  0  0  0  0  0
   -5.2875   -2.2989    0.6942 C   0  0  0  0  0  0  0  0  0  0  0  0
   -3.9458   -1.9877    0.4321 C   0  0  0  0  0  0  0  0  0  0  0  0
   -3.6471   -0.7988   -0.2480 C   0  0  0  0  0  0  0  0  0  0  0  0
    1.7367   -1.2845    0.0030 C   0  0  0  0  0  0  0  0  0  0  0  0
    3.0364   -1.3573    0.2283 N   0  0  0  0  0  0  0  0  0  0  0  0
    3.6113   -0.2930   -0.4211 N   0  0  0  0  0  0  0  0  0  0  0  0
    2.6959    0.4284   -1.0483 N   0  0  0  0  0  0  0  0  0  0  0  0
    1.5357   -0.1873   -0.7923 N   0  0  0  0  0  0  0  0  0  0  0  0
    0.6828    0.1802   -1.1909 H   0  0  0  0  0  0  0  0  0  0  0  0
    0.5925   -5.2929    2.0573 H   0  0  0  0  0  0  0  0  0  0  0  0
    2.1440   -3.5868    1.2019 H   0  0  0  0  0  0  0  0  0  0  0  0
   -1.0168   -1.0152   -0.1133 H   0  0  0  0  0  0  0  0  0  0  0  0
   -5.2300    1.8684   -1.6189 H   0  0  0  0  0  0  0  0  0  0  0  0
   -3.8460    1.0687   -2.3244 H   0  0  0  0  0  0  0  0  0  0  0  0
   -3.6777    1.9417   -0.8202 H   0  0  0  0  0  0  0  0  0  0  0  0
   -6.7518    0.3792   -0.6864 H   0  0  0  0  0  0  0  0  0  0  0  0
   -8.3876   -1.0209    0.1809 H   0  0  0  0  0  0  0  0  0  0  0  0
   -7.9156   -1.9342    1.5938 H   0  0  0  0  0  0  0  0  0  0  0  0
   -7.9778   -2.7129    0.0308 H   0  0  0  0  0  0  0  0  0  0  0  0
   -5.5196   -3.1784    1.1817 H   0  0  0  0  0  0  0  0  0  0  0  0
   -2.6639   -0.5677   -0.4598 H   0  0  0  0  0  0  0  0  0  0  0  0
  1  2  1  0
  2  3  1  0
  3  4  2  0
  4  5  1  0
  5  6  2  0
  5 24  1  0
  6  7  1  0
  6 25  1  0
  7 18  1  0
  7  8  2  0
  8  9  1  0
  8 26  1  0
  9  1  2  0
  9  4  1  0
 10 11  1  0
 10 27  1  0
 10 28  1  0
 10 29  1  0
 11 12  2  0
 12 13  1  0
 12 30  1  0
 13 14  1  0
 13 15  2  0
 14 31  1  0
 14 32  1  0
 14 33  1  0
 15 16  1  0
 15 34  1  0
 16  1  1  0
 16 17  2  0
 17 11  1  0
 17 35  1  0
 18 19  2  0
 19 20  1  0
 20 21  2  0
 21 22  1  0
 22 18  1  0
 22 23  1  0
M  END
>  <minimizedAffinity>  (3) 
-10.83680

>  <mol_id>  (3) 
78778

>  <source_index>  (3) 
2

>  <layer>  (3) 
L4

>  <uniprot>  (3) 
Q96PC2

>  <paff>  (3) 
6.2595999999999998

>  <smiles>  (3) 
Cc1cc(C)cc(-c2onc3ccc(-c4nnn[nH]4)cc23)c1

$$$$
L4:Q96PC2:90170
     RDKit          3D

 37 40  0  0  0  0  0  0  0  0999 V2000
   -5.7083    0.6014   -1.1374 C   0  0  0  0  0  0  0  0  0  0  0  0
   -7.1118    0.5501   -0.8341 C   0  0  0  0  0  0  0  0  0  0  0  0
   -7.7071   -0.4601   -0.0425 C   0  0  0  0  0  0  0  0  0  0  0  0
   -6.8006   -1.4259    0.4258 C   0  0  0  0  0  0  0  0  0  0  0  0
   -7.0093   -2.5013    1.2000 N   0  0  0  0  0  0  0  0  0  0  0  0
   -5.7785   -3.1100    1.3711 O   0  0  0  0  0  0  0  0  0  0  0  0
   -4.8029   -2.4252    0.6990 C   0  0  0  0  0  0  0  0  0  0  0  0
   -5.3983   -1.3496    0.0922 C   0  0  0  0  0  0  0  0  0  0  0  0
   -4.7797   -0.3623   -0.6746 C   0  0  0  0  0  0  0  0  0  0  0  0
   -3.4665   -2.9956    0.7898 C   0  0  0  0  0  0  0  0  0  0  0  0
   -3.2729   -4.3146    1.2160 C   0  0  0  0  0  0  0  0  0  0  0  0
   -1.9883   -4.8524    1.2966 C   0  0  0  0  0  0  0  0  0  0  0  0
   -0.8816   -4.0745    0.9549 C   0  0  0  0  0  0  0  0  0  0  0  0
   -1.0363   -2.7462    0.5306 C   0  0  0  0  0  0  0  0  0  0  0  0
   -2.3404   -2.2235    0.4569 C   0  0  0  0  0  0  0  0  0  0  0  0
    0.1312   -1.9238    0.1722 C   0  0  0  0  0  0  0  0  0  0  0  0
   -0.0200   -0.7251   -0.5449 C   0  0  0  0  0  0  0  0  0  0  0  0
    1.0876    0.0560   -0.8860 C   0  0  0  0  0  0  0  0  0  0  0  0
    2.3670   -0.3487   -0.5143 C   0  0  0  0  0  0  0  0  0  0  0  0
    2.5397   -1.5332    0.1970 C   0  0  0  0  0  0  0  0  0  0  0  0
    1.4310   -2.3136    0.5365 C   0  0  0  0  0  0  0  0  0  0  0  0
   -6.0131    2.1264   -2.9167 O   0  0  0  0  0  0  0  0  0  0  0  0
   -5.1553    1.6998   -1.9745 C   0  0  0  0  0  0  0  0  0  0  0  0
   -4.0490    2.1930   -1.8566 O   0  0  0  0  0  0  0  0  0  0  0  0
   -5.5228    2.8387   -3.3794 H   0  0  0  0  0  0  0  0  0  0  0  0
   -7.7198    1.2918   -1.2151 H   0  0  0  0  0  0  0  0  0  0  0  0
   -8.7163   -0.4853    0.1717 H   0  0  0  0  0  0  0  0  0  0  0  0
   -3.7686   -0.3372   -0.8797 H   0  0  0  0  0  0  0  0  0  0  0  0
   -4.0873   -4.8941    1.4728 H   0  0  0  0  0  0  0  0  0  0  0  0
   -1.8564   -5.8270    1.6094 H   0  0  0  0  0  0  0  0  0  0  0  0
    0.0646   -4.4821    1.0151 H   0  0  0  0  0  0  0  0  0  0  0  0
   -2.4736   -1.2472    0.1502 H   0  0  0  0  0  0  0  0  0  0  0  0
   -0.9643   -0.4164   -0.8243 H   0  0  0  0  0  0  0  0  0  0  0  0
    0.9572    0.9332   -1.4137 H   0  0  0  0  0  0  0  0  0  0  0  0
    3.1853    0.2279   -0.7654 H   0  0  0  0  0  0  0  0  0  0  0  0
    3.4870   -1.8351    0.4737 H   0  0  0  0  0  0  0  0  0  0  0  0
    1.5693   -3.1902    1.0632 H   0  0  0  0  0  0  0  0  0  0  0  0
  1  2  1  0
  2  3  2  0
  2 26  1  0
  3  4  1  0
  3 27  1  0
  4  5  2  0
  5  6  1  0
  6  7  1  0
  7 10  1  0
  7  8  2  0
  8  9  1  0
  8  4  1  0
  9  1  2  0
  9 28  1  0
 10 11  2  0
 11 12  1  0
 11 29  1  0
 12 13  2  0
 12 30  1  0
 13 14  1  0
 13 31  1  0
 14 15  2  0
 14 16  1  0
 15 10  1  0
 15 32  1  0
 16 17  2  0
 17 18  1  0
 17 33  1  0
 18 19  2  0
 18 34  1  0
 19 20  1  0
 19 35  1  0
 20 21  2  0
 20 36  1  0
 21 16  1  0
 21 37  1  0
 22 23  1  0
 22 25  1  0
 23 24  2  0
 23  1  1  0
M  END
>  <minimizedAffinity>  (4) 
-11.16611

>  <mol_id>  (4) 
90170

>  <source_index>  (4) 
3

>  <layer>  (4) 
L4

>  <uniprot>  (4) 
Q96PC2

>  <paff>  (4) 
6.2595999999999998

>  <smiles>  (4) 
OC(=O)c1ccc2noc(-c3cccc(c3)-c3ccccc3)c2c1

$$$$
L4:Q96PC2:90556
     RDKit          3D

 42 45  0  0  0  0  0  0  0  0999 V2000
   -0.3105   -2.3074    8.6444 C   0  0  0  0  0  0  0  0  0  0  0  0
   -1.4158   -1.5704    8.0962 C   0  0  0  0  0  0  0  0  0  0  0  0
   -1.3200   -0.2474    7.6040 C   0  0  0  0  0  0  0  0  0  0  0  0
   -0.0326    0.3034    7.7018 C   0  0  0  0  0  0  0  0  0  0  0  0
    0.4154    1.5194    7.3526 N   0  0  0  0  0  0  0  0  0  0  0  0
    1.7610    1.5518    7.6746 O   0  0  0  0  0  0  0  0  0  0  0  0
    2.1566    0.3580    8.2134 C   0  0  0  0  0  0  0  0  0  0  0  0
    1.0573   -0.4593    8.2581 C   0  0  0  0  0  0  0  0  0  0  0  0
    0.9893   -1.7590    8.7615 C   0  0  0  0  0  0  0  0  0  0  0  0
    3.5662    0.2708    8.5635 C   0  0  0  0  0  0  0  0  0  0  0  0
    4.3042   -0.8821    8.2538 C   0  0  0  0  0  0  0  0  0  0  0  0
    5.6593   -0.9728    8.5836 C   0  0  0  0  0  0  0  0  0  0  0  0
    6.2854    0.0808    9.2459 C   0  0  0  0  0  0  0  0  0  0  0  0
    5.5704    1.2406    9.5481 C   0  0  0  0  0  0  0  0  0  0  0  0
    4.2147    1.3293    9.2162 C   0  0  0  0  0  0  0  0  0  0  0  0
    7.6280   -0.0578    9.5130 O   0  0  0  0  0  0  0  0  0  0  0  0
    8.4931   -0.0045    8.4436 C   0  0  0  0  0  0  0  0  0  0  0  0
    8.6755   -1.0775    7.5675 C   0  0  0  0  0  0  0  0  0  0  0  0
    9.5417   -0.9450    6.4813 C   0  0  0  0  0  0  0  0  0  0  0  0
   10.2099    0.2607    6.2637 C   0  0  0  0  0  0  0  0  0  0  0  0
   10.0077    1.3385    7.1266 C   0  0  0  0  0  0  0  0  0  0  0  0
    9.1426    1.2087    8.2133 C   0  0  0  0  0  0  0  0  0  0  0  0
   -1.7171   -4.2472    9.2829 C   0  0  0  0  0  0  0  0  0  0  0  0
   -0.5111   -3.6708    9.1637 C   0  0  0  0  0  0  0  0  0  0  0  0
   -0.8094   -6.3640    9.7906 O   0  0  0  0  0  0  0  0  0  0  0  0
   -1.9199   -5.6120    9.7872 C   0  0  0  0  0  0  0  0  0  0  0  0
   -2.9893   -6.0478   10.1739 O   0  0  0  0  0  0  0  0  0  0  0  0
   -1.1111   -7.2241   10.1498 H   0  0  0  0  0  0  0  0  0  0  0  0
   -2.3366   -2.0350    8.0593 H   0  0  0  0  0  0  0  0  0  0  0  0
   -2.1235    0.2659    7.2090 H   0  0  0  0  0  0  0  0  0  0  0  0
    1.7923   -2.2614    9.1711 H   0  0  0  0  0  0  0  0  0  0  0  0
    3.8411   -1.6717    7.7772 H   0  0  0  0  0  0  0  0  0  0  0  0
    6.1955   -1.8193    8.3368 H   0  0  0  0  0  0  0  0  0  0  0  0
    6.0411    2.0312   10.0155 H   0  0  0  0  0  0  0  0  0  0  0  0
    3.6858    2.1829    9.4542 H   0  0  0  0  0  0  0  0  0  0  0  0
    8.1716   -1.9646    7.7230 H   0  0  0  0  0  0  0  0  0  0  0  0
    9.6882   -1.7391    5.8386 H   0  0  0  0  0  0  0  0  0  0  0  0
   10.8546    0.3553    5.4634 H   0  0  0  0  0  0  0  0  0  0  0  0
   10.4980    2.2314    6.9609 H   0  0  0  0  0  0  0  0  0  0  0  0
    8.9833    2.0085    8.8457 H   0  0  0  0  0  0  0  0  0  0  0  0
   -2.5479   -3.7016    9.0050 H   0  0  0  0  0  0  0  0  0  0  0  0
    0.3196   -4.2115    9.4511 H   0  0  0  0  0  0  0  0  0  0  0  0
  1  2  1  0
  2  3  2  0
  2 29  1  0
  3  4  1  0
  3 30  1  0
  4  5  2  0
  5  6  1  0
  6  7  1  0
  7 10  1  0
  7  8  2  0
  8  9  1  0
  8  4  1  0
  9  1  2  0
  9 31  1  0
 10 11  2  0
 11 12  1  0
 11 32  1  0
 12 13  2  0
 12 33  1  0
 13 16  1  0
 13 14  1  0
 14 15  2  0
 14 34  1  0
 15 10  1  0
 15 35  1  0
 16 17  1  0
 17 18  2  0
 18 19  1  0
 18 36  1  0
 19 20  2  0
 19 37  1  0
 20 21  1  0
 20 38  1  0
 21 22  2  0
 21 39  1  0
 22 17  1  0
 22 40  1  0
 23 24  2  0
 23 41  1  0
 24  1  1  0
 24 42  1  0
 25 26  1  0
 25 28  1  0
 26 27  2  0
 26 23  1  0
M  END
>  <minimizedAffinity>  (5) 
-6.69364

>  <mol_id>  (5) 
90556

>  <source_index>  (5) 
4

>  <layer>  (5) 
L4

>  <uniprot>  (5) 
Q96PC2

>  <paff>  (5) 
6.2595999999999998

>  <smiles>  (5) 
OC(=O)\C=C\c1ccc2noc(-c3ccc(Oc4ccccc4)cc3)c2c1

$$$$
L4:Q96PC2:92446
     RDKit          3D

 38 42  0  0  0  0  0  0  0  0999 V2000
    7.0449   -1.4979    8.9032 C   0  0  0  0  0  0  0  0  0  0  0  0
    7.5137   -2.4962    9.7140 O   0  0  0  0  0  0  0  0  0  0  0  0
    6.4694   -3.1179   10.3763 N   0  0  0  0  0  0  0  0  0  0  0  0
    5.3463   -2.4985    9.9843 C   0  0  0  0  0  0  0  0  0  0  0  0
    4.0119   -2.7282   10.3541 C   0  0  0  0  0  0  0  0  0  0  0  0
    3.0820   -1.8544    9.7375 C   0  0  0  0  0  0  0  0  0  0  0  0
    3.4415   -0.8081    8.8158 C   0  0  0  0  0  0  0  0  0  0  0  0
    4.7899   -0.5756    8.4366 C   0  0  0  0  0  0  0  0  0  0  0  0
    5.6823   -1.4568    9.0483 C   0  0  0  0  0  0  0  0  0  0  0  0
   10.0413    0.6000    6.6433 C   0  0  0  0  0  0  0  0  0  0  0  0
    9.3948    1.2050    7.7315 C   0  0  0  0  0  0  0  0  0  0  0  0
    8.4218    0.5184    8.4682 C   0  0  0  0  0  0  0  0  0  0  0  0
    8.0604   -0.7929    8.1346 C   0  0  0  0  0  0  0  0  0  0  0  0
    8.7062   -1.4043    7.0543 C   0  0  0  0  0  0  0  0  0  0  0  0
    9.6809   -0.7171    6.3191 C   0  0  0  0  0  0  0  0  0  0  0  0
   12.3015    3.3340    5.3280 C   0  0  0  0  0  0  0  0  0  0  0  0
   12.9952    2.6057    4.3776 C   0  0  0  0  0  0  0  0  0  0  0  0
   12.7818    1.2959    4.1382 N   0  0  0  0  0  0  0  0  0  0  0  0
   11.8280    0.6900    4.8879 C   0  0  0  0  0  0  0  0  0  0  0  0
   11.0635    1.3206    5.8715 C   0  0  0  0  0  0  0  0  0  0  0  0
   11.3266    2.6806    6.0806 C   0  0  0  0  0  0  0  0  0  0  0  0
    2.4184    0.0608    8.2253 C   0  0  0  0  0  0  0  0  0  0  0  0
    2.4348    1.3808    8.1633 N   0  0  0  0  0  0  0  0  0  0  0  0
    1.2760    1.7627    7.5345 N   0  0  0  0  0  0  0  0  0  0  0  0
    0.5432    0.7085    7.2138 N   0  0  0  0  0  0  0  0  0  0  0  0
    1.2466   -0.3456    7.6442 N   0  0  0  0  0  0  0  0  0  0  0  0
    0.8688   -1.2743    7.5182 H   0  0  0  0  0  0  0  0  0  0  0  0
    3.7325   -3.4683   11.0168 H   0  0  0  0  0  0  0  0  0  0  0  0
    2.0824   -1.9758    9.9637 H   0  0  0  0  0  0  0  0  0  0  0  0
    5.0789    0.1655    7.7792 H   0  0  0  0  0  0  0  0  0  0  0  0
    9.6405    2.1725    7.9935 H   0  0  0  0  0  0  0  0  0  0  0  0
    7.9650    0.9848    9.2675 H   0  0  0  0  0  0  0  0  0  0  0  0
    8.4616   -2.3730    6.7960 H   0  0  0  0  0  0  0  0  0  0  0  0
   10.1421   -1.1878    5.5249 H   0  0  0  0  0  0  0  0  0  0  0  0
   12.5008    4.3357    5.4760 H   0  0  0  0  0  0  0  0  0  0  0  0
   13.7157    3.0918    3.8212 H   0  0  0  0  0  0  0  0  0  0  0  0
   11.6540   -0.3131    4.7187 H   0  0  0  0  0  0  0  0  0  0  0  0
   10.7957    3.2018    6.7958 H   0  0  0  0  0  0  0  0  0  0  0  0
  1  2  1  0
  2  3  1  0
  3  4  2  0
  4  5  1  0
  5  6  2  0
  5 28  1  0
  6  7  1  0
  6 29  1  0
  7 22  1  0
  7  8  2  0
  8  9  1  0
  8 30  1  0
  9  1  2  0
  9  4  1  0
 10 11  2  0
 11 12  1  0
 11 31  1  0
 12 13  2  0
 12 32  1  0
 13  1  1  0
 13 14  1  0
 14 15  2  0
 14 33  1  0
 15 10  1  0
 15 34  1  0
 16 17  2  0
 16 35  1  0
 17 18  1  0
 17 36  1  0
 18 19  2  0
 19 20  1  0
 19 37  1  0
 20 10  1  0
 20 21  2  0
 21 16  1  0
 21 38  1  0
 22 23  2  0
 23 24  1  0
 24 25  2  0
 25 26  1  0
 26 22  1  0
 26 27  1  0
M  END
>  <minimizedAffinity>  (6) 
-6.46511

>  <mol_id>  (6) 
92446

>  <source_index>  (6) 
5

>  <layer>  (6) 
L4

>  <uniprot>  (6) 
Q96PC2

>  <paff>  (6) 
6.2595999999999998

>  <smiles>  (6) 
c1cncc(-c2ccc(-c3onc4ccc(-c5nnn[nH]5)cc34)cc2)c1

$$$$
L4:Q96PC2:100001
     RDKit          3D

 29 32  0  0  0  0  0  0  0  0999 V2000
   -3.1605   -2.1200    0.6460 C   0  0  0  0  0  0  0  0  0  0  0  0
   -3.3112   -3.2176    1.4493 O   0  0  0  0  0  0  0  0  0  0  0  0
   -4.6511   -3.4743    1.6781 N   0  0  0  0  0  0  0  0  0  0  0  0
   -5.3394   -2.5276    1.0231 C   0  0  0  0  0  0  0  0  0  0  0  0
   -6.7243   -2.3198    0.9277 C   0  0  0  0  0  0  0  0  0  0  0  0
   -7.0878   -1.1939    0.1475 C   0  0  0  0  0  0  0  0  0  0  0  0
   -6.1452   -0.3164   -0.4964 C   0  0  0  0  0  0  0  0  0  0  0  0
   -4.7437   -0.5256   -0.4046 C   0  0  0  0  0  0  0  0  0  0  0  0
   -4.4145   -1.6462    0.3584 C   0  0  0  0  0  0  0  0  0  0  0  0
    2.4950   -0.6679   -0.7362 Cl  0  0  0  0  0  0  0  0  0  0  0  0
    0.8849   -1.1249   -0.3108 C   0  0  0  0  0  0  0  0  0  0  0  0
   -0.1670   -0.3789   -0.8466 C   0  0  0  0  0  0  0  0  0  0  0  0
   -1.4918   -0.7036   -0.5361 C   0  0  0  0  0  0  0  0  0  0  0  0
   -1.7847   -1.7759    0.3171 C   0  0  0  0  0  0  0  0  0  0  0  0
   -0.7204   -2.5240    0.8442 C   0  0  0  0  0  0  0  0  0  0  0  0
    0.6070   -2.2016    0.5359 C   0  0  0  0  0  0  0  0  0  0  0  0
    1.8525   -3.1732    1.2368 Cl  0  0  0  0  0  0  0  0  0  0  0  0
   -6.6015    0.8332   -1.2839 C   0  0  0  0  0  0  0  0  0  0  0  0
   -7.6382    1.6113   -1.0267 N   0  0  0  0  0  0  0  0  0  0  0  0
   -7.6888    2.5480   -2.0287 N   0  0  0  0  0  0  0  0  0  0  0  0
   -6.7112    2.3601   -2.9006 N   0  0  0  0  0  0  0  0  0  0  0  0
   -6.0398    1.2962   -2.4441 N   0  0  0  0  0  0  0  0  0  0  0  0
   -5.2458    0.9534   -2.9669 H   0  0  0  0  0  0  0  0  0  0  0  0
   -7.4169   -2.9329    1.3854 H   0  0  0  0  0  0  0  0  0  0  0  0
   -8.0930   -0.9898    0.0335 H   0  0  0  0  0  0  0  0  0  0  0  0
   -4.0440    0.0855   -0.8539 H   0  0  0  0  0  0  0  0  0  0  0  0
    0.0338    0.4153   -1.4743 H   0  0  0  0  0  0  0  0  0  0  0  0
   -2.2617   -0.1474   -0.9397 H   0  0  0  0  0  0  0  0  0  0  0  0
   -0.9188   -3.3224    1.4673 H   0  0  0  0  0  0  0  0  0  0  0  0
  1  2  1  0
  2  3  1  0
  3  4  2  0
  4  5  1  0
  5  6  2  0
  5 24  1  0
  6  7  1  0
  6 25  1  0
  7 18  1  0
  7  8  2  0
  8  9  1  0
  8 26  1  0
  9  1  2  0
  9  4  1  0
 10 11  1  0
 11 12  2  0
 12 13  1  0
 12 27  1  0
 13 14  2  0
 13 28  1  0
 14  1  1  0
 14 15  1  0
 15 16  2  0
 15 29  1  0
 16 17  1  0
 16 11  1  0
 18 19  2  0
 19 20  1  0
 20 21  2  0
 21 22  1  0
 22 18  1  0
 22 23  1  0
M  END
>  <minimizedAffinity>  (7) 
-11.02103

>  <mol_id>  (7) 
100001

>  <source_index>  (7) 
6

>  <layer>  (7) 
L4

>  <uniprot>  (7) 
Q96PC2

>  <paff>  (7) 
6.2595999999999998

>  <smiles>  (7) 
Clc1ccc(-c2onc3ccc(-c4nnn[nH]4)cc23)cc1Cl

$$$$
L4:Q96PC2:120558
     RDKit          3D

 44 47  0  0  0  0  0  0  0  0999 V2000
    8.7236   -1.1476    8.1641 C   0  0  0  0  0  0  0  0  0  0  0  0
    7.3460   -1.4157    8.1905 C   0  0  0  0  0  0  0  0  0  0  0  0
    6.8688   -2.7129    8.4126 C   0  0  0  0  0  0  0  0  0  0  0  0
    7.7693   -3.7665    8.6002 C   0  0  0  0  0  0  0  0  0  0  0  0
    9.1442   -3.5070    8.5840 C   0  0  0  0  0  0  0  0  0  0  0  0
    9.6166   -2.2092    8.3609 C   0  0  0  0  0  0  0  0  0  0  0  0
   11.5553    1.2261    5.3309 C   0  0  0  0  0  0  0  0  0  0  0  0
   11.5480    2.6249    5.6594 C   0  0  0  0  0  0  0  0  0  0  0  0
   10.7867    3.1819    6.7130 C   0  0  0  0  0  0  0  0  0  0  0  0
   10.0228    2.2393    7.4209 C   0  0  0  0  0  0  0  0  0  0  0  0
    9.2057    2.4053    8.4720 N   0  0  0  0  0  0  0  0  0  0  0  0
    8.7096    1.1537    8.7891 O   0  0  0  0  0  0  0  0  0  0  0  0
    9.2050    0.2068    7.9347 C   0  0  0  0  0  0  0  0  0  0  0  0
   10.0450    0.8420    7.0569 C   0  0  0  0  0  0  0  0  0  0  0  0
   10.7928    0.2610    6.0322 C   0  0  0  0  0  0  0  0  0  0  0  0
   13.1730   -0.1452    4.1833 O   0  0  0  0  0  0  0  0  0  0  0  0
   12.4222    0.8119    4.1948 C   0  0  0  0  0  0  0  0  0  0  0  0
   12.3073    1.6231    3.1292 O   0  0  0  0  0  0  0  0  0  0  0  0
   12.9217    1.2373    2.4690 H   0  0  0  0  0  0  0  0  0  0  0  0
    7.3155   -5.1636    8.8430 C   0  0  0  0  0  0  0  0  0  0  0  0
    6.5233   -5.4031    9.7469 O   0  0  0  0  0  0  0  0  0  0  0  0
    7.8622   -6.1349    8.0302 N   0  0  0  0  0  0  0  0  0  0  0  0
    8.6649   -5.9069    7.4602 H   0  0  0  0  0  0  0  0  0  0  0  0
    7.5803   -7.5423    8.2449 C   0  0  0  0  0  0  0  0  0  0  0  0
    7.9837   -8.4200    7.0569 C   0  0  0  0  0  0  0  0  0  0  0  0
    7.9544   -7.6685    5.7543 C   0  0  0  0  0  0  0  0  0  0  0  0
    7.4791   -8.3379    4.4910 C   0  0  0  0  0  0  0  0  0  0  0  0
    8.9375   -8.0149    4.6662 C   0  0  0  0  0  0  0  0  0  0  0  0
    6.6752   -0.6453    8.0440 H   0  0  0  0  0  0  0  0  0  0  0  0
    5.8527   -2.8917    8.4379 H   0  0  0  0  0  0  0  0  0  0  0  0
    9.8136   -4.2773    8.7375 H   0  0  0  0  0  0  0  0  0  0  0  0
   10.6331   -2.0320    8.3411 H   0  0  0  0  0  0  0  0  0  0  0  0
   12.1323    3.2600    5.0935 H   0  0  0  0  0  0  0  0  0  0  0  0
   10.7919    4.1884    6.9409 H   0  0  0  0  0  0  0  0  0  0  0  0
   10.7904   -0.7474    5.8126 H   0  0  0  0  0  0  0  0  0  0  0  0
    6.5300   -7.6580    8.4135 H   0  0  0  0  0  0  0  0  0  0  0  0
    8.1570   -7.8597    9.0884 H   0  0  0  0  0  0  0  0  0  0  0  0
    7.3056   -9.2452    6.9931 H   0  0  0  0  0  0  0  0  0  0  0  0
    8.9881   -8.7505    7.2210 H   0  0  0  0  0  0  0  0  0  0  0  0
    7.6839   -6.7776    6.2815 H   0  0  0  0  0  0  0  0  0  0  0  0
    6.8912   -7.7904    3.7842 H   0  0  0  0  0  0  0  0  0  0  0  0
    6.9223   -9.2240    4.2681 H   0  0  0  0  0  0  0  0  0  0  0  0
    9.3869   -7.2376    4.0841 H   0  0  0  0  0  0  0  0  0  0  0  0
    9.8473   -8.5761    4.6196 H   0  0  0  0  0  0  0  0  0  0  0  0
  1  2  2  0
  2  3  1  0
  2 29  1  0
  3  4  2  0
  3 30  1  0
  4 20  1  0
  4  5  1  0
  5  6  2  0
  5 31  1  0
  6  1  1  0
  6 32  1  0
  7  8  1  0
  8  9  2  0
  8 33  1  0
  9 10  1  0
  9 34  1  0
 10 11  2  0
 11 12  1  0
 12 13  1  0
 13  1  1  0
 13 14  2  0
 14 15  1  0
 14 10  1  0
 15  7  2  0
 15 35  1  0
 16 17  2  0
 17 18  1  0
 17  7  1  0
 18 19  1  0
 20 21  2  0
 20 22  1  0
 22 24  1  0
 22 23  1  0
 24 25  1  0
 24 36  1  0
 24 37  1  0
 25 26  1  0
 25 38  1  0
 25 39  1  0
 26 27  1  0
 26 40  1  0
 27 28  1  0
 27 41  1  0
 27 42  1  0
 28 26  1  0
 28 43  1  0
 28 44  1  0
M  END
>  <minimizedAffinity>  (8) 
-5.65099

>  <mol_id>  (8) 
120558

>  <source_index>  (8) 
7

>  <layer>  (8) 
L4

>  <uniprot>  (8) 
Q96PC2

>  <paff>  (8) 
6.2595999999999998

>  <smiles>  (8) 
O=C(O)c1ccc2noc(-c3ccc(C(=O)NCCC4CC4)cc3)c2c1

$$$$
L4:Q96PC2:126242
     RDKit          3D

 60 64  0  0  0  0  0  0  0  0999 V2000
    6.7044   -1.5336    9.2430 C   0  0  0  0  0  0  0  0  0  0  0  0
    7.0226   -2.8771    9.4263 C   0  0  0  0  0  0  0  0  0  0  0  0
    8.1448   -3.4215    8.7989 C   0  0  0  0  0  0  0  0  0  0  0  0
    8.9570   -2.6224    7.9929 C   0  0  0  0  0  0  0  0  0  0  0  0
    8.6624   -1.2660    7.8091 C   0  0  0  0  0  0  0  0  0  0  0  0
    7.5284   -0.7365    8.4397 C   0  0  0  0  0  0  0  0  0  0  0  0
    9.5145   -0.4336    6.9741 C   0  0  0  0  0  0  0  0  0  0  0  0
   10.0247   -1.0491    5.8646 O   0  0  0  0  0  0  0  0  0  0  0  0
   10.7958   -0.1673    5.1298 N   0  0  0  0  0  0  0  0  0  0  0  0
   10.7744    1.0015    5.7879 C   0  0  0  0  0  0  0  0  0  0  0  0
   11.3947    2.2206    5.4830 C   0  0  0  0  0  0  0  0  0  0  0  0
   11.1515    3.2366    6.4378 C   0  0  0  0  0  0  0  0  0  0  0  0
   10.3539    3.0730    7.6275 C   0  0  0  0  0  0  0  0  0  0  0  0
    9.7222    1.8424    7.9382 C   0  0  0  0  0  0  0  0  0  0  0  0
    9.9679    0.8601    6.9743 C   0  0  0  0  0  0  0  0  0  0  0  0
   10.2160    4.2331    8.5151 C   0  0  0  0  0  0  0  0  0  0  0  0
   11.0133    5.2851    8.5859 N   0  0  0  0  0  0  0  0  0  0  0  0
   10.4968    6.1107    9.5533 N   0  0  0  0  0  0  0  0  0  0  0  0
    9.4015    5.5904   10.0823 N   0  0  0  0  0  0  0  0  0  0  0  0
    9.2251    4.4294    9.4399 N   0  0  0  0  0  0  0  0  0  0  0  0
    8.4389    3.8448    9.6858 H   0  0  0  0  0  0  0  0  0  0  0  0
    5.6455   -0.8705    9.7980 O   0  0  0  0  0  0  0  0  0  0  0  0
    0.5122    0.4242    8.1860 C   0  0  0  0  0  0  0  0  0  0  0  0
    0.2903    1.2274    7.2897 O   0  0  0  0  0  0  0  0  0  0  0  0
    1.7698    0.2335    8.7339 N   0  0  0  0  0  0  0  0  0  0  0  0
    2.8540    1.0849    8.2668 C   0  0  0  0  0  0  0  0  0  0  0  0
    4.1683    0.8099    8.9814 C   0  0  0  0  0  0  0  0  0  0  0  0
    4.4563   -0.6932    9.0159 C   0  0  0  0  0  0  0  0  0  0  0  0
    3.2895   -1.4846    9.6303 C   0  0  0  0  0  0  0  0  0  0  0  0
    2.0384   -0.6431    9.8660 C   0  0  0  0  0  0  0  0  0  0  0  0
   -0.4245   -0.3781    8.7507 O   0  0  0  0  0  0  0  0  0  0  0  0
   -0.3628   -1.6327    6.6351 C   0  0  0  0  0  0  0  0  0  0  0  0
   -0.9469   -1.5327    8.0462 C   0  0  0  0  0  0  0  0  0  0  0  0
   -0.7345   -2.8208    8.8464 C   0  0  0  0  0  0  0  0  0  0  0  0
   -2.4561   -1.2685    7.9358 C   0  0  0  0  0  0  0  0  0  0  0  0
    6.4285   -3.4706   10.0262 H   0  0  0  0  0  0  0  0  0  0  0  0
    8.3746   -4.4188    8.9317 H   0  0  0  0  0  0  0  0  0  0  0  0
    9.7814   -3.0346    7.5286 H   0  0  0  0  0  0  0  0  0  0  0  0
    7.2962    0.2606    8.3093 H   0  0  0  0  0  0  0  0  0  0  0  0
   11.9744    2.3640    4.6413 H   0  0  0  0  0  0  0  0  0  0  0  0
   11.5761    4.1621    6.2701 H   0  0  0  0  0  0  0  0  0  0  0  0
    9.1462    1.6891    8.7806 H   0  0  0  0  0  0  0  0  0  0  0  0
    2.5821    2.1065    8.4321 H   0  0  0  0  0  0  0  0  0  0  0  0
    3.0023    0.8771    7.2277 H   0  0  0  0  0  0  0  0  0  0  0  0
    4.1082    1.1799    9.9836 H   0  0  0  0  0  0  0  0  0  0  0  0
    4.9585    1.3013    8.4532 H   0  0  0  0  0  0  0  0  0  0  0  0
    4.5834   -1.0642    8.0204 H   0  0  0  0  0  0  0  0  0  0  0  0
    3.6097   -1.8852   10.5694 H   0  0  0  0  0  0  0  0  0  0  0  0
    3.0260   -2.2498    8.9304 H   0  0  0  0  0  0  0  0  0  0  0  0
    2.1795   -0.0466   10.7430 H   0  0  0  0  0  0  0  0  0  0  0  0
    1.2051   -1.3032    9.9875 H   0  0  0  0  0  0  0  0  0  0  0  0
   -0.7664   -2.4923    6.1421 H   0  0  0  0  0  0  0  0  0  0  0  0
    0.7017   -1.7231    6.6953 H   0  0  0  0  0  0  0  0  0  0  0  0
   -0.6153   -0.7526    6.0814 H   0  0  0  0  0  0  0  0  0  0  0  0
   -1.1306   -3.6503    8.2988 H   0  0  0  0  0  0  0  0  0  0  0  0
   -1.2366   -2.7426    9.7880 H   0  0  0  0  0  0  0  0  0  0  0  0
    0.3122   -2.9696    9.0116 H   0  0  0  0  0  0  0  0  0  0  0  0
   -2.9241   -2.0824    7.4225 H   0  0  0  0  0  0  0  0  0  0  0  0
   -2.6206   -0.3619    7.3918 H   0  0  0  0  0  0  0  0  0  0  0  0
   -2.8748   -1.1771    8.9162 H   0  0  0  0  0  0  0  0  0  0  0  0
  1  2  2  0
  2  3  1  0
  2 36  1  0
  3  4  2  0
  3 37  1  0
  4  5  1  0
  4 38  1  0
  5  7  1  0
  5  6  2  0
  6  1  1  0
  6 39  1  0
  7  8  1  0
  8  9  1  0
  9 10  2  0
 10 11  1  0
 11 12  2  0
 11 40  1  0
 12 13  1  0
 12 41  1  0
 13 16  1  0
 13 14  2  0
 14 15  1  0
 14 42  1  0
 15  7  2  0
 15 10  1  0
 16 17  2  0
 17 18  1  0
 18 19  2  0
 19 20  1  0
 20 16  1  0
 20 21  1  0
 22  1  1  0
 23 24  2  0
 23 25  1  0
 25 26  1  0
 26 27  1  0
 26 43  1  0
 26 44  1  0
 27 28  1  0
 27 45  1  0
 27 46  1  0
 28 22  1  0
 28 29  1  0
 28 47  1  0
 29 30  1  0
 29 48  1  0
 29 49  1  0
 30 25  1  0
 30 50  1  0
 30 51  1  0
 31 23  1  0
 32 33  1  0
 32 52  1  0
 32 53  1  0
 32 54  1  0
 33 34  1  0
 33 35  1  0
 33 31  1  0
 34 55  1  0
 34 56  1  0
 34 57  1  0
 35 58  1  0
 35 59  1  0
 35 60  1  0
M  END
>  <minimizedAffinity>  (9) 
-6.13791

>  <mol_id>  (9) 
126242

>  <source_index>  (9) 
8

>  <layer>  (9) 
L4

>  <uniprot>  (9) 
Q96PC2

>  <paff>  (9) 
7.2595999999999998

>  <smiles>  (9) 
CC(C)(C)OC(=O)N1CCC(Oc2cccc(-c3onc4ccc(-c5nnn[nH]5)cc34)c2)CC1

$$$$
L4:Q96PC2:128854
     RDKit          3D

 46 50  0  0  0  0  0  0  0  0999 V2000
    9.5055    0.3839    7.2273 C   0  0  0  0  0  0  0  0  0  0  0  0
    8.8379    1.0279    8.2686 C   0  0  0  0  0  0  0  0  0  0  0  0
    7.7281    0.4311    8.8820 C   0  0  0  0  0  0  0  0  0  0  0  0
    7.2681   -0.8242    8.4702 C   0  0  0  0  0  0  0  0  0  0  0  0
    7.9305   -1.4617    7.4149 C   0  0  0  0  0  0  0  0  0  0  0  0
    9.0377   -0.8640    6.8007 C   0  0  0  0  0  0  0  0  0  0  0  0
    6.1281   -1.4541    9.1167 C   0  0  0  0  0  0  0  0  0  0  0  0
    6.4299   -2.4815    9.9668 O   0  0  0  0  0  0  0  0  0  0  0  0
    5.2754   -3.0210   10.5057 N   0  0  0  0  0  0  0  0  0  0  0  0
    4.2501   -2.3190    9.9988 C   0  0  0  0  0  0  0  0  0  0  0  0
    2.8717   -2.4422   10.2228 C   0  0  0  0  0  0  0  0  0  0  0  0
    2.0938   -1.4944    9.5152 C   0  0  0  0  0  0  0  0  0  0  0  0
    2.6280   -0.4800    8.6402 C   0  0  0  0  0  0  0  0  0  0  0  0
    4.0212   -0.3550    8.4077 C   0  0  0  0  0  0  0  0  0  0  0  0
    4.7651   -1.3081    9.1095 C   0  0  0  0  0  0  0  0  0  0  0  0
    1.6741    0.4306    7.9970 C   0  0  0  0  0  0  0  0  0  0  0  0
    1.7049    1.7517    8.0004 N   0  0  0  0  0  0  0  0  0  0  0  0
    0.6183    2.1763    7.2772 N   0  0  0  0  0  0  0  0  0  0  0  0
   -0.0808    1.1469    6.8272 N   0  0  0  0  0  0  0  0  0  0  0  0
    0.5709    0.0657    7.2710 N   0  0  0  0  0  0  0  0  0  0  0  0
    0.2124   -0.8519    7.0453 H   0  0  0  0  0  0  0  0  0  0  0  0
   12.2772   -0.6594    7.0391 O   0  0  0  0  0  0  0  0  0  0  0  0
   11.9066    0.3847    6.5093 C   0  0  0  0  0  0  0  0  0  0  0  0
   10.6293    0.9130    6.5609 N   0  0  0  0  0  0  0  0  0  0  0  0
   10.4727    1.7740    6.0541 H   0  0  0  0  0  0  0  0  0  0  0  0
   12.9009    1.2253    5.7083 C   0  0  0  0  0  0  0  0  0  0  0  0
   12.3549    2.6121    5.3439 C   0  0  0  0  0  0  0  0  0  0  0  0
   12.8258    2.8602    3.9182 C   0  0  0  0  0  0  0  0  0  0  0  0
   12.7873    1.4807    3.2862 C   0  0  0  0  0  0  0  0  0  0  0  0
   13.3205    0.5682    4.3839 C   0  0  0  0  0  0  0  0  0  0  0  0
    9.1641    1.9526    8.5905 H   0  0  0  0  0  0  0  0  0  0  0  0
    7.2435    0.9245    9.6480 H   0  0  0  0  0  0  0  0  0  0  0  0
    7.5993   -2.3821    7.0860 H   0  0  0  0  0  0  0  0  0  0  0  0
    9.5142   -1.3493    6.0245 H   0  0  0  0  0  0  0  0  0  0  0  0
    2.4625   -3.1567   10.8450 H   0  0  0  0  0  0  0  0  0  0  0  0
    1.0694   -1.5321    9.6342 H   0  0  0  0  0  0  0  0  0  0  0  0
    4.4387    0.3588    7.7903 H   0  0  0  0  0  0  0  0  0  0  0  0
   13.7401    1.3095    6.3667 H   0  0  0  0  0  0  0  0  0  0  0  0
   12.7482    3.3563    6.0045 H   0  0  0  0  0  0  0  0  0  0  0  0
   11.2893    2.6588    5.4285 H   0  0  0  0  0  0  0  0  0  0  0  0
   13.8190    3.2581    3.9074 H   0  0  0  0  0  0  0  0  0  0  0  0
   12.2211    3.5735    3.3981 H   0  0  0  0  0  0  0  0  0  0  0  0
   13.4125    1.4404    2.4188 H   0  0  0  0  0  0  0  0  0  0  0  0
   11.8089    1.2030    2.9537 H   0  0  0  0  0  0  0  0  0  0  0  0
   14.3864    0.4957    4.3242 H   0  0  0  0  0  0  0  0  0  0  0  0
   12.9337   -0.4255    4.2951 H   0  0  0  0  0  0  0  0  0  0  0  0
  1  2  2  0
  2  3  1  0
  2 31  1  0
  3  4  2  0
  3 32  1  0
  4  7  1  0
  4  5  1  0
  5  6  2  0
  5 33  1  0
  6  1  1  0
  6 34  1  0
  7  8  1  0
  8  9  1  0
  9 10  2  0
 10 11  1  0
 11 12  2  0
 11 35  1  0
 12 13  1  0
 12 36  1  0
 13 16  1  0
 13 14  2  0
 14 15  1  0
 14 37  1  0
 15  7  2  0
 15 10  1  0
 16 17  2  0
 17 18  1  0
 18 19  2  0
 19 20  1  0
 20 16  1  0
 20 21  1  0
 22 23  2  0
 23 24  1  0
 23 26  1  0
 24  1  1  0
 24 25  1  0
 26 27  1  0
 26 38  1  0
 27 28  1  0
 27 39  1  0
 27 40  1  0
 28 29  1  0
 28 41  1  0
 28 42  1  0
 29 30  1  0
 29 43  1  0
 29 44  1  0
 30 26  1  0
 30 45  1  0
 30 46  1  0
M  END
>  <minimizedAffinity>  (10) 
-6.25088

>  <mol_id>  (10) 
128854

>  <source_index>  (10) 
9

>  <layer>  (10) 
L4

>  <uniprot>  (10) 
Q96PC2

>  <paff>  (10) 
8

>  <smiles>  (10) 
O=C(Nc1ccc(-c2onc3ccc(-c4nnn[nH]4)cc23)cc1)C1CCCC1

$$$$
