L2:P18825:126879


 33 36  0  0  0  0  0  0  0  0999 V2000
   -9.3380    4.0723   57.0796 C   0  0  0  0  0  0  0  0  0  0  0  0
   -9.0641    2.6420   57.3707 N   0  0  0  0  0  0  0  0  0  0  0  0
   -7.7991    2.3186   57.7798 C   0  0  0  0  0  0  0  0  0  0  0  0
   -6.9206    3.3240   57.8283 C   0  0  0  0  0  0  0  0  0  0  0  0
   -7.6286    4.8537   57.3799 S   0  0  0  0  0  0  0  0  0  0  0  0
   -9.8585    2.0579   57.5957 H   0  0  0  0  0  0  0  0  0  0  0  0
  -10.8694    5.5435   60.6884 C   0  0  0  0  0  0  0  0  0  0  0  0
  -10.7871    4.0634   60.2635 C   0  0  0  0  0  0  0  0  0  0  0  0
  -11.1233    3.8405   58.7873 C   0  0  0  0  0  0  0  0  0  0  0  0
  -10.4292    4.7099   57.8376 N   0  0  0  0  0  0  0  0  0  0  0  0
  -10.1569    6.0587   58.3413 C   0  0  0  0  0  0  0  0  0  0  0  0
  -11.0946    6.4664   59.4807 C   0  0  0  0  0  0  0  0  0  0  0  0
  -14.6200    4.6129   62.7256 C   0  0  0  0  0  0  0  0  0  0  0  0
  -14.1555    6.0563   62.5154 C   0  0  0  0  0  0  0  0  0  0  0  0
  -13.5827    6.6237   63.8284 C   0  0  0  0  0  0  0  0  0  0  0  0
  -12.3928    7.5350   63.5617 C   0  0  0  0  0  0  0  0  0  0  0  0
  -11.2914    6.7921   62.7921 C   0  0  0  0  0  0  0  0  0  0  0  0
  -11.8006    5.8417   61.7934 N   0  0  0  0  0  0  0  0  0  0  0  0
  -13.1553    6.1671   61.3450 C   0  0  0  0  0  0  0  0  0  0  0  0
   -9.5789    4.1976   55.4808 C   0  0  0  0  0  0  0  0  0  0  0  0
   -9.9211    3.2731   54.7426 O   0  0  0  0  0  0  0  0  0  0  0  0
   -9.3963    5.4848   54.9908 N   0  0  0  0  0  0  0  0  0  0  0  0
   -9.2323    6.1938   55.6990 H   0  0  0  0  0  0  0  0  0  0  0  0
   -9.6695    5.8610   53.6173 C   0  0  0  0  0  0  0  0  0  0  0  0
   -8.6722    5.1734   52.6859 C   0  0  0  0  0  0  0  0  0  0  0  0
   -9.6319    7.3637   53.4202 C   0  0  0  0  0  0  0  0  0  0  0  0
   -9.1174    7.9668   52.2607 C   0  0  0  0  0  0  0  0  0  0  0  0
   -9.1204    9.3543   52.1325 C   0  0  0  0  0  0  0  0  0  0  0  0
   -8.6244    9.9115   51.0200 F   0  0  0  0  0  0  0  0  0  0  0  0
   -9.6349   10.1698   53.1341 C   0  0  0  0  0  0  0  0  0  0  0  0
  -10.1600    9.5868   54.2847 C   0  0  0  0  0  0  0  0  0  0  0  0
  -10.1576    8.1987   54.4164 C   0  0  0  0  0  0  0  0  0  0  0  0
  -10.6893    7.6608   55.5235 F   0  0  0  0  0  0  0  0  0  0  0  0
 13 14  1  0  0  0
 14 15  1  0  0  0
 15 16  1  0  0  0
 16 17  1  0  0  0
 17 18  1  0  0  0
 18  7  1  0  0  0
  7  8  1  0  0  0
  8  9  1  0  0  0
  9 10  1  0  0  0
  1 10  1  0  0  0
  1 20  1  0  0  0
 20 21  2  0  0  0
 20 22  1  0  0  0
 22 24  1  0  0  0
 24 25  1  0  0  0
 24 26  1  0  0  0
 26 27  2  0  0  0
 27 28  1  0  0  0
 28 29  1  0  0  0
 28 30  2  0  0  0
 30 31  1  0  0  0
 31 32  2  0  0  0
 32 33  1  0  0  0
  1  2  1  0  0  0
  2  3  1  0  0  0
  3  4  2  0  0  0
  4  5  1  0  0  0
 10 11  1  0  0  0
 11 12  1  0  0  0
 18 19  1  0  0  0
 19 14  1  0  0  0
 12  7  1  0  0  0
  5  1  1  0  0  0
 32 26  1  0  0  0
 22 23  1  0  0  0
  2  6  1  0  0  0
M  END
> <minimizedAffinity>
-9.51047

$$$$
