L2:P18825:126879
 OpenBabel09212617513D

 63 66  0  0  0  0  0  0  0  0999 V2000
   -9.3380    4.0723   57.0796 C   0  0  2  0  0  0  0  0  0  0  0  0
   -9.0641    2.6420   57.3707 N   0  0  0  0  0  0  0  0  0  0  0  0
   -7.7991    2.3186   57.7798 C   0  0  0  0  0  0  0  0  0  0  0  0
   -6.9206    3.3240   57.8283 C   0  0  0  0  0  0  0  0  0  0  0  0
   -7.6286    4.8537   57.3799 S   0  0  0  0  0  0  0  0  0  0  0  0
   -9.8585    2.0579   57.5957 H   0  0  0  0  0  0  0  0  0  0  0  0
  -10.8694    5.5435   60.6884 C   0  0  1  0  0  0  0  0  0  0  0  0
  -10.7871    4.0634   60.2635 C   0  0  0  0  0  0  0  0  0  0  0  0
  -11.1233    3.8405   58.7873 C   0  0  0  0  0  0  0  0  0  0  0  0
  -10.4292    4.7099   57.8376 N   0  0  1  0  0  0  0  0  0  0  0  0
  -10.1569    6.0587   58.3413 C   0  0  0  0  0  0  0  0  0  0  0  0
  -11.0946    6.4664   59.4807 C   0  0  0  0  0  0  0  0  0  0  0  0
  -14.6200    4.6129   62.7256 C   0  0  0  0  0  0  0  0  0  0  0  0
  -14.1555    6.0563   62.5154 C   0  0  1  0  0  0  0  0  0  0  0  0
  -13.5827    6.6237   63.8284 C   0  0  0  0  0  0  0  0  0  0  0  0
  -12.3928    7.5350   63.5617 C   0  0  0  0  0  0  0  0  0  0  0  0
  -11.2914    6.7921   62.7921 C   0  0  0  0  0  0  0  0  0  0  0  0
  -11.8006    5.8417   61.7934 N   0  0  1  0  0  0  0  0  0  0  0  0
  -13.1553    6.1671   61.3450 C   0  0  0  0  0  0  0  0  0  0  0  0
   -9.5789    4.1976   55.4808 C   0  0  0  0  0  0  0  0  0  0  0  0
   -9.9211    3.2731   54.7426 O   0  0  0  0  0  0  0  0  0  0  0  0
   -9.3963    5.4848   54.9908 N   0  0  0  0  0  0  0  0  0  0  0  0
   -9.2323    6.1938   55.6990 H   0  0  0  0  0  0  0  0  0  0  0  0
   -9.6695    5.8610   53.6173 C   0  0  2  0  0  0  0  0  0  0  0  0
   -8.6722    5.1734   52.6859 C   0  0  0  0  0  0  0  0  0  0  0  0
   -9.6319    7.3637   53.4202 C   0  0  0  0  0  0  0  0  0  0  0  0
   -9.1174    7.9668   52.2607 C   0  0  0  0  0  0  0  0  0  0  0  0
   -9.1204    9.3543   52.1325 C   0  0  0  0  0  0  0  0  0  0  0  0
   -8.6244    9.9115   51.0200 F   0  0  0  0  0  0  0  0  0  0  0  0
   -9.6349   10.1698   53.1341 C   0  0  0  0  0  0  0  0  0  0  0  0
  -10.1600    9.5868   54.2847 C   0  0  0  0  0  0  0  0  0  0  0  0
  -10.1576    8.1987   54.4164 C   0  0  0  0  0  0  0  0  0  0  0  0
  -10.6893    7.6608   55.5235 F   0  0  0  0  0  0  0  0  0  0  0  0
   -7.5386    1.3535   58.0362 H   0  0  0  0  0  0  0  0  0  0  0  0
   -5.9320    3.2083   58.1010 H   0  0  0  0  0  0  0  0  0  0  0  0
   -9.9059    5.7524   61.1042 H   0  0  0  0  0  0  0  0  0  0  0  0
  -11.4758    3.5001   60.8579 H   0  0  0  0  0  0  0  0  0  0  0  0
   -9.7759    3.7460   60.4108 H   0  0  0  0  0  0  0  0  0  0  0  0
  -12.1751    3.9929   58.6636 H   0  0  0  0  0  0  0  0  0  0  0  0
  -10.7979    2.8463   58.5623 H   0  0  0  0  0  0  0  0  0  0  0  0
  -10.2738    6.7543   57.5367 H   0  0  0  0  0  0  0  0  0  0  0  0
   -9.1591    6.0632   58.7277 H   0  0  0  0  0  0  0  0  0  0  0  0
  -12.1099    6.3833   59.1534 H   0  0  0  0  0  0  0  0  0  0  0  0
  -10.8913    7.4781   59.7636 H   0  0  0  0  0  0  0  0  0  0  0  0
  -15.3101    4.5757   63.5425 H   0  0  0  0  0  0  0  0  0  0  0  0
  -13.7747    3.9945   62.9443 H   0  0  0  0  0  0  0  0  0  0  0  0
  -15.0999    4.2597   61.8369 H   0  0  0  0  0  0  0  0  0  0  0  0
  -15.0022    6.6507   62.2421 H   0  0  0  0  0  0  0  0  0  0  0  0
  -13.2683    5.8125   64.4513 H   0  0  0  0  0  0  0  0  0  0  0  0
  -14.3465    7.1965   64.3116 H   0  0  0  0  0  0  0  0  0  0  0  0
  -11.9975    7.8765   64.4955 H   0  0  0  0  0  0  0  0  0  0  0  0
  -12.7235    8.3623   62.9692 H   0  0  0  0  0  0  0  0  0  0  0  0
  -10.6934    6.2526   63.4965 H   0  0  0  0  0  0  0  0  0  0  0  0
  -10.7312    7.5321   62.2596 H   0  0  0  0  0  0  0  0  0  0  0  0
  -13.4427    5.4864   60.5711 H   0  0  0  0  0  0  0  0  0  0  0  0
  -13.1650    7.1716   60.9765 H   0  0  0  0  0  0  0  0  0  0  0  0
  -10.6615    5.5382   53.3794 H   0  0  0  0  0  0  0  0  0  0  0  0
   -7.6804    5.4965   52.9242 H   0  0  0  0  0  0  0  0  0  0  0  0
   -8.8966    5.4293   51.6715 H   0  0  0  0  0  0  0  0  0  0  0  0
   -8.7412    4.1128   52.8098 H   0  0  0  0  0  0  0  0  0  0  0  0
   -8.7361    7.3807   51.5017 H   0  0  0  0  0  0  0  0  0  0  0  0
   -9.6278   11.1961   53.0261 H   0  0  0  0  0  0  0  0  0  0  0  0
  -10.5486   10.1787   55.0355 H   0  0  0  0  0  0  0  0  0  0  0  0
  1 10  1  0  0  0  0
  1 20  1  6  0  0  0
  1  2  1  0  0  0  0
  2  3  1  0  0  0  0
  2  6  1  0  0  0  0
  3  4  2  0  0  0  0
  3 34  1  0  0  0  0
  4  5  1  0  0  0  0
  4 35  1  0  0  0  0
  5  1  1  0  0  0  0
  7  8  1  0  0  0  0
  7 36  1  1  0  0  0
  8  9  1  0  0  0  0
  8 37  1  0  0  0  0
  8 38  1  0  0  0  0
  9 39  1  0  0  0  0
  9 40  1  0  0  0  0
 10  9  1  1  0  0  0
 10 11  1  0  0  0  0
 11 12  1  0  0  0  0
 11 41  1  0  0  0  0
 11 42  1  0  0  0  0
 12  7  1  0  0  0  0
 12 43  1  0  0  0  0
 12 44  1  0  0  0  0
 13 14  1  0  0  0  0
 13 45  1  0  0  0  0
 13 46  1  0  0  0  0
 13 47  1  0  0  0  0
 14 15  1  0  0  0  0
 14 48  1  6  0  0  0
 15 16  1  0  0  0  0
 15 49  1  0  0  0  0
 15 50  1  0  0  0  0
 16 17  1  0  0  0  0
 16 51  1  0  0  0  0
 16 52  1  0  0  0  0
 17 53  1  0  0  0  0
 17 54  1  0  0  0  0
 18 17  1  6  0  0  0
 18  7  1  0  0  0  0
 18 19  1  0  0  0  0
 19 14  1  0  0  0  0
 19 55  1  0  0  0  0
 19 56  1  0  0  0  0
 20 21  2  0  0  0  0
 20 22  1  0  0  0  0
 22 24  1  0  0  0  0
 22 23  1  0  0  0  0
 24 25  1  0  0  0  0
 24 26  1  0  0  0  0
 24 57  1  6  0  0  0
 25 58  1  0  0  0  0
 25 59  1  0  0  0  0
 25 60  1  0  0  0  0
 26 27  2  0  0  0  0
 27 28  1  0  0  0  0
 27 61  1  0  0  0  0
 28 29  1  0  0  0  0
 28 30  2  0  0  0  0
 30 31  1  0  0  0  0
 30 62  1  0  0  0  0
 31 32  2  0  0  0  0
 31 63  1  0  0  0  0
 32 33  1  0  0  0  0
 32 26  1  0  0  0  0
M  END
>  <minimizedAffinity>
-9.51047

$$$$
