L2:P18825:129391
 OpenBabel09212617513D

 58 61  0  0  0  0  0  0  0  0999 V2000
   -8.0855    2.3632   59.5029 C   0  0  0  0  0  0  0  0  0  0  0  0
   -9.1296    1.7443   60.0144 N   0  0  0  0  0  0  0  0  0  0  0  0
   -8.7724    0.9750   61.1028 C   0  0  0  0  0  0  0  0  0  0  0  0
   -7.4379    0.9942   61.4439 C   0  0  0  0  0  0  0  0  0  0  0  0
   -6.6114    2.0232   60.3503 S   0  0  0  0  0  0  0  0  0  0  0  0
   -9.3315    4.6455   56.2821 C   0  0  0  0  0  0  0  0  0  0  0  0
   -8.9992    3.1491   56.1097 C   0  0  0  0  0  0  0  0  0  0  0  0
   -7.9347    2.6491   57.0865 C   0  0  0  0  0  0  0  0  0  0  0  0
   -8.1592    3.1922   58.4198 N   0  0  0  0  0  0  0  0  0  0  0  0
   -8.2904    4.6401   58.5625 C   0  0  0  0  0  0  0  0  0  0  0  0
   -8.3232    5.3447   57.2054 C   0  0  0  0  0  0  0  0  0  0  0  0
  -10.4812    8.3963   54.3383 C   0  0  0  0  0  0  0  0  0  0  0  0
   -9.3740    7.5056   53.7692 C   0  0  2  0  0  0  0  0  0  0  0  0
   -9.9166    6.6819   52.5844 C   0  0  0  0  0  0  0  0  0  0  0  0
   -9.2640    5.3071   52.5285 C   0  0  0  0  0  0  0  0  0  0  0  0
   -9.4821    4.5355   53.8383 C   0  0  0  0  0  0  0  0  0  0  0  0
   -9.5395    5.3980   55.0304 N   0  0  2  0  0  0  0  0  0  0  0  0
   -8.7445    6.6129   54.8615 C   0  0  0  0  0  0  0  0  0  0  0  0
   -6.7060    0.3266   62.5028 C   0  0  0  0  0  0  0  0  0  0  0  0
   -7.2050   -0.4985   63.2662 O   0  0  0  0  0  0  0  0  0  0  0  0
   -5.3751    0.6793   62.6206 N   0  0  0  0  0  0  0  0  0  0  0  0
   -4.9705    1.3797   62.0193 H   0  0  0  0  0  0  0  0  0  0  0  0
   -4.5220    0.1201   63.6446 C   0  0  0  0  0  0  0  0  0  0  0  0
   -3.3547   -0.6013   63.0350 C   0  0  0  0  0  0  0  0  0  0  0  0
   -2.8361   -0.2072   61.7929 C   0  0  0  0  0  0  0  0  0  0  0  0
   -1.7654   -0.9016   61.2355 C   0  0  0  0  0  0  0  0  0  0  0  0
   -1.2739   -0.5155   60.0513 F   0  0  0  0  0  0  0  0  0  0  0  0
   -1.1981   -1.9923   61.8869 C   0  0  0  0  0  0  0  0  0  0  0  0
   -1.7135   -2.3998   63.1161 C   0  0  0  0  0  0  0  0  0  0  0  0
   -2.7853   -1.7064   63.6760 C   0  0  0  0  0  0  0  0  0  0  0  0
   -3.2788   -2.1212   64.8514 F   0  0  0  0  0  0  0  0  0  0  0  0
   -9.4636    0.4186   61.6297 H   0  0  0  0  0  0  0  0  0  0  0  0
  -10.2919    4.6516   56.7537 H   0  0  0  0  0  0  0  0  0  0  0  0
   -8.6450    2.9927   55.1122 H   0  0  0  0  0  0  0  0  0  0  0  0
   -9.8957    2.6005   56.3102 H   0  0  0  0  0  0  0  0  0  0  0  0
   -6.9697    2.9559   56.7408 H   0  0  0  0  0  0  0  0  0  0  0  0
   -7.9904    1.5818   57.1373 H   0  0  0  0  0  0  0  0  0  0  0  0
   -7.4580    5.0094   59.1243 H   0  0  0  0  0  0  0  0  0  0  0  0
   -9.2136    4.8422   59.0642 H   0  0  0  0  0  0  0  0  0  0  0  0
   -7.3501    5.3076   56.7620 H   0  0  0  0  0  0  0  0  0  0  0  0
   -8.6173    6.3642   57.3430 H   0  0  0  0  0  0  0  0  0  0  0  0
  -10.8924    8.9984   53.5552 H   0  0  0  0  0  0  0  0  0  0  0  0
  -10.0741    9.0295   55.0987 H   0  0  0  0  0  0  0  0  0  0  0  0
  -11.2511    7.7836   54.7588 H   0  0  0  0  0  0  0  0  0  0  0  0
   -8.5866    8.1309   53.4033 H   0  0  0  0  0  0  0  0  0  0  0  0
   -9.7114    7.2035   51.6730 H   0  0  0  0  0  0  0  0  0  0  0  0
  -10.9708    6.5528   52.7145 H   0  0  0  0  0  0  0  0  0  0  0  0
   -8.2134    5.4258   52.3641 H   0  0  0  0  0  0  0  0  0  0  0  0
   -9.7104    4.7522   51.7299 H   0  0  0  0  0  0  0  0  0  0  0  0
   -8.6757    3.8430   53.9608 H   0  0  0  0  0  0  0  0  0  0  0  0
  -10.4309    4.0471   53.7595 H   0  0  0  0  0  0  0  0  0  0  0  0
   -7.7488    6.3480   54.5729 H   0  0  0  0  0  0  0  0  0  0  0  0
   -8.7222    7.1507   55.7863 H   0  0  0  0  0  0  0  0  0  0  0  0
   -5.0892   -0.5682   64.2357 H   0  0  0  0  0  0  0  0  0  0  0  0
   -4.1506    0.9180   64.2532 H   0  0  0  0  0  0  0  0  0  0  0  0
   -3.2474    0.5963   61.2927 H   0  0  0  0  0  0  0  0  0  0  0  0
   -0.4026   -2.4952   61.4636 H   0  0  0  0  0  0  0  0  0  0  0  0
   -1.3044   -3.2093   63.6083 H   0  0  0  0  0  0  0  0  0  0  0  0
  1  2  2  0  0  0  0
  2  3  1  0  0  0  0
  3  4  2  0  0  0  0
  3 32  1  0  0  0  0
  4 19  1  0  0  0  0
  4  5  1  0  0  0  0
  5  1  1  0  0  0  0
  6  7  1  0  0  0  0
  6 33  1  0  0  0  0
  7  8  1  0  0  0  0
  7 34  1  0  0  0  0
  7 35  1  0  0  0  0
  8  9  1  0  0  0  0
  8 36  1  0  0  0  0
  8 37  1  0  0  0  0
  9  1  1  0  0  0  0
  9 10  1  0  0  0  0
 10 11  1  0  0  0  0
 10 38  1  0  0  0  0
 10 39  1  0  0  0  0
 11  6  1  0  0  0  0
 11 40  1  0  0  0  0
 11 41  1  0  0  0  0
 12 13  1  0  0  0  0
 12 42  1  0  0  0  0
 12 43  1  0  0  0  0
 12 44  1  0  0  0  0
 13 14  1  0  0  0  0
 13 45  1  6  0  0  0
 14 15  1  0  0  0  0
 14 46  1  0  0  0  0
 14 47  1  0  0  0  0
 15 16  1  0  0  0  0
 15 48  1  0  0  0  0
 15 49  1  0  0  0  0
 16 17  1  0  0  0  0
 16 50  1  0  0  0  0
 16 51  1  0  0  0  0
 17  6  1  1  0  0  0
 17 18  1  0  0  0  0
 18 13  1  0  0  0  0
 18 52  1  0  0  0  0
 18 53  1  0  0  0  0
 19 20  2  0  0  0  0
 19 21  1  0  0  0  0
 21 23  1  0  0  0  0
 21 22  1  0  0  0  0
 23 24  1  0  0  0  0
 23 54  1  0  0  0  0
 23 55  1  0  0  0  0
 24 25  2  0  0  0  0
 25 26  1  0  0  0  0
 25 56  1  0  0  0  0
 26 27  1  0  0  0  0
 26 28  2  0  0  0  0
 28 29  1  0  0  0  0
 28 57  1  0  0  0  0
 29 30  2  0  0  0  0
 29 58  1  0  0  0  0
 30 31  1  0  0  0  0
 30 24  1  0  0  0  0
M  END
>  <minimizedAffinity>
-9.08687

$$$$
