L2:P18825:129391
     RDKit          3D

 58 61  0  0  0  0  0  0  0  0999 V2000
   -6.6088   -2.1774   -1.5123 C   0  0  0  0  0  0  0  0  0  0  0  0
   -6.6582   -1.2362   -0.3062 C   0  0  2  0  0  0  0  0  0  0  0  0
   -7.4695    0.0272   -0.6560 C   0  0  0  0  0  0  0  0  0  0  0  0
   -6.9068    1.2528    0.0512 C   0  0  0  0  0  0  0  0  0  0  0  0
   -5.4294    1.4709   -0.3069 C   0  0  0  0  0  0  0  0  0  0  0  0
   -4.6901    0.2216   -0.5539 N   0  0  0  0  0  0  0  0  0  0  0  0
   -3.2283    0.4074   -0.4831 C   0  0  0  0  0  0  0  0  0  0  0  0
   -2.6587    0.6593    0.9281 C   0  0  0  0  0  0  0  0  0  0  0  0
   -1.3343   -0.0604    1.1835 C   0  0  0  0  0  0  0  0  0  0  0  0
   -0.4601    0.0358    0.0218 N   0  0  0  0  0  0  0  0  0  0  0  0
    0.8546    0.3623    0.1969 C   0  0  0  0  0  0  0  0  0  0  0  0
    1.3825    0.6393    1.3714 N   0  0  0  0  0  0  0  0  0  0  0  0
    2.7251    0.9376    1.2594 C   0  0  0  0  0  0  0  0  0  0  0  0
    3.2494    0.8934   -0.0137 C   0  0  0  0  0  0  0  0  0  0  0  0
    4.5888    1.1398   -0.5115 C   0  0  0  0  0  0  0  0  0  0  0  0
    4.9009    1.0772   -1.6995 O   0  0  0  0  0  0  0  0  0  0  0  0
    5.5323    1.4537    0.4481 N   0  0  0  0  0  0  0  0  0  0  0  0
    6.9160    1.6996    0.1106 C   0  0  0  0  0  0  0  0  0  0  0  0
    7.7479    0.4686    0.3280 C   0  0  0  0  0  0  0  0  0  0  0  0
    7.8605   -0.5079   -0.6724 C   0  0  0  0  0  0  0  0  0  0  0  0
    8.6212   -1.6517   -0.4439 C   0  0  0  0  0  0  0  0  0  0  0  0
    8.7267   -2.5766   -1.4064 F   0  0  0  0  0  0  0  0  0  0  0  0
    9.2725   -1.8519    0.7692 C   0  0  0  0  0  0  0  0  0  0  0  0
    9.1575   -0.8934    1.7745 C   0  0  0  0  0  0  0  0  0  0  0  0
    8.3965    0.2522    1.5482 C   0  0  0  0  0  0  0  0  0  0  0  0
    8.2837    1.1566    2.5314 F   0  0  0  0  0  0  0  0  0  0  0  0
    1.9980    0.4624   -1.1029 S   0  0  0  0  0  0  0  0  0  0  0  0
   -0.9856   -0.3851   -1.2746 C   0  0  0  0  0  0  0  0  0  0  0  0
   -2.4758   -0.7217   -1.2021 C   0  0  0  0  0  0  0  0  0  0  0  0
   -5.2418   -0.8967    0.2086 C   0  0  0  0  0  0  0  0  0  0  0  0
   -6.0728   -1.7247   -2.3534 H   0  0  0  0  0  0  0  0  0  0  0  0
   -7.6203   -2.4286   -1.8488 H   0  0  0  0  0  0  0  0  0  0  0  0
   -6.1017   -3.1128   -1.2535 H   0  0  0  0  0  0  0  0  0  0  0  0
   -7.1796   -1.7645    0.5031 H   0  0  0  0  0  0  0  0  0  0  0  0
   -7.4571    0.2093   -1.7384 H   0  0  0  0  0  0  0  0  0  0  0  0
   -8.5198   -0.1199   -0.3785 H   0  0  0  0  0  0  0  0  0  0  0  0
   -7.4873    2.1431   -0.2156 H   0  0  0  0  0  0  0  0  0  0  0  0
   -7.0082    1.1210    1.1360 H   0  0  0  0  0  0  0  0  0  0  0  0
   -5.3725    2.0825   -1.2156 H   0  0  0  0  0  0  0  0  0  0  0  0
   -4.9762    2.0580    0.5011 H   0  0  0  0  0  0  0  0  0  0  0  0
   -3.0096    1.3106   -1.0732 H   0  0  0  0  0  0  0  0  0  0  0  0
   -2.5121    1.7407    1.0514 H   0  0  0  0  0  0  0  0  0  0  0  0
   -3.3596    0.3679    1.7175 H   0  0  0  0  0  0  0  0  0  0  0  0
   -1.5206   -1.1193    1.4034 H   0  0  0  0  0  0  0  0  0  0  0  0
   -0.8903    0.3644    2.0918 H   0  0  0  0  0  0  0  0  0  0  0  0
    3.2649    1.1828    2.1645 H   0  0  0  0  0  0  0  0  0  0  0  0
    5.2888    1.4730    1.4260 H   0  0  0  0  0  0  0  0  0  0  0  0
    7.2666    2.5205    0.7460 H   0  0  0  0  0  0  0  0  0  0  0  0
    7.0080    2.0425   -0.9263 H   0  0  0  0  0  0  0  0  0  0  0  0
    7.3557   -0.3883   -1.6286 H   0  0  0  0  0  0  0  0  0  0  0  0
    9.8586   -2.7525    0.9224 H   0  0  0  0  0  0  0  0  0  0  0  0
    9.6513   -1.0315    2.7313 H   0  0  0  0  0  0  0  0  0  0  0  0
   -0.4472   -1.2689   -1.6378 H   0  0  0  0  0  0  0  0  0  0  0  0
   -0.8471    0.4193   -2.0080 H   0  0  0  0  0  0  0  0  0  0  0  0
   -2.6042   -1.6784   -0.6823 H   0  0  0  0  0  0  0  0  0  0  0  0
   -2.8633   -0.8588   -2.2191 H   0  0  0  0  0  0  0  0  0  0  0  0
   -4.6191   -1.7939    0.1313 H   0  0  0  0  0  0  0  0  0  0  0  0
   -5.2919   -0.6522    1.2773 H   0  0  0  0  0  0  0  0  0  0  0  0
  1  2  1  0
  2  3  1  0
  3  4  1  0
  4  5  1  0
  5  6  1  0
  6  7  1  0
  7  8  1  0
  8  9  1  0
  9 10  1  0
 10 11  1  0
 11 12  2  0
 12 13  1  0
 13 14  2  0
 14 15  1  0
 15 16  2  0
 15 17  1  0
 17 18  1  0
 18 19  1  0
 19 20  2  0
 20 21  1  0
 21 22  1  0
 21 23  2  0
 23 24  1  0
 24 25  2  0
 25 26  1  0
 14 27  1  0
 10 28  1  0
 28 29  1  0
  6 30  1  0
 30  2  1  0
 29  7  1  0
 27 11  1  0
 25 19  1  0
  1 31  1  0
  1 32  1  0
  1 33  1  0
  2 34  1  1
  3 35  1  0
  3 36  1  0
  4 37  1  0
  4 38  1  0
  5 39  1  0
  5 40  1  0
  7 41  1  0
  8 42  1  0
  8 43  1  0
  9 44  1  0
  9 45  1  0
 13 46  1  0
 17 47  1  0
 18 48  1  0
 18 49  1  0
 20 50  1  0
 23 51  1  0
 24 52  1  0
 28 53  1  0
 28 54  1  0
 29 55  1  0
 29 56  1  0
 30 57  1  0
 30 58  1  0
M  END
>  <mol_id>  (1) 
129391

>  <source_index>  (1) 
6

>  <layer>  (1) 
L2

>  <uniprot>  (1) 
P18825

>  <paff>  (1) 
7.6536

>  <smiles>  (1) 
C[C@@H]1CCCN(C1)C1CCN(CC1)c1ncc(s1)C(=O)NCc1cc(F)ccc1F |r|

$$$$
