L2:P18825:134891
     RDKit          3D

 61 64  0  0  0  0  0  0  0  0999 V2000
    5.7790    3.6019    0.3236 O   0  0  0  0  0  0  0  0  0  0  0  0
    5.1797    2.5287    0.3409 C   0  0  0  0  0  0  0  0  0  0  0  0
    5.8624    1.3380    0.3411 N   0  0  0  0  0  0  0  0  0  0  0  0
    7.3068    1.2746    0.3201 C   0  0  0  0  0  0  0  0  0  0  0  0
    7.8042   -0.1520    0.3246 C   0  0  0  0  0  0  0  0  0  0  0  0
    6.8812   -1.1624    0.3483 N   0  0  0  0  0  0  0  0  0  0  0  0
    7.3678   -2.4285    0.3511 C   0  0  0  0  0  0  0  0  0  0  0  0
    8.7201   -2.7314    0.3319 C   0  0  0  0  0  0  0  0  0  0  0  0
    9.1306   -4.0052    0.3362 F   0  0  0  0  0  0  0  0  0  0  0  0
    9.6454   -1.7008    0.3083 C   0  0  0  0  0  0  0  0  0  0  0  0
    9.1769   -0.3948    0.3047 C   0  0  0  0  0  0  0  0  0  0  0  0
   10.0501    0.6207    0.2821 F   0  0  0  0  0  0  0  0  0  0  0  0
    3.7364    2.4351    0.3620 C   0  0  0  0  0  0  0  0  0  0  0  0
    2.8347    3.4749    0.3591 C   0  0  0  0  0  0  0  0  0  0  0  0
    1.5034    3.1136    0.3826 N   0  0  0  0  0  0  0  0  0  0  0  0
    1.3645    1.8031    0.4036 C   0  0  0  0  0  0  0  0  0  0  0  0
    0.1409    1.1953    0.4254 N   0  0  0  0  0  0  0  0  0  0  0  0
   -0.0543   -0.2371    0.5655 C   0  0  0  0  0  0  0  0  0  0  0  0
   -1.0964   -0.7493   -0.4316 C   0  0  0  0  0  0  0  0  0  0  0  0
   -2.2863    0.2134   -0.6280 C   0  0  0  0  0  0  0  0  0  0  0  0
   -3.5971   -0.4293   -0.8699 N   0  0  0  0  0  0  0  0  0  0  0  0
   -3.6056   -1.2142   -2.1147 C   0  0  0  0  0  0  0  0  0  0  0  0
   -5.0055   -1.7289   -2.4565 C   0  0  0  0  0  0  0  0  0  0  0  0
   -5.6078   -2.5267   -1.3013 C   0  0  0  0  0  0  0  0  0  0  0  0
   -5.5807   -1.7054   -0.0100 C   0  0  2  0  0  0  0  0  0  0  0  0
   -6.5468   -0.6545   -0.1640 O   0  0  0  0  0  0  0  0  0  0  0  0
   -6.6975    0.1929    0.9802 C   0  0  0  0  0  0  0  0  0  0  0  0
   -7.9387    1.0757    0.8820 C   0  0  0  0  0  0  0  0  0  0  0  0
   -8.0383    1.8593    1.9847 F   0  0  0  0  0  0  0  0  0  0  0  0
   -9.0715    0.3408    0.8136 F   0  0  0  0  0  0  0  0  0  0  0  0
   -7.9015    1.8954   -0.1900 F   0  0  0  0  0  0  0  0  0  0  0  0
   -4.1366   -1.2086    0.2560 C   0  0  0  0  0  0  0  0  0  0  0  0
   -2.3391    1.2626    0.4906 C   0  0  0  0  0  0  0  0  0  0  0  0
   -1.0366    2.0638    0.5033 C   0  0  0  0  0  0  0  0  0  0  0  0
    2.8786    0.9583    0.3956 S   0  0  0  0  0  0  0  0  0  0  0  0
    5.3623    0.4551    0.3542 H   0  0  0  0  0  0  0  0  0  0  0  0
    7.6565    1.7909   -0.5808 H   0  0  0  0  0  0  0  0  0  0  0  0
    7.6831    1.8058    1.2014 H   0  0  0  0  0  0  0  0  0  0  0  0
    6.6258   -3.2206    0.3696 H   0  0  0  0  0  0  0  0  0  0  0  0
   10.7081   -1.9091    0.2930 H   0  0  0  0  0  0  0  0  0  0  0  0
    3.0994    4.5259    0.3397 H   0  0  0  0  0  0  0  0  0  0  0  0
   -0.3875   -0.4497    1.5895 H   0  0  0  0  0  0  0  0  0  0  0  0
    0.8578   -0.8242    0.4199 H   0  0  0  0  0  0  0  0  0  0  0  0
   -1.4169   -1.7413   -0.0962 H   0  0  0  0  0  0  0  0  0  0  0  0
   -0.6178   -0.9081   -1.4073 H   0  0  0  0  0  0  0  0  0  0  0  0
   -2.0696    0.7888   -1.5410 H   0  0  0  0  0  0  0  0  0  0  0  0
   -2.9192   -2.0672   -2.0427 H   0  0  0  0  0  0  0  0  0  0  0  0
   -3.2634   -0.5925   -2.9510 H   0  0  0  0  0  0  0  0  0  0  0  0
   -4.9557   -2.3608   -3.3507 H   0  0  0  0  0  0  0  0  0  0  0  0
   -5.6582   -0.8821   -2.7034 H   0  0  0  0  0  0  0  0  0  0  0  0
   -6.6374   -2.8030   -1.5566 H   0  0  0  0  0  0  0  0  0  0  0  0
   -5.0388   -3.4540   -1.1625 H   0  0  0  0  0  0  0  0  0  0  0  0
   -5.9060   -2.3445    0.8201 H   0  0  0  0  0  0  0  0  0  0  0  0
   -5.8203    0.8419    1.0631 H   0  0  0  0  0  0  0  0  0  0  0  0
   -6.7704   -0.4215    1.8844 H   0  0  0  0  0  0  0  0  0  0  0  0
   -3.5048   -2.0810    0.4615 H   0  0  0  0  0  0  0  0  0  0  0  0
   -4.1438   -0.6035    1.1662 H   0  0  0  0  0  0  0  0  0  0  0  0
   -2.4796    0.7876    1.4690 H   0  0  0  0  0  0  0  0  0  0  0  0
   -3.1820    1.9487    0.3433 H   0  0  0  0  0  0  0  0  0  0  0  0
   -1.0406    2.7529   -0.3514 H   0  0  0  0  0  0  0  0  0  0  0  0
   -1.0034    2.6693    1.4177 H   0  0  0  0  0  0  0  0  0  0  0  0
  1  2  2  0
  2  3  1  0
  3  4  1  0
  4  5  1  0
  5  6  2  0
  6  7  1  0
  7  8  2  0
  8  9  1  0
  8 10  1  0
 10 11  2  0
 11 12  1  0
  2 13  1  0
 13 14  2  0
 14 15  1  0
 15 16  2  0
 16 17  1  0
 17 18  1  0
 18 19  1  0
 19 20  1  0
 20 21  1  0
 21 22  1  0
 22 23  1  0
 23 24  1  0
 24 25  1  0
 25 26  1  0
 26 27  1  0
 27 28  1  0
 28 29  1  0
 28 30  1  0
 28 31  1  0
 25 32  1  0
 20 33  1  0
 33 34  1  0
 16 35  1  0
 11  5  1  0
 35 13  1  0
 34 17  1  0
 32 21  1  0
  3 36  1  0
  4 37  1  0
  4 38  1  0
  7 39  1  0
 10 40  1  0
 14 41  1  0
 18 42  1  0
 18 43  1  0
 19 44  1  0
 19 45  1  0
 20 46  1  0
 22 47  1  0
 22 48  1  0
 23 49  1  0
 23 50  1  0
 24 51  1  0
 24 52  1  0
 25 53  1  1
 27 54  1  0
 27 55  1  0
 32 56  1  0
 32 57  1  0
 33 58  1  0
 33 59  1  0
 34 60  1  0
 34 61  1  0
M  END
>  <mol_id>  (1) 
134891

>  <source_index>  (1) 
7

>  <layer>  (1) 
L2

>  <uniprot>  (1) 
P18825

>  <paff>  (1) 
6.1938000000000004

>  <smiles>  (1) 
Fc1cnc(CNC(=O)c2cnc(s2)N2CCC(CC2)N2CCCC(C2)OCC(F)(F)F)c(F)c1

$$$$
