L2:P18825:134891


 36 39  0  0  0  0  0  0  0  0999 V2000
   -8.8860    4.1937   56.2468 C   0  0  0  0  0  0  0  0  0  0  0  0
   -8.6729    5.0915   57.2679 C   0  0  0  0  0  0  0  0  0  0  0  0
   -8.2318    4.5514   58.4583 N   0  0  0  0  0  0  0  0  0  0  0  0
   -8.1010    3.2429   58.3696 C   0  0  0  0  0  0  0  0  0  0  0  0
   -8.5186    2.6219   56.8056 S   0  0  0  0  0  0  0  0  0  0  0  0
   -7.6808    2.4748   59.4187 N   0  0  0  0  0  0  0  0  0  0  0  0
   -6.8133    2.9523   60.4813 C   0  0  0  0  0  0  0  0  0  0  0  0
   -5.7100    1.9367   60.7873 C   0  0  0  0  0  0  0  0  0  0  0  0
   -6.1894    0.4709   60.7322 C   0  0  0  0  0  0  0  0  0  0  0  0
   -7.7215    0.3888   60.7627 C   0  0  0  0  0  0  0  0  0  0  0  0
   -8.2993    1.1554   59.5723 C   0  0  0  0  0  0  0  0  0  0  0  0
   -5.5493   -0.4492   61.6984 N   0  0  0  0  0  0  0  0  0  0  0  0
   -6.4749   -0.8592   62.7665 C   0  0  0  0  0  0  0  0  0  0  0  0
   -5.7668   -1.6626   63.8594 C   0  0  0  0  0  0  0  0  0  0  0  0
   -5.0289   -2.8686   63.2807 C   0  0  0  0  0  0  0  0  0  0  0  0
   -4.0801   -2.4313   62.1621 C   0  0  0  0  0  0  0  0  0  0  0  0
   -4.8675   -1.6120   61.1077 C   0  0  0  0  0  0  0  0  0  0  0  0
   -3.0048   -1.7120   62.7849 O   0  0  0  0  0  0  0  0  0  0  0  0
   -1.7712   -1.7316   62.0584 C   0  0  0  0  0  0  0  0  0  0  0  0
   -1.4041   -0.3544   61.5122 C   0  0  0  0  0  0  0  0  0  0  0  0
   -2.4922    0.4553   61.5280 F   0  0  0  0  0  0  0  0  0  0  0  0
   -0.9776   -0.4215   60.2310 F   0  0  0  0  0  0  0  0  0  0  0  0
   -0.4448    0.2491   62.2458 F   0  0  0  0  0  0  0  0  0  0  0  0
  -10.1029    3.7456   54.2837 O   0  0  0  0  0  0  0  0  0  0  0  0
   -9.3444    4.4861   54.9063 C   0  0  0  0  0  0  0  0  0  0  0  0
   -8.8828    5.6534   54.3511 N   0  0  0  0  0  0  0  0  0  0  0  0
   -8.2559    6.2601   54.8694 H   0  0  0  0  0  0  0  0  0  0  0  0
   -9.2544    6.0762   53.0192 C   0  0  0  0  0  0  0  0  0  0  0  0
   -9.4065    7.5768   52.9308 C   0  0  0  0  0  0  0  0  0  0  0  0
   -8.9280    8.2145   51.8183 N   0  0  0  0  0  0  0  0  0  0  0  0
   -9.0843    9.5612   51.7768 C   0  0  0  0  0  0  0  0  0  0  0  0
   -9.6898   10.2953   52.7844 C   0  0  0  0  0  0  0  0  0  0  0  0
   -9.8105   11.6239   52.6777 F   0  0  0  0  0  0  0  0  0  0  0  0
  -10.1702    9.6395   53.9060 C   0  0  0  0  0  0  0  0  0  0  0  0
  -10.0246    8.2615   53.9763 C   0  0  0  0  0  0  0  0  0  0  0  0
  -10.4801    7.6024   55.0497 F   0  0  0  0  0  0  0  0  0  0  0  0
 24 25  2  0  0  0
 25 26  1  0  0  0
 26 28  1  0  0  0
 28 29  1  0  0  0
 29 30  2  0  0  0
 30 31  1  0  0  0
 31 32  2  0  0  0
 32 33  1  0  0  0
 32 34  1  0  0  0
 34 35  2  0  0  0
 35 36  1  0  0  0
 25  1  1  0  0  0
  1  2  2  0  0  0
  2  3  1  0  0  0
  3  4  2  0  0  0
  4  6  1  0  0  0
  6  7  1  0  0  0
  7  8  1  0  0  0
  8  9  1  0  0  0
  9 12  1  0  0  0
 12 13  1  0  0  0
 13 14  1  0  0  0
 14 15  1  0  0  0
 15 16  1  0  0  0
 16 18  1  0  0  0
 18 19  1  0  0  0
 19 20  1  0  0  0
 20 21  1  0  0  0
 20 22  1  0  0  0
 20 23  1  0  0  0
 16 17  1  0  0  0
  9 10  1  0  0  0
 10 11  1  0  0  0
  4  5  1  0  0  0
 35 29  1  0  0  0
  5  1  1  0  0  0
 11  6  1  0  0  0
 17 12  1  0  0  0
 26 27  1  0  0  0
M  END
> <minimizedAffinity>
-9.32591

$$$$
