L2:P18825:136971


 29 32  0  0  0  0  0  0  0  0999 V2000
   -8.5821    2.7336   58.1545 C   0  0  0  0  0  0  0  0  0  0  0  0
   -9.6941    3.4406   58.2254 N   0  0  0  0  0  0  0  0  0  0  0  0
  -10.1255    3.8254   56.9740 C   0  0  0  0  0  0  0  0  0  0  0  0
   -9.3120    3.4573   55.9288 C   0  0  0  0  0  0  0  0  0  0  0  0
   -8.0152    2.5246   56.5253 S   0  0  0  0  0  0  0  0  0  0  0  0
   -6.5288    0.9604   61.4367 C   0  0  0  0  0  0  0  0  0  0  0  0
   -6.0745    2.3008   60.8386 C   0  0  0  0  0  0  0  0  0  0  0  0
   -7.2525    3.0543   60.2240 C   0  0  0  0  0  0  0  0  0  0  0  0
   -7.9571    2.2157   59.2569 N   0  0  0  0  0  0  0  0  0  0  0  0
   -8.3759    0.8913   59.7206 C   0  0  0  0  0  0  0  0  0  0  0  0
   -7.2050    0.1279   60.3373 C   0  0  0  0  0  0  0  0  0  0  0  0
   -1.7132   -0.4628   61.6111 C   0  0  0  0  0  0  0  0  0  0  0  0
   -3.1140   -0.6207   62.2001 C   0  0  0  0  0  0  0  0  0  0  0  0
   -3.5774   -2.0828   62.1193 C   0  0  0  0  0  0  0  0  0  0  0  0
   -5.0960   -2.2098   62.0169 C   0  0  0  0  0  0  0  0  0  0  0  0
   -5.8125   -1.0425   62.6903 C   0  0  0  0  0  0  0  0  0  0  0  0
   -5.4368    0.2714   62.1535 N   0  0  0  0  0  0  0  0  0  0  0  0
   -4.1199    0.3117   61.5060 C   0  0  0  0  0  0  0  0  0  0  0  0
   -9.4591    3.6915   54.5112 C   0  0  0  0  0  0  0  0  0  0  0  0
   -9.5321    2.7558   53.7136 O   0  0  0  0  0  0  0  0  0  0  0  0
   -9.5391    5.0170   54.0653 N   0  0  0  0  0  0  0  0  0  0  0  0
   -9.8757    5.2435   52.6671 C   0  0  0  0  0  0  0  0  0  0  0  0
   -9.1049    6.1869   54.8350 C   0  0  0  0  0  0  0  0  0  0  0  0
   -9.3783    7.4912   54.1206 C   0  0  0  0  0  0  0  0  0  0  0  0
   -8.8219    7.7433   52.8582 C   0  0  0  0  0  0  0  0  0  0  0  0
   -9.0766    8.9477   52.2000 C   0  0  0  0  0  0  0  0  0  0  0  0
   -9.8890    9.9109   52.7951 C   0  0  0  0  0  0  0  0  0  0  0  0
  -10.4483    9.6715   54.0486 C   0  0  0  0  0  0  0  0  0  0  0  0
  -10.1960    8.4680   54.7085 C   0  0  0  0  0  0  0  0  0  0  0  0
 12 13  1  0  0  0
 13 14  1  0  0  0
 14 15  1  0  0  0
 15 16  1  0  0  0
 16 17  1  0  0  0
 17  6  1  0  0  0
  6  7  1  0  0  0
  7  8  1  0  0  0
  8  9  1  0  0  0
  9  1  1  0  0  0
  1  2  2  0  0  0
  2  3  1  0  0  0
  3  4  2  0  0  0
  4 19  1  0  0  0
 19 20  2  0  0  0
 19 21  1  0  0  0
 21 22  1  0  0  0
 21 23  1  0  0  0
 23 24  1  0  0  0
 24 25  2  0  0  0
 25 26  1  0  0  0
 26 27  2  0  0  0
 27 28  1  0  0  0
 28 29  2  0  0  0
  4  5  1  0  0  0
  9 10  1  0  0  0
 10 11  1  0  0  0
 17 18  1  0  0  0
 18 13  1  0  0  0
 11  6  1  0  0  0
  5  1  1  0  0  0
 29 24  1  0  0  0
M  END
> <minimizedAffinity>
-9.23156

$$$$
