L2:P18825:136971
 OpenBabel09212617513D

 61 64  0  0  0  0  0  0  0  0999 V2000
   -8.5821    2.7336   58.1545 C   0  0  0  0  0  0  0  0  0  0  0  0
   -9.6941    3.4406   58.2254 N   0  0  0  0  0  0  0  0  0  0  0  0
  -10.1255    3.8254   56.9740 C   0  0  0  0  0  0  0  0  0  0  0  0
   -9.3120    3.4573   55.9288 C   0  0  0  0  0  0  0  0  0  0  0  0
   -8.0152    2.5246   56.5253 S   0  0  0  0  0  0  0  0  0  0  0  0
   -6.5288    0.9604   61.4367 C   0  0  0  0  0  0  0  0  0  0  0  0
   -6.0745    2.3008   60.8386 C   0  0  0  0  0  0  0  0  0  0  0  0
   -7.2525    3.0543   60.2240 C   0  0  0  0  0  0  0  0  0  0  0  0
   -7.9571    2.2157   59.2569 N   0  0  0  0  0  0  0  0  0  0  0  0
   -8.3759    0.8913   59.7206 C   0  0  0  0  0  0  0  0  0  0  0  0
   -7.2050    0.1279   60.3373 C   0  0  0  0  0  0  0  0  0  0  0  0
   -1.7132   -0.4628   61.6111 C   0  0  0  0  0  0  0  0  0  0  0  0
   -3.1140   -0.6207   62.2001 C   0  0  2  0  0  0  0  0  0  0  0  0
   -3.5774   -2.0828   62.1193 C   0  0  0  0  0  0  0  0  0  0  0  0
   -5.0960   -2.2098   62.0169 C   0  0  0  0  0  0  0  0  0  0  0  0
   -5.8125   -1.0425   62.6903 C   0  0  0  0  0  0  0  0  0  0  0  0
   -5.4368    0.2714   62.1535 N   0  0  1  0  0  0  0  0  0  0  0  0
   -4.1199    0.3117   61.5060 C   0  0  0  0  0  0  0  0  0  0  0  0
   -9.4591    3.6915   54.5112 C   0  0  0  0  0  0  0  0  0  0  0  0
   -9.5321    2.7558   53.7136 O   0  0  0  0  0  0  0  0  0  0  0  0
   -9.5391    5.0170   54.0653 N   0  0  0  0  0  0  0  0  0  0  0  0
   -9.8757    5.2435   52.6671 C   0  0  0  0  0  0  0  0  0  0  0  0
   -9.1049    6.1869   54.8350 C   0  0  0  0  0  0  0  0  0  0  0  0
   -9.3783    7.4912   54.1206 C   0  0  0  0  0  0  0  0  0  0  0  0
   -8.8219    7.7433   52.8582 C   0  0  0  0  0  0  0  0  0  0  0  0
   -9.0766    8.9477   52.2000 C   0  0  0  0  0  0  0  0  0  0  0  0
   -9.8890    9.9109   52.7951 C   0  0  0  0  0  0  0  0  0  0  0  0
  -10.4483    9.6715   54.0486 C   0  0  0  0  0  0  0  0  0  0  0  0
  -10.1960    8.4680   54.7085 C   0  0  0  0  0  0  0  0  0  0  0  0
  -11.0002    4.3542   56.8314 H   0  0  0  0  0  0  0  0  0  0  0  0
   -7.2606    1.1280   62.1991 H   0  0  0  0  0  0  0  0  0  0  0  0
   -5.3436    2.1153   60.0795 H   0  0  0  0  0  0  0  0  0  0  0  0
   -5.6585    2.8996   61.6217 H   0  0  0  0  0  0  0  0  0  0  0  0
   -6.8888    3.9305   59.7292 H   0  0  0  0  0  0  0  0  0  0  0  0
   -7.9328    3.3229   61.0049 H   0  0  0  0  0  0  0  0  0  0  0  0
   -8.7570    0.3348   58.8900 H   0  0  0  0  0  0  0  0  0  0  0  0
   -9.1311    1.0165   60.4682 H   0  0  0  0  0  0  0  0  0  0  0  0
   -6.4887   -0.0923   59.5735 H   0  0  0  0  0  0  0  0  0  0  0  0
   -7.5764   -0.7766   60.7719 H   0  0  0  0  0  0  0  0  0  0  0  0
   -1.0382   -1.1233   62.1141 H   0  0  0  0  0  0  0  0  0  0  0  0
   -1.3846    0.5475   61.7382 H   0  0  0  0  0  0  0  0  0  0  0  0
   -1.7357   -0.7020   60.5684 H   0  0  0  0  0  0  0  0  0  0  0  0
   -3.0686   -0.3401   63.2316 H   0  0  0  0  0  0  0  0  0  0  0  0
   -3.2486   -2.5962   62.9986 H   0  0  0  0  0  0  0  0  0  0  0  0
   -3.1548   -2.5095   61.2337 H   0  0  0  0  0  0  0  0  0  0  0  0
   -5.3994   -3.1206   62.4894 H   0  0  0  0  0  0  0  0  0  0  0  0
   -5.3594   -2.2062   60.9798 H   0  0  0  0  0  0  0  0  0  0  0  0
   -5.5787   -1.0600   63.7343 H   0  0  0  0  0  0  0  0  0  0  0  0
   -6.8584   -1.1686   62.5032 H   0  0  0  0  0  0  0  0  0  0  0  0
   -3.7462    1.3136   61.5431 H   0  0  0  0  0  0  0  0  0  0  0  0
   -4.2362   -0.0180   60.4947 H   0  0  0  0  0  0  0  0  0  0  0  0
  -10.1754    4.3196   52.2182 H   0  0  0  0  0  0  0  0  0  0  0  0
   -9.0207    5.6293   52.1524 H   0  0  0  0  0  0  0  0  0  0  0  0
  -10.6785    5.9481   52.6031 H   0  0  0  0  0  0  0  0  0  0  0  0
   -8.0527    6.1082   55.0127 H   0  0  0  0  0  0  0  0  0  0  0  0
   -9.6615    6.1967   55.7488 H   0  0  0  0  0  0  0  0  0  0  0  0
   -8.2199    7.0333   52.4126 H   0  0  0  0  0  0  0  0  0  0  0  0
   -8.6627    9.1250   51.2714 H   0  0  0  0  0  0  0  0  0  0  0  0
  -10.0763   10.8010   52.3077 H   0  0  0  0  0  0  0  0  0  0  0  0
  -11.0497   10.3849   54.4895 H   0  0  0  0  0  0  0  0  0  0  0  0
  -10.6141    8.2952   55.6360 H   0  0  0  0  0  0  0  0  0  0  0  0
  1  2  2  0  0  0  0
  2  3  1  0  0  0  0
  3  4  2  0  0  0  0
  3 30  1  0  0  0  0
  4 19  1  0  0  0  0
  4  5  1  0  0  0  0
  5  1  1  0  0  0  0
  6  7  1  0  0  0  0
  6 31  1  0  0  0  0
  7  8  1  0  0  0  0
  7 32  1  0  0  0  0
  7 33  1  0  0  0  0
  8  9  1  0  0  0  0
  8 34  1  0  0  0  0
  8 35  1  0  0  0  0
  9  1  1  0  0  0  0
  9 10  1  0  0  0  0
 10 11  1  0  0  0  0
 10 36  1  0  0  0  0
 10 37  1  0  0  0  0
 11  6  1  0  0  0  0
 11 38  1  0  0  0  0
 11 39  1  0  0  0  0
 12 13  1  0  0  0  0
 12 40  1  0  0  0  0
 12 41  1  0  0  0  0
 12 42  1  0  0  0  0
 13 14  1  0  0  0  0
 13 43  1  1  0  0  0
 14 15  1  0  0  0  0
 14 44  1  0  0  0  0
 14 45  1  0  0  0  0
 15 16  1  0  0  0  0
 15 46  1  0  0  0  0
 15 47  1  0  0  0  0
 16 17  1  0  0  0  0
 16 48  1  0  0  0  0
 16 49  1  0  0  0  0
 17  6  1  6  0  0  0
 17 18  1  0  0  0  0
 18 13  1  0  0  0  0
 18 50  1  0  0  0  0
 18 51  1  0  0  0  0
 19 20  2  0  0  0  0
 19 21  1  0  0  0  0
 21 22  1  0  0  0  0
 21 23  1  0  0  0  0
 22 52  1  0  0  0  0
 22 53  1  0  0  0  0
 22 54  1  0  0  0  0
 23 24  1  0  0  0  0
 23 55  1  0  0  0  0
 23 56  1  0  0  0  0
 24 25  2  0  0  0  0
 25 26  1  0  0  0  0
 25 57  1  0  0  0  0
 26 27  2  0  0  0  0
 26 58  1  0  0  0  0
 27 28  1  0  0  0  0
 27 59  1  0  0  0  0
 28 29  2  0  0  0  0
 28 60  1  0  0  0  0
 29 24  1  0  0  0  0
 29 61  1  0  0  0  0
M  END
>  <minimizedAffinity>
-9.23156

$$$$
