L2:P18825:136971
     RDKit          3D

 61 64  0  0  0  0  0  0  0  0999 V2000
   -7.4091    0.3256    1.6423 C   0  0  0  0  0  0  0  0  0  0  0  0
   -6.7114    0.8339    0.3818 C   0  0  2  0  0  0  0  0  0  0  0  0
   -7.2521    0.1198   -0.8658 C   0  0  0  0  0  0  0  0  0  0  0  0
   -6.2150    0.0303   -1.9835 C   0  0  0  0  0  0  0  0  0  0  0  0
   -5.2190    1.1856   -1.9310 C   0  0  0  0  0  0  0  0  0  0  0  0
   -4.4956    1.2857   -0.6573 N   0  0  0  0  0  0  0  0  0  0  0  0
   -3.0506    1.0004   -0.7648 C   0  0  0  0  0  0  0  0  0  0  0  0
   -2.2821    1.4162    0.4990 C   0  0  0  0  0  0  0  0  0  0  0  0
   -0.7770    1.2383    0.3088 C   0  0  0  0  0  0  0  0  0  0  0  0
   -0.4653   -0.1241   -0.1176 N   0  0  0  0  0  0  0  0  0  0  0  0
    0.7025   -0.7511    0.2249 C   0  0  0  0  0  0  0  0  0  0  0  0
    1.1270   -1.8515   -0.3670 N   0  0  0  0  0  0  0  0  0  0  0  0
    2.3157   -2.2883    0.1775 C   0  0  0  0  0  0  0  0  0  0  0  0
    2.8427   -1.4901    1.1648 C   0  0  0  0  0  0  0  0  0  0  0  0
    4.0530   -1.6465    1.9374 C   0  0  0  0  0  0  0  0  0  0  0  0
    4.0287   -1.6486    3.1688 O   0  0  0  0  0  0  0  0  0  0  0  0
    5.2598   -1.8187    1.2473 N   0  0  0  0  0  0  0  0  0  0  0  0
    6.4422   -2.1637    2.0235 C   0  0  0  0  0  0  0  0  0  0  0  0
    5.4756   -1.4729   -0.1611 C   0  0  0  0  0  0  0  0  0  0  0  0
    6.3381   -0.2434   -0.3358 C   0  0  0  0  0  0  0  0  0  0  0  0
    7.6057   -0.3396   -0.9280 C   0  0  0  0  0  0  0  0  0  0  0  0
    8.3999    0.7971   -1.0893 C   0  0  0  0  0  0  0  0  0  0  0  0
    7.9362    2.0397   -0.6618 C   0  0  0  0  0  0  0  0  0  0  0  0
    6.6781    2.1481   -0.0730 C   0  0  0  0  0  0  0  0  0  0  0  0
    5.8818    1.0135    0.0888 C   0  0  0  0  0  0  0  0  0  0  0  0
    1.7707   -0.2023    1.4807 S   0  0  0  0  0  0  0  0  0  0  0  0
   -1.1967   -0.6300   -1.2809 C   0  0  0  0  0  0  0  0  0  0  0  0
   -2.7041   -0.4575   -1.1016 C   0  0  0  0  0  0  0  0  0  0  0  0
   -5.1859    0.6754    0.4856 C   0  0  0  0  0  0  0  0  0  0  0  0
   -8.4936    0.4552    1.5640 H   0  0  0  0  0  0  0  0  0  0  0  0
   -7.2042   -0.7373    1.8098 H   0  0  0  0  0  0  0  0  0  0  0  0
   -7.0678    0.8780    2.5241 H   0  0  0  0  0  0  0  0  0  0  0  0
   -6.9395    1.9054    0.2916 H   0  0  0  0  0  0  0  0  0  0  0  0
   -8.1353    0.6629   -1.2251 H   0  0  0  0  0  0  0  0  0  0  0  0
   -7.5958   -0.8943   -0.6272 H   0  0  0  0  0  0  0  0  0  0  0  0
   -5.6754   -0.9214   -1.9000 H   0  0  0  0  0  0  0  0  0  0  0  0
   -6.7226    0.0127   -2.9547 H   0  0  0  0  0  0  0  0  0  0  0  0
   -4.5353    1.1156   -2.7858 H   0  0  0  0  0  0  0  0  0  0  0  0
   -5.7670    2.1256   -2.0751 H   0  0  0  0  0  0  0  0  0  0  0  0
   -2.6667    1.6341   -1.5775 H   0  0  0  0  0  0  0  0  0  0  0  0
   -2.4922    2.4643    0.7447 H   0  0  0  0  0  0  0  0  0  0  0  0
   -2.5959    0.8104    1.3585 H   0  0  0  0  0  0  0  0  0  0  0  0
   -0.4068    1.9455   -0.4440 H   0  0  0  0  0  0  0  0  0  0  0  0
   -0.3036    1.5054    1.2588 H   0  0  0  0  0  0  0  0  0  0  0  0
    2.7606   -3.2032   -0.1940 H   0  0  0  0  0  0  0  0  0  0  0  0
    7.0798   -2.8323    1.4377 H   0  0  0  0  0  0  0  0  0  0  0  0
    6.1736   -2.6706    2.9548 H   0  0  0  0  0  0  0  0  0  0  0  0
    6.9891   -1.2489    2.2696 H   0  0  0  0  0  0  0  0  0  0  0  0
    5.9376   -2.3441   -0.6409 H   0  0  0  0  0  0  0  0  0  0  0  0
    4.5395   -1.2873   -0.6912 H   0  0  0  0  0  0  0  0  0  0  0  0
    7.9861   -1.3006   -1.2669 H   0  0  0  0  0  0  0  0  0  0  0  0
    9.3818    0.7137   -1.5482 H   0  0  0  0  0  0  0  0  0  0  0  0
    8.5557    2.9240   -0.7865 H   0  0  0  0  0  0  0  0  0  0  0  0
    6.3167    3.1168    0.2629 H   0  0  0  0  0  0  0  0  0  0  0  0
    4.9039    1.1162    0.5538 H   0  0  0  0  0  0  0  0  0  0  0  0
   -0.8616   -0.0942   -2.1780 H   0  0  0  0  0  0  0  0  0  0  0  0
   -1.0103   -1.6967   -1.4558 H   0  0  0  0  0  0  0  0  0  0  0  0
   -3.2029   -0.7764   -2.0233 H   0  0  0  0  0  0  0  0  0  0  0  0
   -3.0425   -1.1282   -0.3026 H   0  0  0  0  0  0  0  0  0  0  0  0
   -4.8501    1.1598    1.4096 H   0  0  0  0  0  0  0  0  0  0  0  0
   -4.9488   -0.3917    0.5712 H   0  0  0  0  0  0  0  0  0  0  0  0
  1  2  1  0
  2  3  1  0
  3  4  1  0
  4  5  1  0
  5  6  1  0
  6  7  1  0
  7  8  1  0
  8  9  1  0
  9 10  1  0
 10 11  1  0
 11 12  2  0
 12 13  1  0
 13 14  2  0
 14 15  1  0
 15 16  2  0
 15 17  1  0
 17 18  1  0
 17 19  1  0
 19 20  1  0
 20 21  2  0
 21 22  1  0
 22 23  2  0
 23 24  1  0
 24 25  2  0
 14 26  1  0
 10 27  1  0
 27 28  1  0
  6 29  1  0
 29  2  1  0
 28  7  1  0
 26 11  1  0
 25 20  1  0
  1 30  1  0
  1 31  1  0
  1 32  1  0
  2 33  1  6
  3 34  1  0
  3 35  1  0
  4 36  1  0
  4 37  1  0
  5 38  1  0
  5 39  1  0
  7 40  1  0
  8 41  1  0
  8 42  1  0
  9 43  1  0
  9 44  1  0
 13 45  1  0
 18 46  1  0
 18 47  1  0
 18 48  1  0
 19 49  1  0
 19 50  1  0
 21 51  1  0
 22 52  1  0
 23 53  1  0
 24 54  1  0
 25 55  1  0
 27 56  1  0
 27 57  1  0
 28 58  1  0
 28 59  1  0
 29 60  1  0
 29 61  1  0
M  END
>  <mol_id>  (1) 
136971

>  <source_index>  (1) 
8

>  <layer>  (1) 
L2

>  <uniprot>  (1) 
P18825

>  <paff>  (1) 
7.0705999999999998

>  <smiles>  (1) 
C[C@@H]1CCCN(C1)C1CCN(CC1)c1ncc(s1)C(=O)N(C)Cc1ccccc1 |r|

$$$$
