L2:P18825:14322
     RDKit          3D

 58 62  0  0  0  0  0  0  0  0999 V2000
    4.3956    3.1474   -0.3401 O   0  0  0  0  0  0  0  0  0  0  0  0
    4.3937    1.9285   -0.1743 C   0  0  0  0  0  0  0  0  0  0  0  0
    5.5738    1.2227   -0.2173 N   0  0  0  0  0  0  0  0  0  0  0  0
    6.8433    1.8772   -0.4555 C   0  0  0  0  0  0  0  0  0  0  0  0
    7.9838    0.8861   -0.4579 C   0  0  0  0  0  0  0  0  0  0  0  0
    7.6933   -0.4350   -0.2446 N   0  0  0  0  0  0  0  0  0  0  0  0
    8.7429   -1.2945   -0.2524 C   0  0  0  0  0  0  0  0  0  0  0  0
   10.0557   -0.9017   -0.4616 C   0  0  0  0  0  0  0  0  0  0  0  0
   11.0434   -1.8048   -0.4566 F   0  0  0  0  0  0  0  0  0  0  0  0
   10.3369    0.4376   -0.6767 C   0  0  0  0  0  0  0  0  0  0  0  0
    9.2836    1.3408   -0.6739 C   0  0  0  0  0  0  0  0  0  0  0  0
    9.5273    2.6418   -0.8793 F   0  0  0  0  0  0  0  0  0  0  0  0
    3.2035    1.1405    0.0728 C   0  0  0  0  0  0  0  0  0  0  0  0
    3.0261   -0.2170    0.2230 C   0  0  0  0  0  0  0  0  0  0  0  0
    1.7305   -0.6348    0.4501 N   0  0  0  0  0  0  0  0  0  0  0  0
    0.8964    0.3855    0.4836 C   0  0  0  0  0  0  0  0  0  0  0  0
   -0.4467    0.2404    0.7050 N   0  0  0  0  0  0  0  0  0  0  0  0
   -1.3999    1.3007    0.3871 C   0  0  0  0  0  0  0  0  0  0  0  0
   -2.6634    1.1783    1.2361 C   0  0  0  0  0  0  0  0  0  0  0  0
   -3.3435   -0.2012    1.0854 C   0  0  1  0  0  0  0  0  0  0  0  0
   -3.9095   -0.3805   -0.2813 N   0  0  0  0  0  0  0  0  0  0  0  0
   -4.2263   -1.7612   -0.6654 C   0  0  0  0  0  0  0  0  0  0  0  0
   -5.3787   -2.3726    0.1370 C   0  0  0  0  0  0  0  0  0  0  0  0
   -6.4866   -1.3608    0.4242 C   0  0  0  0  0  0  0  0  0  0  0  0
   -6.4000   -0.2066   -0.5344 C   0  0  1  0  0  0  0  0  0  0  0  0
   -5.0644    0.5042   -0.5586 C   0  0  0  0  0  0  0  0  0  0  0  0
   -7.2192   -0.2800   -1.8209 C   0  0  0  0  0  0  0  0  0  0  0  0
   -7.6124    0.6377   -0.7277 C   0  0  0  0  0  0  0  0  0  0  0  0
   -7.5067    1.9980   -0.9005 F   0  0  0  0  0  0  0  0  0  0  0  0
   -8.7613    0.4026   -0.0095 F   0  0  0  0  0  0  0  0  0  0  0  0
   -2.2891   -1.2378    1.5392 C   0  0  2  0  0  0  0  0  0  0  0  0
   -2.0424   -1.0356    2.8723 F   0  0  0  0  0  0  0  0  0  0  0  0
   -0.9708   -1.1329    0.7686 C   0  0  0  0  0  0  0  0  0  0  0  0
    1.6807    1.9092    0.2239 S   0  0  0  0  0  0  0  0  0  0  0  0
    5.6178    0.2218   -0.0740 H   0  0  0  0  0  0  0  0  0  0  0  0
    6.7876    2.3880   -1.4232 H   0  0  0  0  0  0  0  0  0  0  0  0
    6.9957    2.6228    0.3327 H   0  0  0  0  0  0  0  0  0  0  0  0
    8.5011   -2.3391   -0.0817 H   0  0  0  0  0  0  0  0  0  0  0  0
   11.3537    0.7715   -0.8427 H   0  0  0  0  0  0  0  0  0  0  0  0
    3.8024   -0.9698    0.1765 H   0  0  0  0  0  0  0  0  0  0  0  0
   -0.9873    2.2953    0.5871 H   0  0  0  0  0  0  0  0  0  0  0  0
   -1.6478    1.2632   -0.6806 H   0  0  0  0  0  0  0  0  0  0  0  0
   -2.3983    1.3293    2.2916 H   0  0  0  0  0  0  0  0  0  0  0  0
   -3.3414    2.0007    0.9880 H   0  0  0  0  0  0  0  0  0  0  0  0
   -4.1611   -0.2430    1.8163 H   0  0  0  0  0  0  0  0  0  0  0  0
   -4.4914   -1.7684   -1.7322 H   0  0  0  0  0  0  0  0  0  0  0  0
   -3.3458   -2.4100   -0.6135 H   0  0  0  0  0  0  0  0  0  0  0  0
   -5.7906   -3.2141   -0.4334 H   0  0  0  0  0  0  0  0  0  0  0  0
   -5.0191   -2.7888    1.0850 H   0  0  0  0  0  0  0  0  0  0  0  0
   -7.4617   -1.8615    0.3834 H   0  0  0  0  0  0  0  0  0  0  0  0
   -6.3843   -0.9797    1.4477 H   0  0  0  0  0  0  0  0  0  0  0  0
   -4.8983    0.9482   -1.5481 H   0  0  0  0  0  0  0  0  0  0  0  0
   -5.1162    1.3455    0.1396 H   0  0  0  0  0  0  0  0  0  0  0  0
   -6.8213    0.1669   -2.7230 H   0  0  0  0  0  0  0  0  0  0  0  0
   -7.8502   -1.1430   -1.9911 H   0  0  0  0  0  0  0  0  0  0  0  0
   -2.6742   -2.2588    1.4740 H   0  0  0  0  0  0  0  0  0  0  0  0
   -1.1032   -1.5058   -0.2540 H   0  0  0  0  0  0  0  0  0  0  0  0
   -0.2560   -1.7934    1.2748 H   0  0  0  0  0  0  0  0  0  0  0  0
  1  2  2  0
  2  3  1  0
  3  4  1  0
  4  5  1  0
  5  6  2  0
  6  7  1  0
  7  8  2  0
  8  9  1  0
  8 10  1  0
 10 11  2  0
 11 12  1  0
  2 13  1  0
 13 14  2  0
 14 15  1  0
 15 16  2  0
 16 17  1  0
 17 18  1  0
 18 19  1  0
 19 20  1  0
 20 21  1  0
 21 22  1  0
 22 23  1  0
 23 24  1  0
 25 24  1  1
 25 26  1  0
 25 27  1  0
 27 28  1  0
 28 29  1  0
 28 30  1  0
 20 31  1  0
 31 32  1  0
 31 33  1  0
 16 34  1  0
 11  5  1  0
 34 13  1  0
 33 17  1  0
 26 21  1  0
 28 25  1  0
  3 35  1  0
  4 36  1  0
  4 37  1  0
  7 38  1  0
 10 39  1  0
 14 40  1  0
 18 41  1  0
 18 42  1  0
 19 43  1  0
 19 44  1  0
 20 45  1  1
 22 46  1  0
 22 47  1  0
 23 48  1  0
 23 49  1  0
 24 50  1  0
 24 51  1  0
 26 52  1  0
 26 53  1  0
 27 54  1  0
 27 55  1  0
 31 56  1  1
 33 57  1  0
 33 58  1  0
M  END
>  <mol_id>  (1) 
14322

>  <source_index>  (1) 
0

>  <layer>  (1) 
L2

>  <uniprot>  (1) 
P18825

>  <paff>  (1) 
9.1308000000000007

>  <smiles>  (1) 
FC1CN(CCC1N1CCCC2(CC2(F)F)C1)c1ncc(s1)C(=O)NCc1ncc(F)cc1F

$$$$
