L2:P18825:14322


 35 39  0  0  0  0  0  0  0  0999 V2000
   -9.4186    4.1201   56.0298 C   0  0  0  0  0  0  0  0  0  0  0  0
   -9.8315    4.7925   57.1586 C   0  0  0  0  0  0  0  0  0  0  0  0
   -9.6290    4.1399   58.3577 N   0  0  0  0  0  0  0  0  0  0  0  0
   -9.0665    2.9619   58.1737 C   0  0  0  0  0  0  0  0  0  0  0  0
   -8.7533    2.6152   56.5046 S   0  0  0  0  0  0  0  0  0  0  0  0
   -8.7698    2.1110   59.2041 N   0  0  0  0  0  0  0  0  0  0  0  0
   -7.6832    1.1389   59.1134 C   0  0  0  0  0  0  0  0  0  0  0  0
   -7.9197   -0.0411   60.0535 C   0  0  0  0  0  0  0  0  0  0  0  0
   -8.1051    0.4031   61.5220 C   0  0  0  0  0  0  0  0  0  0  0  0
   -9.3330    1.3436   61.5214 C   0  0  0  0  0  0  0  0  0  0  0  0
  -10.4318    0.6059   61.1648 F   0  0  0  0  0  0  0  0  0  0  0  0
   -9.1896    2.5207   60.5535 C   0  0  0  0  0  0  0  0  0  0  0  0
   -6.8414    0.9568   62.0849 N   0  0  0  0  0  0  0  0  0  0  0  0
   -6.7205    0.9135   63.5470 C   0  0  0  0  0  0  0  0  0  0  0  0
   -6.6153   -0.5059   64.1125 C   0  0  0  0  0  0  0  0  0  0  0  0
   -5.7760   -1.4233   63.2250 C   0  0  0  0  0  0  0  0  0  0  0  0
   -4.8950   -0.6095   62.3194 C   0  0  0  0  0  0  0  0  0  0  0  0
   -5.6237    0.3964   61.4552 C   0  0  0  0  0  0  0  0  0  0  0  0
   -3.4817   -0.2839   62.7969 C   0  0  0  0  0  0  0  0  0  0  0  0
   -3.7041   -1.2724   61.7174 C   0  0  0  0  0  0  0  0  0  0  0  0
   -3.3101   -0.9862   60.4312 F   0  0  0  0  0  0  0  0  0  0  0  0
   -3.4476   -2.6051   61.9390 F   0  0  0  0  0  0  0  0  0  0  0  0
  -10.0352    3.8230   53.7603 O   0  0  0  0  0  0  0  0  0  0  0  0
   -9.4664    4.4835   54.6283 C   0  0  0  0  0  0  0  0  0  0  0  0
   -8.8192    5.6511   54.2961 N   0  0  0  0  0  0  0  0  0  0  0  0
   -8.3499    6.2300   54.9808 H   0  0  0  0  0  0  0  0  0  0  0  0
   -8.7834    6.1397   52.9335 C   0  0  0  0  0  0  0  0  0  0  0  0
   -9.1340    7.6078   52.8638 C   0  0  0  0  0  0  0  0  0  0  0  0
   -8.7439    8.3143   51.7575 N   0  0  0  0  0  0  0  0  0  0  0  0
   -9.0752    9.6296   51.7313 C   0  0  0  0  0  0  0  0  0  0  0  0
   -9.7711   10.2667   52.7469 C   0  0  0  0  0  0  0  0  0  0  0  0
  -10.0652   11.5690   52.6548 F   0  0  0  0  0  0  0  0  0  0  0  0
  -10.1607    9.5411   53.8608 C   0  0  0  0  0  0  0  0  0  0  0  0
   -9.8356    8.1934   53.9163 C   0  0  0  0  0  0  0  0  0  0  0  0
  -10.2000    7.4683   54.9819 F   0  0  0  0  0  0  0  0  0  0  0  0
 23 24  2  0  0  0
 24 25  1  0  0  0
 25 27  1  0  0  0
 27 28  1  0  0  0
 28 29  2  0  0  0
 29 30  1  0  0  0
 30 31  2  0  0  0
 31 32  1  0  0  0
 31 33  1  0  0  0
 33 34  2  0  0  0
 34 35  1  0  0  0
 24  1  1  0  0  0
  1  2  2  0  0  0
  2  3  1  0  0  0
  3  4  2  0  0  0
  4  6  1  0  0  0
  6  7  1  0  0  0
  7  8  1  0  0  0
  8  9  1  0  0  0
  9 13  1  0  0  0
 13 14  1  0  0  0
 14 15  1  0  0  0
 15 16  1  0  0  0
 17 16  1  0  0  0
 17 18  1  0  0  0
 17 19  1  0  0  0
 19 20  1  0  0  0
 20 21  1  0  0  0
 20 22  1  0  0  0
  9 10  1  0  0  0
 10 11  1  0  0  0
 10 12  1  0  0  0
  4  5  1  0  0  0
 34 28  1  0  0  0
  5  1  1  0  0  0
 12  6  1  0  0  0
 18 13  1  0  0  0
 20 17  1  0  0  0
 25 26  1  0  0  0
M  END
> <minimizedAffinity>
-10.13739

$$$$
