L2:P18825:144176
 OpenBabel09212617513D

 64 67  0  0  0  0  0  0  0  0999 V2000
   -8.9029    3.5693   56.2617 C   0  0  0  0  0  0  0  0  0  0  0  0
   -9.0338    4.3402   57.3944 C   0  0  0  0  0  0  0  0  0  0  0  0
   -8.5062    3.8028   58.5505 N   0  0  0  0  0  0  0  0  0  0  0  0
   -7.9667    2.6226   58.3251 C   0  0  0  0  0  0  0  0  0  0  0  0
   -8.0901    2.1220   56.6662 S   0  0  0  0  0  0  0  0  0  0  0  0
   -7.3676    1.8713   59.2961 N   0  0  0  0  0  0  0  0  0  0  0  0
   -7.7431    0.4706   59.4442 C   0  0  0  0  0  0  0  0  0  0  0  0
   -7.9723    0.1163   60.9143 C   0  0  0  0  0  0  0  0  0  0  0  0
   -6.9672    0.7893   61.8720 C   0  0  2  0  0  0  0  0  0  0  0  0
   -5.7586    1.3418   61.1037 C   0  0  0  0  0  0  0  0  0  0  0  0
   -6.2309    2.3640   60.0683 C   0  0  0  0  0  0  0  0  0  0  0  0
   -6.5812   -0.0285   63.0383 N   0  0  1  0  0  0  0  0  0  0  0  0
   -7.0242   -1.4259   62.9612 C   0  0  0  0  0  0  0  0  0  0  0  0
   -5.8829   -2.4320   62.8425 C   0  0  0  0  0  0  0  0  0  0  0  0
   -4.8852   -2.3091   63.9925 C   0  0  0  0  0  0  0  0  0  0  0  0
   -4.8254   -0.8890   64.5740 C   0  0  1  0  0  0  0  0  0  0  0  0
   -3.4456   -0.6030   65.1643 C   0  0  0  0  0  0  0  0  0  0  0  0
   -5.2062    0.1565   63.5145 C   0  0  0  0  0  0  0  0  0  0  0  0
   -9.1191    5.1767   54.5016 N   0  0  0  0  0  0  0  0  0  0  0  0
   -9.3622    3.8896   54.9269 C   0  0  0  0  0  0  0  0  0  0  0  0
   -9.9348    3.0727   54.2095 O   0  0  0  0  0  0  0  0  0  0  0  0
   -8.6627    5.8176   55.1375 H   0  0  0  0  0  0  0  0  0  0  0  0
   -9.5246    5.6640   53.1963 C   0  0  2  0  0  0  0  0  0  0  0  0
   -8.6441    5.0824   52.0862 C   0  0  0  0  0  0  0  0  0  0  0  0
   -9.6037   11.5067   53.1145 C   0  0  0  0  0  0  0  0  0  0  0  0
   -9.5568   10.0081   53.1559 C   0  0  0  0  0  0  0  0  0  0  0  0
   -9.0928    9.2827   52.0544 C   0  0  0  0  0  0  0  0  0  0  0  0
   -9.0771    7.8856   52.0808 C   0  0  0  0  0  0  0  0  0  0  0  0
   -9.5271    7.1826   53.2083 C   0  0  0  0  0  0  0  0  0  0  0  0
  -10.0175    7.9165   54.2995 C   0  0  0  0  0  0  0  0  0  0  0  0
  -10.0326    9.3138   54.2725 C   0  0  0  0  0  0  0  0  0  0  0  0
   -9.4974    5.2621   57.3799 H   0  0  0  0  0  0  0  0  0  0  0  0
   -6.9594   -0.1447   59.0542 H   0  0  0  0  0  0  0  0  0  0  0  0
   -8.6536    0.3035   58.9076 H   0  0  0  0  0  0  0  0  0  0  0  0
   -7.8872   -0.9446   61.0245 H   0  0  0  0  0  0  0  0  0  0  0  0
   -8.9460    0.4740   61.1768 H   0  0  0  0  0  0  0  0  0  0  0  0
   -7.4887    1.6165   62.3063 H   0  0  0  0  0  0  0  0  0  0  0  0
   -5.2552    0.5388   60.6071 H   0  0  0  0  0  0  0  0  0  0  0  0
   -5.0882    1.8156   61.7900 H   0  0  0  0  0  0  0  0  0  0  0  0
   -5.4238    2.5763   59.3987 H   0  0  0  0  0  0  0  0  0  0  0  0
   -6.5413    3.2452   60.5899 H   0  0  0  0  0  0  0  0  0  0  0  0
   -7.6568   -1.5318   62.1047 H   0  0  0  0  0  0  0  0  0  0  0  0
   -7.5330   -1.6409   63.8776 H   0  0  0  0  0  0  0  0  0  0  0  0
   -5.3682   -2.2623   61.9199 H   0  0  0  0  0  0  0  0  0  0  0  0
   -6.3054   -3.4144   62.8770 H   0  0  0  0  0  0  0  0  0  0  0  0
   -3.9129   -2.5730   63.6322 H   0  0  0  0  0  0  0  0  0  0  0  0
   -5.2086   -2.9654   64.7733 H   0  0  0  0  0  0  0  0  0  0  0  0
   -5.5415   -0.8227   65.3662 H   0  0  0  0  0  0  0  0  0  0  0  0
   -2.7078   -0.6628   64.3917 H   0  0  0  0  0  0  0  0  0  0  0  0
   -3.2261   -1.3242   65.9237 H   0  0  0  0  0  0  0  0  0  0  0  0
   -3.4366    0.3782   65.5910 H   0  0  0  0  0  0  0  0  0  0  0  0
   -4.5370    0.0682   62.6843 H   0  0  0  0  0  0  0  0  0  0  0  0
   -5.1363    1.1257   63.9625 H   0  0  0  0  0  0  0  0  0  0  0  0
  -10.5193    5.3322   52.9832 H   0  0  0  0  0  0  0  0  0  0  0  0
   -7.6286    5.3805   52.2434 H   0  0  0  0  0  0  0  0  0  0  0  0
   -8.9797    5.4459   51.1375 H   0  0  0  0  0  0  0  0  0  0  0  0
   -8.7089    4.0145   52.1022 H   0  0  0  0  0  0  0  0  0  0  0  0
   -9.1979   11.8507   52.1861 H   0  0  0  0  0  0  0  0  0  0  0  0
   -9.0283   11.9041   53.9244 H   0  0  0  0  0  0  0  0  0  0  0  0
  -10.6184   11.8344   53.2035 H   0  0  0  0  0  0  0  0  0  0  0  0
   -8.7594    9.7828   51.2155 H   0  0  0  0  0  0  0  0  0  0  0  0
   -8.7301    7.3644   51.2605 H   0  0  0  0  0  0  0  0  0  0  0  0
  -10.3710    7.4186   55.1315 H   0  0  0  0  0  0  0  0  0  0  0  0
  -10.3979    9.8374   55.0833 H   0  0  0  0  0  0  0  0  0  0  0  0
  1  2  2  0  0  0  0
  2  3  1  0  0  0  0
  2 32  1  0  0  0  0
  3  4  2  0  0  0  0
  4  6  1  0  0  0  0
  4  5  1  0  0  0  0
  5  1  1  0  0  0  0
  6  7  1  0  0  0  0
  7  8  1  0  0  0  0
  7 33  1  0  0  0  0
  7 34  1  0  0  0  0
  8  9  1  0  0  0  0
  8 35  1  0  0  0  0
  8 36  1  0  0  0  0
  9 12  1  0  0  0  0
  9 10  1  0  0  0  0
  9 37  1  1  0  0  0
 10 11  1  0  0  0  0
 10 38  1  0  0  0  0
 10 39  1  0  0  0  0
 11  6  1  0  0  0  0
 11 40  1  0  0  0  0
 11 41  1  0  0  0  0
 12 13  1  6  0  0  0
 13 14  1  0  0  0  0
 13 42  1  0  0  0  0
 13 43  1  0  0  0  0
 14 15  1  0  0  0  0
 14 44  1  0  0  0  0
 14 45  1  0  0  0  0
 15 16  1  0  0  0  0
 15 46  1  0  0  0  0
 15 47  1  0  0  0  0
 16 17  1  0  0  0  0
 16 18  1  0  0  0  0
 16 48  1  1  0  0  0
 17 49  1  0  0  0  0
 17 50  1  0  0  0  0
 17 51  1  0  0  0  0
 18 12  1  0  0  0  0
 18 52  1  0  0  0  0
 18 53  1  0  0  0  0
 19 20  1  0  0  0  0
 19 22  1  0  0  0  0
 20 21  2  0  0  0  0
 20  1  1  0  0  0  0
 23 24  1  0  0  0  0
 23 19  1  0  0  0  0
 23 54  1  6  0  0  0
 24 55  1  0  0  0  0
 24 56  1  0  0  0  0
 24 57  1  0  0  0  0
 25 26  1  0  0  0  0
 25 58  1  0  0  0  0
 25 59  1  0  0  0  0
 25 60  1  0  0  0  0
 26 27  2  0  0  0  0
 27 28  1  0  0  0  0
 27 61  1  0  0  0  0
 28 29  2  0  0  0  0
 28 62  1  0  0  0  0
 29 23  1  0  0  0  0
 29 30  1  0  0  0  0
 30 31  2  0  0  0  0
 30 63  1  0  0  0  0
 31 26  1  0  0  0  0
 31 64  1  0  0  0  0
M  END
>  <minimizedAffinity>
-9.43909

$$$$
