L2:P18825:144176


 31 34  0  0  0  0  0  0  0  0999 V2000
   -8.9029    3.5693   56.2617 C   0  0  0  0  0  0  0  0  0  0  0  0
   -9.0338    4.3402   57.3944 C   0  0  0  0  0  0  0  0  0  0  0  0
   -8.5062    3.8028   58.5505 N   0  0  0  0  0  0  0  0  0  0  0  0
   -7.9667    2.6226   58.3251 C   0  0  0  0  0  0  0  0  0  0  0  0
   -8.0901    2.1220   56.6662 S   0  0  0  0  0  0  0  0  0  0  0  0
   -7.3676    1.8713   59.2961 N   0  0  0  0  0  0  0  0  0  0  0  0
   -7.7431    0.4706   59.4442 C   0  0  0  0  0  0  0  0  0  0  0  0
   -7.9723    0.1163   60.9143 C   0  0  0  0  0  0  0  0  0  0  0  0
   -6.9672    0.7893   61.8720 C   0  0  0  0  0  0  0  0  0  0  0  0
   -5.7586    1.3418   61.1037 C   0  0  0  0  0  0  0  0  0  0  0  0
   -6.2309    2.3640   60.0683 C   0  0  0  0  0  0  0  0  0  0  0  0
   -6.5812   -0.0285   63.0383 N   0  0  0  0  0  0  0  0  0  0  0  0
   -7.0242   -1.4259   62.9612 C   0  0  0  0  0  0  0  0  0  0  0  0
   -5.8829   -2.4320   62.8425 C   0  0  0  0  0  0  0  0  0  0  0  0
   -4.8852   -2.3091   63.9925 C   0  0  0  0  0  0  0  0  0  0  0  0
   -4.8254   -0.8890   64.5740 C   0  0  0  0  0  0  0  0  0  0  0  0
   -3.4456   -0.6030   65.1643 C   0  0  0  0  0  0  0  0  0  0  0  0
   -5.2062    0.1565   63.5145 C   0  0  0  0  0  0  0  0  0  0  0  0
   -9.1191    5.1767   54.5016 N   0  0  0  0  0  0  0  0  0  0  0  0
   -9.3622    3.8896   54.9269 C   0  0  0  0  0  0  0  0  0  0  0  0
   -9.9348    3.0727   54.2095 O   0  0  0  0  0  0  0  0  0  0  0  0
   -8.6627    5.8176   55.1375 H   0  0  0  0  0  0  0  0  0  0  0  0
   -9.5246    5.6640   53.1963 C   0  0  0  0  0  0  0  0  0  0  0  0
   -8.6441    5.0824   52.0862 C   0  0  0  0  0  0  0  0  0  0  0  0
   -9.6037   11.5067   53.1145 C   0  0  0  0  0  0  0  0  0  0  0  0
   -9.5568   10.0081   53.1559 C   0  0  0  0  0  0  0  0  0  0  0  0
   -9.0928    9.2827   52.0544 C   0  0  0  0  0  0  0  0  0  0  0  0
   -9.0771    7.8856   52.0808 C   0  0  0  0  0  0  0  0  0  0  0  0
   -9.5271    7.1826   53.2083 C   0  0  0  0  0  0  0  0  0  0  0  0
  -10.0175    7.9165   54.2995 C   0  0  0  0  0  0  0  0  0  0  0  0
  -10.0326    9.3138   54.2725 C   0  0  0  0  0  0  0  0  0  0  0  0
 25 26  1  0  0  0
 26 27  2  0  0  0
 27 28  1  0  0  0
 28 29  2  0  0  0
 29 23  1  0  0  0
 23 24  1  0  0  0
 23 19  1  0  0  0
 19 20  1  0  0  0
 20 21  2  0  0  0
 20  1  1  0  0  0
  1  2  2  0  0  0
  2  3  1  0  0  0
  3  4  2  0  0  0
  4  6  1  0  0  0
  6  7  1  0  0  0
  7  8  1  0  0  0
  8  9  1  0  0  0
  9 12  1  0  0  0
 12 13  1  0  0  0
 13 14  1  0  0  0
 14 15  1  0  0  0
 15 16  1  0  0  0
 16 17  1  0  0  0
 16 18  1  0  0  0
  9 10  1  0  0  0
 10 11  1  0  0  0
  4  5  1  0  0  0
 29 30  1  0  0  0
 30 31  2  0  0  0
 31 26  1  0  0  0
  5  1  1  0  0  0
 11  6  1  0  0  0
 18 12  1  0  0  0
 19 22  1  0  0  0
M  END
> <minimizedAffinity>
-9.43909

$$$$
