L2:P18825:144176
     RDKit          3D

 64 67  0  0  0  0  0  0  0  0999 V2000
    7.9126    0.8627    3.7587 C   0  0  0  0  0  0  0  0  0  0  0  0
    7.4349    0.4308    2.4041 C   0  0  0  0  0  0  0  0  0  0  0  0
    7.4874    1.3118    1.3197 C   0  0  0  0  0  0  0  0  0  0  0  0
    7.0146    0.9204    0.0643 C   0  0  0  0  0  0  0  0  0  0  0  0
    6.4768   -0.3599   -0.1344 C   0  0  0  0  0  0  0  0  0  0  0  0
    5.9447   -0.7463   -1.5033 C   0  0  1  0  0  0  0  0  0  0  0  0
    6.4444   -2.1179   -1.9669 C   0  0  0  0  0  0  0  0  0  0  0  0
    4.4947   -0.6913   -1.4850 N   0  0  0  0  0  0  0  0  0  0  0  0
    3.7384   -0.5462   -2.6268 C   0  0  0  0  0  0  0  0  0  0  0  0
    4.2590   -0.4640   -3.7368 O   0  0  0  0  0  0  0  0  0  0  0  0
    2.3050   -0.4968   -2.4315 C   0  0  0  0  0  0  0  0  0  0  0  0
    1.3373   -0.3555   -3.4000 C   0  0  0  0  0  0  0  0  0  0  0  0
    0.0338   -0.3375   -2.9480 N   0  0  0  0  0  0  0  0  0  0  0  0
   -0.0187   -0.4627   -1.6379 C   0  0  0  0  0  0  0  0  0  0  0  0
   -1.1864   -0.4708   -0.9290 N   0  0  0  0  0  0  0  0  0  0  0  0
   -2.4536   -0.3960   -1.6456 C   0  0  0  0  0  0  0  0  0  0  0  0
   -3.3957    0.6153   -0.9905 C   0  0  0  0  0  0  0  0  0  0  0  0
   -3.3387    0.5983    0.5512 C   0  0  0  0  0  0  0  0  0  0  0  0
   -4.6279    0.8579    1.2209 N   0  0  0  0  0  0  0  0  0  0  0  0
   -5.1768    2.1948    0.9629 C   0  0  0  0  0  0  0  0  0  0  0  0
   -6.4709    2.1876    0.1541 C   0  0  0  0  0  0  0  0  0  0  0  0
   -7.5584    1.3433    0.8155 C   0  0  0  0  0  0  0  0  0  0  0  0
   -6.9843    0.2071    1.6744 C   0  0  1  0  0  0  0  0  0  0  0  0
   -7.9558   -0.9705    1.7347 C   0  0  0  0  0  0  0  0  0  0  0  0
   -5.6064   -0.2329    1.1560 C   0  0  0  0  0  0  0  0  0  0  0  0
   -2.6447   -0.6714    1.0634 C   0  0  0  0  0  0  0  0  0  0  0  0
   -1.2222   -0.7409    0.5052 C   0  0  0  0  0  0  0  0  0  0  0  0
    1.5487   -0.6108   -0.9037 S   0  0  0  0  0  0  0  0  0  0  0  0
    6.4015   -1.2292    0.9648 C   0  0  0  0  0  0  0  0  0  0  0  0
    6.8749   -0.8372    2.2201 C   0  0  0  0  0  0  0  0  0  0  0  0
    8.2866    0.0078    4.3318 H   0  0  0  0  0  0  0  0  0  0  0  0
    8.7354    1.5801    3.6723 H   0  0  0  0  0  0  0  0  0  0  0  0
    7.0928    1.3293    4.3133 H   0  0  0  0  0  0  0  0  0  0  0  0
    7.8966    2.3120    1.4443 H   0  0  0  0  0  0  0  0  0  0  0  0
    7.0663    1.6290   -0.7604 H   0  0  0  0  0  0  0  0  0  0  0  0
    6.2945   -0.0115   -2.2402 H   0  0  0  0  0  0  0  0  0  0  0  0
    6.1394   -2.3149   -3.0004 H   0  0  0  0  0  0  0  0  0  0  0  0
    7.5376   -2.1731   -1.9243 H   0  0  0  0  0  0  0  0  0  0  0  0
    6.0382   -2.9315   -1.3560 H   0  0  0  0  0  0  0  0  0  0  0  0
    4.0197   -0.7336   -0.5929 H   0  0  0  0  0  0  0  0  0  0  0  0
    1.5321   -0.2603   -4.4622 H   0  0  0  0  0  0  0  0  0  0  0  0
   -2.9185   -1.3903   -1.6463 H   0  0  0  0  0  0  0  0  0  0  0  0
   -2.3386   -0.1159   -2.6995 H   0  0  0  0  0  0  0  0  0  0  0  0
   -4.4053    0.4198   -1.3675 H   0  0  0  0  0  0  0  0  0  0  0  0
   -3.1409    1.6261   -1.3355 H   0  0  0  0  0  0  0  0  0  0  0  0
   -2.6768    1.4253    0.8501 H   0  0  0  0  0  0  0  0  0  0  0  0
   -5.3774    2.6619    1.9357 H   0  0  0  0  0  0  0  0  0  0  0  0
   -4.4465    2.8495    0.4721 H   0  0  0  0  0  0  0  0  0  0  0  0
   -6.8353    3.2123    0.0172 H   0  0  0  0  0  0  0  0  0  0  0  0
   -6.2720    1.7967   -0.8512 H   0  0  0  0  0  0  0  0  0  0  0  0
   -8.1836    1.9818    1.4524 H   0  0  0  0  0  0  0  0  0  0  0  0
   -8.2215    0.9545    0.0328 H   0  0  0  0  0  0  0  0  0  0  0  0
   -6.8605    0.5810    2.7006 H   0  0  0  0  0  0  0  0  0  0  0  0
   -7.5746   -1.7543    2.3976 H   0  0  0  0  0  0  0  0  0  0  0  0
   -8.1089   -1.4116    0.7439 H   0  0  0  0  0  0  0  0  0  0  0  0
   -8.9299   -0.6503    2.1191 H   0  0  0  0  0  0  0  0  0  0  0  0
   -5.2542   -1.0675    1.7734 H   0  0  0  0  0  0  0  0  0  0  0  0
   -5.7143   -0.6115    0.1322 H   0  0  0  0  0  0  0  0  0  0  0  0
   -2.6001   -0.6762    2.1593 H   0  0  0  0  0  0  0  0  0  0  0  0
   -3.1997   -1.5684    0.7613 H   0  0  0  0  0  0  0  0  0  0  0  0
   -0.8108   -1.7350    0.7182 H   0  0  0  0  0  0  0  0  0  0  0  0
   -0.6087   -0.0020    1.0360 H   0  0  0  0  0  0  0  0  0  0  0  0
    5.9682   -2.2210    0.8590 H   0  0  0  0  0  0  0  0  0  0  0  0
    6.8028   -1.5306    3.0553 H   0  0  0  0  0  0  0  0  0  0  0  0
  1  2  1  0
  2  3  2  0
  3  4  1  0
  4  5  2  0
  5  6  1  0
  6  7  1  0
  6  8  1  0
  8  9  1  0
  9 10  2  0
  9 11  1  0
 11 12  2  0
 12 13  1  0
 13 14  2  0
 14 15  1  0
 15 16  1  0
 16 17  1  0
 17 18  1  0
 18 19  1  0
 19 20  1  0
 20 21  1  0
 21 22  1  0
 22 23  1  0
 23 24  1  0
 23 25  1  0
 18 26  1  0
 26 27  1  0
 14 28  1  0
  5 29  1  0
 29 30  2  0
 30  2  1  0
 28 11  1  0
 27 15  1  0
 25 19  1  0
  1 31  1  0
  1 32  1  0
  1 33  1  0
  3 34  1  0
  4 35  1  0
  6 36  1  6
  7 37  1  0
  7 38  1  0
  7 39  1  0
  8 40  1  0
 12 41  1  0
 16 42  1  0
 16 43  1  0
 17 44  1  0
 17 45  1  0
 18 46  1  0
 20 47  1  0
 20 48  1  0
 21 49  1  0
 21 50  1  0
 22 51  1  0
 22 52  1  0
 23 53  1  1
 24 54  1  0
 24 55  1  0
 24 56  1  0
 25 57  1  0
 25 58  1  0
 26 59  1  0
 26 60  1  0
 27 61  1  0
 27 62  1  0
 29 63  1  0
 30 64  1  0
M  END
>  <mol_id>  (1) 
144176

>  <source_index>  (1) 
9

>  <layer>  (1) 
L2

>  <uniprot>  (1) 
P18825

>  <paff>  (1) 
6.0968999999999998

>  <smiles>  (1) 
Cc1ccc([C@@H](C)NC(=O)c2cnc(N3CCC(N4CCC[C@@H](C)C4)CC3)s2)cc1

$$$$
