L2:P18825:42511
 OpenBabel09212617503D

 57 60  0  0  0  0  0  0  0  0999 V2000
   -8.0866    3.2153   58.2804 C   0  0  0  0  0  0  0  0  0  0  0  0
   -8.2207    4.4898   58.5899 N   0  0  0  0  0  0  0  0  0  0  0  0
   -8.6216    5.2344   57.5002 C   0  0  0  0  0  0  0  0  0  0  0  0
   -8.8076    4.5355   56.3285 C   0  0  0  0  0  0  0  0  0  0  0  0
   -8.4584    2.8837   56.6197 S   0  0  0  0  0  0  0  0  0  0  0  0
   -6.8729    0.3082   61.2174 C   0  0  0  0  0  0  0  0  0  0  0  0
   -7.1824    1.7856   61.5459 C   0  0  0  0  0  0  0  0  0  0  0  0
   -6.9319    2.7038   60.3521 C   0  0  0  0  0  0  0  0  0  0  0  0
   -7.7050    2.2630   59.1862 N   0  0  0  0  0  0  0  0  0  0  0  0
   -7.5762    0.8515   58.8241 C   0  0  0  0  0  0  0  0  0  0  0  0
   -7.8066   -0.0448   60.0409 C   0  0  0  0  0  0  0  0  0  0  0  0
   -6.1872   -2.7710   62.4814 C   0  0  0  0  0  0  0  0  0  0  0  0
   -4.8644   -2.2541   61.9158 C   0  0  2  0  0  0  0  0  0  0  0  0
   -4.0130   -1.5821   63.0000 C   0  0  0  0  0  0  0  0  0  0  0  0
   -4.4494   -0.1441   63.2636 C   0  0  0  0  0  0  0  0  0  0  0  0
   -4.5258    0.6525   61.9602 C   0  0  0  0  0  0  0  0  0  0  0  0
   -5.4334    0.0656   60.9589 N   0  0  1  0  0  0  0  0  0  0  0  0
   -5.0277   -1.3256   60.6945 C   0  0  0  0  0  0  0  0  0  0  0  0
   -9.2177    4.9667   55.0066 C   0  0  0  0  0  0  0  0  0  0  0  0
   -9.9402    4.3055   54.2624 O   0  0  0  0  0  0  0  0  0  0  0  0
   -8.7477    6.2052   54.6116 N   0  0  0  0  0  0  0  0  0  0  0  0
   -8.1944    6.7697   55.2372 H   0  0  0  0  0  0  0  0  0  0  0  0
   -9.0831    6.7780   53.3275 C   0  0  0  0  0  0  0  0  0  0  0  0
   -9.4585    8.2237   53.4632 C   0  0  0  0  0  0  0  0  0  0  0  0
   -9.9434    8.7328   54.6738 C   0  0  0  0  0  0  0  0  0  0  0  0
  -10.2583   10.0825   54.7546 C   0  0  0  0  0  0  0  0  0  0  0  0
  -10.1225   10.9493   53.7260 N   0  0  0  0  0  0  0  0  0  0  0  0
   -9.6427   10.4387   52.5680 C   0  0  0  0  0  0  0  0  0  0  0  0
   -9.3016    9.1073   52.3987 C   0  0  0  0  0  0  0  0  0  0  0  0
   -8.8196    8.6813   51.2231 F   0  0  0  0  0  0  0  0  0  0  0  0
   -8.7730    6.2535   57.5595 H   0  0  0  0  0  0  0  0  0  0  0  0
   -7.0627   -0.3388   62.0483 H   0  0  0  0  0  0  0  0  0  0  0  0
   -6.5583    2.0967   62.3574 H   0  0  0  0  0  0  0  0  0  0  0  0
   -8.2184    1.8558   61.8040 H   0  0  0  0  0  0  0  0  0  0  0  0
   -5.8900    2.6872   60.1091 H   0  0  0  0  0  0  0  0  0  0  0  0
   -7.2375    3.6958   60.6117 H   0  0  0  0  0  0  0  0  0  0  0  0
   -6.5928    0.6762   58.4405 H   0  0  0  0  0  0  0  0  0  0  0  0
   -8.3122    0.6192   58.0830 H   0  0  0  0  0  0  0  0  0  0  0  0
   -7.6318   -1.0615   59.7567 H   0  0  0  0  0  0  0  0  0  0  0  0
   -8.8143    0.1033   60.3687 H   0  0  0  0  0  0  0  0  0  0  0  0
   -5.9926   -3.4045   63.3214 H   0  0  0  0  0  0  0  0  0  0  0  0
   -6.7044   -3.3270   61.7276 H   0  0  0  0  0  0  0  0  0  0  0  0
   -6.7904   -1.9433   62.7911 H   0  0  0  0  0  0  0  0  0  0  0  0
   -4.3494   -3.1230   61.5625 H   0  0  0  0  0  0  0  0  0  0  0  0
   -2.9908   -1.5799   62.6839 H   0  0  0  0  0  0  0  0  0  0  0  0
   -4.1378   -2.1357   63.9071 H   0  0  0  0  0  0  0  0  0  0  0  0
   -3.7424    0.3219   63.9177 H   0  0  0  0  0  0  0  0  0  0  0  0
   -5.4209   -0.1591   63.7117 H   0  0  0  0  0  0  0  0  0  0  0  0
   -3.5442    0.7033   61.5375 H   0  0  0  0  0  0  0  0  0  0  0  0
   -4.9151    1.6182   62.2067 H   0  0  0  0  0  0  0  0  0  0  0  0
   -4.0877   -1.2958   60.1842 H   0  0  0  0  0  0  0  0  0  0  0  0
   -5.8345   -1.7472   60.1321 H   0  0  0  0  0  0  0  0  0  0  0  0
   -9.9085    6.2403   52.9097 H   0  0  0  0  0  0  0  0  0  0  0  0
   -8.2270    6.7074   52.6896 H   0  0  0  0  0  0  0  0  0  0  0  0
  -10.0647    8.1155   55.4919 H   0  0  0  0  0  0  0  0  0  0  0  0
  -10.6168   10.4452   55.6518 H   0  0  0  0  0  0  0  0  0  0  0  0
   -9.5244   11.0775   51.7661 H   0  0  0  0  0  0  0  0  0  0  0  0
  1  2  2  0  0  0  0
  2  3  1  0  0  0  0
  3  4  2  0  0  0  0
  3 31  1  0  0  0  0
  4 19  1  0  0  0  0
  4  5  1  0  0  0  0
  5  1  1  0  0  0  0
  6  7  1  0  0  0  0
  6 32  1  0  0  0  0
  7  8  1  0  0  0  0
  7 33  1  0  0  0  0
  7 34  1  0  0  0  0
  8  9  1  0  0  0  0
  8 35  1  0  0  0  0
  8 36  1  0  0  0  0
  9  1  1  0  0  0  0
  9 10  1  0  0  0  0
 10 11  1  0  0  0  0
 10 37  1  0  0  0  0
 10 38  1  0  0  0  0
 11  6  1  0  0  0  0
 11 39  1  0  0  0  0
 11 40  1  0  0  0  0
 12 13  1  0  0  0  0
 12 41  1  0  0  0  0
 12 42  1  0  0  0  0
 12 43  1  0  0  0  0
 13 14  1  0  0  0  0
 13 44  1  6  0  0  0
 14 15  1  0  0  0  0
 14 45  1  0  0  0  0
 14 46  1  0  0  0  0
 15 16  1  0  0  0  0
 15 47  1  0  0  0  0
 15 48  1  0  0  0  0
 16 17  1  0  0  0  0
 16 49  1  0  0  0  0
 16 50  1  0  0  0  0
 17  6  1  1  0  0  0
 17 18  1  0  0  0  0
 18 13  1  0  0  0  0
 18 51  1  0  0  0  0
 18 52  1  0  0  0  0
 19 20  2  0  0  0  0
 19 21  1  0  0  0  0
 21 23  1  0  0  0  0
 21 22  1  0  0  0  0
 23 24  1  0  0  0  0
 23 53  1  0  0  0  0
 23 54  1  0  0  0  0
 24 25  2  0  0  0  0
 25 26  1  0  0  0  0
 25 55  1  0  0  0  0
 26 27  2  0  0  0  0
 26 56  1  0  0  0  0
 27 28  1  0  0  0  0
 28 29  2  0  0  0  0
 28 57  1  0  0  0  0
 29 30  1  0  0  0  0
 29 24  1  0  0  0  0
M  END
>  <minimizedAffinity>
-8.97473

$$$$
