L2:P18825:42511
     RDKit          3D

 57 60  0  0  0  0  0  0  0  0999 V2000
   -5.9199    2.2755    0.0944 C   0  0  0  0  0  0  0  0  0  0  0  0
   -6.0784    1.1186   -0.8921 C   0  0  2  0  0  0  0  0  0  0  0  0
   -7.0123    0.0337   -0.3419 C   0  0  0  0  0  0  0  0  0  0  0  0
   -6.2962   -0.9039    0.6254 C   0  0  0  0  0  0  0  0  0  0  0  0
   -5.0122   -1.4554    0.0037 C   0  0  0  0  0  0  0  0  0  0  0  0
   -4.0638   -0.4115   -0.4224 N   0  0  0  0  0  0  0  0  0  0  0  0
   -3.2906    0.2043    0.6824 C   0  0  0  0  0  0  0  0  0  0  0  0
   -2.3832   -0.8081    1.4161 C   0  0  0  0  0  0  0  0  0  0  0  0
   -1.2633   -1.3303    0.5193 C   0  0  0  0  0  0  0  0  0  0  0  0
   -0.4678   -0.2212   -0.0178 N   0  0  0  0  0  0  0  0  0  0  0  0
    0.8472   -0.4652   -0.3078 C   0  0  0  0  0  0  0  0  0  0  0  0
    1.4659   -1.5768    0.0381 N   0  0  0  0  0  0  0  0  0  0  0  0
    2.7845   -1.5675   -0.3666 C   0  0  0  0  0  0  0  0  0  0  0  0
    3.2029   -0.4363   -1.0309 C   0  0  0  0  0  0  0  0  0  0  0  0
    4.4883   -0.0717   -1.5933 C   0  0  0  0  0  0  0  0  0  0  0  0
    4.6945    0.9684   -2.2169 O   0  0  0  0  0  0  0  0  0  0  0  0
    5.5103   -0.9777   -1.3802 N   0  0  0  0  0  0  0  0  0  0  0  0
    6.8521   -0.7473   -1.8660 C   0  0  0  0  0  0  0  0  0  0  0  0
    7.7150   -0.1404   -0.8000 C   0  0  0  0  0  0  0  0  0  0  0  0
    7.7047    1.2391   -0.5618 C   0  0  0  0  0  0  0  0  0  0  0  0
    8.5066    1.7501    0.4497 C   0  0  0  0  0  0  0  0  0  0  0  0
    9.3058    0.9905    1.2321 N   0  0  0  0  0  0  0  0  0  0  0  0
    9.2931   -0.3414    0.9918 C   0  0  0  0  0  0  0  0  0  0  0  0
    8.5238   -0.9368    0.0062 C   0  0  0  0  0  0  0  0  0  0  0  0
    8.5563   -2.2661   -0.1603 F   0  0  0  0  0  0  0  0  0  0  0  0
    1.8797    0.6456   -1.1483 S   0  0  0  0  0  0  0  0  0  0  0  0
   -1.2184    0.8595   -0.6572 C   0  0  0  0  0  0  0  0  0  0  0  0
   -2.3483    1.3469    0.2499 C   0  0  0  0  0  0  0  0  0  0  0  0
   -4.7406    0.5055   -1.3557 C   0  0  0  0  0  0  0  0  0  0  0  0
   -5.5874    1.9510    1.0818 H   0  0  0  0  0  0  0  0  0  0  0  0
   -6.8805    2.7844    0.2333 H   0  0  0  0  0  0  0  0  0  0  0  0
   -5.2100    3.0172   -0.2849 H   0  0  0  0  0  0  0  0  0  0  0  0
   -6.5616    1.5440   -1.7826 H   0  0  0  0  0  0  0  0  0  0  0  0
   -7.3932   -0.5600   -1.1833 H   0  0  0  0  0  0  0  0  0  0  0  0
   -7.8877    0.4799    0.1441 H   0  0  0  0  0  0  0  0  0  0  0  0
   -6.9631   -1.7364    0.8787 H   0  0  0  0  0  0  0  0  0  0  0  0
   -6.0755   -0.3847    1.5646 H   0  0  0  0  0  0  0  0  0  0  0  0
   -5.2791   -2.0514   -0.8800 H   0  0  0  0  0  0  0  0  0  0  0  0
   -4.5546   -2.1776    0.6844 H   0  0  0  0  0  0  0  0  0  0  0  0
   -3.9809    0.6113    1.4272 H   0  0  0  0  0  0  0  0  0  0  0  0
   -2.9497   -1.6460    1.8322 H   0  0  0  0  0  0  0  0  0  0  0  0
   -1.9332   -0.3087    2.2860 H   0  0  0  0  0  0  0  0  0  0  0  0
   -1.6722   -1.9238   -0.3075 H   0  0  0  0  0  0  0  0  0  0  0  0
   -0.6521   -2.0070    1.1291 H   0  0  0  0  0  0  0  0  0  0  0  0
    3.3883   -2.4361   -0.1395 H   0  0  0  0  0  0  0  0  0  0  0  0
    5.3562   -1.8080   -0.8297 H   0  0  0  0  0  0  0  0  0  0  0  0
    7.2532   -1.7154   -2.1860 H   0  0  0  0  0  0  0  0  0  0  0  0
    6.8363   -0.1035   -2.7530 H   0  0  0  0  0  0  0  0  0  0  0  0
    7.0786    1.9056   -1.1493 H   0  0  0  0  0  0  0  0  0  0  0  0
    8.5244    2.8157    0.6634 H   0  0  0  0  0  0  0  0  0  0  0  0
    9.9332   -0.9404    1.6311 H   0  0  0  0  0  0  0  0  0  0  0  0
   -0.5896    1.7316   -0.8650 H   0  0  0  0  0  0  0  0  0  0  0  0
   -1.6144    0.5113   -1.6186 H   0  0  0  0  0  0  0  0  0  0  0  0
   -1.9044    1.7926    1.1516 H   0  0  0  0  0  0  0  0  0  0  0  0
   -2.8910    2.1658   -0.2311 H   0  0  0  0  0  0  0  0  0  0  0  0
   -4.9551   -0.0812   -2.2611 H   0  0  0  0  0  0  0  0  0  0  0  0
   -4.0705    1.2899   -1.7206 H   0  0  0  0  0  0  0  0  0  0  0  0
  1  2  1  0
  2  3  1  0
  3  4  1  0
  4  5  1  0
  5  6  1  0
  6  7  1  0
  7  8  1  0
  8  9  1  0
  9 10  1  0
 10 11  1  0
 11 12  2  0
 12 13  1  0
 13 14  2  0
 14 15  1  0
 15 16  2  0
 15 17  1  0
 17 18  1  0
 18 19  1  0
 19 20  2  0
 20 21  1  0
 21 22  2  0
 22 23  1  0
 23 24  2  0
 24 25  1  0
 14 26  1  0
 10 27  1  0
 27 28  1  0
  6 29  1  0
 29  2  1  0
 28  7  1  0
 26 11  1  0
 24 19  1  0
  1 30  1  0
  1 31  1  0
  1 32  1  0
  2 33  1  6
  3 34  1  0
  3 35  1  0
  4 36  1  0
  4 37  1  0
  5 38  1  0
  5 39  1  0
  7 40  1  0
  8 41  1  0
  8 42  1  0
  9 43  1  0
  9 44  1  0
 13 45  1  0
 17 46  1  0
 18 47  1  0
 18 48  1  0
 20 49  1  0
 21 50  1  0
 23 51  1  0
 27 52  1  0
 27 53  1  0
 28 54  1  0
 28 55  1  0
 29 56  1  0
 29 57  1  0
M  END
>  <mol_id>  (1) 
42511

>  <source_index>  (1) 
1

>  <layer>  (1) 
L2

>  <uniprot>  (1) 
P18825

>  <paff>  (1) 
6.3978999999999999

>  <smiles>  (1) 
C[C@@H]1CCCN(C1)C1CCN(CC1)c1ncc(s1)C(=O)NCc1ccncc1F |r|

$$$$
