L2:P18825:61015
     RDKit          3D

 61 64  0  0  0  0  0  0  0  0999 V2000
   -5.4066   -2.4350    2.1228 C   0  0  0  0  0  0  0  0  0  0  0  0
   -5.7284   -0.9382    2.1824 C   0  0  2  0  0  0  0  0  0  0  0  0
   -7.1680   -0.6563    1.7486 C   0  0  0  0  0  0  0  0  0  0  0  0
   -7.3743   -0.8545    0.2464 C   0  0  0  0  0  0  0  0  0  0  0  0
   -6.1090   -0.6171   -0.5847 C   0  0  0  0  0  0  0  0  0  0  0  0
   -5.2364    0.3662    0.0539 N   0  0  0  0  0  0  0  0  0  0  0  0
   -4.2130    0.9176   -0.8619 C   0  0  0  0  0  0  0  0  0  0  0  0
   -3.4560    2.1256   -0.2748 C   0  0  0  0  0  0  0  0  0  0  0  0
   -2.0279    1.7885    0.1435 C   0  0  0  0  0  0  0  0  0  0  0  0
   -1.2761    1.2316   -0.9780 N   0  0  0  0  0  0  0  0  0  0  0  0
    0.0832    1.3162   -1.0705 C   0  0  0  0  0  0  0  0  0  0  0  0
    0.7548    0.9364   -2.1384 N   0  0  0  0  0  0  0  0  0  0  0  0
    2.1115    1.1219   -1.9671 C   0  0  0  0  0  0  0  0  0  0  0  0
    2.5013    1.6457   -0.7541 C   0  0  0  0  0  0  0  0  0  0  0  0
    3.8106    1.9729   -0.2230 C   0  0  0  0  0  0  0  0  0  0  0  0
    3.9954    2.4466    0.8967 O   0  0  0  0  0  0  0  0  0  0  0  0
    4.8754    1.7127   -1.0646 N   0  0  0  0  0  0  0  0  0  0  0  0
    6.2443    1.9439   -0.6630 C   0  0  0  0  0  0  0  0  0  0  0  0
    6.9210    0.6415   -0.3214 C   0  0  0  0  0  0  0  0  0  0  0  0
    7.7417   -0.0084   -1.2521 C   0  0  0  0  0  0  0  0  0  0  0  0
    8.3476   -1.2263   -0.9324 C   0  0  0  0  0  0  0  0  0  0  0  0
    8.1345   -1.8243    0.3189 C   0  0  0  0  0  0  0  0  0  0  0  0
    8.8076   -3.1282    0.6696 C   0  0  0  0  0  0  0  0  0  0  0  0
    8.1109   -3.8662    1.5786 F   0  0  0  0  0  0  0  0  0  0  0  0
    8.9856   -3.9425   -0.4089 F   0  0  0  0  0  0  0  0  0  0  0  0
   10.0454   -2.9445    1.2061 F   0  0  0  0  0  0  0  0  0  0  0  0
    7.3134   -1.1714    1.2492 C   0  0  0  0  0  0  0  0  0  0  0  0
    6.7086    0.0461    0.9297 C   0  0  0  0  0  0  0  0  0  0  0  0
    1.1012    1.9096    0.1995 S   0  0  0  0  0  0  0  0  0  0  0  0
   -2.0080    0.5388   -2.0367 C   0  0  0  0  0  0  0  0  0  0  0  0
   -3.2554   -0.1280   -1.4633 C   0  0  0  0  0  0  0  0  0  0  0  0
   -4.7292   -0.0926    1.3573 C   0  0  0  0  0  0  0  0  0  0  0  0
   -6.1114   -3.0040    2.7387 H   0  0  0  0  0  0  0  0  0  0  0  0
   -4.4007   -2.6257    2.5122 H   0  0  0  0  0  0  0  0  0  0  0  0
   -5.4513   -2.8363    1.1072 H   0  0  0  0  0  0  0  0  0  0  0  0
   -5.6317   -0.6391    3.2347 H   0  0  0  0  0  0  0  0  0  0  0  0
   -7.8787   -1.2748    2.3092 H   0  0  0  0  0  0  0  0  0  0  0  0
   -7.4083    0.3856    1.9997 H   0  0  0  0  0  0  0  0  0  0  0  0
   -7.7339   -1.8728    0.0547 H   0  0  0  0  0  0  0  0  0  0  0  0
   -8.1714   -0.1779   -0.0860 H   0  0  0  0  0  0  0  0  0  0  0  0
   -5.5787   -1.5632   -0.7457 H   0  0  0  0  0  0  0  0  0  0  0  0
   -6.4264   -0.2722   -1.5768 H   0  0  0  0  0  0  0  0  0  0  0  0
   -4.7799    1.3399   -1.7051 H   0  0  0  0  0  0  0  0  0  0  0  0
   -3.4128    2.9098   -1.0443 H   0  0  0  0  0  0  0  0  0  0  0  0
   -4.0020    2.5775    0.5617 H   0  0  0  0  0  0  0  0  0  0  0  0
   -2.0280    1.0760    0.9760 H   0  0  0  0  0  0  0  0  0  0  0  0
   -1.5728    2.7181    0.5047 H   0  0  0  0  0  0  0  0  0  0  0  0
    2.7652    0.8472   -2.7842 H   0  0  0  0  0  0  0  0  0  0  0  0
    4.7271    1.2821   -1.9628 H   0  0  0  0  0  0  0  0  0  0  0  0
    6.7506    2.4292   -1.5049 H   0  0  0  0  0  0  0  0  0  0  0  0
    6.3003    2.6341    0.1860 H   0  0  0  0  0  0  0  0  0  0  0  0
    7.9197    0.4300   -2.2319 H   0  0  0  0  0  0  0  0  0  0  0  0
    8.9887   -1.7118   -1.6673 H   0  0  0  0  0  0  0  0  0  0  0  0
    7.1365   -1.6107    2.2302 H   0  0  0  0  0  0  0  0  0  0  0  0
    6.0655    0.5329    1.6630 H   0  0  0  0  0  0  0  0  0  0  0  0
   -2.2804    1.2515   -2.8245 H   0  0  0  0  0  0  0  0  0  0  0  0
   -1.3969   -0.2451   -2.5012 H   0  0  0  0  0  0  0  0  0  0  0  0
   -2.9428   -0.8628   -0.7125 H   0  0  0  0  0  0  0  0  0  0  0  0
   -3.7666   -0.6892   -2.2548 H   0  0  0  0  0  0  0  0  0  0  0  0
   -4.4906    0.7965    1.9534 H   0  0  0  0  0  0  0  0  0  0  0  0
   -3.7939   -0.6530    1.2553 H   0  0  0  0  0  0  0  0  0  0  0  0
  1  2  1  0
  2  3  1  0
  3  4  1  0
  4  5  1  0
  5  6  1  0
  6  7  1  0
  7  8  1  0
  8  9  1  0
  9 10  1  0
 10 11  1  0
 11 12  2  0
 12 13  1  0
 13 14  2  0
 14 15  1  0
 15 16  2  0
 15 17  1  0
 17 18  1  0
 18 19  1  0
 19 20  2  0
 20 21  1  0
 21 22  2  0
 22 23  1  0
 23 24  1  0
 23 25  1  0
 23 26  1  0
 22 27  1  0
 27 28  2  0
 14 29  1  0
 10 30  1  0
 30 31  1  0
  6 32  1  0
 32  2  1  0
 31  7  1  0
 29 11  1  0
 28 19  1  0
  1 33  1  0
  1 34  1  0
  1 35  1  0
  2 36  1  1
  3 37  1  0
  3 38  1  0
  4 39  1  0
  4 40  1  0
  5 41  1  0
  5 42  1  0
  7 43  1  0
  8 44  1  0
  8 45  1  0
  9 46  1  0
  9 47  1  0
 13 48  1  0
 17 49  1  0
 18 50  1  0
 18 51  1  0
 20 52  1  0
 21 53  1  0
 27 54  1  0
 28 55  1  0
 30 56  1  0
 30 57  1  0
 31 58  1  0
 31 59  1  0
 32 60  1  0
 32 61  1  0
M  END
>  <mol_id>  (1) 
61015

>  <source_index>  (1) 
2

>  <layer>  (1) 
L2

>  <uniprot>  (1) 
P18825

>  <paff>  (1) 
6.1938000000000004

>  <smiles>  (1) 
C[C@@H]1CCCN(C1)C1CCN(CC1)c1ncc(s1)C(=O)NCc1ccc(cc1)C(F)(F)F |r|

$$$$
