L2:P18825:61015


 33 36  0  0  0  0  0  0  0  0999 V2000
   -7.9828    1.8229   58.7045 C   0  0  0  0  0  0  0  0  0  0  0  0
   -8.9276    2.7189   58.9051 N   0  0  0  0  0  0  0  0  0  0  0  0
   -9.3649    3.2588   57.7128 C   0  0  0  0  0  0  0  0  0  0  0  0
   -8.7600    2.7763   56.5731 C   0  0  0  0  0  0  0  0  0  0  0  0
   -7.6004    1.5989   57.0296 S   0  0  0  0  0  0  0  0  0  0  0  0
   -6.1011   -0.4863   61.8328 C   0  0  0  0  0  0  0  0  0  0  0  0
   -6.4070    1.0183   61.9731 C   0  0  0  0  0  0  0  0  0  0  0  0
   -6.4260    1.7503   60.6344 C   0  0  0  0  0  0  0  0  0  0  0  0
   -7.3834    1.1344   59.7194 N   0  0  0  0  0  0  0  0  0  0  0  0
   -7.6993   -0.2830   59.8860 C   0  0  0  0  0  0  0  0  0  0  0  0
   -6.4904   -1.0285   60.4448 C   0  0  0  0  0  0  0  0  0  0  0  0
   -1.5789   -0.7616   60.8095 C   0  0  0  0  0  0  0  0  0  0  0  0
   -2.2405   -0.3890   62.1403 C   0  0  0  0  0  0  0  0  0  0  0  0
   -2.2025   -1.5539   63.1311 C   0  0  0  0  0  0  0  0  0  0  0  0
   -3.1509   -2.6867   62.7366 C   0  0  0  0  0  0  0  0  0  0  0  0
   -4.3643   -2.2189   61.9261 C   0  0  0  0  0  0  0  0  0  0  0  0
   -4.7386   -0.8513   62.2806 N   0  0  0  0  0  0  0  0  0  0  0  0
   -3.6876    0.1246   61.9496 C   0  0  0  0  0  0  0  0  0  0  0  0
   -8.9522    3.0971   55.1718 C   0  0  0  0  0  0  0  0  0  0  0  0
   -9.0439    2.2520   54.2832 O   0  0  0  0  0  0  0  0  0  0  0  0
   -9.0343    4.4446   54.8764 N   0  0  0  0  0  0  0  0  0  0  0  0
   -9.0055    5.1341   55.6098 H   0  0  0  0  0  0  0  0  0  0  0  0
   -9.2682    4.9220   53.5325 C   0  0  0  0  0  0  0  0  0  0  0  0
   -9.3924    6.4237   53.5202 C   0  0  0  0  0  0  0  0  0  0  0  0
   -9.8108    7.1202   54.6613 C   0  0  0  0  0  0  0  0  0  0  0  0
   -9.9427    8.5110   54.6327 C   0  0  0  0  0  0  0  0  0  0  0  0
   -9.6714    9.2311   53.4594 C   0  0  0  0  0  0  0  0  0  0  0  0
   -9.2518    8.5319   52.3188 C   0  0  0  0  0  0  0  0  0  0  0  0
   -9.1194    7.1420   52.3478 C   0  0  0  0  0  0  0  0  0  0  0  0
   -9.7933   10.7347   53.4377 C   0  0  0  0  0  0  0  0  0  0  0  0
   -9.1521   11.3418   54.4753 F   0  0  0  0  0  0  0  0  0  0  0  0
   -9.2780   11.2944   52.3067 F   0  0  0  0  0  0  0  0  0  0  0  0
  -11.0881   11.1507   53.5027 F   0  0  0  0  0  0  0  0  0  0  0  0
 12 13  1  0  0  0
 13 14  1  0  0  0
 14 15  1  0  0  0
 15 16  1  0  0  0
 16 17  1  0  0  0
 17  6  1  0  0  0
  6  7  1  0  0  0
  7  8  1  0  0  0
  8  9  1  0  0  0
  9  1  1  0  0  0
  1  2  2  0  0  0
  2  3  1  0  0  0
  3  4  2  0  0  0
  4 19  1  0  0  0
 19 20  2  0  0  0
 19 21  1  0  0  0
 21 23  1  0  0  0
 23 24  1  0  0  0
 24 25  2  0  0  0
 25 26  1  0  0  0
 26 27  2  0  0  0
 27 30  1  0  0  0
 30 31  1  0  0  0
 30 32  1  0  0  0
 30 33  1  0  0  0
 27 28  1  0  0  0
 28 29  2  0  0  0
  4  5  1  0  0  0
  9 10  1  0  0  0
 10 11  1  0  0  0
 17 18  1  0  0  0
 18 13  1  0  0  0
 11  6  1  0  0  0
  5  1  1  0  0  0
 29 24  1  0  0  0
 21 22  1  0  0  0
M  END
> <minimizedAffinity>
-10.45023

$$$$
