L2:P18825:66479


 31 34  0  0  0  0  0  0  0  0999 V2000
   -8.0595    1.7966   58.8437 C   0  0  0  0  0  0  0  0  0  0  0  0
   -9.0170    2.6775   59.0566 N   0  0  0  0  0  0  0  0  0  0  0  0
   -9.4511    3.2408   57.8744 C   0  0  0  0  0  0  0  0  0  0  0  0
   -8.8229    2.8000   56.7307 C   0  0  0  0  0  0  0  0  0  0  0  0
   -7.6574    1.6233   57.1690 S   0  0  0  0  0  0  0  0  0  0  0  0
   -5.4277   -0.4639   61.0198 C   0  0  0  0  0  0  0  0  0  0  0  0
   -5.4744    1.0619   61.2825 C   0  0  0  0  0  0  0  0  0  0  0  0
   -6.8306    1.7126   61.0064 C   0  0  0  0  0  0  0  0  0  0  0  0
   -7.4676    1.0979   59.8563 N   0  0  0  0  0  0  0  0  0  0  0  0
   -7.6762   -0.3477   59.8968 C   0  0  0  0  0  0  0  0  0  0  0  0
   -6.8658   -1.0142   61.0109 C   0  0  0  0  0  0  0  0  0  0  0  0
   -0.8181   -1.1209   62.7930 C   0  0  0  0  0  0  0  0  0  0  0  0
   -2.3175   -1.1921   63.0870 C   0  0  0  0  0  0  0  0  0  0  0  0
   -2.7234   -2.5901   63.5838 C   0  0  0  0  0  0  0  0  0  0  0  0
   -3.4301   -3.3730   62.4878 C   0  0  0  0  0  0  0  0  0  0  0  0
   -4.6548   -2.6138   61.9565 C   0  0  0  0  0  0  0  0  0  0  0  0
   -4.5290   -1.1426   61.9901 N   0  0  0  0  0  0  0  0  0  0  0  0
   -3.1192   -0.7524   61.8434 C   0  0  0  0  0  0  0  0  0  0  0  0
   -9.0050    3.1569   55.3379 C   0  0  0  0  0  0  0  0  0  0  0  0
   -8.9937    2.3474   54.4123 O   0  0  0  0  0  0  0  0  0  0  0  0
   -9.1939    4.5029   55.0883 N   0  0  0  0  0  0  0  0  0  0  0  0
   -9.1151    5.1795   55.8319 H   0  0  0  0  0  0  0  0  0  0  0  0
   -9.3505    4.9903   53.7368 C   0  0  0  0  0  0  0  0  0  0  0  0
   -9.3914    6.4906   53.7063 C   0  0  0  0  0  0  0  0  0  0  0  0
   -9.1373    7.1874   52.5140 C   0  0  0  0  0  0  0  0  0  0  0  0
   -9.1916    8.5826   52.4909 C   0  0  0  0  0  0  0  0  0  0  0  0
   -8.8783    9.4237   51.0237 Cl  0  0  0  0  0  0  0  0  0  0  0  0
   -9.5013    9.2993   53.6464 C   0  0  0  0  0  0  0  0  0  0  0  0
   -9.7609    8.6145   54.8336 C   0  0  0  0  0  0  0  0  0  0  0  0
   -9.7064    7.2228   54.8542 C   0  0  0  0  0  0  0  0  0  0  0  0
   -9.9711    6.5855   56.0026 F   0  0  0  0  0  0  0  0  0  0  0  0
 12 13  1  0  0  0
 13 14  1  0  0  0
 14 15  1  0  0  0
 15 16  1  0  0  0
 16 17  1  0  0  0
 17  6  1  0  0  0
  6  7  1  0  0  0
  7  8  1  0  0  0
  8  9  1  0  0  0
  9  1  1  0  0  0
  1  2  2  0  0  0
  2  3  1  0  0  0
  3  4  2  0  0  0
  4 19  1  0  0  0
 19 20  2  0  0  0
 19 21  1  0  0  0
 21 23  1  0  0  0
 23 24  1  0  0  0
 24 25  2  0  0  0
 25 26  1  0  0  0
 26 27  1  0  0  0
 26 28  2  0  0  0
 28 29  1  0  0  0
 29 30  2  0  0  0
 30 31  1  0  0  0
  4  5  1  0  0  0
  9 10  1  0  0  0
 10 11  1  0  0  0
 17 18  1  0  0  0
 18 13  1  0  0  0
 11  6  1  0  0  0
  5  1  1  0  0  0
 30 24  1  0  0  0
 21 22  1  0  0  0
M  END
> <minimizedAffinity>
-9.51761

$$$$
