L2:P18825:66479
     RDKit          3D

 58 61  0  0  0  0  0  0  0  0999 V2000
   -7.3652   -1.6924    1.7440 C   0  0  0  0  0  0  0  0  0  0  0  0
   -6.7167   -0.4272    1.1799 C   0  0  2  0  0  0  0  0  0  0  0  0
   -7.4987    0.1087   -0.0315 C   0  0  0  0  0  0  0  0  0  0  0  0
   -6.7769   -0.2138   -1.3309 C   0  0  0  0  0  0  0  0  0  0  0  0
   -5.3436    0.3379   -1.3284 C   0  0  0  0  0  0  0  0  0  0  0  0
   -4.7020    0.3778    0.0013 N   0  0  0  0  0  0  0  0  0  0  0  0
   -3.2174    0.3847   -0.0740 C   0  0  0  0  0  0  0  0  0  0  0  0
   -2.5933    0.6032    1.3267 C   0  0  0  0  0  0  0  0  0  0  0  0
   -1.2982    1.4167    1.3250 C   0  0  0  0  0  0  0  0  0  0  0  0
   -0.4999    1.1040    0.1540 N   0  0  0  0  0  0  0  0  0  0  0  0
    0.8424    0.8566    0.1855 C   0  0  0  0  0  0  0  0  0  0  0  0
    1.5593    0.6993   -0.9096 N   0  0  0  0  0  0  0  0  0  0  0  0
    2.8838    0.4551   -0.6104 C   0  0  0  0  0  0  0  0  0  0  0  0
    3.2036    0.4276    0.7290 C   0  0  0  0  0  0  0  0  0  0  0  0
    4.4637    0.2073    1.4100 C   0  0  0  0  0  0  0  0  0  0  0  0
    4.5781    0.1009    2.6297 O   0  0  0  0  0  0  0  0  0  0  0  0
    5.5752    0.1247    0.5930 N   0  0  0  0  0  0  0  0  0  0  0  0
    6.8946   -0.0568    1.1541 C   0  0  0  0  0  0  0  0  0  0  0  0
    7.8698   -0.5046    0.1044 C   0  0  0  0  0  0  0  0  0  0  0  0
    7.8571   -1.8285   -0.3634 C   0  0  0  0  0  0  0  0  0  0  0  0
    8.7582   -2.2331   -1.3505 C   0  0  0  0  0  0  0  0  0  0  0  0
    8.7318   -3.8577   -1.9145 Cl  0  0  0  0  0  0  0  0  0  0  0  0
    9.6765   -1.3301   -1.8853 C   0  0  0  0  0  0  0  0  0  0  0  0
    9.6918   -0.0115   -1.4304 C   0  0  0  0  0  0  0  0  0  0  0  0
    8.7919    0.3898   -0.4459 C   0  0  0  0  0  0  0  0  0  0  0  0
    8.8165    1.6641   -0.0326 F   0  0  0  0  0  0  0  0  0  0  0  0
    1.7762    0.7043    1.6351 S   0  0  0  0  0  0  0  0  0  0  0  0
   -1.1280    1.2789   -1.1535 C   0  0  0  0  0  0  0  0  0  0  0  0
   -2.6467    1.4345   -1.0452 C   0  0  0  0  0  0  0  0  0  0  0  0
   -5.2330   -0.6978    0.8512 C   0  0  0  0  0  0  0  0  0  0  0  0
   -6.8158   -2.0534    2.6199 H   0  0  0  0  0  0  0  0  0  0  0  0
   -8.3964   -1.4948    2.0551 H   0  0  0  0  0  0  0  0  0  0  0  0
   -7.3837   -2.4953    0.9992 H   0  0  0  0  0  0  0  0  0  0  0  0
   -6.7646    0.3394    1.9656 H   0  0  0  0  0  0  0  0  0  0  0  0
   -7.5888    1.1993    0.0573 H   0  0  0  0  0  0  0  0  0  0  0  0
   -8.5217   -0.2834   -0.0562 H   0  0  0  0  0  0  0  0  0  0  0  0
   -6.7522   -1.3024   -1.4682 H   0  0  0  0  0  0  0  0  0  0  0  0
   -7.3295    0.1993   -2.1824 H   0  0  0  0  0  0  0  0  0  0  0  0
   -5.3705    1.3604   -1.7237 H   0  0  0  0  0  0  0  0  0  0  0  0
   -4.7615   -0.2719   -2.0314 H   0  0  0  0  0  0  0  0  0  0  0  0
   -2.8945   -0.6027   -0.4360 H   0  0  0  0  0  0  0  0  0  0  0  0
   -2.3977   -0.3794    1.7762 H   0  0  0  0  0  0  0  0  0  0  0  0
   -3.2963    1.1139    1.9980 H   0  0  0  0  0  0  0  0  0  0  0  0
   -1.5339    2.4889    1.3160 H   0  0  0  0  0  0  0  0  0  0  0  0
   -0.7874    1.2334    2.2754 H   0  0  0  0  0  0  0  0  0  0  0  0
    3.5685    0.2997   -1.4337 H   0  0  0  0  0  0  0  0  0  0  0  0
    5.4993    0.2999   -0.3972 H   0  0  0  0  0  0  0  0  0  0  0  0
    6.8536   -0.7954    1.9638 H   0  0  0  0  0  0  0  0  0  0  0  0
    7.1990    0.8936    1.6070 H   0  0  0  0  0  0  0  0  0  0  0  0
    7.1445   -2.5426    0.0456 H   0  0  0  0  0  0  0  0  0  0  0  0
   10.3780   -1.6456   -2.6533 H   0  0  0  0  0  0  0  0  0  0  0  0
   10.3979    0.7064   -1.8369 H   0  0  0  0  0  0  0  0  0  0  0  0
   -0.7147    2.1602   -1.6596 H   0  0  0  0  0  0  0  0  0  0  0  0
   -0.9153    0.4049   -1.7832 H   0  0  0  0  0  0  0  0  0  0  0  0
   -2.9022    2.4447   -0.6997 H   0  0  0  0  0  0  0  0  0  0  0  0
   -3.0604    1.3340   -2.0542 H   0  0  0  0  0  0  0  0  0  0  0  0
   -5.1009   -1.6727    0.3626 H   0  0  0  0  0  0  0  0  0  0  0  0
   -4.7034   -0.7611    1.8081 H   0  0  0  0  0  0  0  0  0  0  0  0
  1  2  1  0
  2  3  1  0
  3  4  1  0
  4  5  1  0
  5  6  1  0
  6  7  1  0
  7  8  1  0
  8  9  1  0
  9 10  1  0
 10 11  1  0
 11 12  2  0
 12 13  1  0
 13 14  2  0
 14 15  1  0
 15 16  2  0
 15 17  1  0
 17 18  1  0
 18 19  1  0
 19 20  2  0
 20 21  1  0
 21 22  1  0
 21 23  2  0
 23 24  1  0
 24 25  2  0
 25 26  1  0
 14 27  1  0
 10 28  1  0
 28 29  1  0
  6 30  1  0
 30  2  1  0
 29  7  1  0
 27 11  1  0
 25 19  1  0
  1 31  1  0
  1 32  1  0
  1 33  1  0
  2 34  1  1
  3 35  1  0
  3 36  1  0
  4 37  1  0
  4 38  1  0
  5 39  1  0
  5 40  1  0
  7 41  1  0
  8 42  1  0
  8 43  1  0
  9 44  1  0
  9 45  1  0
 13 46  1  0
 17 47  1  0
 18 48  1  0
 18 49  1  0
 20 50  1  0
 23 51  1  0
 24 52  1  0
 28 53  1  0
 28 54  1  0
 29 55  1  0
 29 56  1  0
 30 57  1  0
 30 58  1  0
M  END
>  <mol_id>  (1) 
66479

>  <source_index>  (1) 
3

>  <layer>  (1) 
L2

>  <uniprot>  (1) 
P18825

>  <paff>  (1) 
8.1426999999999996

>  <smiles>  (1) 
C[C@@H]1CCCN(C1)C1CCN(CC1)c1ncc(s1)C(=O)NCc1cc(Cl)ccc1F |r|

$$$$
