L2:P18825:93624
 OpenBabel09212617513D

 60 63  0  0  0  0  0  0  0  0999 V2000
   -7.9703    2.9889   58.1723 C   0  0  0  0  0  0  0  0  0  0  0  0
   -8.1460    4.2828   58.3449 N   0  0  0  0  0  0  0  0  0  0  0  0
   -8.6474    4.8744   57.2038 C   0  0  0  0  0  0  0  0  0  0  0  0
   -8.8595    4.0322   56.1358 C   0  0  0  0  0  0  0  0  0  0  0  0
   -8.4137    2.4449   56.5836 S   0  0  0  0  0  0  0  0  0  0  0  0
   -6.9701    0.5273   61.5077 C   0  0  0  0  0  0  0  0  0  0  0  0
   -5.9107    1.4702   60.9146 C   0  0  0  0  0  0  0  0  0  0  0  0
   -6.5811    2.6354   60.1891 C   0  0  0  0  0  0  0  0  0  0  0  0
   -7.4786    2.1625   59.1420 N   0  0  0  0  0  0  0  0  0  0  0  0
   -7.8103    0.7402   59.0953 C   0  0  0  0  0  0  0  0  0  0  0  0
   -8.0972    0.2156   60.4994 C   0  0  0  0  0  0  0  0  0  0  0  0
   -3.9109   -1.8005   64.6986 C   0  0  0  0  0  0  0  0  0  0  0  0
   -4.6246   -1.8560   63.3358 C   0  0  0  0  0  0  0  0  0  0  0  0
   -3.5549   -1.9924   62.2342 C   0  0  0  0  0  0  0  0  0  0  0  0
   -5.5608   -3.0936   63.2791 C   0  0  0  0  0  0  0  0  0  0  0  0
   -7.0132   -2.7045   63.5317 C   0  0  0  0  0  0  0  0  0  0  0  0
   -7.4919   -1.6515   62.5216 C   0  0  0  0  0  0  0  0  0  0  0  0
   -6.4393   -0.7129   62.1054 N   0  0  2  0  0  0  0  0  0  0  0  0
   -5.4252   -0.5371   63.1449 C   0  0  0  0  0  0  0  0  0  0  0  0
   -9.3722    4.3872   54.8306 C   0  0  0  0  0  0  0  0  0  0  0  0
  -10.2046    3.7084   54.2328 O   0  0  0  0  0  0  0  0  0  0  0  0
   -8.8751    5.5421   54.2799 N   0  0  0  0  0  0  0  0  0  0  0  0
   -8.1885    6.0988   54.7784 H   0  0  0  0  0  0  0  0  0  0  0  0
   -9.2966    6.0242   52.9836 C   0  0  0  0  0  0  0  0  0  0  0  0
   -9.4210    7.5298   52.9596 C   0  0  0  0  0  0  0  0  0  0  0  0
   -8.9831    8.2009   51.8500 N   0  0  0  0  0  0  0  0  0  0  0  0
   -9.1111    9.5510   51.8677 C   0  0  0  0  0  0  0  0  0  0  0  0
   -9.6509   10.2572   52.9311 C   0  0  0  0  0  0  0  0  0  0  0  0
   -9.7470   11.5912   52.8815 F   0  0  0  0  0  0  0  0  0  0  0  0
  -10.0911    9.5677   54.0489 C   0  0  0  0  0  0  0  0  0  0  0  0
   -9.9728    8.1853   54.0592 C   0  0  0  0  0  0  0  0  0  0  0  0
  -10.3903    7.4940   55.1279 F   0  0  0  0  0  0  0  0  0  0  0  0
   -8.8507    5.8850   57.1540 H   0  0  0  0  0  0  0  0  0  0  0  0
   -7.3817    1.0810   62.3256 H   0  0  0  0  0  0  0  0  0  0  0  0
   -5.3029    0.9264   60.2219 H   0  0  0  0  0  0  0  0  0  0  0  0
   -5.3069    1.8571   61.7087 H   0  0  0  0  0  0  0  0  0  0  0  0
   -5.8260    3.2522   59.7484 H   0  0  0  0  0  0  0  0  0  0  0  0
   -7.1559    3.1903   60.9009 H   0  0  0  0  0  0  0  0  0  0  0  0
   -6.9866    0.1994   58.6781 H   0  0  0  0  0  0  0  0  0  0  0  0
   -8.6820    0.6063   58.4894 H   0  0  0  0  0  0  0  0  0  0  0  0
   -8.2224   -0.8457   60.4468 H   0  0  0  0  0  0  0  0  0  0  0  0
   -8.9808    0.7080   60.8482 H   0  0  0  0  0  0  0  0  0  0  0  0
   -3.3541   -2.7021   64.8466 H   0  0  0  0  0  0  0  0  0  0  0  0
   -4.6372   -1.6979   65.4776 H   0  0  0  0  0  0  0  0  0  0  0  0
   -3.2454   -0.9629   64.7188 H   0  0  0  0  0  0  0  0  0  0  0  0
   -3.0110   -2.9029   62.3760 H   0  0  0  0  0  0  0  0  0  0  0  0
   -2.8813   -1.1627   62.2865 H   0  0  0  0  0  0  0  0  0  0  0  0
   -4.0299   -2.0063   61.2755 H   0  0  0  0  0  0  0  0  0  0  0  0
   -5.2540   -3.7967   64.0250 H   0  0  0  0  0  0  0  0  0  0  0  0
   -5.4924   -3.5231   62.3015 H   0  0  0  0  0  0  0  0  0  0  0  0
   -7.1000   -2.3042   64.5202 H   0  0  0  0  0  0  0  0  0  0  0  0
   -7.6210   -3.5783   63.4227 H   0  0  0  0  0  0  0  0  0  0  0  0
   -8.2870   -1.0916   62.9680 H   0  0  0  0  0  0  0  0  0  0  0  0
   -7.8068   -2.1782   61.6451 H   0  0  0  0  0  0  0  0  0  0  0  0
   -5.9034   -0.2765   64.0659 H   0  0  0  0  0  0  0  0  0  0  0  0
   -4.7532    0.2422   62.8515 H   0  0  0  0  0  0  0  0  0  0  0  0
  -10.2471    5.5941   52.7461 H   0  0  0  0  0  0  0  0  0  0  0  0
   -8.5562    5.7396   52.2654 H   0  0  0  0  0  0  0  0  0  0  0  0
   -8.7887   10.0819   51.0436 H   0  0  0  0  0  0  0  0  0  0  0  0
  -10.4970   10.0697   54.8540 H   0  0  0  0  0  0  0  0  0  0  0  0
  1  2  2  0  0  0  0
  2  3  1  0  0  0  0
  3  4  2  0  0  0  0
  3 33  1  0  0  0  0
  4 20  1  0  0  0  0
  4  5  1  0  0  0  0
  5  1  1  0  0  0  0
  6  7  1  0  0  0  0
  6 34  1  0  0  0  0
  7  8  1  0  0  0  0
  7 35  1  0  0  0  0
  7 36  1  0  0  0  0
  8  9  1  0  0  0  0
  8 37  1  0  0  0  0
  8 38  1  0  0  0  0
  9  1  1  0  0  0  0
  9 10  1  0  0  0  0
 10 11  1  0  0  0  0
 10 39  1  0  0  0  0
 10 40  1  0  0  0  0
 11  6  1  0  0  0  0
 11 41  1  0  0  0  0
 11 42  1  0  0  0  0
 12 13  1  0  0  0  0
 12 43  1  0  0  0  0
 12 44  1  0  0  0  0
 12 45  1  0  0  0  0
 13 14  1  0  0  0  0
 13 15  1  0  0  0  0
 14 46  1  0  0  0  0
 14 47  1  0  0  0  0
 14 48  1  0  0  0  0
 15 16  1  0  0  0  0
 15 49  1  0  0  0  0
 15 50  1  0  0  0  0
 16 17  1  0  0  0  0
 16 51  1  0  0  0  0
 16 52  1  0  0  0  0
 17 18  1  0  0  0  0
 17 53  1  0  0  0  0
 17 54  1  0  0  0  0
 18  6  1  1  0  0  0
 18 19  1  0  0  0  0
 19 13  1  0  0  0  0
 19 55  1  0  0  0  0
 19 56  1  0  0  0  0
 20 21  2  0  0  0  0
 20 22  1  0  0  0  0
 22 24  1  0  0  0  0
 22 23  1  0  0  0  0
 24 25  1  0  0  0  0
 24 57  1  0  0  0  0
 24 58  1  0  0  0  0
 25 26  2  0  0  0  0
 26 27  1  0  0  0  0
 27 28  2  0  0  0  0
 27 59  1  0  0  0  0
 28 29  1  0  0  0  0
 28 30  1  0  0  0  0
 30 31  2  0  0  0  0
 30 60  1  0  0  0  0
 31 32  1  0  0  0  0
 31 25  1  0  0  0  0
M  END
>  <minimizedAffinity>
-9.24769

$$$$
