L2:P18825:93624


 32 35  0  0  0  0  0  0  0  0999 V2000
   -7.9703    2.9889   58.1723 C   0  0  0  0  0  0  0  0  0  0  0  0
   -8.1460    4.2828   58.3449 N   0  0  0  0  0  0  0  0  0  0  0  0
   -8.6474    4.8744   57.2038 C   0  0  0  0  0  0  0  0  0  0  0  0
   -8.8595    4.0322   56.1358 C   0  0  0  0  0  0  0  0  0  0  0  0
   -8.4137    2.4449   56.5836 S   0  0  0  0  0  0  0  0  0  0  0  0
   -6.9701    0.5273   61.5077 C   0  0  0  0  0  0  0  0  0  0  0  0
   -5.9107    1.4702   60.9146 C   0  0  0  0  0  0  0  0  0  0  0  0
   -6.5811    2.6354   60.1891 C   0  0  0  0  0  0  0  0  0  0  0  0
   -7.4786    2.1625   59.1420 N   0  0  0  0  0  0  0  0  0  0  0  0
   -7.8103    0.7402   59.0953 C   0  0  0  0  0  0  0  0  0  0  0  0
   -8.0972    0.2156   60.4994 C   0  0  0  0  0  0  0  0  0  0  0  0
   -3.9109   -1.8005   64.6986 C   0  0  0  0  0  0  0  0  0  0  0  0
   -4.6246   -1.8560   63.3358 C   0  0  0  0  0  0  0  0  0  0  0  0
   -3.5549   -1.9924   62.2342 C   0  0  0  0  0  0  0  0  0  0  0  0
   -5.5608   -3.0936   63.2791 C   0  0  0  0  0  0  0  0  0  0  0  0
   -7.0132   -2.7045   63.5317 C   0  0  0  0  0  0  0  0  0  0  0  0
   -7.4919   -1.6515   62.5216 C   0  0  0  0  0  0  0  0  0  0  0  0
   -6.4393   -0.7129   62.1054 N   0  0  0  0  0  0  0  0  0  0  0  0
   -5.4252   -0.5371   63.1449 C   0  0  0  0  0  0  0  0  0  0  0  0
   -9.3722    4.3872   54.8306 C   0  0  0  0  0  0  0  0  0  0  0  0
  -10.2046    3.7084   54.2328 O   0  0  0  0  0  0  0  0  0  0  0  0
   -8.8751    5.5421   54.2799 N   0  0  0  0  0  0  0  0  0  0  0  0
   -8.1885    6.0988   54.7784 H   0  0  0  0  0  0  0  0  0  0  0  0
   -9.2966    6.0242   52.9836 C   0  0  0  0  0  0  0  0  0  0  0  0
   -9.4210    7.5298   52.9596 C   0  0  0  0  0  0  0  0  0  0  0  0
   -8.9831    8.2009   51.8500 N   0  0  0  0  0  0  0  0  0  0  0  0
   -9.1111    9.5510   51.8677 C   0  0  0  0  0  0  0  0  0  0  0  0
   -9.6509   10.2572   52.9311 C   0  0  0  0  0  0  0  0  0  0  0  0
   -9.7470   11.5912   52.8815 F   0  0  0  0  0  0  0  0  0  0  0  0
  -10.0911    9.5677   54.0489 C   0  0  0  0  0  0  0  0  0  0  0  0
   -9.9728    8.1853   54.0592 C   0  0  0  0  0  0  0  0  0  0  0  0
  -10.3903    7.4940   55.1279 F   0  0  0  0  0  0  0  0  0  0  0  0
 12 13  1  0  0  0
 13 14  1  0  0  0
 13 15  1  0  0  0
 15 16  1  0  0  0
 16 17  1  0  0  0
 17 18  1  0  0  0
 18  6  1  0  0  0
  6  7  1  0  0  0
  7  8  1  0  0  0
  8  9  1  0  0  0
  9  1  1  0  0  0
  1  2  2  0  0  0
  2  3  1  0  0  0
  3  4  2  0  0  0
  4 20  1  0  0  0
 20 21  2  0  0  0
 20 22  1  0  0  0
 22 24  1  0  0  0
 24 25  1  0  0  0
 25 26  2  0  0  0
 26 27  1  0  0  0
 27 28  2  0  0  0
 28 29  1  0  0  0
 28 30  1  0  0  0
 30 31  2  0  0  0
 31 32  1  0  0  0
  4  5  1  0  0  0
  9 10  1  0  0  0
 10 11  1  0  0  0
 18 19  1  0  0  0
 19 13  1  0  0  0
 11  6  1  0  0  0
  5  1  1  0  0  0
 31 25  1  0  0  0
 22 23  1  0  0  0
M  END
> <minimizedAffinity>
-9.24769

$$$$
