L2:P18825:93624
     RDKit          3D

 60 63  0  0  0  0  0  0  0  0999 V2000
   -6.6787   -1.0334    0.8008 C   0  0  0  0  0  0  0  0  0  0  0  0
   -5.5382   -1.1736    1.8251 C   0  0  0  0  0  0  0  0  0  0  0  0
   -5.7226   -0.0905    2.9064 C   0  0  0  0  0  0  0  0  0  0  0  0
   -5.6030   -2.5703    2.5007 C   0  0  0  0  0  0  0  0  0  0  0  0
   -4.5866   -3.5303    1.8924 C   0  0  0  0  0  0  0  0  0  0  0  0
   -3.1597   -2.9731    2.0003 C   0  0  0  0  0  0  0  0  0  0  0  0
   -3.0893   -1.5084    1.8920 N   0  0  0  0  0  0  0  0  0  0  0  0
   -1.7401   -1.0150    1.5553 C   0  0  0  0  0  0  0  0  0  0  0  0
   -1.3317   -1.1873    0.0834 C   0  0  0  0  0  0  0  0  0  0  0  0
    0.0087   -0.5039   -0.1810 C   0  0  0  0  0  0  0  0  0  0  0  0
   -0.0397    0.9111    0.1669 N   0  0  0  0  0  0  0  0  0  0  0  0
    0.9185    1.7964   -0.2371 C   0  0  0  0  0  0  0  0  0  0  0  0
    0.8237    3.0977   -0.0570 N   0  0  0  0  0  0  0  0  0  0  0  0
    1.9322    3.7518   -0.5537 C   0  0  0  0  0  0  0  0  0  0  0  0
    2.8967    2.9502   -1.1213 C   0  0  0  0  0  0  0  0  0  0  0  0
    4.1480    3.3722   -1.7116 C   0  0  0  0  0  0  0  0  0  0  0  0
    4.4936    4.5503   -1.7733 O   0  0  0  0  0  0  0  0  0  0  0  0
    4.9481    2.3742   -2.2097 N   0  0  0  0  0  0  0  0  0  0  0  0
    6.2281    2.6443   -2.8254 C   0  0  0  0  0  0  0  0  0  0  0  0
    6.9084    1.3750   -3.2825 C   0  0  0  0  0  0  0  0  0  0  0  0
    6.2656    0.1837   -3.0805 N   0  0  0  0  0  0  0  0  0  0  0  0
    6.9095   -0.9325   -3.5037 C   0  0  0  0  0  0  0  0  0  0  0  0
    8.1538   -0.9163   -4.1140 C   0  0  0  0  0  0  0  0  0  0  0  0
    8.7322   -2.0574   -4.5072 F   0  0  0  0  0  0  0  0  0  0  0  0
    8.7950    0.2952   -4.3137 C   0  0  0  0  0  0  0  0  0  0  0  0
    8.1602    1.4542   -3.8908 C   0  0  0  0  0  0  0  0  0  0  0  0
    8.7584    2.6391   -4.0713 F   0  0  0  0  0  0  0  0  0  0  0  0
    2.3906    1.3212   -1.0268 S   0  0  0  0  0  0  0  0  0  0  0  0
   -1.1889    1.4067    0.9211 C   0  0  0  0  0  0  0  0  0  0  0  0
   -1.5454    0.4367    2.0440 C   0  0  0  0  0  0  0  0  0  0  0  0
   -4.1853   -0.9692    1.0871 C   0  0  0  0  0  0  0  0  0  0  0  0
   -7.6589   -1.1235    1.2824 H   0  0  0  0  0  0  0  0  0  0  0  0
   -6.6423   -0.0594    0.2998 H   0  0  0  0  0  0  0  0  0  0  0  0
   -6.6148   -1.8088    0.0292 H   0  0  0  0  0  0  0  0  0  0  0  0
   -5.7187    0.9132    2.4666 H   0  0  0  0  0  0  0  0  0  0  0  0
   -6.6747   -0.2189    3.4335 H   0  0  0  0  0  0  0  0  0  0  0  0
   -4.9210   -0.1282    3.6524 H   0  0  0  0  0  0  0  0  0  0  0  0
   -5.3891   -2.4865    3.5745 H   0  0  0  0  0  0  0  0  0  0  0  0
   -6.6096   -2.9985    2.4252 H   0  0  0  0  0  0  0  0  0  0  0  0
   -4.6405   -4.5030    2.3943 H   0  0  0  0  0  0  0  0  0  0  0  0
   -4.8382   -3.7042    0.8385 H   0  0  0  0  0  0  0  0  0  0  0  0
   -2.5533   -3.4694    1.2338 H   0  0  0  0  0  0  0  0  0  0  0  0
   -2.7400   -3.2601    2.9720 H   0  0  0  0  0  0  0  0  0  0  0  0
   -1.0342   -1.6096    2.1542 H   0  0  0  0  0  0  0  0  0  0  0  0
   -1.2497   -2.2496   -0.1721 H   0  0  0  0  0  0  0  0  0  0  0  0
   -2.0844   -0.7585   -0.5892 H   0  0  0  0  0  0  0  0  0  0  0  0
    0.2432   -0.6345   -1.2443 H   0  0  0  0  0  0  0  0  0  0  0  0
    0.7946   -1.0006    0.4014 H   0  0  0  0  0  0  0  0  0  0  0  0
    1.9906    4.8314   -0.4750 H   0  0  0  0  0  0  0  0  0  0  0  0
    4.6579    1.4033   -2.1553 H   0  0  0  0  0  0  0  0  0  0  0  0
    6.8554    3.1622   -2.0915 H   0  0  0  0  0  0  0  0  0  0  0  0
    6.0607    3.3090   -3.6799 H   0  0  0  0  0  0  0  0  0  0  0  0
    6.3893   -1.8706   -3.3374 H   0  0  0  0  0  0  0  0  0  0  0  0
    9.7681    0.3369   -4.7874 H   0  0  0  0  0  0  0  0  0  0  0  0
   -2.0406    1.5397    0.2431 H   0  0  0  0  0  0  0  0  0  0  0  0
   -0.9950    2.3847    1.3781 H   0  0  0  0  0  0  0  0  0  0  0  0
   -2.4282    0.8095    2.5783 H   0  0  0  0  0  0  0  0  0  0  0  0
   -0.7348    0.4437    2.7860 H   0  0  0  0  0  0  0  0  0  0  0  0
   -4.0493    0.1029    0.8998 H   0  0  0  0  0  0  0  0  0  0  0  0
   -4.2049   -1.4509    0.1002 H   0  0  0  0  0  0  0  0  0  0  0  0
  1  2  1  0
  2  3  1  0
  2  4  1  0
  4  5  1  0
  5  6  1  0
  6  7  1  0
  7  8  1  0
  8  9  1  0
  9 10  1  0
 10 11  1  0
 11 12  1  0
 12 13  2  0
 13 14  1  0
 14 15  2  0
 15 16  1  0
 16 17  2  0
 16 18  1  0
 18 19  1  0
 19 20  1  0
 20 21  2  0
 21 22  1  0
 22 23  2  0
 23 24  1  0
 23 25  1  0
 25 26  2  0
 26 27  1  0
 15 28  1  0
 11 29  1  0
 29 30  1  0
  7 31  1  0
 31  2  1  0
 30  8  1  0
 28 12  1  0
 26 20  1  0
  1 32  1  0
  1 33  1  0
  1 34  1  0
  3 35  1  0
  3 36  1  0
  3 37  1  0
  4 38  1  0
  4 39  1  0
  5 40  1  0
  5 41  1  0
  6 42  1  0
  6 43  1  0
  8 44  1  0
  9 45  1  0
  9 46  1  0
 10 47  1  0
 10 48  1  0
 14 49  1  0
 18 50  1  0
 19 51  1  0
 19 52  1  0
 22 53  1  0
 25 54  1  0
 29 55  1  0
 29 56  1  0
 30 57  1  0
 30 58  1  0
 31 59  1  0
 31 60  1  0
M  END
>  <mol_id>  (1) 
93624

>  <source_index>  (1) 
4

>  <layer>  (1) 
L2

>  <uniprot>  (1) 
P18825

>  <paff>  (1) 
6.2441000000000004

>  <smiles>  (1) 
CC1(C)CCCN(C1)C1CCN(CC1)c1ncc(s1)C(=O)NCc1ncc(F)cc1F

$$$$
