L1:P0C6U8:20305
     RDKit          3D

 76 77  0  0  0  0  0  0  0  0999 V2000
    9.6113    2.0128    1.8231 C   0  0  0  0  0  0  0  0  0  0  0  0
    8.2150    2.3373    2.3312 C   0  0  0  0  0  0  0  0  0  0  0  0
    7.1322    2.2518    1.2513 C   0  0  0  0  0  0  0  0  0  0  0  0
    6.8961    0.8248    0.7425 C   0  0  0  0  0  0  0  0  0  0  0  0
    5.8320    0.7391   -0.3765 C   0  0  1  0  0  0  0  0  0  0  0  0
    5.8104   -0.6685   -1.0007 C   0  0  0  0  0  0  0  0  0  0  0  0
    5.1803   -1.7193   -0.0849 C   0  0  0  0  0  0  0  0  0  0  0  0
    3.7764   -1.3290    0.3993 C   0  0  2  0  0  0  0  0  0  0  0  0
    2.7358   -1.4833   -0.7241 C   0  0  0  0  0  0  0  0  0  0  0  0
    1.4278   -1.2475   -0.1835 O   0  0  0  0  0  0  0  0  0  0  0  0
    0.4256   -1.3361   -1.0880 C   0  0  0  0  0  0  0  0  0  0  0  0
    0.5569   -1.5923   -2.2751 O   0  0  0  0  0  0  0  0  0  0  0  0
   -0.7569   -1.0922   -0.4706 N   0  0  0  0  0  0  0  0  0  0  0  0
   -2.0302   -1.0848   -1.1614 C   0  0  1  0  0  0  0  0  0  0  0  0
   -2.5240   -2.4940   -1.5410 C   0  0  0  0  0  0  0  0  0  0  0  0
   -2.4249   -3.5921   -0.4587 C   0  0  0  0  0  0  0  0  0  0  0  0
   -3.2820   -3.3100    0.7734 C   0  0  0  0  0  0  0  0  0  0  0  0
   -2.8355   -4.9393   -1.0647 C   0  0  0  0  0  0  0  0  0  0  0  0
   -3.0524   -0.2813   -0.3318 C   0  0  0  0  0  0  0  0  0  0  0  0
   -2.8392    0.0642    0.8287 O   0  0  0  0  0  0  0  0  0  0  0  0
   -4.2245    0.0282   -0.9898 N   0  0  0  0  0  0  0  0  0  0  0  0
   -5.2959    0.7888   -0.3346 C   0  0  2  0  0  0  0  0  0  0  0  0
   -6.1588   -0.2290    0.4040 C   0  0  0  0  0  0  0  0  0  0  0  0
   -6.9028    0.0539    1.3386 O   0  0  0  0  0  0  0  0  0  0  0  0
   -6.0671    1.5616   -1.4131 C   0  0  0  0  0  0  0  0  0  0  0  0
   -7.0091    2.6881   -0.9739 C   0  0  2  0  0  0  0  0  0  0  0  0
   -6.4773    3.6845    0.0618 C   0  0  0  0  0  0  0  0  0  0  0  0
   -7.1990    3.3409    1.3519 C   0  0  0  0  0  0  0  0  0  0  0  0
   -8.3816    2.6630    0.9217 N   0  0  0  0  0  0  0  0  0  0  0  0
   -8.2920    2.1785   -0.3605 C   0  0  0  0  0  0  0  0  0  0  0  0
   -9.1000    1.4485   -0.9078 O   0  0  0  0  0  0  0  0  0  0  0  0
    3.7821    0.0856    1.0052 C   0  0  0  0  0  0  0  0  0  0  0  0
    4.4157    1.1261    0.0810 C   0  0  0  0  0  0  0  0  0  0  0  0
    9.6985    0.9633    1.5280 H   0  0  0  0  0  0  0  0  0  0  0  0
    9.8724    2.6381    0.9636 H   0  0  0  0  0  0  0  0  0  0  0  0
   10.3488    2.1959    2.6112 H   0  0  0  0  0  0  0  0  0  0  0  0
    7.9649    1.6711    3.1650 H   0  0  0  0  0  0  0  0  0  0  0  0
    8.2222    3.3579    2.7327 H   0  0  0  0  0  0  0  0  0  0  0  0
    7.3976    2.9064    0.4126 H   0  0  0  0  0  0  0  0  0  0  0  0
    6.2069    2.6467    1.6839 H   0  0  0  0  0  0  0  0  0  0  0  0
    6.6251    0.1832    1.5881 H   0  0  0  0  0  0  0  0  0  0  0  0
    7.8384    0.4311    0.3437 H   0  0  0  0  0  0  0  0  0  0  0  0
    6.1335    1.4423   -1.1645 H   0  0  0  0  0  0  0  0  0  0  0  0
    5.2515   -0.6305   -1.9439 H   0  0  0  0  0  0  0  0  0  0  0  0
    6.8280   -0.9804   -1.2654 H   0  0  0  0  0  0  0  0  0  0  0  0
    5.8274   -1.8717    0.7876 H   0  0  0  0  0  0  0  0  0  0  0  0
    5.1451   -2.6829   -0.6071 H   0  0  0  0  0  0  0  0  0  0  0  0
    3.4847   -2.0200    1.2019 H   0  0  0  0  0  0  0  0  0  0  0  0
    2.7729   -2.5055   -1.1203 H   0  0  0  0  0  0  0  0  0  0  0  0
    2.9239   -0.7794   -1.5419 H   0  0  0  0  0  0  0  0  0  0  0  0
   -0.7307   -0.8497    0.5139 H   0  0  0  0  0  0  0  0  0  0  0  0
   -1.8864   -0.5192   -2.0924 H   0  0  0  0  0  0  0  0  0  0  0  0
   -1.9261   -2.8279   -2.4003 H   0  0  0  0  0  0  0  0  0  0  0  0
   -3.5581   -2.4411   -1.9039 H   0  0  0  0  0  0  0  0  0  0  0  0
   -1.3810   -3.6872   -0.1359 H   0  0  0  0  0  0  0  0  0  0  0  0
   -2.8852   -2.4701    1.3484 H   0  0  0  0  0  0  0  0  0  0  0  0
   -3.2932   -4.1744    1.4464 H   0  0  0  0  0  0  0  0  0  0  0  0
   -4.3174   -3.0867    0.4969 H   0  0  0  0  0  0  0  0  0  0  0  0
   -2.7271   -5.7458   -0.3317 H   0  0  0  0  0  0  0  0  0  0  0  0
   -2.2058   -5.1878   -1.9256 H   0  0  0  0  0  0  0  0  0  0  0  0
   -3.8784   -4.9232   -1.3994 H   0  0  0  0  0  0  0  0  0  0  0  0
   -4.3601   -0.2914   -1.9424 H   0  0  0  0  0  0  0  0  0  0  0  0
   -4.8452    1.4588    0.4029 H   0  0  0  0  0  0  0  0  0  0  0  0
   -6.1643   -1.2512   -0.0123 H   0  0  0  0  0  0  0  0  0  0  0  0
   -5.3295    2.0203   -2.0873 H   0  0  0  0  0  0  0  0  0  0  0  0
   -6.6305    0.8483   -2.0306 H   0  0  0  0  0  0  0  0  0  0  0  0
   -7.2954    3.2473   -1.8749 H   0  0  0  0  0  0  0  0  0  0  0  0
   -5.3890    3.6849    0.1691 H   0  0  0  0  0  0  0  0  0  0  0  0
   -6.7631    4.6991   -0.2457 H   0  0  0  0  0  0  0  0  0  0  0  0
   -7.4677    4.2247    1.9362 H   0  0  0  0  0  0  0  0  0  0  0  0
   -6.6149    2.6587    1.9760 H   0  0  0  0  0  0  0  0  0  0  0  0
   -9.1312    2.3555    1.5297 H   0  0  0  0  0  0  0  0  0  0  0  0
    2.7632    0.3996    1.2600 H   0  0  0  0  0  0  0  0  0  0  0  0
    4.3342    0.0630    1.9528 H   0  0  0  0  0  0  0  0  0  0  0  0
    4.4149    2.1021    0.5761 H   0  0  0  0  0  0  0  0  0  0  0  0
    3.7817    1.2489   -0.8061 H   0  0  0  0  0  0  0  0  0  0  0  0
  1  2  1  0
  2  3  1  0
  3  4  1  0
  4  5  1  0
  5  6  1  0
  6  7  1  0
  7  8  1  0
  8  9  1  0
  9 10  1  0
 10 11  1  0
 11 12  2  0
 11 13  1  0
 13 14  1  0
 14 15  1  0
 15 16  1  0
 16 17  1  0
 16 18  1  0
 14 19  1  0
 19 20  2  0
 19 21  1  0
 21 22  1  0
 22 23  1  0
 23 24  2  0
 22 25  1  0
 25 26  1  0
 26 27  1  0
 27 28  1  0
 28 29  1  0
 29 30  1  0
 30 31  2  0
  8 32  1  0
 32 33  1  0
 33  5  1  0
 30 26  1  0
  1 34  1  0
  1 35  1  0
  1 36  1  0
  2 37  1  0
  2 38  1  0
  3 39  1  0
  3 40  1  0
  4 41  1  0
  4 42  1  0
  5 43  1  6
  6 44  1  0
  6 45  1  0
  7 46  1  0
  7 47  1  0
  8 48  1  1
  9 49  1  0
  9 50  1  0
 13 51  1  0
 14 52  1  6
 15 53  1  0
 15 54  1  0
 16 55  1  0
 17 56  1  0
 17 57  1  0
 17 58  1  0
 18 59  1  0
 18 60  1  0
 18 61  1  0
 21 62  1  0
 22 63  1  1
 23 64  1  0
 25 65  1  0
 25 66  1  0
 26 67  1  6
 27 68  1  0
 27 69  1  0
 28 70  1  0
 28 71  1  0
 29 72  1  0
 32 73  1  0
 32 74  1  0
 33 75  1  0
 33 76  1  0
M  END
>  <mol_id>  (1) 
20305

>  <source_index>  (1) 
0

>  <layer>  (1) 
L1

>  <uniprot>  (1) 
P0C6U8

>  <paff>  (1) 
6.0457999999999998

>  <smiles>  (1) 
CCCCC1CCC(COC(=O)N[C@@H](CC(C)C)C(=O)N[C@H](C=O)C[C@@H]2CCNC2=O)CC1

$$$$
