L1:P0C6U8:20766
     RDKit          3D

 69 73  0  0  0  0  0  0  0  0999 V2000
    3.6525    3.1735    2.2390 C   0  0  0  0  0  0  0  0  0  0  0  0
    3.9220    1.8399    1.5388 C   0  0  0  0  0  0  0  0  0  0  0  0
    5.2938    1.2806    1.9227 C   0  0  0  0  0  0  0  0  0  0  0  0
    3.7592    1.9601    0.0296 C   0  0  0  0  0  0  0  0  0  0  0  0
    4.6313    2.7910   -0.7166 C   0  0  0  0  0  0  0  0  0  0  0  0
    4.5116    2.9350   -2.0981 C   0  0  0  0  0  0  0  0  0  0  0  0
    3.5144    2.2578   -2.7854 C   0  0  0  0  0  0  0  0  0  0  0  0
    3.3902    2.4005   -4.1108 F   0  0  0  0  0  0  0  0  0  0  0  0
    2.6481    1.4381   -2.0678 C   0  0  0  0  0  0  0  0  0  0  0  0
    1.5871    0.6859   -2.5019 N   0  0  0  0  0  0  0  0  0  0  0  0
    0.9872    0.0125   -1.4569 C   0  0  0  0  0  0  0  0  0  0  0  0
   -0.1861   -0.8040   -1.6980 C   0  0  0  0  0  0  0  0  0  0  0  0
   -0.8528   -0.6164   -2.7175 O   0  0  0  0  0  0  0  0  0  0  0  0
   -0.5641   -1.7841   -0.7964 N   0  0  0  0  0  0  0  0  0  0  0  0
    0.2038   -2.2929    0.3335 C   0  0  0  0  0  0  0  0  0  0  0  0
   -0.4582   -3.5791    0.7159 C   0  0  1  0  0  0  0  0  0  0  0  0
   -1.6566   -3.7714   -0.1559 C   0  0  1  0  0  0  0  0  0  0  0  0
   -1.7494   -2.6013   -1.1031 C   0  0  1  0  0  0  0  0  0  0  0  0
   -3.0750   -1.8206   -0.9261 C   0  0  0  0  0  0  0  0  0  0  0  0
   -4.1422   -2.2260   -1.3849 O   0  0  0  0  0  0  0  0  0  0  0  0
   -3.0044   -0.6918   -0.1341 N   0  0  0  0  0  0  0  0  0  0  0  0
   -4.1510    0.1824    0.0708 C   0  0  2  0  0  0  0  0  0  0  0  0
   -4.3729    1.0462   -1.1645 C   0  0  0  0  0  0  0  0  0  0  0  0
   -5.1134    2.0277   -1.1873 O   0  0  0  0  0  0  0  0  0  0  0  0
   -4.1087    0.9673    1.3925 C   0  0  0  0  0  0  0  0  0  0  0  0
   -3.0489    2.0568    1.6235 C   0  0  2  0  0  0  0  0  0  0  0  0
   -3.2986    3.4246    0.9749 C   0  0  0  0  0  0  0  0  0  0  0  0
   -2.2776    3.5489   -0.1407 C   0  0  0  0  0  0  0  0  0  0  0  0
   -1.2721    2.5857    0.1869 N   0  0  0  0  0  0  0  0  0  0  0  0
   -1.6716    1.6857    1.1406 C   0  0  0  0  0  0  0  0  0  0  0  0
   -1.0400    0.7007    1.4860 O   0  0  0  0  0  0  0  0  0  0  0  0
   -0.5346   -4.8028   -0.1840 C   0  0  0  0  0  0  0  0  0  0  0  0
   -0.8082   -6.1298    0.4822 C   0  0  0  0  0  0  0  0  0  0  0  0
    0.3627   -4.9197   -1.3906 C   0  0  0  0  0  0  0  0  0  0  0  0
    1.6944    0.3760   -0.3235 C   0  0  0  0  0  0  0  0  0  0  0  0
    2.7464    1.2695   -0.6899 C   0  0  0  0  0  0  0  0  0  0  0  0
    2.6608    3.5594    1.9772 H   0  0  0  0  0  0  0  0  0  0  0  0
    3.6878    3.0509    3.3270 H   0  0  0  0  0  0  0  0  0  0  0  0
    4.3901    3.9360    1.9665 H   0  0  0  0  0  0  0  0  0  0  0  0
    3.1763    1.1282    1.9130 H   0  0  0  0  0  0  0  0  0  0  0  0
    5.3510    1.1126    3.0037 H   0  0  0  0  0  0  0  0  0  0  0  0
    5.4791    0.3226    1.4243 H   0  0  0  0  0  0  0  0  0  0  0  0
    6.1070    1.9619    1.6506 H   0  0  0  0  0  0  0  0  0  0  0  0
    5.4218    3.3413   -0.2088 H   0  0  0  0  0  0  0  0  0  0  0  0
    5.1932    3.5785   -2.6458 H   0  0  0  0  0  0  0  0  0  0  0  0
    1.2675    0.6356   -3.4617 H   0  0  0  0  0  0  0  0  0  0  0  0
    1.2524   -2.4348    0.0573 H   0  0  0  0  0  0  0  0  0  0  0  0
    0.1278   -1.5820    1.1587 H   0  0  0  0  0  0  0  0  0  0  0  0
   -0.5548   -3.7042    1.7863 H   0  0  0  0  0  0  0  0  0  0  0  0
   -2.6038   -4.0518    0.2872 H   0  0  0  0  0  0  0  0  0  0  0  0
   -1.7006   -2.9335   -2.1468 H   0  0  0  0  0  0  0  0  0  0  0  0
   -2.0993   -0.4797    0.2854 H   0  0  0  0  0  0  0  0  0  0  0  0
   -5.0294   -0.4755    0.1126 H   0  0  0  0  0  0  0  0  0  0  0  0
   -3.9004    0.6900   -2.0966 H   0  0  0  0  0  0  0  0  0  0  0  0
   -5.0951    1.4199    1.5602 H   0  0  0  0  0  0  0  0  0  0  0  0
   -3.9834    0.2254    2.1942 H   0  0  0  0  0  0  0  0  0  0  0  0
   -2.9807    2.2173    2.7080 H   0  0  0  0  0  0  0  0  0  0  0  0
   -4.3254    3.5820    0.6359 H   0  0  0  0  0  0  0  0  0  0  0  0
   -3.1003    4.2068    1.7201 H   0  0  0  0  0  0  0  0  0  0  0  0
   -1.8299    4.5450   -0.1920 H   0  0  0  0  0  0  0  0  0  0  0  0
   -2.6905    3.2930   -1.1194 H   0  0  0  0  0  0  0  0  0  0  0  0
   -0.3788    2.4942   -0.2855 H   0  0  0  0  0  0  0  0  0  0  0  0
    0.1283   -6.5873    0.8178 H   0  0  0  0  0  0  0  0  0  0  0  0
   -1.4609   -6.0237    1.3556 H   0  0  0  0  0  0  0  0  0  0  0  0
   -1.2959   -6.8143   -0.2195 H   0  0  0  0  0  0  0  0  0  0  0  0
    1.3214   -5.3643   -1.1030 H   0  0  0  0  0  0  0  0  0  0  0  0
    0.5790   -3.9636   -1.8732 H   0  0  0  0  0  0  0  0  0  0  0  0
   -0.1016   -5.5682   -2.1412 H   0  0  0  0  0  0  0  0  0  0  0  0
    1.4691    0.0759    0.6899 H   0  0  0  0  0  0  0  0  0  0  0  0
  1  2  1  0
  2  3  1  0
  2  4  1  0
  4  5  2  0
  5  6  1  0
  6  7  2  0
  7  8  1  0
  7  9  1  0
  9 10  1  0
 10 11  1  0
 11 12  1  0
 12 13  2  0
 12 14  1  0
 14 15  1  0
 15 16  1  0
 16 17  1  0
 17 18  1  0
 18 19  1  0
 19 20  2  0
 19 21  1  0
 21 22  1  0
 22 23  1  0
 23 24  2  0
 22 25  1  0
 25 26  1  0
 26 27  1  0
 27 28  1  0
 28 29  1  0
 29 30  1  0
 30 31  2  0
 17 32  1  0
 32 33  1  0
 32 34  1  0
 11 35  2  0
 35 36  1  0
 36  4  1  0
 36  9  2  0
 18 14  1  0
 30 26  1  0
 32 16  1  0
  1 37  1  0
  1 38  1  0
  1 39  1  0
  2 40  1  0
  3 41  1  0
  3 42  1  0
  3 43  1  0
  5 44  1  0
  6 45  1  0
 10 46  1  0
 15 47  1  0
 15 48  1  0
 16 49  1  1
 17 50  1  1
 18 51  1  6
 21 52  1  0
 22 53  1  1
 23 54  1  0
 25 55  1  0
 25 56  1  0
 26 57  1  1
 27 58  1  0
 27 59  1  0
 28 60  1  0
 28 61  1  0
 29 62  1  0
 33 63  1  0
 33 64  1  0
 33 65  1  0
 34 66  1  0
 34 67  1  0
 34 68  1  0
 35 69  1  0
M  END
>  <mol_id>  (1) 
20766

>  <source_index>  (1) 
1

>  <layer>  (1) 
L1

>  <uniprot>  (1) 
P0C6U8

>  <paff>  (1) 
7.5228999999999999

>  <smiles>  (1) 
CC(C)c1ccc(F)c2[nH]c(C(=O)N3C[C@H]4[C@@H]([C@H]3C(=O)N[C@H](C=O)C[C@@H]3CCNC3=O)C4(C)C)cc12

$$$$
