L1:P0C6U8:20766
 OpenBabel09212617413D

 69 73  0  0  0  0  0  0  0  0999 V2000
   35.6465  -59.5366   31.7055 C   0  0  0  0  0  0  0  0  0  0  0  0
   36.0367  -58.4288   32.0789 O   0  0  0  0  0  0  0  0  0  0  0  0
   36.2403  -60.6826   32.2060 N   0  0  0  0  0  0  0  0  0  0  0  0
   35.7805  -62.0577   32.0547 C   0  0  0  0  0  0  0  0  0  0  0  0
   36.5202  -62.8398   33.0939 C   0  0  1  0  0  0  0  0  0  0  0  0
   37.4631  -61.9180   33.7971 C   0  0  1  0  0  0  0  0  0  0  0  0
   37.3133  -60.5396   33.2035 C   0  0  1  0  0  0  0  0  0  0  0  0
   36.3723  -62.6258   34.5924 C   0  0  0  0  0  0  0  0  0  0  0  0
   36.8070  -63.7560   35.4942 C   0  0  0  0  0  0  0  0  0  0  0  0
   35.2022  -61.8477   35.1401 C   0  0  0  0  0  0  0  0  0  0  0  0
   32.4576  -60.2326   27.7638 C   0  0  0  0  0  0  0  0  0  0  0  0
   31.1550  -59.7010   27.5953 C   0  0  0  0  0  0  0  0  0  0  0  0
   30.5555  -58.8954   28.5623 C   0  0  0  0  0  0  0  0  0  0  0  0
   31.2357  -58.5874   29.7319 C   0  0  0  0  0  0  0  0  0  0  0  0
   30.6673  -57.8066   30.6591 F   0  0  0  0  0  0  0  0  0  0  0  0
   32.5169  -59.1003   29.9134 C   0  0  0  0  0  0  0  0  0  0  0  0
   33.3914  -58.9338   30.9562 N   0  0  0  0  0  0  0  0  0  0  0  0
   34.5687  -59.6212   30.7398 C   0  0  0  0  0  0  0  0  0  0  0  0
   34.4262  -60.2254   29.5022 C   0  0  0  0  0  0  0  0  0  0  0  0
   33.1389  -59.9119   28.9694 C   0  0  0  0  0  0  0  0  0  0  0  0
   33.2118  -58.3691   31.7777 H   0  0  0  0  0  0  0  0  0  0  0  0
   34.2517  -60.3952   25.9975 C   0  0  0  0  0  0  0  0  0  0  0  0
   33.0761  -61.1010   26.6766 C   0  0  0  0  0  0  0  0  0  0  0  0
   32.0370  -61.5578   25.6502 C   0  0  0  0  0  0  0  0  0  0  0  0
   38.6391  -60.0313   32.5855 C   0  0  0  0  0  0  0  0  0  0  0  0
   39.6885  -59.9884   33.2264 O   0  0  0  0  0  0  0  0  0  0  0  0
   38.5942  -59.7244   31.2401 N   0  0  0  0  0  0  0  0  0  0  0  0
   37.7066  -59.8789   30.7621 H   0  0  0  0  0  0  0  0  0  0  0  0
   39.7417  -59.1715   30.5340 C   0  0  2  0  0  0  0  0  0  0  0  0
   39.7399  -57.6523   30.6492 C   0  0  0  0  0  0  0  0  0  0  0  0
   38.7527  -56.9931   30.9705 O   0  0  0  0  0  0  0  0  0  0  0  0
   39.9028  -59.6969   29.0977 C   0  0  0  0  0  0  0  0  0  0  0  0
   38.9598  -59.2236   27.9796 C   0  0  2  0  0  0  0  0  0  0  0  0
   38.1834  -60.3036   27.2150 C   0  0  0  0  0  0  0  0  0  0  0  0
   38.7910  -60.3481   25.8254 C   0  0  0  0  0  0  0  0  0  0  0  0
   39.4753  -59.0987   25.6950 N   0  0  0  0  0  0  0  0  0  0  0  0
   39.6446  -58.4446   26.8878 C   0  0  0  0  0  0  0  0  0  0  0  0
   40.3076  -57.4328   27.0467 O   0  0  0  0  0  0  0  0  0  0  0  0
   39.8869  -58.7481   24.8364 H   0  0  0  0  0  0  0  0  0  0  0  0
   36.0106  -62.4240   31.0760 H   0  0  0  0  0  0  0  0  0  0  0  0
   34.7204  -62.1386   32.1750 H   0  0  0  0  0  0  0  0  0  0  0  0
   36.4920  -63.7592   32.5472 H   0  0  0  0  0  0  0  0  0  0  0  0
   38.4978  -61.7983   34.0421 H   0  0  0  0  0  0  0  0  0  0  0  0
   37.0690  -59.8032   33.9403 H   0  0  0  0  0  0  0  0  0  0  0  0
   36.6510  -63.4775   36.5155 H   0  0  0  0  0  0  0  0  0  0  0  0
   37.8451  -63.9604   35.3348 H   0  0  0  0  0  0  0  0  0  0  0  0
   36.2329  -64.6310   35.2714 H   0  0  0  0  0  0  0  0  0  0  0  0
   35.2707  -61.8043   36.2070 H   0  0  0  0  0  0  0  0  0  0  0  0
   34.2898  -62.3318   34.8607 H   0  0  0  0  0  0  0  0  0  0  0  0
   35.2159  -60.8549   34.7412 H   0  0  0  0  0  0  0  0  0  0  0  0
   30.6344  -59.9167   26.7307 H   0  0  0  0  0  0  0  0  0  0  0  0
   29.6038  -58.5273   28.4080 H   0  0  0  0  0  0  0  0  0  0  0  0
   35.1383  -60.8104   29.0378 H   0  0  0  0  0  0  0  0  0  0  0  0
   34.6613  -61.0318   25.2413 H   0  0  0  0  0  0  0  0  0  0  0  0
   35.0047  -60.1758   26.7254 H   0  0  0  0  0  0  0  0  0  0  0  0
   33.9112  -59.4844   25.5510 H   0  0  0  0  0  0  0  0  0  0  0  0
   33.4556  -61.9789   27.1563 H   0  0  0  0  0  0  0  0  0  0  0  0
   31.6329  -60.7040   25.1476 H   0  0  0  0  0  0  0  0  0  0  0  0
   31.2499  -62.0835   26.1492 H   0  0  0  0  0  0  0  0  0  0  0  0
   32.5016  -62.2052   24.9362 H   0  0  0  0  0  0  0  0  0  0  0  0
   40.6271  -59.5284   31.0173 H   0  0  0  0  0  0  0  0  0  0  0  0
   40.6169  -57.1478   30.4461 H   0  0  0  0  0  0  0  0  0  0  0  0
   39.8065  -60.7613   29.1488 H   0  0  0  0  0  0  0  0  0  0  0  0
   40.8479  -59.2931   28.8001 H   0  0  0  0  0  0  0  0  0  0  0  0
   38.2901  -58.6344   28.5706 H   0  0  0  0  0  0  0  0  0  0  0  0
   37.1461  -60.0472   27.1595 H   0  0  0  0  0  0  0  0  0  0  0  0
   38.2488  -61.2537   27.7028 H   0  0  0  0  0  0  0  0  0  0  0  0
   38.0276  -60.4410   25.0814 H   0  0  0  0  0  0  0  0  0  0  0  0
   39.4434  -61.1857   25.6926 H   0  0  0  0  0  0  0  0  0  0  0  0
  1  2  2  0  0  0  0
  1  3  1  0  0  0  0
  3  4  1  0  0  0  0
  4  5  1  0  0  0  0
  4 40  1  0  0  0  0
  4 41  1  0  0  0  0
  5  6  1  0  0  0  0
  5 42  1  6  0  0  0
  6  7  1  0  0  0  0
  6  8  1  0  0  0  0
  6 43  1  1  0  0  0
  7 25  1  0  0  0  0
  7  3  1  0  0  0  0
  7 44  1  1  0  0  0
  8  9  1  0  0  0  0
  8 10  1  0  0  0  0
  8  5  1  0  0  0  0
  9 45  1  0  0  0  0
  9 46  1  0  0  0  0
  9 47  1  0  0  0  0
 10 48  1  0  0  0  0
 10 49  1  0  0  0  0
 10 50  1  0  0  0  0
 11 12  2  0  0  0  0
 12 13  1  0  0  0  0
 12 51  1  0  0  0  0
 13 14  2  0  0  0  0
 13 52  1  0  0  0  0
 14 15  1  0  0  0  0
 14 16  1  0  0  0  0
 16 17  1  0  0  0  0
 17 18  1  0  0  0  0
 17 21  1  0  0  0  0
 18  1  1  0  0  0  0
 18 19  2  0  0  0  0
 19 20  1  0  0  0  0
 19 53  1  0  0  0  0
 20 11  1  0  0  0  0
 20 16  2  0  0  0  0
 22 23  1  0  0  0  0
 22 54  1  0  0  0  0
 22 55  1  0  0  0  0
 22 56  1  0  0  0  0
 23 24  1  0  0  0  0
 23 11  1  0  0  0  0
 23 57  1  0  0  0  0
 24 58  1  0  0  0  0
 24 59  1  0  0  0  0
 24 60  1  0  0  0  0
 25 26  2  0  0  0  0
 25 27  1  0  0  0  0
 27 29  1  0  0  0  0
 27 28  1  0  0  0  0
 29 30  1  0  0  0  0
 29 32  1  0  0  0  0
 29 61  1  1  0  0  0
 30 31  2  0  0  0  0
 30 62  1  0  0  0  0
 32 33  1  0  0  0  0
 32 63  1  0  0  0  0
 32 64  1  0  0  0  0
 33 34  1  0  0  0  0
 33 65  1  1  0  0  0
 34 35  1  0  0  0  0
 34 66  1  0  0  0  0
 34 67  1  0  0  0  0
 35 36  1  0  0  0  0
 35 68  1  0  0  0  0
 35 69  1  0  0  0  0
 36 37  1  0  0  0  0
 36 39  1  0  0  0  0
 37 38  2  0  0  0  0
 37 33  1  0  0  0  0
M  END
>  <minimizedAffinity>
-9.00076

$$$$
