L1:P0C6U8:34868
     RDKit          3D

 65 68  0  0  0  0  0  0  0  0999 V2000
   -0.0485   -0.7725    3.9413 O   0  0  0  0  0  0  0  0  0  0  0  0
    1.0167   -1.1565    3.4618 C   0  0  0  0  0  0  0  0  0  0  0  0
    1.4635   -0.8565    2.0386 C   0  0  2  0  0  0  0  0  0  0  0  0
    2.1753    0.5005    1.9296 C   0  0  0  0  0  0  0  0  0  0  0  0
    3.2503    0.7845    2.9781 C   0  0  2  0  0  0  0  0  0  0  0  0
    4.0228    2.0809    2.6892 C   0  0  0  0  0  0  0  0  0  0  0  0
    5.3689    1.8508    3.3502 C   0  0  0  0  0  0  0  0  0  0  0  0
    5.5495    0.4350    3.2458 N   0  0  0  0  0  0  0  0  0  0  0  0
    4.3664   -0.2375    3.0377 C   0  0  0  0  0  0  0  0  0  0  0  0
    4.2414   -1.4481    2.9904 O   0  0  0  0  0  0  0  0  0  0  0  0
    0.2735   -0.8762    1.1950 N   0  0  0  0  0  0  0  0  0  0  0  0
    0.3283   -1.0872   -0.1642 C   0  0  0  0  0  0  0  0  0  0  0  0
    1.3859   -1.2360   -0.7717 O   0  0  0  0  0  0  0  0  0  0  0  0
   -1.0407   -0.9909   -0.8661 C   0  0  2  0  0  0  0  0  0  0  0  0
   -1.0772   -1.7730   -2.1856 C   0  0  0  0  0  0  0  0  0  0  0  0
   -0.9162   -3.3017   -2.0386 C   0  0  0  0  0  0  0  0  0  0  0  0
   -0.8454   -3.9458   -3.4352 C   0  0  0  0  0  0  0  0  0  0  0  0
   -0.7221   -5.4650   -3.3606 C   0  0  0  0  0  0  0  0  0  0  0  0
   -1.8521   -6.0777   -2.5418 C   0  0  0  0  0  0  0  0  0  0  0  0
   -1.9296   -5.4575   -1.1519 C   0  0  0  0  0  0  0  0  0  0  0  0
   -2.0483   -3.9355   -1.2134 C   0  0  0  0  0  0  0  0  0  0  0  0
   -1.2647    0.4310   -1.1210 N   0  0  0  0  0  0  0  0  0  0  0  0
   -1.8223    1.2508   -0.1716 C   0  0  0  0  0  0  0  0  0  0  0  0
   -2.2004    0.8236    0.9161 O   0  0  0  0  0  0  0  0  0  0  0  0
   -1.9057    2.6487   -0.5225 C   0  0  0  0  0  0  0  0  0  0  0  0
   -1.5605    3.3520   -1.6645 C   0  0  0  0  0  0  0  0  0  0  0  0
   -1.8584    4.7280   -1.4534 C   0  0  0  0  0  0  0  0  0  0  0  0
   -1.7250    5.8906   -2.2364 C   0  0  0  0  0  0  0  0  0  0  0  0
   -2.1289    7.1219   -1.7068 C   0  0  0  0  0  0  0  0  0  0  0  0
   -2.6581    7.2032   -0.4203 C   0  0  0  0  0  0  0  0  0  0  0  0
   -2.8000    6.0616    0.3744 C   0  0  0  0  0  0  0  0  0  0  0  0
   -2.3907    4.8398   -0.1716 C   0  0  0  0  0  0  0  0  0  0  0  0
   -2.4120    3.5755    0.3645 N   0  0  0  0  0  0  0  0  0  0  0  0
    1.7439   -1.7127    4.0781 H   0  0  0  0  0  0  0  0  0  0  0  0
    2.1121   -1.6732    1.7060 H   0  0  0  0  0  0  0  0  0  0  0  0
    2.6137    0.5739    0.9255 H   0  0  0  0  0  0  0  0  0  0  0  0
    1.4292    1.3054    1.9874 H   0  0  0  0  0  0  0  0  0  0  0  0
    2.8087    0.8444    3.9808 H   0  0  0  0  0  0  0  0  0  0  0  0
    3.5145    2.9704    3.0732 H   0  0  0  0  0  0  0  0  0  0  0  0
    4.1638    2.2147    1.6091 H   0  0  0  0  0  0  0  0  0  0  0  0
    6.1861    2.3734    2.8472 H   0  0  0  0  0  0  0  0  0  0  0  0
    5.3552    2.1170    4.4116 H   0  0  0  0  0  0  0  0  0  0  0  0
    6.4228   -0.0640    3.3674 H   0  0  0  0  0  0  0  0  0  0  0  0
   -0.6174   -0.6154    1.6232 H   0  0  0  0  0  0  0  0  0  0  0  0
   -1.8219   -1.3485   -0.1878 H   0  0  0  0  0  0  0  0  0  0  0  0
   -0.2880   -1.3968   -2.8511 H   0  0  0  0  0  0  0  0  0  0  0  0
   -2.0258   -1.5595   -2.6968 H   0  0  0  0  0  0  0  0  0  0  0  0
    0.0339   -3.5090   -1.5293 H   0  0  0  0  0  0  0  0  0  0  0  0
   -1.7432   -3.6856   -4.0107 H   0  0  0  0  0  0  0  0  0  0  0  0
    0.0127   -3.5442   -3.9877 H   0  0  0  0  0  0  0  0  0  0  0  0
    0.2426   -5.7318   -2.9116 H   0  0  0  0  0  0  0  0  0  0  0  0
   -0.7306   -5.8853   -4.3725 H   0  0  0  0  0  0  0  0  0  0  0  0
   -1.7014   -7.1597   -2.4557 H   0  0  0  0  0  0  0  0  0  0  0  0
   -2.8054   -5.9277   -3.0632 H   0  0  0  0  0  0  0  0  0  0  0  0
   -1.0332   -5.7290   -0.5807 H   0  0  0  0  0  0  0  0  0  0  0  0
   -2.7887   -5.8713   -0.6116 H   0  0  0  0  0  0  0  0  0  0  0  0
   -3.0197   -3.6655   -1.6466 H   0  0  0  0  0  0  0  0  0  0  0  0
   -2.0372   -3.5506   -0.1881 H   0  0  0  0  0  0  0  0  0  0  0  0
   -0.8511    0.8376   -1.9473 H   0  0  0  0  0  0  0  0  0  0  0  0
   -1.1365    2.9387   -2.5694 H   0  0  0  0  0  0  0  0  0  0  0  0
   -1.3146    5.8367   -3.2402 H   0  0  0  0  0  0  0  0  0  0  0  0
   -2.0288    8.0228   -2.3072 H   0  0  0  0  0  0  0  0  0  0  0  0
   -2.9673    8.1691   -0.0272 H   0  0  0  0  0  0  0  0  0  0  0  0
   -3.2140    6.1273    1.3753 H   0  0  0  0  0  0  0  0  0  0  0  0
   -2.7498    3.3374    1.2882 H   0  0  0  0  0  0  0  0  0  0  0  0
  1  2  2  0
  2  3  1  0
  3  4  1  0
  4  5  1  0
  5  6  1  0
  6  7  1  0
  7  8  1  0
  8  9  1  0
  9 10  2  0
  3 11  1  0
 11 12  1  0
 12 13  2  0
 12 14  1  0
 14 15  1  0
 15 16  1  0
 16 17  1  0
 17 18  1  0
 18 19  1  0
 19 20  1  0
 20 21  1  0
 14 22  1  0
 22 23  1  0
 23 24  2  0
 23 25  1  0
 25 26  2  0
 26 27  1  0
 27 28  2  0
 28 29  1  0
 29 30  2  0
 30 31  1  0
 31 32  2  0
 32 33  1  0
  9  5  1  0
 21 16  1  0
 33 25  1  0
 32 27  1  0
  2 34  1  0
  3 35  1  6
  4 36  1  0
  4 37  1  0
  5 38  1  1
  6 39  1  0
  6 40  1  0
  7 41  1  0
  7 42  1  0
  8 43  1  0
 11 44  1  0
 14 45  1  1
 15 46  1  0
 15 47  1  0
 16 48  1  0
 17 49  1  0
 17 50  1  0
 18 51  1  0
 18 52  1  0
 19 53  1  0
 19 54  1  0
 20 55  1  0
 20 56  1  0
 21 57  1  0
 21 58  1  0
 22 59  1  0
 26 60  1  0
 28 61  1  0
 29 62  1  0
 30 63  1  0
 31 64  1  0
 33 65  1  0
M  END
>  <mol_id>  (1) 
34868

>  <source_index>  (1) 
2

>  <layer>  (1) 
L1

>  <uniprot>  (1) 
P0C6U8

>  <paff>  (1) 
7.2756999999999996

>  <smiles>  (1) 
O=C[C@H](CC1CCNC1=O)NC(=O)[C@H](CC1CCCCC1)NC(=O)c1cc2ccccc2[nH]1

$$$$
