L1:P0C6U8:48138
     RDKit          3D

 59 62  0  0  0  0  0  0  0  0999 V2000
    4.4690   -0.9608   -2.1771 O   0  0  0  0  0  0  0  0  0  0  0  0
    3.2996   -0.7655   -1.8520 C   0  0  0  0  0  0  0  0  0  0  0  0
    2.8669    0.0123   -0.6085 C   0  0  2  0  0  0  0  0  0  0  0  0
    3.8902   -0.1130    0.5303 C   0  0  0  0  0  0  0  0  0  0  0  0
    5.0961    0.8215    0.3564 C   0  0  2  0  0  0  0  0  0  0  0  0
    6.2346    0.5001    1.3384 C   0  0  0  0  0  0  0  0  0  0  0  0
    5.9260    1.3368    2.5652 C   0  0  0  0  0  0  0  0  0  0  0  0
    5.2339    2.4662    2.0283 N   0  0  0  0  0  0  0  0  0  0  0  0
    4.7305    2.2346    0.7673 C   0  0  0  0  0  0  0  0  0  0  0  0
    4.0523    3.0198    0.1296 O   0  0  0  0  0  0  0  0  0  0  0  0
    1.5692   -0.5164   -0.1849 N   0  0  0  0  0  0  0  0  0  0  0  0
    0.3905   -0.1614   -0.8021 C   0  0  0  0  0  0  0  0  0  0  0  0
    0.3562    0.5564   -1.8006 O   0  0  0  0  0  0  0  0  0  0  0  0
   -0.8808   -0.7733   -0.1864 C   0  0  2  0  0  0  0  0  0  0  0  0
   -1.1495   -2.1667   -0.7808 C   0  0  0  0  0  0  0  0  0  0  0  0
   -0.1605   -3.2134   -0.3210 C   0  0  0  0  0  0  0  0  0  0  0  0
    0.8164   -3.7082   -1.1987 C   0  0  0  0  0  0  0  0  0  0  0  0
    1.7559   -4.6452   -0.7610 C   0  0  0  0  0  0  0  0  0  0  0  0
    1.7227   -5.1016    0.5551 C   0  0  0  0  0  0  0  0  0  0  0  0
    0.7477   -4.6220    1.4211 C   0  0  0  0  0  0  0  0  0  0  0  0
    0.7177   -5.0588    2.6866 F   0  0  0  0  0  0  0  0  0  0  0  0
   -0.1913   -3.6867    0.9979 C   0  0  0  0  0  0  0  0  0  0  0  0
   -1.9739    0.1477   -0.4731 N   0  0  0  0  0  0  0  0  0  0  0  0
   -3.1431    0.1348    0.2402 C   0  0  0  0  0  0  0  0  0  0  0  0
   -3.3388   -0.6654    1.1512 O   0  0  0  0  0  0  0  0  0  0  0  0
   -4.1252    1.1173   -0.1527 C   0  0  0  0  0  0  0  0  0  0  0  0
   -4.1230    2.1083   -1.1205 C   0  0  0  0  0  0  0  0  0  0  0  0
   -5.3712    2.7909   -1.0692 C   0  0  0  0  0  0  0  0  0  0  0  0
   -5.9324    3.8616   -1.7911 C   0  0  0  0  0  0  0  0  0  0  0  0
   -7.2243    4.2975   -1.4740 C   0  0  0  0  0  0  0  0  0  0  0  0
   -7.9520    3.6835   -0.4565 C   0  0  0  0  0  0  0  0  0  0  0  0
   -7.4141    2.6191    0.2734 C   0  0  0  0  0  0  0  0  0  0  0  0
   -6.1215    2.1971   -0.0577 C   0  0  0  0  0  0  0  0  0  0  0  0
   -5.3491    1.1956    0.4778 N   0  0  0  0  0  0  0  0  0  0  0  0
    2.4878   -1.0603   -2.5390 H   0  0  0  0  0  0  0  0  0  0  0  0
    2.7128    1.0524   -0.9121 H   0  0  0  0  0  0  0  0  0  0  0  0
    4.2356   -1.1533    0.5927 H   0  0  0  0  0  0  0  0  0  0  0  0
    3.3941    0.1060    1.4857 H   0  0  0  0  0  0  0  0  0  0  0  0
    5.4793    0.8201   -0.6677 H   0  0  0  0  0  0  0  0  0  0  0  0
    6.3368   -0.5646    1.5678 H   0  0  0  0  0  0  0  0  0  0  0  0
    7.1850    0.8356    0.9027 H   0  0  0  0  0  0  0  0  0  0  0  0
    6.8241    1.6626    3.0955 H   0  0  0  0  0  0  0  0  0  0  0  0
    5.2545    0.8199    3.2575 H   0  0  0  0  0  0  0  0  0  0  0  0
    5.0629    3.3437    2.5048 H   0  0  0  0  0  0  0  0  0  0  0  0
    1.5455   -1.1920    0.5715 H   0  0  0  0  0  0  0  0  0  0  0  0
   -0.7606   -0.8225    0.9027 H   0  0  0  0  0  0  0  0  0  0  0  0
   -2.1552   -2.5129   -0.5091 H   0  0  0  0  0  0  0  0  0  0  0  0
   -1.1475   -2.1114   -1.8778 H   0  0  0  0  0  0  0  0  0  0  0  0
    0.8537   -3.3681   -2.2327 H   0  0  0  0  0  0  0  0  0  0  0  0
    2.5093   -5.0228   -1.4488 H   0  0  0  0  0  0  0  0  0  0  0  0
    2.4433   -5.8327    0.9079 H   0  0  0  0  0  0  0  0  0  0  0  0
   -0.9433   -3.3396    1.7028 H   0  0  0  0  0  0  0  0  0  0  0  0
   -1.8280    0.8245   -1.2139 H   0  0  0  0  0  0  0  0  0  0  0  0
   -3.3162    2.3361   -1.8042 H   0  0  0  0  0  0  0  0  0  0  0  0
   -5.3720    4.3461   -2.5850 H   0  0  0  0  0  0  0  0  0  0  0  0
   -7.6623    5.1240   -2.0282 H   0  0  0  0  0  0  0  0  0  0  0  0
   -8.9543    4.0372   -0.2252 H   0  0  0  0  0  0  0  0  0  0  0  0
   -7.9828    2.1433    1.0656 H   0  0  0  0  0  0  0  0  0  0  0  0
   -5.6268    0.5859    1.2357 H   0  0  0  0  0  0  0  0  0  0  0  0
  1  2  2  0
  2  3  1  0
  3  4  1  0
  4  5  1  0
  5  6  1  0
  6  7  1  0
  7  8  1  0
  8  9  1  0
  9 10  2  0
  3 11  1  0
 11 12  1  0
 12 13  2  0
 12 14  1  0
 14 15  1  0
 15 16  1  0
 16 17  2  0
 17 18  1  0
 18 19  2  0
 19 20  1  0
 20 21  1  0
 20 22  2  0
 14 23  1  0
 23 24  1  0
 24 25  2  0
 24 26  1  0
 26 27  2  0
 27 28  1  0
 28 29  2  0
 29 30  1  0
 30 31  2  0
 31 32  1  0
 32 33  2  0
 33 34  1  0
  9  5  1  0
 22 16  1  0
 34 26  1  0
 33 28  1  0
  2 35  1  0
  3 36  1  6
  4 37  1  0
  4 38  1  0
  5 39  1  6
  6 40  1  0
  6 41  1  0
  7 42  1  0
  7 43  1  0
  8 44  1  0
 11 45  1  0
 14 46  1  1
 15 47  1  0
 15 48  1  0
 17 49  1  0
 18 50  1  0
 19 51  1  0
 22 52  1  0
 23 53  1  0
 27 54  1  0
 29 55  1  0
 30 56  1  0
 31 57  1  0
 32 58  1  0
 34 59  1  0
M  END
>  <mol_id>  (1) 
48138

>  <source_index>  (1) 
3

>  <layer>  (1) 
L1

>  <uniprot>  (1) 
P0C6U8

>  <paff>  (1) 
7.3978999999999999

>  <smiles>  (1) 
O=C[C@H](C[C@@H]1CCNC1=O)NC(=O)[C@H](Cc1cccc(F)c1)NC(=O)c1cc2ccccc2[nH]1

$$$$
