L1:P0C6U8:48138


 38 41  0  0  0  0  0  0  0  0999 V2000
   34.3254  -60.7688   27.5792 C   0  0  0  0  0  0  0  0  0  0  0  0
   36.7113  -60.2244   27.8609 N   0  0  0  0  0  0  0  0  0  0  0  0
   35.7954  -61.2239   27.6191 C   0  0  0  0  0  0  0  0  0  0  0  0
   36.1213  -62.4029   27.4886 O   0  0  0  0  0  0  0  0  0  0  0  0
   36.3773  -59.2878   28.0616 H   0  0  0  0  0  0  0  0  0  0  0  0
   38.1541  -60.4709   27.8833 C   0  0  0  0  0  0  0  0  0  0  0  0
   39.9594  -59.3098   29.0524 O   0  0  0  0  0  0  0  0  0  0  0  0
   38.7611  -59.5673   28.9574 C   0  0  0  0  0  0  0  0  0  0  0  0
   38.7617  -60.2021   26.4983 C   0  0  0  0  0  0  0  0  0  0  0  0
   38.2388  -58.9088   25.8566 C   0  0  0  0  0  0  0  0  0  0  0  0
   37.7026  -59.1345   24.4334 C   0  0  0  0  0  0  0  0  0  0  0  0
   38.9102  -58.9394   23.5368 C   0  0  0  0  0  0  0  0  0  0  0  0
   39.7148  -58.0096   24.2653 N   0  0  0  0  0  0  0  0  0  0  0  0
   39.3836  -57.9479   25.6009 C   0  0  0  0  0  0  0  0  0  0  0  0
   39.9647  -57.2780   26.4356 O   0  0  0  0  0  0  0  0  0  0  0  0
   40.4882  -57.4703   23.8946 H   0  0  0  0  0  0  0  0  0  0  0  0
   33.6284  -61.6726   26.6722 N   0  0  0  0  0  0  0  0  0  0  0  0
   33.4937  -61.4026   25.3362 C   0  0  0  0  0  0  0  0  0  0  0  0
   33.9408  -60.3750   24.8334 O   0  0  0  0  0  0  0  0  0  0  0  0
   33.2619  -62.5325   27.0650 H   0  0  0  0  0  0  0  0  0  0  0  0
   32.7907  -62.4003   24.5651 C   0  0  0  0  0  0  0  0  0  0  0  0
   31.4541  -62.7562   24.4912 C   0  0  0  0  0  0  0  0  0  0  0  0
   31.3221  -63.8195   23.5539 C   0  0  0  0  0  0  0  0  0  0  0  0
   30.2337  -64.5730   23.0743 C   0  0  0  0  0  0  0  0  0  0  0  0
   30.4618  -65.5760   22.1248 C   0  0  0  0  0  0  0  0  0  0  0  0
   31.7489  -65.8314   21.6557 C   0  0  0  0  0  0  0  0  0  0  0  0
   32.8442  -65.0958   22.1186 C   0  0  0  0  0  0  0  0  0  0  0  0
   32.5969  -64.0973   23.0675 C   0  0  0  0  0  0  0  0  0  0  0  0
   33.4608  -63.2316   23.6924 N   0  0  0  0  0  0  0  0  0  0  0  0
   34.4606  -63.1952   23.5432 H   0  0  0  0  0  0  0  0  0  0  0  0
   33.7124  -60.8054   28.9899 C   0  0  0  0  0  0  0  0  0  0  0  0
   32.5383  -59.8678   29.1558 C   0  0  0  0  0  0  0  0  0  0  0  0
   31.5596  -60.1135   30.1311 C   0  0  0  0  0  0  0  0  0  0  0  0
   30.4969  -59.2244   30.3112 C   0  0  0  0  0  0  0  0  0  0  0  0
   30.3989  -58.0862   29.5135 C   0  0  0  0  0  0  0  0  0  0  0  0
   31.3604  -57.8489   28.5388 C   0  0  0  0  0  0  0  0  0  0  0  0
   31.2673  -56.7536   27.7741 F   0  0  0  0  0  0  0  0  0  0  0  0
   32.4247  -58.7253   28.3519 C   0  0  0  0  0  0  0  0  0  0  0  0
  7  8  2  0  0  0
  8  6  1  0  0  0
  6  9  1  0  0  0
  9 10  1  0  0  0
 10 11  1  0  0  0
 11 12  1  0  0  0
 12 13  1  0  0  0
 13 14  1  0  0  0
 14 15  2  0  0  0
  6  2  1  0  0  0
  2  3  1  0  0  0
  3  4  2  0  0  0
  3  1  1  0  0  0
  1 31  1  0  0  0
 31 32  1  0  0  0
 32 33  2  0  0  0
 33 34  1  0  0  0
 34 35  2  0  0  0
 35 36  1  0  0  0
 36 37  1  0  0  0
 36 38  2  0  0  0
  1 17  1  0  0  0
 17 18  1  0  0  0
 18 19  2  0  0  0
 18 21  1  0  0  0
 21 22  2  0  0  0
 22 23  1  0  0  0
 23 24  2  0  0  0
 24 25  1  0  0  0
 25 26  2  0  0  0
 26 27  1  0  0  0
 27 28  2  0  0  0
 28 29  1  0  0  0
 14 10  1  0  0  0
 38 32  1  0  0  0
 29 21  1  0  0  0
 28 23  1  0  0  0
 13 16  1  0  0  0
  2  5  1  0  0  0
 17 20  1  0  0  0
 29 30  1  0  0  0
M  END
> <minimizedAffinity>
-8.54161

$$$$
