L1:P0C6U8:52582
 OpenBabel09212617423D

 91 93  0  0  0  0  0  0  0  0999 V2000
   36.1311  -59.8033   30.5550 C   0  0  0  0  0  0  0  0  0  0  0  0
   36.1889  -61.0324   30.5298 O   0  0  0  0  0  0  0  0  0  0  0  0
   35.4471  -59.0830   29.5984 N   0  0  0  0  0  0  0  0  0  0  0  0
   35.2662  -58.1072   29.8345 H   0  0  0  0  0  0  0  0  0  0  0  0
   34.6009  -59.6882   28.5630 C   0  0  2  0  0  0  0  0  0  0  0  0
   35.2813  -59.9967   27.1933 C   0  0  0  0  0  0  0  0  0  0  0  0
   34.6988  -59.8942   26.1139 O   0  0  0  0  0  0  0  0  0  0  0  0
   36.5210  -60.5867   27.2597 N   0  0  0  0  0  0  0  0  0  0  0  0
   36.8364  -60.9143   28.1733 H   0  0  0  0  0  0  0  0  0  0  0  0
   37.3012  -60.9394   26.0779 C   0  0  2  0  0  0  0  0  0  0  0  0
   37.1293  -62.4383   25.8430 C   0  0  0  0  0  0  0  0  0  0  0  0
   37.6477  -63.0558   24.9150 O   0  0  0  0  0  0  0  0  0  0  0  0
   38.7654  -60.5317   26.2739 C   0  0  0  0  0  0  0  0  0  0  0  0
   39.3089  -59.6594   25.1419 C   0  0  2  0  0  0  0  0  0  0  0  0
   38.2651  -58.8640   24.3534 C   0  0  0  0  0  0  0  0  0  0  0  0
   38.9234  -58.6653   23.0002 C   0  0  0  0  0  0  0  0  0  0  0  0
   39.7116  -59.8500   22.8439 N   0  0  0  0  0  0  0  0  0  0  0  0
   39.9537  -60.4859   24.0439 C   0  0  0  0  0  0  0  0  0  0  0  0
   40.6110  -61.5026   24.1793 O   0  0  0  0  0  0  0  0  0  0  0  0
   40.0906  -60.2055   21.9748 H   0  0  0  0  0  0  0  0  0  0  0  0
   33.2854  -58.8976   28.3665 C   0  0  0  0  0  0  0  0  0  0  0  0
   31.9523  -59.6784   28.5403 C   0  0  0  0  0  0  0  0  0  0  0  0
   31.9288  -60.4041   29.9026 C   0  0  0  0  0  0  0  0  0  0  0  0
   31.7391  -59.4524   31.0818 C   0  0  0  0  0  0  0  0  0  0  0  0
   30.4893  -58.5946   30.9144 C   0  0  0  0  0  0  0  0  0  0  0  0
   30.4752  -57.8665   29.5741 C   0  0  0  0  0  0  0  0  0  0  0  0
   30.6777  -58.8294   28.4061 C   0  0  0  0  0  0  0  0  0  0  0  0
   36.7524  -58.9514   31.6790 C   0  0  1  0  0  0  0  0  0  0  0  0
   36.5378  -59.7055   32.9116 N   0  0  0  0  0  0  0  0  0  0  0  0
   35.3728  -59.6438   33.6045 C   0  0  0  0  0  0  0  0  0  0  0  0
   34.4140  -58.9620   33.2709 O   0  0  0  0  0  0  0  0  0  0  0  0
   37.2464  -60.3359   33.2559 H   0  0  0  0  0  0  0  0  0  0  0  0
   35.4365  -60.4731   34.6680 O   0  0  0  0  0  0  0  0  0  0  0  0
   34.7939  -61.7414   34.4865 C   0  0  0  0  0  0  0  0  0  0  0  0
   35.7720  -62.8653   34.7228 C   0  0  0  0  0  0  0  0  0  0  0  0
   36.0213  -63.8131   33.7198 C   0  0  0  0  0  0  0  0  0  0  0  0
   36.9215  -64.8567   33.9394 C   0  0  0  0  0  0  0  0  0  0  0  0
   37.5826  -64.9618   35.1615 C   0  0  0  0  0  0  0  0  0  0  0  0
   37.3442  -64.0246   36.1646 C   0  0  0  0  0  0  0  0  0  0  0  0
   36.4424  -62.9815   35.9478 C   0  0  0  0  0  0  0  0  0  0  0  0
   38.5784  -57.2125   31.7057 C   0  0  0  0  0  0  0  0  0  0  0  0
   38.2528  -58.6806   31.4165 C   0  0  1  0  0  0  0  0  0  0  0  0
   39.0194  -59.4873   32.3280 O   0  0  0  0  0  0  0  0  0  0  0  0
   39.9394  -60.4489   31.7878 C   0  0  0  0  0  0  0  0  0  0  0  0
   39.8347  -60.5110   30.2586 C   0  0  0  0  0  0  0  0  0  0  0  0
   39.4820  -61.7992   32.3605 C   0  0  0  0  0  0  0  0  0  0  0  0
   41.3874  -60.2008   32.2232 C   0  0  0  0  0  0  0  0  0  0  0  0
   34.3841  -60.6567   28.9628 H   0  0  0  0  0  0  0  0  0  0  0  0
   36.9599  -60.4147   25.2101 H   0  0  0  0  0  0  0  0  0  0  0  0
   36.5404  -62.9667   26.5055 H   0  0  0  0  0  0  0  0  0  0  0  0
   39.3597  -61.4195   26.3334 H   0  0  0  0  0  0  0  0  0  0  0  0
   38.8146  -59.9515   27.1716 H   0  0  0  0  0  0  0  0  0  0  0  0
   39.9717  -59.0150   25.6808 H   0  0  0  0  0  0  0  0  0  0  0  0
   38.0647  -57.9239   24.8235 H   0  0  0  0  0  0  0  0  0  0  0  0
   37.3205  -59.3626   24.2894 H   0  0  0  0  0  0  0  0  0  0  0  0
   39.5401  -57.7909   22.9980 H   0  0  0  0  0  0  0  0  0  0  0  0
   38.2191  -58.5218   22.2075 H   0  0  0  0  0  0  0  0  0  0  0  0
   33.2963  -58.4968   27.3745 H   0  0  0  0  0  0  0  0  0  0  0  0
   33.2821  -58.1699   29.1509 H   0  0  0  0  0  0  0  0  0  0  0  0
   31.9366  -60.3737   27.7272 H   0  0  0  0  0  0  0  0  0  0  0  0
   32.8561  -60.9229   30.0287 H   0  0  0  0  0  0  0  0  0  0  0  0
   31.0946  -61.0741   29.8943 H   0  0  0  0  0  0  0  0  0  0  0  0
   32.5933  -58.8118   31.1521 H   0  0  0  0  0  0  0  0  0  0  0  0
   31.6270  -60.0380   31.9703 H   0  0  0  0  0  0  0  0  0  0  0  0
   30.4584  -57.8707   31.7018 H   0  0  0  0  0  0  0  0  0  0  0  0
   29.6366  -59.2400   30.9505 H   0  0  0  0  0  0  0  0  0  0  0  0
   31.2614  -57.1407   29.5655 H   0  0  0  0  0  0  0  0  0  0  0  0
   29.5199  -57.3984   29.4588 H   0  0  0  0  0  0  0  0  0  0  0  0
   30.7409  -58.2602   27.5022 H   0  0  0  0  0  0  0  0  0  0  0  0
   29.8453  -59.5016   28.3980 H   0  0  0  0  0  0  0  0  0  0  0  0
   36.2983  -57.9844   31.7388 H   0  0  0  0  0  0  0  0  0  0  0  0
   34.4174  -61.8060   33.4870 H   0  0  0  0  0  0  0  0  0  0  0  0
   33.9907  -61.8271   35.1883 H   0  0  0  0  0  0  0  0  0  0  0  0
   35.5354  -63.7383   32.8124 H   0  0  0  0  0  0  0  0  0  0  0  0
   37.0976  -65.5509   33.1963 H   0  0  0  0  0  0  0  0  0  0  0  0
   38.2485  -65.7334   35.3236 H   0  0  0  0  0  0  0  0  0  0  0  0
   37.8351  -64.1018   37.0691 H   0  0  0  0  0  0  0  0  0  0  0  0
   36.2682  -62.2911   36.6948 H   0  0  0  0  0  0  0  0  0  0  0  0
   39.6173  -57.0346   31.5216 H   0  0  0  0  0  0  0  0  0  0  0  0
   38.3547  -56.9924   32.7286 H   0  0  0  0  0  0  0  0  0  0  0  0
   37.9907  -56.5847   31.0690 H   0  0  0  0  0  0  0  0  0  0  0  0
   38.4833  -58.9096   30.3970 H   0  0  0  0  0  0  0  0  0  0  0  0
   38.8170  -60.6846   29.9775 H   0  0  0  0  0  0  0  0  0  0  0  0
   40.4471  -61.3078   29.8912 H   0  0  0  0  0  0  0  0  0  0  0  0
   40.1670  -59.5839   29.8404 H   0  0  0  0  0  0  0  0  0  0  0  0
   38.4710  -61.9878   32.0651 H   0  0  0  0  0  0  0  0  0  0  0  0
   39.5425  -61.7726   33.4285 H   0  0  0  0  0  0  0  0  0  0  0  0
   40.1139  -62.5776   31.9868 H   0  0  0  0  0  0  0  0  0  0  0  0
   41.7217  -59.2627   31.8319 H   0  0  0  0  0  0  0  0  0  0  0  0
   42.0115  -60.9857   31.8500 H   0  0  0  0  0  0  0  0  0  0  0  0
   41.4401  -60.1807   33.2917 H   0  0  0  0  0  0  0  0  0  0  0  0
  1  2  2  0  0  0  0
  1  3  1  0  0  0  0
  3  5  1  0  0  0  0
  3  4  1  0  0  0  0
  5 21  1  0  0  0  0
  5  6  1  0  0  0  0
  5 48  1  1  0  0  0
  6  7  2  0  0  0  0
  6  8  1  0  0  0  0
  8 10  1  0  0  0  0
  8  9  1  0  0  0  0
 10 11  1  0  0  0  0
 10 13  1  0  0  0  0
 10 49  1  6  0  0  0
 11 12  2  0  0  0  0
 11 50  1  0  0  0  0
 13 14  1  0  0  0  0
 13 51  1  0  0  0  0
 13 52  1  0  0  0  0
 14 15  1  0  0  0  0
 14 53  1  1  0  0  0
 15 16  1  0  0  0  0
 15 54  1  0  0  0  0
 15 55  1  0  0  0  0
 16 17  1  0  0  0  0
 16 56  1  0  0  0  0
 16 57  1  0  0  0  0
 17 18  1  0  0  0  0
 17 20  1  0  0  0  0
 18 19  2  0  0  0  0
 18 14  1  0  0  0  0
 21 22  1  0  0  0  0
 21 58  1  0  0  0  0
 21 59  1  0  0  0  0
 22 23  1  0  0  0  0
 22 60  1  0  0  0  0
 23 24  1  0  0  0  0
 23 61  1  0  0  0  0
 23 62  1  0  0  0  0
 24 25  1  0  0  0  0
 24 63  1  0  0  0  0
 24 64  1  0  0  0  0
 25 26  1  0  0  0  0
 25 65  1  0  0  0  0
 25 66  1  0  0  0  0
 26 27  1  0  0  0  0
 26 67  1  0  0  0  0
 26 68  1  0  0  0  0
 27 22  1  0  0  0  0
 27 69  1  0  0  0  0
 27 70  1  0  0  0  0
 28 29  1  0  0  0  0
 28  1  1  0  0  0  0
 28 71  1  1  0  0  0
 29 30  1  0  0  0  0
 29 32  1  0  0  0  0
 30 31  2  0  0  0  0
 30 33  1  0  0  0  0
 33 34  1  0  0  0  0
 34 35  1  0  0  0  0
 34 72  1  0  0  0  0
 34 73  1  0  0  0  0
 35 36  2  0  0  0  0
 36 37  1  0  0  0  0
 36 74  1  0  0  0  0
 37 38  2  0  0  0  0
 37 75  1  0  0  0  0
 38 39  1  0  0  0  0
 38 76  1  0  0  0  0
 39 40  2  0  0  0  0
 39 77  1  0  0  0  0
 40 35  1  0  0  0  0
 40 78  1  0  0  0  0
 41 42  1  0  0  0  0
 41 79  1  0  0  0  0
 41 80  1  0  0  0  0
 41 81  1  0  0  0  0
 42 43  1  0  0  0  0
 42 28  1  0  0  0  0
 42 82  1  6  0  0  0
 43 44  1  0  0  0  0
 44 45  1  0  0  0  0
 44 46  1  0  0  0  0
 44 47  1  0  0  0  0
 45 83  1  0  0  0  0
 45 84  1  0  0  0  0
 45 85  1  0  0  0  0
 46 86  1  0  0  0  0
 46 87  1  0  0  0  0
 46 88  1  0  0  0  0
 47 89  1  0  0  0  0
 47 90  1  0  0  0  0
 47 91  1  0  0  0  0
M  END
>  <minimizedAffinity>
-7.53969

$$$$
