L1:P0C6U8:52582
     RDKit          3D

 91 93  0  0  0  0  0  0  0  0999 V2000
    0.3305   -1.7968   -2.9985 C   0  0  0  0  0  0  0  0  0  0  0  0
   -1.1119   -1.6345   -2.5106 C   0  0  1  0  0  0  0  0  0  0  0  0
   -1.7965   -2.8776   -2.7455 O   0  0  0  0  0  0  0  0  0  0  0  0
   -2.7187   -2.9575   -3.8437 C   0  0  0  0  0  0  0  0  0  0  0  0
   -3.9585   -2.0922   -3.5844 C   0  0  0  0  0  0  0  0  0  0  0  0
   -3.1554   -4.4299   -3.8874 C   0  0  0  0  0  0  0  0  0  0  0  0
   -2.0784   -2.5995   -5.1890 C   0  0  0  0  0  0  0  0  0  0  0  0
   -1.1275   -1.3563   -0.9888 C   0  0  2  0  0  0  0  0  0  0  0  0
   -2.4843   -1.3374   -0.4478 N   0  0  0  0  0  0  0  0  0  0  0  0
   -2.7434   -1.5626    0.8649 C   0  0  0  0  0  0  0  0  0  0  0  0
   -1.8832   -1.8013    1.7006 O   0  0  0  0  0  0  0  0  0  0  0  0
   -4.0687   -1.4375    1.0906 O   0  0  0  0  0  0  0  0  0  0  0  0
   -4.4623   -1.5481    2.4644 C   0  0  0  0  0  0  0  0  0  0  0  0
   -4.3429   -0.2122    3.1549 C   0  0  0  0  0  0  0  0  0  0  0  0
   -5.0563    0.8986    2.6818 C   0  0  0  0  0  0  0  0  0  0  0  0
   -4.9420    2.1364    3.3162 C   0  0  0  0  0  0  0  0  0  0  0  0
   -4.1163    2.2756    4.4300 C   0  0  0  0  0  0  0  0  0  0  0  0
   -3.4043    1.1782    4.9100 C   0  0  0  0  0  0  0  0  0  0  0  0
   -3.5154   -0.0600    4.2755 C   0  0  0  0  0  0  0  0  0  0  0  0
   -0.5299    0.0270   -0.6653 C   0  0  0  0  0  0  0  0  0  0  0  0
   -0.5392    0.9680   -1.4584 O   0  0  0  0  0  0  0  0  0  0  0  0
   -0.0301    0.1528    0.6138 N   0  0  0  0  0  0  0  0  0  0  0  0
    0.3877    1.4267    1.2113 C   0  0  1  0  0  0  0  0  0  0  0  0
    0.4516    1.3398    2.7548 C   0  0  0  0  0  0  0  0  0  0  0  0
    1.6527    0.5726    3.3760 C   0  0  0  0  0  0  0  0  0  0  0  0
    1.8282    0.9606    4.8598 C   0  0  0  0  0  0  0  0  0  0  0  0
    0.7469    0.3701    5.7622 C   0  0  0  0  0  0  0  0  0  0  0  0
    0.6602   -1.1454    5.6153 C   0  0  0  0  0  0  0  0  0  0  0  0
    0.4929   -1.5664    4.1588 C   0  0  0  0  0  0  0  0  0  0  0  0
    1.5740   -0.9589    3.2675 C   0  0  0  0  0  0  0  0  0  0  0  0
    1.6787    2.0832    0.6313 C   0  0  0  0  0  0  0  0  0  0  0  0
    2.4282    2.7975    1.2968 O   0  0  0  0  0  0  0  0  0  0  0  0
    1.8398    1.9870   -0.7304 N   0  0  0  0  0  0  0  0  0  0  0  0
    2.9897    2.5397   -1.4389 C   0  0  2  0  0  0  0  0  0  0  0  0
    2.7073    4.0187   -1.6924 C   0  0  0  0  0  0  0  0  0  0  0  0
    3.3388    4.7167   -2.4830 O   0  0  0  0  0  0  0  0  0  0  0  0
    3.2402    1.7519   -2.7293 C   0  0  0  0  0  0  0  0  0  0  0  0
    4.7239    1.5751   -3.0538 C   0  0  2  0  0  0  0  0  0  0  0  0
    5.4502    2.8262   -3.5551 C   0  0  0  0  0  0  0  0  0  0  0  0
    6.5931    2.2622   -4.3795 C   0  0  0  0  0  0  0  0  0  0  0  0
    6.0433    1.0542   -4.9158 N   0  0  0  0  0  0  0  0  0  0  0  0
    4.9450    0.6132   -4.2071 C   0  0  0  0  0  0  0  0  0  0  0  0
    4.3105   -0.3972   -4.4532 O   0  0  0  0  0  0  0  0  0  0  0  0
    0.3666   -2.0213   -4.0676 H   0  0  0  0  0  0  0  0  0  0  0  0
    0.9223   -0.8934   -2.8291 H   0  0  0  0  0  0  0  0  0  0  0  0
    0.8207   -2.6349   -2.4905 H   0  0  0  0  0  0  0  0  0  0  0  0
   -1.5927   -0.8104   -3.0474 H   0  0  0  0  0  0  0  0  0  0  0  0
   -4.7145   -2.2347   -4.3643 H   0  0  0  0  0  0  0  0  0  0  0  0
   -3.7129   -1.0263   -3.5525 H   0  0  0  0  0  0  0  0  0  0  0  0
   -4.4122   -2.3412   -2.6188 H   0  0  0  0  0  0  0  0  0  0  0  0
   -3.8805   -4.6168   -4.6865 H   0  0  0  0  0  0  0  0  0  0  0  0
   -2.2917   -5.0870   -4.0432 H   0  0  0  0  0  0  0  0  0  0  0  0
   -3.6051   -4.7322   -2.9344 H   0  0  0  0  0  0  0  0  0  0  0  0
   -1.1831   -3.2044   -5.3692 H   0  0  0  0  0  0  0  0  0  0  0  0
   -2.7745   -2.7665   -6.0184 H   0  0  0  0  0  0  0  0  0  0  0  0
   -1.7701   -1.5497   -5.2251 H   0  0  0  0  0  0  0  0  0  0  0  0
   -0.5629   -2.1339   -0.4591 H   0  0  0  0  0  0  0  0  0  0  0  0
   -3.2681   -1.1065   -1.0397 H   0  0  0  0  0  0  0  0  0  0  0  0
   -5.5118   -1.8638    2.4819 H   0  0  0  0  0  0  0  0  0  0  0  0
   -3.8960   -2.3349    2.9783 H   0  0  0  0  0  0  0  0  0  0  0  0
   -5.7020    0.8032    1.8114 H   0  0  0  0  0  0  0  0  0  0  0  0
   -5.4974    2.9923    2.9414 H   0  0  0  0  0  0  0  0  0  0  0  0
   -4.0279    3.2395    4.9245 H   0  0  0  0  0  0  0  0  0  0  0  0
   -2.7603    1.2870    5.7788 H   0  0  0  0  0  0  0  0  0  0  0  0
   -2.9451   -0.9044    4.6574 H   0  0  0  0  0  0  0  0  0  0  0  0
   -0.2772   -0.6018    1.2543 H   0  0  0  0  0  0  0  0  0  0  0  0
   -0.4163    2.1342    0.9627 H   0  0  0  0  0  0  0  0  0  0  0  0
   -0.4935    0.9261    3.1252 H   0  0  0  0  0  0  0  0  0  0  0  0
    0.4883    2.3734    3.1262 H   0  0  0  0  0  0  0  0  0  0  0  0
    2.5687    0.8847    2.8627 H   0  0  0  0  0  0  0  0  0  0  0  0
    2.8075    0.6029    5.2045 H   0  0  0  0  0  0  0  0  0  0  0  0
    1.8454    2.0514    4.9699 H   0  0  0  0  0  0  0  0  0  0  0  0
   -0.2231    0.8199    5.5239 H   0  0  0  0  0  0  0  0  0  0  0  0
    0.9628    0.6238    6.8063 H   0  0  0  0  0  0  0  0  0  0  0  0
    1.5715   -1.6014    6.0216 H   0  0  0  0  0  0  0  0  0  0  0  0
   -0.1781   -1.5270    6.2091 H   0  0  0  0  0  0  0  0  0  0  0  0
   -0.4974   -1.2630    3.8078 H   0  0  0  0  0  0  0  0  0  0  0  0
    0.5315   -2.6594    4.0881 H   0  0  0  0  0  0  0  0  0  0  0  0
    1.4369   -1.2798    2.2321 H   0  0  0  0  0  0  0  0  0  0  0  0
    2.5431   -1.3760    3.5741 H   0  0  0  0  0  0  0  0  0  0  0  0
    1.0494    1.6369   -1.2728 H   0  0  0  0  0  0  0  0  0  0  0  0
    3.8481    2.4853   -0.7595 H   0  0  0  0  0  0  0  0  0  0  0  0
    1.9487    4.4845   -1.0395 H   0  0  0  0  0  0  0  0  0  0  0  0
    2.7177    2.2118   -3.5782 H   0  0  0  0  0  0  0  0  0  0  0  0
    2.8046    0.7489   -2.6259 H   0  0  0  0  0  0  0  0  0  0  0  0
    5.2544    1.1546   -2.1893 H   0  0  0  0  0  0  0  0  0  0  0  0
    4.7941    3.4157   -4.2073 H   0  0  0  0  0  0  0  0  0  0  0  0
    5.8023    3.4706   -2.7447 H   0  0  0  0  0  0  0  0  0  0  0  0
    7.4571    2.0011   -3.7608 H   0  0  0  0  0  0  0  0  0  0  0  0
    6.9031    2.9272   -5.1892 H   0  0  0  0  0  0  0  0  0  0  0  0
    6.4011    0.5347   -5.7078 H   0  0  0  0  0  0  0  0  0  0  0  0
  1  2  1  0
  2  3  1  0
  3  4  1  0
  4  5  1  0
  4  6  1  0
  4  7  1  0
  2  8  1  0
  8  9  1  0
  9 10  1  0
 10 11  2  0
 10 12  1  0
 12 13  1  0
 13 14  1  0
 14 15  2  0
 15 16  1  0
 16 17  2  0
 17 18  1  0
 18 19  2  0
  8 20  1  0
 20 21  2  0
 20 22  1  0
 22 23  1  0
 23 24  1  0
 24 25  1  0
 25 26  1  0
 26 27  1  0
 27 28  1  0
 28 29  1  0
 29 30  1  0
 23 31  1  0
 31 32  2  0
 31 33  1  0
 33 34  1  0
 34 35  1  0
 35 36  2  0
 34 37  1  0
 37 38  1  0
 38 39  1  0
 39 40  1  0
 40 41  1  0
 41 42  1  0
 42 43  2  0
 19 14  1  0
 30 25  1  0
 42 38  1  0
  1 44  1  0
  1 45  1  0
  1 46  1  0
  2 47  1  6
  5 48  1  0
  5 49  1  0
  5 50  1  0
  6 51  1  0
  6 52  1  0
  6 53  1  0
  7 54  1  0
  7 55  1  0
  7 56  1  0
  8 57  1  1
  9 58  1  0
 13 59  1  0
 13 60  1  0
 15 61  1  0
 16 62  1  0
 17 63  1  0
 18 64  1  0
 19 65  1  0
 22 66  1  0
 23 67  1  1
 24 68  1  0
 24 69  1  0
 25 70  1  0
 26 71  1  0
 26 72  1  0
 27 73  1  0
 27 74  1  0
 28 75  1  0
 28 76  1  0
 29 77  1  0
 29 78  1  0
 30 79  1  0
 30 80  1  0
 33 81  1  0
 34 82  1  1
 35 83  1  0
 37 84  1  0
 37 85  1  0
 38 86  1  1
 39 87  1  0
 39 88  1  0
 40 89  1  0
 40 90  1  0
 41 91  1  0
M  END
>  <mol_id>  (1) 
52582

>  <source_index>  (1) 
4

>  <layer>  (1) 
L1

>  <uniprot>  (1) 
P0C6U8

>  <paff>  (1) 
7.2756999999999996

>  <smiles>  (1) 
C[C@@H](OC(C)(C)C)[C@H](NC(=O)OCc1ccccc1)C(=O)N[C@@H](CC1CCCCC1)C(=O)N[C@@H](C[C@@H]1CCNC1=O)C=O |r|

$$$$
