L1:P0C6U8:56675
     RDKit          3D

 67 69  0  0  0  0  0  0  0  0999 V2000
    1.9375    3.3563   -2.3143 C   0  0  0  0  0  0  0  0  0  0  0  0
    1.0493    2.3122   -1.6023 C   0  0  0  0  0  0  0  0  0  0  0  0
   -0.4102    2.5485   -2.0356 C   0  0  0  0  0  0  0  0  0  0  0  0
    1.1517    2.5663   -0.0850 C   0  0  0  0  0  0  0  0  0  0  0  0
    1.5712    0.8791   -1.9395 C   0  0  2  0  0  0  0  0  0  0  0  0
    1.5441    0.5917   -3.3742 N   0  0  0  0  0  0  0  0  0  0  0  0
    2.5137   -0.1948   -3.9857 C   0  0  0  0  0  0  0  0  0  0  0  0
    3.4885   -0.6132   -3.3580 O   0  0  0  0  0  0  0  0  0  0  0  0
    2.2697   -0.4824   -5.4854 C   0  0  0  0  0  0  0  0  0  0  0  0
    3.2130    0.0874   -6.2831 F   0  0  0  0  0  0  0  0  0  0  0  0
    1.0660    0.0075   -5.9055 F   0  0  0  0  0  0  0  0  0  0  0  0
    2.2624   -1.8126   -5.7686 F   0  0  0  0  0  0  0  0  0  0  0  0
    0.7387   -0.2484   -1.2757 C   0  0  0  0  0  0  0  0  0  0  0  0
   -0.3840   -0.5369   -1.7108 O   0  0  0  0  0  0  0  0  0  0  0  0
    1.2565   -0.9120   -0.1862 N   0  0  0  0  0  0  0  0  0  0  0  0
    2.6323   -0.8287    0.2951 C   0  0  0  0  0  0  0  0  0  0  0  0
    2.8054   -2.0106    1.1929 C   0  0  1  0  0  0  0  0  0  0  0  0
    1.4987   -2.7272    1.2979 C   0  0  1  0  0  0  0  0  0  0  0  0
    0.4794   -1.9699    0.4819 C   0  0  1  0  0  0  0  0  0  0  0  0
   -0.6299   -1.3242    1.3547 C   0  0  0  0  0  0  0  0  0  0  0  0
   -0.5699   -1.2189    2.5784 O   0  0  0  0  0  0  0  0  0  0  0  0
   -1.7040   -0.8400    0.6398 N   0  0  0  0  0  0  0  0  0  0  0  0
   -2.8350   -0.1797    1.2835 C   0  0  2  0  0  0  0  0  0  0  0  0
   -4.0343   -0.3017    0.4267 C   0  0  0  0  0  0  0  0  0  0  0  0
   -4.9727   -0.4408   -0.2429 N   0  0  0  0  0  0  0  0  0  0  0  0
   -2.4740    1.2864    1.5943 C   0  0  0  0  0  0  0  0  0  0  0  0
   -3.3596    2.0438    2.5938 C   0  0  2  0  0  0  0  0  0  0  0  0
   -3.6571    1.3326    3.9200 C   0  0  0  0  0  0  0  0  0  0  0  0
   -5.0664    0.7864    3.7730 C   0  0  0  0  0  0  0  0  0  0  0  0
   -5.6514    1.6051    2.7579 N   0  0  0  0  0  0  0  0  0  0  0  0
   -4.7341    2.3368    2.0423 C   0  0  0  0  0  0  0  0  0  0  0  0
   -4.9852    3.0656    1.1003 O   0  0  0  0  0  0  0  0  0  0  0  0
    2.7069   -3.4520    0.7149 C   0  0  0  0  0  0  0  0  0  0  0  0
    2.7669   -3.7752   -0.7577 C   0  0  0  0  0  0  0  0  0  0  0  0
    3.3598   -4.5045    1.5787 C   0  0  0  0  0  0  0  0  0  0  0  0
    2.9913    3.2306   -2.0413 H   0  0  0  0  0  0  0  0  0  0  0  0
    1.8608    3.2752   -3.4041 H   0  0  0  0  0  0  0  0  0  0  0  0
    1.6449    4.3770   -2.0420 H   0  0  0  0  0  0  0  0  0  0  0  0
   -0.7201    3.5771   -1.8154 H   0  0  0  0  0  0  0  0  0  0  0  0
   -0.5471    2.3952   -3.1106 H   0  0  0  0  0  0  0  0  0  0  0  0
   -1.1043    1.8888   -1.5068 H   0  0  0  0  0  0  0  0  0  0  0  0
    2.1815    2.4443    0.2677 H   0  0  0  0  0  0  0  0  0  0  0  0
    0.5158    1.8804    0.4834 H   0  0  0  0  0  0  0  0  0  0  0  0
    0.8368    3.5855    0.1675 H   0  0  0  0  0  0  0  0  0  0  0  0
    2.6121    0.8182   -1.6138 H   0  0  0  0  0  0  0  0  0  0  0  0
    0.6807    0.7596   -3.8854 H   0  0  0  0  0  0  0  0  0  0  0  0
    3.3401   -0.8556   -0.5370 H   0  0  0  0  0  0  0  0  0  0  0  0
    2.7474    0.1095    0.8453 H   0  0  0  0  0  0  0  0  0  0  0  0
    3.3616   -1.7863    2.0930 H   0  0  0  0  0  0  0  0  0  0  0  0
    1.1368   -3.0455    2.2674 H   0  0  0  0  0  0  0  0  0  0  0  0
    0.0092   -2.6208   -0.2642 H   0  0  0  0  0  0  0  0  0  0  0  0
   -1.6369   -0.8396   -0.3818 H   0  0  0  0  0  0  0  0  0  0  0  0
   -3.0172   -0.7202    2.2181 H   0  0  0  0  0  0  0  0  0  0  0  0
   -2.4300    1.8541    0.6546 H   0  0  0  0  0  0  0  0  0  0  0  0
   -1.4553    1.3159    2.0037 H   0  0  0  0  0  0  0  0  0  0  0  0
   -2.8809    3.0075    2.8097 H   0  0  0  0  0  0  0  0  0  0  0  0
   -3.6475    2.0755    4.7284 H   0  0  0  0  0  0  0  0  0  0  0  0
   -2.9269    0.5636    4.1885 H   0  0  0  0  0  0  0  0  0  0  0  0
   -5.0757   -0.2506    3.4262 H   0  0  0  0  0  0  0  0  0  0  0  0
   -5.6479    0.8642    4.6953 H   0  0  0  0  0  0  0  0  0  0  0  0
   -6.6331    1.6227    2.5029 H   0  0  0  0  0  0  0  0  0  0  0  0
    2.2769   -3.0344   -1.3936 H   0  0  0  0  0  0  0  0  0  0  0  0
    2.2835   -4.7392   -0.9494 H   0  0  0  0  0  0  0  0  0  0  0  0
    3.8103   -3.8473   -1.0827 H   0  0  0  0  0  0  0  0  0  0  0  0
    2.8632   -5.4707    1.4416 H   0  0  0  0  0  0  0  0  0  0  0  0
    3.3104   -4.2504    2.6431 H   0  0  0  0  0  0  0  0  0  0  0  0
    4.4152   -4.6164    1.3095 H   0  0  0  0  0  0  0  0  0  0  0  0
  1  2  1  0
  2  3  1  0
  2  4  1  0
  2  5  1  0
  5  6  1  0
  6  7  1  0
  7  8  2  0
  7  9  1  0
  9 10  1  0
  9 11  1  0
  9 12  1  0
  5 13  1  0
 13 14  2  0
 13 15  1  0
 15 16  1  0
 16 17  1  0
 17 18  1  0
 18 19  1  0
 19 20  1  0
 20 21  2  0
 20 22  1  0
 22 23  1  0
 23 24  1  0
 24 25  3  0
 23 26  1  0
 26 27  1  0
 27 28  1  0
 28 29  1  0
 29 30  1  0
 30 31  1  0
 31 32  2  0
 18 33  1  0
 33 34  1  0
 33 35  1  0
 19 15  1  0
 31 27  1  0
 33 17  1  0
  1 36  1  0
  1 37  1  0
  1 38  1  0
  3 39  1  0
  3 40  1  0
  3 41  1  0
  4 42  1  0
  4 43  1  0
  4 44  1  0
  5 45  1  1
  6 46  1  0
 16 47  1  0
 16 48  1  0
 17 49  1  1
 18 50  1  1
 19 51  1  6
 22 52  1  0
 23 53  1  1
 26 54  1  0
 26 55  1  0
 27 56  1  1
 28 57  1  0
 28 58  1  0
 29 59  1  0
 29 60  1  0
 30 61  1  0
 34 62  1  0
 34 63  1  0
 34 64  1  0
 35 65  1  0
 35 66  1  0
 35 67  1  0
M  END
>  <mol_id>  (1) 
56675

>  <source_index>  (1) 
5

>  <layer>  (1) 
L1

>  <uniprot>  (1) 
P0C6U8

>  <paff>  (1) 
7.6989999999999998

>  <smiles>  (1) 
CC1([C@@H]2[C@H]1[C@H](N(C2)C(=O)[C@H](C(C)(C)C)NC(=O)C(F)(F)F)C(=O)N[C@@H](C[C@@H]3CCNC3=O)C#N)C

$$$$
