L1:P0C6U8:56675


 38 40  0  0  0  0  0  0  0  0999 V2000
   34.4627  -60.2824   28.3757 C   0  0  0  0  0  0  0  0  0  0  0  0
   34.7644  -59.1748   27.9116 O   0  0  0  0  0  0  0  0  0  0  0  0
   35.2707  -60.8913   29.3094 N   0  0  0  0  0  0  0  0  0  0  0  0
   34.9353  -62.0778   30.0912 C   0  0  0  0  0  0  0  0  0  0  0  0
   35.9104  -62.0893   31.2235 C   0  0  0  0  0  0  0  0  0  0  0  0
   36.8658  -60.9548   31.0438 C   0  0  0  0  0  0  0  0  0  0  0  0
   36.5094  -60.2372   29.7646 C   0  0  0  0  0  0  0  0  0  0  0  0
   35.9807  -61.0007   32.2845 C   0  0  0  0  0  0  0  0  0  0  0  0
   34.8460  -60.0201   32.4506 C   0  0  0  0  0  0  0  0  0  0  0  0
   36.6465  -61.3618   33.5909 C   0  0  0  0  0  0  0  0  0  0  0  0
   37.6016  -60.3795   28.6710 C   0  0  0  0  0  0  0  0  0  0  0  0
   38.4435  -61.2756   28.6505 O   0  0  0  0  0  0  0  0  0  0  0  0
   37.5433  -59.4205   27.6830 N   0  0  0  0  0  0  0  0  0  0  0  0
   36.7435  -58.7814   27.6842 H   0  0  0  0  0  0  0  0  0  0  0  0
   38.4731  -59.4022   26.5584 C   0  0  0  0  0  0  0  0  0  0  0  0
   39.4952  -58.3557   26.7763 C   0  0  0  0  0  0  0  0  0  0  0  0
   40.2673  -57.5039   26.9392 N   0  0  0  0  0  0  0  0  0  0  0  0
   37.6945  -59.2069   25.2423 C   0  0  0  0  0  0  0  0  0  0  0  0
   38.0657  -60.1037   24.0528 C   0  0  0  0  0  0  0  0  0  0  0  0
   38.6103  -61.4974   24.3905 C   0  0  0  0  0  0  0  0  0  0  0  0
   40.1139  -61.3947   24.2043 C   0  0  0  0  0  0  0  0  0  0  0  0
   40.2784  -60.2868   23.3165 N   0  0  0  0  0  0  0  0  0  0  0  0
   39.1544  -59.5053   23.1949 C   0  0  0  0  0  0  0  0  0  0  0  0
   39.0660  -58.4843   22.5381 O   0  0  0  0  0  0  0  0  0  0  0  0
   41.1418  -60.0189   22.8561 H   0  0  0  0  0  0  0  0  0  0  0  0
   33.1795  -61.0101   27.8974 C   0  0  0  0  0  0  0  0  0  0  0  0
   31.9224  -61.5306   25.7620 C   0  0  0  0  0  0  0  0  0  0  0  0
   33.3022  -61.5931   26.4535 C   0  0  0  0  0  0  0  0  0  0  0  0
   34.3149  -60.8361   25.5730 C   0  0  0  0  0  0  0  0  0  0  0  0
   33.7276  -63.0737   26.5180 C   0  0  0  0  0  0  0  0  0  0  0  0
   32.1038  -60.0253   28.0188 N   0  0  0  0  0  0  0  0  0  0  0  0
   31.4750  -59.7680   29.2317 C   0  0  0  0  0  0  0  0  0  0  0  0
   31.7393  -60.4231   30.2418 O   0  0  0  0  0  0  0  0  0  0  0  0
   31.9808  -59.3478   27.2699 H   0  0  0  0  0  0  0  0  0  0  0  0
   30.4365  -58.6228   29.1979 C   0  0  0  0  0  0  0  0  0  0  0  0
   29.7973  -58.5372   28.0000 F   0  0  0  0  0  0  0  0  0  0  0  0
   31.0183  -57.4054   29.4095 F   0  0  0  0  0  0  0  0  0  0  0  0
   29.4756  -58.7595   30.1507 F   0  0  0  0  0  0  0  0  0  0  0  0
 27 28  1  0  0  0
 28 29  1  0  0  0
 28 30  1  0  0  0
 28 26  1  0  0  0
 26 31  1  0  0  0
 31 32  1  0  0  0
 32 33  2  0  0  0
 32 35  1  0  0  0
 35 36  1  0  0  0
 35 37  1  0  0  0
 35 38  1  0  0  0
 26  1  1  0  0  0
  1  2  2  0  0  0
  1  3  1  0  0  0
  3  4  1  0  0  0
  4  5  1  0  0  0
  5  6  1  0  0  0
  6  7  1  0  0  0
  7 11  1  0  0  0
 11 12  2  0  0  0
 11 13  1  0  0  0
 13 15  1  0  0  0
 15 16  1  0  0  0
 16 17  3  0  0  0
 15 18  1  0  0  0
 18 19  1  0  0  0
 19 20  1  0  0  0
 20 21  1  0  0  0
 21 22  1  0  0  0
 22 23  1  0  0  0
 23 24  2  0  0  0
  6  8  1  0  0  0
  8  9  1  0  0  0
  8 10  1  0  0  0
  7  3  1  0  0  0
 23 19  1  0  0  0
  8  5  1  0  0  0
 31 34  1  0  0  0
 13 14  1  0  0  0
 22 25  1  0  0  0
M  END
> <minimizedAffinity>
-7.90287

$$$$
