L1:P0C6U8:60488
 OpenBabel09212617433D

 64 67  0  0  0  0  0  0  0  0999 V2000
   39.2600  -58.8495   23.4402 C   0  0  0  0  0  0  0  0  0  0  0  0
   38.5333  -59.8901   24.2586 C   0  0  0  0  0  0  0  0  0  0  0  0
   38.6913  -61.2869   23.7124 C   0  0  0  0  0  0  0  0  0  0  0  0
   38.4602  -59.6575   25.7637 C   0  0  2  0  0  0  0  0  0  0  0  0
   38.1730  -60.7362   26.7854 C   0  0  2  0  0  0  0  0  0  0  0  0
   36.8332  -61.2221   26.4174 N   0  0  0  0  0  0  0  0  0  0  0  0
   36.3627  -62.4251   26.9129 C   0  0  0  0  0  0  0  0  0  0  0  0
   37.0085  -63.0629   27.7463 O   0  0  0  0  0  0  0  0  0  0  0  0
   36.1833  -60.4111   25.3953 C   0  0  0  0  0  0  0  0  0  0  0  0
   37.2356  -59.4602   24.9277 C   0  0  2  0  0  0  0  0  0  0  0  0
   38.2786  -60.1704   28.2278 C   0  0  0  0  0  0  0  0  0  0  0  0
   37.8003  -59.0790   28.5385 O   0  0  0  0  0  0  0  0  0  0  0  0
   38.8842  -60.9840   29.1599 N   0  0  0  0  0  0  0  0  0  0  0  0
   39.1189  -61.9268   28.8531 H   0  0  0  0  0  0  0  0  0  0  0  0
   38.9647  -60.6316   30.5687 C   0  0  2  0  0  0  0  0  0  0  0  0
   40.4075  -60.5787   31.0703 C   0  0  0  0  0  0  0  0  0  0  0  0
   41.3092  -59.9858   30.4784 O   0  0  0  0  0  0  0  0  0  0  0  0
   38.0610  -61.4946   31.4687 C   0  0  0  0  0  0  0  0  0  0  0  0
   36.7645  -60.9027   32.0369 C   0  0  2  0  0  0  0  0  0  0  0  0
   36.4224  -59.4435   31.7242 C   0  0  0  0  0  0  0  0  0  0  0  0
   35.4050  -59.0967   32.7997 C   0  0  0  0  0  0  0  0  0  0  0  0
   35.8447  -59.8739   33.9203 N   0  0  0  0  0  0  0  0  0  0  0  0
   36.6635  -60.9162   33.5468 C   0  0  0  0  0  0  0  0  0  0  0  0
   37.2100  -61.7003   34.3047 O   0  0  0  0  0  0  0  0  0  0  0  0
   35.6447  -59.6641   34.8932 H   0  0  0  0  0  0  0  0  0  0  0  0
   35.0077  -62.9097   26.3759 C   0  0  0  0  0  0  0  0  0  0  0  0
   34.0764  -63.0868   27.4385 O   0  0  0  0  0  0  0  0  0  0  0  0
   33.5614  -61.9593   28.0120 C   0  0  0  0  0  0  0  0  0  0  0  0
   32.9994  -60.8763   27.3387 C   0  0  0  0  0  0  0  0  0  0  0  0
   32.5198  -59.7682   28.0528 C   0  0  0  0  0  0  0  0  0  0  0  0
   32.6005  -59.7346   29.4452 C   0  0  0  0  0  0  0  0  0  0  0  0
   33.1677  -60.8211   30.1146 C   0  0  0  0  0  0  0  0  0  0  0  0
   33.6459  -61.9238   29.4035 C   0  0  0  0  0  0  0  0  0  0  0  0
   32.1756  -58.7268   30.2615 O   0  0  0  0  0  0  0  0  0  0  0  0
   30.8121  -58.7179   30.6470 C   0  0  0  0  0  0  0  0  0  0  0  0
   30.6829  -58.8616   31.9836 F   0  0  0  0  0  0  0  0  0  0  0  0
   30.1854  -59.7560   30.0507 F   0  0  0  0  0  0  0  0  0  0  0  0
   30.2020  -57.5784   30.2559 F   0  0  0  0  0  0  0  0  0  0  0  0
   40.1496  -59.2776   23.0277 H   0  0  0  0  0  0  0  0  0  0  0  0
   39.5197  -58.0212   24.0658 H   0  0  0  0  0  0  0  0  0  0  0  0
   38.6255  -58.5124   22.6473 H   0  0  0  0  0  0  0  0  0  0  0  0
   39.6660  -61.3943   23.2843 H   0  0  0  0  0  0  0  0  0  0  0  0
   37.9503  -61.4618   22.9606 H   0  0  0  0  0  0  0  0  0  0  0  0
   38.5697  -61.9956   24.5048 H   0  0  0  0  0  0  0  0  0  0  0  0
   39.1501  -59.1306   26.3892 H   0  0  0  0  0  0  0  0  0  0  0  0
   38.8768  -61.5421   26.7815 H   0  0  0  0  0  0  0  0  0  0  0  0
   35.3529  -59.8786   25.8098 H   0  0  0  0  0  0  0  0  0  0  0  0
   35.7970  -61.0074   24.5953 H   0  0  0  0  0  0  0  0  0  0  0  0
   36.5424  -58.7064   24.6176 H   0  0  0  0  0  0  0  0  0  0  0  0
   38.5743  -59.6380   30.6411 H   0  0  0  0  0  0  0  0  0  0  0  0
   40.6376  -61.0653   31.9508 H   0  0  0  0  0  0  0  0  0  0  0  0
   38.6556  -61.7986   32.3047 H   0  0  0  0  0  0  0  0  0  0  0  0
   37.7154  -62.2636   30.8098 H   0  0  0  0  0  0  0  0  0  0  0  0
   36.1002  -61.5712   31.5303 H   0  0  0  0  0  0  0  0  0  0  0  0
   35.9973  -59.3484   30.7469 H   0  0  0  0  0  0  0  0  0  0  0  0
   37.2765  -58.7989   31.7261 H   0  0  0  0  0  0  0  0  0  0  0  0
   34.4172  -59.3783   32.5000 H   0  0  0  0  0  0  0  0  0  0  0  0
   35.3515  -58.0485   33.0079 H   0  0  0  0  0  0  0  0  0  0  0  0
   35.1442  -63.8426   25.8700 H   0  0  0  0  0  0  0  0  0  0  0  0
   34.6228  -62.1732   25.7019 H   0  0  0  0  0  0  0  0  0  0  0  0
   32.9357  -60.8896   26.3088 H   0  0  0  0  0  0  0  0  0  0  0  0
   32.1042  -58.9720   27.5444 H   0  0  0  0  0  0  0  0  0  0  0  0
   33.2341  -60.8090   31.1444 H   0  0  0  0  0  0  0  0  0  0  0  0
   34.0649  -62.7183   29.9116 H   0  0  0  0  0  0  0  0  0  0  0  0
  1  2  1  0  0  0  0
  1 39  1  0  0  0  0
  1 40  1  0  0  0  0
  1 41  1  0  0  0  0
  2  3  1  0  0  0  0
  2  4  1  0  0  0  0
  3 42  1  0  0  0  0
  3 43  1  0  0  0  0
  3 44  1  0  0  0  0
  4  5  1  0  0  0  0
  4 45  1  1  0  0  0
  5 11  1  0  0  0  0
  5  6  1  0  0  0  0
  5 46  1  6  0  0  0
  6  7  1  0  0  0  0
  6  9  1  0  0  0  0
  7  8  2  0  0  0  0
  7 26  1  0  0  0  0
  9 10  1  0  0  0  0
  9 47  1  0  0  0  0
  9 48  1  0  0  0  0
 10  2  1  0  0  0  0
 10  4  1  0  0  0  0
 10 49  1  6  0  0  0
 11 12  2  0  0  0  0
 11 13  1  0  0  0  0
 13 15  1  0  0  0  0
 13 14  1  0  0  0  0
 15 16  1  0  0  0  0
 15 18  1  0  0  0  0
 15 50  1  1  0  0  0
 16 17  2  0  0  0  0
 16 51  1  0  0  0  0
 18 19  1  0  0  0  0
 18 52  1  0  0  0  0
 18 53  1  0  0  0  0
 19 20  1  0  0  0  0
 19 54  1  6  0  0  0
 20 21  1  0  0  0  0
 20 55  1  0  0  0  0
 20 56  1  0  0  0  0
 21 22  1  0  0  0  0
 21 57  1  0  0  0  0
 21 58  1  0  0  0  0
 22 23  1  0  0  0  0
 22 25  1  0  0  0  0
 23 24  2  0  0  0  0
 23 19  1  0  0  0  0
 26 27  1  0  0  0  0
 26 59  1  0  0  0  0
 26 60  1  0  0  0  0
 27 28  1  0  0  0  0
 28 29  2  0  0  0  0
 29 30  1  0  0  0  0
 29 61  1  0  0  0  0
 30 31  2  0  0  0  0
 30 62  1  0  0  0  0
 31 34  1  0  0  0  0
 31 32  1  0  0  0  0
 32 33  2  0  0  0  0
 32 63  1  0  0  0  0
 33 28  1  0  0  0  0
 33 64  1  0  0  0  0
 34 35  1  0  0  0  0
 35 36  1  0  0  0  0
 35 37  1  0  0  0  0
 35 38  1  0  0  0  0
M  END
>  <minimizedAffinity>
-7.75724

$$$$
