L1:P0C6U8:60488


 38 41  0  0  0  0  0  0  0  0999 V2000
   39.2600  -58.8495   23.4402 C   0  0  0  0  0  0  0  0  0  0  0  0
   38.5333  -59.8901   24.2586 C   0  0  0  0  0  0  0  0  0  0  0  0
   38.6913  -61.2869   23.7124 C   0  0  0  0  0  0  0  0  0  0  0  0
   38.4602  -59.6575   25.7637 C   0  0  0  0  0  0  0  0  0  0  0  0
   38.1730  -60.7362   26.7854 C   0  0  0  0  0  0  0  0  0  0  0  0
   36.8332  -61.2221   26.4174 N   0  0  0  0  0  0  0  0  0  0  0  0
   36.3627  -62.4251   26.9129 C   0  0  0  0  0  0  0  0  0  0  0  0
   37.0085  -63.0629   27.7463 O   0  0  0  0  0  0  0  0  0  0  0  0
   36.1833  -60.4111   25.3953 C   0  0  0  0  0  0  0  0  0  0  0  0
   37.2356  -59.4602   24.9277 C   0  0  0  0  0  0  0  0  0  0  0  0
   38.2786  -60.1704   28.2278 C   0  0  0  0  0  0  0  0  0  0  0  0
   37.8003  -59.0790   28.5385 O   0  0  0  0  0  0  0  0  0  0  0  0
   38.8842  -60.9840   29.1599 N   0  0  0  0  0  0  0  0  0  0  0  0
   39.1189  -61.9268   28.8531 H   0  0  0  0  0  0  0  0  0  0  0  0
   38.9647  -60.6316   30.5687 C   0  0  0  0  0  0  0  0  0  0  0  0
   40.4075  -60.5787   31.0703 C   0  0  0  0  0  0  0  0  0  0  0  0
   41.3092  -59.9858   30.4784 O   0  0  0  0  0  0  0  0  0  0  0  0
   38.0610  -61.4946   31.4687 C   0  0  0  0  0  0  0  0  0  0  0  0
   36.7645  -60.9027   32.0369 C   0  0  0  0  0  0  0  0  0  0  0  0
   36.4224  -59.4435   31.7242 C   0  0  0  0  0  0  0  0  0  0  0  0
   35.4050  -59.0967   32.7997 C   0  0  0  0  0  0  0  0  0  0  0  0
   35.8447  -59.8739   33.9203 N   0  0  0  0  0  0  0  0  0  0  0  0
   36.6635  -60.9162   33.5468 C   0  0  0  0  0  0  0  0  0  0  0  0
   37.2100  -61.7003   34.3047 O   0  0  0  0  0  0  0  0  0  0  0  0
   35.6447  -59.6641   34.8932 H   0  0  0  0  0  0  0  0  0  0  0  0
   35.0077  -62.9097   26.3759 C   0  0  0  0  0  0  0  0  0  0  0  0
   34.0764  -63.0868   27.4385 O   0  0  0  0  0  0  0  0  0  0  0  0
   33.5614  -61.9593   28.0120 C   0  0  0  0  0  0  0  0  0  0  0  0
   32.9994  -60.8763   27.3387 C   0  0  0  0  0  0  0  0  0  0  0  0
   32.5198  -59.7682   28.0528 C   0  0  0  0  0  0  0  0  0  0  0  0
   32.6005  -59.7346   29.4452 C   0  0  0  0  0  0  0  0  0  0  0  0
   33.1677  -60.8211   30.1146 C   0  0  0  0  0  0  0  0  0  0  0  0
   33.6459  -61.9238   29.4035 C   0  0  0  0  0  0  0  0  0  0  0  0
   32.1756  -58.7268   30.2615 O   0  0  0  0  0  0  0  0  0  0  0  0
   30.8121  -58.7179   30.6470 C   0  0  0  0  0  0  0  0  0  0  0  0
   30.6829  -58.8616   31.9836 F   0  0  0  0  0  0  0  0  0  0  0  0
   30.1854  -59.7560   30.0507 F   0  0  0  0  0  0  0  0  0  0  0  0
   30.2020  -57.5784   30.2559 F   0  0  0  0  0  0  0  0  0  0  0  0
  1  2  1  0  0  0
  2  3  1  0  0  0
  2  4  1  0  0  0
  4  5  1  0  0  0
  5 11  1  0  0  0
 11 12  2  0  0  0
 11 13  1  0  0  0
 13 15  1  0  0  0
 15 16  1  0  0  0
 16 17  2  0  0  0
 15 18  1  0  0  0
 18 19  1  0  0  0
 19 20  1  0  0  0
 20 21  1  0  0  0
 21 22  1  0  0  0
 22 23  1  0  0  0
 23 24  2  0  0  0
  5  6  1  0  0  0
  6  7  1  0  0  0
  7  8  2  0  0  0
  7 26  1  0  0  0
 26 27  1  0  0  0
 27 28  1  0  0  0
 28 29  2  0  0  0
 29 30  1  0  0  0
 30 31  2  0  0  0
 31 34  1  0  0  0
 34 35  1  0  0  0
 35 36  1  0  0  0
 35 37  1  0  0  0
 35 38  1  0  0  0
 31 32  1  0  0  0
 32 33  2  0  0  0
  6  9  1  0  0  0
  9 10  1  0  0  0
 10  2  1  0  0  0
 10  4  1  0  0  0
 23 19  1  0  0  0
 33 28  1  0  0  0
 13 14  1  0  0  0
 22 25  1  0  0  0
M  END
> <minimizedAffinity>
-7.75724

$$$$
