L1:P0C6U8:72398


 37 38  0  0  0  0  0  0  0  0999 V2000
   36.9170  -61.8424   27.8984 C   0  0  0  0  0  0  0  0  0  0  0  0
   37.5684  -62.7553   27.3972 O   0  0  0  0  0  0  0  0  0  0  0  0
   37.2005  -60.5203   27.6887 N   0  0  0  0  0  0  0  0  0  0  0  0
   36.5950  -59.8400   28.1568 H   0  0  0  0  0  0  0  0  0  0  0  0
   35.7728  -62.0836   28.9225 C   0  0  0  0  0  0  0  0  0  0  0  0
   35.3841  -60.8392   29.5870 N   0  0  0  0  0  0  0  0  0  0  0  0
   34.9716  -60.7821   30.8788 C   0  0  0  0  0  0  0  0  0  0  0  0
   34.8407  -61.7399   31.6274 O   0  0  0  0  0  0  0  0  0  0  0  0
   35.4842  -59.9303   29.1288 H   0  0  0  0  0  0  0  0  0  0  0  0
   34.7317  -59.4965   31.2083 O   0  0  0  0  0  0  0  0  0  0  0  0
   33.4938  -59.2790   31.8847 C   0  0  0  0  0  0  0  0  0  0  0  0
   32.3978  -59.0112   30.8791 C   0  0  0  0  0  0  0  0  0  0  0  0
   31.0517  -59.1631   31.2444 C   0  0  0  0  0  0  0  0  0  0  0  0
   30.0318  -58.8798   30.3328 C   0  0  0  0  0  0  0  0  0  0  0  0
   30.3451  -58.4322   29.0504 C   0  0  0  0  0  0  0  0  0  0  0  0
   31.6774  -58.2640   28.6799 C   0  0  0  0  0  0  0  0  0  0  0  0
   32.6974  -58.5457   29.5897 C   0  0  0  0  0  0  0  0  0  0  0  0
   34.5448  -62.7339   28.2522 C   0  0  0  0  0  0  0  0  0  0  0  0
   32.9891  -61.2272   26.8991 C   0  0  0  0  0  0  0  0  0  0  0  0
   34.1688  -62.1996   26.8522 C   0  0  0  0  0  0  0  0  0  0  0  0
   33.9072  -63.3068   25.8340 C   0  0  0  0  0  0  0  0  0  0  0  0
   38.1532  -59.9272   26.7356 C   0  0  0  0  0  0  0  0  0  0  0  0
   38.9052  -58.7285   27.3807 C   0  0  0  0  0  0  0  0  0  0  0  0
   40.1994  -58.5713   26.7155 O   0  0  0  0  0  0  0  0  0  0  0  0
   40.7524  -58.2023   27.4424 H   0  0  0  0  0  0  0  0  0  0  0  0
   39.0853  -58.8809   29.2116 S   0  0  0  0  0  0  0  0  0  0  0  0
   39.6800  -60.2058   29.4224 O   0  0  0  0  0  0  0  0  0  0  0  0
   37.7425  -58.7196   29.7553 O   0  0  0  0  0  0  0  0  0  0  0  0
   40.0102  -57.7824   29.5035 O   0  0  0  0  0  0  0  0  0  0  0  0
   37.4636  -59.5527   25.4022 C   0  0  0  0  0  0  0  0  0  0  0  0
   38.0752  -60.1633   24.1372 C   0  0  0  0  0  0  0  0  0  0  0  0
   38.4912  -61.6360   24.2059 C   0  0  0  0  0  0  0  0  0  0  0  0
   39.4754  -61.7679   23.0585 C   0  0  0  0  0  0  0  0  0  0  0  0
   40.1036  -60.4824   23.0188 N   0  0  0  0  0  0  0  0  0  0  0  0
   39.3535  -59.5087   23.6509 C   0  0  0  0  0  0  0  0  0  0  0  0
   39.6712  -58.3372   23.7348 O   0  0  0  0  0  0  0  0  0  0  0  0
   40.9883  -60.2561   22.5834 H   0  0  0  0  0  0  0  0  0  0  0  0
 19 20  1  0  0  0
 20 21  1  0  0  0
 20 18  1  0  0  0
 18  5  1  0  0  0
  5  6  1  0  0  0
  6  7  1  0  0  0
  7  8  2  0  0  0
  7 10  1  0  0  0
 10 11  1  0  0  0
 11 12  1  0  0  0
 12 13  2  0  0  0
 13 14  1  0  0  0
 14 15  2  0  0  0
 15 16  1  0  0  0
 16 17  2  0  0  0
  5  1  1  0  0  0
  1  2  2  0  0  0
  1  3  1  0  0  0
  3 22  1  0  0  0
 22 30  1  0  0  0
 30 31  1  0  0  0
 31 32  1  0  0  0
 32 33  1  0  0  0
 33 34  1  0  0  0
 34 35  1  0  0  0
 35 36  2  0  0  0
 22 23  1  0  0  0
 23 24  1  0  0  0
 23 26  1  0  0  0
 26 27  2  0  0  0
 26 28  2  0  0  0
 26 29  1  0  0  0
 17 12  1  0  0  0
 35 31  1  0  0  0
  6  9  1  0  0  0
  3  4  1  0  0  0
 34 37  1  0  0  0
 24 25  1  0  0  0
M  CHG 1  29  -1
M  END
> <minimizedAffinity>
-7.15286

$$$$
