L1:P0C6U8:85332
     RDKit          3D

 60 64  0  0  0  0  0  0  0  0999 V2000
   -1.9895   -5.6823    0.1731 C   0  0  0  0  0  0  0  0  0  0  0  0
   -1.8067   -4.2290    0.5417 C   0  0  0  0  0  0  0  0  0  0  0  0
   -2.5198   -3.8493    1.8152 C   0  0  0  0  0  0  0  0  0  0  0  0
   -0.4700   -3.5877    0.1831 C   0  0  2  0  0  0  0  0  0  0  0  0
    0.0685   -2.3258    0.8203 C   0  0  1  0  0  0  0  0  0  0  0  0
    1.4867   -1.9465    0.3012 C   0  0  0  0  0  0  0  0  0  0  0  0
    2.2476   -2.7495   -0.2374 O   0  0  0  0  0  0  0  0  0  0  0  0
    1.9063   -0.6704    0.6099 N   0  0  0  0  0  0  0  0  0  0  0  0
    3.1908   -0.1295    0.1839 C   0  0  2  0  0  0  0  0  0  0  0  0
    4.2139   -0.4131    1.2794 C   0  0  0  0  0  0  0  0  0  0  0  0
    5.3020    0.1540    1.3630 O   0  0  0  0  0  0  0  0  0  0  0  0
    3.0684    1.3660   -0.1286 C   0  0  0  0  0  0  0  0  0  0  0  0
    3.6269    1.7253   -1.5128 C   0  0  2  0  0  0  0  0  0  0  0  0
    5.1543    1.6522   -1.6360 C   0  0  0  0  0  0  0  0  0  0  0  0
    5.6253    3.0218   -1.1837 C   0  0  0  0  0  0  0  0  0  0  0  0
    4.5493    3.8801   -1.5795 N   0  0  0  0  0  0  0  0  0  0  0  0
    3.3716    3.1939   -1.7846 C   0  0  0  0  0  0  0  0  0  0  0  0
    2.3021    3.6952   -2.0840 O   0  0  0  0  0  0  0  0  0  0  0  0
   -0.9395   -1.2987    0.4885 N   0  0  0  0  0  0  0  0  0  0  0  0
   -1.0347   -0.1380    1.2352 C   0  0  0  0  0  0  0  0  0  0  0  0
   -0.2411    0.0778    2.1517 O   0  0  0  0  0  0  0  0  0  0  0  0
   -2.0611    0.8121    0.8809 C   0  0  0  0  0  0  0  0  0  0  0  0
   -2.9590    1.4502    1.7185 C   0  0  0  0  0  0  0  0  0  0  0  0
   -3.7712    2.3120    0.9337 C   0  0  0  0  0  0  0  0  0  0  0  0
   -4.8455    3.1758    1.2188 C   0  0  0  0  0  0  0  0  0  0  0  0
   -5.4279    3.9091    0.1784 C   0  0  0  0  0  0  0  0  0  0  0  0
   -4.9510    3.7942   -1.1258 C   0  0  0  0  0  0  0  0  0  0  0  0
   -3.8825    2.9457   -1.4312 C   0  0  0  0  0  0  0  0  0  0  0  0
   -3.3171    2.2153   -0.3798 C   0  0  0  0  0  0  0  0  0  0  0  0
   -2.2656    1.3287   -0.3787 N   0  0  0  0  0  0  0  0  0  0  0  0
   -1.9368   -1.7694   -0.4680 C   0  0  0  0  0  0  0  0  0  0  0  0
   -1.6893   -3.2362   -0.6053 C   0  0  2  0  0  0  0  0  0  0  0  0
   -1.5995   -6.3279    0.9669 H   0  0  0  0  0  0  0  0  0  0  0  0
   -1.4672   -5.9393   -0.7549 H   0  0  0  0  0  0  0  0  0  0  0  0
   -3.0517   -5.9085    0.0333 H   0  0  0  0  0  0  0  0  0  0  0  0
   -2.1478   -4.4562    2.6477 H   0  0  0  0  0  0  0  0  0  0  0  0
   -3.5942   -4.0355    1.7124 H   0  0  0  0  0  0  0  0  0  0  0  0
   -2.3966   -2.8011    2.0962 H   0  0  0  0  0  0  0  0  0  0  0  0
    0.2897   -4.2202   -0.2583 H   0  0  0  0  0  0  0  0  0  0  0  0
    0.1367   -2.4369    1.9089 H   0  0  0  0  0  0  0  0  0  0  0  0
    1.3388   -0.1333    1.2687 H   0  0  0  0  0  0  0  0  0  0  0  0
    3.5136   -0.6970   -0.6964 H   0  0  0  0  0  0  0  0  0  0  0  0
    3.9764   -1.2519    1.9567 H   0  0  0  0  0  0  0  0  0  0  0  0
    3.5513    1.9745    0.6467 H   0  0  0  0  0  0  0  0  0  0  0  0
    2.0107    1.6648   -0.1114 H   0  0  0  0  0  0  0  0  0  0  0  0
    3.1488    1.1244   -2.2942 H   0  0  0  0  0  0  0  0  0  0  0  0
    5.6199    0.8358   -1.0814 H   0  0  0  0  0  0  0  0  0  0  0  0
    5.4167    1.5146   -2.6936 H   0  0  0  0  0  0  0  0  0  0  0  0
    6.5530    3.3346   -1.6689 H   0  0  0  0  0  0  0  0  0  0  0  0
    5.7351    3.0843   -0.0968 H   0  0  0  0  0  0  0  0  0  0  0  0
    4.5897    4.8890   -1.6558 H   0  0  0  0  0  0  0  0  0  0  0  0
   -3.0299    1.2972    2.7881 H   0  0  0  0  0  0  0  0  0  0  0  0
   -5.2183    3.2763    2.2337 H   0  0  0  0  0  0  0  0  0  0  0  0
   -6.2569    4.5789    0.3934 H   0  0  0  0  0  0  0  0  0  0  0  0
   -5.4128    4.3782   -1.9190 H   0  0  0  0  0  0  0  0  0  0  0  0
   -3.5080    2.8672   -2.4466 H   0  0  0  0  0  0  0  0  0  0  0  0
   -1.7051    1.1117   -1.1910 H   0  0  0  0  0  0  0  0  0  0  0  0
   -2.9513   -1.5558   -0.1190 H   0  0  0  0  0  0  0  0  0  0  0  0
   -1.7612   -1.2606   -1.4209 H   0  0  0  0  0  0  0  0  0  0  0  0
   -1.7854   -3.5915   -1.6226 H   0  0  0  0  0  0  0  0  0  0  0  0
  1  2  1  0
  2  3  1  0
  2  4  1  0
  4  5  1  0
  5  6  1  0
  6  7  2  0
  6  8  1  0
  8  9  1  0
  9 10  1  0
 10 11  2  0
  9 12  1  0
 12 13  1  0
 13 14  1  0
 14 15  1  0
 15 16  1  0
 16 17  1  0
 17 18  2  0
  5 19  1  0
 19 20  1  0
 20 21  2  0
 20 22  1  0
 22 23  2  0
 23 24  1  0
 24 25  2  0
 25 26  1  0
 26 27  2  0
 27 28  1  0
 28 29  2  0
 29 30  1  0
 19 31  1  0
 31 32  1  0
 32  2  1  0
 32  4  1  0
 17 13  1  0
 30 22  1  0
 29 24  1  0
  1 33  1  0
  1 34  1  0
  1 35  1  0
  3 36  1  0
  3 37  1  0
  3 38  1  0
  4 39  1  6
  5 40  1  1
  8 41  1  0
  9 42  1  6
 10 43  1  0
 12 44  1  0
 12 45  1  0
 13 46  1  6
 14 47  1  0
 14 48  1  0
 15 49  1  0
 15 50  1  0
 16 51  1  0
 23 52  1  0
 25 53  1  0
 26 54  1  0
 27 55  1  0
 28 56  1  0
 30 57  1  0
 31 58  1  0
 31 59  1  0
 32 60  1  6
M  END
>  <mol_id>  (1) 
85332

>  <source_index>  (1) 
8

>  <layer>  (1) 
L1

>  <uniprot>  (1) 
P0C6U8

>  <paff>  (1) 
7.2839999999999998

>  <smiles>  (1) 
CC1(C)[C@@H]2[C@@H](C(=O)N[C@H](C=O)C[C@@H]3CCNC3=O)N(C(=O)c3cc4ccccc4[nH]3)C[C@@H]21

$$$$
