L1:P0C6U8:93662


 37 40  0  0  0  0  0  0  0  0999 V2000
   34.9088  -59.1962   27.4398 C   0  0  0  0  0  0  0  0  0  0  0  0
   37.3501  -59.3011   27.3067 N   0  0  0  0  0  0  0  0  0  0  0  0
   36.2279  -59.8718   27.8635 C   0  0  0  0  0  0  0  0  0  0  0  0
   36.2712  -60.8888   28.5518 O   0  0  0  0  0  0  0  0  0  0  0  0
   37.2398  -58.5447   26.6279 H   0  0  0  0  0  0  0  0  0  0  0  0
   38.6930  -59.8282   27.5233 C   0  0  0  0  0  0  0  0  0  0  0  0
   40.2276  -59.5507   29.3892 O   0  0  0  0  0  0  0  0  0  0  0  0
   39.2601  -59.1357   28.7537 C   0  0  0  0  0  0  0  0  0  0  0  0
   39.5647  -59.6020   26.2787 C   0  0  0  0  0  0  0  0  0  0  0  0
   38.9894  -60.0987   24.9528 C   0  0  0  0  0  0  0  0  0  0  0  0
   39.3606  -61.5614   24.6642 C   0  0  0  0  0  0  0  0  0  0  0  0
   39.3197  -61.6495   23.1501 C   0  0  0  0  0  0  0  0  0  0  0  0
   39.6955  -60.3330   22.7332 N   0  0  0  0  0  0  0  0  0  0  0  0
   39.5228  -59.3926   23.7237 C   0  0  0  0  0  0  0  0  0  0  0  0
   39.6970  -58.1938   23.5971 O   0  0  0  0  0  0  0  0  0  0  0  0
   40.0001  -60.0673   21.8042 H   0  0  0  0  0  0  0  0  0  0  0  0
   34.0750  -60.2563   26.8760 N   0  0  0  0  0  0  0  0  0  0  0  0
   34.2777  -60.7278   25.6028 C   0  0  0  0  0  0  0  0  0  0  0  0
   35.1352  -60.2537   24.8622 O   0  0  0  0  0  0  0  0  0  0  0  0
   33.4521  -60.7528   27.4962 H   0  0  0  0  0  0  0  0  0  0  0  0
   33.4408  -61.8347   25.2045 C   0  0  0  0  0  0  0  0  0  0  0  0
   33.4150  -63.1705   25.5688 C   0  0  0  0  0  0  0  0  0  0  0  0
   32.3694  -63.8139   24.8481 C   0  0  0  0  0  0  0  0  0  0  0  0
   31.8792  -65.1330   24.8017 C   0  0  0  0  0  0  0  0  0  0  0  0
   30.8035  -65.4335   23.9578 C   0  0  0  0  0  0  0  0  0  0  0  0
   30.2195  -64.4433   23.1703 C   0  0  0  0  0  0  0  0  0  0  0  0
   30.6898  -63.1269   23.2010 C   0  0  0  0  0  0  0  0  0  0  0  0
   31.7659  -62.8454   24.0503 C   0  0  0  0  0  0  0  0  0  0  0  0
   32.4259  -61.6643   24.2864 N   0  0  0  0  0  0  0  0  0  0  0  0
   32.2102  -60.7765   23.8513 H   0  0  0  0  0  0  0  0  0  0  0  0
   34.1871  -58.5319   28.6196 C   0  0  0  0  0  0  0  0  0  0  0  0
   32.7464  -59.0311   28.8633 C   0  0  0  0  0  0  0  0  0  0  0  0
   31.7463  -57.9931   28.3222 C   0  0  0  0  0  0  0  0  0  0  0  0
   30.2987  -58.4104   28.5651 C   0  0  0  0  0  0  0  0  0  0  0  0
   30.0381  -58.6911   30.0402 C   0  0  0  0  0  0  0  0  0  0  0  0
   31.0141  -59.7248   30.5892 C   0  0  0  0  0  0  0  0  0  0  0  0
   32.4675  -59.3204   30.3475 C   0  0  0  0  0  0  0  0  0  0  0  0
  7  8  2  0  0  0
  8  6  1  0  0  0
  6  9  1  0  0  0
  9 10  1  0  0  0
 10 11  1  0  0  0
 11 12  1  0  0  0
 12 13  1  0  0  0
 13 14  1  0  0  0
 14 15  2  0  0  0
  6  2  1  0  0  0
  2  3  1  0  0  0
  3  4  2  0  0  0
  3  1  1  0  0  0
  1 31  1  0  0  0
 31 32  1  0  0  0
 32 33  1  0  0  0
 33 34  1  0  0  0
 34 35  1  0  0  0
 35 36  1  0  0  0
 36 37  1  0  0  0
  1 17  1  0  0  0
 17 18  1  0  0  0
 18 19  2  0  0  0
 18 21  1  0  0  0
 21 22  2  0  0  0
 22 23  1  0  0  0
 23 24  2  0  0  0
 24 25  1  0  0  0
 25 26  2  0  0  0
 26 27  1  0  0  0
 27 28  2  0  0  0
 28 29  1  0  0  0
 14 10  1  0  0  0
 37 32  1  0  0  0
 29 21  1  0  0  0
 28 23  1  0  0  0
 13 16  1  0  0  0
  2  5  1  0  0  0
 17 20  1  0  0  0
 29 30  1  0  0  0
M  END
> <minimizedAffinity>
-8.41051

$$$$
