L4:Q9NY59:26994
     RDKit          3D

 34 36  0  0  0  0  0  0  0  0999 V2000
   -0.8509  -18.6244  -10.2664 C   0  0  0  0  0  0  0  0  0  0  0  0
   -0.1888  -19.7277  -10.8517 C   0  0  0  0  0  0  0  0  0  0  0  0
    0.9310  -20.0742  -10.2163 N   0  0  0  0  0  0  0  0  0  0  0  0
    1.0178  -19.1783   -9.2029 N   0  0  0  0  0  0  0  0  0  0  0  0
    2.0148  -19.1027   -8.2428 C   0  0  0  0  0  0  0  0  0  0  0  0
    1.9689  -18.1630   -7.2918 C   0  0  0  0  0  0  0  0  0  0  0  0
    0.7987  -17.2106   -7.3193 C   0  0  0  0  0  0  0  0  0  0  0  0
   -0.1433  -17.2985   -8.2328 N   0  0  0  0  0  0  0  0  0  0  0  0
   -0.0476  -18.2769   -9.1910 C   0  0  0  0  0  0  0  0  0  0  0  0
    0.6919  -16.2156   -6.3647 N   0  0  0  0  0  0  0  0  0  0  0  0
    0.9593  -16.4600   -4.9492 C   0  0  0  0  0  0  0  0  0  0  0  0
    0.9799  -15.0670   -4.3303 C   0  0  0  0  0  0  0  0  0  0  0  0
   -0.0224  -14.3085   -5.1809 C   0  0  0  0  0  0  0  0  0  0  0  0
    0.2378  -14.8507   -6.5830 C   0  0  0  0  0  0  0  0  0  0  0  0
   -1.9556  -16.8125  -11.4885 C   0  0  0  0  0  0  0  0  0  0  0  0
   -2.0172  -18.0312  -10.6836 N   0  0  0  0  0  0  0  0  0  0  0  0
   -3.2410  -18.2165   -9.9117 C   0  0  0  0  0  0  0  0  0  0  0  0
   -0.5384  -20.2177  -11.6900 H   0  0  0  0  0  0  0  0  0  0  0  0
    2.7972  -19.7754   -8.2618 H   0  0  0  0  0  0  0  0  0  0  0  0
    2.7029  -18.0924   -6.5698 H   0  0  0  0  0  0  0  0  0  0  0  0
    1.9028  -16.9476   -4.8193 H   0  0  0  0  0  0  0  0  0  0  0  0
    0.2304  -17.0999   -4.4975 H   0  0  0  0  0  0  0  0  0  0  0  0
    1.9537  -14.6288   -4.3988 H   0  0  0  0  0  0  0  0  0  0  0  0
    0.7409  -15.0624   -3.2873 H   0  0  0  0  0  0  0  0  0  0  0  0
    0.1557  -13.2543   -5.1370 H   0  0  0  0  0  0  0  0  0  0  0  0
   -1.0342  -14.4404   -4.8588 H   0  0  0  0  0  0  0  0  0  0  0  0
    0.9922  -14.2752   -7.0775 H   0  0  0  0  0  0  0  0  0  0  0  0
   -0.6310  -14.8046   -7.2058 H   0  0  0  0  0  0  0  0  0  0  0  0
   -2.9483  -16.4895  -11.7232 H   0  0  0  0  0  0  0  0  0  0  0  0
   -1.4212  -17.0099  -12.3942 H   0  0  0  0  0  0  0  0  0  0  0  0
   -1.4522  -16.0460  -10.9372 H   0  0  0  0  0  0  0  0  0  0  0  0
   -4.0428  -17.6864  -10.3817 H   0  0  0  0  0  0  0  0  0  0  0  0
   -3.0977  -17.8406   -8.9202 H   0  0  0  0  0  0  0  0  0  0  0  0
   -3.4802  -19.2585   -9.8670 H   0  0  0  0  0  0  0  0  0  0  0  0
  1  2  1  0
  2  3  2  0
  2 18  1  0
  3  4  1  0
  4  5  1  0
  5  6  2  0
  5 19  1  0
  6  7  1  0
  6 20  1  0
  7 10  1  0
  7  8  2  0
  8  9  1  0
  9  1  2  0
  9  4  1  0
 10 11  1  0
 11 12  1  0
 11 21  1  0
 11 22  1  0
 12 13  1  0
 12 23  1  0
 12 24  1  0
 13 14  1  0
 13 25  1  0
 13 26  1  0
 14 10  1  0
 14 27  1  0
 14 28  1  0
 15 16  1  0
 15 29  1  0
 15 30  1  0
 15 31  1  0
 16 17  1  0
 16  1  1  0
 17 32  1  0
 17 33  1  0
 17 34  1  0
M  END
>  <minimizedAffinity>  (1) 
-4.05101

>  <mol_id>  (1) 
26994

>  <source_index>  (1) 
0

>  <layer>  (1) 
L4

>  <uniprot>  (1) 
Q9NY59

>  <paff>  (1) 
7.1548999999999996

>  <smiles>  (1) 
CN(C)c1cnn2ccc(N3CCCC3)nc12

$$$$
L4:Q9NY59:30532
     RDKit          3D

 32 35  0  0  0  0  0  0  0  0999 V2000
    2.6964  -17.7480   -5.3211 N   0  0  0  0  0  0  0  0  0  0  0  0
    2.1384  -17.6775   -6.5452 C   0  0  0  0  0  0  0  0  0  0  0  0
    2.2987  -18.5444   -7.6355 C   0  0  0  0  0  0  0  0  0  0  0  0
    1.5912  -18.1603   -8.7017 N   0  0  0  0  0  0  0  0  0  0  0  0
    0.9581  -17.0298   -8.2872 N   0  0  0  0  0  0  0  0  0  0  0  0
    0.0898  -16.2335   -9.0153 C   0  0  0  0  0  0  0  0  0  0  0  0
   -0.4481  -15.1404   -8.4601 C   0  0  0  0  0  0  0  0  0  0  0  0
   -0.0681  -14.8195   -7.0286 C   0  0  0  0  0  0  0  0  0  0  0  0
    0.7616  -15.5885   -6.3526 N   0  0  0  0  0  0  0  0  0  0  0  0
    1.2738  -16.6969   -6.9715 C   0  0  0  0  0  0  0  0  0  0  0  0
    2.6105  -16.9335   -4.7157 H   0  0  0  0  0  0  0  0  0  0  0  0
    3.5315  -18.2969   -5.1495 H   0  0  0  0  0  0  0  0  0  0  0  0
   -0.5914  -13.6930   -6.3913 N   0  0  0  0  0  0  0  0  0  0  0  0
   -0.2602  -13.3249   -5.0099 C   0  0  0  0  0  0  0  0  0  0  0  0
   -0.9616  -12.0465   -4.5473 C   0  0  1  0  0  0  0  0  0  0  0  0
   -0.8334  -10.8890   -5.5750 C   0  0  0  0  0  0  0  0  0  0  0  0
   -1.9916  -11.6181   -6.3093 C   0  0  2  0  0  0  0  0  0  0  0  0
   -2.4759  -12.0350   -4.8936 C   0  0  0  0  0  0  0  0  0  0  0  0
   -1.5048  -12.8070   -7.1389 C   0  0  0  0  0  0  0  0  0  0  0  0
    2.8965  -19.3854   -7.6165 H   0  0  0  0  0  0  0  0  0  0  0  0
   -0.1433  -16.4836   -9.9890 H   0  0  0  0  0  0  0  0  0  0  0  0
   -1.0984  -14.5377   -8.9882 H   0  0  0  0  0  0  0  0  0  0  0  0
    0.7974  -13.1778   -4.9405 H   0  0  0  0  0  0  0  0  0  0  0  0
   -0.5952  -14.1204   -4.3776 H   0  0  0  0  0  0  0  0  0  0  0  0
   -0.5951  -11.9764   -3.5445 H   0  0  0  0  0  0  0  0  0  0  0  0
    0.0938  -10.8502   -6.1076 H   0  0  0  0  0  0  0  0  0  0  0  0
   -0.8670   -9.8545   -5.3038 H   0  0  0  0  0  0  0  0  0  0  0  0
   -2.6266  -11.1315   -7.0199 H   0  0  0  0  0  0  0  0  0  0  0  0
   -2.9655  -12.9848   -4.8384 H   0  0  0  0  0  0  0  0  0  0  0  0
   -3.2037  -11.4849   -4.3345 H   0  0  0  0  0  0  0  0  0  0  0  0
   -0.9905  -12.4347   -8.0002 H   0  0  0  0  0  0  0  0  0  0  0  0
   -2.3644  -13.3848   -7.4075 H   0  0  0  0  0  0  0  0  0  0  0  0
  1  2  1  0
  1 11  1  0
  1 12  1  0
  2  3  1  0
  3  4  2  0
  3 20  1  0
  4  5  1  0
  5  6  1  0
  6  7  2  0
  6 21  1  0
  7  8  1  0
  7 22  1  0
  8 13  1  0
  8  9  2  0
  9 10  1  0
 10  2  2  0
 10  5  1  0
 13 14  1  0
 14 15  1  0
 14 23  1  0
 14 24  1  0
 15 16  1  0
 15 25  1  1
 16 17  1  0
 16 26  1  0
 16 27  1  0
 17 18  1  0
 17 19  1  0
 17 28  1  6
 18 15  1  0
 18 29  1  0
 18 30  1  0
 19 13  1  0
 19 31  1  0
 19 32  1  0
M  END
>  <minimizedAffinity>  (2) 
-4.60796

>  <mol_id>  (2) 
30532

>  <source_index>  (2) 
1

>  <layer>  (2) 
L4

>  <uniprot>  (2) 
Q9NY59

>  <paff>  (2) 
6.4558999999999997

>  <smiles>  (2) 
Nc1cnn2ccc(N3CC4CC(C4)C3)nc12

$$$$
L4:Q9NY59:33891
     RDKit          3D

 38 40  0  0  0  0  0  0  0  0999 V2000
    3.2450  -20.3133  -11.3234 C   0  0  0  0  0  0  0  0  0  0  0  0
    4.6209  -20.6043  -11.4675 C   0  0  0  0  0  0  0  0  0  0  0  0
    5.3681  -20.1549  -10.4587 N   0  0  0  0  0  0  0  0  0  0  0  0
    4.4725  -19.5648   -9.6308 N   0  0  0  0  0  0  0  0  0  0  0  0
    4.7426  -18.9260   -8.4306 C   0  0  0  0  0  0  0  0  0  0  0  0
    3.7507  -18.3857   -7.7139 C   0  0  0  0  0  0  0  0  0  0  0  0
    2.3501  -18.5171   -8.2618 C   0  0  0  0  0  0  0  0  0  0  0  0
    2.1143  -19.1042   -9.4137 N   0  0  0  0  0  0  0  0  0  0  0  0
    3.1651  -19.6419  -10.1130 C   0  0  0  0  0  0  0  0  0  0  0  0
    1.2764  -17.9883   -7.5410 N   0  0  0  0  0  0  0  0  0  0  0  0
    0.0544  -17.5522   -8.2290 C   0  0  0  0  0  0  0  0  0  0  0  0
    0.2284  -16.1117   -8.7149 C   0  0  0  0  0  0  0  0  0  0  0  0
    0.5724  -15.1762   -7.5563 C   0  0  0  0  0  0  0  0  0  0  0  0
    1.7681  -15.6889   -6.7463 C   0  0  1  0  0  0  0  0  0  0  0  0
    1.9105  -14.8826   -5.5763 O   0  0  0  0  0  0  0  0  0  0  0  0
    1.5595  -17.1606   -6.3501 C   0  0  0  0  0  0  0  0  0  0  0  0
    2.1603  -13.9907   -5.8747 H   0  0  0  0  0  0  0  0  0  0  0  0
    1.4362  -21.8422  -11.9512 C   0  0  0  0  0  0  0  0  0  0  0  0
    2.2251  -20.6370  -12.1849 N   0  0  0  0  0  0  0  0  0  0  0  0
    2.2910  -20.1888  -13.5757 C   0  0  0  0  0  0  0  0  0  0  0  0
    5.0095  -21.1153  -12.2755 H   0  0  0  0  0  0  0  0  0  0  0  0
    5.7143  -18.8669   -8.0881 H   0  0  0  0  0  0  0  0  0  0  0  0
    3.9354  -17.8989   -6.8228 H   0  0  0  0  0  0  0  0  0  0  0  0
   -0.7731  -17.6028   -7.5525 H   0  0  0  0  0  0  0  0  0  0  0  0
   -0.1302  -18.1912   -9.0671 H   0  0  0  0  0  0  0  0  0  0  0  0
   -0.6832  -15.7840   -9.1694 H   0  0  0  0  0  0  0  0  0  0  0  0
    1.0319  -16.0867   -9.4211 H   0  0  0  0  0  0  0  0  0  0  0  0
   -0.2766  -15.0992   -6.9096 H   0  0  0  0  0  0  0  0  0  0  0  0
    0.8323  -14.2222   -7.9652 H   0  0  0  0  0  0  0  0  0  0  0  0
    2.6547  -15.6264   -7.3420 H   0  0  0  0  0  0  0  0  0  0  0  0
    0.7348  -17.2280   -5.6717 H   0  0  0  0  0  0  0  0  0  0  0  0
    2.4534  -17.5213   -5.8857 H   0  0  0  0  0  0  0  0  0  0  0  0
    0.6922  -21.9351  -12.7146 H   0  0  0  0  0  0  0  0  0  0  0  0
    0.9600  -21.7770  -10.9952 H   0  0  0  0  0  0  0  0  0  0  0  0
    2.0779  -22.6982  -11.9724 H   0  0  0  0  0  0  0  0  0  0  0  0
    1.4219  -20.5264  -14.1008 H   0  0  0  0  0  0  0  0  0  0  0  0
    3.1669  -20.5922  -14.0393 H   0  0  0  0  0  0  0  0  0  0  0  0
    2.3323  -19.1200  -13.6044 H   0  0  0  0  0  0  0  0  0  0  0  0
  1  2  1  0
  2  3  2  0
  2 21  1  0
  3  4  1  0
  4  5  1  0
  5  6  2  0
  5 22  1  0
  6  7  1  0
  6 23  1  0
  7 10  1  0
  7  8  2  0
  8  9  1  0
  9  1  2  0
  9  4  1  0
 10 11  1  0
 11 12  1  0
 11 24  1  0
 11 25  1  0
 12 13  1  0
 12 26  1  0
 12 27  1  0
 13 14  1  0
 13 28  1  0
 13 29  1  0
 14 15  1  0
 14 16  1  0
 14 30  1  6
 15 17  1  0
 16 10  1  0
 16 31  1  0
 16 32  1  0
 18 19  1  0
 18 33  1  0
 18 34  1  0
 18 35  1  0
 19 20  1  0
 19  1  1  0
 20 36  1  0
 20 37  1  0
 20 38  1  0
M  END
>  <minimizedAffinity>  (3) 
-4.50876

>  <mol_id>  (3) 
33891

>  <source_index>  (3) 
2

>  <layer>  (3) 
L4

>  <uniprot>  (3) 
Q9NY59

>  <paff>  (3) 
6.8539000000000003

>  <smiles>  (3) 
CN(C)c1cnn2ccc(N3CCC[C@@H](O)C3)nc12

$$$$
L4:Q9NY59:55082
     RDKit          3D

 38 41  0  0  0  0  0  0  0  0999 V2000
    2.6951  -20.5503  -11.1815 C   0  0  0  0  0  0  0  0  0  0  0  0
    3.8746  -21.1779  -11.6430 C   0  0  0  0  0  0  0  0  0  0  0  0
    4.9537  -20.8792  -10.9192 N   0  0  0  0  0  0  0  0  0  0  0  0
    4.4829  -20.0314   -9.9726 N   0  0  0  0  0  0  0  0  0  0  0  0
    5.2130  -19.4207   -8.9656 C   0  0  0  0  0  0  0  0  0  0  0  0
    4.6116  -18.6056   -8.0916 C   0  0  0  0  0  0  0  0  0  0  0  0
    3.1240  -18.3897   -8.2523 C   0  0  0  0  0  0  0  0  0  0  0  0
    2.4481  -18.9806   -9.2152 N   0  0  0  0  0  0  0  0  0  0  0  0
    3.1119  -19.8035  -10.0901 C   0  0  0  0  0  0  0  0  0  0  0  0
    2.4286  -17.5540   -7.3765 N   0  0  0  0  0  0  0  0  0  0  0  0
    1.4172  -16.5881   -7.8206 C   0  0  0  0  0  0  0  0  0  0  0  0
    0.8008  -15.7953   -6.6664 C   0  0  1  0  0  0  0  0  0  0  0  0
    0.3569  -16.7037   -5.4873 C   0  0  0  0  0  0  0  0  0  0  0  0
    1.8610  -16.6757   -5.1011 C   0  0  2  0  0  0  0  0  0  0  0  0
    1.8682  -15.2367   -5.6858 C   0  0  0  0  0  0  0  0  0  0  0  0
    2.6982  -17.6517   -5.9290 C   0  0  0  0  0  0  0  0  0  0  0  0
    1.2248  -20.4598  -13.1399 C   0  0  0  0  0  0  0  0  0  0  0  0
    1.4311  -20.6534  -11.7088 N   0  0  0  0  0  0  0  0  0  0  0  0
    0.4356  -21.4834  -11.0330 C   0  0  0  0  0  0  0  0  0  0  0  0
    3.8982  -21.8065  -12.4611 H   0  0  0  0  0  0  0  0  0  0  0  0
    6.2272  -19.5957   -8.8893 H   0  0  0  0  0  0  0  0  0  0  0  0
    5.1423  -18.1425   -7.3374 H   0  0  0  0  0  0  0  0  0  0  0  0
    0.6369  -17.1189   -8.3248 H   0  0  0  0  0  0  0  0  0  0  0  0
    1.9049  -15.8876   -8.4658 H   0  0  0  0  0  0  0  0  0  0  0  0
    0.1213  -15.1672   -7.2037 H   0  0  0  0  0  0  0  0  0  0  0  0
   -0.0261  -17.6628   -5.7673 H   0  0  0  0  0  0  0  0  0  0  0  0
   -0.4299  -16.4461   -4.8095 H   0  0  0  0  0  0  0  0  0  0  0  0
    2.2124  -16.9038   -4.1165 H   0  0  0  0  0  0  0  0  0  0  0  0
    2.7888  -14.9304   -6.1370 H   0  0  0  0  0  0  0  0  0  0  0  0
    1.7202  -14.3590   -5.0919 H   0  0  0  0  0  0  0  0  0  0  0  0
    2.4785  -18.6482   -5.6072 H   0  0  0  0  0  0  0  0  0  0  0  0
    3.7274  -17.4020   -5.7762 H   0  0  0  0  0  0  0  0  0  0  0  0
    0.1863  -20.5764  -13.3695 H   0  0  0  0  0  0  0  0  0  0  0  0
    1.7938  -21.1847  -13.6836 H   0  0  0  0  0  0  0  0  0  0  0  0
    1.5430  -19.4763  -13.4163 H   0  0  0  0  0  0  0  0  0  0  0  0
   -0.4855  -21.4493  -11.5765 H   0  0  0  0  0  0  0  0  0  0  0  0
    0.2782  -21.1149  -10.0409 H   0  0  0  0  0  0  0  0  0  0  0  0
    0.7854  -22.4936  -10.9870 H   0  0  0  0  0  0  0  0  0  0  0  0
  1  2  1  0
  2  3  2  0
  2 20  1  0
  3  4  1  0
  4  5  1  0
  5  6  2  0
  5 21  1  0
  6  7  1  0
  6 22  1  0
  7 10  1  0
  7  8  2  0
  8  9  1  0
  9  1  2  0
  9  4  1  0
 10 11  1  0
 11 12  1  0
 11 23  1  0
 11 24  1  0
 12 13  1  0
 12 25  1  6
 13 14  1  0
 13 26  1  0
 13 27  1  0
 14 15  1  0
 14 16  1  0
 14 28  1  1
 15 12  1  0
 15 29  1  0
 15 30  1  0
 16 10  1  0
 16 31  1  0
 16 32  1  0
 17 18  1  0
 17 33  1  0
 17 34  1  0
 17 35  1  0
 18 19  1  0
 18  1  1  0
 19 36  1  0
 19 37  1  0
 19 38  1  0
M  END
>  <minimizedAffinity>  (4) 
-4.41038

>  <mol_id>  (4) 
55082

>  <source_index>  (4) 
3

>  <layer>  (4) 
L4

>  <uniprot>  (4) 
Q9NY59

>  <paff>  (4) 
7.2218

>  <smiles>  (4) 
CN(C)c1cnn2ccc(N3CC4CC(C4)C3)nc12

$$$$
L4:Q9NY59:80097
     RDKit          3D

 29 31  0  0  0  0  0  0  0  0999 V2000
    2.5203  -17.5933   -5.2085 N   0  0  0  0  0  0  0  0  0  0  0  0
    1.9989  -17.5021   -6.4470 C   0  0  0  0  0  0  0  0  0  0  0  0
    2.1623  -18.3716   -7.5350 C   0  0  0  0  0  0  0  0  0  0  0  0
    1.4981  -17.9630   -8.6196 N   0  0  0  0  0  0  0  0  0  0  0  0
    0.8895  -16.8140   -8.2206 N   0  0  0  0  0  0  0  0  0  0  0  0
    0.0610  -15.9935   -8.9691 C   0  0  0  0  0  0  0  0  0  0  0  0
   -0.4554  -14.8841   -8.4264 C   0  0  0  0  0  0  0  0  0  0  0  0
   -0.0869  -14.5709   -6.9927 C   0  0  0  0  0  0  0  0  0  0  0  0
    0.6837  -15.3702   -6.2871 N   0  0  0  0  0  0  0  0  0  0  0  0
    1.1780  -16.4937   -6.8946 C   0  0  0  0  0  0  0  0  0  0  0  0
    3.3261  -18.1769   -5.0123 H   0  0  0  0  0  0  0  0  0  0  0  0
    2.4456  -16.7801   -4.6002 H   0  0  0  0  0  0  0  0  0  0  0  0
   -0.5974  -13.4181   -6.3922 N   0  0  0  0  0  0  0  0  0  0  0  0
   -1.7324  -12.7354   -7.0593 C   0  0  0  0  0  0  0  0  0  0  0  0
   -1.8969  -11.3104   -6.5171 C   0  0  0  0  0  0  0  0  0  0  0  0
   -2.0660  -11.3061   -5.0916 O   0  0  0  0  0  0  0  0  0  0  0  0
   -0.9240  -11.9020   -4.4618 C   0  0  0  0  0  0  0  0  0  0  0  0
   -0.7217  -13.3524   -4.9208 C   0  0  0  0  0  0  0  0  0  0  0  0
    2.7322  -19.2313   -7.5015 H   0  0  0  0  0  0  0  0  0  0  0  0
   -0.1585  -16.2383   -9.9473 H   0  0  0  0  0  0  0  0  0  0  0  0
   -1.0813  -14.2657   -8.9656 H   0  0  0  0  0  0  0  0  0  0  0  0
   -2.6310  -13.2871   -6.8774 H   0  0  0  0  0  0  0  0  0  0  0  0
   -1.5362  -12.6850   -8.1100 H   0  0  0  0  0  0  0  0  0  0  0  0
   -2.7566  -10.8630   -6.9705 H   0  0  0  0  0  0  0  0  0  0  0  0
   -1.0113  -10.7576   -6.7518 H   0  0  0  0  0  0  0  0  0  0  0  0
   -1.0657  -11.8895   -3.4013 H   0  0  0  0  0  0  0  0  0  0  0  0
   -0.0568  -11.3387   -4.7368 H   0  0  0  0  0  0  0  0  0  0  0  0
   -1.5611  -13.9396   -4.6119 H   0  0  0  0  0  0  0  0  0  0  0  0
    0.1766  -13.7321   -4.4807 H   0  0  0  0  0  0  0  0  0  0  0  0
  1  2  1  0
  1 11  1  0
  1 12  1  0
  2  3  1  0
  3  4  2  0
  3 19  1  0
  4  5  1  0
  5  6  1  0
  6  7  2  0
  6 20  1  0
  7  8  1  0
  7 21  1  0
  8 13  1  0
  8  9  2  0
  9 10  1  0
 10  2  2  0
 10  5  1  0
 13 14  1  0
 14 15  1  0
 14 22  1  0
 14 23  1  0
 15 16  1  0
 15 24  1  0
 15 25  1  0
 16 17  1  0
 17 18  1  0
 17 26  1  0
 17 27  1  0
 18 13  1  0
 18 28  1  0
 18 29  1  0
M  END
>  <minimizedAffinity>  (5) 
-4.18884

>  <mol_id>  (5) 
80097

>  <source_index>  (5) 
4

>  <layer>  (5) 
L4

>  <uniprot>  (5) 
Q9NY59

>  <paff>  (5) 
6.3278999999999996

>  <smiles>  (5) 
Nc1cnn2ccc(N3CCOCC3)nc12

$$$$
L4:Q9NY59:95666
     RDKit          3D

 37 39  0  0  0  0  0  0  0  0999 V2000
    2.6488  -18.2722   -7.9868 C   0  0  0  0  0  0  0  0  0  0  0  0
    1.7196  -19.2950   -8.5943 C   0  0  0  0  0  0  0  0  0  0  0  0
    2.2427  -20.1505   -9.4798 C   0  0  0  0  0  0  0  0  0  0  0  0
    3.5862  -20.0814   -9.8129 N   0  0  0  0  0  0  0  0  0  0  0  0
    4.2501  -20.8787  -10.6848 N   0  0  0  0  0  0  0  0  0  0  0  0
    5.4978  -20.4091  -10.6577 C   0  0  0  0  0  0  0  0  0  0  0  0
    5.6713  -19.3210   -9.7721 C   0  0  0  0  0  0  0  0  0  0  0  0
    4.4110  -19.1185   -9.2309 C   0  0  0  0  0  0  0  0  0  0  0  0
    3.9229  -18.2222   -8.3135 N   0  0  0  0  0  0  0  0  0  0  0  0
    0.2673  -15.9768   -7.7464 C   0  0  0  0  0  0  0  0  0  0  0  0
    1.7367  -15.9845   -7.3309 C   0  0  1  0  0  0  0  0  0  0  0  0
    1.9537  -15.2567   -5.9977 C   0  0  0  0  0  0  0  0  0  0  0  0
    1.7393  -16.3467   -4.9626 C   0  0  0  0  0  0  0  0  0  0  0  0
    2.3714  -17.5651   -5.6227 C   0  0  0  0  0  0  0  0  0  0  0  0
    2.1815  -17.3512   -7.0604 N   0  0  0  0  0  0  0  0  0  0  0  0
    6.8268  -18.6219   -9.5217 N   0  0  0  0  0  0  0  0  0  0  0  0
    6.8426  -17.1709   -9.6722 C   0  0  0  0  0  0  0  0  0  0  0  0
    8.1182  -19.2879   -9.6832 C   0  0  0  0  0  0  0  0  0  0  0  0
    0.7209  -19.3328   -8.3369 H   0  0  0  0  0  0  0  0  0  0  0  0
    1.6420  -20.8664   -9.9176 H   0  0  0  0  0  0  0  0  0  0  0  0
    6.2628  -20.8020  -11.2281 H   0  0  0  0  0  0  0  0  0  0  0  0
   -0.0432  -14.9714   -7.9407 H   0  0  0  0  0  0  0  0  0  0  0  0
   -0.3283  -16.3881   -6.9584 H   0  0  0  0  0  0  0  0  0  0  0  0
    0.1438  -16.5655   -8.6313 H   0  0  0  0  0  0  0  0  0  0  0  0
    2.2674  -15.5170   -8.1339 H   0  0  0  0  0  0  0  0  0  0  0  0
    1.2439  -14.4657   -5.8734 H   0  0  0  0  0  0  0  0  0  0  0  0
    2.9166  -14.7956   -5.9254 H   0  0  0  0  0  0  0  0  0  0  0  0
    0.6971  -16.5047   -4.7790 H   0  0  0  0  0  0  0  0  0  0  0  0
    2.1622  -16.1142   -4.0076 H   0  0  0  0  0  0  0  0  0  0  0  0
    1.8810  -18.4621   -5.3068 H   0  0  0  0  0  0  0  0  0  0  0  0
    3.4035  -17.6758   -5.3632 H   0  0  0  0  0  0  0  0  0  0  0  0
    5.8531  -16.7874   -9.5356 H   0  0  0  0  0  0  0  0  0  0  0  0
    7.1912  -16.9177  -10.6516 H   0  0  0  0  0  0  0  0  0  0  0  0
    7.4951  -16.7434   -8.9398 H   0  0  0  0  0  0  0  0  0  0  0  0
    7.9941  -20.3428   -9.5538 H   0  0  0  0  0  0  0  0  0  0  0  0
    8.8048  -18.9171   -8.9511 H   0  0  0  0  0  0  0  0  0  0  0  0
    8.5008  -19.0913  -10.6629 H   0  0  0  0  0  0  0  0  0  0  0  0
  1  2  1  0
  2  3  2  0
  2 19  1  0
  3  4  1  0
  3 20  1  0
  4  5  1  0
  5  6  2  0
  6  7  1  0
  6 21  1  0
  7 16  1  0
  7  8  2  0
  8  9  1  0
  8  4  1  0
  9  1  2  0
 10 11  1  0
 10 22  1  0
 10 23  1  0
 10 24  1  0
 11 12  1  0
 11 25  1  6
 12 13  1  0
 12 26  1  0
 12 27  1  0
 13 14  1  0
 13 28  1  0
 13 29  1  0
 14 15  1  0
 14 30  1  0
 14 31  1  0
 15  1  1  0
 15 11  1  0
 16 17  1  0
 16 18  1  0
 17 32  1  0
 17 33  1  0
 17 34  1  0
 18 35  1  0
 18 36  1  0
 18 37  1  0
M  END
>  <minimizedAffinity>  (6) 
-4.31738

>  <mol_id>  (6) 
95666

>  <source_index>  (6) 
5

>  <layer>  (6) 
L4

>  <uniprot>  (6) 
Q9NY59

>  <paff>  (6) 
6.4949000000000003

>  <smiles>  (6) 
CC1CCCN1c1ccn2ncc(N(C)C)c2n1

$$$$
L4:Q9NY59:119566
     RDKit          3D

 35 37  0  0  0  0  0  0  0  0999 V2000
   -0.6044  -15.1047   -6.1426 C   0  0  0  0  0  0  0  0  0  0  0  0
   -0.1063  -14.5475   -4.9427 C   0  0  0  0  0  0  0  0  0  0  0  0
    1.0075  -15.1358   -4.5057 N   0  0  0  0  0  0  0  0  0  0  0  0
    1.2574  -16.0875   -5.4371 N   0  0  0  0  0  0  0  0  0  0  0  0
    2.3217  -16.9754   -5.4547 C   0  0  0  0  0  0  0  0  0  0  0  0
    2.4381  -17.8722   -6.4404 C   0  0  0  0  0  0  0  0  0  0  0  0
    1.3660  -17.8738   -7.5031 C   0  0  0  0  0  0  0  0  0  0  0  0
    0.3744  -17.0114   -7.4845 N   0  0  0  0  0  0  0  0  0  0  0  0
    0.3004  -16.1084   -6.4531 C   0  0  0  0  0  0  0  0  0  0  0  0
    1.4403  -18.7968   -8.5483 N   0  0  0  0  0  0  0  0  0  0  0  0
    2.7761  -19.0779   -9.1275 C   0  0  0  0  0  0  0  0  0  0  0  0
    2.7430  -20.3683   -9.9551 C   0  0  0  0  0  0  0  0  0  0  0  0
    1.7440  -20.3077  -10.9841 O   0  0  0  0  0  0  0  0  0  0  0  0
    0.4500  -20.1115  -10.3983 C   0  0  0  0  0  0  0  0  0  0  0  0
    0.3906  -18.8089   -9.5890 C   0  0  0  0  0  0  0  0  0  0  0  0
   -1.5814  -13.8813   -8.0268 C   0  0  0  0  0  0  0  0  0  0  0  0
   -1.7239  -14.7232   -6.8406 N   0  0  0  0  0  0  0  0  0  0  0  0
   -2.9247  -15.5504   -6.7940 C   0  0  0  0  0  0  0  0  0  0  0  0
   -0.5608  -13.7614   -4.4524 H   0  0  0  0  0  0  0  0  0  0  0  0
    3.0282  -16.9444   -4.7031 H   0  0  0  0  0  0  0  0  0  0  0  0
    3.2281  -18.5355   -6.4730 H   0  0  0  0  0  0  0  0  0  0  0  0
    3.4875  -19.1859   -8.3355 H   0  0  0  0  0  0  0  0  0  0  0  0
    3.0542  -18.2652   -9.7655 H   0  0  0  0  0  0  0  0  0  0  0  0
    2.5252  -21.1915   -9.3071 H   0  0  0  0  0  0  0  0  0  0  0  0
    3.6980  -20.4928  -10.4212 H   0  0  0  0  0  0  0  0  0  0  0  0
    0.2338  -20.9342   -9.7493 H   0  0  0  0  0  0  0  0  0  0  0  0
   -0.2699  -20.0495  -11.1875 H   0  0  0  0  0  0  0  0  0  0  0  0
   -0.5688  -18.7280   -9.1222 H   0  0  0  0  0  0  0  0  0  0  0  0
    0.5501  -17.9832  -10.2506 H   0  0  0  0  0  0  0  0  0  0  0  0
   -2.5476  -13.6831   -8.4416 H   0  0  0  0  0  0  0  0  0  0  0  0
   -0.9786  -14.3864   -8.7523 H   0  0  0  0  0  0  0  0  0  0  0  0
   -1.1137  -12.9581   -7.7549 H   0  0  0  0  0  0  0  0  0  0  0  0
   -3.6902  -15.1018   -7.3920 H   0  0  0  0  0  0  0  0  0  0  0  0
   -3.2635  -15.6306   -5.7822 H   0  0  0  0  0  0  0  0  0  0  0  0
   -2.7010  -16.5255   -7.1735 H   0  0  0  0  0  0  0  0  0  0  0  0
  1  2  1  0
  2  3  2  0
  2 19  1  0
  3  4  1  0
  4  5  1  0
  5  6  2  0
  5 20  1  0
  6  7  1  0
  6 21  1  0
  7 10  1  0
  7  8  2  0
  8  9  1  0
  9  1  2  0
  9  4  1  0
 10 11  1  0
 11 12  1  0
 11 22  1  0
 11 23  1  0
 12 13  1  0
 12 24  1  0
 12 25  1  0
 13 14  1  0
 14 15  1  0
 14 26  1  0
 14 27  1  0
 15 10  1  0
 15 28  1  0
 15 29  1  0
 16 17  1  0
 16 30  1  0
 16 31  1  0
 16 32  1  0
 17 18  1  0
 17  1  1  0
 18 33  1  0
 18 34  1  0
 18 35  1  0
M  END
>  <minimizedAffinity>  (7) 
-3.99593

>  <mol_id>  (7) 
119566

>  <source_index>  (7) 
6

>  <layer>  (7) 
L4

>  <uniprot>  (7) 
Q9NY59

>  <paff>  (7) 
6.8860999999999999

>  <smiles>  (7) 
CN(C)c1cnn2ccc(N3CCOCC3)nc12

$$$$
L4:Q9NY59:129489
     RDKit          3D

 32 34  0  0  0  0  0  0  0  0999 V2000
   -0.6187  -19.6359  -10.5783 N   0  0  0  0  0  0  0  0  0  0  0  0
    0.6651  -19.6833  -10.1732 C   0  0  0  0  0  0  0  0  0  0  0  0
    1.7104  -20.4821  -10.6587 C   0  0  0  0  0  0  0  0  0  0  0  0
    2.8595  -20.2675  -10.0122 N   0  0  0  0  0  0  0  0  0  0  0  0
    2.5503  -19.3082   -9.0993 N   0  0  0  0  0  0  0  0  0  0  0  0
    3.3940  -18.7261   -8.1676 C   0  0  0  0  0  0  0  0  0  0  0  0
    2.9290  -17.7923   -7.3285 C   0  0  0  0  0  0  0  0  0  0  0  0
    1.4684  -17.4080   -7.4468 C   0  0  0  0  0  0  0  0  0  0  0  0
    0.6767  -17.9836   -8.3266 N   0  0  0  0  0  0  0  0  0  0  0  0
    1.2109  -18.9273   -9.1625 C   0  0  0  0  0  0  0  0  0  0  0  0
   -1.2826  -19.1331   -9.9922 H   0  0  0  0  0  0  0  0  0  0  0  0
   -1.0362  -20.3942  -11.1067 H   0  0  0  0  0  0  0  0  0  0  0  0
    0.9284  -16.4377   -6.6015 N   0  0  0  0  0  0  0  0  0  0  0  0
    1.2240  -16.3937   -5.1633 C   0  0  0  0  0  0  0  0  0  0  0  0
    1.1459  -14.9768   -4.6039 C   0  0  0  0  0  0  0  0  0  0  0  0
   -0.2091  -14.3205   -4.8640 C   0  0  0  0  0  0  0  0  0  0  0  0
   -0.7967  -14.7174   -6.2190 C   0  0  2  0  0  0  0  0  0  0  0  0
   -1.7870  -15.7340   -6.0012 O   0  0  0  0  0  0  0  0  0  0  0  0
    0.2804  -15.2415   -7.1823 C   0  0  0  0  0  0  0  0  0  0  0  0
   -1.3554  -16.5870   -6.2023 H   0  0  0  0  0  0  0  0  0  0  0  0
    1.6038  -21.1601  -11.4294 H   0  0  0  0  0  0  0  0  0  0  0  0
    4.3841  -19.0131   -8.1201 H   0  0  0  0  0  0  0  0  0  0  0  0
    3.5431  -17.3504   -6.6267 H   0  0  0  0  0  0  0  0  0  0  0  0
    2.2110  -16.7742   -5.0023 H   0  0  0  0  0  0  0  0  0  0  0  0
    0.4913  -16.9879   -4.6583 H   0  0  0  0  0  0  0  0  0  0  0  0
    1.9087  -14.3836   -5.0635 H   0  0  0  0  0  0  0  0  0  0  0  0
    1.2805  -15.0371   -3.5441 H   0  0  0  0  0  0  0  0  0  0  0  0
   -0.0868  -13.2578   -4.8402 H   0  0  0  0  0  0  0  0  0  0  0  0
   -0.8850  -14.6536   -4.1043 H   0  0  0  0  0  0  0  0  0  0  0  0
   -1.2310  -13.8500   -6.6706 H   0  0  0  0  0  0  0  0  0  0  0  0
    1.0157  -14.4807   -7.3418 H   0  0  0  0  0  0  0  0  0  0  0  0
   -0.1746  -15.5023   -8.1150 H   0  0  0  0  0  0  0  0  0  0  0  0
  1  2  1  0
  1 11  1  0
  1 12  1  0
  2  3  1  0
  3  4  2  0
  3 21  1  0
  4  5  1  0
  5  6  1  0
  6  7  2  0
  6 22  1  0
  7  8  1  0
  7 23  1  0
  8 13  1  0
  8  9  2  0
  9 10  1  0
 10  2  2  0
 10  5  1  0
 13 14  1  0
 14 15  1  0
 14 24  1  0
 14 25  1  0
 15 16  1  0
 15 26  1  0
 15 27  1  0
 16 17  1  0
 16 28  1  0
 16 29  1  0
 17 18  1  0
 17 19  1  0
 17 30  1  6
 18 20  1  0
 19 13  1  0
 19 31  1  0
 19 32  1  0
M  END
>  <minimizedAffinity>  (8) 
-4.87523

>  <mol_id>  (8) 
129489

>  <source_index>  (8) 
7

>  <layer>  (8) 
L4

>  <uniprot>  (8) 
Q9NY59

>  <paff>  (8) 
6.5528000000000004

>  <smiles>  (8) 
Nc1cnn2ccc(N3CCC[C@H](O)C3)nc12

$$$$
L4:Q9NY59:145307
     RDKit          3D

 37 39  0  0  0  0  0  0  0  0999 V2000
    0.7770  -16.2337   -6.2759 C   0  0  0  0  0  0  0  0  0  0  0  0
    1.3459  -15.3980   -5.1555 C   0  0  0  0  0  0  0  0  0  0  0  0
    0.5462  -14.4701   -4.6180 C   0  0  0  0  0  0  0  0  0  0  0  0
   -0.7486  -14.3046   -5.0846 N   0  0  0  0  0  0  0  0  0  0  0  0
   -1.6640  -13.4081   -4.6424 N   0  0  0  0  0  0  0  0  0  0  0  0
   -2.7376  -13.6532   -5.3941 C   0  0  0  0  0  0  0  0  0  0  0  0
   -2.5422  -14.6895   -6.3354 C   0  0  0  0  0  0  0  0  0  0  0  0
   -1.2375  -15.1052   -6.1179 C   0  0  0  0  0  0  0  0  0  0  0  0
   -0.4545  -16.0670   -6.7062 N   0  0  0  0  0  0  0  0  0  0  0  0
    2.4143  -19.4069   -9.7295 C   0  0  0  0  0  0  0  0  0  0  0  0
    2.1309  -19.0064   -8.2929 C   0  0  1  0  0  0  0  0  0  0  0  0
    3.3729  -18.5466   -7.5382 C   0  0  0  0  0  0  0  0  0  0  0  0
    2.7863  -17.7770   -6.3585 C   0  0  0  0  0  0  0  0  0  0  0  0
    1.5528  -17.2076   -6.8780 N   0  0  0  0  0  0  0  0  0  0  0  0
    1.2055  -17.7923   -8.1726 C   0  0  0  0  0  0  0  0  0  0  0  0
   -3.4491  -15.1754   -7.2452 N   0  0  0  0  0  0  0  0  0  0  0  0
   -4.1175  -16.4489   -6.9838 C   0  0  0  0  0  0  0  0  0  0  0  0
   -3.3408  -14.7960   -8.6496 C   0  0  0  0  0  0  0  0  0  0  0  0
    2.3113  -15.5365   -4.8182 H   0  0  0  0  0  0  0  0  0  0  0  0
    0.8953  -13.8739   -3.8514 H   0  0  0  0  0  0  0  0  0  0  0  0
   -3.6256  -13.1362   -5.2980 H   0  0  0  0  0  0  0  0  0  0  0  0
    3.0636  -20.2573   -9.7412 H   0  0  0  0  0  0  0  0  0  0  0  0
    2.8838  -18.5926  -10.2408 H   0  0  0  0  0  0  0  0  0  0  0  0
    1.4953  -19.6531  -10.2191 H   0  0  0  0  0  0  0  0  0  0  0  0
    1.7031  -19.9012   -7.8915 H   0  0  0  0  0  0  0  0  0  0  0  0
    3.9815  -17.9120   -8.1480 H   0  0  0  0  0  0  0  0  0  0  0  0
    4.0115  -19.3527   -7.2426 H   0  0  0  0  0  0  0  0  0  0  0  0
    3.4551  -17.0051   -6.0393 H   0  0  0  0  0  0  0  0  0  0  0  0
    2.6208  -18.4010   -5.5052 H   0  0  0  0  0  0  0  0  0  0  0  0
    1.3867  -17.0963   -8.9649 H   0  0  0  0  0  0  0  0  0  0  0  0
    0.1707  -18.0557   -8.2404 H   0  0  0  0  0  0  0  0  0  0  0  0
   -4.1423  -16.6289   -5.9293 H   0  0  0  0  0  0  0  0  0  0  0  0
   -3.5820  -17.2387   -7.4679 H   0  0  0  0  0  0  0  0  0  0  0  0
   -5.1174  -16.4113   -7.3628 H   0  0  0  0  0  0  0  0  0  0  0  0
   -2.8386  -13.8543   -8.7270 H   0  0  0  0  0  0  0  0  0  0  0  0
   -4.3199  -14.7140   -9.0734 H   0  0  0  0  0  0  0  0  0  0  0  0
   -2.7845  -15.5414   -9.1785 H   0  0  0  0  0  0  0  0  0  0  0  0
  1  2  1  0
  2  3  2  0
  2 19  1  0
  3  4  1  0
  3 20  1  0
  4  5  1  0
  5  6  2  0
  6  7  1  0
  6 21  1  0
  7 16  1  0
  7  8  2  0
  8  9  1  0
  8  4  1  0
  9  1  2  0
 10 11  1  0
 10 22  1  0
 10 23  1  0
 10 24  1  0
 11 12  1  0
 11 25  1  1
 12 13  1  0
 12 26  1  0
 12 27  1  0
 13 14  1  0
 13 28  1  0
 13 29  1  0
 14  1  1  0
 14 15  1  0
 15 11  1  0
 15 30  1  0
 15 31  1  0
 16 17  1  0
 16 18  1  0
 17 32  1  0
 17 33  1  0
 17 34  1  0
 18 35  1  0
 18 36  1  0
 18 37  1  0
M  END
>  <minimizedAffinity>  (9) 
-4.52143

>  <mol_id>  (9) 
145307

>  <source_index>  (9) 
8

>  <layer>  (9) 
L4

>  <uniprot>  (9) 
Q9NY59

>  <paff>  (9) 
6.5228999999999999

>  <smiles>  (9) 
CC1CCN(c2ccn3ncc(N(C)C)c3n2)C1

$$$$
L4:Q9NY59:146204
     RDKit          3D

 41 44  0  0  0  0  0  0  0  0999 V2000
    2.7227  -20.3028  -10.9982 C   0  0  0  0  0  0  0  0  0  0  0  0
    3.9990  -20.7620  -11.3962 C   0  0  0  0  0  0  0  0  0  0  0  0
    4.9808  -20.3777  -10.5799 N   0  0  0  0  0  0  0  0  0  0  0  0
    4.3427  -19.6638   -9.6208 N   0  0  0  0  0  0  0  0  0  0  0  0
    4.9196  -19.0424   -8.5242 C   0  0  0  0  0  0  0  0  0  0  0  0
    4.1625  -18.3636   -7.6550 C   0  0  0  0  0  0  0  0  0  0  0  0
    2.6785  -18.3116   -7.9258 C   0  0  0  0  0  0  0  0  0  0  0  0
    2.1468  -18.9000   -8.9749 N   0  0  0  0  0  0  0  0  0  0  0  0
    2.9656  -19.5889   -9.8346 C   0  0  0  0  0  0  0  0  0  0  0  0
    1.8395  -17.6251   -7.0637 N   0  0  0  0  0  0  0  0  0  0  0  0
    2.2071  -17.1124   -5.7516 C   0  0  0  0  0  0  0  0  0  0  0  0
    0.8853  -16.7152   -5.0791 C   0  0  1  0  0  0  0  0  0  0  0  0
    0.8894  -15.3300   -4.4506 C   0  0  0  0  0  0  0  0  0  0  0  0
    0.7746  -14.3815   -5.6359 C   0  0  0  0  0  0  0  0  0  0  0  0
   -0.0691  -15.1248   -6.6702 C   0  0  0  0  0  0  0  0  0  0  0  0
   -0.1126  -16.5957   -6.2284 C   0  0  1  0  0  0  0  0  0  0  0  0
    0.3943  -17.5898   -7.2642 C   0  0  0  0  0  0  0  0  0  0  0  0
    1.4131  -20.3353  -13.0671 C   0  0  0  0  0  0  0  0  0  0  0  0
    1.5201  -20.5287  -11.6219 N   0  0  0  0  0  0  0  0  0  0  0  0
    0.5664  -21.4660  -11.0387 C   0  0  0  0  0  0  0  0  0  0  0  0
    4.1558  -21.3390  -12.2374 H   0  0  0  0  0  0  0  0  0  0  0  0
    5.9393  -19.1038   -8.3775 H   0  0  0  0  0  0  0  0  0  0  0  0
    4.5758  -17.8951   -6.8336 H   0  0  0  0  0  0  0  0  0  0  0  0
    2.8473  -16.2607   -5.8492 H   0  0  0  0  0  0  0  0  0  0  0  0
    2.7408  -17.8404   -5.1771 H   0  0  0  0  0  0  0  0  0  0  0  0
    0.6786  -17.4339   -4.3138 H   0  0  0  0  0  0  0  0  0  0  0  0
    1.7996  -15.1592   -3.9147 H   0  0  0  0  0  0  0  0  0  0  0  0
    0.0978  -15.1989   -3.7427 H   0  0  0  0  0  0  0  0  0  0  0  0
    1.7431  -14.1593   -6.0327 H   0  0  0  0  0  0  0  0  0  0  0  0
    0.3314  -13.4483   -5.3573 H   0  0  0  0  0  0  0  0  0  0  0  0
    0.3785  -15.0436   -7.6387 H   0  0  0  0  0  0  0  0  0  0  0  0
   -1.0543  -14.7119   -6.7323 H   0  0  0  0  0  0  0  0  0  0  0  0
   -1.1353  -16.8236   -6.0116 H   0  0  0  0  0  0  0  0  0  0  0  0
    0.1582  -17.2579   -8.2536 H   0  0  0  0  0  0  0  0  0  0  0  0
   -0.0545  -18.5549   -7.1542 H   0  0  0  0  0  0  0  0  0  0  0  0
    0.4145  -20.5539  -13.3832 H   0  0  0  0  0  0  0  0  0  0  0  0
    2.0966  -20.9901  -13.5661 H   0  0  0  0  0  0  0  0  0  0  0  0
    1.6499  -19.3204  -13.3096 H   0  0  0  0  0  0  0  0  0  0  0  0
   -0.3071  -21.5155  -11.6546 H   0  0  0  0  0  0  0  0  0  0  0  0
    0.2936  -21.1338  -10.0588 H   0  0  0  0  0  0  0  0  0  0  0  0
    1.0133  -22.4361  -10.9749 H   0  0  0  0  0  0  0  0  0  0  0  0
  1  2  1  0
  2  3  2  0
  2 21  1  0
  3  4  1  0
  4  5  1  0
  5  6  2  0
  5 22  1  0
  6  7  1  0
  6 23  1  0
  7 10  1  0
  7  8  2  0
  8  9  1  0
  9  1  2  0
  9  4  1  0
 10 11  1  0
 11 12  1  0
 11 24  1  0
 11 25  1  0
 12 13  1  0
 12 26  1  1
 13 14  1  0
 13 27  1  0
 13 28  1  0
 14 15  1  0
 14 29  1  0
 14 30  1  0
 15 16  1  0
 15 31  1  0
 15 32  1  0
 16 17  1  0
 16 12  1  0
 16 33  1  1
 17 10  1  0
 17 34  1  0
 17 35  1  0
 18 19  1  0
 18 36  1  0
 18 37  1  0
 18 38  1  0
 19 20  1  0
 19  1  1  0
 20 39  1  0
 20 40  1  0
 20 41  1  0
M  END
>  <minimizedAffinity>  (10) 
-4.95619

>  <mol_id>  (10) 
146204

>  <source_index>  (10) 
9

>  <layer>  (10) 
L4

>  <uniprot>  (10) 
Q9NY59

>  <paff>  (10) 
6.9585999999999997

>  <smiles>  (10) 
CN(C)c1cnn2ccc(N3CC4CCCC4C3)nc12

$$$$
