L2:Q14145:122553


 45 50  0  0  0  0  0  0  0  0999 V2000
    5.7798    1.5314  -26.1450 C   0  0  0  0  0  0  0  0  0  0  0  0
    5.2050    0.2566  -26.3481 C   0  0  0  0  0  0  0  0  0  0  0  0
    5.7308   -0.6866  -27.2390 C   0  0  0  0  0  0  0  0  0  0  0  0
    6.8792   -0.3339  -27.9601 C   0  0  0  0  0  0  0  0  0  0  0  0
    7.5021    0.9292  -27.7930 C   0  0  0  0  0  0  0  0  0  0  0  0
    8.6741    1.4616  -28.4312 C   0  0  0  0  0  0  0  0  0  0  0  0
    8.9825    2.7317  -28.0111 C   0  0  0  0  0  0  0  0  0  0  0  0
    7.8773    3.2991  -26.8502 S   0  0  0  0  0  0  0  0  0  0  0  0
    6.9461    1.8395  -26.8876 C   0  0  0  0  0  0  0  0  0  0  0  0
    5.1239    2.4720  -25.1484 C   0  0  0  0  0  0  0  0  0  0  0  0
    3.3006    1.1268  -22.9084 C   0  0  0  0  0  0  0  0  0  0  0  0
    4.8225    1.0033  -23.2067 C   0  0  0  0  0  0  0  0  0  0  0  0
    5.5088    2.1947  -23.7490 N   0  0  0  0  0  0  0  0  0  0  0  0
    5.3490    3.4157  -22.9082 C   0  0  0  0  0  0  0  0  0  0  0  0
    6.6142    4.2799  -23.0538 C   0  0  0  0  0  0  0  0  0  0  0  0
    5.0344    3.1504  -21.4317 C   0  0  0  0  0  0  0  0  0  0  0  0
    5.9372    3.4963  -20.4771 N   0  0  0  0  0  0  0  0  0  0  0  0
    5.5933    3.2914  -19.1946 C   0  0  0  0  0  0  0  0  0  0  0  0
    6.5387    3.6632  -18.2856 O   0  0  0  0  0  0  0  0  0  0  0  0
    4.3815    2.7594  -18.7871 C   0  0  0  0  0  0  0  0  0  0  0  0
    3.4653    2.3995  -19.7692 C   0  0  0  0  0  0  0  0  0  0  0  0
    3.8056    2.5726  -21.1052 C   0  0  0  0  0  0  0  0  0  0  0  0
    2.8949    2.2254  -22.0576 O   0  0  0  0  0  0  0  0  0  0  0  0
    6.1998    3.4671  -17.4015 H   0  0  0  0  0  0  0  0  0  0  0  0
    1.2008   -0.1609  -22.1753 C   0  0  0  0  0  0  0  0  0  0  0  0
    2.7163   -0.1627  -22.2986 C   0  0  0  0  0  0  0  0  0  0  0  0
    5.0172   -2.0329  -27.3845 C   0  0  0  0  0  0  0  0  0  0  0  0
    4.6824   -2.6934  -26.0416 C   0  0  0  0  0  0  0  0  0  0  0  0
    5.7221   -3.4223  -25.4137 C   0  0  0  0  0  0  0  0  0  0  0  0
    5.6392   -4.0632  -24.2247 N   0  0  0  0  0  0  0  0  0  0  0  0
    4.4406   -3.9772  -23.6403 C   0  0  0  0  0  0  0  0  0  0  0  0
    3.3319   -3.3129  -24.1835 C   0  0  0  0  0  0  0  0  0  0  0  0
    3.4351   -2.6142  -25.3783 C   0  0  0  0  0  0  0  0  0  0  0  0
    2.2382   -1.8961  -25.9216 C   0  0  0  0  0  0  0  0  0  0  0  0
    2.2490   -3.4438  -23.3018 N   0  0  0  0  0  0  0  0  0  0  0  0
    2.6255   -4.3018  -22.2291 N   0  0  0  0  0  0  0  0  0  0  0  0
    4.0223   -4.5301  -22.4092 N   0  0  0  0  0  0  0  0  0  0  0  0
    4.7531   -5.6351  -21.8460 C   0  0  0  0  0  0  0  0  0  0  0  0
    1.2942   -3.3929  -23.6333 H   0  0  0  0  0  0  0  0  0  0  0  0
    2.4899   -3.8093  -21.3391 H   0  0  0  0  0  0  0  0  0  0  0  0
    5.6497   -3.0733  -28.3264 C   0  0  0  0  0  0  0  0  0  0  0  0
    5.1544   -2.8999  -29.7342 C   0  0  0  0  0  0  0  0  0  0  0  0
    4.4557   -1.9930  -30.1529 O   0  0  0  0  0  0  0  0  0  0  0  0
    5.5398   -3.9002  -30.5495 O   0  0  0  0  0  0  0  0  0  0  0  0
    5.1357   -3.6693  -31.4132 H   0  0  0  0  0  0  0  0  0  0  0  0
 25 26  1  0  0  0
 26 11  1  0  0  0
 11 12  1  0  0  0
 12 13  1  0  0  0
 13 10  1  0  0  0
 10  1  1  0  0  0
  1  2  2  0  0  0
  2  3  1  0  0  0
  3 27  1  0  0  0
 27 41  1  0  0  0
 41 42  1  0  0  0
 42 43  2  0  0  0
 42 44  1  0  0  0
 27 28  1  0  0  0
 28 29  2  0  0  0
 29 30  1  0  0  0
 30 31  2  0  0  0
 31 32  1  0  0  0
 32 33  2  0  0  0
 33 34  1  0  0  0
 32 35  1  0  0  0
 35 36  1  0  0  0
 36 37  1  0  0  0
 37 38  1  0  0  0
  3  4  2  0  0  0
  4  5  1  0  0  0
  5  6  1  0  0  0
  6  7  2  0  0  0
  7  8  1  0  0  0
  8  9  1  0  0  0
 13 14  1  0  0  0
 14 15  1  0  0  0
 14 16  1  0  0  0
 16 17  2  0  0  0
 17 18  1  0  0  0
 18 19  1  0  0  0
 18 20  2  0  0  0
 20 21  1  0  0  0
 21 22  2  0  0  0
 22 23  1  0  0  0
 23 11  1  0  0  0
  9  1  1  0  0  0
 22 16  1  0  0  0
 33 28  1  0  0  0
  9  5  2  0  0  0
 37 31  1  0  0  0
 44 45  1  0  0  0
 35 39  1  0  0  0
 36 40  1  0  0  0
 19 24  1  0  0  0
M  END
> <minimizedAffinity>
-10.13918

$$$$
