L2:Q14145:122553
     RDKit          3D

 75 80  0  0  0  0  0  0  0  0999 V2000
   -4.6210   -2.6961   -1.1457 C   0  0  0  0  0  0  0  0  0  0  0  0
   -5.2124   -1.3060   -0.9730 C   0  0  0  0  0  0  0  0  0  0  0  0
   -4.2106   -0.1601   -1.2170 C   0  0  2  0  0  0  0  0  0  0  0  0
   -3.0337   -0.1766   -0.1997 C   0  0  0  0  0  0  0  0  0  0  0  0
   -2.0313    0.9048   -0.3007 N   0  0  0  0  0  0  0  0  0  0  0  0
   -1.1731    0.7607   -1.4949 C   0  0  0  0  0  0  0  0  0  0  0  0
   -0.2637   -0.4547   -1.4328 C   0  0  0  0  0  0  0  0  0  0  0  0
    0.6464   -0.5617   -0.3571 C   0  0  0  0  0  0  0  0  0  0  0  0
    1.5302   -1.6368   -0.2068 C   0  0  0  0  0  0  0  0  0  0  0  0
    2.4651   -1.6515    1.0051 C   0  0  1  0  0  0  0  0  0  0  0  0
    3.2177   -2.9604    1.3051 C   0  0  0  0  0  0  0  0  0  0  0  0
    2.2720   -4.0360    1.7590 C   0  0  0  0  0  0  0  0  0  0  0  0
    1.4344   -3.9439    2.6398 O   0  0  0  0  0  0  0  0  0  0  0  0
    2.4463   -5.1965    1.0981 O   0  0  0  0  0  0  0  0  0  0  0  0
    3.4502   -0.4764    1.0291 C   0  0  0  0  0  0  0  0  0  0  0  0
    3.4717    0.3125    2.2054 C   0  0  0  0  0  0  0  0  0  0  0  0
    4.2733    1.3785    2.4343 N   0  0  0  0  0  0  0  0  0  0  0  0
    5.0900    1.6757    1.4193 C   0  0  0  0  0  0  0  0  0  0  0  0
    5.1317    0.9874    0.1985 C   0  0  0  0  0  0  0  0  0  0  0  0
    4.3445   -0.1359   -0.0132 C   0  0  0  0  0  0  0  0  0  0  0  0
    4.4279   -0.8626   -1.3202 C   0  0  0  0  0  0  0  0  0  0  0  0
    6.0951    1.5864   -0.6262 N   0  0  0  0  0  0  0  0  0  0  0  0
    6.6024    2.7488    0.0219 N   0  0  0  0  0  0  0  0  0  0  0  0
    6.0396    2.7183    1.3326 N   0  0  0  0  0  0  0  0  0  0  0  0
    5.9163    3.8605    2.2001 C   0  0  0  0  0  0  0  0  0  0  0  0
    1.4961   -2.6499   -1.1742 C   0  0  0  0  0  0  0  0  0  0  0  0
    0.6076   -2.5927   -2.2781 C   0  0  0  0  0  0  0  0  0  0  0  0
    0.4343   -3.5214   -3.3606 C   0  0  0  0  0  0  0  0  0  0  0  0
   -0.5286   -3.1267   -4.2560 C   0  0  0  0  0  0  0  0  0  0  0  0
   -1.2329   -1.6437   -3.8137 S   0  0  0  0  0  0  0  0  0  0  0  0
   -0.2547   -1.4968   -2.3922 C   0  0  0  0  0  0  0  0  0  0  0  0
   -2.6160    2.2749   -0.2360 C   0  0  2  0  0  0  0  0  0  0  0  0
   -1.5909    3.2144    0.4239 C   0  0  0  0  0  0  0  0  0  0  0  0
   -3.9752    2.3681    0.4665 C   0  0  0  0  0  0  0  0  0  0  0  0
   -4.0854    3.0546    1.6338 N   0  0  0  0  0  0  0  0  0  0  0  0
   -5.3074    3.1517    2.1834 C   0  0  0  0  0  0  0  0  0  0  0  0
   -5.3525    3.8562    3.3496 O   0  0  0  0  0  0  0  0  0  0  0  0
   -6.4554    2.6050    1.6349 C   0  0  0  0  0  0  0  0  0  0  0  0
   -6.3346    1.8963    0.4447 C   0  0  0  0  0  0  0  0  0  0  0  0
   -5.0781    1.7545   -0.1313 C   0  0  0  0  0  0  0  0  0  0  0  0
   -4.9747    1.0663   -1.3030 O   0  0  0  0  0  0  0  0  0  0  0  0
   -4.1442   -2.8022   -2.1250 H   0  0  0  0  0  0  0  0  0  0  0  0
   -3.8815   -2.9198   -0.3718 H   0  0  0  0  0  0  0  0  0  0  0  0
   -5.4111   -3.4503   -1.0716 H   0  0  0  0  0  0  0  0  0  0  0  0
   -6.0544   -1.1927   -1.6681 H   0  0  0  0  0  0  0  0  0  0  0  0
   -5.6452   -1.2169    0.0309 H   0  0  0  0  0  0  0  0  0  0  0  0
   -3.7957   -0.3001   -2.2215 H   0  0  0  0  0  0  0  0  0  0  0  0
   -2.5194   -1.1417   -0.2632 H   0  0  0  0  0  0  0  0  0  0  0  0
   -3.4329   -0.1721    0.8239 H   0  0  0  0  0  0  0  0  0  0  0  0
   -1.7780    0.7649   -2.4073 H   0  0  0  0  0  0  0  0  0  0  0  0
   -0.5004    1.6222   -1.5904 H   0  0  0  0  0  0  0  0  0  0  0  0
    0.6439    0.2350    0.3905 H   0  0  0  0  0  0  0  0  0  0  0  0
    1.7763   -1.5041    1.8520 H   0  0  0  0  0  0  0  0  0  0  0  0
    3.7942   -3.3121    0.4439 H   0  0  0  0  0  0  0  0  0  0  0  0
    3.9397   -2.8241    2.1206 H   0  0  0  0  0  0  0  0  0  0  0  0
    1.7883   -5.8003    1.5044 H   0  0  0  0  0  0  0  0  0  0  0  0
    2.8060    0.0875    3.0378 H   0  0  0  0  0  0  0  0  0  0  0  0
    3.6419   -0.5156   -1.9976 H   0  0  0  0  0  0  0  0  0  0  0  0
    5.3928   -0.6974   -1.8112 H   0  0  0  0  0  0  0  0  0  0  0  0
    4.3495   -1.9429   -1.1881 H   0  0  0  0  0  0  0  0  0  0  0  0
    6.0350    1.5220   -1.6344 H   0  0  0  0  0  0  0  0  0  0  0  0
    7.6222    2.6711    0.1054 H   0  0  0  0  0  0  0  0  0  0  0  0
    6.7871    4.5164    2.0950 H   0  0  0  0  0  0  0  0  0  0  0  0
    5.0216    4.4430    1.9552 H   0  0  0  0  0  0  0  0  0  0  0  0
    5.8605    3.5565    3.2509 H   0  0  0  0  0  0  0  0  0  0  0  0
    2.1598   -3.5075   -1.1142 H   0  0  0  0  0  0  0  0  0  0  0  0
    0.9994   -4.4391   -3.4685 H   0  0  0  0  0  0  0  0  0  0  0  0
   -0.8501   -3.6404   -5.1516 H   0  0  0  0  0  0  0  0  0  0  0  0
   -2.7888    2.6507   -1.2553 H   0  0  0  0  0  0  0  0  0  0  0  0
   -0.6465    3.2456   -0.1284 H   0  0  0  0  0  0  0  0  0  0  0  0
   -1.9697    4.2425    0.4616 H   0  0  0  0  0  0  0  0  0  0  0  0
   -1.3643    2.9034    1.4508 H   0  0  0  0  0  0  0  0  0  0  0  0
   -6.2667    3.8585    3.6647 H   0  0  0  0  0  0  0  0  0  0  0  0
   -7.4239    2.7185    2.1052 H   0  0  0  0  0  0  0  0  0  0  0  0
   -7.2059    1.4519   -0.0258 H   0  0  0  0  0  0  0  0  0  0  0  0
  1  2  1  0
  2  3  1  0
  3  4  1  0
  4  5  1  0
  5  6  1  0
  6  7  1  0
  7  8  2  0
  8  9  1  0
  9 10  1  0
 10 11  1  0
 11 12  1  0
 12 13  2  0
 12 14  1  0
 10 15  1  0
 15 16  2  0
 16 17  1  0
 17 18  2  0
 18 19  1  0
 19 20  2  0
 20 21  1  0
 19 22  1  0
 22 23  1  0
 23 24  1  0
 24 25  1  0
  9 26  2  0
 26 27  1  0
 27 28  1  0
 28 29  2  0
 29 30  1  0
 30 31  1  0
  5 32  1  0
 32 33  1  0
 32 34  1  0
 34 35  2  0
 35 36  1  0
 36 37  1  0
 36 38  2  0
 38 39  1  0
 39 40  2  0
 40 41  1  0
 41  3  1  0
 31  7  1  0
 40 34  1  0
 20 15  1  0
 31 27  2  0
 24 18  1  0
  1 42  1  0
  1 43  1  0
  1 44  1  0
  2 45  1  0
  2 46  1  0
  3 47  1  6
  4 48  1  0
  4 49  1  0
  6 50  1  0
  6 51  1  0
  8 52  1  0
 10 53  1  1
 11 54  1  0
 11 55  1  0
 14 56  1  0
 16 57  1  0
 21 58  1  0
 21 59  1  0
 21 60  1  0
 22 61  1  0
 23 62  1  0
 25 63  1  0
 25 64  1  0
 25 65  1  0
 26 66  1  0
 28 67  1  0
 29 68  1  0
 32 69  1  6
 33 70  1  0
 33 71  1  0
 33 72  1  0
 37 73  1  0
 38 74  1  0
 39 75  1  0
M  END
>  <mol_id>  (1) 
122553

>  <source_index>  (1) 
8

>  <layer>  (1) 
L2

>  <uniprot>  (1) 
Q14145

>  <paff>  (1) 
7.6989999999999998

>  <smiles>  (1) 
CC[C@@H]1CN(Cc2cc([C@@H](CC(=O)O)c3cnc4c(c3C)NNN4C)cc3ccsc23)C(C)c2nc(O)ccc2O1

$$$$
