L2:Q14145:1372


 45 50  0  0  0  0  0  0  0  0999 V2000
    3.4150    1.2258  -21.1973 C   0  0  0  0  0  0  0  0  0  0  0  0
    3.7067   -0.0848  -21.6352 C   0  0  0  0  0  0  0  0  0  0  0  0
    2.7706   -1.1271  -21.6095 C   0  0  0  0  0  0  0  0  0  0  0  0
    1.4937   -0.8433  -21.1123 C   0  0  0  0  0  0  0  0  0  0  0  0
    1.1427    0.4563  -20.6649 C   0  0  0  0  0  0  0  0  0  0  0  0
   -0.1058    0.9359  -20.1402 C   0  0  0  0  0  0  0  0  0  0  0  0
   -0.0722    2.2679  -19.8094 C   0  0  0  0  0  0  0  0  0  0  0  0
    1.4502    2.9585  -20.1216 S   0  0  0  0  0  0  0  0  0  0  0  0
    2.1064    1.4691  -20.7151 C   0  0  0  0  0  0  0  0  0  0  0  0
    4.5108    2.2690  -21.2668 C   0  0  0  0  0  0  0  0  0  0  0  0
    4.9564    1.5293  -24.5086 C   0  0  0  0  0  0  0  0  0  0  0  0
    3.9035    2.3037  -23.6937 C   0  0  0  0  0  0  0  0  0  0  0  0
    4.4503    3.0393  -22.5323 N   0  0  0  0  0  0  0  0  0  0  0  0
    5.6629    4.1533  -22.8325 S   0  0  0  0  0  0  0  0  0  0  0  0
    5.9049    4.8728  -21.5994 O   0  0  0  0  0  0  0  0  0  0  0  0
    5.3281    4.8628  -24.0484 O   0  0  0  0  0  0  0  0  0  0  0  0
    7.1150    3.2369  -23.1737 C   0  0  0  0  0  0  0  0  0  0  0  0
    8.3381    3.9088  -23.0187 C   0  0  0  0  0  0  0  0  0  0  0  0
    9.5234    3.2231  -23.2313 C   0  0  0  0  0  0  0  0  0  0  0  0
   11.0372    4.0069  -23.0566 Cl  0  0  0  0  0  0  0  0  0  0  0  0
    9.4458    1.8889  -23.5796 C   0  0  0  0  0  0  0  0  0  0  0  0
    8.2757    1.2216  -23.7271 N   0  0  0  0  0  0  0  0  0  0  0  0
    7.1186    1.9040  -23.5386 C   0  0  0  0  0  0  0  0  0  0  0  0
    6.0442    1.0897  -23.6900 O   0  0  0  0  0  0  0  0  0  0  0  0
    6.0305    1.1823  -26.7933 C   0  0  0  0  0  0  0  0  0  0  0  0
    5.3380    2.1690  -25.8591 C   0  0  0  0  0  0  0  0  0  0  0  0
    3.2065   -2.5085  -22.1132 C   0  0  0  0  0  0  0  0  0  0  0  0
    3.8330   -2.4789  -23.5200 C   0  0  0  0  0  0  0  0  0  0  0  0
    5.2182   -2.7436  -23.6545 C   0  0  0  0  0  0  0  0  0  0  0  0
    5.8861   -2.7182  -24.8855 C   0  0  0  0  0  0  0  0  0  0  0  0
    5.0936   -2.4098  -25.9911 C   0  0  0  0  0  0  0  0  0  0  0  0
    3.7341   -2.1412  -25.9132 C   0  0  0  0  0  0  0  0  0  0  0  0
    3.2506   -1.8725  -27.1709 N   0  0  0  0  0  0  0  0  0  0  0  0
    4.2539   -1.9628  -28.0319 N   0  0  0  0  0  0  0  0  0  0  0  0
    5.3540   -2.2894  -27.3306 N   0  0  0  0  0  0  0  0  0  0  0  0
    6.6115   -2.4682  -28.0065 C   0  0  0  0  0  0  0  0  0  0  0  0
    3.0601   -2.1673  -24.6723 C   0  0  0  0  0  0  0  0  0  0  0  0
    1.5837   -1.8945  -24.6006 C   0  0  0  0  0  0  0  0  0  0  0  0
    7.2143   -2.9589  -25.0862 O   0  0  0  0  0  0  0  0  0  0  0  0
    7.6625   -4.2954  -24.8865 C   0  0  0  0  0  0  0  0  0  0  0  0
    2.2127   -3.6767  -21.9528 C   0  0  0  0  0  0  0  0  0  0  0  0
    2.4507   -4.5682  -20.7619 C   0  0  0  0  0  0  0  0  0  0  0  0
    3.4943   -5.1115  -20.4413 O   0  0  0  0  0  0  0  0  0  0  0  0
    1.3313   -4.7693  -20.0391 O   0  0  0  0  0  0  0  0  0  0  0  0
    1.6156   -5.3426  -19.2970 H   0  0  0  0  0  0  0  0  0  0  0  0
 25 26  1  0  0  0
 26 11  1  0  0  0
 11 12  1  0  0  0
 12 13  1  0  0  0
 13 10  1  0  0  0
 10  1  1  0  0  0
  1  2  2  0  0  0
  2  3  1  0  0  0
  3 27  1  0  0  0
 27 41  1  0  0  0
 41 42  1  0  0  0
 42 43  2  0  0  0
 42 44  1  0  0  0
 27 28  1  0  0  0
 28 29  2  0  0  0
 29 30  1  0  0  0
 30 39  1  0  0  0
 39 40  1  0  0  0
 30 31  2  0  0  0
 31 32  1  0  0  0
 32 33  1  0  0  0
 33 34  2  0  0  0
 34 35  1  0  0  0
 35 36  1  0  0  0
 32 37  2  0  0  0
 37 38  1  0  0  0
  3  4  2  0  0  0
  4  5  1  0  0  0
  5  6  1  0  0  0
  6  7  2  0  0  0
  7  8  1  0  0  0
  8  9  1  0  0  0
 13 14  1  0  0  0
 14 15  2  0  0  0
 14 16  2  0  0  0
 14 17  1  0  0  0
 17 18  2  0  0  0
 18 19  1  0  0  0
 19 20  1  0  0  0
 19 21  2  0  0  0
 21 22  1  0  0  0
 22 23  2  0  0  0
 23 24  1  0  0  0
 24 11  1  0  0  0
  9  1  1  0  0  0
 23 17  1  0  0  0
 37 28  1  0  0  0
  9  5  2  0  0  0
 35 31  1  0  0  0
 44 45  1  0  0  0
M  END
> <minimizedAffinity>
-9.79888

$$$$
