L2:Q14145:143441
     RDKit          3D

 74 79  0  0  0  0  0  0  0  0999 V2000
   -1.8523    2.7332   -1.0478 C   0  0  0  0  0  0  0  0  0  0  0  0
   -2.5363    2.6527    0.3096 C   0  0  0  0  0  0  0  0  0  0  0  0
   -1.6492    2.0224    1.4050 C   0  0  2  0  0  0  0  0  0  0  0  0
   -1.2548    0.5496    1.2094 C   0  0  0  0  0  0  0  0  0  0  0  0
   -1.9881   -0.4006    2.0912 N   0  0  0  0  0  0  0  0  0  0  0  0
   -1.3342   -1.7316    2.2520 C   0  0  0  0  0  0  0  0  0  0  0  0
   -0.8821   -2.4227    0.9791 C   0  0  0  0  0  0  0  0  0  0  0  0
    0.4172   -2.1597    0.4885 C   0  0  0  0  0  0  0  0  0  0  0  0
    0.9053   -2.6845   -0.7140 C   0  0  0  0  0  0  0  0  0  0  0  0
    2.3095   -2.2822   -1.1762 C   0  0  1  0  0  0  0  0  0  0  0  0
    2.8588   -3.0330   -2.4054 C   0  0  0  0  0  0  0  0  0  0  0  0
    4.3466   -2.8637   -2.5459 C   0  0  0  0  0  0  0  0  0  0  0  0
    5.1610   -2.7668   -1.6436 O   0  0  0  0  0  0  0  0  0  0  0  0
    4.7453   -2.8829   -3.8318 O   0  0  0  0  0  0  0  0  0  0  0  0
    2.4738   -0.7509   -1.3210 C   0  0  0  0  0  0  0  0  0  0  0  0
    3.5433   -0.1608   -0.5965 C   0  0  0  0  0  0  0  0  0  0  0  0
    3.8158    1.2137   -0.6062 C   0  0  0  0  0  0  0  0  0  0  0  0
    4.8140    1.8510    0.0647 O   0  0  0  0  0  0  0  0  0  0  0  0
    5.7489    1.0608    0.7840 C   0  0  0  0  0  0  0  0  0  0  0  0
    6.6584    1.8861    1.3472 F   0  0  0  0  0  0  0  0  0  0  0  0
    6.3998    0.2133   -0.0372 F   0  0  0  0  0  0  0  0  0  0  0  0
    5.1396    0.3706    1.7703 F   0  0  0  0  0  0  0  0  0  0  0  0
    2.9492    1.9856   -1.3819 C   0  0  0  0  0  0  0  0  0  0  0  0
    1.8949    1.4570   -2.1142 C   0  0  0  0  0  0  0  0  0  0  0  0
    1.2329    2.4738   -2.7567 N   0  0  0  0  0  0  0  0  0  0  0  0
    1.8311    3.6165   -2.4579 N   0  0  0  0  0  0  0  0  0  0  0  0
    2.8615    3.3292   -1.6453 N   0  0  0  0  0  0  0  0  0  0  0  0
    3.7064    4.3882   -1.1587 C   0  0  0  0  0  0  0  0  0  0  0  0
    1.6277    0.0690   -2.1181 C   0  0  0  0  0  0  0  0  0  0  0  0
    0.4523   -0.4508   -2.8970 C   0  0  0  0  0  0  0  0  0  0  0  0
    0.0751   -3.5526   -1.4329 C   0  0  0  0  0  0  0  0  0  0  0  0
   -1.2204   -3.8912   -0.9670 C   0  0  0  0  0  0  0  0  0  0  0  0
   -2.2024   -4.7595   -1.5554 C   0  0  0  0  0  0  0  0  0  0  0  0
   -3.3516   -4.8490   -0.8106 C   0  0  0  0  0  0  0  0  0  0  0  0
   -3.2662   -3.9018    0.5976 S   0  0  0  0  0  0  0  0  0  0  0  0
   -1.6771   -3.3242    0.2290 C   0  0  0  0  0  0  0  0  0  0  0  0
   -3.6683   -0.4086    1.9916 S   0  0  0  0  0  6  0  0  0  0  0  0
   -4.0334   -0.3909    0.5918 O   0  0  0  0  0  0  0  0  0  0  0  0
   -4.1655   -1.4334    2.8864 O   0  0  0  0  0  0  0  0  0  0  0  0
   -4.2354    1.1018    2.6751 C   0  0  0  0  0  0  0  0  0  0  0  0
   -5.6047    1.1876    2.9722 C   0  0  0  0  0  0  0  0  0  0  0  0
   -6.1028    2.3403    3.5594 C   0  0  0  0  0  0  0  0  0  0  0  0
   -7.7685    2.4854    3.9368 Cl  0  0  0  0  0  0  0  0  0  0  0  0
   -5.2160    3.3637    3.8359 C   0  0  0  0  0  0  0  0  0  0  0  0
   -3.8914    3.3010    3.5591 N   0  0  0  0  0  0  0  0  0  0  0  0
   -3.4174    2.1719    2.9740 C   0  0  0  0  0  0  0  0  0  0  0  0
   -2.0811    2.2450    2.7543 O   0  0  0  0  0  0  0  0  0  0  0  0
   -0.9143    3.2920   -0.9780 H   0  0  0  0  0  0  0  0  0  0  0  0
   -1.6379    1.7416   -1.4549 H   0  0  0  0  0  0  0  0  0  0  0  0
   -2.4990    3.2517   -1.7630 H   0  0  0  0  0  0  0  0  0  0  0  0
   -2.8121    3.6691    0.6182 H   0  0  0  0  0  0  0  0  0  0  0  0
   -3.4777    2.1102    0.1912 H   0  0  0  0  0  0  0  0  0  0  0  0
   -0.7065    2.5847    1.3428 H   0  0  0  0  0  0  0  0  0  0  0  0
   -0.1949    0.4815    1.4882 H   0  0  0  0  0  0  0  0  0  0  0  0
   -1.3261    0.2419    0.1627 H   0  0  0  0  0  0  0  0  0  0  0  0
   -1.9570   -2.4120    2.8417 H   0  0  0  0  0  0  0  0  0  0  0  0
   -0.4570   -1.5756    2.8959 H   0  0  0  0  0  0  0  0  0  0  0  0
    1.0628   -1.4969    1.0670 H   0  0  0  0  0  0  0  0  0  0  0  0
    2.9401   -2.6002   -0.3310 H   0  0  0  0  0  0  0  0  0  0  0  0
    2.3772   -2.6942   -3.3275 H   0  0  0  0  0  0  0  0  0  0  0  0
    2.6873   -4.1123   -2.3154 H   0  0  0  0  0  0  0  0  0  0  0  0
    5.7202   -2.7861   -3.7893 H   0  0  0  0  0  0  0  0  0  0  0  0
    4.1753   -0.8289   -0.0103 H   0  0  0  0  0  0  0  0  0  0  0  0
    4.7313    4.1928   -1.4833 H   0  0  0  0  0  0  0  0  0  0  0  0
    3.3685    5.3445   -1.5669 H   0  0  0  0  0  0  0  0  0  0  0  0
    3.6418    4.4112   -0.0682 H   0  0  0  0  0  0  0  0  0  0  0  0
   -0.3911   -0.6431   -2.2280 H   0  0  0  0  0  0  0  0  0  0  0  0
    0.6987   -1.3559   -3.4537 H   0  0  0  0  0  0  0  0  0  0  0  0
    0.1172    0.2824   -3.6388 H   0  0  0  0  0  0  0  0  0  0  0  0
    0.3968   -3.9867   -2.3752 H   0  0  0  0  0  0  0  0  0  0  0  0
   -2.0620   -5.2934   -2.4870 H   0  0  0  0  0  0  0  0  0  0  0  0
   -4.2388   -5.4283   -1.0262 H   0  0  0  0  0  0  0  0  0  0  0  0
   -6.2676    0.3531    2.7522 H   0  0  0  0  0  0  0  0  0  0  0  0
   -5.5444    4.2892    4.3003 H   0  0  0  0  0  0  0  0  0  0  0  0
  1  2  1  0
  2  3  1  0
  3  4  1  0
  4  5  1  0
  5  6  1  0
  6  7  1  0
  7  8  2  0
  8  9  1  0
  9 10  1  0
 10 11  1  0
 11 12  1  0
 12 13  2  0
 12 14  1  0
 10 15  1  0
 15 16  2  0
 16 17  1  0
 17 18  1  0
 18 19  1  0
 19 20  1  0
 19 21  1  0
 19 22  1  0
 17 23  2  0
 23 24  1  0
 24 25  1  0
 25 26  2  0
 26 27  1  0
 27 28  1  0
 24 29  2  0
 29 30  1  0
  9 31  2  0
 31 32  1  0
 32 33  1  0
 33 34  2  0
 34 35  1  0
 35 36  1  0
  5 37  1  0
 37 38  2  0
 37 39  2  0
 37 40  1  0
 40 41  2  0
 41 42  1  0
 42 43  1  0
 42 44  2  0
 44 45  1  0
 45 46  2  0
 46 47  1  0
 47  3  1  0
 36  7  1  0
 46 40  1  0
 29 15  1  0
 36 32  2  0
 27 23  1  0
  1 48  1  0
  1 49  1  0
  1 50  1  0
  2 51  1  0
  2 52  1  0
  3 53  1  1
  4 54  1  0
  4 55  1  0
  6 56  1  0
  6 57  1  0
  8 58  1  0
 10 59  1  1
 11 60  1  0
 11 61  1  0
 14 62  1  0
 16 63  1  0
 28 64  1  0
 28 65  1  0
 28 66  1  0
 30 67  1  0
 30 68  1  0
 30 69  1  0
 31 70  1  0
 33 71  1  0
 34 72  1  0
 41 73  1  0
 44 74  1  0
M  END
>  <mol_id>  (1) 
143441

>  <source_index>  (1) 
9

>  <layer>  (1) 
L2

>  <uniprot>  (1) 
Q14145

>  <paff>  (1) 
8

>  <smiles>  (1) 
CC[C@@H]1CN(Cc2cc([C@@H](CC(=O)O)c3cc(OC(F)(F)F)c4c(nnn4C)c3C)cc3ccsc23)S(=O)(=O)c2cc(Cl)cnc2O1

$$$$
