L2:Q14145:143441
 OpenBabel09212617593D

 74 79  0  0  0  0  0  0  0  0999 V2000
    2.1146    1.8272  -20.6414 C   0  0  0  0  0  0  0  0  0  0  0  0
    2.5599    0.5164  -20.9271 C   0  0  0  0  0  0  0  0  0  0  0  0
    1.7430   -0.6146  -20.8130 C   0  0  0  0  0  0  0  0  0  0  0  0
    0.4370   -0.4327  -20.3428 C   0  0  0  0  0  0  0  0  0  0  0  0
   -0.0510    0.8522  -19.9951 C   0  0  0  0  0  0  0  0  0  0  0  0
   -1.3432    1.2314  -19.4942 C   0  0  0  0  0  0  0  0  0  0  0  0
   -1.4529    2.5800  -19.2651 C   0  0  0  0  0  0  0  0  0  0  0  0
   -0.0147    3.4031  -19.6415 S   0  0  0  0  0  0  0  0  0  0  0  0
    0.7932    1.9588  -20.1476 C   0  0  0  0  0  0  0  0  0  0  0  0
    3.0624    2.9875  -20.8818 C   0  0  0  0  0  0  0  0  0  0  0  0
    4.6102    2.5693  -24.3944 C   0  0  2  0  0  0  0  0  0  0  0  0
    3.7421    3.1914  -23.2887 C   0  0  0  0  0  0  0  0  0  0  0  0
    4.1234    2.7791  -21.9093 N   0  0  0  0  0  0  0  0  0  0  0  0
    5.7022    3.0922  -21.4170 S   0  0  0  0  0  0  0  0  0  0  0  0
    6.0369    4.4410  -21.8193 O   0  0  0  0  0  0  0  0  0  0  0  0
    5.8361    2.6621  -20.0404 O   0  0  0  0  0  0  0  0  0  0  0  0
    6.7508    2.0243  -22.3280 C   0  0  0  0  0  0  0  0  0  0  0  0
    8.0726    1.8955  -21.8731 C   0  0  0  0  0  0  0  0  0  0  0  0
    8.9351    1.0277  -22.5247 C   0  0  0  0  0  0  0  0  0  0  0  0
   10.5568    0.8424  -22.0015 Cl  0  0  0  0  0  0  0  0  0  0  0  0
    8.4464    0.3138  -23.6026 C   0  0  0  0  0  0  0  0  0  0  0  0
    7.1747    0.4218  -24.0568 N   0  0  0  0  0  0  0  0  0  0  0  0
    6.3429    1.2829  -23.4178 C   0  0  0  0  0  0  0  0  0  0  0  0
    5.1064    1.2908  -23.9748 O   0  0  0  0  0  0  0  0  0  0  0  0
    6.0495    3.0405  -26.4606 C   0  0  0  0  0  0  0  0  0  0  0  0
    5.6455    3.4973  -25.0660 C   0  0  0  0  0  0  0  0  0  0  0  0
    2.3164   -1.9794  -21.2077 C   0  0  2  0  0  0  0  0  0  0  0  0
    2.9129   -1.9855  -22.6349 C   0  0  0  0  0  0  0  0  0  0  0  0
    4.3002   -2.2721  -22.7366 C   0  0  0  0  0  0  0  0  0  0  0  0
    4.9953   -2.2983  -23.9531 C   0  0  0  0  0  0  0  0  0  0  0  0
    4.2267   -2.0121  -25.0827 C   0  0  0  0  0  0  0  0  0  0  0  0
    2.8674   -1.7336  -25.0377 C   0  0  0  0  0  0  0  0  0  0  0  0
    2.4116   -1.4875  -26.3092 N   0  0  0  0  0  0  0  0  0  0  0  0
    3.4296   -1.6026  -27.1478 N   0  0  0  0  0  0  0  0  0  0  0  0
    4.5129   -1.9248  -26.4216 N   0  0  0  0  0  0  0  0  0  0  0  0
    5.7799   -2.1233  -27.0753 C   0  0  0  0  0  0  0  0  0  0  0  0
    2.1611   -1.7219  -23.8134 C   0  0  0  0  0  0  0  0  0  0  0  0
    0.6981   -1.3784  -23.8123 C   0  0  0  0  0  0  0  0  0  0  0  0
    6.3199   -2.5571  -24.1290 O   0  0  0  0  0  0  0  0  0  0  0  0
    6.7748   -3.8875  -23.9313 C   0  0  0  0  0  0  0  0  0  0  0  0
    7.8758   -4.0773  -24.6910 F   0  0  0  0  0  0  0  0  0  0  0  0
    5.8402   -4.7805  -24.3125 F   0  0  0  0  0  0  0  0  0  0  0  0
    7.1126   -4.0954  -22.6417 F   0  0  0  0  0  0  0  0  0  0  0  0
    1.3984   -3.1944  -20.9686 C   0  0  0  0  0  0  0  0  0  0  0  0
    2.1789   -4.4148  -20.5643 C   0  0  0  0  0  0  0  0  0  0  0  0
    3.3707   -4.4717  -20.3131 O   0  0  0  0  0  0  0  0  0  0  0  0
    1.3979   -5.5044  -20.4394 O   0  0  0  0  0  0  0  0  0  0  0  0
    2.0106   -6.2160  -20.1568 H   0  0  0  0  0  0  0  0  0  0  0  0
    3.5362    0.3867  -21.2353 H   0  0  0  0  0  0  0  0  0  0  0  0
   -0.1839   -1.2515  -20.2472 H   0  0  0  0  0  0  0  0  0  0  0  0
   -2.1084    0.5601  -19.3245 H   0  0  0  0  0  0  0  0  0  0  0  0
   -2.3054    3.0387  -18.9076 H   0  0  0  0  0  0  0  0  0  0  0  0
    2.4755    3.8287  -21.1867 H   0  0  0  0  0  0  0  0  0  0  0  0
    3.5856    3.1215  -19.9581 H   0  0  0  0  0  0  0  0  0  0  0  0
    3.9583    2.4045  -25.2267 H   0  0  0  0  0  0  0  0  0  0  0  0
    2.7259    2.9016  -23.4568 H   0  0  0  0  0  0  0  0  0  0  0  0
    3.8855    4.2503  -23.3441 H   0  0  0  0  0  0  0  0  0  0  0  0
    8.3993    2.4420  -21.0609 H   0  0  0  0  0  0  0  0  0  0  0  0
    9.0845   -0.3364  -24.0874 H   0  0  0  0  0  0  0  0  0  0  0  0
    6.7653    3.7244  -26.8665 H   0  0  0  0  0  0  0  0  0  0  0  0
    5.1854    3.0127  -27.0911 H   0  0  0  0  0  0  0  0  0  0  0  0
    6.4817    2.0633  -26.4046 H   0  0  0  0  0  0  0  0  0  0  0  0
    5.2250    4.4785  -25.1387 H   0  0  0  0  0  0  0  0  0  0  0  0
    6.5268    3.4797  -24.4595 H   0  0  0  0  0  0  0  0  0  0  0  0
    3.1161   -2.1145  -20.5097 H   0  0  0  0  0  0  0  0  0  0  0  0
    4.8235   -2.4714  -21.8697 H   0  0  0  0  0  0  0  0  0  0  0  0
    5.6635   -1.9815  -28.1294 H   0  0  0  0  0  0  0  0  0  0  0  0
    6.1274   -3.1173  -26.8854 H   0  0  0  0  0  0  0  0  0  0  0  0
    6.4907   -1.4187  -26.6970 H   0  0  0  0  0  0  0  0  0  0  0  0
    0.3667   -1.2263  -24.8182 H   0  0  0  0  0  0  0  0  0  0  0  0
    0.5422   -0.4839  -23.2463 H   0  0  0  0  0  0  0  0  0  0  0  0
    0.1437   -2.1805  -23.3716 H   0  0  0  0  0  0  0  0  0  0  0  0
    0.8649   -3.4081  -21.8712 H   0  0  0  0  0  0  0  0  0  0  0  0
    0.7264   -2.9512  -20.1723 H   0  0  0  0  0  0  0  0  0  0  0  0
  1  2  2  0  0  0  0
  2  3  1  0  0  0  0
  2 49  1  0  0  0  0
  3 27  1  0  0  0  0
  3  4  2  0  0  0  0
  4  5  1  0  0  0  0
  4 50  1  0  0  0  0
  5  6  1  0  0  0  0
  6  7  2  0  0  0  0
  6 51  1  0  0  0  0
  7  8  1  0  0  0  0
  7 52  1  0  0  0  0
  8  9  1  0  0  0  0
  9  1  1  0  0  0  0
  9  5  2  0  0  0  0
 10  1  1  0  0  0  0
 10 53  1  0  0  0  0
 10 54  1  0  0  0  0
 11 12  1  0  0  0  0
 11 55  1  6  0  0  0
 12 13  1  0  0  0  0
 12 56  1  0  0  0  0
 12 57  1  0  0  0  0
 13 10  1  0  0  0  0
 13 14  1  0  0  0  0
 14 15  2  0  0  0  0
 14 16  2  0  0  0  0
 14 17  1  0  0  0  0
 17 18  2  0  0  0  0
 18 19  1  0  0  0  0
 18 58  1  0  0  0  0
 19 20  1  0  0  0  0
 19 21  2  0  0  0  0
 21 22  1  0  0  0  0
 21 59  1  0  0  0  0
 22 23  2  0  0  0  0
 23 24  1  0  0  0  0
 23 17  1  0  0  0  0
 24 11  1  0  0  0  0
 25 26  1  0  0  0  0
 25 60  1  0  0  0  0
 25 61  1  0  0  0  0
 25 62  1  0  0  0  0
 26 11  1  0  0  0  0
 26 63  1  0  0  0  0
 26 64  1  0  0  0  0
 27 44  1  0  0  0  0
 27 28  1  0  0  0  0
 27 65  1  1  0  0  0
 28 29  2  0  0  0  0
 29 30  1  0  0  0  0
 29 66  1  0  0  0  0
 30 39  1  0  0  0  0
 30 31  2  0  0  0  0
 31 32  1  0  0  0  0
 32 33  1  0  0  0  0
 32 37  2  0  0  0  0
 33 34  2  0  0  0  0
 34 35  1  0  0  0  0
 35 36  1  0  0  0  0
 35 31  1  0  0  0  0
 36 67  1  0  0  0  0
 36 68  1  0  0  0  0
 36 69  1  0  0  0  0
 37 38  1  0  0  0  0
 37 28  1  0  0  0  0
 38 70  1  0  0  0  0
 38 71  1  0  0  0  0
 38 72  1  0  0  0  0
 39 40  1  0  0  0  0
 40 41  1  0  0  0  0
 40 42  1  0  0  0  0
 40 43  1  0  0  0  0
 44 45  1  0  0  0  0
 44 73  1  0  0  0  0
 44 74  1  0  0  0  0
 45 46  2  0  0  0  0
 45 47  1  0  0  0  0
 47 48  1  0  0  0  0
M  END
>  <minimizedAffinity>
-10.00789

$$$$
