L2:Q14145:15758
 OpenBabel09212617553D

 78 84  0  0  0  0  0  0  0  0999 V2000
    2.1711    1.6153  -20.5731 C   0  0  0  0  0  0  0  0  0  0  0  0
    2.4757    0.3198  -21.0535 C   0  0  0  0  0  0  0  0  0  0  0  0
    1.5969   -0.7645  -20.9350 C   0  0  0  0  0  0  0  0  0  0  0  0
    0.3567   -0.5581  -20.3014 C   0  0  0  0  0  0  0  0  0  0  0  0
    0.0413    0.7241  -19.8391 C   0  0  0  0  0  0  0  0  0  0  0  0
   -1.0987    1.1758  -19.2125 N   0  0  0  0  0  0  0  0  0  0  0  0
   -0.9846    2.5091  -18.9274 C   0  0  0  0  0  0  0  0  0  0  0  0
    0.2444    2.9291  -19.3799 C   0  0  0  0  0  0  0  0  0  0  0  0
    0.9089    1.8079  -19.9613 C   0  0  0  0  0  0  0  0  0  0  0  0
   -1.9017    0.5991  -19.0022 H   0  0  0  0  0  0  0  0  0  0  0  0
    3.1953    2.7188  -20.7333 C   0  0  0  0  0  0  0  0  0  0  0  0
    4.0704    1.5565  -23.9654 C   0  0  2  0  0  0  0  0  0  0  0  0
    4.0288    2.8417  -23.1146 C   0  0  0  0  0  0  0  0  0  0  0  0
    4.2711    2.4615  -21.7112 N   0  0  0  0  0  0  0  0  0  0  0  0
    5.8569    2.4921  -21.1628 S   0  0  0  0  0  0  0  0  0  0  0  0
    5.9746    1.5902  -20.0391 O   0  0  0  0  0  0  0  0  0  0  0  0
    6.2356    3.8860  -21.0389 O   0  0  0  0  0  0  0  0  0  0  0  0
    6.8448    1.8429  -22.4596 C   0  0  0  0  0  0  0  0  0  0  0  0
    8.1979    2.2034  -22.4981 C   0  0  0  0  0  0  0  0  0  0  0  0
    8.9875    1.7496  -23.5447 C   0  0  0  0  0  0  0  0  0  0  0  0
   10.6496    2.1608  -23.6310 Cl  0  0  0  0  0  0  0  0  0  0  0  0
    8.3954    0.9635  -24.5185 C   0  0  0  0  0  0  0  0  0  0  0  0
    7.0861    0.6146  -24.5073 N   0  0  0  0  0  0  0  0  0  0  0  0
    6.3282    1.0676  -23.4796 C   0  0  0  0  0  0  0  0  0  0  0  0
    5.0488    0.6040  -23.5045 O   0  0  0  0  0  0  0  0  0  0  0  0
    4.7693    3.2396  -25.7388 C   0  0  0  0  0  0  0  0  0  0  0  0
    4.1776    1.8631  -25.4672 C   0  0  0  0  0  0  0  0  0  0  0  0
    1.9407   -2.1805  -21.4215 C   0  0  1  0  0  0  0  0  0  0  0  0
    2.6735   -2.2177  -22.7751 C   0  0  0  0  0  0  0  0  0  0  0  0
    3.9848   -2.7352  -22.8277 C   0  0  0  0  0  0  0  0  0  0  0  0
    4.7386   -2.8524  -24.0114 C   0  0  0  0  0  0  0  0  0  0  0  0
    4.1094   -2.3680  -25.1684 C   0  0  0  0  0  0  0  0  0  0  0  0
    2.8163   -1.8483  -25.1628 C   0  0  0  0  0  0  0  0  0  0  0  0
    2.4675   -1.4661  -26.4338 N   0  0  0  0  0  0  0  0  0  0  0  0
    3.4873   -1.7162  -27.2371 N   0  0  0  0  0  0  0  0  0  0  0  0
    4.4721   -2.2436  -26.4876 N   0  0  0  0  0  0  0  0  0  0  0  0
    5.7198   -2.5724  -27.1234 C   0  0  0  0  0  0  0  0  0  0  0  0
    2.0586   -1.7676  -23.9720 C   0  0  0  0  0  0  0  0  0  0  0  0
    0.6678   -1.1959  -23.9924 C   0  0  0  0  0  0  0  0  0  0  0  0
    6.1261   -3.4197  -24.0585 C   0  0  0  0  0  0  0  0  0  0  0  0
    6.8179   -3.8393  -22.7809 C   0  0  0  0  0  0  0  0  0  0  0  0
    7.2933   -2.6243  -23.5121 C   0  0  0  0  0  0  0  0  0  0  0  0
    2.5695   -3.1641  -20.4114 C   0  0  0  0  0  0  0  0  0  0  0  0
    2.1999   -4.6157  -20.5812 C   0  0  0  0  0  0  0  0  0  0  0  0
    2.9107   -5.5388  -20.9381 O   0  0  0  0  0  0  0  0  0  0  0  0
    0.9213   -4.8539  -20.2203 O   0  0  0  0  0  0  0  0  0  0  0  0
    0.8196   -5.8213  -20.3406 H   0  0  0  0  0  0  0  0  0  0  0  0
    3.3873    0.1667  -21.5123 H   0  0  0  0  0  0  0  0  0  0  0  0
   -0.3077   -1.3385  -20.1802 H   0  0  0  0  0  0  0  0  0  0  0  0
   -1.6930    3.0942  -18.4575 H   0  0  0  0  0  0  0  0  0  0  0  0
    0.6204    3.8877  -19.3110 H   0  0  0  0  0  0  0  0  0  0  0  0
    2.6784    3.6042  -21.0396 H   0  0  0  0  0  0  0  0  0  0  0  0
    3.6808    2.8040  -19.7836 H   0  0  0  0  0  0  0  0  0  0  0  0
    3.1274    1.0702  -23.8272 H   0  0  0  0  0  0  0  0  0  0  0  0
    3.0696    3.3072  -23.2051 H   0  0  0  0  0  0  0  0  0  0  0  0
    4.7730    3.5346  -23.4478 H   0  0  0  0  0  0  0  0  0  0  0  0
    8.6019    2.7984  -21.7580 H   0  0  0  0  0  0  0  0  0  0  0  0
    8.9836    0.6246  -25.2958 H   0  0  0  0  0  0  0  0  0  0  0  0
    4.8221    3.4031  -26.7949 H   0  0  0  0  0  0  0  0  0  0  0  0
    5.7524    3.2942  -25.3198 H   0  0  0  0  0  0  0  0  0  0  0  0
    4.1492    3.9888  -25.2925 H   0  0  0  0  0  0  0  0  0  0  0  0
    4.8020    1.1245  -25.9248 H   0  0  0  0  0  0  0  0  0  0  0  0
    3.1882    1.8476  -25.8744 H   0  0  0  0  0  0  0  0  0  0  0  0
    0.9537   -2.5703  -21.5590 H   0  0  0  0  0  0  0  0  0  0  0  0
    4.4182   -3.0470  -21.9446 H   0  0  0  0  0  0  0  0  0  0  0  0
    5.6581   -2.3475  -28.1677 H   0  0  0  0  0  0  0  0  0  0  0  0
    5.9219   -3.6152  -26.9944 H   0  0  0  0  0  0  0  0  0  0  0  0
    6.5075   -1.9991  -26.6810 H   0  0  0  0  0  0  0  0  0  0  0  0
    0.4088   -0.9236  -24.9942 H   0  0  0  0  0  0  0  0  0  0  0  0
    0.6292   -0.3293  -23.3660 H   0  0  0  0  0  0  0  0  0  0  0  0
   -0.0241   -1.9280  -23.6315 H   0  0  0  0  0  0  0  0  0  0  0  0
    5.8976   -3.8917  -24.9912 H   0  0  0  0  0  0  0  0  0  0  0  0
    7.4208   -4.7232  -22.7658 H   0  0  0  0  0  0  0  0  0  0  0  0
    6.4965   -4.0394  -21.7801 H   0  0  0  0  0  0  0  0  0  0  0  0
    8.2351   -2.6407  -24.0196 H   0  0  0  0  0  0  0  0  0  0  0  0
    7.4512   -1.5990  -23.2497 H   0  0  0  0  0  0  0  0  0  0  0  0
    2.2676   -2.8625  -19.4302 H   0  0  0  0  0  0  0  0  0  0  0  0
    3.6248   -3.1145  -20.5809 H   0  0  0  0  0  0  0  0  0  0  0  0
  1  2  2  0  0  0  0
  2  3  1  0  0  0  0
  2 48  1  0  0  0  0
  3 28  1  0  0  0  0
  3  4  2  0  0  0  0
  4  5  1  0  0  0  0
  4 49  1  0  0  0  0
  5  6  1  0  0  0  0
  6  7  1  0  0  0  0
  6 10  1  0  0  0  0
  7  8  2  0  0  0  0
  7 50  1  0  0  0  0
  8  9  1  0  0  0  0
  8 51  1  0  0  0  0
  9  1  1  0  0  0  0
  9  5  2  0  0  0  0
 11  1  1  0  0  0  0
 11 52  1  0  0  0  0
 11 53  1  0  0  0  0
 12 13  1  0  0  0  0
 12 54  1  1  0  0  0
 13 14  1  0  0  0  0
 13 55  1  0  0  0  0
 13 56  1  0  0  0  0
 14 11  1  0  0  0  0
 14 15  1  0  0  0  0
 15 16  2  0  0  0  0
 15 17  2  0  0  0  0
 15 18  1  0  0  0  0
 18 19  2  0  0  0  0
 19 20  1  0  0  0  0
 19 57  1  0  0  0  0
 20 21  1  0  0  0  0
 20 22  2  0  0  0  0
 22 23  1  0  0  0  0
 22 58  1  0  0  0  0
 23 24  2  0  0  0  0
 24 25  1  0  0  0  0
 24 18  1  0  0  0  0
 25 12  1  0  0  0  0
 26 27  1  0  0  0  0
 26 59  1  0  0  0  0
 26 60  1  0  0  0  0
 26 61  1  0  0  0  0
 27 12  1  0  0  0  0
 27 62  1  0  0  0  0
 27 63  1  0  0  0  0
 28 43  1  0  0  0  0
 28 29  1  0  0  0  0
 28 64  1  6  0  0  0
 29 30  2  0  0  0  0
 30 31  1  0  0  0  0
 30 65  1  0  0  0  0
 31 40  1  0  0  0  0
 31 32  2  0  0  0  0
 32 33  1  0  0  0  0
 33 34  1  0  0  0  0
 33 38  2  0  0  0  0
 34 35  2  0  0  0  0
 35 36  1  0  0  0  0
 36 37  1  0  0  0  0
 36 32  1  0  0  0  0
 37 66  1  0  0  0  0
 37 67  1  0  0  0  0
 37 68  1  0  0  0  0
 38 39  1  0  0  0  0
 38 29  1  0  0  0  0
 39 69  1  0  0  0  0
 39 70  1  0  0  0  0
 39 71  1  0  0  0  0
 40 41  1  0  0  0  0
 40 72  1  0  0  0  0
 41 42  1  0  0  0  0
 41 73  1  0  0  0  0
 41 74  1  0  0  0  0
 42 40  1  0  0  0  0
 42 75  1  0  0  0  0
 42 76  1  0  0  0  0
 43 44  1  0  0  0  0
 43 77  1  0  0  0  0
 43 78  1  0  0  0  0
 44 45  2  0  0  0  0
 44 46  1  0  0  0  0
 46 47  1  0  0  0  0
M  END
>  <minimizedAffinity>
-10.59499

$$$$
