L2:Q14145:15758
     RDKit          3D

 78 84  0  0  0  0  0  0  0  0999 V2000
   -7.9269    0.2920    0.0121 C   0  0  0  0  0  0  0  0  0  0  0  0
   -6.4843    0.4709   -0.4413 C   0  0  0  0  0  0  0  0  0  0  0  0
   -5.5290   -0.5243    0.2353 C   0  0  2  0  0  0  0  0  0  0  0  0
   -4.0524   -0.2179   -0.0860 C   0  0  0  0  0  0  0  0  0  0  0  0
   -3.2525   -1.3924    0.3060 N   0  0  0  0  0  0  0  0  0  0  0  0
   -2.2412   -1.2129    1.3666 C   0  0  0  0  0  0  0  0  0  0  0  0
   -1.2948   -0.0450    1.1855 C   0  0  0  0  0  0  0  0  0  0  0  0
   -0.2606   -0.1410    0.2247 C   0  0  0  0  0  0  0  0  0  0  0  0
    0.6505    0.8938   -0.0221 C   0  0  0  0  0  0  0  0  0  0  0  0
    1.7503    0.8065   -1.0911 C   0  0  2  0  0  0  0  0  0  0  0  0
    1.7418   -0.4063   -2.0462 C   0  0  0  0  0  0  0  0  0  0  0  0
    2.2639   -1.7015   -1.4783 C   0  0  0  0  0  0  0  0  0  0  0  0
    2.1297   -2.1389   -0.3490 O   0  0  0  0  0  0  0  0  0  0  0  0
    2.9005   -2.4390   -2.4125 O   0  0  0  0  0  0  0  0  0  0  0  0
    3.1661    1.0948   -0.5591 C   0  0  0  0  0  0  0  0  0  0  0  0
    3.5920    0.4612    0.6272 C   0  0  0  0  0  0  0  0  0  0  0  0
    4.8738    0.6195    1.1885 C   0  0  0  0  0  0  0  0  0  0  0  0
    5.3219   -0.0721    2.4415 C   0  0  0  0  0  0  0  0  0  0  0  0
    6.3401   -1.1879    2.3695 C   0  0  0  0  0  0  0  0  0  0  0  0
    4.9182   -1.5077    2.7053 C   0  0  0  0  0  0  0  0  0  0  0  0
    5.7178    1.5075    0.5042 C   0  0  0  0  0  0  0  0  0  0  0  0
    5.3389    2.1553   -0.6701 C   0  0  0  0  0  0  0  0  0  0  0  0
    6.3685    2.9472   -1.1127 N   0  0  0  0  0  0  0  0  0  0  0  0
    7.3757    2.8312   -0.2643 N   0  0  0  0  0  0  0  0  0  0  0  0
    6.9906    1.9834    0.7066 N   0  0  0  0  0  0  0  0  0  0  0  0
    7.9021    1.7139    1.7863 C   0  0  0  0  0  0  0  0  0  0  0  0
    4.0600    1.9608   -1.2404 C   0  0  0  0  0  0  0  0  0  0  0  0
    3.6737    2.6776   -2.5048 C   0  0  0  0  0  0  0  0  0  0  0  0
    0.5268    2.0877    0.7137 C   0  0  0  0  0  0  0  0  0  0  0  0
   -0.4826    2.1837    1.6776 C   0  0  0  0  0  0  0  0  0  0  0  0
   -0.7909    3.2239    2.5256 N   0  0  0  0  0  0  0  0  0  0  0  0
   -1.8634    2.8937    3.3083 C   0  0  0  0  0  0  0  0  0  0  0  0
   -2.2531    1.6197    2.9666 C   0  0  0  0  0  0  0  0  0  0  0  0
   -1.3869    1.1543    1.9323 C   0  0  0  0  0  0  0  0  0  0  0  0
   -2.9668   -2.5609   -0.8641 S   0  0  0  0  0  6  0  0  0  0  0  0
   -2.7028   -3.8201   -0.2048 O   0  0  0  0  0  0  0  0  0  0  0  0
   -2.0132   -1.9988   -1.8003 O   0  0  0  0  0  0  0  0  0  0  0  0
   -4.4640   -2.7443   -1.7607 C   0  0  0  0  0  0  0  0  0  0  0  0
   -4.3905   -3.2465   -3.0664 C   0  0  0  0  0  0  0  0  0  0  0  0
   -5.5530   -3.3479   -3.8167 C   0  0  0  0  0  0  0  0  0  0  0  0
   -5.5127   -3.9613   -5.4171 Cl  0  0  0  0  0  0  0  0  0  0  0  0
   -6.7421   -2.9343   -3.2408 C   0  0  0  0  0  0  0  0  0  0  0  0
   -6.8332   -2.4333   -1.9850 N   0  0  0  0  0  0  0  0  0  0  0  0
   -5.6885   -2.3388   -1.2663 C   0  0  0  0  0  0  0  0  0  0  0  0
   -5.8835   -1.9026    0.0082 O   0  0  0  0  0  0  0  0  0  0  0  0
   -8.3103   -0.7001   -0.2428 H   0  0  0  0  0  0  0  0  0  0  0  0
   -8.0147    0.4255    1.0950 H   0  0  0  0  0  0  0  0  0  0  0  0
   -8.5683    1.0347   -0.4730 H   0  0  0  0  0  0  0  0  0  0  0  0
   -6.4442    0.3608   -1.5310 H   0  0  0  0  0  0  0  0  0  0  0  0
   -6.1669    1.4950   -0.2113 H   0  0  0  0  0  0  0  0  0  0  0  0
   -5.6404   -0.3972    1.3207 H   0  0  0  0  0  0  0  0  0  0  0  0
   -3.9127   -0.0064   -1.1530 H   0  0  0  0  0  0  0  0  0  0  0  0
   -3.7565    0.6943    0.4380 H   0  0  0  0  0  0  0  0  0  0  0  0
   -1.6472   -2.1262    1.4944 H   0  0  0  0  0  0  0  0  0  0  0  0
   -2.7838   -1.1053    2.3138 H   0  0  0  0  0  0  0  0  0  0  0  0
   -0.1856   -1.0729   -0.3299 H   0  0  0  0  0  0  0  0  0  0  0  0
    1.4759    1.6478   -1.7438 H   0  0  0  0  0  0  0  0  0  0  0  0
    2.3744   -0.1616   -2.9098 H   0  0  0  0  0  0  0  0  0  0  0  0
    0.7359   -0.5919   -2.4402 H   0  0  0  0  0  0  0  0  0  0  0  0
    3.1548   -3.2556   -1.9339 H   0  0  0  0  0  0  0  0  0  0  0  0
    2.8966   -0.1985    1.1506 H   0  0  0  0  0  0  0  0  0  0  0  0
    5.3490    0.5571    3.3299 H   0  0  0  0  0  0  0  0  0  0  0  0
    7.0734   -1.2627    3.1641 H   0  0  0  0  0  0  0  0  0  0  0  0
    6.7054   -1.5031    1.3980 H   0  0  0  0  0  0  0  0  0  0  0  0
    4.6827   -1.7859    3.7265 H   0  0  0  0  0  0  0  0  0  0  0  0
    4.3371   -2.0459    1.9638 H   0  0  0  0  0  0  0  0  0  0  0  0
    7.3716    1.8025    2.7361 H   0  0  0  0  0  0  0  0  0  0  0  0
    8.3124    0.7113    1.6513 H   0  0  0  0  0  0  0  0  0  0  0  0
    8.7153    2.4452    1.7678 H   0  0  0  0  0  0  0  0  0  0  0  0
    2.8665    3.3892   -2.3050 H   0  0  0  0  0  0  0  0  0  0  0  0
    3.3549    1.9664   -3.2720 H   0  0  0  0  0  0  0  0  0  0  0  0
    4.5144    3.2432   -2.9194 H   0  0  0  0  0  0  0  0  0  0  0  0
    1.2084    2.9176    0.5454 H   0  0  0  0  0  0  0  0  0  0  0  0
   -0.2880    4.1000    2.5614 H   0  0  0  0  0  0  0  0  0  0  0  0
   -2.2511    3.5886    4.0412 H   0  0  0  0  0  0  0  0  0  0  0  0
   -3.0745    1.0783    3.4173 H   0  0  0  0  0  0  0  0  0  0  0  0
   -3.4352   -3.5535   -3.4865 H   0  0  0  0  0  0  0  0  0  0  0  0
   -7.6833   -2.9935   -3.7804 H   0  0  0  0  0  0  0  0  0  0  0  0
  1  2  1  0
  2  3  1  0
  3  4  1  0
  4  5  1  0
  5  6  1  0
  6  7  1  0
  7  8  2  0
  8  9  1  0
  9 10  1  0
 10 11  1  0
 11 12  1  0
 12 13  2  0
 12 14  1  0
 10 15  1  0
 15 16  2  0
 16 17  1  0
 17 18  1  0
 18 19  1  0
 19 20  1  0
 17 21  2  0
 21 22  1  0
 22 23  1  0
 23 24  2  0
 24 25  1  0
 25 26  1  0
 22 27  2  0
 27 28  1  0
  9 29  2  0
 29 30  1  0
 30 31  1  0
 31 32  1  0
 32 33  2  0
 33 34  1  0
  5 35  1  0
 35 36  2  0
 35 37  2  0
 35 38  1  0
 38 39  2  0
 39 40  1  0
 40 41  1  0
 40 42  2  0
 42 43  1  0
 43 44  2  0
 44 45  1  0
 45  3  1  0
 34  7  1  0
 44 38  1  0
 27 15  1  0
 34 30  2  0
 20 18  1  0
 25 21  1  0
  1 46  1  0
  1 47  1  0
  1 48  1  0
  2 49  1  0
  2 50  1  0
  3 51  1  1
  4 52  1  0
  4 53  1  0
  6 54  1  0
  6 55  1  0
  8 56  1  0
 10 57  1  6
 11 58  1  0
 11 59  1  0
 14 60  1  0
 16 61  1  0
 18 62  1  0
 19 63  1  0
 19 64  1  0
 20 65  1  0
 20 66  1  0
 26 67  1  0
 26 68  1  0
 26 69  1  0
 28 70  1  0
 28 71  1  0
 28 72  1  0
 29 73  1  0
 31 74  1  0
 32 75  1  0
 33 76  1  0
 39 77  1  0
 42 78  1  0
M  END
>  <mol_id>  (1) 
15758

>  <source_index>  (1) 
1

>  <layer>  (1) 
L2

>  <uniprot>  (1) 
Q14145

>  <paff>  (1) 
8

>  <smiles>  (1) 
CC[C@@H]1CN(Cc2cc(C(CC(=O)O)c3cc(C4CC4)c4c(nnn4C)c3C)cc3[nH]ccc23)S(=O)(=O)c2cc(Cl)cnc2O1

$$$$
