L2:Q14145:16948
     RDKit          3D

 74 79  0  0  0  0  0  0  0  0999 V2000
   -5.2029    1.8738    2.9666 C   0  0  0  0  0  0  0  0  0  0  0  0
   -4.8367    2.6608    1.7186 C   0  0  0  0  0  0  0  0  0  0  0  0
   -4.7417    1.8054    0.4425 C   0  0  2  0  0  0  0  0  0  0  0  0
   -3.5871    0.7721    0.4805 C   0  0  0  0  0  0  0  0  0  0  0  0
   -2.1978    1.2917    0.3314 N   0  0  0  0  0  0  0  0  0  0  0  0
   -1.3961    1.3111    1.5788 C   0  0  0  0  0  0  0  0  0  0  0  0
   -0.7875   -0.0453    1.8773 C   0  0  0  0  0  0  0  0  0  0  0  0
    0.0102   -0.6543    0.8838 C   0  0  0  0  0  0  0  0  0  0  0  0
    0.6388   -1.8932    1.0527 C   0  0  0  0  0  0  0  0  0  0  0  0
    1.4726   -2.4600   -0.1028 C   0  0  2  0  0  0  0  0  0  0  0  0
    1.8803   -3.9372    0.0299 C   0  0  0  0  0  0  0  0  0  0  0  0
    2.5673   -4.4593   -1.1991 C   0  0  0  0  0  0  0  0  0  0  0  0
    3.6513   -5.0172   -1.2292 O   0  0  0  0  0  0  0  0  0  0  0  0
    1.8380   -4.3193   -2.3212 O   0  0  0  0  0  0  0  0  0  0  0  0
    2.6328   -1.5228   -0.4971 C   0  0  0  0  0  0  0  0  0  0  0  0
    2.4642   -0.7964   -1.7022 C   0  0  0  0  0  0  0  0  0  0  0  0
    3.4046    0.1280   -2.1649 C   0  0  0  0  0  0  0  0  0  0  0  0
    3.2302    0.8446   -3.3159 O   0  0  0  0  0  0  0  0  0  0  0  0
    2.0594    1.6562   -3.2520 C   0  0  0  0  0  0  0  0  0  0  0  0
    2.2236    2.6543   -4.1580 F   0  0  0  0  0  0  0  0  0  0  0  0
    1.0002    0.9214   -3.6758 F   0  0  0  0  0  0  0  0  0  0  0  0
    4.5724    0.2522   -1.4219 C   0  0  0  0  0  0  0  0  0  0  0  0
    4.7855   -0.4357   -0.2355 C   0  0  0  0  0  0  0  0  0  0  0  0
    6.0130   -0.0854    0.2728 N   0  0  0  0  0  0  0  0  0  0  0  0
    6.5753    0.7859   -0.5530 N   0  0  0  0  0  0  0  0  0  0  0  0
    5.7205    0.9822   -1.5713 N   0  0  0  0  0  0  0  0  0  0  0  0
    6.0702    1.8731   -2.6460 C   0  0  0  0  0  0  0  0  0  0  0  0
    3.8108   -1.3266    0.2788 C   0  0  0  0  0  0  0  0  0  0  0  0
    4.0832   -2.0388    1.5717 C   0  0  0  0  0  0  0  0  0  0  0  0
    0.4487   -2.5578    2.2704 C   0  0  0  0  0  0  0  0  0  0  0  0
   -0.3323   -1.9904    3.3102 C   0  0  0  0  0  0  0  0  0  0  0  0
   -0.6248   -2.5063    4.6189 C   0  0  0  0  0  0  0  0  0  0  0  0
   -1.4150   -1.6650    5.3624 C   0  0  0  0  0  0  0  0  0  0  0  0
   -1.8150   -0.2520    4.5056 S   0  0  0  0  0  0  0  0  0  0  0  0
   -0.9331   -0.7435    3.0995 C   0  0  0  0  0  0  0  0  0  0  0  0
   -1.8432    2.5192   -0.7707 S   0  0  0  0  0  6  0  0  0  0  0  0
   -2.1937    3.7915   -0.1835 O   0  0  0  0  0  0  0  0  0  0  0  0
   -0.4891    2.2806   -1.2334 O   0  0  0  0  0  0  0  0  0  0  0  0
   -2.9325    2.1611   -2.0851 C   0  0  0  0  0  0  0  0  0  0  0  0
   -2.4838    1.7338   -3.3325 C   0  0  0  0  0  0  0  0  0  0  0  0
   -3.4334    1.4049   -4.2916 C   0  0  0  0  0  0  0  0  0  0  0  0
   -2.9518    0.8677   -5.8476 Cl  0  0  0  0  0  0  0  0  0  0  0  0
   -4.7792    1.5082   -3.9594 C   0  0  0  0  0  0  0  0  0  0  0  0
   -5.2301    1.9167   -2.7463 N   0  0  0  0  0  0  0  0  0  0  0  0
   -4.2886    2.2393   -1.8351 C   0  0  0  0  0  0  0  0  0  0  0  0
   -4.7569    2.7337   -0.6562 O   0  0  0  0  0  0  0  0  0  0  0  0
   -6.1390    1.3252    2.8235 H   0  0  0  0  0  0  0  0  0  0  0  0
   -5.3377    2.5553    3.8129 H   0  0  0  0  0  0  0  0  0  0  0  0
   -4.4233    1.1601    3.2402 H   0  0  0  0  0  0  0  0  0  0  0  0
   -3.8982    3.2010    1.8850 H   0  0  0  0  0  0  0  0  0  0  0  0
   -5.5961    3.4392    1.5671 H   0  0  0  0  0  0  0  0  0  0  0  0
   -5.6780    1.2356    0.3644 H   0  0  0  0  0  0  0  0  0  0  0  0
   -3.6637    0.1649    1.3887 H   0  0  0  0  0  0  0  0  0  0  0  0
   -3.7291    0.0532   -0.3379 H   0  0  0  0  0  0  0  0  0  0  0  0
   -2.0194    1.6685    2.4033 H   0  0  0  0  0  0  0  0  0  0  0  0
   -0.5663    2.0246    1.5011 H   0  0  0  0  0  0  0  0  0  0  0  0
    0.1376   -0.1227   -0.0602 H   0  0  0  0  0  0  0  0  0  0  0  0
    0.7603   -2.4570   -0.9432 H   0  0  0  0  0  0  0  0  0  0  0  0
    0.9987   -4.5688    0.1996 H   0  0  0  0  0  0  0  0  0  0  0  0
    2.5435   -4.1094    0.8817 H   0  0  0  0  0  0  0  0  0  0  0  0
    2.4029   -4.7146   -3.0198 H   0  0  0  0  0  0  0  0  0  0  0  0
    1.5655   -0.9597   -2.2983 H   0  0  0  0  0  0  0  0  0  0  0  0
    1.8753    2.0949   -2.2659 H   0  0  0  0  0  0  0  0  0  0  0  0
    5.3521    2.6966   -2.6612 H   0  0  0  0  0  0  0  0  0  0  0  0
    6.0396    1.3155   -3.5851 H   0  0  0  0  0  0  0  0  0  0  0  0
    7.0778    2.2654   -2.4847 H   0  0  0  0  0  0  0  0  0  0  0  0
    4.4247   -3.0590    1.3764 H   0  0  0  0  0  0  0  0  0  0  0  0
    3.2048   -2.0566    2.2178 H   0  0  0  0  0  0  0  0  0  0  0  0
    4.8713   -1.5338    2.1411 H   0  0  0  0  0  0  0  0  0  0  0  0
    0.9100   -3.5233    2.4587 H   0  0  0  0  0  0  0  0  0  0  0  0
   -0.2608   -3.4558    4.9923 H   0  0  0  0  0  0  0  0  0  0  0  0
   -1.7729   -1.8140    6.3721 H   0  0  0  0  0  0  0  0  0  0  0  0
   -1.4230    1.6510   -3.5509 H   0  0  0  0  0  0  0  0  0  0  0  0
   -5.5571    1.2610   -4.6770 H   0  0  0  0  0  0  0  0  0  0  0  0
  1  2  1  0
  2  3  1  0
  3  4  1  0
  4  5  1  0
  5  6  1  0
  6  7  1  0
  7  8  2  0
  8  9  1  0
  9 10  1  0
 10 11  1  0
 11 12  1  0
 12 13  2  0
 12 14  1  0
 10 15  1  0
 15 16  2  0
 16 17  1  0
 17 18  1  0
 18 19  1  0
 19 20  1  0
 19 21  1  0
 17 22  2  0
 22 23  1  0
 23 24  1  0
 24 25  2  0
 25 26  1  0
 26 27  1  0
 23 28  2  0
 28 29  1  0
  9 30  2  0
 30 31  1  0
 31 32  1  0
 32 33  2  0
 33 34  1  0
 34 35  1  0
  5 36  1  0
 36 37  2  0
 36 38  2  0
 36 39  1  0
 39 40  2  0
 40 41  1  0
 41 42  1  0
 41 43  2  0
 43 44  1  0
 44 45  2  0
 45 46  1  0
 46  3  1  0
 35  7  1  0
 45 39  1  0
 28 15  1  0
 35 31  2  0
 26 22  1  0
  1 47  1  0
  1 48  1  0
  1 49  1  0
  2 50  1  0
  2 51  1  0
  3 52  1  6
  4 53  1  0
  4 54  1  0
  6 55  1  0
  6 56  1  0
  8 57  1  0
 10 58  1  6
 11 59  1  0
 11 60  1  0
 14 61  1  0
 16 62  1  0
 19 63  1  0
 27 64  1  0
 27 65  1  0
 27 66  1  0
 29 67  1  0
 29 68  1  0
 29 69  1  0
 30 70  1  0
 32 71  1  0
 33 72  1  0
 40 73  1  0
 43 74  1  0
M  END
>  <mol_id>  (1) 
16948

>  <source_index>  (1) 
2

>  <layer>  (1) 
L2

>  <uniprot>  (1) 
Q14145

>  <paff>  (1) 
7.6989999999999998

>  <smiles>  (1) 
CC[C@@H]6CN(Cc3cc(C(CC(=O)O)c2cc(OC(F)F)c1c(nnn1C)c2C)cc4ccsc34)S(=O)(=O)c5cc(Cl)cnc5O6

$$$$
