L2:Q14145:16948


 47 52  0  0  0  0  0  0  0  0999 V2000
    1.5656    0.2172  -20.9808 C   0  0  0  0  0  0  0  0  0  0  0  0
    2.9181    0.6173  -21.0509 C   0  0  0  0  0  0  0  0  0  0  0  0
    3.3866    1.8397  -20.5562 C   0  0  0  0  0  0  0  0  0  0  0  0
    2.4574    2.6956  -19.9524 C   0  0  0  0  0  0  0  0  0  0  0  0
    1.0834    2.3532  -19.8633 C   0  0  0  0  0  0  0  0  0  0  0  0
   -0.0095    3.0983  -19.3022 C   0  0  0  0  0  0  0  0  0  0  0  0
   -1.2127    2.4452  -19.4060 C   0  0  0  0  0  0  0  0  0  0  0  0
   -1.0492    0.9371  -20.1738 S   0  0  0  0  0  0  0  0  0  0  0  0
    0.6591    1.1239  -20.3820 C   0  0  0  0  0  0  0  0  0  0  0  0
    1.1812   -1.1242  -21.5743 C   0  0  0  0  0  0  0  0  0  0  0  0
    3.3708   -3.8463  -22.2982 C   0  0  0  0  0  0  0  0  0  0  0  0
    3.3342   -2.3135  -22.0715 C   0  0  0  0  0  0  0  0  0  0  0  0
    2.1545   -1.5710  -22.6000 N   0  0  0  0  0  0  0  0  0  0  0  0
    1.4907   -1.9522  -24.1037 S   0  0  0  0  0  0  0  0  0  0  0  0
    0.6282   -3.1016  -23.9572 O   0  0  0  0  0  0  0  0  0  0  0  0
    0.9660   -0.7146  -24.6495 O   0  0  0  0  0  0  0  0  0  0  0  0
    2.9019   -2.3933  -25.0290 C   0  0  0  0  0  0  0  0  0  0  0  0
    3.3639   -1.6291  -26.0979 C   0  0  0  0  0  0  0  0  0  0  0  0
    4.5378   -2.0255  -26.7262 C   0  0  0  0  0  0  0  0  0  0  0  0
    5.1662   -1.1289  -28.0463 Cl  0  0  0  0  0  0  0  0  0  0  0  0
    5.1972   -3.1546  -26.2545 C   0  0  0  0  0  0  0  0  0  0  0  0
    4.7620   -3.9044  -25.2104 N   0  0  0  0  0  0  0  0  0  0  0  0
    3.6149   -3.5044  -24.6230 C   0  0  0  0  0  0  0  0  0  0  0  0
    3.1443   -4.3181  -23.6381 O   0  0  0  0  0  0  0  0  0  0  0  0
    2.1188   -3.9627  -20.0605 C   0  0  0  0  0  0  0  0  0  0  0  0
    2.3819   -4.6184  -21.4066 C   0  0  0  0  0  0  0  0  0  0  0  0
    4.8811    2.1603  -20.6796 C   0  0  0  0  0  0  0  0  0  0  0  0
    5.3488    2.1960  -22.1493 C   0  0  0  0  0  0  0  0  0  0  0  0
    6.4162    1.3260  -22.4842 C   0  0  0  0  0  0  0  0  0  0  0  0
    6.9161    1.2093  -23.7839 C   0  0  0  0  0  0  0  0  0  0  0  0
    6.3664    2.0548  -24.7401 C   0  0  0  0  0  0  0  0  0  0  0  0
    5.3202    2.9236  -24.4632 C   0  0  0  0  0  0  0  0  0  0  0  0
    4.9838    3.6017  -25.6098 N   0  0  0  0  0  0  0  0  0  0  0  0
    5.7832    3.1960  -26.5864 N   0  0  0  0  0  0  0  0  0  0  0  0
    6.6166    2.2785  -26.0670 N   0  0  0  0  0  0  0  0  0  0  0  0
    7.6224    1.6663  -26.8944 C   0  0  0  0  0  0  0  0  0  0  0  0
    4.7602    3.0037  -23.1639 C   0  0  0  0  0  0  0  0  0  0  0  0
    3.6223    3.9509  -22.9170 C   0  0  0  0  0  0  0  0  0  0  0  0
    7.9307    0.3531  -24.1100 O   0  0  0  0  0  0  0  0  0  0  0  0
    7.4572   -0.9840  -24.2566 C   0  0  0  0  0  0  0  0  0  0  0  0
    7.8238   -1.3966  -25.4973 F   0  0  0  0  0  0  0  0  0  0  0  0
    8.1191   -1.7762  -23.3758 F   0  0  0  0  0  0  0  0  0  0  0  0
    5.3818    3.3449  -19.8358 C   0  0  0  0  0  0  0  0  0  0  0  0
    5.9191    2.9165  -18.5006 C   0  0  0  0  0  0  0  0  0  0  0  0
    6.5956    1.9245  -18.2875 O   0  0  0  0  0  0  0  0  0  0  0  0
    5.6422    3.7823  -17.5085 O   0  0  0  0  0  0  0  0  0  0  0  0
    6.0654    3.3796  -16.7197 H   0  0  0  0  0  0  0  0  0  0  0  0
 25 26  1  0  0  0
 26 11  1  0  0  0
 11 12  1  0  0  0
 12 13  1  0  0  0
 13 10  1  0  0  0
 10  1  1  0  0  0
  1  2  2  0  0  0
  2  3  1  0  0  0
  3 27  1  0  0  0
 27 43  1  0  0  0
 43 44  1  0  0  0
 44 45  2  0  0  0
 44 46  1  0  0  0
 27 28  1  0  0  0
 28 29  2  0  0  0
 29 30  1  0  0  0
 30 39  1  0  0  0
 39 40  1  0  0  0
 40 41  1  0  0  0
 40 42  1  0  0  0
 30 31  2  0  0  0
 31 32  1  0  0  0
 32 33  1  0  0  0
 33 34  2  0  0  0
 34 35  1  0  0  0
 35 36  1  0  0  0
 32 37  2  0  0  0
 37 38  1  0  0  0
  3  4  2  0  0  0
  4  5  1  0  0  0
  5  6  1  0  0  0
  6  7  2  0  0  0
  7  8  1  0  0  0
  8  9  1  0  0  0
 13 14  1  0  0  0
 14 15  2  0  0  0
 14 16  2  0  0  0
 14 17  1  0  0  0
 17 18  2  0  0  0
 18 19  1  0  0  0
 19 20  1  0  0  0
 19 21  2  0  0  0
 21 22  1  0  0  0
 22 23  2  0  0  0
 23 24  1  0  0  0
 24 11  1  0  0  0
  9  1  1  0  0  0
 23 17  1  0  0  0
 37 28  1  0  0  0
  9  5  2  0  0  0
 35 31  1  0  0  0
 46 47  1  0  0  0
M  END
> <minimizedAffinity>
-10.28604

$$$$
