L2:Q14145:41332
     RDKit          3D

 74 79  0  0  0  0  0  0  0  0999 V2000
   -5.1718   -2.1072   -1.9449 C   0  0  0  0  0  0  0  0  0  0  0  0
   -5.0757   -0.7329   -1.3009 C   0  0  0  0  0  0  0  0  0  0  0  0
   -3.7284   -0.4832   -0.6052 C   0  0  2  0  0  0  0  0  0  0  0  0
   -3.4366   -1.4556    0.5551 C   0  0  0  0  0  0  0  0  0  0  0  0
   -2.3528   -0.8631    1.3762 N   0  0  0  0  0  0  0  0  0  0  0  0
   -1.2297   -1.7832    1.6680 C   0  0  0  0  0  0  0  0  0  0  0  0
   -0.3776   -2.0307    0.4381 C   0  0  0  0  0  0  0  0  0  0  0  0
    0.2127   -0.9191   -0.2042 C   0  0  0  0  0  0  0  0  0  0  0  0
    1.0133   -1.0300   -1.3487 C   0  0  0  0  0  0  0  0  0  0  0  0
    1.5800    0.2519   -1.9716 C   0  0  2  0  0  0  0  0  0  0  0  0
    2.2702    0.1502   -3.3469 C   0  0  0  0  0  0  0  0  0  0  0  0
    3.6895   -0.3494   -3.3066 C   0  0  0  0  0  0  0  0  0  0  0  0
    4.0655   -1.4577   -2.9651 O   0  0  0  0  0  0  0  0  0  0  0  0
    4.5800    0.5768   -3.7090 O   0  0  0  0  0  0  0  0  0  0  0  0
    2.4189    1.0913   -0.9879 C   0  0  0  0  0  0  0  0  0  0  0  0
    3.4354    0.4480   -0.2392 C   0  0  0  0  0  0  0  0  0  0  0  0
    4.2662    1.1281    0.6608 C   0  0  0  0  0  0  0  0  0  0  0  0
    5.2657    0.5778    1.4054 O   0  0  0  0  0  0  0  0  0  0  0  0
    5.7716   -0.6824    0.9890 C   0  0  0  0  0  0  0  0  0  0  0  0
    6.8814   -0.9532    1.7119 F   0  0  0  0  0  0  0  0  0  0  0  0
    6.1181   -0.6630   -0.3157 F   0  0  0  0  0  0  0  0  0  0  0  0
    4.8741   -1.6625    1.2144 F   0  0  0  0  0  0  0  0  0  0  0  0
    4.0100    2.4942    0.8010 C   0  0  0  0  0  0  0  0  0  0  0  0
    3.0288    3.1695    0.0868 C   0  0  0  0  0  0  0  0  0  0  0  0
    3.0417    4.4970    0.4373 N   0  0  0  0  0  0  0  0  0  0  0  0
    3.9883    4.6794    1.3455 N   0  0  0  0  0  0  0  0  0  0  0  0
    4.5611    3.4851    1.5725 N   0  0  0  0  0  0  0  0  0  0  0  0
    5.6228    3.3720    2.5373 C   0  0  0  0  0  0  0  0  0  0  0  0
    2.2063    2.4887   -0.8366 C   0  0  0  0  0  0  0  0  0  0  0  0
    1.1397    3.2264   -1.5973 C   0  0  0  0  0  0  0  0  0  0  0  0
    1.2158   -2.3104   -1.8758 C   0  0  0  0  0  0  0  0  0  0  0  0
    0.6558   -3.4636   -1.2675 C   0  0  0  0  0  0  0  0  0  0  0  0
    0.7649   -4.8438   -1.6511 C   0  0  0  0  0  0  0  0  0  0  0  0
    0.0782   -5.6886   -0.8146 C   0  0  0  0  0  0  0  0  0  0  0  0
   -0.7056   -4.8417    0.4348 S   0  0  0  0  0  0  0  0  0  0  0  0
   -0.1303   -3.3063   -0.1214 C   0  0  0  0  0  0  0  0  0  0  0  0
   -2.8636    0.0587    2.6939 S   0  0  0  0  0  6  0  0  0  0  0  0
   -3.4639   -0.8724    3.6285 O   0  0  0  0  0  0  0  0  0  0  0  0
   -1.7723    0.9163    3.0973 O   0  0  0  0  0  0  0  0  0  0  0  0
   -4.1613    1.0844    2.1147 C   0  0  0  0  0  0  0  0  0  0  0  0
   -5.0443    1.6202    3.0605 C   0  0  0  0  0  0  0  0  0  0  0  0
   -6.1117    2.3920    2.6245 C   0  0  0  0  0  0  0  0  0  0  0  0
   -7.2162    3.0729    3.7452 Cl  0  0  0  0  0  0  0  0  0  0  0  0
   -6.2644    2.5900    1.2625 C   0  0  0  0  0  0  0  0  0  0  0  0
   -5.4302    2.0690    0.3299 N   0  0  0  0  0  0  0  0  0  0  0  0
   -4.3934    1.3174    0.7725 C   0  0  0  0  0  0  0  0  0  0  0  0
   -3.5657    0.9006   -0.2241 O   0  0  0  0  0  0  0  0  0  0  0  0
   -4.3572   -2.2643   -2.6589 H   0  0  0  0  0  0  0  0  0  0  0  0
   -5.1340   -2.9036   -1.1956 H   0  0  0  0  0  0  0  0  0  0  0  0
   -6.1190   -2.2036   -2.4852 H   0  0  0  0  0  0  0  0  0  0  0  0
   -5.2294    0.0363   -2.0679 H   0  0  0  0  0  0  0  0  0  0  0  0
   -5.9004   -0.6160   -0.5879 H   0  0  0  0  0  0  0  0  0  0  0  0
   -2.9408   -0.6397   -1.3544 H   0  0  0  0  0  0  0  0  0  0  0  0
   -4.3317   -1.6233    1.1659 H   0  0  0  0  0  0  0  0  0  0  0  0
   -3.1608   -2.4387    0.1602 H   0  0  0  0  0  0  0  0  0  0  0  0
   -1.6268   -2.7139    2.0855 H   0  0  0  0  0  0  0  0  0  0  0  0
   -0.5673   -1.3548    2.4302 H   0  0  0  0  0  0  0  0  0  0  0  0
    0.0242    0.0717    0.2177 H   0  0  0  0  0  0  0  0  0  0  0  0
    0.6593    0.8130   -2.1851 H   0  0  0  0  0  0  0  0  0  0  0  0
    2.2870    1.1473   -3.8078 H   0  0  0  0  0  0  0  0  0  0  0  0
    1.7048   -0.4814   -4.0417 H   0  0  0  0  0  0  0  0  0  0  0  0
    5.4517    0.1392   -3.6076 H   0  0  0  0  0  0  0  0  0  0  0  0
    3.5555   -0.6266   -0.3769 H   0  0  0  0  0  0  0  0  0  0  0  0
    6.5251    3.0326    2.0230 H   0  0  0  0  0  0  0  0  0  0  0  0
    5.8067    4.3467    2.9973 H   0  0  0  0  0  0  0  0  0  0  0  0
    5.3211    2.6558    3.3054 H   0  0  0  0  0  0  0  0  0  0  0  0
    0.1479    2.8732   -1.2977 H   0  0  0  0  0  0  0  0  0  0  0  0
    1.2693    3.0890   -2.6748 H   0  0  0  0  0  0  0  0  0  0  0  0
    1.1786    4.3029   -1.4015 H   0  0  0  0  0  0  0  0  0  0  0  0
    1.8163   -2.4654   -2.7667 H   0  0  0  0  0  0  0  0  0  0  0  0
    1.3318   -5.1914   -2.5064 H   0  0  0  0  0  0  0  0  0  0  0  0
    0.0024   -6.7655   -0.8788 H   0  0  0  0  0  0  0  0  0  0  0  0
   -4.8949    1.4349    4.1220 H   0  0  0  0  0  0  0  0  0  0  0  0
   -7.0801    3.1879    0.8654 H   0  0  0  0  0  0  0  0  0  0  0  0
  1  2  1  0
  2  3  1  0
  3  4  1  0
  4  5  1  0
  5  6  1  0
  6  7  1  0
  7  8  2  0
  8  9  1  0
  9 10  1  0
 10 11  1  0
 11 12  1  0
 12 13  2  0
 12 14  1  0
 10 15  1  0
 15 16  2  0
 16 17  1  0
 17 18  1  0
 18 19  1  0
 19 20  1  0
 19 21  1  0
 19 22  1  0
 17 23  2  0
 23 24  1  0
 24 25  1  0
 25 26  2  0
 26 27  1  0
 27 28  1  0
 24 29  2  0
 29 30  1  0
  9 31  2  0
 31 32  1  0
 32 33  1  0
 33 34  2  0
 34 35  1  0
 35 36  1  0
  5 37  1  0
 37 38  2  0
 37 39  2  0
 37 40  1  0
 40 41  2  0
 41 42  1  0
 42 43  1  0
 42 44  2  0
 44 45  1  0
 45 46  2  0
 46 47  1  0
 47  3  1  0
 36  7  1  0
 46 40  1  0
 29 15  1  0
 36 32  2  0
 27 23  1  0
  1 48  1  0
  1 49  1  0
  1 50  1  0
  2 51  1  0
  2 52  1  0
  3 53  1  6
  4 54  1  0
  4 55  1  0
  6 56  1  0
  6 57  1  0
  8 58  1  0
 10 59  1  6
 11 60  1  0
 11 61  1  0
 14 62  1  0
 16 63  1  0
 28 64  1  0
 28 65  1  0
 28 66  1  0
 30 67  1  0
 30 68  1  0
 30 69  1  0
 31 70  1  0
 33 71  1  0
 34 72  1  0
 41 73  1  0
 44 74  1  0
M  END
>  <mol_id>  (1) 
41332

>  <source_index>  (1) 
3

>  <layer>  (1) 
L2

>  <uniprot>  (1) 
Q14145

>  <paff>  (1) 
7.6989999999999998

>  <smiles>  (1) 
CC[C@@H]6CN(Cc3cc(C(CC(=O)O)c2cc(OC(F)(F)F)c1c(nnn1C)c2C)cc4ccsc34)S(=O)(=O)c5cc(Cl)cnc5O6

$$$$
