L2:Q14145:41332
 OpenBabel09212617563D

 74 79  0  0  0  0  0  0  0  0999 V2000
    1.9713    1.5965  -20.4916 C   0  0  0  0  0  0  0  0  0  0  0  0
    2.2997    0.2877  -20.9110 C   0  0  0  0  0  0  0  0  0  0  0  0
    1.3971   -0.7829  -20.8622 C   0  0  0  0  0  0  0  0  0  0  0  0
    0.1077   -0.5218  -20.3853 C   0  0  0  0  0  0  0  0  0  0  0  0
   -0.2750    0.7707  -19.9419 C   0  0  0  0  0  0  0  0  0  0  0  0
   -1.5328    1.2204  -19.4129 C   0  0  0  0  0  0  0  0  0  0  0  0
   -1.5319    2.5547  -19.0892 C   0  0  0  0  0  0  0  0  0  0  0  0
   -0.0305    3.2836  -19.4165 S   0  0  0  0  0  0  0  0  0  0  0  0
    0.6614    1.8079  -20.0011 C   0  0  0  0  0  0  0  0  0  0  0  0
    3.0327    2.6745  -20.5981 C   0  0  0  0  0  0  0  0  0  0  0  0
    3.9974    1.5964  -23.9159 C   0  0  2  0  0  0  0  0  0  0  0  0
    3.8158    2.7940  -22.9621 C   0  0  0  0  0  0  0  0  0  0  0  0
    4.0779    2.3142  -21.5833 N   0  0  0  0  0  0  0  0  0  0  0  0
    5.6597    2.5196  -21.0332 S   0  0  0  0  0  0  0  0  0  0  0  0
    5.8535    3.9487  -20.8881 O   0  0  0  0  0  0  0  0  0  0  0  0
    5.8717    1.6244  -19.9184 O   0  0  0  0  0  0  0  0  0  0  0  0
    6.7137    2.0070  -22.3362 C   0  0  0  0  0  0  0  0  0  0  0  0
    8.0364    2.4672  -22.3280 C   0  0  0  0  0  0  0  0  0  0  0  0
    8.8772    2.1199  -23.3757 C   0  0  0  0  0  0  0  0  0  0  0  0
   10.5056    2.6555  -23.4070 Cl  0  0  0  0  0  0  0  0  0  0  0  0
    8.3639    1.3375  -24.3965 C   0  0  0  0  0  0  0  0  0  0  0  0
    7.0837    0.8937  -24.4311 N   0  0  0  0  0  0  0  0  0  0  0  0
    6.2759    1.2423  -23.4007 C   0  0  0  0  0  0  0  0  0  0  0  0
    5.0343    0.6907  -23.4786 O   0  0  0  0  0  0  0  0  0  0  0  0
    4.6492    3.4278  -25.5701 C   0  0  0  0  0  0  0  0  0  0  0  0
    4.1681    1.9965  -25.3898 C   0  0  0  0  0  0  0  0  0  0  0  0
    1.8614   -2.1543  -21.3684 C   0  0  1  0  0  0  0  0  0  0  0  0
    2.6512   -2.0835  -22.6902 C   0  0  0  0  0  0  0  0  0  0  0  0
    4.0415   -2.3563  -22.6680 C   0  0  0  0  0  0  0  0  0  0  0  0
    4.8402   -2.3415  -23.8189 C   0  0  0  0  0  0  0  0  0  0  0  0
    4.1807   -2.0078  -25.0043 C   0  0  0  0  0  0  0  0  0  0  0  0
    2.8205   -1.7368  -25.0771 C   0  0  0  0  0  0  0  0  0  0  0  0
    2.4791   -1.4623  -26.3784 N   0  0  0  0  0  0  0  0  0  0  0  0
    3.5714   -1.5460  -27.1227 N   0  0  0  0  0  0  0  0  0  0  0  0
    4.5902   -1.8610  -26.3049 N   0  0  0  0  0  0  0  0  0  0  0  0
    5.9192   -2.0026  -26.8384 C   0  0  0  0  0  0  0  0  0  0  0  0
    2.0112   -1.7734  -23.9211 C   0  0  0  0  0  0  0  0  0  0  0  0
    0.5416   -1.4682  -24.0082 C   0  0  0  0  0  0  0  0  0  0  0  0
    6.1766   -2.6010  -23.8733 O   0  0  0  0  0  0  0  0  0  0  0  0
    6.5872   -3.9494  -23.6976 C   0  0  0  0  0  0  0  0  0  0  0  0
    7.7355   -4.1357  -24.3863 F   0  0  0  0  0  0  0  0  0  0  0  0
    5.6655   -4.8081  -24.1831 F   0  0  0  0  0  0  0  0  0  0  0  0
    6.8287   -4.2162  -22.3986 F   0  0  0  0  0  0  0  0  0  0  0  0
    2.5382   -3.1103  -20.3652 C   0  0  0  0  0  0  0  0  0  0  0  0
    2.2112   -4.5665  -20.5605 C   0  0  0  0  0  0  0  0  0  0  0  0
    2.9642   -5.4382  -20.9598 O   0  0  0  0  0  0  0  0  0  0  0  0
    0.9392   -4.8637  -20.2341 O   0  0  0  0  0  0  0  0  0  0  0  0
    0.8522   -5.8201  -20.4327 H   0  0  0  0  0  0  0  0  0  0  0  0
    3.2508    0.1118  -21.2708 H   0  0  0  0  0  0  0  0  0  0  0  0
   -0.5823   -1.2886  -20.3553 H   0  0  0  0  0  0  0  0  0  0  0  0
   -2.3517    0.6046  -19.2891 H   0  0  0  0  0  0  0  0  0  0  0  0
   -2.3440    3.0548  -18.6950 H   0  0  0  0  0  0  0  0  0  0  0  0
    2.5691    3.5895  -20.9025 H   0  0  0  0  0  0  0  0  0  0  0  0
    3.4979    2.7822  -19.6406 H   0  0  0  0  0  0  0  0  0  0  0  0
    3.0715    1.0624  -23.8668 H   0  0  0  0  0  0  0  0  0  0  0  0
    2.8163    3.1691  -23.0339 H   0  0  0  0  0  0  0  0  0  0  0  0
    4.4900    3.5842  -23.2191 H   0  0  0  0  0  0  0  0  0  0  0  0
    8.3808    3.0562  -21.5538 H   0  0  0  0  0  0  0  0  0  0  0  0
    8.9909    1.0779  -25.1740 H   0  0  0  0  0  0  0  0  0  0  0  0
    4.7472    3.6423  -26.6138 H   0  0  0  0  0  0  0  0  0  0  0  0
    5.5981    3.5482  -25.0906 H   0  0  0  0  0  0  0  0  0  0  0  0
    3.9408    4.1000  -25.1328 H   0  0  0  0  0  0  0  0  0  0  0  0
    4.8816    1.3386  -25.8403 H   0  0  0  0  0  0  0  0  0  0  0  0
    3.2061    1.9237  -25.8525 H   0  0  0  0  0  0  0  0  0  0  0  0
    0.9155   -2.6212  -21.5478 H   0  0  0  0  0  0  0  0  0  0  0  0
    4.4859   -2.5759  -21.7629 H   0  0  0  0  0  0  0  0  0  0  0  0
    5.9012   -1.8227  -27.8930 H   0  0  0  0  0  0  0  0  0  0  0  0
    6.2747   -2.9944  -26.6518 H   0  0  0  0  0  0  0  0  0  0  0  0
    6.5699   -1.2959  -26.3671 H   0  0  0  0  0  0  0  0  0  0  0  0
    0.2792   -1.2649  -25.0254 H   0  0  0  0  0  0  0  0  0  0  0  0
    0.3185   -0.6133  -23.4046 H   0  0  0  0  0  0  0  0  0  0  0  0
   -0.0188   -2.3091  -23.6565 H   0  0  0  0  0  0  0  0  0  0  0  0
    2.2313   -2.8297  -19.3793 H   0  0  0  0  0  0  0  0  0  0  0  0
    3.5922   -3.0149  -20.5230 H   0  0  0  0  0  0  0  0  0  0  0  0
  1  2  2  0  0  0  0
  2  3  1  0  0  0  0
  2 49  1  0  0  0  0
  3 27  1  0  0  0  0
  3  4  2  0  0  0  0
  4  5  1  0  0  0  0
  4 50  1  0  0  0  0
  5  6  1  0  0  0  0
  6  7  2  0  0  0  0
  6 51  1  0  0  0  0
  7  8  1  0  0  0  0
  7 52  1  0  0  0  0
  8  9  1  0  0  0  0
  9  1  1  0  0  0  0
  9  5  2  0  0  0  0
 10  1  1  0  0  0  0
 10 53  1  0  0  0  0
 10 54  1  0  0  0  0
 11 12  1  0  0  0  0
 11 55  1  1  0  0  0
 12 13  1  0  0  0  0
 12 56  1  0  0  0  0
 12 57  1  0  0  0  0
 13 10  1  0  0  0  0
 13 14  1  0  0  0  0
 14 15  2  0  0  0  0
 14 16  2  0  0  0  0
 14 17  1  0  0  0  0
 17 18  2  0  0  0  0
 18 19  1  0  0  0  0
 18 58  1  0  0  0  0
 19 20  1  0  0  0  0
 19 21  2  0  0  0  0
 21 22  1  0  0  0  0
 21 59  1  0  0  0  0
 22 23  2  0  0  0  0
 23 24  1  0  0  0  0
 23 17  1  0  0  0  0
 24 11  1  0  0  0  0
 25 26  1  0  0  0  0
 25 60  1  0  0  0  0
 25 61  1  0  0  0  0
 25 62  1  0  0  0  0
 26 11  1  0  0  0  0
 26 63  1  0  0  0  0
 26 64  1  0  0  0  0
 27 44  1  0  0  0  0
 27 28  1  0  0  0  0
 27 65  1  6  0  0  0
 28 29  2  0  0  0  0
 29 30  1  0  0  0  0
 29 66  1  0  0  0  0
 30 39  1  0  0  0  0
 30 31  2  0  0  0  0
 31 32  1  0  0  0  0
 32 33  1  0  0  0  0
 32 37  2  0  0  0  0
 33 34  2  0  0  0  0
 34 35  1  0  0  0  0
 35 36  1  0  0  0  0
 35 31  1  0  0  0  0
 36 67  1  0  0  0  0
 36 68  1  0  0  0  0
 36 69  1  0  0  0  0
 37 38  1  0  0  0  0
 37 28  1  0  0  0  0
 38 70  1  0  0  0  0
 38 71  1  0  0  0  0
 38 72  1  0  0  0  0
 39 40  1  0  0  0  0
 40 41  1  0  0  0  0
 40 42  1  0  0  0  0
 40 43  1  0  0  0  0
 44 45  1  0  0  0  0
 44 73  1  0  0  0  0
 44 74  1  0  0  0  0
 45 46  2  0  0  0  0
 45 47  1  0  0  0  0
 47 48  1  0  0  0  0
M  END
>  <minimizedAffinity>
-9.88532

$$$$
