L2:Q14145:62918


 42 47  0  0  0  0  0  0  0  0999 V2000
    3.2952    0.1856  -21.7011 C   0  0  0  0  0  0  0  0  0  0  0  0
    4.0953    1.3401  -21.8559 C   0  0  0  0  0  0  0  0  0  0  0  0
    3.7740    2.5799  -21.2876 C   0  0  0  0  0  0  0  0  0  0  0  0
    2.5942    2.6649  -20.5401 C   0  0  0  0  0  0  0  0  0  0  0  0
    1.7575    1.5367  -20.3402 C   0  0  0  0  0  0  0  0  0  0  0  0
    0.5302    1.4297  -19.6008 C   0  0  0  0  0  0  0  0  0  0  0  0
   -0.0014    0.1644  -19.6248 C   0  0  0  0  0  0  0  0  0  0  0  0
    0.9607   -0.9081  -20.5277 S   0  0  0  0  0  0  0  0  0  0  0  0
    2.1219    0.3161  -20.9189 C   0  0  0  0  0  0  0  0  0  0  0  0
    3.7489   -1.1080  -22.3589 C   0  0  0  0  0  0  0  0  0  0  0  0
    4.1341   -4.2603  -22.3516 C   0  0  0  0  0  0  0  0  0  0  0  0
    3.0115   -3.3846  -21.7398 C   0  0  0  0  0  0  0  0  0  0  0  0
    2.6770   -2.1199  -22.4321 N   0  0  0  0  0  0  0  0  0  0  0  0
    2.2071   -2.3700  -23.8188 C   0  0  0  0  0  0  0  0  0  0  0  0
    1.3473   -1.1926  -24.3106 C   0  0  0  0  0  0  0  0  0  0  0  0
    3.3014   -2.7631  -24.8078 C   0  0  0  0  0  0  0  0  0  0  0  0
    3.6052   -1.9098  -25.8236 N   0  0  0  0  0  0  0  0  0  0  0  0
    4.5465   -2.3039  -26.7103 C   0  0  0  0  0  0  0  0  0  0  0  0
    5.2151   -3.5145  -26.6404 C   0  0  0  0  0  0  0  0  0  0  0  0
    4.9146   -4.3698  -25.5877 C   0  0  0  0  0  0  0  0  0  0  0  0
    3.9678   -3.9789  -24.6473 C   0  0  0  0  0  0  0  0  0  0  0  0
    3.7054   -4.8287  -23.6103 O   0  0  0  0  0  0  0  0  0  0  0  0
    5.6561   -6.2837  -21.9193 C   0  0  0  0  0  0  0  0  0  0  0  0
    4.4587   -5.4698  -21.4549 C   0  0  0  0  0  0  0  0  0  0  0  0
    4.7149    3.7641  -21.5402 C   0  0  0  0  0  0  0  0  0  0  0  0
    5.6292    3.5750  -22.7647 C   0  0  0  0  0  0  0  0  0  0  0  0
    7.0295    3.5583  -22.5746 C   0  0  0  0  0  0  0  0  0  0  0  0
    7.9569    3.4080  -23.6230 C   0  0  0  0  0  0  0  0  0  0  0  0
    9.4259    3.3859  -23.3237 C   0  0  0  0  0  0  0  0  0  0  0  0
    7.3941    3.2603  -24.8997 C   0  0  0  0  0  0  0  0  0  0  0  0
    6.0221    3.2786  -25.1346 C   0  0  0  0  0  0  0  0  0  0  0  0
    5.7840    3.1206  -26.4776 N   0  0  0  0  0  0  0  0  0  0  0  0
    6.9478    2.9987  -27.0952 N   0  0  0  0  0  0  0  0  0  0  0  0
    7.9092    3.0696  -26.1584 N   0  0  0  0  0  0  0  0  0  0  0  0
    9.2858    2.9420  -26.5563 C   0  0  0  0  0  0  0  0  0  0  0  0
    5.1002    3.4402  -24.0761 C   0  0  0  0  0  0  0  0  0  0  0  0
    3.6215    3.4399  -24.3480 C   0  0  0  0  0  0  0  0  0  0  0  0
    5.4903    4.3367  -20.3372 C   0  0  0  0  0  0  0  0  0  0  0  0
    5.7428    3.3631  -19.2167 C   0  0  0  0  0  0  0  0  0  0  0  0
    6.3752    2.3221  -19.2717 O   0  0  0  0  0  0  0  0  0  0  0  0
    5.1455    3.7333  -18.0669 O   0  0  0  0  0  0  0  0  0  0  0  0
    5.3996    3.0373  -17.4258 H   0  0  0  0  0  0  0  0  0  0  0  0
 23 24  1  0  0  0
 24 11  1  0  0  0
 11 12  1  0  0  0
 12 13  1  0  0  0
 13 10  1  0  0  0
 10  1  1  0  0  0
  1  2  2  0  0  0
  2  3  1  0  0  0
  3 25  1  0  0  0
 25 38  1  0  0  0
 38 39  1  0  0  0
 39 40  2  0  0  0
 39 41  1  0  0  0
 25 26  1  0  0  0
 26 27  2  0  0  0
 27 28  1  0  0  0
 28 29  1  0  0  0
 28 30  2  0  0  0
 30 31  1  0  0  0
 31 32  1  0  0  0
 32 33  2  0  0  0
 33 34  1  0  0  0
 34 35  1  0  0  0
 31 36  2  0  0  0
 36 37  1  0  0  0
  3  4  2  0  0  0
  4  5  1  0  0  0
  5  6  1  0  0  0
  6  7  2  0  0  0
  7  8  1  0  0  0
  8  9  1  0  0  0
 13 14  1  0  0  0
 14 15  1  0  0  0
 14 16  1  0  0  0
 16 17  2  0  0  0
 17 18  1  0  0  0
 18 19  2  0  0  0
 19 20  1  0  0  0
 20 21  2  0  0  0
 21 22  1  0  0  0
 22 11  1  0  0  0
  9  1  1  0  0  0
 21 16  1  0  0  0
 36 26  1  0  0  0
  9  5  2  0  0  0
 34 30  1  0  0  0
 41 42  1  0  0  0
M  END
> <minimizedAffinity>
-9.98049

$$$$
