L2:Q14145:62918
     RDKit          3D

 76 81  0  0  0  0  0  0  0  0999 V2000
   -5.2576   -2.1110   -0.5046 C   0  0  0  0  0  0  0  0  0  0  0  0
   -5.6528   -0.9960    0.4506 C   0  0  0  0  0  0  0  0  0  0  0  0
   -4.6657    0.1860    0.4809 C   0  0  2  0  0  0  0  0  0  0  0  0
   -3.3212   -0.2134    1.1397 C   0  0  0  0  0  0  0  0  0  0  0  0
   -2.2311    0.7877    1.1301 N   0  0  0  0  0  0  0  0  0  0  0  0
   -1.6931    1.0586   -0.2173 C   0  0  0  0  0  0  0  0  0  0  0  0
   -0.9856   -0.1434   -0.8227 C   0  0  0  0  0  0  0  0  0  0  0  0
    0.1052   -0.7087   -0.1244 C   0  0  0  0  0  0  0  0  0  0  0  0
    0.8305   -1.8116   -0.5946 C   0  0  0  0  0  0  0  0  0  0  0  0
    1.9854   -2.3443    0.2621 C   0  0  1  0  0  0  0  0  0  0  0  0
    2.5731   -3.7229   -0.0990 C   0  0  0  0  0  0  0  0  0  0  0  0
    3.5922   -3.7135   -1.2074 C   0  0  0  0  0  0  0  0  0  0  0  0
    3.4309   -3.3354   -2.3553 O   0  0  0  0  0  0  0  0  0  0  0  0
    4.7783   -4.2241   -0.8223 O   0  0  0  0  0  0  0  0  0  0  0  0
    3.0934   -1.3060    0.5178 C   0  0  0  0  0  0  0  0  0  0  0  0
    3.5839   -0.5496   -0.5706 C   0  0  0  0  0  0  0  0  0  0  0  0
    4.6043    0.4132   -0.4539 C   0  0  0  0  0  0  0  0  0  0  0  0
    5.0499    1.1799   -1.6629 C   0  0  0  0  0  0  0  0  0  0  0  0
    5.1107    0.5906    0.8424 C   0  0  0  0  0  0  0  0  0  0  0  0
    4.6636   -0.1373    1.9416 C   0  0  0  0  0  0  0  0  0  0  0  0
    5.3531    0.2538    3.0627 N   0  0  0  0  0  0  0  0  0  0  0  0
    6.2105    1.1997    2.7152 N   0  0  0  0  0  0  0  0  0  0  0  0
    6.0619    1.4120    1.3962 N   0  0  0  0  0  0  0  0  0  0  0  0
    6.8653    2.4175    0.7536 C   0  0  0  0  0  0  0  0  0  0  0  0
    3.6457   -1.1087    1.8115 C   0  0  0  0  0  0  0  0  0  0  0  0
    3.1642   -1.8722    3.0138 C   0  0  0  0  0  0  0  0  0  0  0  0
    0.4368   -2.3754   -1.8132 C   0  0  0  0  0  0  0  0  0  0  0  0
   -0.6427   -1.8434   -2.5646 C   0  0  0  0  0  0  0  0  0  0  0  0
   -1.1758   -2.2739   -3.8275 C   0  0  0  0  0  0  0  0  0  0  0  0
   -2.2303   -1.5056   -4.2540 C   0  0  0  0  0  0  0  0  0  0  0  0
   -2.5921   -0.2619   -3.1525 S   0  0  0  0  0  0  0  0  0  0  0  0
   -1.3332   -0.7356   -2.0612 C   0  0  0  0  0  0  0  0  0  0  0  0
   -2.6231    2.0214    1.8586 C   0  0  1  0  0  0  0  0  0  0  0  0
   -1.3717    2.7782    2.3369 C   0  0  0  0  0  0  0  0  0  0  0  0
   -3.6153    2.9164    1.1207 C   0  0  0  0  0  0  0  0  0  0  0  0
   -3.2061    4.1457    0.7040 N   0  0  0  0  0  0  0  0  0  0  0  0
   -4.1187    4.9343    0.0934 C   0  0  0  0  0  0  0  0  0  0  0  0
   -5.4332    4.5624   -0.1328 C   0  0  0  0  0  0  0  0  0  0  0  0
   -5.8365    3.2974    0.2761 C   0  0  0  0  0  0  0  0  0  0  0  0
   -4.9117    2.4561    0.8848 C   0  0  0  0  0  0  0  0  0  0  0  0
   -5.3277    1.2098    1.2587 O   0  0  0  0  0  0  0  0  0  0  0  0
   -4.3308   -2.6029   -0.1979 H   0  0  0  0  0  0  0  0  0  0  0  0
   -6.0416   -2.8747   -0.5314 H   0  0  0  0  0  0  0  0  0  0  0  0
   -5.1284   -1.7280   -1.5212 H   0  0  0  0  0  0  0  0  0  0  0  0
   -5.7798   -1.4022    1.4620 H   0  0  0  0  0  0  0  0  0  0  0  0
   -6.6427   -0.6218    0.1587 H   0  0  0  0  0  0  0  0  0  0  0  0
   -4.5205    0.5242   -0.5535 H   0  0  0  0  0  0  0  0  0  0  0  0
   -3.5140   -0.4723    2.1900 H   0  0  0  0  0  0  0  0  0  0  0  0
   -2.9438   -1.1368    0.6900 H   0  0  0  0  0  0  0  0  0  0  0  0
   -2.4706    1.4333   -0.8891 H   0  0  0  0  0  0  0  0  0  0  0  0
   -0.9337    1.8484   -0.1757 H   0  0  0  0  0  0  0  0  0  0  0  0
    0.3852   -0.2574    0.8302 H   0  0  0  0  0  0  0  0  0  0  0  0
    1.4776   -2.5234    1.2207 H   0  0  0  0  0  0  0  0  0  0  0  0
    1.7911   -4.4459   -0.3581 H   0  0  0  0  0  0  0  0  0  0  0  0
    3.0678   -4.1331    0.7918 H   0  0  0  0  0  0  0  0  0  0  0  0
    5.3469   -4.1437   -1.6162 H   0  0  0  0  0  0  0  0  0  0  0  0
    3.1505   -0.7135   -1.5602 H   0  0  0  0  0  0  0  0  0  0  0  0
    4.6276    0.7627   -2.5831 H   0  0  0  0  0  0  0  0  0  0  0  0
    4.7281    2.2227   -1.5851 H   0  0  0  0  0  0  0  0  0  0  0  0
    6.1388    1.1417   -1.7597 H   0  0  0  0  0  0  0  0  0  0  0  0
    7.4408    2.9643    1.5057 H   0  0  0  0  0  0  0  0  0  0  0  0
    7.5481    1.9238    0.0584 H   0  0  0  0  0  0  0  0  0  0  0  0
    6.2065    3.1126    0.2286 H   0  0  0  0  0  0  0  0  0  0  0  0
    3.7521   -1.6309    3.9052 H   0  0  0  0  0  0  0  0  0  0  0  0
    2.1215   -1.6195    3.2305 H   0  0  0  0  0  0  0  0  0  0  0  0
    3.2548   -2.9498    2.8501 H   0  0  0  0  0  0  0  0  0  0  0  0
    0.9534   -3.2343   -2.2295 H   0  0  0  0  0  0  0  0  0  0  0  0
   -0.7886   -3.1126   -4.3931 H   0  0  0  0  0  0  0  0  0  0  0  0
   -2.8026   -1.6148   -5.1649 H   0  0  0  0  0  0  0  0  0  0  0  0
   -3.1171    1.7171    2.7933 H   0  0  0  0  0  0  0  0  0  0  0  0
   -0.7005    2.1100    2.8885 H   0  0  0  0  0  0  0  0  0  0  0  0
   -1.6528    3.5917    3.0163 H   0  0  0  0  0  0  0  0  0  0  0  0
   -0.8031    3.2252    1.5151 H   0  0  0  0  0  0  0  0  0  0  0  0
   -3.7529    5.9098   -0.2147 H   0  0  0  0  0  0  0  0  0  0  0  0
   -6.1250    5.2403   -0.6194 H   0  0  0  0  0  0  0  0  0  0  0  0
   -6.8561    2.9629    0.1121 H   0  0  0  0  0  0  0  0  0  0  0  0
  1  2  1  0
  2  3  1  0
  3  4  1  0
  4  5  1  0
  5  6  1  0
  6  7  1  0
  7  8  2  0
  8  9  1  0
  9 10  1  0
 10 11  1  0
 11 12  1  0
 12 13  2  0
 12 14  1  0
 10 15  1  0
 15 16  2  0
 16 17  1  0
 17 18  1  0
 17 19  2  0
 19 20  1  0
 20 21  1  0
 21 22  2  0
 22 23  1  0
 23 24  1  0
 20 25  2  0
 25 26  1  0
  9 27  2  0
 27 28  1  0
 28 29  1  0
 29 30  2  0
 30 31  1  0
 31 32  1  0
  5 33  1  0
 33 34  1  0
 33 35  1  0
 35 36  2  0
 36 37  1  0
 37 38  2  0
 38 39  1  0
 39 40  2  0
 40 41  1  0
 41  3  1  0
 32  7  1  0
 40 35  1  0
 25 15  1  0
 32 28  2  0
 23 19  1  0
  1 42  1  0
  1 43  1  0
  1 44  1  0
  2 45  1  0
  2 46  1  0
  3 47  1  6
  4 48  1  0
  4 49  1  0
  6 50  1  0
  6 51  1  0
  8 52  1  0
 10 53  1  1
 11 54  1  0
 11 55  1  0
 14 56  1  0
 16 57  1  0
 18 58  1  0
 18 59  1  0
 18 60  1  0
 24 61  1  0
 24 62  1  0
 24 63  1  0
 26 64  1  0
 26 65  1  0
 26 66  1  0
 27 67  1  0
 29 68  1  0
 30 69  1  0
 33 70  1  1
 34 71  1  0
 34 72  1  0
 34 73  1  0
 37 74  1  0
 38 75  1  0
 39 76  1  0
M  END
>  <mol_id>  (1) 
62918

>  <source_index>  (1) 
4

>  <layer>  (1) 
L2

>  <uniprot>  (1) 
Q14145

>  <paff>  (1) 
8

>  <smiles>  (1) 
CC[C@@H]6CN(Cc3cc([C@@H](CC(=O)O)c2cc(C)c1c(nnn1C)c2C)cc4ccsc34)[C@@H](C)c5ncccc5O6

$$$$
