L2:Q14145:64270


 52 56  0  0  0  0  0  0  0  0999 V2000
    4.8322    1.5802  -21.3411 C   0  0  0  0  0  0  0  0  0  0  0  0
    3.4517    1.4649  -21.0819 C   0  0  0  0  0  0  0  0  0  0  0  0
    2.6698    0.4506  -21.6430 C   0  0  0  0  0  0  0  0  0  0  0  0
    3.2960   -0.5071  -22.4638 C   0  0  0  0  0  0  0  0  0  0  0  0
    4.6704   -0.3748  -22.8262 C   0  0  0  0  0  0  0  0  0  0  0  0
    5.3076   -1.2582  -23.7350 C   0  0  0  0  0  0  0  0  0  0  0  0
    6.6486   -1.1326  -24.0893 C   0  0  0  0  0  0  0  0  0  0  0  0
    7.3957   -0.1026  -23.5551 C   0  0  0  0  0  0  0  0  0  0  0  0
    6.8009    0.7912  -22.6640 C   0  0  0  0  0  0  0  0  0  0  0  0
    5.4434    0.6839  -22.2665 C   0  0  0  0  0  0  0  0  0  0  0  0
    2.5248   -1.6574  -22.8689 N   0  0  0  0  0  0  0  0  0  0  0  0
    2.4708   -2.7677  -22.0182 C   0  0  0  0  0  0  0  0  0  0  0  0
    1.7147   -3.7181  -22.1379 O   0  0  0  0  0  0  0  0  0  0  0  0
    3.3025   -2.7456  -20.9555 O   0  0  0  0  0  0  0  0  0  0  0  0
    3.1928   -3.6514  -20.6025 H   0  0  0  0  0  0  0  0  0  0  0  0
    1.5678   -1.5051  -24.2485 S   0  0  0  0  0  0  0  0  0  0  0  0
    0.8145   -0.2690  -24.2089 O   0  0  0  0  0  0  0  0  0  0  0  0
    0.8681   -2.7544  -24.4937 O   0  0  0  0  0  0  0  0  0  0  0  0
    2.7698   -1.3318  -25.5519 C   0  0  0  0  0  0  0  0  0  0  0  0
    3.2208   -0.0617  -25.9226 C   0  0  0  0  0  0  0  0  0  0  0  0
    4.1652    0.0673  -26.9462 C   0  0  0  0  0  0  0  0  0  0  0  0
    4.6685   -1.0684  -27.5852 C   0  0  0  0  0  0  0  0  0  0  0  0
    4.2275   -2.3351  -27.1866 C   0  0  0  0  0  0  0  0  0  0  0  0
    3.2858   -2.4746  -26.1659 C   0  0  0  0  0  0  0  0  0  0  0  0
    5.5847   -1.0786  -28.6003 O   0  0  0  0  0  0  0  0  0  0  0  0
    5.9936   -2.3509  -29.0864 C   0  0  0  0  0  0  0  0  0  0  0  0
    5.6185    2.6703  -20.6079 C   0  0  0  0  0  0  0  0  0  0  0  0
    5.3118    2.7517  -19.1398 C   0  0  0  0  0  0  0  0  0  0  0  0
    5.5473    1.9342  -18.2675 O   0  0  0  0  0  0  0  0  0  0  0  0
    4.7382    3.9316  -18.8051 O   0  0  0  0  0  0  0  0  0  0  0  0
    4.6450    3.9051  -17.8274 H   0  0  0  0  0  0  0  0  0  0  0  0
    5.3286    4.2369  -21.4047 S   0  0  0  0  0  0  0  0  0  0  0  0
    6.2842    5.2305  -20.9469 O   0  0  0  0  0  0  0  0  0  0  0  0
    3.9069    4.5318  -21.3240 O   0  0  0  0  0  0  0  0  0  0  0  0
    6.1735    3.4335  -25.8295 C   0  0  0  0  0  0  0  0  0  0  0  0
    4.8704    3.3305  -25.3378 C   0  0  0  0  0  0  0  0  0  0  0  0
    4.6068    3.5731  -23.9860 C   0  0  0  0  0  0  0  0  0  0  0  0
    5.6507    3.9339  -23.1316 C   0  0  0  0  0  0  0  0  0  0  0  0
    6.9606    4.0199  -23.6065 C   0  0  0  0  0  0  0  0  0  0  0  0
    7.2128    3.7756  -24.9574 C   0  0  0  0  0  0  0  0  0  0  0  0
    7.3524    2.0710  -27.3815 C   0  0  0  0  0  0  0  0  0  0  0  0
    6.5631    3.2260  -27.1235 O   0  0  0  0  0  0  0  0  0  0  0  0
    1.1872    0.4212  -21.3155 C   0  0  0  0  0  0  0  0  0  0  0  0
    0.8612    0.7477  -19.8559 C   0  0  0  0  0  0  0  0  0  0  0  0
    0.0576    2.0312  -19.7353 C   0  0  0  0  0  0  0  0  0  0  0  0
    0.6227    3.1088  -19.9506 O   0  0  0  0  0  0  0  0  0  0  0  0
   -1.2809    1.9720  -19.3968 N   0  0  0  0  0  0  0  0  0  0  0  0
   -2.0813    3.1989  -19.4436 C   0  0  0  0  0  0  0  0  0  0  0  0
   -2.9988    3.3177  -18.2251 C   0  0  0  0  0  0  0  0  0  0  0  0
   -3.8232    2.1524  -18.0917 O   0  0  0  0  0  0  0  0  0  0  0  0
   -3.0055    0.9871  -17.9034 C   0  0  0  0  0  0  0  0  0  0  0  0
   -2.0651    0.7664  -19.0961 C   0  0  0  0  0  0  0  0  0  0  0  0
 41 42  1  0  0  0
 42 35  1  0  0  0
 35 36  2  0  0  0
 36 37  1  0  0  0
 37 38  2  0  0  0
 38 32  1  0  0  0
 32 33  2  0  0  0
 32 34  2  0  0  0
 32 27  1  0  0  0
 27 28  1  0  0  0
 28 29  2  0  0  0
 28 30  1  0  0  0
 27  1  1  0  0  0
  1  2  2  0  0  0
  2  3  1  0  0  0
  3 43  1  0  0  0
 43 44  1  0  0  0
 44 45  1  0  0  0
 45 46  2  0  0  0
 45 47  1  0  0  0
 47 48  1  0  0  0
 48 49  1  0  0  0
 49 50  1  0  0  0
 50 51  1  0  0  0
 51 52  1  0  0  0
  3  4  2  0  0  0
  4 11  1  0  0  0
 11 12  1  0  0  0
 12 13  2  0  0  0
 12 14  1  0  0  0
 11 16  1  0  0  0
 16 17  2  0  0  0
 16 18  2  0  0  0
 16 19  1  0  0  0
 19 20  2  0  0  0
 20 21  1  0  0  0
 21 22  2  0  0  0
 22 25  1  0  0  0
 25 26  1  0  0  0
 22 23  1  0  0  0
 23 24  2  0  0  0
  4  5  1  0  0  0
  5  6  2  0  0  0
  6  7  1  0  0  0
  7  8  2  0  0  0
  8  9  1  0  0  0
  9 10  2  0  0  0
 38 39  1  0  0  0
 39 40  2  0  0  0
 40 35  1  0  0  0
 10  1  1  0  0  0
 52 47  1  0  0  0
 24 19  1  0  0  0
 10  5  1  0  0  0
 30 31  1  0  0  0
 14 15  1  0  0  0
M  END
> <minimizedAffinity>
-11.20416

$$$$
