L2:Q14145:64270
     RDKit          3D

 84 88  0  0  0  0  0  0  0  0999 V2000
    9.0050   -3.3738   -1.9840 C   0  0  0  0  0  0  0  0  0  0  0  0
    8.5265   -2.4704   -0.9949 O   0  0  0  0  0  0  0  0  0  0  0  0
    7.1716   -2.3962   -0.8274 C   0  0  0  0  0  0  0  0  0  0  0  0
    6.2133   -3.0897   -1.5698 C   0  0  0  0  0  0  0  0  0  0  0  0
    4.8524   -2.9197   -1.2962 C   0  0  0  0  0  0  0  0  0  0  0  0
    4.4543   -2.0413   -0.2864 C   0  0  0  0  0  0  0  0  0  0  0  0
    2.7229   -1.8230    0.0776 S   0  0  0  0  0  6  0  0  0  0  0  0
    1.9975   -2.8999   -0.5735 O   0  0  0  0  0  0  0  0  0  0  0  0
    2.6470   -1.6911    1.5238 O   0  0  0  0  0  0  0  0  0  0  0  0
    2.3020   -0.2514   -0.6478 C   0  0  1  0  0  0  0  0  0  0  0  0
    2.7189   -0.1989   -2.0899 C   0  0  0  0  0  0  0  0  0  0  0  0
    2.8100   -1.1146   -2.8886 O   0  0  0  0  0  0  0  0  0  0  0  0
    2.9698    1.0665   -2.5007 O   0  0  0  0  0  0  0  0  0  0  0  0
    0.8114    0.0207   -0.4281 C   0  0  0  0  0  0  0  0  0  0  0  0
   -0.1127   -0.5783   -1.3076 C   0  0  0  0  0  0  0  0  0  0  0  0
   -1.4855   -0.3237   -1.2335 C   0  0  0  0  0  0  0  0  0  0  0  0
   -2.4020   -1.0311   -2.2162 C   0  0  0  0  0  0  0  0  0  0  0  0
   -2.4946   -2.5449   -2.0087 C   0  0  0  0  0  0  0  0  0  0  0  0
   -3.2224   -2.8900   -0.7207 C   0  0  0  0  0  0  0  0  0  0  0  0
   -4.4213   -2.6076   -0.6213 O   0  0  0  0  0  0  0  0  0  0  0  0
   -2.5394   -3.5143    0.3057 N   0  0  0  0  0  0  0  0  0  0  0  0
   -3.2880   -3.9875    1.4736 C   0  0  0  0  0  0  0  0  0  0  0  0
   -2.5585   -3.6611    2.7782 C   0  0  0  0  0  0  0  0  0  0  0  0
   -1.2225   -4.1809    2.7594 O   0  0  0  0  0  0  0  0  0  0  0  0
   -0.4753   -3.5855    1.6873 C   0  0  0  0  0  0  0  0  0  0  0  0
   -1.1177   -3.8846    0.3258 C   0  0  0  0  0  0  0  0  0  0  0  0
   -1.9500    0.5921   -0.2698 C   0  0  0  0  0  0  0  0  0  0  0  0
   -3.3328    0.9989   -0.3359 N   0  0  0  0  0  0  0  0  0  0  0  0
   -4.2331    0.4861    0.6053 C   0  0  0  0  0  0  0  0  0  0  0  0
   -5.3723    0.8836    0.7886 O   0  0  0  0  0  0  0  0  0  0  0  0
   -3.7680   -0.5018    1.3987 O   0  0  0  0  0  0  0  0  0  0  0  0
   -3.7302    2.2301   -1.4168 S   0  0  0  0  0  6  0  0  0  0  0  0
   -5.1404    2.1833   -1.7423 O   0  0  0  0  0  0  0  0  0  0  0  0
   -2.7548    2.2643   -2.4929 O   0  0  0  0  0  0  0  0  0  0  0  0
   -3.4750    3.7064   -0.4528 C   0  0  0  0  0  0  0  0  0  0  0  0
   -2.2831    4.4258   -0.5781 C   0  0  0  0  0  0  0  0  0  0  0  0
   -2.0894    5.5844    0.1810 C   0  0  0  0  0  0  0  0  0  0  0  0
   -3.0886    6.0309    1.0492 C   0  0  0  0  0  0  0  0  0  0  0  0
   -3.0215    7.1384    1.8486 O   0  0  0  0  0  0  0  0  0  0  0  0
   -1.8434    7.9294    1.7560 C   0  0  0  0  0  0  0  0  0  0  0  0
   -4.2872    5.3154    1.1457 C   0  0  0  0  0  0  0  0  0  0  0  0
   -4.4905    4.1583    0.3921 C   0  0  0  0  0  0  0  0  0  0  0  0
   -1.0619    1.1495    0.6989 C   0  0  0  0  0  0  0  0  0  0  0  0
   -1.5104    1.9906    1.7495 C   0  0  0  0  0  0  0  0  0  0  0  0
   -0.6463    2.5370    2.6951 C   0  0  0  0  0  0  0  0  0  0  0  0
    0.7008    2.2444    2.6294 C   0  0  0  0  0  0  0  0  0  0  0  0
    1.1778    1.4139    1.6147 C   0  0  0  0  0  0  0  0  0  0  0  0
    0.3305    0.8540    0.6243 C   0  0  0  0  0  0  0  0  0  0  0  0
    5.4031   -1.3582    0.4765 C   0  0  0  0  0  0  0  0  0  0  0  0
    6.7587   -1.5352    0.1953 C   0  0  0  0  0  0  0  0  0  0  0  0
    8.6674   -3.0788   -2.9830 H   0  0  0  0  0  0  0  0  0  0  0  0
   10.0984   -3.3299   -1.9757 H   0  0  0  0  0  0  0  0  0  0  0  0
    8.7111   -4.4034   -1.7544 H   0  0  0  0  0  0  0  0  0  0  0  0
    6.4905   -3.7722   -2.3671 H   0  0  0  0  0  0  0  0  0  0  0  0
    4.1171   -3.4695   -1.8815 H   0  0  0  0  0  0  0  0  0  0  0  0
    2.9289    0.4828   -0.1335 H   0  0  0  0  0  0  0  0  0  0  0  0
    3.1639    0.9924   -3.4610 H   0  0  0  0  0  0  0  0  0  0  0  0
    0.2381   -1.2602   -2.0853 H   0  0  0  0  0  0  0  0  0  0  0  0
   -2.0254   -0.8323   -3.2283 H   0  0  0  0  0  0  0  0  0  0  0  0
   -3.4125   -0.6113   -2.1992 H   0  0  0  0  0  0  0  0  0  0  0  0
   -1.5234   -3.0280   -2.1053 H   0  0  0  0  0  0  0  0  0  0  0  0
   -3.1015   -2.9686   -2.8202 H   0  0  0  0  0  0  0  0  0  0  0  0
   -3.3728   -5.0751    1.3605 H   0  0  0  0  0  0  0  0  0  0  0  0
   -4.3007   -3.5746    1.5000 H   0  0  0  0  0  0  0  0  0  0  0  0
   -3.0824   -4.1184    3.6232 H   0  0  0  0  0  0  0  0  0  0  0  0
   -2.5198   -2.5796    2.9530 H   0  0  0  0  0  0  0  0  0  0  0  0
   -0.4065   -2.5046    1.8589 H   0  0  0  0  0  0  0  0  0  0  0  0
    0.5381   -3.9967    1.7213 H   0  0  0  0  0  0  0  0  0  0  0  0
   -0.5555   -3.3745   -0.4512 H   0  0  0  0  0  0  0  0  0  0  0  0
   -1.0797   -4.9616    0.1258 H   0  0  0  0  0  0  0  0  0  0  0  0
   -4.5845   -0.7849    1.8573 H   0  0  0  0  0  0  0  0  0  0  0  0
   -1.4978    4.0887   -1.2514 H   0  0  0  0  0  0  0  0  0  0  0  0
   -1.1482    6.1132    0.0712 H   0  0  0  0  0  0  0  0  0  0  0  0
   -1.9558    8.7776    2.4381 H   0  0  0  0  0  0  0  0  0  0  0  0
   -1.7144    8.3298    0.7450 H   0  0  0  0  0  0  0  0  0  0  0  0
   -0.9621    7.3619    2.0728 H   0  0  0  0  0  0  0  0  0  0  0  0
   -5.0725    5.6685    1.8107 H   0  0  0  0  0  0  0  0  0  0  0  0
   -5.4342    3.6213    0.4705 H   0  0  0  0  0  0  0  0  0  0  0  0
   -2.5643    2.2300    1.8637 H   0  0  0  0  0  0  0  0  0  0  0  0
   -1.0345    3.1760    3.4841 H   0  0  0  0  0  0  0  0  0  0  0  0
    1.3846    2.6466    3.3726 H   0  0  0  0  0  0  0  0  0  0  0  0
    2.2419    1.1985    1.6460 H   0  0  0  0  0  0  0  0  0  0  0  0
    5.1080   -0.7047    1.2940 H   0  0  0  0  0  0  0  0  0  0  0  0
    7.5060   -1.0079    0.7849 H   0  0  0  0  0  0  0  0  0  0  0  0
  1  2  1  0
  2  3  1  0
  3  4  2  0
  4  5  1  0
  5  6  2  0
  6  7  1  0
  7  8  2  0
  7  9  2  0
  7 10  1  0
 10 11  1  0
 11 12  2  0
 11 13  1  0
 10 14  1  0
 14 15  2  0
 15 16  1  0
 16 17  1  0
 17 18  1  0
 18 19  1  0
 19 20  2  0
 19 21  1  0
 21 22  1  0
 22 23  1  0
 23 24  1  0
 24 25  1  0
 25 26  1  0
 16 27  2  0
 27 28  1  0
 28 29  1  0
 29 30  2  0
 29 31  1  0
 28 32  1  0
 32 33  2  0
 32 34  2  0
 32 35  1  0
 35 36  2  0
 36 37  1  0
 37 38  2  0
 38 39  1  0
 39 40  1  0
 38 41  1  0
 41 42  2  0
 27 43  1  0
 43 44  2  0
 44 45  1  0
 45 46  2  0
 46 47  1  0
 47 48  2  0
  6 49  1  0
 49 50  2  0
 50  3  1  0
 48 14  1  0
 26 21  1  0
 42 35  1  0
 48 43  1  0
  1 51  1  0
  1 52  1  0
  1 53  1  0
  4 54  1  0
  5 55  1  0
 10 56  1  1
 13 57  1  0
 15 58  1  0
 17 59  1  0
 17 60  1  0
 18 61  1  0
 18 62  1  0
 22 63  1  0
 22 64  1  0
 23 65  1  0
 23 66  1  0
 25 67  1  0
 25 68  1  0
 26 69  1  0
 26 70  1  0
 31 71  1  0
 36 72  1  0
 37 73  1  0
 40 74  1  0
 40 75  1  0
 40 76  1  0
 41 77  1  0
 42 78  1  0
 44 79  1  0
 45 80  1  0
 46 81  1  0
 47 82  1  0
 49 83  1  0
 50 84  1  0
M  END
>  <mol_id>  (1) 
64270

>  <source_index>  (1) 
5

>  <layer>  (1) 
L2

>  <uniprot>  (1) 
Q14145

>  <paff>  (1) 
7.0605000000000002

>  <smiles>  (1) 
COc1ccc(S(=O)(=O)C(C(=O)O)c2cc(CCC(=O)N3CCOCC3)c(N(C(=O)O)S(=O)(=O)c3ccc(OC)cc3)c3ccccc23)cc1

$$$$
