L2:Q14145:77634
     RDKit          3D

 76 81  0  0  0  0  0  0  0  0999 V2000
   -4.1492   -3.2672   -0.4713 C   0  0  0  0  0  0  0  0  0  0  0  0
   -5.0314   -2.3011    0.3042 C   0  0  0  0  0  0  0  0  0  0  0  0
   -4.5249   -0.8471    0.2939 C   0  0  2  0  0  0  0  0  0  0  0  0
   -3.2259   -0.6911    1.1220 C   0  0  0  0  0  0  0  0  0  0  0  0
   -2.5461    0.6229    1.0679 N   0  0  0  0  0  0  0  0  0  0  0  0
   -1.9800    0.9415   -0.2568 C   0  0  0  0  0  0  0  0  0  0  0  0
   -0.8945   -0.0300   -0.6979 C   0  0  0  0  0  0  0  0  0  0  0  0
    0.1858   -0.2866    0.1791 C   0  0  0  0  0  0  0  0  0  0  0  0
    1.2274   -1.1581   -0.1412 C   0  0  0  0  0  0  0  0  0  0  0  0
    2.3972   -1.4517    0.8019 C   0  0  2  0  0  0  0  0  0  0  0  0
    2.0970   -1.3404    2.3069 C   0  0  0  0  0  0  0  0  0  0  0  0
    1.0492   -2.3218    2.7465 C   0  0  0  0  0  0  0  0  0  0  0  0
   -0.0130   -2.0510    3.2812 O   0  0  0  0  0  0  0  0  0  0  0  0
    1.4054   -3.6050    2.5484 O   0  0  0  0  0  0  0  0  0  0  0  0
    3.6402   -0.6128    0.4595 C   0  0  0  0  0  0  0  0  0  0  0  0
    3.5346    0.7960    0.4566 C   0  0  0  0  0  0  0  0  0  0  0  0
    4.6100    1.6571    0.1645 C   0  0  0  0  0  0  0  0  0  0  0  0
    4.4024    3.1421    0.1678 C   0  0  0  0  0  0  0  0  0  0  0  0
    5.8215    1.0171   -0.1382 C   0  0  0  0  0  0  0  0  0  0  0  0
    5.9738   -0.3666   -0.1350 C   0  0  0  0  0  0  0  0  0  0  0  0
    7.2692   -0.6870   -0.4577 N   0  0  0  0  0  0  0  0  0  0  0  0
    7.9353    0.4364   -0.6697 N   0  0  0  0  0  0  0  0  0  0  0  0
    7.0759    1.4539   -0.4878 N   0  0  0  0  0  0  0  0  0  0  0  0
    7.5393    2.8036   -0.6694 C   0  0  0  0  0  0  0  0  0  0  0  0
    4.8910   -1.2209    0.1712 C   0  0  0  0  0  0  0  0  0  0  0  0
    5.0763   -2.7129    0.1802 C   0  0  0  0  0  0  0  0  0  0  0  0
    1.2062   -1.7766   -1.4017 C   0  0  0  0  0  0  0  0  0  0  0  0
    0.1541   -1.5527   -2.3216 C   0  0  0  0  0  0  0  0  0  0  0  0
   -0.0422   -2.0923   -3.6380 C   0  0  0  0  0  0  0  0  0  0  0  0
   -1.1920   -1.6395   -4.2360 C   0  0  0  0  0  0  0  0  0  0  0  0
   -2.0451   -0.5637   -3.2328 S   0  0  0  0  0  0  0  0  0  0  0  0
   -0.8800   -0.6839   -1.9562 C   0  0  0  0  0  0  0  0  0  0  0  0
   -3.4168    1.6996    1.6054 C   0  0  1  0  0  0  0  0  0  0  0  0
   -2.5603    2.8871    2.0784 C   0  0  0  0  0  0  0  0  0  0  0  0
   -4.5631    2.1201    0.6886 C   0  0  0  0  0  0  0  0  0  0  0  0
   -4.5556    3.3778    0.1675 N   0  0  0  0  0  0  0  0  0  0  0  0
   -5.6045    3.7413   -0.6040 C   0  0  0  0  0  0  0  0  0  0  0  0
   -6.6747    2.9119   -0.8936 C   0  0  0  0  0  0  0  0  0  0  0  0
   -6.6640    1.6229   -0.3756 C   0  0  0  0  0  0  0  0  0  0  0  0
   -5.5853    1.2136    0.4010 C   0  0  0  0  0  0  0  0  0  0  0  0
   -5.5927   -0.0666    0.8783 O   0  0  0  0  0  0  0  0  0  0  0  0
   -3.1675   -3.3869   -0.0055 H   0  0  0  0  0  0  0  0  0  0  0  0
   -4.6186   -4.2558   -0.5062 H   0  0  0  0  0  0  0  0  0  0  0  0
   -4.0054   -2.9269   -1.5014 H   0  0  0  0  0  0  0  0  0  0  0  0
   -5.1462   -2.6506    1.3379 H   0  0  0  0  0  0  0  0  0  0  0  0
   -6.0403   -2.3261   -0.1280 H   0  0  0  0  0  0  0  0  0  0  0  0
   -4.3697   -0.5599   -0.7545 H   0  0  0  0  0  0  0  0  0  0  0  0
   -3.4570   -0.8976    2.1760 H   0  0  0  0  0  0  0  0  0  0  0  0
   -2.5054   -1.4644    0.8396 H   0  0  0  0  0  0  0  0  0  0  0  0
   -2.7648    1.0134   -1.0146 H   0  0  0  0  0  0  0  0  0  0  0  0
   -1.4934    1.9239   -0.2342 H   0  0  0  0  0  0  0  0  0  0  0  0
    0.1730    0.2238    1.1420 H   0  0  0  0  0  0  0  0  0  0  0  0
    2.6289   -2.5079    0.6213 H   0  0  0  0  0  0  0  0  0  0  0  0
    2.9979   -1.5415    2.9013 H   0  0  0  0  0  0  0  0  0  0  0  0
    1.7693   -0.3337    2.5904 H   0  0  0  0  0  0  0  0  0  0  0  0
    0.6454   -4.1162    2.8994 H   0  0  0  0  0  0  0  0  0  0  0  0
    2.5701    1.2502    0.6878 H   0  0  0  0  0  0  0  0  0  0  0  0
    3.4157    3.4108    0.5594 H   0  0  0  0  0  0  0  0  0  0  0  0
    5.1480    3.6301    0.8023 H   0  0  0  0  0  0  0  0  0  0  0  0
    4.4791    3.5340   -0.8509 H   0  0  0  0  0  0  0  0  0  0  0  0
    8.5677    2.7924   -1.0409 H   0  0  0  0  0  0  0  0  0  0  0  0
    6.8974    3.3008   -1.4000 H   0  0  0  0  0  0  0  0  0  0  0  0
    7.5048    3.3153    0.2950 H   0  0  0  0  0  0  0  0  0  0  0  0
    6.1179   -2.9908   -0.0106 H   0  0  0  0  0  0  0  0  0  0  0  0
    4.8042   -3.1258    1.1569 H   0  0  0  0  0  0  0  0  0  0  0  0
    4.4649   -3.1769   -0.6001 H   0  0  0  0  0  0  0  0  0  0  0  0
    2.0151   -2.4461   -1.6889 H   0  0  0  0  0  0  0  0  0  0  0  0
    0.6402   -2.7834   -4.1175 H   0  0  0  0  0  0  0  0  0  0  0  0
   -1.5693   -1.8888   -5.2182 H   0  0  0  0  0  0  0  0  0  0  0  0
   -3.8820    1.3274    2.5302 H   0  0  0  0  0  0  0  0  0  0  0  0
   -1.7694    2.5496    2.7580 H   0  0  0  0  0  0  0  0  0  0  0  0
   -3.1763    3.6089    2.6278 H   0  0  0  0  0  0  0  0  0  0  0  0
   -2.0880    3.4275    1.2516 H   0  0  0  0  0  0  0  0  0  0  0  0
   -5.5626    4.7553   -0.9919 H   0  0  0  0  0  0  0  0  0  0  0  0
   -7.4946    3.2600   -1.5112 H   0  0  0  0  0  0  0  0  0  0  0  0
   -7.4795    0.9375   -0.5838 H   0  0  0  0  0  0  0  0  0  0  0  0
  1  2  1  0
  2  3  1  0
  3  4  1  0
  4  5  1  0
  5  6  1  0
  6  7  1  0
  7  8  2  0
  8  9  1  0
  9 10  1  0
 10 11  1  0
 11 12  1  0
 12 13  2  0
 12 14  1  0
 10 15  1  0
 15 16  2  0
 16 17  1  0
 17 18  1  0
 17 19  2  0
 19 20  1  0
 20 21  1  0
 21 22  2  0
 22 23  1  0
 23 24  1  0
 20 25  2  0
 25 26  1  0
  9 27  2  0
 27 28  1  0
 28 29  1  0
 29 30  2  0
 30 31  1  0
 31 32  1  0
  5 33  1  0
 33 34  1  0
 33 35  1  0
 35 36  2  0
 36 37  1  0
 37 38  2  0
 38 39  1  0
 39 40  2  0
 40 41  1  0
 41  3  1  0
 32  7  1  0
 40 35  1  0
 25 15  1  0
 32 28  2  0
 23 19  1  0
  1 42  1  0
  1 43  1  0
  1 44  1  0
  2 45  1  0
  2 46  1  0
  3 47  1  6
  4 48  1  0
  4 49  1  0
  6 50  1  0
  6 51  1  0
  8 52  1  0
 10 53  1  1
 11 54  1  0
 11 55  1  0
 14 56  1  0
 16 57  1  0
 18 58  1  0
 18 59  1  0
 18 60  1  0
 24 61  1  0
 24 62  1  0
 24 63  1  0
 26 64  1  0
 26 65  1  0
 26 66  1  0
 27 67  1  0
 29 68  1  0
 30 69  1  0
 33 70  1  1
 34 71  1  0
 34 72  1  0
 34 73  1  0
 37 74  1  0
 38 75  1  0
 39 76  1  0
M  END
>  <mol_id>  (1) 
77634

>  <source_index>  (1) 
6

>  <layer>  (1) 
L2

>  <uniprot>  (1) 
Q14145

>  <paff>  (1) 
8

>  <smiles>  (1) 
CC[C@@H]1CN(Cc2cc([C@H](CC(=O)O)c3cc(C)c4c(nnn4C)c3C)cc3ccsc23)[C@@H](C)c2ncccc2O1

$$$$
