L2:Q14145:83648
 OpenBabel09212617583D

 70 75  0  0  0  0  0  0  0  0999 V2000
    2.0502    1.7721  -20.3508 C   0  0  0  0  0  0  0  0  0  0  0  0
    2.5126    0.5368  -20.8482 C   0  0  0  0  0  0  0  0  0  0  0  0
    1.7353   -0.6232  -20.8312 C   0  0  0  0  0  0  0  0  0  0  0  0
    0.4267   -0.5426  -20.3365 C   0  0  0  0  0  0  0  0  0  0  0  0
   -0.1046    0.6824  -19.8653 C   0  0  0  0  0  0  0  0  0  0  0  0
   -1.4082    0.9706  -19.3359 C   0  0  0  0  0  0  0  0  0  0  0  0
   -1.5537    2.2816  -18.9552 C   0  0  0  0  0  0  0  0  0  0  0  0
   -0.1323    3.1776  -19.2162 S   0  0  0  0  0  0  0  0  0  0  0  0
    0.7154    1.8167  -19.8725 C   0  0  0  0  0  0  0  0  0  0  0  0
    3.0071    2.9469  -20.3124 C   0  0  0  0  0  0  0  0  0  0  0  0
    3.9322    2.3488  -23.6973 C   0  0  2  0  0  0  0  0  0  0  0  0
    3.7644    3.4896  -22.6767 C   0  0  0  0  0  0  0  0  0  0  0  0
    4.0712    2.9397  -21.3395 N   0  0  0  0  0  0  0  0  0  0  0  0
    5.6603    3.0439  -20.8050 S   0  0  0  0  0  0  0  0  0  0  0  0
    5.8932    1.9745  -19.8600 O   0  0  0  0  0  0  0  0  0  0  0  0
    5.8798    4.4250  -20.4217 O   0  0  0  0  0  0  0  0  0  0  0  0
    6.6892    2.7548  -22.1952 C   0  0  0  0  0  0  0  0  0  0  0  0
    7.9845    3.2875  -22.1785 C   0  0  0  0  0  0  0  0  0  0  0  0
    8.8052    3.1004  -23.2815 C   0  0  0  0  0  0  0  0  0  0  0  0
   10.4000    3.7295  -23.3037 Cl  0  0  0  0  0  0  0  0  0  0  0  0
    8.3009    2.3966  -24.3617 C   0  0  0  0  0  0  0  0  0  0  0  0
    7.0465    1.8855  -24.4044 N   0  0  0  0  0  0  0  0  0  0  0  0
    6.2548    2.0860  -23.3229 C   0  0  0  0  0  0  0  0  0  0  0  0
    5.0461    1.4755  -23.4213 O   0  0  0  0  0  0  0  0  0  0  0  0
    3.4481    1.6701  -26.1607 C   0  0  0  0  0  0  0  0  0  0  0  0
    3.8500    2.7619  -25.1781 C   0  0  0  0  0  0  0  0  0  0  0  0
    2.3711   -1.9438  -21.2643 C   0  0  2  0  0  0  0  0  0  0  0  0
    3.0439   -1.9040  -22.6509 C   0  0  0  0  0  0  0  0  0  0  0  0
    4.4460   -1.9544  -22.7752 C   0  0  0  0  0  0  0  0  0  0  0  0
    5.0980   -1.9370  -24.0153 C   0  0  0  0  0  0  0  0  0  0  0  0
    6.8129   -2.0053  -24.0663 Cl  0  0  0  0  0  0  0  0  0  0  0  0
    4.3063   -1.8676  -25.1569 C   0  0  0  0  0  0  0  0  0  0  0  0
    2.9190   -1.8171  -25.0857 C   0  0  0  0  0  0  0  0  0  0  0  0
    2.4016   -1.7560  -26.3547 N   0  0  0  0  0  0  0  0  0  0  0  0
    3.4072   -1.7654  -27.2156 N   0  0  0  0  0  0  0  0  0  0  0  0
    4.5472   -1.8303  -26.5053 N   0  0  0  0  0  0  0  0  0  0  0  0
    5.8072   -1.8507  -27.2009 C   0  0  0  0  0  0  0  0  0  0  0  0
    2.2501   -1.8327  -23.8384 C   0  0  0  0  0  0  0  0  0  0  0  0
    0.7450   -1.7758  -23.7937 C   0  0  0  0  0  0  0  0  0  0  0  0
    1.4425   -3.1437  -20.9560 C   0  0  0  0  0  0  0  0  0  0  0  0
    2.1389   -4.4300  -20.5932 C   0  0  0  0  0  0  0  0  0  0  0  0
    3.3415   -4.5764  -20.4363 O   0  0  0  0  0  0  0  0  0  0  0  0
    1.3090   -5.4797  -20.4685 O   0  0  0  0  0  0  0  0  0  0  0  0
    1.9030   -6.2251  -20.2355 H   0  0  0  0  0  0  0  0  0  0  0  0
    3.4655    0.4877  -21.2414 H   0  0  0  0  0  0  0  0  0  0  0  0
   -0.1602   -1.3912  -20.3152 H   0  0  0  0  0  0  0  0  0  0  0  0
   -2.1573    0.2659  -19.2506 H   0  0  0  0  0  0  0  0  0  0  0  0
   -2.4211    2.6757  -18.5585 H   0  0  0  0  0  0  0  0  0  0  0  0
    2.4344    3.8419  -20.4383 H   0  0  0  0  0  0  0  0  0  0  0  0
    3.5101    2.8833  -19.3701 H   0  0  0  0  0  0  0  0  0  0  0  0
    3.0493    1.7647  -23.5415 H   0  0  0  0  0  0  0  0  0  0  0  0
    2.7589    3.8548  -22.6994 H   0  0  0  0  0  0  0  0  0  0  0  0
    4.4207    4.3021  -22.9091 H   0  0  0  0  0  0  0  0  0  0  0  0
    8.3238    3.8120  -21.3570 H   0  0  0  0  0  0  0  0  0  0  0  0
    8.9139    2.2533  -25.1794 H   0  0  0  0  0  0  0  0  0  0  0  0
    3.4252    2.0729  -27.1517 H   0  0  0  0  0  0  0  0  0  0  0  0
    2.4779    1.2988  -25.9041 H   0  0  0  0  0  0  0  0  0  0  0  0
    4.1588    0.8714  -26.1167 H   0  0  0  0  0  0  0  0  0  0  0  0
    3.1327    3.5520  -25.2570 H   0  0  0  0  0  0  0  0  0  0  0  0
    4.8458    3.0410  -25.4526 H   0  0  0  0  0  0  0  0  0  0  0  0
    3.2286   -2.1138  -20.6473 H   0  0  0  0  0  0  0  0  0  0  0  0
    5.0169   -2.0063  -21.9171 H   0  0  0  0  0  0  0  0  0  0  0  0
    5.6330   -1.8089  -28.2558 H   0  0  0  0  0  0  0  0  0  0  0  0
    6.3322   -2.7518  -26.9616 H   0  0  0  0  0  0  0  0  0  0  0  0
    6.3931   -1.0066  -26.9024 H   0  0  0  0  0  0  0  0  0  0  0  0
    0.3602   -1.7269  -24.7909 H   0  0  0  0  0  0  0  0  0  0  0  0
    0.4369   -0.9076  -23.2495 H   0  0  0  0  0  0  0  0  0  0  0  0
    0.3692   -2.6526  -23.3090 H   0  0  0  0  0  0  0  0  0  0  0  0
    0.8430   -3.3272  -21.8231 H   0  0  0  0  0  0  0  0  0  0  0  0
    0.8784   -2.8625  -20.0914 H   0  0  0  0  0  0  0  0  0  0  0  0
  1  2  2  0  0  0  0
  2  3  1  0  0  0  0
  2 45  1  0  0  0  0
  3 27  1  0  0  0  0
  3  4  2  0  0  0  0
  4  5  1  0  0  0  0
  4 46  1  0  0  0  0
  5  6  1  0  0  0  0
  6  7  2  0  0  0  0
  6 47  1  0  0  0  0
  7  8  1  0  0  0  0
  7 48  1  0  0  0  0
  8  9  1  0  0  0  0
  9  1  1  0  0  0  0
  9  5  2  0  0  0  0
 10  1  1  0  0  0  0
 10 49  1  0  0  0  0
 10 50  1  0  0  0  0
 11 12  1  0  0  0  0
 11 51  1  1  0  0  0
 12 13  1  0  0  0  0
 12 52  1  0  0  0  0
 12 53  1  0  0  0  0
 13 10  1  0  0  0  0
 13 14  1  0  0  0  0
 14 15  2  0  0  0  0
 14 16  2  0  0  0  0
 14 17  1  0  0  0  0
 17 18  2  0  0  0  0
 18 19  1  0  0  0  0
 18 54  1  0  0  0  0
 19 20  1  0  0  0  0
 19 21  2  0  0  0  0
 21 22  1  0  0  0  0
 21 55  1  0  0  0  0
 22 23  2  0  0  0  0
 23 24  1  0  0  0  0
 23 17  1  0  0  0  0
 24 11  1  0  0  0  0
 25 26  1  0  0  0  0
 25 56  1  0  0  0  0
 25 57  1  0  0  0  0
 25 58  1  0  0  0  0
 26 11  1  0  0  0  0
 26 59  1  0  0  0  0
 26 60  1  0  0  0  0
 27 40  1  0  0  0  0
 27 28  1  0  0  0  0
 27 61  1  1  0  0  0
 28 29  2  0  0  0  0
 29 30  1  0  0  0  0
 29 62  1  0  0  0  0
 30 31  1  0  0  0  0
 30 32  2  0  0  0  0
 32 33  1  0  0  0  0
 33 34  1  0  0  0  0
 33 38  2  0  0  0  0
 34 35  2  0  0  0  0
 35 36  1  0  0  0  0
 36 37  1  0  0  0  0
 36 32  1  0  0  0  0
 37 63  1  0  0  0  0
 37 64  1  0  0  0  0
 37 65  1  0  0  0  0
 38 39  1  0  0  0  0
 38 28  1  0  0  0  0
 39 66  1  0  0  0  0
 39 67  1  0  0  0  0
 39 68  1  0  0  0  0
 40 41  1  0  0  0  0
 40 69  1  0  0  0  0
 40 70  1  0  0  0  0
 41 42  2  0  0  0  0
 41 43  1  0  0  0  0
 43 44  1  0  0  0  0
M  END
>  <minimizedAffinity>
-10.88000

$$$$
