L2:Q14145:83648
     RDKit          3D

 70 75  0  0  0  0  0  0  0  0999 V2000
   -3.1318    3.6732    2.2233 C   0  0  0  0  0  0  0  0  0  0  0  0
   -3.8264    2.5480    2.9786 C   0  0  0  0  0  0  0  0  0  0  0  0
   -4.0588    1.2436    2.1946 C   0  0  2  0  0  0  0  0  0  0  0  0
   -2.8854    0.7777    1.3129 C   0  0  0  0  0  0  0  0  0  0  0  0
   -3.3642   -0.3589    0.4984 N   0  0  0  0  0  0  0  0  0  0  0  0
   -2.7075   -1.6734    0.6661 C   0  0  0  0  0  0  0  0  0  0  0  0
   -1.2048   -1.6360    0.8604 C   0  0  0  0  0  0  0  0  0  0  0  0
   -0.3964   -1.1620   -0.1926 C   0  0  0  0  0  0  0  0  0  0  0  0
    0.9852   -0.9994   -0.0703 C   0  0  0  0  0  0  0  0  0  0  0  0
    1.7561   -0.3493   -1.2187 C   0  0  1  0  0  0  0  0  0  0  0  0
    1.4927    1.1751   -1.2820 C   0  0  0  0  0  0  0  0  0  0  0  0
    1.2969    1.8581    0.0470 C   0  0  0  0  0  0  0  0  0  0  0  0
    0.2310    2.2312    0.5129 O   0  0  0  0  0  0  0  0  0  0  0  0
    2.4396    2.0685    0.7224 O   0  0  0  0  0  0  0  0  0  0  0  0
    3.2163   -0.8243   -1.3570 C   0  0  0  0  0  0  0  0  0  0  0  0
    4.2863    0.0109   -0.9809 C   0  0  0  0  0  0  0  0  0  0  0  0
    5.6268   -0.3861   -1.0746 C   0  0  0  0  0  0  0  0  0  0  0  0
    6.8633    0.7015   -0.5886 Cl  0  0  0  0  0  0  0  0  0  0  0  0
    5.8865   -1.6629   -1.5615 C   0  0  0  0  0  0  0  0  0  0  0  0
    4.8647   -2.5241   -1.9444 C   0  0  0  0  0  0  0  0  0  0  0  0
    5.4072   -3.7066   -2.3793 N   0  0  0  0  0  0  0  0  0  0  0  0
    6.7248   -3.6202   -2.2849 N   0  0  0  0  0  0  0  0  0  0  0  0
    7.0165   -2.4009   -1.7986 N   0  0  0  0  0  0  0  0  0  0  0  0
    8.3945   -2.0367   -1.5978 C   0  0  0  0  0  0  0  0  0  0  0  0
    3.5073   -2.1329   -1.8552 C   0  0  0  0  0  0  0  0  0  0  0  0
    2.4220   -3.0885   -2.2788 C   0  0  0  0  0  0  0  0  0  0  0  0
    1.5956   -1.3629    1.1375 C   0  0  0  0  0  0  0  0  0  0  0  0
    0.8381   -1.8863    2.2132 C   0  0  0  0  0  0  0  0  0  0  0  0
    1.2724   -2.3215    3.5112 C   0  0  0  0  0  0  0  0  0  0  0  0
    0.2384   -2.7506    4.3058 C   0  0  0  0  0  0  0  0  0  0  0  0
   -1.2612   -2.6278    3.5136 S   0  0  0  0  0  0  0  0  0  0  0  0
   -0.5480   -2.0076    2.0617 C   0  0  0  0  0  0  0  0  0  0  0  0
   -4.0193   -0.0103   -1.0087 S   0  0  0  0  0  6  0  0  0  0  0  0
   -4.9484   -1.0627   -1.3551 O   0  0  0  0  0  0  0  0  0  0  0  0
   -2.9059    0.3050   -1.8825 O   0  0  0  0  0  0  0  0  0  0  0  0
   -4.9393    1.4726   -0.8376 C   0  0  0  0  0  0  0  0  0  0  0  0
   -5.1361    2.2613   -1.9783 C   0  0  0  0  0  0  0  0  0  0  0  0
   -5.8321    3.4559   -1.8607 C   0  0  0  0  0  0  0  0  0  0  0  0
   -6.1019    4.4511   -3.2304 Cl  0  0  0  0  0  0  0  0  0  0  0  0
   -6.2984    3.8222   -0.6097 C   0  0  0  0  0  0  0  0  0  0  0  0
   -6.1067    3.0814    0.5088 N   0  0  0  0  0  0  0  0  0  0  0  0
   -5.4162    1.9227    0.3780 C   0  0  0  0  0  0  0  0  0  0  0  0
   -5.3388    1.2103    1.5312 O   0  0  0  0  0  0  0  0  0  0  0  0
   -2.0989    3.4074    1.9791 H   0  0  0  0  0  0  0  0  0  0  0  0
   -3.0949    4.5711    2.8493 H   0  0  0  0  0  0  0  0  0  0  0  0
   -3.6487    3.9352    1.2984 H   0  0  0  0  0  0  0  0  0  0  0  0
   -4.7867    2.9191    3.3564 H   0  0  0  0  0  0  0  0  0  0  0  0
   -3.2065    2.3176    3.8543 H   0  0  0  0  0  0  0  0  0  0  0  0
   -4.1770    0.4660    2.9627 H   0  0  0  0  0  0  0  0  0  0  0  0
   -2.5305    1.5703    0.6459 H   0  0  0  0  0  0  0  0  0  0  0  0
   -2.0412    0.5227    1.9580 H   0  0  0  0  0  0  0  0  0  0  0  0
   -2.9138   -2.3224   -0.1943 H   0  0  0  0  0  0  0  0  0  0  0  0
   -3.1999   -2.1660    1.5110 H   0  0  0  0  0  0  0  0  0  0  0  0
   -0.8763   -0.8756   -1.1285 H   0  0  0  0  0  0  0  0  0  0  0  0
    1.2901   -0.7138   -2.1464 H   0  0  0  0  0  0  0  0  0  0  0  0
    0.5494    1.3381   -1.8241 H   0  0  0  0  0  0  0  0  0  0  0  0
    2.2462    1.7141   -1.8669 H   0  0  0  0  0  0  0  0  0  0  0  0
    2.1488    2.5119    1.5479 H   0  0  0  0  0  0  0  0  0  0  0  0
    4.0963    1.0088   -0.5961 H   0  0  0  0  0  0  0  0  0  0  0  0
    8.5486   -1.8223   -0.5378 H   0  0  0  0  0  0  0  0  0  0  0  0
    9.0404   -2.8670   -1.8970 H   0  0  0  0  0  0  0  0  0  0  0  0
    8.6190   -1.1636   -2.2147 H   0  0  0  0  0  0  0  0  0  0  0  0
    1.8231   -2.6588   -3.0872 H   0  0  0  0  0  0  0  0  0  0  0  0
    1.7767   -3.3421   -1.4337 H   0  0  0  0  0  0  0  0  0  0  0  0
    2.8412   -4.0273   -2.6559 H   0  0  0  0  0  0  0  0  0  0  0  0
    2.6676   -1.2410    1.2742 H   0  0  0  0  0  0  0  0  0  0  0  0
    2.3050   -2.3165    3.8384 H   0  0  0  0  0  0  0  0  0  0  0  0
    0.2940   -3.1280    5.3178 H   0  0  0  0  0  0  0  0  0  0  0  0
   -4.7530    1.9402   -2.9443 H   0  0  0  0  0  0  0  0  0  0  0  0
   -6.8540    4.7437   -0.4596 H   0  0  0  0  0  0  0  0  0  0  0  0
  1  2  1  0
  2  3  1  0
  3  4  1  0
  4  5  1  0
  5  6  1  0
  6  7  1  0
  7  8  2  0
  8  9  1  0
  9 10  1  0
 10 11  1  0
 11 12  1  0
 12 13  2  0
 12 14  1  0
 10 15  1  0
 15 16  2  0
 16 17  1  0
 17 18  1  0
 17 19  2  0
 19 20  1  0
 20 21  1  0
 21 22  2  0
 22 23  1  0
 23 24  1  0
 20 25  2  0
 25 26  1  0
  9 27  2  0
 27 28  1  0
 28 29  1  0
 29 30  2  0
 30 31  1  0
 31 32  1  0
  5 33  1  0
 33 34  2  0
 33 35  2  0
 33 36  1  0
 36 37  2  0
 37 38  1  0
 38 39  1  0
 38 40  2  0
 40 41  1  0
 41 42  2  0
 42 43  1  0
 43  3  1  0
 32  7  1  0
 42 36  1  0
 25 15  1  0
 32 28  2  0
 23 19  1  0
  1 44  1  0
  1 45  1  0
  1 46  1  0
  2 47  1  0
  2 48  1  0
  3 49  1  1
  4 50  1  0
  4 51  1  0
  6 52  1  0
  6 53  1  0
  8 54  1  0
 10 55  1  6
 11 56  1  0
 11 57  1  0
 14 58  1  0
 16 59  1  0
 24 60  1  0
 24 61  1  0
 24 62  1  0
 26 63  1  0
 26 64  1  0
 26 65  1  0
 27 66  1  0
 29 67  1  0
 30 68  1  0
 37 69  1  0
 40 70  1  0
M  END
>  <mol_id>  (1) 
83648

>  <source_index>  (1) 
7

>  <layer>  (1) 
L2

>  <uniprot>  (1) 
Q14145

>  <paff>  (1) 
8

>  <smiles>  (1) 
CC[C@@H]1CN(Cc2cc([C@@H](CC(=O)O)c3cc(Cl)c4c(nnn4C)c3C)cc3ccsc23)S(=O)(=O)c2cc(Cl)cnc2O1

$$$$
