L1:Q07343:952
     RDKit          3D

 42 44  0  0  0  0  0  0  0  0999 V2000
   41.8890    2.1149   63.1532 C   0  0  0  0  0  0  0  0  0  0  0  0
   40.5931    2.5147   63.0497 N   0  0  0  0  0  0  0  0  0  0  0  0
   40.2004    3.1695   61.9271 C   0  0  0  0  0  0  0  0  0  0  0  0
   41.0475    3.4474   60.9081 N   0  0  0  0  0  0  0  0  0  0  0  0
   42.3226    3.0196   61.0351 C   0  0  0  0  0  0  0  0  0  0  0  0
   42.7956    2.3217   62.1266 C   0  0  0  0  0  0  0  0  0  0  0  0
   42.8499    0.3238   66.9519 C   0  0  0  0  0  0  0  0  0  0  0  0
   43.8086    1.0503   66.2427 C   0  0  0  0  0  0  0  0  0  0  0  0
   43.4895    1.6226   65.0072 C   0  0  0  0  0  0  0  0  0  0  0  0
   42.2083    1.4880   64.4506 C   0  0  0  0  0  0  0  0  0  0  0  0
   41.2580    0.7335   65.1632 C   0  0  0  0  0  0  0  0  0  0  0  0
   41.5591    0.1714   66.4117 C   0  0  0  0  0  0  0  0  0  0  0  0
   43.2789    0.6083   69.2840 C   0  0  0  0  0  0  0  0  0  0  0  0
   43.0676   -0.2562   68.1767 O   0  0  0  0  0  0  0  0  0  0  0  0
   40.6700   -0.5546   67.1655 O   0  0  0  0  0  0  0  0  0  0  0  0
   39.3441   -0.0556   67.2818 C   0  0  0  0  0  0  0  0  0  0  0  0
   44.1995    1.8815   62.1043 C   0  0  0  0  0  0  0  0  0  0  0  0
   44.4971    0.8953   61.4393 O   0  0  0  0  0  0  0  0  0  0  0  0
   45.0909    2.6031   62.8732 N   0  0  0  0  0  0  0  0  0  0  0  0
   44.7741    3.4016   63.4113 H   0  0  0  0  0  0  0  0  0  0  0  0
   46.4866    2.2967   62.9124 C   0  0  0  0  0  0  0  0  0  0  0  0
   47.3022    2.6156   64.1375 C   0  0  0  0  0  0  0  0  0  0  0  0
   46.9960    1.1866   63.7895 C   0  0  0  0  0  0  0  0  0  0  0  0
   38.7467    3.6579   61.8329 C   0  0  0  0  0  0  0  0  0  0  0  0
   37.8362    2.6655   62.0634 F   0  0  0  0  0  0  0  0  0  0  0  0
   38.4253    4.1722   60.6063 F   0  0  0  0  0  0  0  0  0  0  0  0
   38.4461    4.6507   62.7246 F   0  0  0  0  0  0  0  0  0  0  0  0
   42.9824    3.2275   60.2693 H   0  0  0  0  0  0  0  0  0  0  0  0
   44.7573    1.1655   66.6322 H   0  0  0  0  0  0  0  0  0  0  0  0
   44.2104    2.1543   64.4947 H   0  0  0  0  0  0  0  0  0  0  0  0
   40.3196    0.5909   64.7582 H   0  0  0  0  0  0  0  0  0  0  0  0
   43.4342    0.0249   70.1674 H   0  0  0  0  0  0  0  0  0  0  0  0
   42.4214    1.2345   69.4163 H   0  0  0  0  0  0  0  0  0  0  0  0
   44.1402    1.2166   69.1023 H   0  0  0  0  0  0  0  0  0  0  0  0
   38.7663   -0.7173   67.8927 H   0  0  0  0  0  0  0  0  0  0  0  0
   38.9014    0.0105   66.3099 H   0  0  0  0  0  0  0  0  0  0  0  0
   39.3666    0.9156   67.7303 H   0  0  0  0  0  0  0  0  0  0  0  0
   46.5596    2.5339   61.8716 H   0  0  0  0  0  0  0  0  0  0  0  0
   46.8367    3.0711   64.9865 H   0  0  0  0  0  0  0  0  0  0  0  0
   48.1952    3.1734   64.3279 H   0  0  0  0  0  0  0  0  0  0  0  0
   46.3129    0.6244   64.3913 H   0  0  0  0  0  0  0  0  0  0  0  0
   47.5815    0.3053   63.6300 H   0  0  0  0  0  0  0  0  0  0  0  0
  1  2  2  0
  2  3  1  0
  3  4  2  0
  3 24  1  0
  4  5  1  0
  5  6  2  0
  5 28  1  0
  6 17  1  0
  6  1  1  0
  7  8  2  0
  8  9  1  0
  8 29  1  0
  9 10  2  0
  9 30  1  0
 10 11  1  0
 10  1  1  0
 11 12  2  0
 11 31  1  0
 12 15  1  0
 12  7  1  0
 13 14  1  0
 13 32  1  0
 13 33  1  0
 13 34  1  0
 14  7  1  0
 15 16  1  0
 16 35  1  0
 16 36  1  0
 16 37  1  0
 17 18  2  0
 17 19  1  0
 19 21  1  0
 19 20  1  0
 21 22  1  0
 21 38  1  0
 22 23  1  0
 22 39  1  0
 22 40  1  0
 23 21  1  0
 23 41  1  0
 23 42  1  0
 24 25  1  0
 24 26  1  0
 24 27  1  0
M  END
>  <minimizedAffinity>  (1) 
-8.01870

>  <mol_id>  (1) 
952

>  <source_index>  (1) 
0

>  <layer>  (1) 
L1

>  <uniprot>  (1) 
Q07343

>  <paff>  (1) 
6.5986000000000002

>  <smiles>  (1) 
COc1ccc(cc1OC)-c1nc(ncc1C(=O)NC1CC1)C(F)(F)F

$$$$
L1:Q07343:49559
     RDKit          3D

 50 52  0  0  0  0  0  0  0  0999 V2000
   40.2547    2.2465   62.8383 N   0  0  0  0  0  0  0  0  0  0  0  0
   39.7996    1.0007   63.1583 C   0  0  0  0  0  0  0  0  0  0  0  0
   40.3508   -0.0720   63.0130 O   0  0  0  0  0  0  0  0  0  0  0  0
   38.4848    1.1729   63.7722 C   0  0  0  0  0  0  0  0  0  0  0  0
   37.6069    0.2387   64.2809 C   0  0  0  0  0  0  0  0  0  0  0  0
   36.4123    0.7232   64.8189 C   0  0  0  0  0  0  0  0  0  0  0  0
   36.1265    2.1095   64.8357 C   0  0  0  0  0  0  0  0  0  0  0  0
   37.0293    3.0425   64.3115 C   0  0  0  0  0  0  0  0  0  0  0  0
   38.2050    2.5279   63.7863 C   0  0  0  0  0  0  0  0  0  0  0  0
   39.3441    3.2072   63.1730 C   0  0  0  0  0  0  0  0  0  0  0  0
   39.4008    4.4137   63.0180 O   0  0  0  0  0  0  0  0  0  0  0  0
   36.8219    4.4372   64.2819 N   0  0  0  0  0  0  0  0  0  0  0  0
   36.0464    5.1547   63.3911 C   0  0  0  0  0  0  0  0  0  0  0  0
   36.0982    6.6369   63.6607 C   0  0  0  0  0  0  0  0  0  0  0  0
   35.3844    4.6982   62.4659 O   0  0  0  0  0  0  0  0  0  0  0  0
   37.3058    4.9690   65.0074 H   0  0  0  0  0  0  0  0  0  0  0  0
   41.4981    2.5442   62.1286 C   0  0  1  0  0  0  0  0  0  0  0  0
   45.2371    1.8271   64.2470 C   0  0  0  0  0  0  0  0  0  0  0  0
   45.2235    2.3974   62.9734 C   0  0  0  0  0  0  0  0  0  0  0  0
   44.0126    2.6315   62.3153 C   0  0  0  0  0  0  0  0  0  0  0  0
   42.7832    2.3000   62.9105 C   0  0  0  0  0  0  0  0  0  0  0  0
   42.8074    1.7321   64.1958 C   0  0  0  0  0  0  0  0  0  0  0  0
   44.0176    1.5037   64.8690 C   0  0  0  0  0  0  0  0  0  0  0  0
   47.6212    1.9195   64.3846 C   0  0  0  0  0  0  0  0  0  0  0  0
   46.3753    1.5606   64.9662 O   0  0  0  0  0  0  0  0  0  0  0  0
   44.1078    0.9344   66.1154 O   0  0  0  0  0  0  0  0  0  0  0  0
   42.9014    0.4957   66.7282 C   0  0  0  0  0  0  0  0  0  0  0  0
   41.6477    1.8936   60.4333 S   0  0  0  0  0  0  0  0  0  0  0  0
   40.0022    1.5826   59.8232 C   0  0  0  0  0  0  0  0  0  0  0  0
   42.3108    0.5994   60.5087 O   0  0  0  0  0  0  0  0  0  0  0  0
   42.2359    2.9322   59.6028 O   0  0  0  0  0  0  0  0  0  0  0  0
   37.8224   -0.7704   64.2648 H   0  0  0  0  0  0  0  0  0  0  0  0
   35.7264    0.0591   65.2108 H   0  0  0  0  0  0  0  0  0  0  0  0
   35.2366    2.4384   65.2417 H   0  0  0  0  0  0  0  0  0  0  0  0
   36.7271    6.8239   64.5060 H   0  0  0  0  0  0  0  0  0  0  0  0
   35.1113    6.9972   63.8637 H   0  0  0  0  0  0  0  0  0  0  0  0
   36.4930    7.1417   62.8038 H   0  0  0  0  0  0  0  0  0  0  0  0
   41.3878    3.6038   62.0287 H   0  0  0  0  0  0  0  0  0  0  0  0
   46.1132    2.6480   62.5144 H   0  0  0  0  0  0  0  0  0  0  0  0
   44.0215    3.0558   61.3746 H   0  0  0  0  0  0  0  0  0  0  0  0
   41.9180    1.4781   64.6535 H   0  0  0  0  0  0  0  0  0  0  0  0
   48.4153    1.6552   65.0512 H   0  0  0  0  0  0  0  0  0  0  0  0
   47.6411    2.9744   64.2067 H   0  0  0  0  0  0  0  0  0  0  0  0
   47.7453    1.3991   63.4579 H   0  0  0  0  0  0  0  0  0  0  0  0
   43.1208    0.0764   67.6879 H   0  0  0  0  0  0  0  0  0  0  0  0
   42.4378   -0.2464   66.1123 H   0  0  0  0  0  0  0  0  0  0  0  0
   42.2381    1.3271   66.8454 H   0  0  0  0  0  0  0  0  0  0  0  0
   39.5405    0.8203   60.4153 H   0  0  0  0  0  0  0  0  0  0  0  0
   40.0546    1.2602   58.8043 H   0  0  0  0  0  0  0  0  0  0  0  0
   39.4237    2.4807   59.8838 H   0  0  0  0  0  0  0  0  0  0  0  0
  1  2  1  0
  2  3  2  0
  2  4  1  0
  4  5  2  0
  5  6  1  0
  5 32  1  0
  6  7  2  0
  6 33  1  0
  7  8  1  0
  7 34  1  0
  8 12  1  0
  8  9  2  0
  9 10  1  0
  9  4  1  0
 10 11  2  0
 10  1  1  0
 12 13  1  0
 12 16  1  0
 13 14  1  0
 13 15  2  0
 14 35  1  0
 14 36  1  0
 14 37  1  0
 17  1  1  0
 17 28  1  0
 17 38  1  6
 18 19  2  0
 19 20  1  0
 19 39  1  0
 20 21  2  0
 20 40  1  0
 21 17  1  0
 21 22  1  0
 22 23  2  0
 22 41  1  0
 23 26  1  0
 23 18  1  0
 24 25  1  0
 24 42  1  0
 24 43  1  0
 24 44  1  0
 25 18  1  0
 26 27  1  0
 27 45  1  0
 27 46  1  0
 27 47  1  0
 28 29  1  0
 28 30  2  0
 28 31  2  0
 29 48  1  0
 29 49  1  0
 29 50  1  0
M  END
>  <minimizedAffinity>  (2) 
-7.75588

>  <mol_id>  (2) 
49559

>  <source_index>  (2) 
1

>  <layer>  (2) 
L1

>  <uniprot>  (2) 
Q07343

>  <paff>  (2) 
7.1307999999999998

>  <smiles>  (2) 
COc1ccc([C@H](N2C(=O)c3cccc(NC(C)=O)c3C2=O)S(C)(=O)=O)cc1OC

$$$$
L1:Q07343:52461
     RDKit          3D

 42 44  0  0  0  0  0  0  0  0999 V2000
   42.0763    1.7559   63.0272 C   0  0  0  0  0  0  0  0  0  0  0  0
   42.6502    1.5242   64.2892 C   0  0  0  0  0  0  0  0  0  0  0  0
   43.9971    1.7697   64.4276 O   0  0  0  0  0  0  0  0  0  0  0  0
   41.8734    1.0629   65.3668 C   0  0  0  0  0  0  0  0  0  0  0  0
   40.5001    0.8421   65.1361 C   0  0  0  0  0  0  0  0  0  0  0  0
   39.6760    0.4241   66.1562 O   0  0  0  0  0  0  0  0  0  0  0  0
   39.9234    1.0667   63.8691 C   0  0  0  0  0  0  0  0  0  0  0  0
   40.6998    1.5564   62.7969 C   0  0  0  0  0  0  0  0  0  0  0  0
   44.2590    1.6419   65.3543 H   0  0  0  0  0  0  0  0  0  0  0  0
   40.1650    0.4335   66.9961 H   0  0  0  0  0  0  0  0  0  0  0  0
   42.4721    0.8292   66.6893 C   0  0  0  0  0  0  0  0  0  0  0  0
   42.3157   -0.4049   67.3377 C   0  0  0  0  0  0  0  0  0  0  0  0
   42.8840   -0.6242   68.5936 C   0  0  0  0  0  0  0  0  0  0  0  0
   43.6143    0.3870   69.2149 C   0  0  0  0  0  0  0  0  0  0  0  0
   43.7780    1.6179   68.5827 C   0  0  0  0  0  0  0  0  0  0  0  0
   43.2102    1.8386   67.3268 C   0  0  0  0  0  0  0  0  0  0  0  0
   40.0995    1.8392   61.4761 C   0  0  0  0  0  0  0  0  0  0  0  0
   39.7057    3.1409   61.1231 C   0  0  0  0  0  0  0  0  0  0  0  0
   39.1305    3.4056   59.8775 C   0  0  0  0  0  0  0  0  0  0  0  0
   38.9379    2.3711   58.9649 C   0  0  0  0  0  0  0  0  0  0  0  0
   39.3196    1.0734   59.2966 C   0  0  0  0  0  0  0  0  0  0  0  0
   39.8954    0.8105   60.5421 C   0  0  0  0  0  0  0  0  0  0  0  0
   43.4674    1.1936   61.2809 C   0  0  0  0  0  0  0  0  0  0  0  0
   42.8646    2.2590   62.0141 O   0  0  0  0  0  0  0  0  0  0  0  0
   38.5713    0.9168   63.6492 O   0  0  0  0  0  0  0  0  0  0  0  0
   37.7975    2.0276   64.0960 C   0  0  0  0  0  0  0  0  0  0  0  0
   41.7758   -1.1572   66.8822 H   0  0  0  0  0  0  0  0  0  0  0  0
   42.7633   -1.5357   69.0623 H   0  0  0  0  0  0  0  0  0  0  0  0
   44.0340    0.2242   70.1435 H   0  0  0  0  0  0  0  0  0  0  0  0
   44.3191    2.3664   69.0431 H   0  0  0  0  0  0  0  0  0  0  0  0
   43.3342    2.7521   66.8629 H   0  0  0  0  0  0  0  0  0  0  0  0
   39.8433    3.9131   61.7938 H   0  0  0  0  0  0  0  0  0  0  0  0
   38.8483    4.3678   59.6336 H   0  0  0  0  0  0  0  0  0  0  0  0
   38.5132    2.5658   58.0447 H   0  0  0  0  0  0  0  0  0  0  0  0
   39.1770    0.3056   58.6220 H   0  0  0  0  0  0  0  0  0  0  0  0
   40.1750   -0.1542   60.7793 H   0  0  0  0  0  0  0  0  0  0  0  0
   44.0755    1.5981   60.4989 H   0  0  0  0  0  0  0  0  0  0  0  0
   42.7037    0.5764   60.8558 H   0  0  0  0  0  0  0  0  0  0  0  0
   44.0750    0.6074   61.9382 H   0  0  0  0  0  0  0  0  0  0  0  0
   36.7625    1.8451   63.8952 H   0  0  0  0  0  0  0  0  0  0  0  0
   38.1106    2.9110   63.5798 H   0  0  0  0  0  0  0  0  0  0  0  0
   37.9387    2.1604   65.1483 H   0  0  0  0  0  0  0  0  0  0  0  0
  1  2  2  0
  2  3  1  0
  2  4  1  0
  3  9  1  0
  4 11  1  0
  4  5  2  0
  5  6  1  0
  5  7  1  0
  6 10  1  0
  7 25  1  0
  7  8  2  0
  8 17  1  0
  8  1  1  0
 11 12  2  0
 12 13  1  0
 12 27  1  0
 13 14  2  0
 13 28  1  0
 14 15  1  0
 14 29  1  0
 15 16  2  0
 15 30  1  0
 16 11  1  0
 16 31  1  0
 17 18  2  0
 18 19  1  0
 18 32  1  0
 19 20  2  0
 19 33  1  0
 20 21  1  0
 20 34  1  0
 21 22  2  0
 21 35  1  0
 22 17  1  0
 22 36  1  0
 23 24  1  0
 23 37  1  0
 23 38  1  0
 23 39  1  0
 24  1  1  0
 25 26  1  0
 26 40  1  0
 26 41  1  0
 26 42  1  0
M  END
>  <minimizedAffinity>  (3) 
-6.75847

>  <mol_id>  (3) 
52461

>  <source_index>  (3) 
2

>  <layer>  (3) 
L1

>  <uniprot>  (3) 
Q07343

>  <paff>  (3) 
6.3978999999999999

>  <smiles>  (3) 
COc1c(O)c(-c2ccccc2)c(O)c(OC)c1-c1ccccc1

$$$$
L1:Q07343:55030
     RDKit          3D

 50 52  0  0  0  0  0  0  0  0999 V2000
   40.5535    0.6357   64.8031 C   0  0  0  0  0  0  0  0  0  0  0  0
   40.5055   -0.3336   65.7516 N   0  0  0  0  0  0  0  0  0  0  0  0
   39.3126   -0.8854   66.0243 C   0  0  0  0  0  0  0  0  0  0  0  0
   38.1646   -0.5410   65.4230 N   0  0  0  0  0  0  0  0  0  0  0  0
   38.2430    0.4383   64.4965 C   0  0  0  0  0  0  0  0  0  0  0  0
   39.4125    1.0854   64.1613 C   0  0  0  0  0  0  0  0  0  0  0  0
   44.5439    2.0246   63.9508 C   0  0  0  0  0  0  0  0  0  0  0  0
   44.1998    1.6221   65.2411 C   0  0  0  0  0  0  0  0  0  0  0  0
   42.8993    1.1789   65.5218 C   0  0  0  0  0  0  0  0  0  0  0  0
   41.9160    1.1124   64.5185 C   0  0  0  0  0  0  0  0  0  0  0  0
   42.2676    1.5280   63.2267 C   0  0  0  0  0  0  0  0  0  0  0  0
   43.5596    1.9864   62.9546 C   0  0  0  0  0  0  0  0  0  0  0  0
   46.9010    1.6840   63.9198 C   0  0  0  0  0  0  0  0  0  0  0  0
   45.7785    2.4758   63.5660 O   0  0  0  0  0  0  0  0  0  0  0  0
   43.8639    2.3450   61.6634 O   0  0  0  0  0  0  0  0  0  0  0  0
   44.0862    1.1750   60.8782 C   0  0  0  0  0  0  0  0  0  0  0  0
   39.3501    2.1695   63.1685 C   0  0  0  0  0  0  0  0  0  0  0  0
   39.4226    3.3279   63.5582 O   0  0  0  0  0  0  0  0  0  0  0  0
   39.2578    1.7936   61.8460 N   0  0  0  0  0  0  0  0  0  0  0  0
   39.2107    0.8107   61.6052 H   0  0  0  0  0  0  0  0  0  0  0  0
   39.1346    2.7341   60.7368 C   0  0  0  0  0  0  0  0  0  0  0  0
   38.3326    2.1842   59.5593 C   0  0  0  0  0  0  0  0  0  0  0  0
   38.1324    3.2737   58.5071 C   0  0  0  0  0  0  0  0  0  0  0  0
   39.1623    4.2660   58.5155 O   0  0  0  0  0  0  0  0  0  0  0  0
   40.4443    3.7244   58.8163 C   0  0  0  0  0  0  0  0  0  0  0  0
   40.4910    3.2832   60.2748 C   0  0  0  0  0  0  0  0  0  0  0  0
   39.3029   -2.1469   67.2735 S   0  0  0  0  0  0  0  0  0  0  0  0
   40.9182   -1.8636   68.0332 C   0  0  0  0  0  0  0  0  0  0  0  0
   37.3764    0.7184   64.0111 H   0  0  0  0  0  0  0  0  0  0  0  0
   44.9059    1.6506   65.9932 H   0  0  0  0  0  0  0  0  0  0  0  0
   42.6588    0.8957   66.4846 H   0  0  0  0  0  0  0  0  0  0  0  0
   41.5665    1.4952   62.4702 H   0  0  0  0  0  0  0  0  0  0  0  0
   47.7942    2.1503   63.5596 H   0  0  0  0  0  0  0  0  0  0  0  0
   46.8044    0.7124   63.4821 H   0  0  0  0  0  0  0  0  0  0  0  0
   46.9512    1.5920   64.9847 H   0  0  0  0  0  0  0  0  0  0  0  0
   44.3227    1.4590   59.8741 H   0  0  0  0  0  0  0  0  0  0  0  0
   43.2027    0.5714   60.8795 H   0  0  0  0  0  0  0  0  0  0  0  0
   44.8999    0.6170   61.2921 H   0  0  0  0  0  0  0  0  0  0  0  0
   38.5726    3.5541   61.1326 H   0  0  0  0  0  0  0  0  0  0  0  0
   37.3781    1.8482   59.9071 H   0  0  0  0  0  0  0  0  0  0  0  0
   38.8680    1.3679   59.1212 H   0  0  0  0  0  0  0  0  0  0  0  0
   37.1952    3.7557   58.6918 H   0  0  0  0  0  0  0  0  0  0  0  0
   38.1598    2.7974   57.5493 H   0  0  0  0  0  0  0  0  0  0  0  0
   41.1931    4.4697   58.6468 H   0  0  0  0  0  0  0  0  0  0  0  0
   40.6267    2.8791   58.1862 H   0  0  0  0  0  0  0  0  0  0  0  0
   40.7527    4.1227   60.8844 H   0  0  0  0  0  0  0  0  0  0  0  0
   41.2192    2.5048   60.3682 H   0  0  0  0  0  0  0  0  0  0  0  0
   41.0669   -2.5652   68.8273 H   0  0  0  0  0  0  0  0  0  0  0  0
   40.9588   -0.8684   68.4242 H   0  0  0  0  0  0  0  0  0  0  0  0
   41.6852   -1.9894   67.2978 H   0  0  0  0  0  0  0  0  0  0  0  0
  1  2  2  0
  2  3  1  0
  3 27  1  0
  3  4  2  0
  4  5  1  0
  5  6  2  0
  5 29  1  0
  6 17  1  0
  6  1  1  0
  7  8  2  0
  8  9  1  0
  8 30  1  0
  9 10  2  0
  9 31  1  0
 10 11  1  0
 10  1  1  0
 11 12  2  0
 11 32  1  0
 12 15  1  0
 12  7  1  0
 13 14  1  0
 13 33  1  0
 13 34  1  0
 13 35  1  0
 14  7  1  0
 15 16  1  0
 16 36  1  0
 16 37  1  0
 16 38  1  0
 17 18  2  0
 17 19  1  0
 19 21  1  0
 19 20  1  0
 21 22  1  0
 21 39  1  0
 22 23  1  0
 22 40  1  0
 22 41  1  0
 23 24  1  0
 23 42  1  0
 23 43  1  0
 24 25  1  0
 25 26  1  0
 25 44  1  0
 25 45  1  0
 26 21  1  0
 26 46  1  0
 26 47  1  0
 27 28  1  0
 28 48  1  0
 28 49  1  0
 28 50  1  0
M  END
>  <minimizedAffinity>  (4) 
-7.20388

>  <mol_id>  (4) 
55030

>  <source_index>  (4) 
3

>  <layer>  (4) 
L1

>  <uniprot>  (4) 
Q07343

>  <paff>  (4) 
6.6215999999999999

>  <smiles>  (4) 
COc1ccc(cc1OC)-c1nc(SC)ncc1C(=O)NC1CCOCC1

$$$$
L1:Q07343:81279
     RDKit          3D

 44 46  0  0  0  0  0  0  0  0999 V2000
   45.1054    1.7989   64.2412 C   0  0  0  0  0  0  0  0  0  0  0  0
   44.7802    2.2564   62.9614 C   0  0  0  0  0  0  0  0  0  0  0  0
   43.4417    2.3063   62.5572 C   0  0  0  0  0  0  0  0  0  0  0  0
   42.4260    1.9015   63.4361 C   0  0  0  0  0  0  0  0  0  0  0  0
   42.7495    1.4754   64.7287 C   0  0  0  0  0  0  0  0  0  0  0  0
   44.0835    1.4445   65.1294 C   0  0  0  0  0  0  0  0  0  0  0  0
   40.9911    1.9550   63.0459 C   0  0  0  0  0  0  0  0  0  0  0  0
   40.1688    1.4387   63.7916 O   0  0  0  0  0  0  0  0  0  0  0  0
   40.7444    2.5753   61.8376 N   0  0  0  0  0  0  0  0  0  0  0  0
   41.5422    2.8476   61.2730 H   0  0  0  0  0  0  0  0  0  0  0  0
   39.4908    2.8133   61.2229 C   0  0  0  0  0  0  0  0  0  0  0  0
   38.6093    3.8143   61.6399 C   0  0  0  0  0  0  0  0  0  0  0  0
   37.3857    4.0031   60.9868 C   0  0  0  0  0  0  0  0  0  0  0  0
   37.0303    3.1979   59.9076 C   0  0  0  0  0  0  0  0  0  0  0  0
   37.9002    2.2011   59.4734 C   0  0  0  0  0  0  0  0  0  0  0  0
   39.1203    2.0101   60.1272 C   0  0  0  0  0  0  0  0  0  0  0  0
   40.1700    0.7590   59.5463 Cl  0  0  0  0  0  0  0  0  0  0  0  0
   46.3954    1.7561   64.6959 O   0  0  0  0  0  0  0  0  0  0  0  0
   48.4914    2.2171   63.9956 F   0  0  0  0  0  0  0  0  0  0  0  0
   47.3348    1.5965   63.6423 C   0  0  0  0  0  0  0  0  0  0  0  0
   47.6213    0.2732   63.5510 F   0  0  0  0  0  0  0  0  0  0  0  0
   44.3677    0.9742   66.3844 O   0  0  0  0  0  0  0  0  0  0  0  0
   43.2342    1.0809   67.2476 C   0  0  0  0  0  0  0  0  0  0  0  0
   42.8401   -0.2850   67.8050 C   0  0  0  0  0  0  0  0  0  0  0  0
   42.0753    0.0381   69.0829 C   0  0  0  0  0  0  0  0  0  0  0  0
   42.5870    1.4049   69.5454 C   0  0  0  0  0  0  0  0  0  0  0  0
   43.6189    1.8431   68.5116 C   0  0  0  0  0  0  0  0  0  0  0  0
   45.5265    2.5571   62.3152 H   0  0  0  0  0  0  0  0  0  0  0  0
   43.2013    2.6414   61.6112 H   0  0  0  0  0  0  0  0  0  0  0  0
   42.0045    1.1857   65.3815 H   0  0  0  0  0  0  0  0  0  0  0  0
   38.8627    4.4197   62.4364 H   0  0  0  0  0  0  0  0  0  0  0  0
   36.7427    4.7440   61.3072 H   0  0  0  0  0  0  0  0  0  0  0  0
   36.1257    3.3394   59.4315 H   0  0  0  0  0  0  0  0  0  0  0  0
   37.6445    1.6049   58.6708 H   0  0  0  0  0  0  0  0  0  0  0  0
   46.9431    1.9935   62.7291 H   0  0  0  0  0  0  0  0  0  0  0  0
   42.4612    1.5418   66.6689 H   0  0  0  0  0  0  0  0  0  0  0  0
   43.7086   -0.8716   68.0207 H   0  0  0  0  0  0  0  0  0  0  0  0
   42.2581   -0.8572   67.1131 H   0  0  0  0  0  0  0  0  0  0  0  0
   42.2685   -0.7035   69.8296 H   0  0  0  0  0  0  0  0  0  0  0  0
   41.0186    0.0510   68.9151 H   0  0  0  0  0  0  0  0  0  0  0  0
   43.0403    1.3241   70.5112 H   0  0  0  0  0  0  0  0  0  0  0  0
   41.7895    2.1137   69.6259 H   0  0  0  0  0  0  0  0  0  0  0  0
   44.6068    1.5796   68.8271 H   0  0  0  0  0  0  0  0  0  0  0  0
   43.6246    2.9028   68.3638 H   0  0  0  0  0  0  0  0  0  0  0  0
  1  2  2  0
  2  3  1  0
  2 28  1  0
  3  4  2  0
  3 29  1  0
  4  5  1  0
  4  7  1  0
  5  6  2  0
  5 30  1  0
  6 22  1  0
  6  1  1  0
  7  8  2  0
  7  9  1  0
  9 11  1  0
  9 10  1  0
 11 12  2  0
 12 13  1  0
 12 31  1  0
 13 14  2  0
 13 32  1  0
 14 15  1  0
 14 33  1  0
 15 16  2  0
 15 34  1  0
 16 17  1  0
 16 11  1  0
 18  1  1  0
 19 20  1  0
 20 21  1  0
 20 18  1  0
 20 35  1  0
 22 23  1  0
 23 24  1  0
 23 36  1  0
 24 25  1  0
 24 37  1  0
 24 38  1  0
 25 26  1  0
 25 39  1  0
 25 40  1  0
 26 27  1  0
 26 41  1  0
 26 42  1  0
 27 23  1  0
 27 43  1  0
 27 44  1  0
M  END
>  <minimizedAffinity>  (5) 
-9.02705

>  <mol_id>  (5) 
81279

>  <source_index>  (5) 
4

>  <layer>  (5) 
L1

>  <uniprot>  (5) 
Q07343

>  <paff>  (5) 
7.0223000000000004

>  <smiles>  (5) 
FC(F)Oc1ccc(cc1OC1CCCC1)C(=O)Nc1ccccc1Cl

$$$$
L1:Q07343:88394
     RDKit          3D

 56 58  0  0  0  0  0  0  0  0999 V2000
   40.8779    1.8585   62.8875 C   0  0  1  0  0  0  0  0  0  0  0  0
   39.4996    2.1400   63.3071 N   0  0  0  0  0  0  0  0  0  0  0  0
   38.5826    1.1543   63.5602 C   0  0  0  0  0  0  0  0  0  0  0  0
   38.7499   -0.0503   63.5818 O   0  0  0  0  0  0  0  0  0  0  0  0
   37.3068    1.8183   63.8146 C   0  0  0  0  0  0  0  0  0  0  0  0
   36.0737    1.2895   64.1328 C   0  0  0  0  0  0  0  0  0  0  0  0
   35.0272    2.1954   64.3165 C   0  0  0  0  0  0  0  0  0  0  0  0
   35.2337    3.5878   64.1784 C   0  0  0  0  0  0  0  0  0  0  0  0
   36.4924    4.1065   63.8518 C   0  0  0  0  0  0  0  0  0  0  0  0
   37.5094    3.1802   63.6781 C   0  0  0  0  0  0  0  0  0  0  0  0
   38.9170    3.3766   63.3378 C   0  0  0  0  0  0  0  0  0  0  0  0
   39.4111    4.4721   63.1404 O   0  0  0  0  0  0  0  0  0  0  0  0
   36.7822    5.4774   63.6908 N   0  0  0  0  0  0  0  0  0  0  0  0
   36.7283    6.4670   64.6529 C   0  0  0  0  0  0  0  0  0  0  0  0
   36.4215    6.3247   65.8307 O   0  0  0  0  0  0  0  0  0  0  0  0
   37.1056    7.8167   64.0977 C   0  0  0  0  0  0  0  0  0  0  0  0
   37.0602    5.7623   62.7502 H   0  0  0  0  0  0  0  0  0  0  0  0
   43.8639    1.3075   65.2202 C   0  0  0  0  0  0  0  0  0  0  0  0
   43.0775    1.6511   64.1135 C   0  0  0  0  0  0  0  0  0  0  0  0
   41.6860    1.4295   64.1056 C   0  0  0  0  0  0  0  0  0  0  0  0
   41.0950    0.8825   65.2498 C   0  0  0  0  0  0  0  0  0  0  0  0
   41.8735    0.5253   66.3551 C   0  0  0  0  0  0  0  0  0  0  0  0
   43.2567    0.7236   66.3466 C   0  0  0  0  0  0  0  0  0  0  0  0
   44.0897    0.4086   67.3914 O   0  0  0  0  0  0  0  0  0  0  0  0
   43.4940   -0.1624   68.5482 C   0  0  0  0  0  0  0  0  0  0  0  0
   45.2216    1.4978   65.2968 O   0  0  0  0  0  0  0  0  0  0  0  0
   47.3727    2.0678   64.4483 C   0  0  0  0  0  0  0  0  0  0  0  0
   45.9279    1.7697   64.0898 C   0  0  0  0  0  0  0  0  0  0  0  0
   40.9176    0.9411   61.6656 C   0  0  0  0  0  0  0  0  0  0  0  0
   41.3562    1.7606   60.1450 S   0  0  0  0  0  0  0  0  0  0  0  0
   42.6821    2.3276   60.2755 O   0  0  0  0  0  0  0  0  0  0  0  0
   41.0685    0.8236   59.0740 O   0  0  0  0  0  0  0  0  0  0  0  0
   40.2022    3.1032   59.9717 C   0  0  0  0  0  0  0  0  0  0  0  0
   41.3656    2.7383   62.5229 H   0  0  0  0  0  0  0  0  0  0  0  0
   35.9310    0.2721   64.2306 H   0  0  0  0  0  0  0  0  0  0  0  0
   34.0875    1.8432   64.5570 H   0  0  0  0  0  0  0  0  0  0  0  0
   34.4415    4.2336   64.3211 H   0  0  0  0  0  0  0  0  0  0  0  0
   37.3367    7.7224   63.0572 H   0  0  0  0  0  0  0  0  0  0  0  0
   37.9608    8.1910   64.6205 H   0  0  0  0  0  0  0  0  0  0  0  0
   36.2871    8.4947   64.2212 H   0  0  0  0  0  0  0  0  0  0  0  0
   43.5264    2.0753   63.2867 H   0  0  0  0  0  0  0  0  0  0  0  0
   40.0731    0.7411   65.2783 H   0  0  0  0  0  0  0  0  0  0  0  0
   41.4220    0.1111   67.1855 H   0  0  0  0  0  0  0  0  0  0  0  0
   44.2503   -0.3575   69.2795 H   0  0  0  0  0  0  0  0  0  0  0  0
   43.0085   -1.0786   68.2841 H   0  0  0  0  0  0  0  0  0  0  0  0
   42.7746    0.5189   68.9522 H   0  0  0  0  0  0  0  0  0  0  0  0
   47.9259    2.2759   63.5563 H   0  0  0  0  0  0  0  0  0  0  0  0
   47.7995    1.2205   64.9432 H   0  0  0  0  0  0  0  0  0  0  0  0
   47.4110    2.9171   65.0980 H   0  0  0  0  0  0  0  0  0  0  0  0
   45.8825    0.9185   63.4430 H   0  0  0  0  0  0  0  0  0  0  0  0
   45.4908    2.6049   63.5835 H   0  0  0  0  0  0  0  0  0  0  0  0
   39.9485    0.5044   61.5431 H   0  0  0  0  0  0  0  0  0  0  0  0
   41.6810    0.2152   61.8529 H   0  0  0  0  0  0  0  0  0  0  0  0
   40.3753    3.8241   60.7432 H   0  0  0  0  0  0  0  0  0  0  0  0
   39.2035    2.7277   60.0521 H   0  0  0  0  0  0  0  0  0  0  0  0
   40.3336    3.5653   59.0156 H   0  0  0  0  0  0  0  0  0  0  0  0
  1 29  1  0
  1  2  1  0
  1 34  1  6
  2  3  1  0
  3  4  2  0
  3  5  1  0
  5  6  2  0
  6  7  1  0
  6 35  1  0
  7  8  2  0
  7 36  1  0
  8  9  1  0
  8 37  1  0
  9 10  2  0
  9 13  1  0
 10 11  1  0
 10  5  1  0
 11 12  2  0
 11  2  1  0
 13 14  1  0
 13 17  1  0
 14 15  2  0
 14 16  1  0
 16 38  1  0
 16 39  1  0
 16 40  1  0
 18 19  2  0
 19 20  1  0
 19 41  1  0
 20 21  2  0
 20  1  1  0
 21 22  1  0
 21 42  1  0
 22 23  2  0
 22 43  1  0
 23 24  1  0
 23 18  1  0
 24 25  1  0
 25 44  1  0
 25 45  1  0
 25 46  1  0
 26 18  1  0
 27 28  1  0
 27 47  1  0
 27 48  1  0
 27 49  1  0
 28 26  1  0
 28 50  1  0
 28 51  1  0
 29 30  1  0
 29 52  1  0
 29 53  1  0
 30 31  2  0
 30 32  2  0
 30 33  1  0
 33 54  1  0
 33 55  1  0
 33 56  1  0
M  END
>  <minimizedAffinity>  (6) 
-7.88708

>  <mol_id>  (6) 
88394

>  <source_index>  (6) 
5

>  <layer>  (6) 
L1

>  <uniprot>  (6) 
Q07343

>  <paff>  (6) 
7.1307999999999998

>  <smiles>  (6) 
CCOc1cc(ccc1OC)[C@@H](CS(=O)(=O)C)N2C(=O)c3cccc(c3C2=O)NC(=O)C

$$$$
L1:Q07343:95919
     RDKit          3D

 41 44  0  0  0  0  0  0  0  0999 V2000
   41.2055    0.1869   66.6222 C   0  0  0  0  0  0  0  0  0  0  0  0
   42.4037    0.1376   67.3298 C   0  0  0  0  0  0  0  0  0  0  0  0
   43.5964    0.6168   66.7707 C   0  0  0  0  0  0  0  0  0  0  0  0
   43.5574    1.1520   65.4736 C   0  0  0  0  0  0  0  0  0  0  0  0
   44.5512    1.6829   64.6753 N   0  0  0  0  0  0  0  0  0  0  0  0
   44.0278    2.0812   63.4694 C   0  0  0  0  0  0  0  0  0  0  0  0
   42.6693    1.8343   63.4857 C   0  0  0  0  0  0  0  0  0  0  0  0
   42.3680    1.2213   64.7416 C   0  0  0  0  0  0  0  0  0  0  0  0
   41.1838    0.7274   65.3308 C   0  0  0  0  0  0  0  0  0  0  0  0
   41.7809    2.1171   62.3716 C   0  0  0  0  0  0  0  0  0  0  0  0
   40.6819    2.8511   62.6927 N   0  0  0  0  0  0  0  0  0  0  0  0
   39.8282    3.1407   61.6935 C   0  0  0  0  0  0  0  0  0  0  0  0
   38.6875    3.8855   61.9646 C   0  0  0  0  0  0  0  0  0  0  0  0
   37.7747    4.2076   60.9594 C   0  0  0  0  0  0  0  0  0  0  0  0
   38.0063    3.7775   59.6594 C   0  0  0  0  0  0  0  0  0  0  0  0
   39.1495    3.0289   59.3745 C   0  0  0  0  0  0  0  0  0  0  0  0
   40.0659    2.7020   60.3661 C   0  0  0  0  0  0  0  0  0  0  0  0
   41.1560    1.9816   60.0467 N   0  0  0  0  0  0  0  0  0  0  0  0
   42.0078    1.7008   61.0628 C   0  0  0  0  0  0  0  0  0  0  0  0
   43.3944    0.8253   60.5414 Cl  0  0  0  0  0  0  0  0  0  0  0  0
   38.8647    0.5746   66.8021 C   0  0  0  0  0  0  0  0  0  0  0  0
   39.9888   -0.2526   67.0717 O   0  0  0  0  0  0  0  0  0  0  0  0
   45.9646    1.7867   65.0245 C   0  0  0  0  0  0  0  0  0  0  0  0
   46.8470    1.5678   63.8297 C   0  0  0  0  0  0  0  0  0  0  0  0
   47.9970    2.2176   63.6046 C   0  0  0  0  0  0  0  0  0  0  0  0
   42.4138   -0.2587   68.2826 H   0  0  0  0  0  0  0  0  0  0  0  0
   44.4816    0.5771   67.2998 H   0  0  0  0  0  0  0  0  0  0  0  0
   44.5584    2.4938   62.6863 H   0  0  0  0  0  0  0  0  0  0  0  0
   40.2960    0.7650   64.8059 H   0  0  0  0  0  0  0  0  0  0  0  0
   38.5114    4.2073   62.9292 H   0  0  0  0  0  0  0  0  0  0  0  0
   36.9328    4.7619   61.1807 H   0  0  0  0  0  0  0  0  0  0  0  0
   37.3374    4.0099   58.9087 H   0  0  0  0  0  0  0  0  0  0  0  0
   39.3175    2.7116   58.4069 H   0  0  0  0  0  0  0  0  0  0  0  0
   37.9830    0.1201   67.2033 H   0  0  0  0  0  0  0  0  0  0  0  0
   38.7549    0.6936   65.7444 H   0  0  0  0  0  0  0  0  0  0  0  0
   39.0100    1.5328   67.2556 H   0  0  0  0  0  0  0  0  0  0  0  0
   46.1942    1.0496   65.7654 H   0  0  0  0  0  0  0  0  0  0  0  0
   46.1454    2.7731   65.3977 H   0  0  0  0  0  0  0  0  0  0  0  0
   46.5469    0.8680   63.1331 H   0  0  0  0  0  0  0  0  0  0  0  0
   48.3305    2.9247   64.2782 H   0  0  0  0  0  0  0  0  0  0  0  0
   48.5492    2.0109   62.7576 H   0  0  0  0  0  0  0  0  0  0  0  0
  1  2  2  0
  2  3  1  0
  2 26  1  0
  3  4  2  0
  3 27  1  0
  4  5  1  0
  5 23  1  0
  5  6  1  0
  6  7  2  0
  6 28  1  0
  7 10  1  0
  7  8  1  0
  8  9  2  0
  8  4  1  0
  9  1  1  0
  9 29  1  0
 10 11  2  0
 11 12  1  0
 12 13  2  0
 13 14  1  0
 13 30  1  0
 14 15  2  0
 14 31  1  0
 15 16  1  0
 15 32  1  0
 16 17  2  0
 16 33  1  0
 17 18  1  0
 17 12  1  0
 18 19  2  0
 19 20  1  0
 19 10  1  0
 21 22  1  0
 21 34  1  0
 21 35  1  0
 21 36  1  0
 22  1  1  0
 23 24  1  0
 23 37  1  0
 23 38  1  0
 24 25  2  0
 24 39  1  0
 25 40  1  0
 25 41  1  0
M  END
>  <minimizedAffinity>  (7) 
-8.55059

>  <mol_id>  (7) 
95919

>  <source_index>  (7) 
6

>  <layer>  (7) 
L1

>  <uniprot>  (7) 
Q07343

>  <paff>  (7) 
7.9585999999999997

>  <smiles>  (7) 
COc1ccc2n(CC=C)cc(-c3nc4ccccc4nc3Cl)c2c1

$$$$
L1:Q07343:109885
     RDKit          3D

 43 45  0  0  0  0  0  0  0  0999 V2000
   41.7371    1.8787   62.7244 C   0  0  0  0  0  0  0  0  0  0  0  0
   42.3927    1.5952   63.9408 C   0  0  0  0  0  0  0  0  0  0  0  0
   43.7575    1.7697   63.9796 O   0  0  0  0  0  0  0  0  0  0  0  0
   41.6821    1.1489   65.0698 C   0  0  0  0  0  0  0  0  0  0  0  0
   40.3023    0.9587   64.9130 C   0  0  0  0  0  0  0  0  0  0  0  0
   39.5432    0.5505   65.9845 O   0  0  0  0  0  0  0  0  0  0  0  0
   39.6557    1.1794   63.6836 C   0  0  0  0  0  0  0  0  0  0  0  0
   40.3507    1.6705   62.5637 C   0  0  0  0  0  0  0  0  0  0  0  0
   44.1026    1.3687   64.7958 H   0  0  0  0  0  0  0  0  0  0  0  0
   38.6135    0.6237   65.6969 H   0  0  0  0  0  0  0  0  0  0  0  0
   39.6628    1.9745   61.2906 C   0  0  0  0  0  0  0  0  0  0  0  0
   39.4699    0.9830   60.3131 C   0  0  0  0  0  0  0  0  0  0  0  0
   38.8129    1.2712   59.1144 C   0  0  0  0  0  0  0  0  0  0  0  0
   38.3421    2.5558   58.8800 C   0  0  0  0  0  0  0  0  0  0  0  0
   37.7058    2.7949   57.6985 O   0  0  0  0  0  0  0  0  0  0  0  0
   38.5184    3.5599   59.8243 C   0  0  0  0  0  0  0  0  0  0  0  0
   39.1769    3.2672   61.0227 C   0  0  0  0  0  0  0  0  0  0  0  0
   37.4507    3.7313   57.6687 H   0  0  0  0  0  0  0  0  0  0  0  0
   42.3467    0.9038   66.3612 C   0  0  0  0  0  0  0  0  0  0  0  0
   42.1328   -0.2944   67.0626 C   0  0  0  0  0  0  0  0  0  0  0  0
   42.7367   -0.5159   68.3023 C   0  0  0  0  0  0  0  0  0  0  0  0
   43.5644    0.4573   68.8576 C   0  0  0  0  0  0  0  0  0  0  0  0
   43.7920    1.6492   68.1733 C   0  0  0  0  0  0  0  0  0  0  0  0
   43.1875    1.8705   66.9337 C   0  0  0  0  0  0  0  0  0  0  0  0
   43.0876    1.1980   60.9876 C   0  0  0  0  0  0  0  0  0  0  0  0
   42.4811    2.3096   61.6465 O   0  0  0  0  0  0  0  0  0  0  0  0
   38.2963    0.9421   63.6543 O   0  0  0  0  0  0  0  0  0  0  0  0
   37.5847    2.1038   64.0948 C   0  0  0  0  0  0  0  0  0  0  0  0
   39.8192    0.0270   60.4836 H   0  0  0  0  0  0  0  0  0  0  0  0
   38.6782    0.5325   58.4065 H   0  0  0  0  0  0  0  0  0  0  0  0
   38.1666    4.5129   59.6428 H   0  0  0  0  0  0  0  0  0  0  0  0
   39.3088    4.0132   61.7235 H   0  0  0  0  0  0  0  0  0  0  0  0
   41.5217   -1.0202   66.6567 H   0  0  0  0  0  0  0  0  0  0  0  0
   42.5698   -1.4005   68.8069 H   0  0  0  0  0  0  0  0  0  0  0  0
   44.0085    0.2955   69.7750 H   0  0  0  0  0  0  0  0  0  0  0  0
   44.4077    2.3692   68.5826 H   0  0  0  0  0  0  0  0  0  0  0  0
   43.3613    2.7558   66.4327 H   0  0  0  0  0  0  0  0  0  0  0  0
   43.6610    1.5468   60.1543 H   0  0  0  0  0  0  0  0  0  0  0  0
   42.3268    0.5296   60.6422 H   0  0  0  0  0  0  0  0  0  0  0  0
   43.7296    0.6844   61.6724 H   0  0  0  0  0  0  0  0  0  0  0  0
   36.5329    1.9092   64.0682 H   0  0  0  0  0  0  0  0  0  0  0  0
   37.8115    2.9269   63.4498 H   0  0  0  0  0  0  0  0  0  0  0  0
   37.8779    2.3435   65.0955 H   0  0  0  0  0  0  0  0  0  0  0  0
  1  2  2  0
  2  3  1  0
  2  4  1  0
  3  9  1  0
  4 19  1  0
  4  5  2  0
  5  6  1  0
  5  7  1  0
  6 10  1  0
  7 27  1  0
  7  8  2  0
  8 11  1  0
  8  1  1  0
 11 12  2  0
 12 13  1  0
 12 29  1  0
 13 14  2  0
 13 30  1  0
 14 15  1  0
 14 16  1  0
 15 18  1  0
 16 17  2  0
 16 31  1  0
 17 11  1  0
 17 32  1  0
 19 20  2  0
 20 21  1  0
 20 33  1  0
 21 22  2  0
 21 34  1  0
 22 23  1  0
 22 35  1  0
 23 24  2  0
 23 36  1  0
 24 19  1  0
 24 37  1  0
 25 26  1  0
 25 38  1  0
 25 39  1  0
 25 40  1  0
 26  1  1  0
 27 28  1  0
 28 41  1  0
 28 42  1  0
 28 43  1  0
M  END
>  <minimizedAffinity>  (8) 
-7.35167

>  <mol_id>  (8) 
109885

>  <source_index>  (8) 
7

>  <layer>  (8) 
L1

>  <uniprot>  (8) 
Q07343

>  <paff>  (8) 
6.2076000000000002

>  <smiles>  (8) 
COc1c(O)c(-c2ccccc2)c(O)c(OC)c1-c1ccc(O)cc1

$$$$
L1:Q07343:138941
     RDKit          3D

 30 31  0  0  0  0  0  0  0  0999 V2000
   43.9380    1.3487   65.3880 C   0  0  0  0  0  0  0  0  0  0  0  0
   45.3015    1.4329   65.3554 N   0  0  0  0  0  0  0  0  0  0  0  0
   45.9340    1.8536   64.2011 C   0  0  0  0  0  0  0  0  0  0  0  0
   47.6516    1.8899   64.3697 Cl  0  0  0  0  0  0  0  0  0  0  0  0
   45.3748    2.2350   62.9755 C   0  0  0  0  0  0  0  0  0  0  0  0
   43.9815    2.1472   63.0160 C   0  0  0  0  0  0  0  0  0  0  0  0
   43.0704    2.4183   62.0650 N   0  0  0  0  0  0  0  0  0  0  0  0
   41.8773    2.1529   62.6414 N   0  0  0  0  0  0  0  0  0  0  0  0
   41.9615    1.7299   63.9363 C   0  0  0  0  0  0  0  0  0  0  0  0
   43.3021    1.7125   64.2035 C   0  0  0  0  0  0  0  0  0  0  0  0
   43.2568    0.9344   66.5095 O   0  0  0  0  0  0  0  0  0  0  0  0
   43.2052    0.9112   68.8916 C   0  0  0  0  0  0  0  0  0  0  0  0
   43.5613    1.7241   67.6597 C   0  0  0  0  0  0  0  0  0  0  0  0
   40.6610    2.3362   61.8688 C   0  0  0  0  0  0  0  0  0  0  0  0
   40.7029    3.5770   60.9902 C   0  0  0  0  0  0  0  0  0  0  0  0
   40.6584    3.2521   59.5263 C   0  0  0  0  0  0  0  0  0  0  0  0
   39.7476    3.5192   58.7610 O   0  0  0  0  0  0  0  0  0  0  0  0
   41.7098    2.5279   59.1010 O   0  0  0  0  0  0  0  0  0  0  0  0
   41.5127    2.3667   58.1523 H   0  0  0  0  0  0  0  0  0  0  0  0
   45.9187    2.5399   62.1532 H   0  0  0  0  0  0  0  0  0  0  0  0
   41.1872    1.4795   64.5710 H   0  0  0  0  0  0  0  0  0  0  0  0
   43.4240    1.4810   69.7704 H   0  0  0  0  0  0  0  0  0  0  0  0
   43.7782    0.0076   68.9005 H   0  0  0  0  0  0  0  0  0  0  0  0
   42.1624    0.6721   68.8720 H   0  0  0  0  0  0  0  0  0  0  0  0
   44.6042    1.9631   67.6708 H   0  0  0  0  0  0  0  0  0  0  0  0
   43.0047    2.6378   67.6424 H   0  0  0  0  0  0  0  0  0  0  0  0
   39.8363    2.4236   62.5449 H   0  0  0  0  0  0  0  0  0  0  0  0
   40.5575    1.4883   61.2245 H   0  0  0  0  0  0  0  0  0  0  0  0
   41.6073    4.1109   61.1949 H   0  0  0  0  0  0  0  0  0  0  0  0
   39.8370    4.1631   61.2175 H   0  0  0  0  0  0  0  0  0  0  0  0
  1  2  2  0
  2  3  1  0
  3  4  1  0
  3  5  2  0
  5  6  1  0
  5 20  1  0
  6  7  2  0
  7  8  1  0
  8 14  1  0
  8  9  1  0
  9 10  2  0
  9 21  1  0
 10  1  1  0
 10  6  1  0
 11  1  1  0
 12 13  1  0
 12 22  1  0
 12 23  1  0
 12 24  1  0
 13 11  1  0
 13 25  1  0
 13 26  1  0
 14 15  1  0
 14 27  1  0
 14 28  1  0
 15 16  1  0
 15 29  1  0
 15 30  1  0
 16 17  2  0
 16 18  1  0
 18 19  1  0
M  END
>  <minimizedAffinity>  (9) 
-6.90899

>  <mol_id>  (9) 
138941

>  <source_index>  (9) 
9

>  <layer>  (9) 
L1

>  <uniprot>  (9) 
Q07343

>  <paff>  (9) 
7.4558999999999997

>  <smiles>  (9) 
CCOc1nc(Cl)cc2nn(CCC(=O)O)cc12

$$$$
