L1:P06239:102288
 OpenBabel09212617423D

 47 49  0  0  0  0  0  0  0  0999 V2000
   22.5223   37.3118   83.9290 N   0  0  0  0  0  0  0  0  0  0  0  0
   23.0804   36.4238   83.0161 C   0  0  0  0  0  0  0  0  0  0  0  0
   22.3781   35.4006   82.4746 N   0  0  0  0  0  0  0  0  0  0  0  0
   24.4123   36.7680   82.8183 C   0  0  0  0  0  0  0  0  0  0  0  0
   24.6946   37.8531   83.7122 C   0  0  0  0  0  0  0  0  0  0  0  0
   25.8353   38.6000   84.0669 C   0  0  0  0  0  0  0  0  0  0  0  0
   25.7106   39.6327   85.0082 C   0  0  0  0  0  0  0  0  0  0  0  0
   26.9191   40.4343   85.3973 C   0  0  0  0  0  0  0  0  0  0  0  0
   24.4492   39.8776   85.5645 C   0  0  0  0  0  0  0  0  0  0  0  0
   24.2500   40.9737   86.5757 C   0  0  0  0  0  0  0  0  0  0  0  0
   23.3371   39.1720   85.2637 N   0  0  0  0  0  0  0  0  0  0  0  0
   23.5106   38.1772   84.3670 C   0  0  0  0  0  0  0  0  0  0  0  0
   22.8393   34.7197   81.8672 H   0  0  0  0  0  0  0  0  0  0  0  0
   21.4177   35.1759   82.7208 H   0  0  0  0  0  0  0  0  0  0  0  0
   18.8751   38.1314   84.0501 C   0  0  0  0  0  0  0  0  0  0  0  0
   18.4923   37.3832   85.1628 C   0  0  0  0  0  0  0  0  0  0  0  0
   19.4331   36.6235   85.8509 C   0  0  0  0  0  0  0  0  0  0  0  0
   19.0198   35.9203   86.9164 F   0  0  0  0  0  0  0  0  0  0  0  0
   20.7705   36.5623   85.4565 C   0  0  0  0  0  0  0  0  0  0  0  0
   21.7045   35.6708   86.2268 C   0  0  0  0  0  0  0  0  0  0  0  0
   21.1623   37.3422   84.3475 C   0  0  0  0  0  0  0  0  0  0  0  0
   20.2268   38.1430   83.6413 C   0  0  0  0  0  0  0  0  0  0  0  0
   20.6263   38.9962   82.4596 C   0  0  0  0  0  0  0  0  0  0  0  0
   17.0709   38.2198   82.4839 C   0  0  0  0  0  0  0  0  0  0  0  0
   18.0136   38.8968   83.3051 O   0  0  0  0  0  0  0  0  0  0  0  0
   25.2969   36.0826   81.8864 C   0  0  0  0  0  0  0  0  0  0  0  0
   26.0877   36.8843   81.1144 N   0  0  0  0  0  0  0  0  0  0  0  0
   25.3233   34.8648   81.7319 O   0  0  0  0  0  0  0  0  0  0  0  0
   26.6897   36.4306   80.4421 H   0  0  0  0  0  0  0  0  0  0  0  0
   26.0036   37.8886   81.1041 H   0  0  0  0  0  0  0  0  0  0  0  0
   26.7510   38.3901   83.6397 H   0  0  0  0  0  0  0  0  0  0  0  0
   27.7711   40.0813   84.8547 H   0  0  0  0  0  0  0  0  0  0  0  0
   27.0954   40.3270   86.4472 H   0  0  0  0  0  0  0  0  0  0  0  0
   26.7521   41.4659   85.1673 H   0  0  0  0  0  0  0  0  0  0  0  0
   25.1804   41.4732   86.7482 H   0  0  0  0  0  0  0  0  0  0  0  0
   23.8958   40.5524   87.4933 H   0  0  0  0  0  0  0  0  0  0  0  0
   23.5321   41.6750   86.2047 H   0  0  0  0  0  0  0  0  0  0  0  0
   17.5092   37.3930   85.4765 H   0  0  0  0  0  0  0  0  0  0  0  0
   21.1674   35.1896   87.0173 H   0  0  0  0  0  0  0  0  0  0  0  0
   22.4978   36.2577   86.6403 H   0  0  0  0  0  0  0  0  0  0  0  0
   22.1130   34.9306   85.5710 H   0  0  0  0  0  0  0  0  0  0  0  0
   21.6765   38.8920   82.2833 H   0  0  0  0  0  0  0  0  0  0  0  0
   20.3994   40.0211   82.6667 H   0  0  0  0  0  0  0  0  0  0  0  0
   20.0859   38.6795   81.5921 H   0  0  0  0  0  0  0  0  0  0  0  0
   16.4700   38.9371   81.9649 H   0  0  0  0  0  0  0  0  0  0  0  0
   16.4439   37.6038   83.0940 H   0  0  0  0  0  0  0  0  0  0  0  0
   17.5894   37.6090   81.7747 H   0  0  0  0  0  0  0  0  0  0  0  0
  1  2  1  0  0  0  0
  2  3  1  0  0  0  0
  2  4  2  0  0  0  0
  3 13  1  0  0  0  0
  3 14  1  0  0  0  0
  4 26  1  0  0  0  0
  4  5  1  0  0  0  0
  5  6  2  0  0  0  0
  6  7  1  0  0  0  0
  6 31  1  0  0  0  0
  7  8  1  0  0  0  0
  7  9  2  0  0  0  0
  8 32  1  0  0  0  0
  8 33  1  0  0  0  0
  8 34  1  0  0  0  0
  9 10  1  0  0  0  0
  9 11  1  0  0  0  0
 10 35  1  0  0  0  0
 10 36  1  0  0  0  0
 10 37  1  0  0  0  0
 11 12  2  0  0  0  0
 12  1  1  0  0  0  0
 12  5  1  0  0  0  0
 15 16  2  0  0  0  0
 16 17  1  0  0  0  0
 16 38  1  0  0  0  0
 17 18  1  0  0  0  0
 17 19  2  0  0  0  0
 19 20  1  0  0  0  0
 19 21  1  0  0  0  0
 20 39  1  0  0  0  0
 20 40  1  0  0  0  0
 20 41  1  0  0  0  0
 21  1  1  0  0  0  0
 21 22  2  0  0  0  0
 22 23  1  0  0  0  0
 22 15  1  0  0  0  0
 23 42  1  0  0  0  0
 23 43  1  0  0  0  0
 23 44  1  0  0  0  0
 24 25  1  0  0  0  0
 24 45  1  0  0  0  0
 24 46  1  0  0  0  0
 24 47  1  0  0  0  0
 25 15  1  0  0  0  0
 26 27  1  0  0  0  0
 26 28  2  0  0  0  0
 27 29  1  0  0  0  0
 27 30  1  0  0  0  0
M  END
>  <minimizedAffinity>
-8.48188

$$$$
