L1:P06239:104832
     RDKit          3D

 41 43  0  0  0  0  0  0  0  0999 V2000
   -4.3371   -1.3773    1.1575 C   0  0  0  0  0  0  0  0  0  0  0  0
   -2.9730   -0.8688    0.7894 C   0  0  0  0  0  0  0  0  0  0  0  0
   -2.8337    0.4209    0.2549 C   0  0  0  0  0  0  0  0  0  0  0  0
   -1.5482    0.8906   -0.0788 C   0  0  0  0  0  0  0  0  0  0  0  0
   -1.0018    2.0978   -0.6280 C   0  0  0  0  0  0  0  0  0  0  0  0
   -1.6854    3.2897   -1.1128 C   0  0  0  0  0  0  0  0  0  0  0  0
   -2.9409    3.0993   -1.6142 N   0  0  0  0  0  0  0  0  0  0  0  0
   -1.1802    4.4085   -1.1429 O   0  0  0  0  0  0  0  0  0  0  0  0
    0.3812    1.9526   -0.6172 C   0  0  0  0  0  0  0  0  0  0  0  0
    1.3280    2.8283   -1.0300 N   0  0  0  0  0  0  0  0  0  0  0  0
    0.6898    0.6876   -0.1322 N   0  0  0  0  0  0  0  0  0  0  0  0
    1.9884    0.1308    0.0054 C   0  0  0  0  0  0  0  0  0  0  0  0
    2.3784   -0.9400   -0.8371 C   0  0  0  0  0  0  0  0  0  0  0  0
    1.4864   -1.5207   -1.9022 C   0  0  0  0  0  0  0  0  0  0  0  0
    3.6543   -1.4963   -0.6634 C   0  0  0  0  0  0  0  0  0  0  0  0
    4.5155   -0.9826    0.2982 C   0  0  0  0  0  0  0  0  0  0  0  0
    5.7371   -1.5173    0.4445 F   0  0  0  0  0  0  0  0  0  0  0  0
    4.1355    0.0771    1.1166 C   0  0  0  0  0  0  0  0  0  0  0  0
    5.0243    0.5432    2.0521 O   0  0  0  0  0  0  0  0  0  0  0  0
    2.8641    0.6423    0.9850 C   0  0  0  0  0  0  0  0  0  0  0  0
    2.3929    1.9000    2.0834 Cl  0  0  0  0  0  0  0  0  0  0  0  0
   -0.4865    0.0303    0.1802 C   0  0  0  0  0  0  0  0  0  0  0  0
   -0.5682   -1.2187    0.6883 N   0  0  0  0  0  0  0  0  0  0  0  0
   -1.8193   -1.6392    0.9798 C   0  0  0  0  0  0  0  0  0  0  0  0
   -1.9039   -3.0275    1.5540 C   0  0  0  0  0  0  0  0  0  0  0  0
   -4.3938   -1.5704    2.2334 H   0  0  0  0  0  0  0  0  0  0  0  0
   -5.1171   -0.6491    0.9108 H   0  0  0  0  0  0  0  0  0  0  0  0
   -4.5636   -2.2967    0.6083 H   0  0  0  0  0  0  0  0  0  0  0  0
   -3.7055    1.0552    0.1297 H   0  0  0  0  0  0  0  0  0  0  0  0
   -3.3470    2.1866   -1.7442 H   0  0  0  0  0  0  0  0  0  0  0  0
   -3.4199    3.9111   -1.9775 H   0  0  0  0  0  0  0  0  0  0  0  0
    2.3289    2.6799   -0.9428 H   0  0  0  0  0  0  0  0  0  0  0  0
    1.0624    3.7760   -1.3086 H   0  0  0  0  0  0  0  0  0  0  0  0
    2.0789   -2.0218   -2.6758 H   0  0  0  0  0  0  0  0  0  0  0  0
    0.8046   -2.2579   -1.4689 H   0  0  0  0  0  0  0  0  0  0  0  0
    0.9115   -0.7412   -2.4115 H   0  0  0  0  0  0  0  0  0  0  0  0
    3.9915   -2.3275   -1.2771 H   0  0  0  0  0  0  0  0  0  0  0  0
    5.8277   -0.0066    1.9934 H   0  0  0  0  0  0  0  0  0  0  0  0
   -2.3372   -3.0000    2.5584 H   0  0  0  0  0  0  0  0  0  0  0  0
   -0.9083   -3.4774    1.6317 H   0  0  0  0  0  0  0  0  0  0  0  0
   -2.5110   -3.6710    0.9100 H   0  0  0  0  0  0  0  0  0  0  0  0
  1  2  1  0
  2  3  2  0
  3  4  1  0
  4  5  1  0
  5  6  1  0
  6  7  1  0
  6  8  2  0
  5  9  2  0
  9 10  1  0
  9 11  1  0
 11 12  1  0
 12 13  2  0
 13 14  1  0
 13 15  1  0
 15 16  2  0
 16 17  1  0
 16 18  1  0
 18 19  1  0
 18 20  2  0
 20 21  1  0
 11 22  1  0
 22 23  1  0
 23 24  2  0
 24 25  1  0
 24  2  1  0
 22  4  2  0
 20 12  1  0
  1 26  1  0
  1 27  1  0
  1 28  1  0
  3 29  1  0
  7 30  1  0
  7 31  1  0
 10 32  1  0
 10 33  1  0
 14 34  1  0
 14 35  1  0
 14 36  1  0
 15 37  1  0
 19 38  1  0
 25 39  1  0
 25 40  1  0
 25 41  1  0
M  END
>  <mol_id>  (1) 
104832

>  <source_index>  (1) 
9

>  <layer>  (1) 
L1

>  <uniprot>  (1) 
P06239

>  <paff>  (1) 
7.3010000000000002

>  <smiles>  (1) 
Cc1cc2c(C(N)=O)c(N)n(-c3c(C)cc(F)c(O)c3Cl)c2nc1C

$$$$
