L1:P06239:104832
 OpenBabel09212617423D

 41 43  0  0  0  0  0  0  0  0999 V2000
   25.6128   35.4057   81.7929 C   0  0  0  0  0  0  0  0  0  0  0  0
   25.1493   36.6340   82.5218 C   0  0  0  0  0  0  0  0  0  0  0  0
   23.9587   36.5937   83.2628 C   0  0  0  0  0  0  0  0  0  0  0  0
   23.5381   37.7496   83.9496 C   0  0  0  0  0  0  0  0  0  0  0  0
   22.4263   38.1069   84.7826 C   0  0  0  0  0  0  0  0  0  0  0  0
   22.6604   39.4032   85.2284 C   0  0  0  0  0  0  0  0  0  0  0  0
   21.8972   40.1692   86.0437 N   0  0  0  0  0  0  0  0  0  0  0  0
   23.8415   39.8613   84.6576 N   0  0  0  0  0  0  0  0  0  0  0  0
   24.3700   38.8607   83.8622 C   0  0  0  0  0  0  0  0  0  0  0  0
   25.5209   38.9512   83.1606 N   0  0  0  0  0  0  0  0  0  0  0  0
   25.8818   37.8273   82.5022 C   0  0  0  0  0  0  0  0  0  0  0  0
   27.1690   37.9306   81.7298 C   0  0  0  0  0  0  0  0  0  0  0  0
   22.1555   41.0935   86.3758 H   0  0  0  0  0  0  0  0  0  0  0  0
   21.0758   39.7678   86.5024 H   0  0  0  0  0  0  0  0  0  0  0  0
   24.4170   41.1478   84.8280 C   0  0  0  0  0  0  0  0  0  0  0  0
   25.4689   41.3205   85.7619 C   0  0  0  0  0  0  0  0  0  0  0  0
   26.0353   40.1950   86.5863 C   0  0  0  0  0  0  0  0  0  0  0  0
   26.0021   42.6060   85.9375 C   0  0  0  0  0  0  0  0  0  0  0  0
   25.5190   43.6712   85.1878 C   0  0  0  0  0  0  0  0  0  0  0  0
   26.0471   44.8926   85.3582 F   0  0  0  0  0  0  0  0  0  0  0  0
   24.4941   43.4976   84.2622 C   0  0  0  0  0  0  0  0  0  0  0  0
   24.0528   44.5847   83.5509 O   0  0  0  0  0  0  0  0  0  0  0  0
   23.9255   42.2346   84.0761 C   0  0  0  0  0  0  0  0  0  0  0  0
   22.5892   42.0749   82.9810 Cl  0  0  0  0  0  0  0  0  0  0  0  0
   24.5592   45.3604   83.8560 H   0  0  0  0  0  0  0  0  0  0  0  0
   21.2526   37.3256   85.1497 C   0  0  0  0  0  0  0  0  0  0  0  0
   20.5088   36.8373   84.1143 N   0  0  0  0  0  0  0  0  0  0  0  0
   20.8827   37.1412   86.3061 O   0  0  0  0  0  0  0  0  0  0  0  0
   20.6851   37.0764   83.1517 H   0  0  0  0  0  0  0  0  0  0  0  0
   19.6776   36.3141   84.3506 H   0  0  0  0  0  0  0  0  0  0  0  0
   24.9071   34.6152   81.9415 H   0  0  0  0  0  0  0  0  0  0  0  0
   26.5683   35.1064   82.1701 H   0  0  0  0  0  0  0  0  0  0  0  0
   25.6932   35.6202   80.7477 H   0  0  0  0  0  0  0  0  0  0  0  0
   23.3981   35.7282   83.3042 H   0  0  0  0  0  0  0  0  0  0  0  0
   27.5730   38.9153   81.8399 H   0  0  0  0  0  0  0  0  0  0  0  0
   26.9804   37.7361   80.6947 H   0  0  0  0  0  0  0  0  0  0  0  0
   27.8690   37.2139   82.1056 H   0  0  0  0  0  0  0  0  0  0  0  0
   25.5301   39.2841   86.3413 H   0  0  0  0  0  0  0  0  0  0  0  0
   25.8986   40.4102   87.6255 H   0  0  0  0  0  0  0  0  0  0  0  0
   27.0796   40.0908   86.3780 H   0  0  0  0  0  0  0  0  0  0  0  0
   26.7554   42.7609   86.6256 H   0  0  0  0  0  0  0  0  0  0  0  0
  1  2  1  0  0  0  0
  1 31  1  0  0  0  0
  1 32  1  0  0  0  0
  1 33  1  0  0  0  0
  2  3  2  0  0  0  0
  3  4  1  0  0  0  0
  3 34  1  0  0  0  0
  4  5  1  0  0  0  0
  5 26  1  0  0  0  0
  5  6  2  0  0  0  0
  6  7  1  0  0  0  0
  6  8  1  0  0  0  0
  7 13  1  0  0  0  0
  7 14  1  0  0  0  0
  8 15  1  0  0  0  0
  8  9  1  0  0  0  0
  9 10  1  0  0  0  0
  9  4  2  0  0  0  0
 10 11  2  0  0  0  0
 11 12  1  0  0  0  0
 11  2  1  0  0  0  0
 12 35  1  0  0  0  0
 12 36  1  0  0  0  0
 12 37  1  0  0  0  0
 15 16  2  0  0  0  0
 16 17  1  0  0  0  0
 16 18  1  0  0  0  0
 17 38  1  0  0  0  0
 17 39  1  0  0  0  0
 17 40  1  0  0  0  0
 18 19  2  0  0  0  0
 18 41  1  0  0  0  0
 19 20  1  0  0  0  0
 19 21  1  0  0  0  0
 21 22  1  0  0  0  0
 21 23  2  0  0  0  0
 22 25  1  0  0  0  0
 23 24  1  0  0  0  0
 23 15  1  0  0  0  0
 26 27  1  0  0  0  0
 26 28  2  0  0  0  0
 27 29  1  0  0  0  0
 27 30  1  0  0  0  0
M  END
>  <minimizedAffinity>
-8.89375

$$$$
