L1:P06239:15824
 OpenBabel09212617413D

 58 62  0  0  0  0  0  0  0  0999 V2000
   25.6134   41.7784   86.8783 C   0  0  0  0  0  0  0  0  0  0  0  0
   26.3519   42.9700   86.9136 C   0  0  0  0  0  0  0  0  0  0  0  0
   27.5871   43.0614   86.2649 C   0  0  0  0  0  0  0  0  0  0  0  0
   28.0949   41.9659   85.5646 C   0  0  0  0  0  0  0  0  0  0  0  0
   27.3609   40.7819   85.5093 C   0  0  0  0  0  0  0  0  0  0  0  0
   26.1209   40.6977   86.1526 C   0  0  0  0  0  0  0  0  0  0  0  0
   25.4311   39.5486   86.0614 F   0  0  0  0  0  0  0  0  0  0  0  0
   23.0850   41.6072   89.4177 C   0  0  0  0  0  0  0  0  0  0  0  0
   24.3156   41.6174   88.9509 N   0  0  0  0  0  0  0  0  0  0  0  0
   24.3349   41.7140   87.5694 C   0  0  0  0  0  0  0  0  0  0  0  0
   23.0920   41.6844   86.9596 C   0  0  0  0  0  0  0  0  0  0  0  0
   21.8805   41.6459   88.1758 S   0  0  0  0  0  0  0  0  0  0  0  0
   22.6985   41.6428   85.5540 C   0  0  0  0  0  0  0  0  0  0  0  0
   22.9212   42.7104   84.7130 C   0  0  0  0  0  0  0  0  0  0  0  0
   22.4850   42.5418   83.4253 C   0  0  0  0  0  0  0  0  0  0  0  0
   21.8773   41.4256   82.9909 N   0  0  0  0  0  0  0  0  0  0  0  0
   21.7043   40.4331   83.8790 C   0  0  0  0  0  0  0  0  0  0  0  0
   22.1029   40.5013   85.1548 N   0  0  0  0  0  0  0  0  0  0  0  0
   21.0814   39.2522   83.4990 N   0  0  0  0  0  0  0  0  0  0  0  0
   21.6475   38.7135   82.8595 H   0  0  0  0  0  0  0  0  0  0  0  0
   19.8316   38.7958   84.0642 C   0  0  0  0  0  0  0  0  0  0  0  0
   19.7588   37.5065   84.8324 C   0  0  0  0  0  0  0  0  0  0  0  0
   19.1154   37.6093   83.4811 C   0  0  0  0  0  0  0  0  0  0  0  0
   23.2233   42.5953   91.6709 C   0  0  0  0  0  0  0  0  0  0  0  0
   22.7979   41.5562   90.7520 N   0  0  0  0  0  0  0  0  0  0  0  0
   22.3723   40.2831   91.3097 C   0  0  0  0  0  0  0  0  0  0  0  0
   27.8318   39.6616   84.7520 N   0  0  0  0  0  0  0  0  0  0  0  0
   27.5113   38.7472   85.0862 H   0  0  0  0  0  0  0  0  0  0  0  0
   27.6111   39.7212   83.0683 S   0  0  0  0  0  0  0  0  0  0  0  0
   28.9098   39.7460   82.4353 O   0  0  0  0  0  0  0  0  0  0  0  0
   26.6422   40.7664   82.8169 O   0  0  0  0  0  0  0  0  0  0  0  0
   26.8077   38.2040   82.7333 C   0  0  0  0  0  0  0  0  0  0  0  0
   27.5534   37.1532   82.2094 C   0  0  0  0  0  0  0  0  0  0  0  0
   28.8572   37.2942   81.9371 F   0  0  0  0  0  0  0  0  0  0  0  0
   26.9567   35.9230   81.9403 C   0  0  0  0  0  0  0  0  0  0  0  0
   25.5993   35.7412   82.2013 C   0  0  0  0  0  0  0  0  0  0  0  0
   24.8528   36.7955   82.7314 C   0  0  0  0  0  0  0  0  0  0  0  0
   23.1760   36.5573   83.0429 Cl  0  0  0  0  0  0  0  0  0  0  0  0
   25.4573   38.0262   83.0005 C   0  0  0  0  0  0  0  0  0  0  0  0
   24.7130   39.0164   83.5103 F   0  0  0  0  0  0  0  0  0  0  0  0
   25.9803   43.7869   87.4230 H   0  0  0  0  0  0  0  0  0  0  0  0
   28.1249   43.9413   86.3040 H   0  0  0  0  0  0  0  0  0  0  0  0
   29.0090   42.0321   85.0902 H   0  0  0  0  0  0  0  0  0  0  0  0
   23.3841   43.5764   85.0305 H   0  0  0  0  0  0  0  0  0  0  0  0
   22.6309   43.3123   82.7544 H   0  0  0  0  0  0  0  0  0  0  0  0
   19.5719   39.8135   84.2687 H   0  0  0  0  0  0  0  0  0  0  0  0
   19.1509   37.4408   85.7105 H   0  0  0  0  0  0  0  0  0  0  0  0
   20.4768   36.8516   85.2800 H   0  0  0  0  0  0  0  0  0  0  0  0
   18.0488   37.6172   83.3957 H   0  0  0  0  0  0  0  0  0  0  0  0
   19.1847   37.0584   82.5664 H   0  0  0  0  0  0  0  0  0  0  0  0
   22.8927   42.3543   92.6596 H   0  0  0  0  0  0  0  0  0  0  0  0
   22.8001   43.5313   91.3715 H   0  0  0  0  0  0  0  0  0  0  0  0
   24.2909   42.6666   91.6592 H   0  0  0  0  0  0  0  0  0  0  0  0
   22.1846   40.3973   92.3569 H   0  0  0  0  0  0  0  0  0  0  0  0
   23.1417   39.5542   91.1627 H   0  0  0  0  0  0  0  0  0  0  0  0
   21.4772   39.9606   90.8201 H   0  0  0  0  0  0  0  0  0  0  0  0
   27.5173   35.1497   81.5494 H   0  0  0  0  0  0  0  0  0  0  0  0
   25.1493   34.8337   82.0041 H   0  0  0  0  0  0  0  0  0  0  0  0
  1  2  2  0  0  0  0
  2  3  1  0  0  0  0
  2 41  1  0  0  0  0
  3  4  2  0  0  0  0
  3 42  1  0  0  0  0
  4  5  1  0  0  0  0
  4 43  1  0  0  0  0
  5 27  1  0  0  0  0
  5  6  2  0  0  0  0
  6  7  1  0  0  0  0
  6  1  1  0  0  0  0
  8  9  2  0  0  0  0
  9 10  1  0  0  0  0
 10  1  1  0  0  0  0
 10 11  2  0  0  0  0
 11 13  1  0  0  0  0
 11 12  1  0  0  0  0
 12  8  1  0  0  0  0
 13 14  2  0  0  0  0
 14 15  1  0  0  0  0
 14 44  1  0  0  0  0
 15 16  2  0  0  0  0
 15 45  1  0  0  0  0
 16 17  1  0  0  0  0
 17 19  1  0  0  0  0
 17 18  2  0  0  0  0
 18 13  1  0  0  0  0
 19 21  1  0  0  0  0
 19 20  1  0  0  0  0
 21 22  1  0  0  0  0
 21 46  1  0  0  0  0
 22 23  1  0  0  0  0
 22 47  1  0  0  0  0
 22 48  1  0  0  0  0
 23 21  1  0  0  0  0
 23 49  1  0  0  0  0
 23 50  1  0  0  0  0
 24 25  1  0  0  0  0
 24 51  1  0  0  0  0
 24 52  1  0  0  0  0
 24 53  1  0  0  0  0
 25 26  1  0  0  0  0
 25  8  1  0  0  0  0
 26 54  1  0  0  0  0
 26 55  1  0  0  0  0
 26 56  1  0  0  0  0
 27 29  1  0  0  0  0
 27 28  1  0  0  0  0
 29 30  2  0  0  0  0
 29 31  2  0  0  0  0
 29 32  1  0  0  0  0
 32 33  2  0  0  0  0
 33 34  1  0  0  0  0
 33 35  1  0  0  0  0
 35 36  2  0  0  0  0
 35 57  1  0  0  0  0
 36 37  1  0  0  0  0
 36 58  1  0  0  0  0
 37 38  1  0  0  0  0
 37 39  2  0  0  0  0
 39 40  1  0  0  0  0
 39 32  1  0  0  0  0
M  END
>  <minimizedAffinity>
-8.60385

$$$$
