L1:P06239:16292
     RDKit          3D

 58 62  0  0  0  0  0  0  0  0999 V2000
    4.7744    4.4202   -0.3789 C   0  0  0  0  0  0  0  0  0  0  0  0
    5.2754    3.1024    0.0085 C   0  0  0  0  0  0  0  0  0  0  0  0
    5.6921    2.0214    0.3299 C   0  0  0  0  0  0  0  0  0  0  0  0
    6.2000    0.7223    0.7233 C   0  0  0  0  0  0  0  0  0  0  0  0
    7.3962    0.6232    0.9721 O   0  0  0  0  0  0  0  0  0  0  0  0
    5.3062   -0.3384    0.8043 N   0  0  0  0  0  0  0  0  0  0  0  0
    5.7871   -1.6277    1.2905 C   0  0  0  0  0  0  0  0  0  0  0  0
    4.6911   -2.3924    2.0236 C   0  0  0  0  0  0  0  0  0  0  0  0
    3.4632   -2.6404    1.1429 C   0  0  0  0  0  0  0  0  0  0  0  0
    3.2845   -1.5787    0.0437 C   0  0  1  0  0  0  0  0  0  0  0  0
    1.8940   -1.4581   -0.3671 N   0  0  0  0  0  0  0  0  0  0  0  0
    1.0149   -0.7888    0.4075 N   0  0  0  0  0  0  0  0  0  0  0  0
   -0.1444   -0.8616   -0.2720 C   0  0  0  0  0  0  0  0  0  0  0  0
   -1.3349   -0.1919    0.2408 C   0  0  0  0  0  0  0  0  0  0  0  0
   -1.7590   -0.4236    1.5561 C   0  0  0  0  0  0  0  0  0  0  0  0
   -2.8999    0.2120    2.0516 C   0  0  0  0  0  0  0  0  0  0  0  0
   -3.6257    1.0763    1.2325 C   0  0  0  0  0  0  0  0  0  0  0  0
   -4.7204    1.6947    1.7927 O   0  0  0  0  0  0  0  0  0  0  0  0
   -5.8675    1.7460    1.0341 C   0  0  0  0  0  0  0  0  0  0  0  0
   -6.5113    2.9792    0.9334 C   0  0  0  0  0  0  0  0  0  0  0  0
   -7.6956    3.0862    0.2038 C   0  0  0  0  0  0  0  0  0  0  0  0
   -8.2413    1.9575   -0.4093 C   0  0  0  0  0  0  0  0  0  0  0  0
   -7.6087    0.7195   -0.2874 C   0  0  0  0  0  0  0  0  0  0  0  0
   -6.4239    0.6095    0.4415 C   0  0  0  0  0  0  0  0  0  0  0  0
   -3.1905    1.3433   -0.0679 C   0  0  0  0  0  0  0  0  0  0  0  0
   -2.0483    0.7084   -0.5627 C   0  0  0  0  0  0  0  0  0  0  0  0
   -0.0047   -1.6358   -1.4622 C   0  0  0  0  0  0  0  0  0  0  0  0
   -0.8014   -2.1053   -2.5147 C   0  0  0  0  0  0  0  0  0  0  0  0
   -2.1569   -1.9118   -2.6246 N   0  0  0  0  0  0  0  0  0  0  0  0
   -0.2147   -2.8242   -3.4959 N   0  0  0  0  0  0  0  0  0  0  0  0
    1.1048   -3.0799   -3.4120 C   0  0  0  0  0  0  0  0  0  0  0  0
    1.9573   -2.7076   -2.4442 N   0  0  0  0  0  0  0  0  0  0  0  0
    1.3345   -1.9862   -1.4966 C   0  0  0  0  0  0  0  0  0  0  0  0
    3.8835   -0.2277    0.4528 C   0  0  0  0  0  0  0  0  0  0  0  0
    3.9548    4.7325    0.2752 H   0  0  0  0  0  0  0  0  0  0  0  0
    5.5663    5.1724   -0.3139 H   0  0  0  0  0  0  0  0  0  0  0  0
    4.4017    4.4076   -1.4076 H   0  0  0  0  0  0  0  0  0  0  0  0
    6.1348   -2.1954    0.4193 H   0  0  0  0  0  0  0  0  0  0  0  0
    6.6481   -1.4833    1.9520 H   0  0  0  0  0  0  0  0  0  0  0  0
    4.3818   -1.8126    2.9030 H   0  0  0  0  0  0  0  0  0  0  0  0
    5.0772   -3.3475    2.3967 H   0  0  0  0  0  0  0  0  0  0  0  0
    3.5512   -3.6243    0.6639 H   0  0  0  0  0  0  0  0  0  0  0  0
    2.5785   -2.7051    1.7890 H   0  0  0  0  0  0  0  0  0  0  0  0
    3.8411   -1.9204   -0.8400 H   0  0  0  0  0  0  0  0  0  0  0  0
   -1.1968   -1.0955    2.2015 H   0  0  0  0  0  0  0  0  0  0  0  0
   -3.2204    0.0334    3.0745 H   0  0  0  0  0  0  0  0  0  0  0  0
   -6.0890    3.8547    1.4187 H   0  0  0  0  0  0  0  0  0  0  0  0
   -8.1955    4.0475    0.1177 H   0  0  0  0  0  0  0  0  0  0  0  0
   -9.1662    2.0412   -0.9747 H   0  0  0  0  0  0  0  0  0  0  0  0
   -8.0436   -0.1610   -0.7532 H   0  0  0  0  0  0  0  0  0  0  0  0
   -5.9474   -0.3603    0.5507 H   0  0  0  0  0  0  0  0  0  0  0  0
   -3.7239    2.0525   -0.6953 H   0  0  0  0  0  0  0  0  0  0  0  0
   -1.7128    0.9348   -1.5729 H   0  0  0  0  0  0  0  0  0  0  0  0
   -2.6079   -2.3410   -3.4199 H   0  0  0  0  0  0  0  0  0  0  0  0
   -2.7035   -1.4910   -1.8912 H   0  0  0  0  0  0  0  0  0  0  0  0
    1.5278   -3.6617   -4.2256 H   0  0  0  0  0  0  0  0  0  0  0  0
    3.7592    0.4967   -0.3597 H   0  0  0  0  0  0  0  0  0  0  0  0
    3.3746    0.1842    1.3334 H   0  0  0  0  0  0  0  0  0  0  0  0
  1  2  1  0
  2  3  3  0
  3  4  1  0
  4  5  2  0
  4  6  1  0
  6  7  1  0
  7  8  1  0
  8  9  1  0
  9 10  1  0
 10 11  1  0
 11 12  1  0
 12 13  2  0
 13 14  1  0
 14 15  2  0
 15 16  1  0
 16 17  2  0
 17 18  1  0
 18 19  1  0
 19 20  2  0
 20 21  1  0
 21 22  2  0
 22 23  1  0
 23 24  2  0
 17 25  1  0
 25 26  2  0
 13 27  1  0
 27 28  2  0
 28 29  1  0
 28 30  1  0
 30 31  2  0
 31 32  1  0
 32 33  2  0
 10 34  1  0
 34  6  1  0
 33 11  1  0
 26 14  1  0
 33 27  1  0
 24 19  1  0
  1 35  1  0
  1 36  1  0
  1 37  1  0
  7 38  1  0
  7 39  1  0
  8 40  1  0
  8 41  1  0
  9 42  1  0
  9 43  1  0
 10 44  1  6
 15 45  1  0
 16 46  1  0
 20 47  1  0
 21 48  1  0
 22 49  1  0
 23 50  1  0
 24 51  1  0
 25 52  1  0
 26 53  1  0
 29 54  1  0
 29 55  1  0
 31 56  1  0
 34 57  1  0
 34 58  1  0
M  END
>  <mol_id>  (1) 
16292

>  <source_index>  (1) 
1

>  <layer>  (1) 
L1

>  <uniprot>  (1) 
P06239

>  <paff>  (1) 
8.6839999999999993

>  <smiles>  (1) 
CC#CC(=O)N1CCC[C@H](C1)n1nc(-c2ccc(Oc3ccccc3)cc2)c2c(N)ncnc12 |r|

$$$$
