L1:P06239:16292
 OpenBabel09212617413D

 58 62  0  0  0  0  0  0  0  0999 V2000
   29.6416   38.2016   82.5569 N   0  0  0  0  0  0  0  0  0  0  0  0
   28.5576   37.3991   82.6004 N   0  0  0  0  0  0  0  0  0  0  0  0
   27.5350   38.2402   82.8408 C   0  0  0  0  0  0  0  0  0  0  0  0
   27.9749   39.5964   82.8926 C   0  0  0  0  0  0  0  0  0  0  0  0
   27.4287   40.8774   83.0466 C   0  0  0  0  0  0  0  0  0  0  0  0
   26.0886   41.1539   83.1672 N   0  0  0  0  0  0  0  0  0  0  0  0
   28.2653   41.9375   83.0582 N   0  0  0  0  0  0  0  0  0  0  0  0
   29.5853   41.7236   82.8987 C   0  0  0  0  0  0  0  0  0  0  0  0
   30.2151   40.5521   82.7173 N   0  0  0  0  0  0  0  0  0  0  0  0
   29.3475   39.5257   82.7242 C   0  0  0  0  0  0  0  0  0  0  0  0
   25.8365   42.1296   83.2337 H   0  0  0  0  0  0  0  0  0  0  0  0
   25.3794   40.4481   83.0550 H   0  0  0  0  0  0  0  0  0  0  0  0
   34.1699   37.1678   84.2629 C   0  0  0  0  0  0  0  0  0  0  0  0
   35.3130   36.7818   84.0464 O   0  0  0  0  0  0  0  0  0  0  0  0
   33.1072   36.9533   83.3939 N   0  0  0  0  0  0  0  0  0  0  0  0
   33.3309   36.1549   82.1929 C   0  0  0  0  0  0  0  0  0  0  0  0
   32.0754   35.3914   81.7877 C   0  0  0  0  0  0  0  0  0  0  0  0
   30.8851   36.3199   81.5307 C   0  0  0  0  0  0  0  0  0  0  0  0
   30.9614   37.6337   82.3278 C   0  0  2  0  0  0  0  0  0  0  0  0
   31.7501   37.4648   83.6319 C   0  0  0  0  0  0  0  0  0  0  0  0
   33.4687   39.2008   87.7696 C   0  0  0  0  0  0  0  0  0  0  0  0
   33.7107   38.4748   86.5238 C   0  0  0  0  0  0  0  0  0  0  0  0
   33.9150   37.8809   85.4986 C   0  0  0  0  0  0  0  0  0  0  0  0
   26.1835   37.7172   83.0102 C   0  0  0  0  0  0  0  0  0  0  0  0
   25.7228   36.6821   82.1857 C   0  0  0  0  0  0  0  0  0  0  0  0
   24.4288   36.1795   82.3409 C   0  0  0  0  0  0  0  0  0  0  0  0
   23.5873   36.7142   83.3160 C   0  0  0  0  0  0  0  0  0  0  0  0
   24.0492   37.7204   84.1679 C   0  0  0  0  0  0  0  0  0  0  0  0
   25.3443   38.2218   84.0134 C   0  0  0  0  0  0  0  0  0  0  0  0
   22.3369   36.1517   83.4377 O   0  0  0  0  0  0  0  0  0  0  0  0
   21.3141   36.9794   83.8408 C   0  0  0  0  0  0  0  0  0  0  0  0
   20.9062   36.8882   85.1715 C   0  0  0  0  0  0  0  0  0  0  0  0
   19.8530   37.6798   85.6303 C   0  0  0  0  0  0  0  0  0  0  0  0
   19.2002   38.5480   84.7542 C   0  0  0  0  0  0  0  0  0  0  0  0
   19.5937   38.6204   83.4172 C   0  0  0  0  0  0  0  0  0  0  0  0
   20.6470   37.8301   82.9555 C   0  0  0  0  0  0  0  0  0  0  0  0
   30.1859   42.5626   82.9183 H   0  0  0  0  0  0  0  0  0  0  0  0
   34.1176   35.4548   82.3824 H   0  0  0  0  0  0  0  0  0  0  0  0
   33.5939   36.8165   81.3941 H   0  0  0  0  0  0  0  0  0  0  0  0
   31.8179   34.7119   82.5731 H   0  0  0  0  0  0  0  0  0  0  0  0
   32.2883   34.8738   80.8757 H   0  0  0  0  0  0  0  0  0  0  0  0
   29.9873   35.8066   81.8053 H   0  0  0  0  0  0  0  0  0  0  0  0
   30.8985   36.5758   80.4918 H   0  0  0  0  0  0  0  0  0  0  0  0
   31.5026   38.3357   81.7284 H   0  0  0  0  0  0  0  0  0  0  0  0
   31.2282   36.7775   84.2644 H   0  0  0  0  0  0  0  0  0  0  0  0
   31.8362   38.4268   84.0923 H   0  0  0  0  0  0  0  0  0  0  0  0
   32.8823   40.0724   87.5663 H   0  0  0  0  0  0  0  0  0  0  0  0
   34.4039   39.4925   88.1999 H   0  0  0  0  0  0  0  0  0  0  0  0
   32.9428   38.5688   88.4543 H   0  0  0  0  0  0  0  0  0  0  0  0
   26.3426   36.2891   81.4602 H   0  0  0  0  0  0  0  0  0  0  0  0
   24.0959   35.4135   81.7348 H   0  0  0  0  0  0  0  0  0  0  0  0
   23.4355   38.0925   84.9095 H   0  0  0  0  0  0  0  0  0  0  0  0
   25.6846   38.9671   84.6408 H   0  0  0  0  0  0  0  0  0  0  0  0
   21.3822   36.2368   85.8150 H   0  0  0  0  0  0  0  0  0  0  0  0
   19.5568   37.6233   86.6173 H   0  0  0  0  0  0  0  0  0  0  0  0
   18.4251   39.1376   85.0956 H   0  0  0  0  0  0  0  0  0  0  0  0
   19.1055   39.2587   82.7697 H   0  0  0  0  0  0  0  0  0  0  0  0
   20.9320   37.8737   81.9646 H   0  0  0  0  0  0  0  0  0  0  0  0
  1  2  1  0  0  0  0
  2  3  2  0  0  0  0
  3 24  1  0  0  0  0
  3  4  1  0  0  0  0
  4  5  2  0  0  0  0
  5  6  1  0  0  0  0
  5  7  1  0  0  0  0
  6 11  1  0  0  0  0
  6 12  1  0  0  0  0
  7  8  2  0  0  0  0
  8  9  1  0  0  0  0
  8 37  1  0  0  0  0
  9 10  2  0  0  0  0
 10  1  1  0  0  0  0
 10  4  1  0  0  0  0
 13 14  2  0  0  0  0
 13 15  1  0  0  0  0
 15 16  1  0  0  0  0
 16 17  1  0  0  0  0
 16 38  1  0  0  0  0
 16 39  1  0  0  0  0
 17 18  1  0  0  0  0
 17 40  1  0  0  0  0
 17 41  1  0  0  0  0
 18 19  1  0  0  0  0
 18 42  1  0  0  0  0
 18 43  1  0  0  0  0
 19  1  1  0  0  0  0
 19 20  1  0  0  0  0
 19 44  1  6  0  0  0
 20 15  1  0  0  0  0
 20 45  1  0  0  0  0
 20 46  1  0  0  0  0
 21 22  1  0  0  0  0
 21 47  1  0  0  0  0
 21 48  1  0  0  0  0
 21 49  1  0  0  0  0
 22 23  3  0  0  0  0
 23 13  1  0  0  0  0
 24 25  2  0  0  0  0
 25 26  1  0  0  0  0
 25 50  1  0  0  0  0
 26 27  2  0  0  0  0
 26 51  1  0  0  0  0
 27 30  1  0  0  0  0
 27 28  1  0  0  0  0
 28 29  2  0  0  0  0
 28 52  1  0  0  0  0
 29 24  1  0  0  0  0
 29 53  1  0  0  0  0
 30 31  1  0  0  0  0
 31 32  2  0  0  0  0
 32 33  1  0  0  0  0
 32 54  1  0  0  0  0
 33 34  2  0  0  0  0
 33 55  1  0  0  0  0
 34 35  1  0  0  0  0
 34 56  1  0  0  0  0
 35 36  2  0  0  0  0
 35 57  1  0  0  0  0
 36 31  1  0  0  0  0
 36 58  1  0  0  0  0
M  END
>  <minimizedAffinity>
-9.57475

$$$$
