L1:P06239:16940


 42 46  0  0  0  0  0  0  0  0999 V2000
   20.9048   37.6845   84.8680 C   0  0  0  0  0  0  0  0  0  0  0  0
   19.6629   37.1487   84.4886 C   0  0  0  0  0  0  0  0  0  0  0  0
   18.4729   37.8898   84.5784 C   0  0  0  0  0  0  0  0  0  0  0  0
   18.5882   39.1979   85.0670 C   0  0  0  0  0  0  0  0  0  0  0  0
   19.8206   39.7460   85.4503 C   0  0  0  0  0  0  0  0  0  0  0  0
   20.9960   39.0046   85.3580 C   0  0  0  0  0  0  0  0  0  0  0  0
   17.2462   37.3569   84.2022 N   0  0  0  0  0  0  0  0  0  0  0  0
   16.4008   36.6695   85.1818 C   0  0  0  0  0  0  0  0  0  0  0  0
   14.9304   36.7844   84.7879 C   0  0  0  0  0  0  0  0  0  0  0  0
   14.6716   36.1297   83.4193 C   0  0  0  0  0  0  0  0  0  0  0  0
   15.8735   36.2826   82.4668 C   0  0  0  0  0  0  0  0  0  0  0  0
   16.7664   37.4668   82.8216 C   0  0  0  0  0  0  0  0  0  0  0  0
   13.3887   36.4960   82.7877 N   0  0  0  0  0  0  0  0  0  0  0  0
   12.2170   35.7068   83.2097 C   0  0  0  0  0  0  0  0  0  0  0  0
   11.0178   35.7571   82.2221 C   0  0  0  0  0  0  0  0  0  0  0  0
   10.9043   36.9906   81.4247 N   0  0  0  0  0  0  0  0  0  0  0  0
   10.5489   38.1287   82.2744 C   0  0  0  0  0  0  0  0  0  0  0  0
   12.1782   37.2423   80.7141 C   0  0  0  0  0  0  0  0  0  0  0  0
   13.4517   36.5941   81.3239 C   0  0  0  0  0  0  0  0  0  0  0  0
   22.6823   36.8350   83.5130 C   0  0  0  0  0  0  0  0  0  0  0  0
   22.1055   37.0094   84.8001 O   0  0  0  0  0  0  0  0  0  0  0  0
   22.2570   39.4963   85.7253 N   0  0  0  0  0  0  0  0  0  0  0  0
   22.7564   38.9048   86.3779 H   0  0  0  0  0  0  0  0  0  0  0  0
   23.0085   40.6145   85.3986 C   0  0  0  0  0  0  0  0  0  0  0  0
   22.7402   41.8229   85.9111 N   0  0  0  0  0  0  0  0  0  0  0  0
   23.5343   42.8407   85.5268 C   0  0  0  0  0  0  0  0  0  0  0  0
   24.5830   42.7028   84.6502 C   0  0  0  0  0  0  0  0  0  0  0  0
   25.5447   44.0644   84.2326 Cl  0  0  0  0  0  0  0  0  0  0  0  0
   24.7990   41.4249   84.1538 C   0  0  0  0  0  0  0  0  0  0  0  0
   24.0166   40.3911   84.5387 N   0  0  0  0  0  0  0  0  0  0  0  0
   25.8685   41.1969   83.2598 N   0  0  0  0  0  0  0  0  0  0  0  0
   25.8939   41.8913   82.5025 H   0  0  0  0  0  0  0  0  0  0  0  0
   26.7250   40.0926   83.0866 C   0  0  0  0  0  0  0  0  0  0  0  0
   26.2565   38.8649   82.5940 C   0  0  0  0  0  0  0  0  0  0  0  0
   27.1086   37.7714   82.4226 C   0  0  0  0  0  0  0  0  0  0  0  0
   28.4541   37.8836   82.7434 C   0  0  0  0  0  0  0  0  0  0  0  0
   28.9439   39.0889   83.2387 C   0  0  0  0  0  0  0  0  0  0  0  0
   28.0941   40.1975   83.4179 C   0  0  0  0  0  0  0  0  0  0  0  0
   28.7762   41.7100   84.0445 P   0  0  0  0  0  0  0  0  0  0  0  0
   30.5607   41.5412   84.1720 C   0  0  0  0  0  0  0  0  0  0  0  0
   28.2621   41.9331   85.7522 C   0  0  0  0  0  0  0  0  0  0  0  0
   28.4367   42.9497   83.2483 O   0  0  0  0  0  0  0  0  0  0  0  0
 20 21  1  0  0  0
 21  1  1  0  0  0
  1  2  2  0  0  0
  2  3  1  0  0  0
  3  7  1  0  0  0
  7  8  1  0  0  0
  8  9  1  0  0  0
  9 10  1  0  0  0
 10 13  1  0  0  0
 13 14  1  0  0  0
 14 15  1  0  0  0
 15 16  1  0  0  0
 16 17  1  0  0  0
 16 18  1  0  0  0
 18 19  1  0  0  0
 10 11  1  0  0  0
 11 12  1  0  0  0
  3  4  2  0  0  0
  4  5  1  0  0  0
  5  6  2  0  0  0
  6 22  1  0  0  0
 22 24  1  0  0  0
 24 25  2  0  0  0
 25 26  1  0  0  0
 26 27  2  0  0  0
 27 28  1  0  0  0
 27 29  1  0  0  0
 29 31  1  0  0  0
 31 33  1  0  0  0
 33 34  2  0  0  0
 34 35  1  0  0  0
 35 36  2  0  0  0
 36 37  1  0  0  0
 37 38  2  0  0  0
 38 39  1  0  0  0
 39 40  1  0  0  0
 39 41  1  0  0  0
 39 42  2  0  0  0
 29 30  2  0  0  0
  6  1  1  0  0  0
 30 24  1  0  0  0
 12  7  1  0  0  0
 38 33  1  0  0  0
 19 13  1  0  0  0
 22 23  1  0  0  0
 31 32  1  0  0  0
M  END
> <minimizedAffinity>
-8.65182

$$$$
