L1:P06239:16940
     RDKit          3D

 79 83  0  0  0  0  0  0  0  0999 V2000
   -0.1249    2.9758   -0.4629 C   0  0  0  0  0  0  0  0  0  0  0  0
   -0.8443    1.7788   -0.1997 O   0  0  0  0  0  0  0  0  0  0  0  0
   -0.1076    0.6518    0.0991 C   0  0  0  0  0  0  0  0  0  0  0  0
    1.2951    0.6051    0.1583 C   0  0  0  0  0  0  0  0  0  0  0  0
    1.9890   -0.5771    0.4654 C   0  0  0  0  0  0  0  0  0  0  0  0
    3.3765   -0.6200    0.5230 N   0  0  0  0  0  0  0  0  0  0  0  0
    4.0926   -1.8791    0.3022 C   0  0  0  0  0  0  0  0  0  0  0  0
    5.4869   -1.6063   -0.2563 C   0  0  0  0  0  0  0  0  0  0  0  0
    6.3232   -0.7698    0.7284 C   0  0  0  0  0  0  0  0  0  0  0  0
    7.5312   -0.1510    0.1483 N   0  0  0  0  0  0  0  0  0  0  0  0
    7.2951    0.9611   -0.7905 C   0  0  0  0  0  0  0  0  0  0  0  0
    8.4881    1.2671   -1.7386 C   0  0  0  0  0  0  0  0  0  0  0  0
    9.8222    0.9432   -1.2041 N   0  0  0  0  0  0  0  0  0  0  0  0
   10.1718    1.8388   -0.0999 C   0  0  0  0  0  0  0  0  0  0  0  0
    9.8522   -0.4700   -0.7647 C   0  0  0  0  0  0  0  0  0  0  0  0
    8.4832   -1.1164   -0.4157 C   0  0  0  0  0  0  0  0  0  0  0  0
    5.4582    0.2311    1.5191 C   0  0  0  0  0  0  0  0  0  0  0  0
    4.1584    0.5871    0.8054 C   0  0  0  0  0  0  0  0  0  0  0  0
    1.2069   -1.7137    0.7099 C   0  0  0  0  0  0  0  0  0  0  0  0
   -0.1938   -1.6822    0.6553 C   0  0  0  0  0  0  0  0  0  0  0  0
   -0.8742   -0.5060    0.3498 C   0  0  0  0  0  0  0  0  0  0  0  0
   -2.2717   -0.4111    0.2802 N   0  0  0  0  0  0  0  0  0  0  0  0
   -3.3259   -1.2951    0.4507 C   0  0  0  0  0  0  0  0  0  0  0  0
   -3.1270   -2.5855    0.7510 N   0  0  0  0  0  0  0  0  0  0  0  0
   -4.2223   -3.3561    0.8953 C   0  0  0  0  0  0  0  0  0  0  0  0
   -5.5073   -2.8927    0.7496 C   0  0  0  0  0  0  0  0  0  0  0  0
   -6.8392   -3.9567    0.9668 Cl  0  0  0  0  0  0  0  0  0  0  0  0
   -5.6385   -1.5481    0.4321 C   0  0  0  0  0  0  0  0  0  0  0  0
   -6.9276   -0.9908    0.2817 N   0  0  0  0  0  0  0  0  0  0  0  0
   -7.3792    0.3429    0.3004 C   0  0  0  0  0  0  0  0  0  0  0  0
   -6.6198    1.3716    0.8787 C   0  0  0  0  0  0  0  0  0  0  0  0
   -7.0699    2.6938    0.8951 C   0  0  0  0  0  0  0  0  0  0  0  0
   -8.2965    3.0159    0.3314 C   0  0  0  0  0  0  0  0  0  0  0  0
   -9.0721    2.0136   -0.2446 C   0  0  0  0  0  0  0  0  0  0  0  0
   -8.6298    0.6767   -0.2651 C   0  0  0  0  0  0  0  0  0  0  0  0
   -9.6570   -0.5561   -1.0204 P   0  0  0  0  0  5  0  0  0  0  0  0
   -9.9475   -0.1080   -2.7362 C   0  0  0  0  0  0  0  0  0  0  0  0
  -11.3000   -0.4888   -0.2949 C   0  0  0  0  0  0  0  0  0  0  0  0
   -9.1287   -1.9708   -0.9451 O   0  0  0  0  0  0  0  0  0  0  0  0
   -4.5484   -0.7595    0.2945 N   0  0  0  0  0  0  0  0  0  0  0  0
   -0.8545    3.7639   -0.6727 H   0  0  0  0  0  0  0  0  0  0  0  0
    0.4576    3.2874    0.4103 H   0  0  0  0  0  0  0  0  0  0  0  0
    0.5105    2.8682   -1.3481 H   0  0  0  0  0  0  0  0  0  0  0  0
    1.8703    1.4954   -0.0631 H   0  0  0  0  0  0  0  0  0  0  0  0
    4.1598   -2.4401    1.2422 H   0  0  0  0  0  0  0  0  0  0  0  0
    3.5652   -2.5053   -0.4280 H   0  0  0  0  0  0  0  0  0  0  0  0
    5.3816   -1.0989   -1.2222 H   0  0  0  0  0  0  0  0  0  0  0  0
    5.9906   -2.5593   -0.4580 H   0  0  0  0  0  0  0  0  0  0  0  0
    6.6968   -1.4698    1.4904 H   0  0  0  0  0  0  0  0  0  0  0  0
    7.0881    1.8631   -0.2028 H   0  0  0  0  0  0  0  0  0  0  0  0
    6.4201    0.7827   -1.4239 H   0  0  0  0  0  0  0  0  0  0  0  0
    8.4474    2.3175   -2.0531 H   0  0  0  0  0  0  0  0  0  0  0  0
    8.3536    0.6840   -2.6601 H   0  0  0  0  0  0  0  0  0  0  0  0
   11.2009    1.6511    0.2270 H   0  0  0  0  0  0  0  0  0  0  0  0
    9.5151    1.7328    0.7700 H   0  0  0  0  0  0  0  0  0  0  0  0
   10.1391    2.8836   -0.4291 H   0  0  0  0  0  0  0  0  0  0  0  0
   10.2976   -1.0579   -1.5772 H   0  0  0  0  0  0  0  0  0  0  0  0
   10.5337   -0.5902    0.0878 H   0  0  0  0  0  0  0  0  0  0  0  0
    8.6682   -1.9318    0.2940 H   0  0  0  0  0  0  0  0  0  0  0  0
    8.0658   -1.5685   -1.3249 H   0  0  0  0  0  0  0  0  0  0  0  0
    5.2064   -0.2239    2.4879 H   0  0  0  0  0  0  0  0  0  0  0  0
    6.0162    1.1417    1.7673 H   0  0  0  0  0  0  0  0  0  0  0  0
    3.6032    1.2653    1.4652 H   0  0  0  0  0  0  0  0  0  0  0  0
    4.3610    1.1239   -0.1281 H   0  0  0  0  0  0  0  0  0  0  0  0
    1.6723   -2.6585    0.9767 H   0  0  0  0  0  0  0  0  0  0  0  0
   -0.7317   -2.6013    0.8634 H   0  0  0  0  0  0  0  0  0  0  0  0
   -2.6112    0.5129    0.0433 H   0  0  0  0  0  0  0  0  0  0  0  0
   -4.0210   -4.3941    1.1423 H   0  0  0  0  0  0  0  0  0  0  0  0
   -7.6053   -1.6756   -0.0762 H   0  0  0  0  0  0  0  0  0  0  0  0
   -5.6622    1.1537    1.3442 H   0  0  0  0  0  0  0  0  0  0  0  0
   -6.4564    3.4657    1.3524 H   0  0  0  0  0  0  0  0  0  0  0  0
   -8.6474    4.0445    0.3422 H   0  0  0  0  0  0  0  0  0  0  0  0
  -10.0299    2.2831   -0.6830 H   0  0  0  0  0  0  0  0  0  0  0  0
  -10.4251    0.8727   -2.8115 H   0  0  0  0  0  0  0  0  0  0  0  0
   -9.0015   -0.0781   -3.2838 H   0  0  0  0  0  0  0  0  0  0  0  0
  -10.6007   -0.8444   -3.2128 H   0  0  0  0  0  0  0  0  0  0  0  0
  -11.9482   -1.2355   -0.7625 H   0  0  0  0  0  0  0  0  0  0  0  0
  -11.2480   -0.6983    0.7771 H   0  0  0  0  0  0  0  0  0  0  0  0
  -11.7556    0.4948   -0.4367 H   0  0  0  0  0  0  0  0  0  0  0  0
  1  2  1  0
  2  3  1  0
  3  4  2  0
  4  5  1  0
  5  6  1  0
  6  7  1  0
  7  8  1  0
  8  9  1  0
  9 10  1  0
 10 11  1  0
 11 12  1  0
 12 13  1  0
 13 14  1  0
 13 15  1  0
 15 16  1  0
  9 17  1  0
 17 18  1  0
  5 19  2  0
 19 20  1  0
 20 21  2  0
 21 22  1  0
 22 23  1  0
 23 24  2  0
 24 25  1  0
 25 26  2  0
 26 27  1  0
 26 28  1  0
 28 29  1  0
 29 30  1  0
 30 31  2  0
 31 32  1  0
 32 33  2  0
 33 34  1  0
 34 35  2  0
 35 36  1  0
 36 37  1  0
 36 38  1  0
 36 39  2  0
 28 40  2  0
 21  3  1  0
 40 23  1  0
 18  6  1  0
 35 30  1  0
 16 10  1  0
  1 41  1  0
  1 42  1  0
  1 43  1  0
  4 44  1  0
  7 45  1  0
  7 46  1  0
  8 47  1  0
  8 48  1  0
  9 49  1  0
 11 50  1  0
 11 51  1  0
 12 52  1  0
 12 53  1  0
 14 54  1  0
 14 55  1  0
 14 56  1  0
 15 57  1  0
 15 58  1  0
 16 59  1  0
 16 60  1  0
 17 61  1  0
 17 62  1  0
 18 63  1  0
 18 64  1  0
 19 65  1  0
 20 66  1  0
 22 67  1  0
 25 68  1  0
 29 69  1  0
 31 70  1  0
 32 71  1  0
 33 72  1  0
 34 73  1  0
 37 74  1  0
 37 75  1  0
 37 76  1  0
 38 77  1  0
 38 78  1  0
 38 79  1  0
M  END
>  <mol_id>  (1) 
16940

>  <source_index>  (1) 
2

>  <layer>  (1) 
L1

>  <uniprot>  (1) 
P06239

>  <paff>  (1) 
6.2907000000000002

>  <smiles>  (1) 
CN1CCN(CC1)C2CCN(CC2)c3ccc(c(c3)OC)Nc4ncc(c(n4)Nc5ccccc5P(=O)(C)C)Cl

$$$$
