L1:P06239:16940
 OpenBabel09212617413D

 79 83  0  0  0  0  0  0  0  0999 V2000
   20.9048   37.6845   84.8680 C   0  0  0  0  0  0  0  0  0  0  0  0
   19.6629   37.1487   84.4886 C   0  0  0  0  0  0  0  0  0  0  0  0
   18.4729   37.8898   84.5784 C   0  0  0  0  0  0  0  0  0  0  0  0
   18.5882   39.1979   85.0670 C   0  0  0  0  0  0  0  0  0  0  0  0
   19.8206   39.7460   85.4503 C   0  0  0  0  0  0  0  0  0  0  0  0
   20.9960   39.0046   85.3580 C   0  0  0  0  0  0  0  0  0  0  0  0
   17.2462   37.3569   84.2022 N   0  0  0  0  0  0  0  0  0  0  0  0
   16.4008   36.6695   85.1818 C   0  0  0  0  0  0  0  0  0  0  0  0
   14.9304   36.7844   84.7879 C   0  0  0  0  0  0  0  0  0  0  0  0
   14.6716   36.1297   83.4193 C   0  0  0  0  0  0  0  0  0  0  0  0
   15.8735   36.2826   82.4668 C   0  0  0  0  0  0  0  0  0  0  0  0
   16.7664   37.4668   82.8216 C   0  0  0  0  0  0  0  0  0  0  0  0
   13.3887   36.4960   82.7877 N   0  0  0  0  0  0  0  0  0  0  0  0
   12.2170   35.7068   83.2097 C   0  0  0  0  0  0  0  0  0  0  0  0
   11.0178   35.7571   82.2221 C   0  0  0  0  0  0  0  0  0  0  0  0
   10.9043   36.9906   81.4247 N   0  0  0  0  0  0  0  0  0  0  0  0
   10.5489   38.1287   82.2744 C   0  0  0  0  0  0  0  0  0  0  0  0
   12.1782   37.2423   80.7141 C   0  0  0  0  0  0  0  0  0  0  0  0
   13.4517   36.5941   81.3239 C   0  0  0  0  0  0  0  0  0  0  0  0
   22.6823   36.8350   83.5130 C   0  0  0  0  0  0  0  0  0  0  0  0
   22.1055   37.0094   84.8001 O   0  0  0  0  0  0  0  0  0  0  0  0
   22.2570   39.4963   85.7253 N   0  0  0  0  0  0  0  0  0  0  0  0
   22.7564   38.9048   86.3779 H   0  0  0  0  0  0  0  0  0  0  0  0
   23.0085   40.6145   85.3986 C   0  0  0  0  0  0  0  0  0  0  0  0
   22.7402   41.8229   85.9111 N   0  0  0  0  0  0  0  0  0  0  0  0
   23.5343   42.8407   85.5268 C   0  0  0  0  0  0  0  0  0  0  0  0
   24.5830   42.7028   84.6502 C   0  0  0  0  0  0  0  0  0  0  0  0
   25.5447   44.0644   84.2326 Cl  0  0  0  0  0  0  0  0  0  0  0  0
   24.7990   41.4249   84.1538 C   0  0  0  0  0  0  0  0  0  0  0  0
   24.0166   40.3911   84.5387 N   0  0  0  0  0  0  0  0  0  0  0  0
   25.8685   41.1969   83.2598 N   0  0  0  0  0  0  0  0  0  0  0  0
   25.8939   41.8913   82.5025 H   0  0  0  0  0  0  0  0  0  0  0  0
   26.7250   40.0926   83.0866 C   0  0  0  0  0  0  0  0  0  0  0  0
   26.2565   38.8649   82.5940 C   0  0  0  0  0  0  0  0  0  0  0  0
   27.1086   37.7714   82.4226 C   0  0  0  0  0  0  0  0  0  0  0  0
   28.4541   37.8836   82.7434 C   0  0  0  0  0  0  0  0  0  0  0  0
   28.9439   39.0889   83.2387 C   0  0  0  0  0  0  0  0  0  0  0  0
   28.0941   40.1975   83.4179 C   0  0  0  0  0  0  0  0  0  0  0  0
   28.7762   41.7100   84.0445 P   0  0  0  0  0  0  0  0  0  0  0  0
   30.5607   41.5412   84.1720 C   0  0  0  0  0  0  0  0  0  0  0  0
   28.2621   41.9331   85.7522 C   0  0  0  0  0  0  0  0  0  0  0  0
   28.4367   42.9497   83.2483 O   0  0  0  0  0  0  0  0  0  0  0  0
   19.6235   36.1807   84.1329 H   0  0  0  0  0  0  0  0  0  0  0  0
   17.7379   39.7772   85.1474 H   0  0  0  0  0  0  0  0  0  0  0  0
   19.8573   40.7139   85.8064 H   0  0  0  0  0  0  0  0  0  0  0  0
   16.5438   37.1138   86.1446 H   0  0  0  0  0  0  0  0  0  0  0  0
   16.6730   35.6351   85.2107 H   0  0  0  0  0  0  0  0  0  0  0  0
   14.6619   37.8189   84.7370 H   0  0  0  0  0  0  0  0  0  0  0  0
   14.3405   36.2790   85.5238 H   0  0  0  0  0  0  0  0  0  0  0  0
   14.5650   35.0862   83.6308 H   0  0  0  0  0  0  0  0  0  0  0  0
   15.5050   36.4193   81.4716 H   0  0  0  0  0  0  0  0  0  0  0  0
   16.4666   35.3963   82.5542 H   0  0  0  0  0  0  0  0  0  0  0  0
   16.2074   38.3729   82.7149 H   0  0  0  0  0  0  0  0  0  0  0  0
   17.6098   37.4719   82.1631 H   0  0  0  0  0  0  0  0  0  0  0  0
   11.8862   36.0794   84.1566 H   0  0  0  0  0  0  0  0  0  0  0  0
   12.5356   34.6862   83.2505 H   0  0  0  0  0  0  0  0  0  0  0  0
   10.1178   35.6480   82.7905 H   0  0  0  0  0  0  0  0  0  0  0  0
   11.1825   34.9671   81.5194 H   0  0  0  0  0  0  0  0  0  0  0  0
    9.6266   37.9243   82.7769 H   0  0  0  0  0  0  0  0  0  0  0  0
   10.4392   39.0047   81.6698 H   0  0  0  0  0  0  0  0  0  0  0  0
   11.3212   38.2889   82.9975 H   0  0  0  0  0  0  0  0  0  0  0  0
   12.3326   38.3008   80.6885 H   0  0  0  0  0  0  0  0  0  0  0  0
   12.0611   36.7870   79.7529 H   0  0  0  0  0  0  0  0  0  0  0  0
   14.3005   37.1881   81.0563 H   0  0  0  0  0  0  0  0  0  0  0  0
   13.5278   35.6002   80.9351 H   0  0  0  0  0  0  0  0  0  0  0  0
   23.6041   36.2995   83.6048 H   0  0  0  0  0  0  0  0  0  0  0  0
   22.8683   37.7924   83.0728 H   0  0  0  0  0  0  0  0  0  0  0  0
   22.0088   36.2818   82.8923 H   0  0  0  0  0  0  0  0  0  0  0  0
   23.3439   43.7785   85.9133 H   0  0  0  0  0  0  0  0  0  0  0  0
   25.2579   38.7676   82.3524 H   0  0  0  0  0  0  0  0  0  0  0  0
   26.7376   36.8803   82.0575 H   0  0  0  0  0  0  0  0  0  0  0  0
   29.0874   37.0788   82.6156 H   0  0  0  0  0  0  0  0  0  0  0  0
   29.9444   39.1712   83.4781 H   0  0  0  0  0  0  0  0  0  0  0  0
   30.7965   40.6630   84.7360 H   0  0  0  0  0  0  0  0  0  0  0  0
   30.9660   42.4006   84.6640 H   0  0  0  0  0  0  0  0  0  0  0  0
   30.9822   41.4595   83.1919 H   0  0  0  0  0  0  0  0  0  0  0  0
   28.5028   41.0553   86.3147 H   0  0  0  0  0  0  0  0  0  0  0  0
   27.2060   42.1010   85.7877 H   0  0  0  0  0  0  0  0  0  0  0  0
   28.7715   42.7758   86.1708 H   0  0  0  0  0  0  0  0  0  0  0  0
  1  2  2  0  0  0  0
  2  3  1  0  0  0  0
  2 43  1  0  0  0  0
  3  7  1  0  0  0  0
  3  4  2  0  0  0  0
  4  5  1  0  0  0  0
  4 44  1  0  0  0  0
  5  6  2  0  0  0  0
  5 45  1  0  0  0  0
  6 22  1  0  0  0  0
  6  1  1  0  0  0  0
  7  8  1  0  0  0  0
  8  9  1  0  0  0  0
  8 46  1  0  0  0  0
  8 47  1  0  0  0  0
  9 10  1  0  0  0  0
  9 48  1  0  0  0  0
  9 49  1  0  0  0  0
 10 13  1  0  0  0  0
 10 11  1  0  0  0  0
 10 50  1  0  0  0  0
 11 12  1  0  0  0  0
 11 51  1  0  0  0  0
 11 52  1  0  0  0  0
 12  7  1  0  0  0  0
 12 53  1  0  0  0  0
 12 54  1  0  0  0  0
 13 14  1  0  0  0  0
 14 15  1  0  0  0  0
 14 55  1  0  0  0  0
 14 56  1  0  0  0  0
 15 16  1  0  0  0  0
 15 57  1  0  0  0  0
 15 58  1  0  0  0  0
 16 17  1  0  0  0  0
 16 18  1  0  0  0  0
 17 59  1  0  0  0  0
 17 60  1  0  0  0  0
 17 61  1  0  0  0  0
 18 19  1  0  0  0  0
 18 62  1  0  0  0  0
 18 63  1  0  0  0  0
 19 13  1  0  0  0  0
 19 64  1  0  0  0  0
 19 65  1  0  0  0  0
 20 21  1  0  0  0  0
 20 66  1  0  0  0  0
 20 67  1  0  0  0  0
 20 68  1  0  0  0  0
 21  1  1  0  0  0  0
 22 24  1  0  0  0  0
 22 23  1  0  0  0  0
 24 25  2  0  0  0  0
 25 26  1  0  0  0  0
 26 27  2  0  0  0  0
 26 69  1  0  0  0  0
 27 28  1  0  0  0  0
 27 29  1  0  0  0  0
 29 31  1  0  0  0  0
 29 30  2  0  0  0  0
 30 24  1  0  0  0  0
 31 33  1  0  0  0  0
 31 32  1  0  0  0  0
 33 34  2  0  0  0  0
 34 35  1  0  0  0  0
 34 70  1  0  0  0  0
 35 36  2  0  0  0  0
 35 71  1  0  0  0  0
 36 37  1  0  0  0  0
 36 72  1  0  0  0  0
 37 38  2  0  0  0  0
 37 73  1  0  0  0  0
 38 39  1  0  0  0  0
 38 33  1  0  0  0  0
 39 40  1  0  0  0  0
 39 41  1  0  0  0  0
 39 42  2  0  0  0  0
 40 74  1  0  0  0  0
 40 75  1  0  0  0  0
 40 76  1  0  0  0  0
 41 77  1  0  0  0  0
 41 78  1  0  0  0  0
 41 79  1  0  0  0  0
M  END
>  <minimizedAffinity>
-8.65182

$$$$
