L1:P06239:18189


 29 31  0  0  0  0  0  0  0  0999 V2000
   27.1599   37.8017   81.7786 C   0  0  0  0  0  0  0  0  0  0  0  0
   25.8877   37.7927   82.5696 C   0  0  0  0  0  0  0  0  0  0  0  0
   25.1342   36.6746   82.5048 N   0  0  0  0  0  0  0  0  0  0  0  0
   23.9687   36.6388   83.1857 C   0  0  0  0  0  0  0  0  0  0  0  0
   23.5682   37.7359   83.9457 C   0  0  0  0  0  0  0  0  0  0  0  0
   22.4607   38.0628   84.7895 C   0  0  0  0  0  0  0  0  0  0  0  0
   22.6298   39.3887   85.1701 C   0  0  0  0  0  0  0  0  0  0  0  0
   21.7974   40.1781   85.8881 N   0  0  0  0  0  0  0  0  0  0  0  0
   23.8388   39.8485   84.6576 N   0  0  0  0  0  0  0  0  0  0  0  0
   24.4066   38.8411   83.8972 C   0  0  0  0  0  0  0  0  0  0  0  0
   25.5807   38.9151   83.2385 N   0  0  0  0  0  0  0  0  0  0  0  0
   20.8804   39.8346   86.1830 H   0  0  0  0  0  0  0  0  0  0  0  0
   21.9625   41.1649   86.0705 H   0  0  0  0  0  0  0  0  0  0  0  0
   24.4112   41.1325   84.8756 C   0  0  0  0  0  0  0  0  0  0  0  0
   23.9725   42.2350   84.1004 C   0  0  0  0  0  0  0  0  0  0  0  0
   22.8967   42.1214   83.0497 C   0  0  0  0  0  0  0  0  0  0  0  0
   24.5804   43.4800   84.3231 C   0  0  0  0  0  0  0  0  0  0  0  0
   24.1936   44.5505   83.5638 O   0  0  0  0  0  0  0  0  0  0  0  0
   25.5530   43.6490   85.3023 C   0  0  0  0  0  0  0  0  0  0  0  0
   25.9504   42.5558   86.0618 C   0  0  0  0  0  0  0  0  0  0  0  0
   26.8887   42.7453   87.0019 F   0  0  0  0  0  0  0  0  0  0  0  0
   25.4159   41.2796   85.8598 C   0  0  0  0  0  0  0  0  0  0  0  0
   25.9447   40.1444   86.6927 C   0  0  0  0  0  0  0  0  0  0  0  0
   24.7271   45.3252   83.8057 H   0  0  0  0  0  0  0  0  0  0  0  0
   21.3258   37.2393   85.1795 C   0  0  0  0  0  0  0  0  0  0  0  0
   20.5613   36.7510   84.1590 N   0  0  0  0  0  0  0  0  0  0  0  0
   21.0650   36.9368   86.3401 O   0  0  0  0  0  0  0  0  0  0  0  0
   19.7824   36.1587   84.4135 H   0  0  0  0  0  0  0  0  0  0  0  0
   20.8098   36.8343   83.1859 H   0  0  0  0  0  0  0  0  0  0  0  0
  1  2  1  0  0  0
  2  3  2  0  0  0
  3  4  1  0  0  0
  4  5  2  0  0  0
  5  6  1  0  0  0
  6 25  1  0  0  0
 25 26  1  0  0  0
 25 27  2  0  0  0
  6  7  2  0  0  0
  7  8  1  0  0  0
  7  9  1  0  0  0
  9 14  1  0  0  0
 14 15  2  0  0  0
 15 16  1  0  0  0
 15 17  1  0  0  0
 17 18  1  0  0  0
 17 19  2  0  0  0
 19 20  1  0  0  0
 20 21  1  0  0  0
 20 22  2  0  0  0
 22 23  1  0  0  0
  9 10  1  0  0  0
 10 11  2  0  0  0
 11  2  1  0  0  0
 10  5  1  0  0  0
 22 14  1  0  0  0
 26 28  1  0  0  0
 26 29  1  0  0  0
  8 12  1  0  0  0
  8 13  1  0  0  0
 18 24  1  0  0  0
M  END
> <minimizedAffinity>
-7.90557

$$$$
