L1:P06239:18189
     RDKit          3D

 40 42  0  0  0  0  0  0  0  0999 V2000
    2.2095   -3.0711   -2.3201 C   0  0  0  0  0  0  0  0  0  0  0  0
    2.1913   -1.8770   -1.4156 C   0  0  0  0  0  0  0  0  0  0  0  0
    3.3847   -1.4185   -0.9826 N   0  0  0  0  0  0  0  0  0  0  0  0
    3.4065   -0.3583   -0.1466 C   0  0  0  0  0  0  0  0  0  0  0  0
    2.2150    0.2489    0.2448 C   0  0  0  0  0  0  0  0  0  0  0  0
    1.8383    1.3584    1.0648 C   0  0  0  0  0  0  0  0  0  0  0  0
    2.6832    2.3093    1.7721 C   0  0  0  0  0  0  0  0  0  0  0  0
    3.8933    2.5771    1.1991 N   0  0  0  0  0  0  0  0  0  0  0  0
    2.3470    2.8950    2.7970 O   0  0  0  0  0  0  0  0  0  0  0  0
    0.4494    1.3612    1.1150 C   0  0  0  0  0  0  0  0  0  0  0  0
   -0.3719    2.1571    1.8385 N   0  0  0  0  0  0  0  0  0  0  0  0
   -0.0281    0.3480    0.2896 N   0  0  0  0  0  0  0  0  0  0  0  0
   -1.3938    0.0611    0.0136 C   0  0  0  0  0  0  0  0  0  0  0  0
   -1.9564   -1.1608    0.4602 C   0  0  0  0  0  0  0  0  0  0  0  0
   -1.1745   -2.1844    1.2445 C   0  0  0  0  0  0  0  0  0  0  0  0
   -3.2984   -1.4222    0.1443 C   0  0  0  0  0  0  0  0  0  0  0  0
   -3.8518   -2.6097    0.5389 O   0  0  0  0  0  0  0  0  0  0  0  0
   -4.0754   -0.4991   -0.5467 C   0  0  0  0  0  0  0  0  0  0  0  0
   -3.5046    0.6996   -0.9555 C   0  0  0  0  0  0  0  0  0  0  0  0
   -4.2758    1.5747   -1.6184 F   0  0  0  0  0  0  0  0  0  0  0  0
   -2.1615    1.0021   -0.7110 C   0  0  0  0  0  0  0  0  0  0  0  0
   -1.6152    2.3007   -1.2373 C   0  0  0  0  0  0  0  0  0  0  0  0
    1.0527   -0.3412   -0.2324 C   0  0  0  0  0  0  0  0  0  0  0  0
    0.9871   -1.3926   -1.0739 N   0  0  0  0  0  0  0  0  0  0  0  0
    2.1590   -3.9858   -1.7225 H   0  0  0  0  0  0  0  0  0  0  0  0
    1.3561   -3.0486   -3.0048 H   0  0  0  0  0  0  0  0  0  0  0  0
    3.1265   -3.0891   -2.9171 H   0  0  0  0  0  0  0  0  0  0  0  0
    4.3869   -0.0412    0.1884 H   0  0  0  0  0  0  0  0  0  0  0  0
    4.4819    3.2528    1.6672 H   0  0  0  0  0  0  0  0  0  0  0  0
    4.1629    2.2495    0.2849 H   0  0  0  0  0  0  0  0  0  0  0  0
    0.0120    2.8398    2.4961 H   0  0  0  0  0  0  0  0  0  0  0  0
   -1.3830    2.0533    1.8726 H   0  0  0  0  0  0  0  0  0  0  0  0
   -0.7249   -2.9161    0.5668 H   0  0  0  0  0  0  0  0  0  0  0  0
   -1.8179   -2.7166    1.9535 H   0  0  0  0  0  0  0  0  0  0  0  0
   -0.3903   -1.7234    1.8523 H   0  0  0  0  0  0  0  0  0  0  0  0
   -4.7663   -2.6608    0.2157 H   0  0  0  0  0  0  0  0  0  0  0  0
   -5.1173   -0.6862   -0.7801 H   0  0  0  0  0  0  0  0  0  0  0  0
   -2.1687    2.6283   -2.1243 H   0  0  0  0  0  0  0  0  0  0  0  0
   -0.5720    2.2021   -1.5526 H   0  0  0  0  0  0  0  0  0  0  0  0
   -1.6958    3.0838   -0.4782 H   0  0  0  0  0  0  0  0  0  0  0  0
  1  2  1  0
  2  3  2  0
  3  4  1  0
  4  5  2  0
  5  6  1  0
  6  7  1  0
  7  8  1  0
  7  9  2  0
  6 10  2  0
 10 11  1  0
 10 12  1  0
 12 13  1  0
 13 14  2  0
 14 15  1  0
 14 16  1  0
 16 17  1  0
 16 18  2  0
 18 19  1  0
 19 20  1  0
 19 21  2  0
 21 22  1  0
 12 23  1  0
 23 24  2  0
 24  2  1  0
 23  5  1  0
 21 13  1  0
  1 25  1  0
  1 26  1  0
  1 27  1  0
  4 28  1  0
  8 29  1  0
  8 30  1  0
 11 31  1  0
 11 32  1  0
 15 33  1  0
 15 34  1  0
 15 35  1  0
 17 36  1  0
 18 37  1  0
 22 38  1  0
 22 39  1  0
 22 40  1  0
M  END
>  <mol_id>  (1) 
18189

>  <source_index>  (1) 
3

>  <layer>  (1) 
L1

>  <uniprot>  (1) 
P06239

>  <paff>  (1) 
7.3010000000000002

>  <smiles>  (1) 
Cc1ncc2c(C(N)=O)c(N)n(-c3c(C)c(O)cc(F)c3C)c2n1

$$$$
