L1:P06239:31540
     RDKit          3D

 46 48  0  0  0  0  0  0  0  0999 V2000
   -1.1889   -0.3467    2.6058 C   0  0  0  0  0  0  0  0  0  0  0  0
   -1.8409   -1.1386    1.5036 C   0  0  0  0  0  0  0  0  0  0  0  0
   -2.5156   -2.3187    1.8492 C   0  0  0  0  0  0  0  0  0  0  0  0
   -3.1730   -3.0766    0.8819 C   0  0  0  0  0  0  0  0  0  0  0  0
   -3.1406   -2.6761   -0.4517 C   0  0  0  0  0  0  0  0  0  0  0  0
   -3.7977   -3.4180   -1.3951 O   0  0  0  0  0  0  0  0  0  0  0  0
   -2.4432   -1.5301   -0.8574 C   0  0  0  0  0  0  0  0  0  0  0  0
   -2.3967   -1.1804   -2.3234 C   0  0  0  0  0  0  0  0  0  0  0  0
   -1.8083   -0.7537    0.1424 C   0  0  0  0  0  0  0  0  0  0  0  0
   -1.1392    0.4476   -0.2225 N   0  0  0  0  0  0  0  0  0  0  0  0
   -1.7344    1.6011   -0.7262 C   0  0  0  0  0  0  0  0  0  0  0  0
   -3.0730    1.7151   -0.8885 N   0  0  0  0  0  0  0  0  0  0  0  0
   -0.7443    2.5483   -0.9589 C   0  0  0  0  0  0  0  0  0  0  0  0
   -0.9999    3.8895   -1.4630 C   0  0  0  0  0  0  0  0  0  0  0  0
   -0.1123    4.8540   -1.0799 N   0  0  0  0  0  0  0  0  0  0  0  0
   -1.9694    4.1899   -2.1531 O   0  0  0  0  0  0  0  0  0  0  0  0
    0.4989    1.9296   -0.6201 C   0  0  0  0  0  0  0  0  0  0  0  0
    1.8466    2.2707   -0.6740 C   0  0  0  0  0  0  0  0  0  0  0  0
    2.7834    1.3987   -0.2422 N   0  0  0  0  0  0  0  0  0  0  0  0
    2.4013    0.1917    0.2064 C   0  0  0  0  0  0  0  0  0  0  0  0
    3.3469   -0.7010    0.6353 N   0  0  0  0  0  0  0  0  0  0  0  0
    4.7296   -0.3091    0.8018 C   0  0  0  0  0  0  0  0  0  0  0  0
    5.5787   -1.5524    1.0846 C   0  0  0  0  0  0  0  0  0  0  0  0
    5.5078   -2.4686   -0.0083 O   0  0  0  0  0  0  0  0  0  0  0  0
    1.1407   -0.2389    0.2786 N   0  0  0  0  0  0  0  0  0  0  0  0
    0.2265    0.6564   -0.1431 C   0  0  0  0  0  0  0  0  0  0  0  0
   -1.6564   -0.5650    3.5726 H   0  0  0  0  0  0  0  0  0  0  0  0
   -1.3021    0.7302    2.4473 H   0  0  0  0  0  0  0  0  0  0  0  0
   -0.1276   -0.5995    2.6807 H   0  0  0  0  0  0  0  0  0  0  0  0
   -2.5480   -2.6475    2.8861 H   0  0  0  0  0  0  0  0  0  0  0  0
   -3.7025   -3.9740    1.1870 H   0  0  0  0  0  0  0  0  0  0  0  0
   -4.1927   -4.1943   -0.9663 H   0  0  0  0  0  0  0  0  0  0  0  0
   -3.2819   -0.6015   -2.6025 H   0  0  0  0  0  0  0  0  0  0  0  0
   -1.4979   -0.6138   -2.5834 H   0  0  0  0  0  0  0  0  0  0  0  0
   -2.3617   -2.0838   -2.9422 H   0  0  0  0  0  0  0  0  0  0  0  0
   -3.7364    0.9748   -0.6707 H   0  0  0  0  0  0  0  0  0  0  0  0
   -3.4806    2.5478   -1.3182 H   0  0  0  0  0  0  0  0  0  0  0  0
   -0.2912    5.7942   -1.4059 H   0  0  0  0  0  0  0  0  0  0  0  0
    0.6103    4.7074   -0.3932 H   0  0  0  0  0  0  0  0  0  0  0  0
    2.2205    3.2101   -1.0626 H   0  0  0  0  0  0  0  0  0  0  0  0
    2.9609   -1.5268    1.0696 H   0  0  0  0  0  0  0  0  0  0  0  0
    5.0999    0.1602   -0.1176 H   0  0  0  0  0  0  0  0  0  0  0  0
    4.8280    0.4033    1.6280 H   0  0  0  0  0  0  0  0  0  0  0  0
    6.6274   -1.2772    1.2301 H   0  0  0  0  0  0  0  0  0  0  0  0
    5.2276   -2.0713    1.9825 H   0  0  0  0  0  0  0  0  0  0  0  0
    4.6213   -2.3570   -0.4031 H   0  0  0  0  0  0  0  0  0  0  0  0
  1  2  1  0
  2  3  2  0
  3  4  1  0
  4  5  2  0
  5  6  1  0
  5  7  1  0
  7  8  1  0
  7  9  2  0
  9 10  1  0
 10 11  1  0
 11 12  1  0
 11 13  2  0
 13 14  1  0
 14 15  1  0
 14 16  2  0
 13 17  1  0
 17 18  2  0
 18 19  1  0
 19 20  2  0
 20 21  1  0
 21 22  1  0
 22 23  1  0
 23 24  1  0
 20 25  1  0
 25 26  2  0
  9  2  1  0
 26 10  1  0
 26 17  1  0
  1 27  1  0
  1 28  1  0
  1 29  1  0
  3 30  1  0
  4 31  1  0
  6 32  1  0
  8 33  1  0
  8 34  1  0
  8 35  1  0
 12 36  1  0
 12 37  1  0
 15 38  1  0
 15 39  1  0
 18 40  1  0
 21 41  1  0
 22 42  1  0
 22 43  1  0
 23 44  1  0
 23 45  1  0
 24 46  1  0
M  END
>  <mol_id>  (1) 
31540

>  <source_index>  (1) 
4

>  <layer>  (1) 
L1

>  <uniprot>  (1) 
P06239

>  <paff>  (1) 
7.3010000000000002

>  <smiles>  (1) 
Cc1ccc(O)c(C)c1-n1c(N)c(C(N)=O)c2cnc(NCCO)nc21

$$$$
