L1:P06239:31540
 OpenBabel09212617423D

 46 48  0  0  0  0  0  0  0  0999 V2000
   22.4156   37.3879   83.9395 N   0  0  0  0  0  0  0  0  0  0  0  0
   22.9632   36.4957   83.0216 C   0  0  0  0  0  0  0  0  0  0  0  0
   22.2293   35.5288   82.4234 N   0  0  0  0  0  0  0  0  0  0  0  0
   24.3016   36.8179   82.8307 C   0  0  0  0  0  0  0  0  0  0  0  0
   24.5822   37.9210   83.6953 C   0  0  0  0  0  0  0  0  0  0  0  0
   25.6989   38.6731   84.0460 C   0  0  0  0  0  0  0  0  0  0  0  0
   25.5812   39.6882   84.9292 N   0  0  0  0  0  0  0  0  0  0  0  0
   24.3854   39.9396   85.4867 C   0  0  0  0  0  0  0  0  0  0  0  0
   23.2618   39.2660   85.2346 N   0  0  0  0  0  0  0  0  0  0  0  0
   23.4045   38.2700   84.3387 C   0  0  0  0  0  0  0  0  0  0  0  0
   21.2400   35.3732   82.6042 H   0  0  0  0  0  0  0  0  0  0  0  0
   22.6672   34.8470   81.8009 H   0  0  0  0  0  0  0  0  0  0  0  0
   21.7138   35.7515   86.2766 C   0  0  0  0  0  0  0  0  0  0  0  0
   20.7285   36.6148   85.5344 C   0  0  0  0  0  0  0  0  0  0  0  0
   19.4023   36.6436   85.9900 C   0  0  0  0  0  0  0  0  0  0  0  0
   18.4506   37.4521   85.3713 C   0  0  0  0  0  0  0  0  0  0  0  0
   18.8089   38.2240   84.2687 C   0  0  0  0  0  0  0  0  0  0  0  0
   17.8730   39.0246   83.6727 O   0  0  0  0  0  0  0  0  0  0  0  0
   20.1088   38.1978   83.7454 C   0  0  0  0  0  0  0  0  0  0  0  0
   20.4206   39.0113   82.5147 C   0  0  0  0  0  0  0  0  0  0  0  0
   21.0716   37.3962   84.4058 C   0  0  0  0  0  0  0  0  0  0  0  0
   17.0210   38.9009   84.1214 H   0  0  0  0  0  0  0  0  0  0  0  0
   25.1885   36.1137   81.9165 C   0  0  0  0  0  0  0  0  0  0  0  0
   26.0491   36.8919   81.1964 N   0  0  0  0  0  0  0  0  0  0  0  0
   25.1648   34.8999   81.7363 O   0  0  0  0  0  0  0  0  0  0  0  0
   26.6555   36.4163   80.5419 H   0  0  0  0  0  0  0  0  0  0  0  0
   26.0127   37.8987   81.1813 H   0  0  0  0  0  0  0  0  0  0  0  0
   24.2617   40.9604   86.3910 N   0  0  0  0  0  0  0  0  0  0  0  0
   24.8441   40.8534   87.2089 H   0  0  0  0  0  0  0  0  0  0  0  0
   23.1342   41.8660   86.3525 C   0  0  0  0  0  0  0  0  0  0  0  0
   23.3760   42.9318   85.2791 C   0  0  0  0  0  0  0  0  0  0  0  0
   22.2202   43.7549   85.1188 O   0  0  0  0  0  0  0  0  0  0  0  0
   21.4498   43.1880   85.3169 H   0  0  0  0  0  0  0  0  0  0  0  0
   26.6182   38.4551   83.6308 H   0  0  0  0  0  0  0  0  0  0  0  0
   21.2180   35.2614   87.0883 H   0  0  0  0  0  0  0  0  0  0  0  0
   22.5056   36.3615   86.6585 H   0  0  0  0  0  0  0  0  0  0  0  0
   22.1180   35.0181   85.6105 H   0  0  0  0  0  0  0  0  0  0  0  0
   19.1275   36.0582   86.7942 H   0  0  0  0  0  0  0  0  0  0  0  0
   17.4830   37.4788   85.7291 H   0  0  0  0  0  0  0  0  0  0  0  0
   19.5404   39.5308   82.1981 H   0  0  0  0  0  0  0  0  0  0  0  0
   20.7520   38.3613   81.7320 H   0  0  0  0  0  0  0  0  0  0  0  0
   21.1906   39.7190   82.7406 H   0  0  0  0  0  0  0  0  0  0  0  0
   23.0226   42.3383   87.3061 H   0  0  0  0  0  0  0  0  0  0  0  0
   22.2439   41.3197   86.1204 H   0  0  0  0  0  0  0  0  0  0  0  0
   23.5968   42.4506   84.3492 H   0  0  0  0  0  0  0  0  0  0  0  0
   24.1978   43.5464   85.5821 H   0  0  0  0  0  0  0  0  0  0  0  0
  1  2  1  0  0  0  0
  2  3  1  0  0  0  0
  2  4  2  0  0  0  0
  3 11  1  0  0  0  0
  3 12  1  0  0  0  0
  4 23  1  0  0  0  0
  4  5  1  0  0  0  0
  5  6  2  0  0  0  0
  6  7  1  0  0  0  0
  6 34  1  0  0  0  0
  7  8  2  0  0  0  0
  8 28  1  0  0  0  0
  8  9  1  0  0  0  0
  9 10  2  0  0  0  0
 10  1  1  0  0  0  0
 10  5  1  0  0  0  0
 13 14  1  0  0  0  0
 13 35  1  0  0  0  0
 13 36  1  0  0  0  0
 13 37  1  0  0  0  0
 14 15  2  0  0  0  0
 15 16  1  0  0  0  0
 15 38  1  0  0  0  0
 16 17  2  0  0  0  0
 16 39  1  0  0  0  0
 17 18  1  0  0  0  0
 17 19  1  0  0  0  0
 18 22  1  0  0  0  0
 19 20  1  0  0  0  0
 19 21  2  0  0  0  0
 20 40  1  0  0  0  0
 20 41  1  0  0  0  0
 20 42  1  0  0  0  0
 21  1  1  0  0  0  0
 21 14  1  0  0  0  0
 23 24  1  0  0  0  0
 23 25  2  0  0  0  0
 24 26  1  0  0  0  0
 24 27  1  0  0  0  0
 28 30  1  0  0  0  0
 28 29  1  0  0  0  0
 30 31  1  0  0  0  0
 30 43  1  0  0  0  0
 30 44  1  0  0  0  0
 31 32  1  0  0  0  0
 31 45  1  0  0  0  0
 31 46  1  0  0  0  0
 32 33  1  0  0  0  0
M  END
>  <minimizedAffinity>
-8.14524

$$$$
