L1:P06239:43152
 OpenBabel09212617423D

 58 61  0  0  0  0  0  0  0  0999 V2000
   24.6418   41.2966   87.1519 N   0  0  0  0  0  0  0  0  0  0  0  0
   25.0419   41.3621   88.0754 H   0  0  0  0  0  0  0  0  0  0  0  0
   20.4399   43.0985   88.6540 C   0  0  0  0  0  0  0  0  0  0  0  0
   21.2151   42.1625   87.7822 C   0  0  0  0  0  0  0  0  0  0  0  0
   22.5484   42.1745   87.8939 N   0  0  0  0  0  0  0  0  0  0  0  0
   23.2357   41.3235   87.1243 C   0  0  0  0  0  0  0  0  0  0  0  0
   22.5838   40.4606   86.2562 C   0  0  0  0  0  0  0  0  0  0  0  0
   21.2014   40.4812   86.2050 C   0  0  0  0  0  0  0  0  0  0  0  0
   20.5202   41.3418   86.9778 N   0  0  0  0  0  0  0  0  0  0  0  0
   20.4833   39.6495   85.3700 N   0  0  0  0  0  0  0  0  0  0  0  0
   19.8266   38.4665   85.9426 C   0  0  0  0  0  0  0  0  0  0  0  0
   18.5978   38.0763   85.0873 C   0  0  0  0  0  0  0  0  0  0  0  0
   18.8936   37.7712   83.6675 N   0  0  0  0  0  0  0  0  0  0  0  0
   20.1285   38.4501   83.2213 C   0  0  0  0  0  0  0  0  0  0  0  0
   20.4476   39.7962   83.9134 C   0  0  0  0  0  0  0  0  0  0  0  0
   17.7555   38.0779   82.7888 C   0  0  0  0  0  0  0  0  0  0  0  0
   16.5264   37.1841   83.0197 C   0  0  0  0  0  0  0  0  0  0  0  0
   15.9220   36.8429   81.7737 O   0  0  0  0  0  0  0  0  0  0  0  0
   15.5558   37.6601   81.3949 H   0  0  0  0  0  0  0  0  0  0  0  0
   25.4662   41.4625   86.0950 C   0  0  0  0  0  0  0  0  0  0  0  0
   25.7155   42.5736   85.4393 N   0  0  0  0  0  0  0  0  0  0  0  0
   26.6096   42.3492   84.4142 C   0  0  0  0  0  0  0  0  0  0  0  0
   27.0185   41.0426   84.2467 C   0  0  0  0  0  0  0  0  0  0  0  0
   26.2749   40.0752   85.4543 S   0  0  0  0  0  0  0  0  0  0  0  0
   27.9257   40.4395   83.2838 C   0  0  0  0  0  0  0  0  0  0  0  0
   28.2259   40.9871   82.2289 O   0  0  0  0  0  0  0  0  0  0  0  0
   28.4690   39.2373   83.6978 N   0  0  0  0  0  0  0  0  0  0  0  0
   28.4263   39.0449   84.6928 H   0  0  0  0  0  0  0  0  0  0  0  0
   29.2830   38.3228   82.9752 C   0  0  0  0  0  0  0  0  0  0  0  0
   28.6128   37.2497   82.3507 C   0  0  0  0  0  0  0  0  0  0  0  0
   26.8876   37.0861   82.4742 Cl  0  0  0  0  0  0  0  0  0  0  0  0
   29.2937   36.2758   81.6303 C   0  0  0  0  0  0  0  0  0  0  0  0
   30.6573   36.4037   81.5306 C   0  0  0  0  0  0  0  0  0  0  0  0
   31.3420   37.4304   82.0687 N   0  0  0  0  0  0  0  0  0  0  0  0
   30.6659   38.3913   82.7667 C   0  0  0  0  0  0  0  0  0  0  0  0
   31.5451   39.5302   83.1853 C   0  0  0  0  0  0  0  0  0  0  0  0
   21.1175   43.6873   89.2363 H   0  0  0  0  0  0  0  0  0  0  0  0
   19.8054   42.5355   89.3062 H   0  0  0  0  0  0  0  0  0  0  0  0
   19.8422   43.7423   88.0432 H   0  0  0  0  0  0  0  0  0  0  0  0
   23.1211   39.8136   85.6581 H   0  0  0  0  0  0  0  0  0  0  0  0
   19.5084   38.6862   86.9403 H   0  0  0  0  0  0  0  0  0  0  0  0
   20.5196   37.6513   85.9535 H   0  0  0  0  0  0  0  0  0  0  0  0
   17.9031   38.8896   85.1141 H   0  0  0  0  0  0  0  0  0  0  0  0
   18.2121   37.1735   85.5128 H   0  0  0  0  0  0  0  0  0  0  0  0
   20.0400   38.6344   82.1710 H   0  0  0  0  0  0  0  0  0  0  0  0
   20.9310   37.7926   83.4832 H   0  0  0  0  0  0  0  0  0  0  0  0
   19.6936   40.5094   83.6532 H   0  0  0  0  0  0  0  0  0  0  0  0
   21.4104   40.1262   83.5832 H   0  0  0  0  0  0  0  0  0  0  0  0
   18.0725   37.9579   81.7739 H   0  0  0  0  0  0  0  0  0  0  0  0
   17.4547   39.0803   83.0117 H   0  0  0  0  0  0  0  0  0  0  0  0
   15.8167   37.7091   83.6244 H   0  0  0  0  0  0  0  0  0  0  0  0
   16.8361   36.2870   83.5138 H   0  0  0  0  0  0  0  0  0  0  0  0
   26.9519   43.1120   83.8093 H   0  0  0  0  0  0  0  0  0  0  0  0
   28.7947   35.4881   81.1880 H   0  0  0  0  0  0  0  0  0  0  0  0
   31.1825   35.6778   81.0185 H   0  0  0  0  0  0  0  0  0  0  0  0
   32.5562   39.3226   82.9032 H   0  0  0  0  0  0  0  0  0  0  0  0
   31.4889   39.6527   84.2468 H   0  0  0  0  0  0  0  0  0  0  0  0
   31.2180   40.4286   82.7048 H   0  0  0  0  0  0  0  0  0  0  0  0
  1 20  1  0  0  0  0
  1  2  1  0  0  0  0
  3  4  1  0  0  0  0
  3 37  1  0  0  0  0
  3 38  1  0  0  0  0
  3 39  1  0  0  0  0
  4  5  2  0  0  0  0
  5  6  1  0  0  0  0
  6  1  1  0  0  0  0
  6  7  2  0  0  0  0
  7  8  1  0  0  0  0
  7 40  1  0  0  0  0
  8 10  1  0  0  0  0
  8  9  2  0  0  0  0
  9  4  1  0  0  0  0
 10 11  1  0  0  0  0
 11 12  1  0  0  0  0
 11 41  1  0  0  0  0
 11 42  1  0  0  0  0
 12 13  1  0  0  0  0
 12 43  1  0  0  0  0
 12 44  1  0  0  0  0
 13 16  1  0  0  0  0
 13 14  1  0  0  0  0
 14 15  1  0  0  0  0
 14 45  1  0  0  0  0
 14 46  1  0  0  0  0
 15 10  1  0  0  0  0
 15 47  1  0  0  0  0
 15 48  1  0  0  0  0
 16 17  1  0  0  0  0
 16 49  1  0  0  0  0
 16 50  1  0  0  0  0
 17 18  1  0  0  0  0
 17 51  1  0  0  0  0
 17 52  1  0  0  0  0
 18 19  1  0  0  0  0
 20 21  2  0  0  0  0
 21 22  1  0  0  0  0
 22 23  2  0  0  0  0
 22 53  1  0  0  0  0
 23 25  1  0  0  0  0
 23 24  1  0  0  0  0
 24 20  1  0  0  0  0
 25 26  2  0  0  0  0
 25 27  1  0  0  0  0
 27 29  1  0  0  0  0
 27 28  1  0  0  0  0
 29 30  2  0  0  0  0
 30 31  1  0  0  0  0
 30 32  1  0  0  0  0
 32 33  2  0  0  0  0
 32 54  1  0  0  0  0
 33 34  1  0  0  0  0
 33 55  1  0  0  0  0
 34 35  2  0  0  0  0
 35 36  1  0  0  0  0
 35 29  1  0  0  0  0
 36 56  1  0  0  0  0
 36 57  1  0  0  0  0
 36 58  1  0  0  0  0
M  END
>  <minimizedAffinity>
-8.06649

$$$$
