L1:P06239:43152
     RDKit          3D

 58 61  0  0  0  0  0  0  0  0999 V2000
   -1.2688   -2.6153    2.9440 C   0  0  0  0  0  0  0  0  0  0  0  0
   -1.4684   -1.8212    1.6923 C   0  0  0  0  0  0  0  0  0  0  0  0
   -0.3810   -1.5100    0.9774 N   0  0  0  0  0  0  0  0  0  0  0  0
   -0.5668   -0.8146   -0.1498 C   0  0  0  0  0  0  0  0  0  0  0  0
    0.5247   -0.4141   -0.9415 N   0  0  0  0  0  0  0  0  0  0  0  0
    1.8106   -0.3151   -0.5403 C   0  0  0  0  0  0  0  0  0  0  0  0
    2.2661   -0.2868    0.6919 N   0  0  0  0  0  0  0  0  0  0  0  0
    3.6400   -0.1742    0.7055 C   0  0  0  0  0  0  0  0  0  0  0  0
    4.2478   -0.0666   -0.5280 C   0  0  0  0  0  0  0  0  0  0  0  0
    5.6470    0.0765   -0.8964 C   0  0  0  0  0  0  0  0  0  0  0  0
    6.0410   -0.0520   -2.0502 O   0  0  0  0  0  0  0  0  0  0  0  0
    6.4717    0.4390    0.1525 N   0  0  0  0  0  0  0  0  0  0  0  0
    7.8890    0.5448    0.1862 C   0  0  0  0  0  0  0  0  0  0  0  0
    8.4279    1.3952    1.1747 C   0  0  0  0  0  0  0  0  0  0  0  0
    7.3898    2.2481    2.2762 Cl  0  0  0  0  0  0  0  0  0  0  0  0
    9.7962    1.6014    1.3020 C   0  0  0  0  0  0  0  0  0  0  0  0
   10.6187    0.9275    0.4330 C   0  0  0  0  0  0  0  0  0  0  0  0
   10.1612    0.0708   -0.4994 N   0  0  0  0  0  0  0  0  0  0  0  0
    8.8152   -0.1367   -0.6128 C   0  0  0  0  0  0  0  0  0  0  0  0
    8.4756   -1.2121   -1.5993 C   0  0  0  0  0  0  0  0  0  0  0  0
    3.0399   -0.1514   -1.7449 S   0  0  0  0  0  0  0  0  0  0  0  0
   -1.8393   -0.4442   -0.5582 C   0  0  0  0  0  0  0  0  0  0  0  0
   -2.9249   -0.8174    0.2141 C   0  0  0  0  0  0  0  0  0  0  0  0
   -4.2205   -0.4896   -0.1302 N   0  0  0  0  0  0  0  0  0  0  0  0
   -5.2981   -0.7559    0.8324 C   0  0  0  0  0  0  0  0  0  0  0  0
   -6.4707    0.2265    0.6005 C   0  0  0  0  0  0  0  0  0  0  0  0
   -7.0695    0.1793   -0.7543 N   0  0  0  0  0  0  0  0  0  0  0  0
   -7.6357    1.4763   -1.1525 C   0  0  0  0  0  0  0  0  0  0  0  0
   -8.8032    1.9481   -0.2708 C   0  0  0  0  0  0  0  0  0  0  0  0
   -9.3042    3.1980   -0.7410 O   0  0  0  0  0  0  0  0  0  0  0  0
   -6.0995   -0.3237   -1.7499 C   0  0  0  0  0  0  0  0  0  0  0  0
   -4.6117   -0.0156   -1.4594 C   0  0  0  0  0  0  0  0  0  0  0  0
   -2.7284   -1.5114    1.3461 N   0  0  0  0  0  0  0  0  0  0  0  0
   -1.2941   -3.6836    2.7105 H   0  0  0  0  0  0  0  0  0  0  0  0
   -2.0565   -2.3941    3.6706 H   0  0  0  0  0  0  0  0  0  0  0  0
   -0.3040   -2.3766    3.4021 H   0  0  0  0  0  0  0  0  0  0  0  0
    0.3391   -0.4040   -1.9328 H   0  0  0  0  0  0  0  0  0  0  0  0
    4.1396   -0.1809    1.6664 H   0  0  0  0  0  0  0  0  0  0  0  0
    6.0147    0.8411    0.9639 H   0  0  0  0  0  0  0  0  0  0  0  0
   10.2086    2.2688    2.0492 H   0  0  0  0  0  0  0  0  0  0  0  0
   11.6979    1.0465    0.4659 H   0  0  0  0  0  0  0  0  0  0  0  0
    9.3327   -1.8822   -1.7362 H   0  0  0  0  0  0  0  0  0  0  0  0
    7.6525   -1.8393   -1.2455 H   0  0  0  0  0  0  0  0  0  0  0  0
    8.2485   -0.7799   -2.5771 H   0  0  0  0  0  0  0  0  0  0  0  0
   -1.9652    0.1482   -1.4530 H   0  0  0  0  0  0  0  0  0  0  0  0
   -5.6408   -1.7928    0.7306 H   0  0  0  0  0  0  0  0  0  0  0  0
   -4.9592   -0.6123    1.8659 H   0  0  0  0  0  0  0  0  0  0  0  0
   -6.0892    1.2360    0.8079 H   0  0  0  0  0  0  0  0  0  0  0  0
   -7.2552    0.0188    1.3372 H   0  0  0  0  0  0  0  0  0  0  0  0
   -6.8598    2.2531   -1.1817 H   0  0  0  0  0  0  0  0  0  0  0  0
   -8.0219    1.4089   -2.1784 H   0  0  0  0  0  0  0  0  0  0  0  0
   -8.5032    2.0796    0.7733 H   0  0  0  0  0  0  0  0  0  0  0  0
   -9.6242    1.2246   -0.3027 H   0  0  0  0  0  0  0  0  0  0  0  0
   -8.6100    3.8629   -0.5947 H   0  0  0  0  0  0  0  0  0  0  0  0
   -6.3531    0.0170   -2.7614 H   0  0  0  0  0  0  0  0  0  0  0  0
   -6.2160   -1.4157   -1.7782 H   0  0  0  0  0  0  0  0  0  0  0  0
   -4.0211   -0.5119   -2.2387 H   0  0  0  0  0  0  0  0  0  0  0  0
   -4.4318    1.0636   -1.5304 H   0  0  0  0  0  0  0  0  0  0  0  0
  1  2  1  0
  2  3  2  0
  3  4  1  0
  4  5  1  0
  5  6  1  0
  6  7  2  0
  7  8  1  0
  8  9  2  0
  9 10  1  0
 10 11  2  0
 10 12  1  0
 12 13  1  0
 13 14  2  0
 14 15  1  0
 14 16  1  0
 16 17  2  0
 17 18  1  0
 18 19  2  0
 19 20  1  0
  9 21  1  0
  4 22  2  0
 22 23  1  0
 23 24  1  0
 24 25  1  0
 25 26  1  0
 26 27  1  0
 27 28  1  0
 28 29  1  0
 29 30  1  0
 27 31  1  0
 31 32  1  0
 23 33  2  0
 33  2  1  0
 21  6  1  0
 32 24  1  0
 19 13  1  0
  1 34  1  0
  1 35  1  0
  1 36  1  0
  5 37  1  0
  8 38  1  0
 12 39  1  0
 16 40  1  0
 17 41  1  0
 20 42  1  0
 20 43  1  0
 20 44  1  0
 22 45  1  0
 25 46  1  0
 25 47  1  0
 26 48  1  0
 26 49  1  0
 28 50  1  0
 28 51  1  0
 29 52  1  0
 29 53  1  0
 30 54  1  0
 31 55  1  0
 31 56  1  0
 32 57  1  0
 32 58  1  0
M  END
>  <mol_id>  (1) 
43152

>  <source_index>  (1) 
5

>  <layer>  (1) 
L1

>  <uniprot>  (1) 
P06239

>  <paff>  (1) 
8.8239000000000001

>  <smiles>  (1) 
Cc1nc(Nc2ncc(s2)C(=O)Nc2c(C)nccc2Cl)cc(n1)N1CCN(CCO)CC1

$$$$
