L1:P06239:72037
     RDKit          3D

 68 72  0  0  0  0  0  0  0  0999 V2000
    9.2096    2.3609   -0.1792 C   0  0  0  0  0  0  0  0  0  0  0  0
    8.1059    1.6965    0.5191 N   0  0  0  0  0  0  0  0  0  0  0  0
    8.6358    0.5812    1.3132 C   0  0  0  0  0  0  0  0  0  0  0  0
    7.3966    2.6600    1.3759 C   0  0  0  0  0  0  0  0  0  0  0  0
    5.9985    2.2626    1.7610 C   0  0  0  0  0  0  0  0  0  0  0  0
    5.2697    1.2691    1.2246 C   0  0  0  0  0  0  0  0  0  0  0  0
    3.8977    0.9857    1.7272 C   0  0  0  0  0  0  0  0  0  0  0  0
    3.5433    1.4082    2.8261 O   0  0  0  0  0  0  0  0  0  0  0  0
    3.0762    0.2217    0.9084 N   0  0  0  0  0  0  0  0  0  0  0  0
    1.7721   -0.1906    1.4307 C   0  0  0  0  0  0  0  0  0  0  0  0
    1.4119   -1.5881    0.9447 C   0  0  0  0  0  0  0  0  0  0  0  0
    1.3602   -1.6552   -0.5917 C   0  0  0  0  0  0  0  0  0  0  0  0
   -0.0102   -1.6750   -1.0963 N   0  0  0  0  0  0  0  0  0  0  0  0
   -0.8936   -0.7392   -0.6888 N   0  0  0  0  0  0  0  0  0  0  0  0
   -2.0326   -1.0626   -1.3271 C   0  0  0  0  0  0  0  0  0  0  0  0
   -3.2485   -0.2941   -1.0849 C   0  0  0  0  0  0  0  0  0  0  0  0
   -4.4282   -0.9351   -0.6817 C   0  0  0  0  0  0  0  0  0  0  0  0
   -5.5904   -0.1940   -0.4534 C   0  0  0  0  0  0  0  0  0  0  0  0
   -5.5685    1.1947   -0.6037 C   0  0  0  0  0  0  0  0  0  0  0  0
   -6.6873    1.9760   -0.4259 O   0  0  0  0  0  0  0  0  0  0  0  0
   -7.4144    1.7828    0.7271 C   0  0  0  0  0  0  0  0  0  0  0  0
   -6.8229    1.7056    1.9907 C   0  0  0  0  0  0  0  0  0  0  0  0
   -7.6241    1.5437    3.1219 C   0  0  0  0  0  0  0  0  0  0  0  0
   -9.0118    1.4754    2.9913 C   0  0  0  0  0  0  0  0  0  0  0  0
   -9.6017    1.5763    1.7309 C   0  0  0  0  0  0  0  0  0  0  0  0
   -8.8030    1.7379    0.5983 C   0  0  0  0  0  0  0  0  0  0  0  0
   -4.4019    1.8398   -1.0128 C   0  0  0  0  0  0  0  0  0  0  0  0
   -3.2404    1.0984   -1.2406 C   0  0  0  0  0  0  0  0  0  0  0  0
   -1.8464   -2.1782   -2.1964 C   0  0  0  0  0  0  0  0  0  0  0  0
   -2.5828   -2.9242   -3.1257 C   0  0  0  0  0  0  0  0  0  0  0  0
   -3.8810   -2.6648   -3.4926 N   0  0  0  0  0  0  0  0  0  0  0  0
   -1.9813   -3.9683   -3.7357 N   0  0  0  0  0  0  0  0  0  0  0  0
   -0.6939   -4.2348   -3.4441 C   0  0  0  0  0  0  0  0  0  0  0  0
    0.1145   -3.5774   -2.5976 N   0  0  0  0  0  0  0  0  0  0  0  0
   -0.5281   -2.5564   -2.0041 C   0  0  0  0  0  0  0  0  0  0  0  0
    2.1613   -0.5355   -1.2722 C   0  0  0  0  0  0  0  0  0  0  0  0
    3.3981   -0.1667   -0.4660 C   0  0  0  0  0  0  0  0  0  0  0  0
    9.7346    1.6535   -0.8311 H   0  0  0  0  0  0  0  0  0  0  0  0
    8.8302    3.1578   -0.8287 H   0  0  0  0  0  0  0  0  0  0  0  0
    9.9371    2.7970    0.5151 H   0  0  0  0  0  0  0  0  0  0  0  0
    7.8367    0.0426    1.8327 H   0  0  0  0  0  0  0  0  0  0  0  0
    9.1261   -0.1499    0.6602 H   0  0  0  0  0  0  0  0  0  0  0  0
    9.3648    0.9148    2.0610 H   0  0  0  0  0  0  0  0  0  0  0  0
    7.9758    2.8675    2.2852 H   0  0  0  0  0  0  0  0  0  0  0  0
    7.2959    3.6196    0.8509 H   0  0  0  0  0  0  0  0  0  0  0  0
    5.5531    2.8729    2.5460 H   0  0  0  0  0  0  0  0  0  0  0  0
    5.6807    0.6455    0.4436 H   0  0  0  0  0  0  0  0  0  0  0  0
    1.7804   -0.1765    2.5259 H   0  0  0  0  0  0  0  0  0  0  0  0
    1.0337    0.5498    1.1022 H   0  0  0  0  0  0  0  0  0  0  0  0
    0.4714   -1.9195    1.4003 H   0  0  0  0  0  0  0  0  0  0  0  0
    2.1862   -2.2836    1.2961 H   0  0  0  0  0  0  0  0  0  0  0  0
    1.8010   -2.6187   -0.8797 H   0  0  0  0  0  0  0  0  0  0  0  0
   -4.4503   -2.0133   -0.5361 H   0  0  0  0  0  0  0  0  0  0  0  0
   -6.5029   -0.7035   -0.1555 H   0  0  0  0  0  0  0  0  0  0  0  0
   -5.7447    1.7772    2.1040 H   0  0  0  0  0  0  0  0  0  0  0  0
   -7.1662    1.4781    4.1055 H   0  0  0  0  0  0  0  0  0  0  0  0
   -9.6343    1.3523    3.8740 H   0  0  0  0  0  0  0  0  0  0  0  0
  -10.6832    1.5341    1.6315 H   0  0  0  0  0  0  0  0  0  0  0  0
   -9.2612    1.8251   -0.3828 H   0  0  0  0  0  0  0  0  0  0  0  0
   -4.3923    2.9186   -1.1420 H   0  0  0  0  0  0  0  0  0  0  0  0
   -2.3274    1.6099   -1.5388 H   0  0  0  0  0  0  0  0  0  0  0  0
   -4.3725   -1.8406   -3.1867 H   0  0  0  0  0  0  0  0  0  0  0  0
   -4.2734   -3.2609   -4.2071 H   0  0  0  0  0  0  0  0  0  0  0  0
   -0.2570   -5.0838   -3.9614 H   0  0  0  0  0  0  0  0  0  0  0  0
    1.5422    0.3634   -1.3954 H   0  0  0  0  0  0  0  0  0  0  0  0
    2.4500   -0.8468   -2.2835 H   0  0  0  0  0  0  0  0  0  0  0  0
    4.0854   -1.0193   -0.4116 H   0  0  0  0  0  0  0  0  0  0  0  0
    3.9216    0.6558   -0.9646 H   0  0  0  0  0  0  0  0  0  0  0  0
  1  2  1  0
  2  3  1  0
  2  4  1  0
  4  5  1  0
  5  6  2  0
  6  7  1  0
  7  8  2  0
  7  9  1  0
  9 10  1  0
 10 11  1  0
 11 12  1  0
 12 13  1  0
 13 14  1  0
 14 15  2  0
 15 16  1  0
 16 17  2  0
 17 18  1  0
 18 19  2  0
 19 20  1  0
 20 21  1  0
 21 22  2  0
 22 23  1  0
 23 24  2  0
 24 25  1  0
 25 26  2  0
 19 27  1  0
 27 28  2  0
 15 29  1  0
 29 30  2  0
 30 31  1  0
 30 32  1  0
 32 33  2  0
 33 34  1  0
 34 35  2  0
 12 36  1  0
 36 37  1  0
 37  9  1  0
 35 13  1  0
 28 16  1  0
 35 29  1  0
 26 21  1  0
  1 38  1  0
  1 39  1  0
  1 40  1  0
  3 41  1  0
  3 42  1  0
  3 43  1  0
  4 44  1  0
  4 45  1  0
  5 46  1  0
  6 47  1  0
 10 48  1  0
 10 49  1  0
 11 50  1  0
 11 51  1  0
 12 52  1  0
 17 53  1  0
 18 54  1  0
 22 55  1  0
 23 56  1  0
 24 57  1  0
 25 58  1  0
 26 59  1  0
 27 60  1  0
 28 61  1  0
 31 62  1  0
 31 63  1  0
 33 64  1  0
 36 65  1  0
 36 66  1  0
 37 67  1  0
 37 68  1  0
M  END
>  <mol_id>  (1) 
72037

>  <source_index>  (1) 
6

>  <layer>  (1) 
L1

>  <uniprot>  (1) 
P06239

>  <paff>  (1) 
8.5850000000000009

>  <smiles>  (1) 
CN(C)C\C=C\C(=O)N1CCC(CC1)n1nc(-c2ccc(Oc3ccccc3)cc2)c2c(N)ncnc12

$$$$
