L1:P06239:72037


 39 43  0  0  0  0  0  0  0  0999 V2000
   25.3975   38.4966   84.1284 N   0  0  0  0  0  0  0  0  0  0  0  0
   24.1932   38.7949   84.6601 N   0  0  0  0  0  0  0  0  0  0  0  0
   23.3591   37.8944   84.1100 C   0  0  0  0  0  0  0  0  0  0  0  0
   24.0356   37.0595   83.1718 C   0  0  0  0  0  0  0  0  0  0  0  0
   23.7375   36.0256   82.2748 C   0  0  0  0  0  0  0  0  0  0  0  0
   22.4798   35.5260   82.0386 N   0  0  0  0  0  0  0  0  0  0  0  0
   24.7463   35.4806   81.5612 N   0  0  0  0  0  0  0  0  0  0  0  0
   25.9912   35.9679   81.7232 C   0  0  0  0  0  0  0  0  0  0  0  0
   26.3892   36.9669   82.5268 N   0  0  0  0  0  0  0  0  0  0  0  0
   25.3572   37.4699   83.2265 C   0  0  0  0  0  0  0  0  0  0  0  0
   21.6516   35.9460   82.4287 H   0  0  0  0  0  0  0  0  0  0  0  0
   22.4072   34.8078   81.3324 H   0  0  0  0  0  0  0  0  0  0  0  0
   27.4841   43.2642   85.9282 C   0  0  0  0  0  0  0  0  0  0  0  0
   26.9227   43.7329   86.9166 O   0  0  0  0  0  0  0  0  0  0  0  0
   27.1512   42.0318   85.3811 N   0  0  0  0  0  0  0  0  0  0  0  0
   26.1649   41.2086   86.0834 C   0  0  0  0  0  0  0  0  0  0  0  0
   26.5185   39.7313   85.9762 C   0  0  0  0  0  0  0  0  0  0  0  0
   26.5764   39.2700   84.5094 C   0  0  0  0  0  0  0  0  0  0  0  0
   26.7967   40.4251   83.5215 C   0  0  0  0  0  0  0  0  0  0  0  0
   27.6810   41.5090   84.1204 C   0  0  0  0  0  0  0  0  0  0  0  0
   28.8003   45.3084   85.5626 C   0  0  0  0  0  0  0  0  0  0  0  0
   28.5894   44.0137   85.2710 C   0  0  0  0  0  0  0  0  0  0  0  0
   29.8781   46.1923   84.9985 C   0  0  0  0  0  0  0  0  0  0  0  0
   28.0796   47.5712   84.1868 C   0  0  0  0  0  0  0  0  0  0  0  0
   29.4427   47.1008   83.9259 N   0  0  0  0  0  0  0  0  0  0  0  0
   30.3426   48.2559   83.8210 C   0  0  0  0  0  0  0  0  0  0  0  0
   21.9533   37.8690   84.4983 C   0  0  0  0  0  0  0  0  0  0  0  0
   21.1006   38.9283   84.1575 C   0  0  0  0  0  0  0  0  0  0  0  0
   19.7555   38.8995   84.5342 C   0  0  0  0  0  0  0  0  0  0  0  0
   19.2537   37.7980   85.2317 C   0  0  0  0  0  0  0  0  0  0  0  0
   20.0965   36.7439   85.5825 C   0  0  0  0  0  0  0  0  0  0  0  0
   21.4409   36.7732   85.2055 C   0  0  0  0  0  0  0  0  0  0  0  0
   17.9477   37.7252   85.6592 O   0  0  0  0  0  0  0  0  0  0  0  0
   17.0068   37.3114   84.7434 C   0  0  0  0  0  0  0  0  0  0  0  0
   17.1920   37.4271   83.3632 C   0  0  0  0  0  0  0  0  0  0  0  0
   16.2109   36.9544   82.4905 C   0  0  0  0  0  0  0  0  0  0  0  0
   15.0569   36.3541   82.9957 C   0  0  0  0  0  0  0  0  0  0  0  0
   14.8847   36.2183   84.3736 C   0  0  0  0  0  0  0  0  0  0  0  0
   15.8639   36.6904   85.2484 C   0  0  0  0  0  0  0  0  0  0  0  0
 24 25  1  0  0  0
 25 26  1  0  0  0
 25 23  1  0  0  0
 23 21  1  0  0  0
 21 22  2  0  0  0
 22 13  1  0  0  0
 13 14  2  0  0  0
 13 15  1  0  0  0
 15 16  1  0  0  0
 16 17  1  0  0  0
 17 18  1  0  0  0
 18  1  1  0  0  0
  1  2  1  0  0  0
  2  3  2  0  0  0
  3 27  1  0  0  0
 27 28  2  0  0  0
 28 29  1  0  0  0
 29 30  2  0  0  0
 30 33  1  0  0  0
 33 34  1  0  0  0
 34 35  2  0  0  0
 35 36  1  0  0  0
 36 37  2  0  0  0
 37 38  1  0  0  0
 38 39  2  0  0  0
 30 31  1  0  0  0
 31 32  2  0  0  0
  3  4  1  0  0  0
  4  5  2  0  0  0
  5  6  1  0  0  0
  5  7  1  0  0  0
  7  8  2  0  0  0
  8  9  1  0  0  0
  9 10  2  0  0  0
 18 19  1  0  0  0
 19 20  1  0  0  0
 20 15  1  0  0  0
 10  1  1  0  0  0
 32 27  1  0  0  0
 10  4  1  0  0  0
 39 34  1  0  0  0
  6 11  1  0  0  0
  6 12  1  0  0  0
M  END
> <minimizedAffinity>
-9.22569

$$$$
