L1:P06239:72174
 OpenBabel09212617423D

 59 62  0  0  0  0  0  0  0  0999 V2000
   25.9092   43.0818   87.4550 N   0  0  0  0  0  0  0  0  0  0  0  0
   26.3729   43.5414   88.2235 H   0  0  0  0  0  0  0  0  0  0  0  0
   22.7872   41.4711   90.7439 C   0  0  0  0  0  0  0  0  0  0  0  0
   23.1936   41.6502   89.3157 C   0  0  0  0  0  0  0  0  0  0  0  0
   24.3440   42.2908   89.0759 N   0  0  0  0  0  0  0  0  0  0  0  0
   24.6971   42.4554   87.7959 C   0  0  0  0  0  0  0  0  0  0  0  0
   23.8902   41.9931   86.7673 C   0  0  0  0  0  0  0  0  0  0  0  0
   22.6995   41.3640   87.0827 C   0  0  0  0  0  0  0  0  0  0  0  0
   22.3555   41.1970   88.3697 N   0  0  0  0  0  0  0  0  0  0  0  0
   21.8407   40.8867   86.1149 N   0  0  0  0  0  0  0  0  0  0  0  0
   22.4130   40.2697   84.9067 C   0  0  0  0  0  0  0  0  0  0  0  0
   21.4085   40.3293   83.7317 C   0  0  0  0  0  0  0  0  0  0  0  0
   20.0758   39.7531   83.9983 N   0  0  0  0  0  0  0  0  0  0  0  0
   19.7616   39.7189   85.4358 C   0  0  0  0  0  0  0  0  0  0  0  0
   20.3817   40.8856   86.2425 C   0  0  0  0  0  0  0  0  0  0  0  0
   19.8329   38.4731   83.3130 C   0  0  0  0  0  0  0  0  0  0  0  0
   18.3890   37.9347   83.2496 C   0  0  0  0  0  0  0  0  0  0  0  0
   17.4348   38.9902   83.2041 O   0  0  0  0  0  0  0  0  0  0  0  0
   16.5563   38.5767   83.1471 H   0  0  0  0  0  0  0  0  0  0  0  0
   26.6043   42.9103   86.3101 C   0  0  0  0  0  0  0  0  0  0  0  0
   27.1193   43.8414   85.5383 N   0  0  0  0  0  0  0  0  0  0  0  0
   27.7802   43.2791   84.4674 C   0  0  0  0  0  0  0  0  0  0  0  0
   27.7600   41.9020   84.4037 C   0  0  0  0  0  0  0  0  0  0  0  0
   26.9292   41.2976   85.7764 S   0  0  0  0  0  0  0  0  0  0  0  0
   28.3238   40.9904   83.4249 C   0  0  0  0  0  0  0  0  0  0  0  0
   28.6097   41.3309   82.2797 O   0  0  0  0  0  0  0  0  0  0  0  0
   28.6064   39.7277   83.9306 N   0  0  0  0  0  0  0  0  0  0  0  0
   28.7437   39.6674   84.9290 H   0  0  0  0  0  0  0  0  0  0  0  0
   29.0003   38.6042   83.1599 C   0  0  0  0  0  0  0  0  0  0  0  0
   27.9853   37.7151   82.7327 C   0  0  0  0  0  0  0  0  0  0  0  0
   26.5346   37.9221   83.0825 C   0  0  0  0  0  0  0  0  0  0  0  0
   28.3320   36.5746   81.9870 C   0  0  0  0  0  0  0  0  0  0  0  0
   29.6575   36.3161   81.6493 C   0  0  0  0  0  0  0  0  0  0  0  0
   30.6526   37.2123   82.0251 C   0  0  0  0  0  0  0  0  0  0  0  0
   30.3320   38.3597   82.7603 C   0  0  0  0  0  0  0  0  0  0  0  0
   31.6104   39.5165   82.9453 Cl  0  0  0  0  0  0  0  0  0  0  0  0
   23.5437   41.8756   91.3834 H   0  0  0  0  0  0  0  0  0  0  0  0
   22.6644   40.4287   90.9517 H   0  0  0  0  0  0  0  0  0  0  0  0
   21.8628   41.9809   90.9183 H   0  0  0  0  0  0  0  0  0  0  0  0
   24.1735   42.1164   85.7826 H   0  0  0  0  0  0  0  0  0  0  0  0
   22.6505   39.2472   85.1138 H   0  0  0  0  0  0  0  0  0  0  0  0
   23.2956   40.8084   84.6314 H   0  0  0  0  0  0  0  0  0  0  0  0
   21.8364   39.7996   82.9063 H   0  0  0  0  0  0  0  0  0  0  0  0
   21.2436   41.3693   83.5417 H   0  0  0  0  0  0  0  0  0  0  0  0
   20.1288   38.7983   85.8389 H   0  0  0  0  0  0  0  0  0  0  0  0
   18.6992   39.8116   85.5233 H   0  0  0  0  0  0  0  0  0  0  0  0
   20.1196   40.7773   87.2742 H   0  0  0  0  0  0  0  0  0  0  0  0
   20.0025   41.8091   85.8576 H   0  0  0  0  0  0  0  0  0  0  0  0
   20.4248   37.7322   83.8086 H   0  0  0  0  0  0  0  0  0  0  0  0
   20.0837   38.6710   82.2918 H   0  0  0  0  0  0  0  0  0  0  0  0
   18.2035   37.3368   84.1173 H   0  0  0  0  0  0  0  0  0  0  0  0
   18.2881   37.3552   82.3558 H   0  0  0  0  0  0  0  0  0  0  0  0
   28.2605   43.8534   83.7571 H   0  0  0  0  0  0  0  0  0  0  0  0
   26.4291   38.8251   83.6468 H   0  0  0  0  0  0  0  0  0  0  0  0
   26.1866   37.0948   83.6650 H   0  0  0  0  0  0  0  0  0  0  0  0
   25.9578   37.9935   82.1841 H   0  0  0  0  0  0  0  0  0  0  0  0
   27.5933   35.9199   81.6858 H   0  0  0  0  0  0  0  0  0  0  0  0
   29.9009   35.4629   81.1222 H   0  0  0  0  0  0  0  0  0  0  0  0
   31.6333   37.0303   81.7603 H   0  0  0  0  0  0  0  0  0  0  0  0
  1 20  1  0  0  0  0
  1  2  1  0  0  0  0
  3  4  1  0  0  0  0
  3 37  1  0  0  0  0
  3 38  1  0  0  0  0
  3 39  1  0  0  0  0
  4  5  2  0  0  0  0
  5  6  1  0  0  0  0
  6  1  1  0  0  0  0
  6  7  2  0  0  0  0
  7  8  1  0  0  0  0
  7 40  1  0  0  0  0
  8 10  1  0  0  0  0
  8  9  2  0  0  0  0
  9  4  1  0  0  0  0
 10 11  1  0  0  0  0
 11 12  1  0  0  0  0
 11 41  1  0  0  0  0
 11 42  1  0  0  0  0
 12 13  1  0  0  0  0
 12 43  1  0  0  0  0
 12 44  1  0  0  0  0
 13 16  1  0  0  0  0
 13 14  1  0  0  0  0
 14 15  1  0  0  0  0
 14 45  1  0  0  0  0
 14 46  1  0  0  0  0
 15 10  1  0  0  0  0
 15 47  1  0  0  0  0
 15 48  1  0  0  0  0
 16 17  1  0  0  0  0
 16 49  1  0  0  0  0
 16 50  1  0  0  0  0
 17 18  1  0  0  0  0
 17 51  1  0  0  0  0
 17 52  1  0  0  0  0
 18 19  1  0  0  0  0
 20 21  2  0  0  0  0
 21 22  1  0  0  0  0
 22 23  2  0  0  0  0
 22 53  1  0  0  0  0
 23 25  1  0  0  0  0
 23 24  1  0  0  0  0
 24 20  1  0  0  0  0
 25 26  2  0  0  0  0
 25 27  1  0  0  0  0
 27 29  1  0  0  0  0
 27 28  1  0  0  0  0
 29 30  2  0  0  0  0
 30 31  1  0  0  0  0
 30 32  1  0  0  0  0
 31 54  1  0  0  0  0
 31 55  1  0  0  0  0
 31 56  1  0  0  0  0
 32 33  2  0  0  0  0
 32 57  1  0  0  0  0
 33 34  1  0  0  0  0
 33 58  1  0  0  0  0
 34 35  2  0  0  0  0
 34 59  1  0  0  0  0
 35 36  1  0  0  0  0
 35 29  1  0  0  0  0
M  END
>  <minimizedAffinity>
-8.28620

$$$$
