L4:P50052:110461
     RDKit          3D

 55 58  0  0  0  0  0  0  0  0999 V2000
    8.1184   -1.9139   -0.5160 C   0  0  0  0  0  0  0  0  0  0  0  0
    6.6979   -1.7412   -0.9110 C   0  0  0  0  0  0  0  0  0  0  0  0
    5.7105   -2.6897   -1.0755 C   0  0  0  0  0  0  0  0  0  0  0  0
    4.4725   -2.2095   -1.4532 N   0  0  0  0  0  0  0  0  0  0  0  0
    4.5218   -0.8956   -1.5657 C   0  0  0  0  0  0  0  0  0  0  0  0
    3.3492   -0.0308   -1.9630 C   0  0  0  0  0  0  0  0  0  0  0  0
    2.7752    0.7412   -0.8423 N   0  0  0  0  0  0  0  0  0  0  0  0
    1.8421    1.7675   -1.3666 C   0  0  0  0  0  0  0  0  0  0  0  0
    0.7460    2.2067   -0.3677 C   0  0  0  0  0  0  0  0  0  0  0  0
   -0.0784    1.0525    0.0201 N   0  0  0  0  0  0  0  0  0  0  0  0
   -1.4258    1.1735    0.3352 C   0  0  0  0  0  0  0  0  0  0  0  0
   -2.3274    0.1967   -0.1444 C   0  0  0  0  0  0  0  0  0  0  0  0
   -3.7111    0.2387    0.1048 C   0  0  0  0  0  0  0  0  0  0  0  0
   -4.6191   -0.8371   -0.4423 C   0  0  0  0  0  0  0  0  0  0  0  0
   -4.4623   -2.2001    0.2602 C   0  0  0  0  0  0  0  0  0  0  0  0
   -5.2535   -3.2683   -0.4988 C   0  0  0  0  0  0  0  0  0  0  0  0
   -4.9285   -2.1512    1.7175 C   0  0  0  0  0  0  0  0  0  0  0  0
   -4.2274    1.2878    0.8608 C   0  0  0  0  0  0  0  0  0  0  0  0
   -3.3712    2.2644    1.3619 C   0  0  0  0  0  0  0  0  0  0  0  0
   -1.9844    2.2149    1.1121 C   0  0  0  0  0  0  0  0  0  0  0  0
   -1.1854    3.2433    1.7477 C   0  0  0  0  0  0  0  0  0  0  0  0
   -0.9315    4.4593    1.1549 N   0  0  0  0  0  0  0  0  0  0  0  0
   -0.2120    5.1607    2.0202 N   0  0  0  0  0  0  0  0  0  0  0  0
   -0.0911    4.3581    3.0844 N   0  0  0  0  0  0  0  0  0  0  0  0
   -0.6910    3.1636    2.9962 N   0  0  0  0  0  0  0  0  0  0  0  0
    0.5733   -0.2662   -0.0074 C   0  0  0  0  0  0  0  0  0  0  0  0
    2.1044   -0.1248    0.1576 C   0  0  0  0  0  0  0  0  0  0  0  0
    6.0576   -0.1867   -1.2407 S   0  0  0  0  0  0  0  0  0  0  0  0
    8.7879   -1.5460   -1.3003 H   0  0  0  0  0  0  0  0  0  0  0  0
    8.3337   -1.3704    0.4098 H   0  0  0  0  0  0  0  0  0  0  0  0
    8.3513   -2.9703   -0.3456 H   0  0  0  0  0  0  0  0  0  0  0  0
    5.8389   -3.7560   -0.9327 H   0  0  0  0  0  0  0  0  0  0  0  0
    3.6980    0.6595   -2.7433 H   0  0  0  0  0  0  0  0  0  0  0  0
    2.5812   -0.6630   -2.4281 H   0  0  0  0  0  0  0  0  0  0  0  0
    2.4252    2.6455   -1.6677 H   0  0  0  0  0  0  0  0  0  0  0  0
    1.3331    1.3939   -2.2664 H   0  0  0  0  0  0  0  0  0  0  0  0
    0.1342    2.9709   -0.8612 H   0  0  0  0  0  0  0  0  0  0  0  0
    1.2183    2.6485    0.5167 H   0  0  0  0  0  0  0  0  0  0  0  0
   -1.9500   -0.6160   -0.7615 H   0  0  0  0  0  0  0  0  0  0  0  0
   -4.4008   -0.9436   -1.5134 H   0  0  0  0  0  0  0  0  0  0  0  0
   -5.6649   -0.5071   -0.3866 H   0  0  0  0  0  0  0  0  0  0  0  0
   -3.4063   -2.4984    0.2510 H   0  0  0  0  0  0  0  0  0  0  0  0
   -5.1320   -4.2501   -0.0289 H   0  0  0  0  0  0  0  0  0  0  0  0
   -4.9039   -3.3493   -1.5335 H   0  0  0  0  0  0  0  0  0  0  0  0
   -6.3229   -3.0320   -0.5190 H   0  0  0  0  0  0  0  0  0  0  0  0
   -4.3160   -1.4634    2.3086 H   0  0  0  0  0  0  0  0  0  0  0  0
   -5.9722   -1.8269    1.7901 H   0  0  0  0  0  0  0  0  0  0  0  0
   -4.8495   -3.1398    2.1827 H   0  0  0  0  0  0  0  0  0  0  0  0
   -5.2915    1.3487    1.0751 H   0  0  0  0  0  0  0  0  0  0  0  0
   -3.7846    3.0679    1.9692 H   0  0  0  0  0  0  0  0  0  0  0  0
    0.4223    4.6446    3.9128 H   0  0  0  0  0  0  0  0  0  0  0  0
    0.3544   -0.7734   -0.9547 H   0  0  0  0  0  0  0  0  0  0  0  0
    0.1973   -0.8921    0.8112 H   0  0  0  0  0  0  0  0  0  0  0  0
    2.2960    0.3269    1.1403 H   0  0  0  0  0  0  0  0  0  0  0  0
    2.5541   -1.1223    0.2083 H   0  0  0  0  0  0  0  0  0  0  0  0
  1  2  1  0
  2  3  2  0
  3  4  1  0
  4  5  2  0
  5  6  1  0
  6  7  1  0
  7  8  1  0
  8  9  1  0
  9 10  1  0
 10 11  1  0
 11 12  2  0
 12 13  1  0
 13 14  1  0
 14 15  1  0
 15 16  1  0
 15 17  1  0
 13 18  2  0
 18 19  1  0
 19 20  2  0
 20 21  1  0
 21 22  1  0
 22 23  2  0
 23 24  1  0
 24 25  1  0
 10 26  1  0
 26 27  1  0
  5 28  1  0
 28  2  1  0
 27  7  1  0
 20 11  1  0
 25 21  2  0
  1 29  1  0
  1 30  1  0
  1 31  1  0
  3 32  1  0
  6 33  1  0
  6 34  1  0
  8 35  1  0
  8 36  1  0
  9 37  1  0
  9 38  1  0
 12 39  1  0
 14 40  1  0
 14 41  1  0
 15 42  1  0
 16 43  1  0
 16 44  1  0
 16 45  1  0
 17 46  1  0
 17 47  1  0
 17 48  1  0
 18 49  1  0
 19 50  1  0
 24 51  1  0
 26 52  1  0
 26 53  1  0
 27 54  1  0
 27 55  1  0
M  END
>  <mol_id>  (1) 
110461

>  <source_index>  (1) 
8

>  <layer>  (1) 
L4

>  <uniprot>  (1) 
P50052

>  <paff>  (1) 
7.4497999999999998

>  <smiles>  (1) 
Cc1cnc(CN2CCN(c3cc(CC(C)C)ccc3-c3nn[nH]n3)CC2)s1

$$$$
