L4:P50052:110461


 29 32  0  0  0  0  0  0  0  0999 V2000
   64.8076   11.9575    5.3716 C   0  0  0  0  0  0  0  0  0  0  0  0
   65.8260   11.0583    4.9826 C   0  0  0  0  0  0  0  0  0  0  0  0
   67.1427   11.1289    5.4722 C   0  0  0  0  0  0  0  0  0  0  0  0
   67.4696   12.1302    6.3828 C   0  0  0  0  0  0  0  0  0  0  0  0
   66.4982   13.0436    6.7828 C   0  0  0  0  0  0  0  0  0  0  0  0
   65.1808   12.9702    6.2856 C   0  0  0  0  0  0  0  0  0  0  0  0
   60.8593   11.3120    3.5783 N   0  0  0  0  0  0  0  0  0  0  0  0
   61.6361   10.2925    4.3241 C   0  0  0  0  0  0  0  0  0  0  0  0
   62.5522   10.8676    5.4296 C   0  0  0  0  0  0  0  0  0  0  0  0
   63.5330   11.7937    4.8443 N   0  0  0  0  0  0  0  0  0  0  0  0
   63.1289   12.4984    3.6178 C   0  0  0  0  0  0  0  0  0  0  0  0
   61.5887   12.6024    3.5272 C   0  0  0  0  0  0  0  0  0  0  0  0
   60.5240   10.7996    2.2343 C   0  0  0  0  0  0  0  0  0  0  0  0
   61.9135    5.8794    0.7354 C   0  0  0  0  0  0  0  0  0  0  0  0
   61.3303    7.0710    1.4015 C   0  0  0  0  0  0  0  0  0  0  0  0
   60.4676    7.1428    2.4750 C   0  0  0  0  0  0  0  0  0  0  0  0
   60.1008    8.4145    2.8675 N   0  0  0  0  0  0  0  0  0  0  0  0
   60.6939    9.3054    2.0954 C   0  0  0  0  0  0  0  0  0  0  0  0
   61.6996    8.6533    0.8584 S   0  0  0  0  0  0  0  0  0  0  0  0
   64.2782   14.0193    6.7154 C   0  0  0  0  0  0  0  0  0  0  0  0
   63.4099   13.8655    7.7723 N   0  0  0  0  0  0  0  0  0  0  0  0
   62.7718   15.0197    7.9104 N   0  0  0  0  0  0  0  0  0  0  0  0
   63.2953   15.8079    6.9639 N   0  0  0  0  0  0  0  0  0  0  0  0
   64.2526   15.2624    6.2020 N   0  0  0  0  0  0  0  0  0  0  0  0
   62.9857   16.7671    6.8375 H   0  0  0  0  0  0  0  0  0  0  0  0
   68.1817   10.1317    5.0169 C   0  0  0  0  0  0  0  0  0  0  0  0
   69.4579   10.7801    4.4452 C   0  0  0  0  0  0  0  0  0  0  0  0
   69.1356   11.4801    3.1226 C   0  0  0  0  0  0  0  0  0  0  0  0
   70.5740    9.7551    4.2277 C   0  0  0  0  0  0  0  0  0  0  0  0
 14 15  1  0  0  0
 15 16  2  0  0  0
 16 17  1  0  0  0
 17 18  2  0  0  0
 18 13  1  0  0  0
 13  7  1  0  0  0
  7  8  1  0  0  0
  8  9  1  0  0  0
  9 10  1  0  0  0
 10  1  1  0  0  0
  1  2  2  0  0  0
  2  3  1  0  0  0
  3 26  1  0  0  0
 26 27  1  0  0  0
 27 28  1  0  0  0
 27 29  1  0  0  0
  3  4  2  0  0  0
  4  5  1  0  0  0
  5  6  2  0  0  0
  6 20  1  0  0  0
 20 21  1  0  0  0
 21 22  2  0  0  0
 22 23  1  0  0  0
 23 24  1  0  0  0
 10 11  1  0  0  0
 11 12  1  0  0  0
 18 19  1  0  0  0
 19 15  1  0  0  0
 12  7  1  0  0  0
  6  1  1  0  0  0
 24 20  2  0  0  0
 23 25  1  0  0  0
M  END
> <minimizedAffinity>
-8.82582

$$$$
