L4:P50052:128818
     RDKit          3D

 72 76  0  0  0  0  0  0  0  0999 V2000
    8.4472   -2.7839    4.1333 N   0  0  0  0  0  0  0  0  0  0  0  0
    8.1474   -2.4169    3.0736 C   0  0  0  0  0  0  0  0  0  0  0  0
    7.7990   -1.9558    1.7613 C   0  0  0  0  0  0  0  0  0  0  0  0
    8.8167   -1.6412    0.8403 C   0  0  0  0  0  0  0  0  0  0  0  0
    8.5000   -1.1917   -0.4434 C   0  0  0  0  0  0  0  0  0  0  0  0
    7.1619   -1.0546   -0.7783 C   0  0  0  0  0  0  0  0  0  0  0  0
    6.1481   -1.3637    0.1308 C   0  0  0  0  0  0  0  0  0  0  0  0
    6.4514   -1.8182    1.4045 C   0  0  0  0  0  0  0  0  0  0  0  0
    4.8816   -1.1297   -0.4479 N   0  0  0  0  0  0  0  0  0  0  0  0
    3.6906   -1.5959    0.0714 C   0  0  0  0  0  0  0  0  0  0  0  0
    3.6439   -2.4676    0.9441 O   0  0  0  0  0  0  0  0  0  0  0  0
    2.5065   -1.0956   -0.4552 N   0  0  0  0  0  0  0  0  0  0  0  0
    1.2986   -1.8818   -0.2370 C   0  0  0  0  0  0  0  0  0  0  0  0
    0.1881   -1.4784   -1.1965 C   0  0  0  0  0  0  0  0  0  0  0  0
   -0.2315    0.0025   -1.0020 C   0  0  0  0  0  0  0  0  0  0  0  0
   -1.4036    0.0805    0.0215 C   0  0  0  0  0  0  0  0  0  0  0  0
   -2.0959    1.4437    0.0887 C   0  0  0  0  0  0  0  0  0  0  0  0
   -1.3975    2.4436   -0.1091 O   0  0  0  0  0  0  0  0  0  0  0  0
   -3.4467    1.5110    0.4750 N   0  0  0  0  0  0  0  0  0  0  0  0
   -4.0539    2.8145    0.6340 C   0  0  0  0  0  0  0  0  0  0  0  0
   -3.7984    3.8536   -0.2716 C   0  0  0  0  0  0  0  0  0  0  0  0
   -4.4039    5.1053   -0.1227 C   0  0  0  0  0  0  0  0  0  0  0  0
   -5.2740    5.3391    0.9379 C   0  0  0  0  0  0  0  0  0  0  0  0
   -5.5364    4.3226    1.8511 C   0  0  0  0  0  0  0  0  0  0  0  0
   -4.9313    3.0708    1.7000 C   0  0  0  0  0  0  0  0  0  0  0  0
   -4.3807    0.3540    0.6414 C   0  0  2  0  0  0  0  0  0  0  0  0
   -3.9876   -0.6156    1.7739 C   0  0  0  0  0  0  0  0  0  0  0  0
   -4.2855   -2.0772    1.4365 C   0  0  0  0  0  0  0  0  0  0  0  0
   -5.6589   -2.2212    0.7914 C   0  0  0  0  0  0  0  0  0  0  0  0
   -5.7953   -1.3922   -0.4820 C   0  0  0  0  0  0  0  0  0  0  0  0
   -7.0133   -0.7874   -0.4668 F   0  0  0  0  0  0  0  0  0  0  0  0
   -5.8020   -2.2222   -1.5578 F   0  0  0  0  0  0  0  0  0  0  0  0
   -4.7181   -0.3381   -0.6879 C   0  0  0  0  0  0  0  0  0  0  0  0
   -0.7599    0.4852   -2.3468 C   0  0  0  0  0  0  0  0  0  0  0  0
   -1.9125    0.3753   -2.7367 O   0  0  0  0  0  0  0  0  0  0  0  0
    0.1803    0.9900   -3.1652 O   0  0  0  0  0  0  0  0  0  0  0  0
    0.9724    0.8529   -0.5115 C   0  0  0  0  0  0  0  0  0  0  0  0
    2.3246    0.2741   -0.9303 C   0  0  0  0  0  0  0  0  0  0  0  0
    5.1045   -0.5113   -1.7689 C   0  0  0  0  0  0  0  0  0  0  0  0
    6.5927   -0.6694   -2.1050 C   0  0  0  0  0  0  0  0  0  0  0  0
    9.8626   -1.7547    1.1221 H   0  0  0  0  0  0  0  0  0  0  0  0
    9.2847   -0.9677   -1.1598 H   0  0  0  0  0  0  0  0  0  0  0  0
    5.6686   -2.0545    2.1193 H   0  0  0  0  0  0  0  0  0  0  0  0
    0.9863   -1.7436    0.8053 H   0  0  0  0  0  0  0  0  0  0  0  0
    1.5366   -2.9443   -0.3665 H   0  0  0  0  0  0  0  0  0  0  0  0
   -0.6696   -2.1499   -1.0687 H   0  0  0  0  0  0  0  0  0  0  0  0
    0.5417   -1.6419   -2.2242 H   0  0  0  0  0  0  0  0  0  0  0  0
   -2.1188   -0.7021   -0.2118 H   0  0  0  0  0  0  0  0  0  0  0  0
   -1.0239   -0.1379    1.0270 H   0  0  0  0  0  0  0  0  0  0  0  0
   -3.1435    3.7000   -1.1257 H   0  0  0  0  0  0  0  0  0  0  0  0
   -4.1931    5.8946   -0.8395 H   0  0  0  0  0  0  0  0  0  0  0  0
   -5.7413    6.3133    1.0548 H   0  0  0  0  0  0  0  0  0  0  0  0
   -6.2045    4.5050    2.6888 H   0  0  0  0  0  0  0  0  0  0  0  0
   -5.1282    2.3169    2.4569 H   0  0  0  0  0  0  0  0  0  0  0  0
   -5.3520    0.7600    0.9530 H   0  0  0  0  0  0  0  0  0  0  0  0
   -4.5565   -0.3380    2.6719 H   0  0  0  0  0  0  0  0  0  0  0  0
   -2.9411   -0.5178    2.0722 H   0  0  0  0  0  0  0  0  0  0  0  0
   -4.2370   -2.6807    2.3500 H   0  0  0  0  0  0  0  0  0  0  0  0
   -3.5169   -2.4687    0.7595 H   0  0  0  0  0  0  0  0  0  0  0  0
   -5.8461   -3.2776    0.5681 H   0  0  0  0  0  0  0  0  0  0  0  0
   -6.4238   -1.9099    1.5134 H   0  0  0  0  0  0  0  0  0  0  0  0
   -3.8501   -0.8073   -1.1540 H   0  0  0  0  0  0  0  0  0  0  0  0
   -5.0754    0.4064   -1.4104 H   0  0  0  0  0  0  0  0  0  0  0  0
   -0.3204    1.2516   -3.9673 H   0  0  0  0  0  0  0  0  0  0  0  0
    0.9094    1.8844   -0.8772 H   0  0  0  0  0  0  0  0  0  0  0  0
    0.9628    0.9127    0.5851 H   0  0  0  0  0  0  0  0  0  0  0  0
    3.1127    0.9098   -0.5156 H   0  0  0  0  0  0  0  0  0  0  0  0
    2.4179    0.2638   -2.0205 H   0  0  0  0  0  0  0  0  0  0  0  0
    4.4580   -0.9681   -2.5250 H   0  0  0  0  0  0  0  0  0  0  0  0
    4.8683    0.5552   -1.6968 H   0  0  0  0  0  0  0  0  0  0  0  0
    6.7447   -1.4776   -2.8280 H   0  0  0  0  0  0  0  0  0  0  0  0
    7.0194    0.2598   -2.4933 H   0  0  0  0  0  0  0  0  0  0  0  0
  1  2  3  0
  2  3  1  0
  3  4  2  0
  4  5  1  0
  5  6  2  0
  6  7  1  0
  7  8  2  0
  7  9  1  0
  9 10  1  0
 10 11  2  0
 10 12  1  0
 12 13  1  0
 13 14  1  0
 14 15  1  0
 15 16  1  0
 16 17  1  0
 17 18  2  0
 17 19  1  0
 19 20  1  0
 20 21  2  0
 21 22  1  0
 22 23  2  0
 23 24  1  0
 24 25  2  0
 19 26  1  0
 26 27  1  0
 27 28  1  0
 28 29  1  0
 29 30  1  0
 30 31  1  0
 30 32  1  0
 30 33  1  0
 15 34  1  0
 34 35  2  0
 34 36  1  0
 15 37  1  0
 37 38  1  0
  9 39  1  0
 39 40  1  0
  8  3  1  0
 38 12  1  0
 40  6  1  0
 25 20  1  0
 33 26  1  0
  4 41  1  0
  5 42  1  0
  8 43  1  0
 13 44  1  0
 13 45  1  0
 14 46  1  0
 14 47  1  0
 16 48  1  0
 16 49  1  0
 21 50  1  0
 22 51  1  0
 23 52  1  0
 24 53  1  0
 25 54  1  0
 26 55  1  1
 27 56  1  0
 27 57  1  0
 28 58  1  0
 28 59  1  0
 29 60  1  0
 29 61  1  0
 33 62  1  0
 33 63  1  0
 36 64  1  0
 37 65  1  0
 37 66  1  0
 38 67  1  0
 38 68  1  0
 39 69  1  0
 39 70  1  0
 40 71  1  0
 40 72  1  0
M  END
>  <mol_id>  (1) 
128818

>  <source_index>  (1) 
9

>  <layer>  (1) 
L4

>  <uniprot>  (1) 
P50052

>  <paff>  (1) 
8.8728999999999996

>  <smiles>  (1) 
N#Cc1ccc2c(c1)N(C(=O)N1CCC(CC(=O)N(c3ccccc3)C3CCCC(F)(F)C3)(C(=O)O)CC1)CC2

$$$$
