L4:P50052:128818
 OpenBabel09212617563D

 72 76  0  0  0  0  0  0  0  0999 V2000
   55.7195   15.6219    3.5775 C   0  0  0  0  0  0  0  0  0  0  0  0
   54.6437   15.2491    2.7489 C   0  0  0  0  0  0  0  0  0  0  0  0
   54.6946   14.0678    2.0058 C   0  0  0  0  0  0  0  0  0  0  0  0
   55.8243   13.2722    2.1161 C   0  0  0  0  0  0  0  0  0  0  0  0
   56.8939   13.6357    2.9369 C   0  0  0  0  0  0  0  0  0  0  0  0
   56.8570   14.8099    3.6723 C   0  0  0  0  0  0  0  0  0  0  0  0
   57.9102   12.6570    2.8813 N   0  0  0  0  0  0  0  0  0  0  0  0
   59.1978   12.8452    3.3419 C   0  0  0  0  0  0  0  0  0  0  0  0
   59.6486   13.9620    3.6124 O   0  0  0  0  0  0  0  0  0  0  0  0
   60.0237   11.7333    3.4489 N   0  0  0  0  0  0  0  0  0  0  0  0
   61.4601   11.9759    3.4994 C   0  0  0  0  0  0  0  0  0  0  0  0
   62.2514   10.7147    3.1837 C   0  0  0  0  0  0  0  0  0  0  0  0
   61.9771    9.5891    4.2155 C   0  0  0  0  0  0  0  0  0  0  0  0
   60.5346    9.7038    4.7805 C   0  0  0  0  0  0  0  0  0  0  0  0
   59.5678   10.3952    3.8182 C   0  0  0  0  0  0  0  0  0  0  0  0
   57.4016   11.5346    2.0696 C   0  0  0  0  0  0  0  0  0  0  0  0
   56.1289   12.0181    1.3632 C   0  0  0  0  0  0  0  0  0  0  0  0
   62.2015    8.2690    3.4893 C   0  0  0  0  0  0  0  0  0  0  0  0
   61.7267    7.1912    3.8142 O   0  0  0  0  0  0  0  0  0  0  0  0
   63.0682    8.3387    2.4634 O   0  0  0  0  0  0  0  0  0  0  0  0
   63.0924    7.4231    2.1119 H   0  0  0  0  0  0  0  0  0  0  0  0
   55.5677   17.8253    4.9393 N   0  0  0  0  0  0  0  0  0  0  0  0
   55.6461   16.8400    4.3306 C   0  0  0  0  0  0  0  0  0  0  0  0
   63.0203    9.6765    5.3696 C   0  0  0  0  0  0  0  0  0  0  0  0
   64.4731    9.7913    4.9025 C   0  0  0  0  0  0  0  0  0  0  0  0
   64.9991    8.7761    4.4341 O   0  0  0  0  0  0  0  0  0  0  0  0
   65.1737   10.9910    5.1226 N   0  0  0  0  0  0  0  0  0  0  0  0
   64.5904   12.2852    5.5952 C   0  0  2  0  0  0  0  0  0  0  0  0
   64.5251   13.3801    4.5116 C   0  0  0  0  0  0  0  0  0  0  0  0
   64.7985   14.7803    5.0627 C   0  0  0  0  0  0  0  0  0  0  0  0
   64.0610   15.0047    6.3776 C   0  0  0  0  0  0  0  0  0  0  0  0
   64.4427   13.9815    7.4427 C   0  0  0  0  0  0  0  0  0  0  0  0
   63.3062   13.5796    8.0724 F   0  0  0  0  0  0  0  0  0  0  0  0
   65.2037   14.5863    8.3921 F   0  0  0  0  0  0  0  0  0  0  0  0
   65.1870   12.7582    6.9295 C   0  0  0  0  0  0  0  0  0  0  0  0
   66.5756   11.0451    4.7694 C   0  0  0  0  0  0  0  0  0  0  0  0
   67.5345   10.3036    5.4735 C   0  0  0  0  0  0  0  0  0  0  0  0
   68.8853   10.3457    5.1144 C   0  0  0  0  0  0  0  0  0  0  0  0
   69.3000   11.1338    4.0450 C   0  0  0  0  0  0  0  0  0  0  0  0
   68.3647   11.8819    3.3367 C   0  0  0  0  0  0  0  0  0  0  0  0
   67.0138   11.8376    3.6961 C   0  0  0  0  0  0  0  0  0  0  0  0
   53.8099   15.8544    2.6902 H   0  0  0  0  0  0  0  0  0  0  0  0
   53.9121   13.7945    1.3910 H   0  0  0  0  0  0  0  0  0  0  0  0
   57.6494   15.0798    4.2759 H   0  0  0  0  0  0  0  0  0  0  0  0
   61.7212   12.3134    4.4806 H   0  0  0  0  0  0  0  0  0  0  0  0
   61.7012   12.7156    2.7648 H   0  0  0  0  0  0  0  0  0  0  0  0
   63.2954   10.9487    3.1958 H   0  0  0  0  0  0  0  0  0  0  0  0
   61.9471   10.3637    2.2198 H   0  0  0  0  0  0  0  0  0  0  0  0
   60.5688   10.2650    5.6908 H   0  0  0  0  0  0  0  0  0  0  0  0
   60.1728    8.7091    4.9371 H   0  0  0  0  0  0  0  0  0  0  0  0
   58.6102   10.4745    4.2889 H   0  0  0  0  0  0  0  0  0  0  0  0
   59.5140    9.8072    2.9258 H   0  0  0  0  0  0  0  0  0  0  0  0
   57.1752   10.7004    2.7003 H   0  0  0  0  0  0  0  0  0  0  0  0
   58.1346   11.2229    1.3552 H   0  0  0  0  0  0  0  0  0  0  0  0
   55.3364   11.3051    1.4556 H   0  0  0  0  0  0  0  0  0  0  0  0
   56.2440   12.1607    0.3090 H   0  0  0  0  0  0  0  0  0  0  0  0
   62.9304    8.7948    5.9692 H   0  0  0  0  0  0  0  0  0  0  0  0
   62.8021   10.5735    5.9106 H   0  0  0  0  0  0  0  0  0  0  0  0
   63.5631   12.0716    5.8048 H   0  0  0  0  0  0  0  0  0  0  0  0
   63.5485   13.3700    4.0745 H   0  0  0  0  0  0  0  0  0  0  0  0
   65.2862   13.1645    3.7911 H   0  0  0  0  0  0  0  0  0  0  0  0
   64.4704   15.5071    4.3493 H   0  0  0  0  0  0  0  0  0  0  0  0
   65.8491   14.8768    5.2409 H   0  0  0  0  0  0  0  0  0  0  0  0
   63.0086   14.9359    6.1970 H   0  0  0  0  0  0  0  0  0  0  0  0
   64.3346   15.9724    6.7431 H   0  0  0  0  0  0  0  0  0  0  0  0
   65.1081   11.9705    7.6493 H   0  0  0  0  0  0  0  0  0  0  0  0
   66.2139   13.0171    6.7767 H   0  0  0  0  0  0  0  0  0  0  0  0
   67.2388    9.7173    6.2696 H   0  0  0  0  0  0  0  0  0  0  0  0
   69.5762    9.7911    5.6436 H   0  0  0  0  0  0  0  0  0  0  0  0
   70.2966   11.1632    3.7785 H   0  0  0  0  0  0  0  0  0  0  0  0
   68.6683   12.4703    2.5451 H   0  0  0  0  0  0  0  0  0  0  0  0
   66.3282   12.3961    3.1641 H   0  0  0  0  0  0  0  0  0  0  0  0
  1  2  2  0  0  0  0
  2  3  1  0  0  0  0
  2 42  1  0  0  0  0
  3  4  2  0  0  0  0
  3 43  1  0  0  0  0
  4  5  1  0  0  0  0
  5  6  2  0  0  0  0
  5  7  1  0  0  0  0
  6  1  1  0  0  0  0
  6 44  1  0  0  0  0
  7  8  1  0  0  0  0
  7 16  1  0  0  0  0
  8  9  2  0  0  0  0
  8 10  1  0  0  0  0
 10 11  1  0  0  0  0
 11 12  1  0  0  0  0
 11 45  1  0  0  0  0
 11 46  1  0  0  0  0
 12 13  1  0  0  0  0
 12 47  1  0  0  0  0
 12 48  1  0  0  0  0
 13 24  1  0  0  0  0
 13 18  1  0  0  0  0
 13 14  1  0  0  0  0
 14 15  1  0  0  0  0
 14 49  1  0  0  0  0
 14 50  1  0  0  0  0
 15 10  1  0  0  0  0
 15 51  1  0  0  0  0
 15 52  1  0  0  0  0
 16 17  1  0  0  0  0
 16 53  1  0  0  0  0
 16 54  1  0  0  0  0
 17  4  1  0  0  0  0
 17 55  1  0  0  0  0
 17 56  1  0  0  0  0
 18 19  2  0  0  0  0
 18 20  1  0  0  0  0
 20 21  1  0  0  0  0
 22 23  3  0  0  0  0
 23  1  1  0  0  0  0
 24 25  1  0  0  0  0
 24 57  1  0  0  0  0
 24 58  1  0  0  0  0
 25 26  2  0  0  0  0
 25 27  1  0  0  0  0
 27 36  1  0  0  0  0
 27 28  1  0  0  0  0
 28 29  1  0  0  0  0
 28 59  1  1  0  0  0
 29 30  1  0  0  0  0
 29 60  1  0  0  0  0
 29 61  1  0  0  0  0
 30 31  1  0  0  0  0
 30 62  1  0  0  0  0
 30 63  1  0  0  0  0
 31 32  1  0  0  0  0
 31 64  1  0  0  0  0
 31 65  1  0  0  0  0
 32 33  1  0  0  0  0
 32 34  1  0  0  0  0
 32 35  1  0  0  0  0
 35 28  1  0  0  0  0
 35 66  1  0  0  0  0
 35 67  1  0  0  0  0
 36 37  2  0  0  0  0
 37 38  1  0  0  0  0
 37 68  1  0  0  0  0
 38 39  2  0  0  0  0
 38 69  1  0  0  0  0
 39 40  1  0  0  0  0
 39 70  1  0  0  0  0
 40 41  2  0  0  0  0
 40 71  1  0  0  0  0
 41 36  1  0  0  0  0
 41 72  1  0  0  0  0
M  END
>  <minimizedAffinity>
-9.74403

$$$$
