L4:P50052:13708
     RDKit          3D

 80 86  0  0  0  0  0  0  0  0999 V2000
    0.5424    4.7885    2.4482 C   0  0  0  0  0  0  0  0  0  0  0  0
    1.1335    3.3978    2.6189 C   0  0  0  0  0  0  0  0  0  0  0  0
    0.1931    2.3496    2.0406 C   0  0  0  0  0  0  0  0  0  0  0  0
   -0.7227    1.9025    2.8413 N   0  0  0  0  0  0  0  0  0  0  0  0
   -1.6379    0.9633    2.3664 C   0  0  0  0  0  0  0  0  0  0  0  0
   -2.6058    0.4608    3.2281 C   0  0  0  0  0  0  0  0  0  0  0  0
   -3.5505   -0.4745    2.7792 C   0  0  0  0  0  0  0  0  0  0  0  0
   -3.5550   -0.9453    1.4556 C   0  0  0  0  0  0  0  0  0  0  0  0
   -4.5567   -1.8874    0.9890 N   0  0  0  0  0  0  0  0  0  0  0  0
   -4.7075   -2.0920   -0.4643 C   0  0  0  0  0  0  0  0  0  0  0  0
   -5.2850   -0.9284   -1.2491 C   0  0  0  0  0  0  0  0  0  0  0  0
   -5.1792   -0.9514   -2.6501 C   0  0  0  0  0  0  0  0  0  0  0  0
   -5.7082    0.0817   -3.4261 C   0  0  0  0  0  0  0  0  0  0  0  0
   -6.3565    1.1508   -2.8142 C   0  0  0  0  0  0  0  0  0  0  0  0
   -6.4774    1.1862   -1.4276 C   0  0  0  0  0  0  0  0  0  0  0  0
   -5.9490    0.1528   -0.6503 C   0  0  0  0  0  0  0  0  0  0  0  0
   -5.2633   -2.7198    1.8982 C   0  0  0  0  0  0  0  0  0  0  0  0
   -4.8719   -2.9233    3.0480 O   0  0  0  0  0  0  0  0  0  0  0  0
   -6.4870   -3.3614    1.4252 C   0  0  0  0  0  0  0  0  0  0  0  0
   -7.6065   -2.8046    0.8345 C   0  0  0  0  0  0  0  0  0  0  0  0
   -8.6000   -3.7796    0.5254 C   0  0  0  0  0  0  0  0  0  0  0  0
   -8.2176   -5.0444    0.9107 C   0  0  0  0  0  0  0  0  0  0  0  0
   -6.6749   -5.0518    1.6478 S   0  0  0  0  0  0  0  0  0  0  0  0
   -2.5810   -0.4133    0.5951 C   0  0  0  0  0  0  0  0  0  0  0  0
   -1.6353    0.5198    1.0554 C   0  0  0  0  0  0  0  0  0  0  0  0
   -0.5993    1.0589    0.1595 C   0  0  0  0  0  0  0  0  0  0  0  0
   -0.5906    0.7038   -1.0174 O   0  0  0  0  0  0  0  0  0  0  0  0
    0.3166    1.9524    0.7207 N   0  0  0  0  0  0  0  0  0  0  0  0
    1.3866    2.4373   -0.1618 C   0  0  0  0  0  0  0  0  0  0  0  0
    2.7013    1.6489    0.0108 C   0  0  0  0  0  0  0  0  0  0  0  0
    2.6233    0.2249   -0.5804 C   0  0  0  0  0  0  0  0  0  0  0  0
    3.9417   -0.2708   -1.1835 C   0  0  0  0  0  0  0  0  0  0  0  0
    5.0654    0.2632   -0.4284 N   0  0  0  0  0  0  0  0  0  0  0  0
    6.2142   -0.5029   -0.2573 C   0  0  0  0  0  0  0  0  0  0  0  0
    6.5999   -0.7811    1.0694 C   0  0  0  0  0  0  0  0  0  0  0  0
    7.7008   -1.5863    1.3657 C   0  0  0  0  0  0  0  0  0  0  0  0
    8.4490   -2.1359    0.3344 C   0  0  0  0  0  0  0  0  0  0  0  0
    8.1015   -1.8639   -0.9884 C   0  0  0  0  0  0  0  0  0  0  0  0
    6.9996   -1.0397   -1.3028 C   0  0  0  0  0  0  0  0  0  0  0  0
    6.7592   -0.7436   -2.7102 C   0  0  0  0  0  0  0  0  0  0  0  0
    6.3719    0.4949   -3.1749 N   0  0  0  0  0  0  0  0  0  0  0  0
    6.2830    0.4039   -4.4939 N   0  0  0  0  0  0  0  0  0  0  0  0
    6.6349   -0.8559   -4.7654 N   0  0  0  0  0  0  0  0  0  0  0  0
    6.9569   -1.6214   -3.7143 N   0  0  0  0  0  0  0  0  0  0  0  0
    5.2040    1.7089   -0.2805 C   0  0  0  0  0  0  0  0  0  0  0  0
    3.8839    2.4188   -0.5936 C   0  0  0  0  0  0  0  0  0  0  0  0
   -0.4240    4.8681    2.9572 H   0  0  0  0  0  0  0  0  0  0  0  0
    0.3793    5.0290    1.3932 H   0  0  0  0  0  0  0  0  0  0  0  0
    1.2136    5.5415    2.8723 H   0  0  0  0  0  0  0  0  0  0  0  0
    2.1255    3.3556    2.1673 H   0  0  0  0  0  0  0  0  0  0  0  0
    1.2650    3.1932    3.6882 H   0  0  0  0  0  0  0  0  0  0  0  0
   -2.6350    0.8013    4.2604 H   0  0  0  0  0  0  0  0  0  0  0  0
   -4.2957   -0.7950    3.5027 H   0  0  0  0  0  0  0  0  0  0  0  0
   -3.7239   -2.3673   -0.8653 H   0  0  0  0  0  0  0  0  0  0  0  0
   -5.3273   -2.9690   -0.6733 H   0  0  0  0  0  0  0  0  0  0  0  0
   -4.6769   -1.7777   -3.1498 H   0  0  0  0  0  0  0  0  0  0  0  0
   -5.6118    0.0525   -4.5084 H   0  0  0  0  0  0  0  0  0  0  0  0
   -6.7655    1.9571   -3.4172 H   0  0  0  0  0  0  0  0  0  0  0  0
   -6.9812    2.0217   -0.9480 H   0  0  0  0  0  0  0  0  0  0  0  0
   -6.0586    0.2135    0.4299 H   0  0  0  0  0  0  0  0  0  0  0  0
   -7.7188   -1.7464    0.6365 H   0  0  0  0  0  0  0  0  0  0  0  0
   -9.5511   -3.5613    0.0547 H   0  0  0  0  0  0  0  0  0  0  0  0
   -8.7742   -5.9660    0.8074 H   0  0  0  0  0  0  0  0  0  0  0  0
   -2.5132   -0.7061   -0.4477 H   0  0  0  0  0  0  0  0  0  0  0  0
    1.5569    3.4965    0.0531 H   0  0  0  0  0  0  0  0  0  0  0  0
    1.0629    2.3962   -1.2087 H   0  0  0  0  0  0  0  0  0  0  0  0
    2.9029    1.5384    1.0850 H   0  0  0  0  0  0  0  0  0  0  0  0
    1.8615    0.1589   -1.3642 H   0  0  0  0  0  0  0  0  0  0  0  0
    2.3049   -0.4616    0.2147 H   0  0  0  0  0  0  0  0  0  0  0  0
    3.9990    0.0514   -2.2291 H   0  0  0  0  0  0  0  0  0  0  0  0
    3.9375   -1.3680   -1.1836 H   0  0  0  0  0  0  0  0  0  0  0  0
    6.0068   -0.3801    1.8890 H   0  0  0  0  0  0  0  0  0  0  0  0
    7.9612   -1.7896    2.4008 H   0  0  0  0  0  0  0  0  0  0  0  0
    9.3038   -2.7696    0.5545 H   0  0  0  0  0  0  0  0  0  0  0  0
    8.7083   -2.2886   -1.7867 H   0  0  0  0  0  0  0  0  0  0  0  0
    6.6594   -1.2081   -5.7180 H   0  0  0  0  0  0  0  0  0  0  0  0
    5.4951    1.9435    0.7510 H   0  0  0  0  0  0  0  0  0  0  0  0
    5.9884    2.1008   -0.9387 H   0  0  0  0  0  0  0  0  0  0  0  0
    3.9270    3.4415   -0.2011 H   0  0  0  0  0  0  0  0  0  0  0  0
    3.7544    2.5027   -1.6804 H   0  0  0  0  0  0  0  0  0  0  0  0
  1  2  1  0
  2  3  1  0
  3  4  2  0
  4  5  1  0
  5  6  2  0
  6  7  1  0
  7  8  2  0
  8  9  1  0
  9 10  1  0
 10 11  1  0
 11 12  2  0
 12 13  1  0
 13 14  2  0
 14 15  1  0
 15 16  2  0
  9 17  1  0
 17 18  2  0
 17 19  1  0
 19 20  2  0
 20 21  1  0
 21 22  2  0
 22 23  1  0
  8 24  1  0
 24 25  2  0
 25 26  1  0
 26 27  2  0
 26 28  1  0
 28 29  1  0
 29 30  1  0
 30 31  1  0
 31 32  1  0
 32 33  1  0
 33 34  1  0
 34 35  2  0
 35 36  1  0
 36 37  2  0
 37 38  1  0
 38 39  2  0
 39 40  1  0
 40 41  1  0
 41 42  2  0
 42 43  1  0
 43 44  1  0
 33 45  1  0
 45 46  1  0
 28  3  1  0
 46 30  1  0
 25  5  1  0
 39 34  1  0
 44 40  2  0
 16 11  1  0
 23 19  1  0
  1 47  1  0
  1 48  1  0
  1 49  1  0
  2 50  1  0
  2 51  1  0
  6 52  1  0
  7 53  1  0
 10 54  1  0
 10 55  1  0
 12 56  1  0
 13 57  1  0
 14 58  1  0
 15 59  1  0
 16 60  1  0
 20 61  1  0
 21 62  1  0
 22 63  1  0
 24 64  1  0
 29 65  1  0
 29 66  1  0
 30 67  1  0
 31 68  1  0
 31 69  1  0
 32 70  1  0
 32 71  1  0
 35 72  1  0
 36 73  1  0
 37 74  1  0
 38 75  1  0
 43 76  1  0
 45 77  1  0
 45 78  1  0
 46 79  1  0
 46 80  1  0
M  END
>  <mol_id>  (1) 
13708

>  <source_index>  (1) 
0

>  <layer>  (1) 
L4

>  <uniprot>  (1) 
P50052

>  <paff>  (1) 
6.9913999999999996

>  <smiles>  (1) 
CCc1nc2ccc(N(Cc3ccccc3)C(=O)c3cccs3)cc2c(=O)n1CC1CCN(c2ccccc2-c2nn[nH]n2)CC1

$$$$
