L4:P50052:13708
 OpenBabel09212617543D

 80 86  0  0  0  0  0  0  0  0999 V2000
   67.2231   10.6697    5.1825 C   0  0  0  0  0  0  0  0  0  0  0  0
   66.4599    9.6272    5.2851 N   0  0  0  0  0  0  0  0  0  0  0  0
   65.1370    9.7110    4.8513 C   0  0  0  0  0  0  0  0  0  0  0  0
   64.3215    8.5886    4.9347 C   0  0  0  0  0  0  0  0  0  0  0  0
   62.9821    8.6422    4.5202 C   0  0  0  0  0  0  0  0  0  0  0  0
   62.4143    9.8176    4.0010 C   0  0  0  0  0  0  0  0  0  0  0  0
   63.2481   10.9459    3.9407 C   0  0  0  0  0  0  0  0  0  0  0  0
   64.5906   10.8812    4.3537 C   0  0  0  0  0  0  0  0  0  0  0  0
   65.4711   12.0575    4.2677 C   0  0  0  0  0  0  0  0  0  0  0  0
   65.0048   13.1178    3.8559 O   0  0  0  0  0  0  0  0  0  0  0  0
   66.7982   11.8821    4.6681 N   0  0  0  0  0  0  0  0  0  0  0  0
   61.0181    9.8752    3.6059 N   0  0  0  0  0  0  0  0  0  0  0  0
   60.2475   11.0533    3.7984 C   0  0  0  0  0  0  0  0  0  0  0  0
   60.5954   11.9520    4.5652 O   0  0  0  0  0  0  0  0  0  0  0  0
   58.9917   11.1743    3.0628 C   0  0  0  0  0  0  0  0  0  0  0  0
   57.6954   10.9336    3.4798 C   0  0  0  0  0  0  0  0  0  0  0  0
   56.7403   11.1615    2.4458 C   0  0  0  0  0  0  0  0  0  0  0  0
   57.3390   11.5457    1.2675 C   0  0  0  0  0  0  0  0  0  0  0  0
   59.0414   11.6214    1.4075 S   0  0  0  0  0  0  0  0  0  0  0  0
   60.3613    8.6320    3.1590 C   0  0  0  0  0  0  0  0  0  0  0  0
   60.9552    7.9629    1.9330 C   0  0  0  0  0  0  0  0  0  0  0  0
   61.2033    6.5807    1.9824 C   0  0  0  0  0  0  0  0  0  0  0  0
   61.7310    5.9072    0.8791 C   0  0  0  0  0  0  0  0  0  0  0  0
   62.0132    6.6036   -0.2927 C   0  0  0  0  0  0  0  0  0  0  0  0
   61.7664    7.9721   -0.3620 C   0  0  0  0  0  0  0  0  0  0  0  0
   61.2379    8.6469    0.7411 C   0  0  0  0  0  0  0  0  0  0  0  0
   69.5695   10.0472    4.5966 C   0  0  0  0  0  0  0  0  0  0  0  0
   68.6430   10.5134    5.7087 C   0  0  0  0  0  0  0  0  0  0  0  0
   67.6881   13.0418    4.5196 C   0  0  0  0  0  0  0  0  0  0  0  0
   67.3045   14.2078    5.4540 C   0  0  0  0  0  0  0  0  0  0  0  0
   66.9551   13.7359    6.8818 C   0  0  0  0  0  0  0  0  0  0  0  0
   67.3643   14.7227    7.9802 C   0  0  0  0  0  0  0  0  0  0  0  0
   67.2371   16.0885    7.4937 N   0  0  0  0  0  0  0  0  0  0  0  0
   67.9656   16.4901    6.2941 C   0  0  0  0  0  0  0  0  0  0  0  0
   68.4166   15.2653    5.4935 C   0  0  0  0  0  0  0  0  0  0  0  0
   66.8415   17.1012    8.3620 C   0  0  0  0  0  0  0  0  0  0  0  0
   67.8164   18.0589    8.7063 C   0  0  0  0  0  0  0  0  0  0  0  0
   67.5227   19.1520    9.5230 C   0  0  0  0  0  0  0  0  0  0  0  0
   66.2373   19.3142   10.0199 C   0  0  0  0  0  0  0  0  0  0  0  0
   65.2561   18.3730    9.7102 C   0  0  0  0  0  0  0  0  0  0  0  0
   65.5424   17.2550    8.8975 C   0  0  0  0  0  0  0  0  0  0  0  0
   64.4777   16.2798    8.6932 C   0  0  0  0  0  0  0  0  0  0  0  0
   63.5523   16.3613    7.6750 N   0  0  0  0  0  0  0  0  0  0  0  0
   62.7684   15.2978    7.7772 N   0  0  0  0  0  0  0  0  0  0  0  0
   63.2586   14.6216    8.8198 N   0  0  0  0  0  0  0  0  0  0  0  0
   64.3242   15.1597    9.4278 N   0  0  0  0  0  0  0  0  0  0  0  0
   62.8454   13.7463    9.1283 H   0  0  0  0  0  0  0  0  0  0  0  0
   64.7056    7.7055    5.3058 H   0  0  0  0  0  0  0  0  0  0  0  0
   62.3981    7.7950    4.5989 H   0  0  0  0  0  0  0  0  0  0  0  0
   62.8689   11.8382    3.5871 H   0  0  0  0  0  0  0  0  0  0  0  0
   57.4471   10.6238    4.4324 H   0  0  0  0  0  0  0  0  0  0  0  0
   55.7213   11.0515    2.5666 H   0  0  0  0  0  0  0  0  0  0  0  0
   56.8213   11.7626    0.4015 H   0  0  0  0  0  0  0  0  0  0  0  0
   59.3393    8.8627    2.9419 H   0  0  0  0  0  0  0  0  0  0  0  0
   60.4954    7.9341    3.9589 H   0  0  0  0  0  0  0  0  0  0  0  0
   60.9926    6.0563    2.8459 H   0  0  0  0  0  0  0  0  0  0  0  0
   61.9119    4.8926    0.9324 H   0  0  0  0  0  0  0  0  0  0  0  0
   62.4044    6.1067   -1.1082 H   0  0  0  0  0  0  0  0  0  0  0  0
   61.9744    8.4893   -1.2305 H   0  0  0  0  0  0  0  0  0  0  0  0
   61.0533    9.6603    0.6786 H   0  0  0  0  0  0  0  0  0  0  0  0
   70.5627    9.9418    4.9805 H   0  0  0  0  0  0  0  0  0  0  0  0
   69.5675   10.7674    3.8053 H   0  0  0  0  0  0  0  0  0  0  0  0
   69.2302    9.1043    4.2215 H   0  0  0  0  0  0  0  0  0  0  0  0
   68.9865   11.4552    6.0828 H   0  0  0  0  0  0  0  0  0  0  0  0
   68.6456    9.7848    6.4923 H   0  0  0  0  0  0  0  0  0  0  0  0
   67.6391   13.3839    3.5069 H   0  0  0  0  0  0  0  0  0  0  0  0
   68.6765   12.7275    4.7827 H   0  0  0  0  0  0  0  0  0  0  0  0
   66.4197   14.6493    5.0454 H   0  0  0  0  0  0  0  0  0  0  0  0
   67.4543   12.8066    7.0609 H   0  0  0  0  0  0  0  0  0  0  0  0
   65.8899   13.6458    6.9268 H   0  0  0  0  0  0  0  0  0  0  0  0
   68.3805   14.5395    8.2607 H   0  0  0  0  0  0  0  0  0  0  0  0
   66.7248   14.5904    8.8278 H   0  0  0  0  0  0  0  0  0  0  0  0
   68.8262   17.0579    6.5804 H   0  0  0  0  0  0  0  0  0  0  0  0
   67.3163   17.0794    5.6809 H   0  0  0  0  0  0  0  0  0  0  0  0
   69.2860   14.8446    5.9539 H   0  0  0  0  0  0  0  0  0  0  0  0
   68.6394   15.5699    4.4923 H   0  0  0  0  0  0  0  0  0  0  0  0
   68.7763   17.9487    8.3437 H   0  0  0  0  0  0  0  0  0  0  0  0
   68.2586   19.8369    9.7564 H   0  0  0  0  0  0  0  0  0  0  0  0
   66.0090   20.1260   10.6147 H   0  0  0  0  0  0  0  0  0  0  0  0
   64.3016   18.4963   10.0826 H   0  0  0  0  0  0  0  0  0  0  0  0
  1  2  2  0  0  0  0
  2  3  1  0  0  0  0
  3  4  2  0  0  0  0
  4  5  1  0  0  0  0
  4 48  1  0  0  0  0
  5  6  2  0  0  0  0
  5 49  1  0  0  0  0
  6 12  1  0  0  0  0
  6  7  1  0  0  0  0
  7  8  2  0  0  0  0
  7 50  1  0  0  0  0
  8  9  1  0  0  0  0
  8  3  1  0  0  0  0
  9 10  2  0  0  0  0
  9 11  1  0  0  0  0
 11 29  1  0  0  0  0
 11  1  1  0  0  0  0
 12 20  1  0  0  0  0
 12 13  1  0  0  0  0
 13 14  2  0  0  0  0
 13 15  1  0  0  0  0
 15 16  2  0  0  0  0
 16 17  1  0  0  0  0
 16 51  1  0  0  0  0
 17 18  2  0  0  0  0
 17 52  1  0  0  0  0
 18 19  1  0  0  0  0
 18 53  1  0  0  0  0
 19 15  1  0  0  0  0
 20 21  1  0  0  0  0
 20 54  1  0  0  0  0
 20 55  1  0  0  0  0
 21 22  2  0  0  0  0
 22 23  1  0  0  0  0
 22 56  1  0  0  0  0
 23 24  2  0  0  0  0
 23 57  1  0  0  0  0
 24 25  1  0  0  0  0
 24 58  1  0  0  0  0
 25 26  2  0  0  0  0
 25 59  1  0  0  0  0
 26 21  1  0  0  0  0
 26 60  1  0  0  0  0
 27 28  1  0  0  0  0
 27 61  1  0  0  0  0
 27 62  1  0  0  0  0
 27 63  1  0  0  0  0
 28  1  1  0  0  0  0
 28 64  1  0  0  0  0
 28 65  1  0  0  0  0
 29 30  1  0  0  0  0
 29 66  1  0  0  0  0
 29 67  1  0  0  0  0
 30 31  1  0  0  0  0
 30 68  1  0  0  0  0
 31 32  1  0  0  0  0
 31 69  1  0  0  0  0
 31 70  1  0  0  0  0
 32 33  1  0  0  0  0
 32 71  1  0  0  0  0
 32 72  1  0  0  0  0
 33 36  1  0  0  0  0
 33 34  1  0  0  0  0
 34 35  1  0  0  0  0
 34 73  1  0  0  0  0
 34 74  1  0  0  0  0
 35 30  1  0  0  0  0
 35 75  1  0  0  0  0
 35 76  1  0  0  0  0
 36 37  2  0  0  0  0
 37 38  1  0  0  0  0
 37 77  1  0  0  0  0
 38 39  2  0  0  0  0
 38 78  1  0  0  0  0
 39 40  1  0  0  0  0
 39 79  1  0  0  0  0
 40 41  2  0  0  0  0
 40 80  1  0  0  0  0
 41 42  1  0  0  0  0
 41 36  1  0  0  0  0
 42 43  1  0  0  0  0
 43 44  2  0  0  0  0
 44 45  1  0  0  0  0
 45 46  1  0  0  0  0
 45 47  1  0  0  0  0
 46 42  2  0  0  0  0
M  END
>  <minimizedAffinity>
-13.32382

$$$$
