L4:P50052:15042
 OpenBabel09212617543D

 76 81  0  0  0  0  0  0  0  0999 V2000
   59.7696   11.7776    0.7590 C   0  0  0  0  0  0  0  0  0  0  0  0
   59.9526   10.3931    0.6264 C   0  0  0  0  0  0  0  0  0  0  0  0
   60.7719    9.6821    1.5136 C   0  0  0  0  0  0  0  0  0  0  0  0
   61.4361   10.3366    2.5476 C   0  0  0  0  0  0  0  0  0  0  0  0
   62.2275    9.5963    3.4249 N   0  0  0  0  0  0  0  0  0  0  0  0
   62.8951   10.2150    4.3479 C   0  0  0  0  0  0  0  0  0  0  0  0
   62.8665   11.5880    4.5230 N   0  0  0  0  0  0  0  0  0  0  0  0
   61.9881   12.3757    3.7718 C   0  0  0  0  0  0  0  0  0  0  0  0
   61.7567   13.5668    3.9816 O   0  0  0  0  0  0  0  0  0  0  0  0
   61.2739   11.7064    2.6739 C   0  0  0  0  0  0  0  0  0  0  0  0
   60.4639   12.4301    1.7859 C   0  0  0  0  0  0  0  0  0  0  0  0
   58.9382   12.5056   -0.1544 N   0  0  0  0  0  0  0  0  0  0  0  0
   57.7131   13.1312    0.1806 C   0  0  0  0  0  0  0  0  0  0  0  0
   57.3125   14.1030   -0.4654 O   0  0  0  0  0  0  0  0  0  0  0  0
   56.8907   12.5868    1.2578 C   0  0  0  0  0  0  0  0  0  0  0  0
   56.2477   11.3618    1.2716 C   0  0  0  0  0  0  0  0  0  0  0  0
   55.5624   11.1183    2.4967 C   0  0  0  0  0  0  0  0  0  0  0  0
   55.7442   12.1424    3.3985 C   0  0  0  0  0  0  0  0  0  0  0  0
   56.7523   13.3754    2.7756 S   0  0  0  0  0  0  0  0  0  0  0  0
   59.4291   12.7344   -1.5193 C   0  0  0  0  0  0  0  0  0  0  0  0
   59.7887   11.2813   -3.5472 C   0  0  0  0  0  0  0  0  0  0  0  0
   58.7807   11.7785   -2.5242 C   0  0  0  0  0  0  0  0  0  0  0  0
   63.6936    9.3329    5.2979 C   0  0  0  0  0  0  0  0  0  0  0  0
   65.0176    8.9413    4.6599 C   0  0  0  0  0  0  0  0  0  0  0  0
   63.6867   12.2801    5.5284 C   0  0  0  0  0  0  0  0  0  0  0  0
   65.0285   12.8186    4.9656 C   0  0  0  0  0  0  0  0  0  0  0  0
   66.1832   12.5033    5.9380 C   0  0  0  0  0  0  0  0  0  0  0  0
   66.3270   13.5676    7.0230 C   0  0  0  0  0  0  0  0  0  0  0  0
   66.5291   14.8727    6.4110 N   0  0  0  0  0  0  0  0  0  0  0  0
   66.2175   15.0960    5.0051 C   0  0  0  0  0  0  0  0  0  0  0  0
   64.9548   14.3220    4.6248 C   0  0  0  0  0  0  0  0  0  0  0  0
   66.8275   15.9653    7.2148 C   0  0  0  0  0  0  0  0  0  0  0  0
   68.0955   16.5563    7.0871 C   0  0  0  0  0  0  0  0  0  0  0  0
   68.4841   17.6310    7.8912 C   0  0  0  0  0  0  0  0  0  0  0  0
   67.6067   18.1420    8.8421 C   0  0  0  0  0  0  0  0  0  0  0  0
   66.3353   17.5868    8.9787 C   0  0  0  0  0  0  0  0  0  0  0  0
   65.9353   16.5132    8.1647 C   0  0  0  0  0  0  0  0  0  0  0  0
   64.5819   16.0166    8.3050 C   0  0  0  0  0  0  0  0  0  0  0  0
   63.5899   16.2786    7.3890 N   0  0  0  0  0  0  0  0  0  0  0  0
   62.4674   15.7840    7.8960 N   0  0  0  0  0  0  0  0  0  0  0  0
   62.8327   15.2608    9.0766 N   0  0  0  0  0  0  0  0  0  0  0  0
   64.1473   15.2865    9.3448 N   0  0  0  0  0  0  0  0  0  0  0  0
   62.1498   14.9310    9.7605 H   0  0  0  0  0  0  0  0  0  0  0  0
   59.4756    9.8895   -0.1377 H   0  0  0  0  0  0  0  0  0  0  0  0
   60.8841    8.6626    1.3993 H   0  0  0  0  0  0  0  0  0  0  0  0
   60.3787   13.4533    1.8903 H   0  0  0  0  0  0  0  0  0  0  0  0
   56.2628   10.6978    0.4817 H   0  0  0  0  0  0  0  0  0  0  0  0
   54.9976   10.2755    2.6854 H   0  0  0  0  0  0  0  0  0  0  0  0
   55.3218   12.1636    4.3398 H   0  0  0  0  0  0  0  0  0  0  0  0
   59.2043   13.7410   -1.8041 H   0  0  0  0  0  0  0  0  0  0  0  0
   60.4846   12.5593   -1.5269 H   0  0  0  0  0  0  0  0  0  0  0  0
   59.3039   10.6175   -4.2322 H   0  0  0  0  0  0  0  0  0  0  0  0
   60.5788   10.7621   -3.0462 H   0  0  0  0  0  0  0  0  0  0  0  0
   60.1931   12.1142   -4.0835 H   0  0  0  0  0  0  0  0  0  0  0  0
   58.3778   10.9395   -1.9964 H   0  0  0  0  0  0  0  0  0  0  0  0
   58.0086   12.3079   -3.0423 H   0  0  0  0  0  0  0  0  0  0  0  0
   63.1314    8.4493    5.5170 H   0  0  0  0  0  0  0  0  0  0  0  0
   63.8866    9.8750    6.2000 H   0  0  0  0  0  0  0  0  0  0  0  0
   64.8316    8.3985    3.7567 H   0  0  0  0  0  0  0  0  0  0  0  0
   65.5721    8.3265    5.3377 H   0  0  0  0  0  0  0  0  0  0  0  0
   65.5805    9.8234    4.4364 H   0  0  0  0  0  0  0  0  0  0  0  0
   63.9024   11.5940    6.3206 H   0  0  0  0  0  0  0  0  0  0  0  0
   63.1245   13.1254    5.8666 H   0  0  0  0  0  0  0  0  0  0  0  0
   65.2242   12.3137    4.0427 H   0  0  0  0  0  0  0  0  0  0  0  0
   67.0967   12.4504    5.3833 H   0  0  0  0  0  0  0  0  0  0  0  0
   65.9655   11.5716    6.4171 H   0  0  0  0  0  0  0  0  0  0  0  0
   67.1671   13.3320    7.6424 H   0  0  0  0  0  0  0  0  0  0  0  0
   65.4365   13.5899    7.6157 H   0  0  0  0  0  0  0  0  0  0  0  0
   67.0352   14.7598    4.4024 H   0  0  0  0  0  0  0  0  0  0  0  0
   66.0542   16.1407    4.8412 H   0  0  0  0  0  0  0  0  0  0  0  0
   64.8000   14.4232    3.5709 H   0  0  0  0  0  0  0  0  0  0  0  0
   64.1488   14.7349    5.1947 H   0  0  0  0  0  0  0  0  0  0  0  0
   68.7549   16.1885    6.3836 H   0  0  0  0  0  0  0  0  0  0  0  0
   69.4224   18.0458    7.7796 H   0  0  0  0  0  0  0  0  0  0  0  0
   67.8958   18.9289    9.4440 H   0  0  0  0  0  0  0  0  0  0  0  0
   65.6832   17.9668    9.6825 H   0  0  0  0  0  0  0  0  0  0  0  0
  1  2  2  0  0  0  0
  2  3  1  0  0  0  0
  2 44  1  0  0  0  0
  3  4  2  0  0  0  0
  3 45  1  0  0  0  0
  4  5  1  0  0  0  0
  5  6  2  0  0  0  0
  6 23  1  0  0  0  0
  6  7  1  0  0  0  0
  7 25  1  0  0  0  0
  7  8  1  0  0  0  0
  8  9  2  0  0  0  0
  8 10  1  0  0  0  0
 10 11  2  0  0  0  0
 10  4  1  0  0  0  0
 11  1  1  0  0  0  0
 11 46  1  0  0  0  0
 12 13  1  0  0  0  0
 12  1  1  0  0  0  0
 13 14  2  0  0  0  0
 13 15  1  0  0  0  0
 15 16  2  0  0  0  0
 16 17  1  0  0  0  0
 16 47  1  0  0  0  0
 17 18  2  0  0  0  0
 17 48  1  0  0  0  0
 18 19  1  0  0  0  0
 18 49  1  0  0  0  0
 19 15  1  0  0  0  0
 20 12  1  0  0  0  0
 20 50  1  0  0  0  0
 20 51  1  0  0  0  0
 21 22  1  0  0  0  0
 21 52  1  0  0  0  0
 21 53  1  0  0  0  0
 21 54  1  0  0  0  0
 22 20  1  0  0  0  0
 22 55  1  0  0  0  0
 22 56  1  0  0  0  0
 23 24  1  0  0  0  0
 23 57  1  0  0  0  0
 23 58  1  0  0  0  0
 24 59  1  0  0  0  0
 24 60  1  0  0  0  0
 24 61  1  0  0  0  0
 25 26  1  0  0  0  0
 25 62  1  0  0  0  0
 25 63  1  0  0  0  0
 26 27  1  0  0  0  0
 26 64  1  0  0  0  0
 27 28  1  0  0  0  0
 27 65  1  0  0  0  0
 27 66  1  0  0  0  0
 28 29  1  0  0  0  0
 28 67  1  0  0  0  0
 28 68  1  0  0  0  0
 29 32  1  0  0  0  0
 29 30  1  0  0  0  0
 30 31  1  0  0  0  0
 30 69  1  0  0  0  0
 30 70  1  0  0  0  0
 31 26  1  0  0  0  0
 31 71  1  0  0  0  0
 31 72  1  0  0  0  0
 32 33  2  0  0  0  0
 33 34  1  0  0  0  0
 33 73  1  0  0  0  0
 34 35  2  0  0  0  0
 34 74  1  0  0  0  0
 35 36  1  0  0  0  0
 35 75  1  0  0  0  0
 36 37  2  0  0  0  0
 36 76  1  0  0  0  0
 37 38  1  0  0  0  0
 37 32  1  0  0  0  0
 38 39  1  0  0  0  0
 39 40  2  0  0  0  0
 40 41  1  0  0  0  0
 41 42  1  0  0  0  0
 41 43  1  0  0  0  0
 42 38  2  0  0  0  0
M  END
>  <minimizedAffinity>
-9.11826

$$$$
