L4:P50052:15042
     RDKit          3D

 76 81  0  0  0  0  0  0  0  0999 V2000
    7.9770   -2.2130    2.1869 C   0  0  0  0  0  0  0  0  0  0  0  0
    6.9510   -1.1028    2.0300 C   0  0  0  0  0  0  0  0  0  0  0  0
    5.5229   -1.6544    2.0490 C   0  0  0  0  0  0  0  0  0  0  0  0
    4.5259   -0.5927    1.8620 N   0  0  0  0  0  0  0  0  0  0  0  0
    4.2145    0.1788    3.0076 C   0  0  0  0  0  0  0  0  0  0  0  0
    4.4435   -0.2620    4.1370 O   0  0  0  0  0  0  0  0  0  0  0  0
    3.6751    1.5269    2.8502 C   0  0  0  0  0  0  0  0  0  0  0  0
    2.6975    2.1243    3.6259 C   0  0  0  0  0  0  0  0  0  0  0  0
    2.4315    3.4671    3.2309 C   0  0  0  0  0  0  0  0  0  0  0  0
    3.2485    3.8695    2.1986 C   0  0  0  0  0  0  0  0  0  0  0  0
    4.3410    2.6410    1.7276 S   0  0  0  0  0  0  0  0  0  0  0  0
    3.8677   -0.4876    0.5927 C   0  0  0  0  0  0  0  0  0  0  0  0
    4.5235   -0.8434   -0.5953 C   0  0  0  0  0  0  0  0  0  0  0  0
    3.8780   -0.7492   -1.8356 C   0  0  0  0  0  0  0  0  0  0  0  0
    2.5602   -0.3076   -1.9194 C   0  0  0  0  0  0  0  0  0  0  0  0
    1.9542   -0.2062   -3.1710 N   0  0  0  0  0  0  0  0  0  0  0  0
    0.7082    0.1443   -3.2425 C   0  0  0  0  0  0  0  0  0  0  0  0
    0.1342    0.2829   -4.6459 C   0  0  0  0  0  0  0  0  0  0  0  0
    0.3989    1.6808   -5.1837 C   0  0  0  0  0  0  0  0  0  0  0  0
   -0.0700    0.4342   -2.1348 N   0  0  0  0  0  0  0  0  0  0  0  0
   -1.5011    0.7591   -2.2296 C   0  0  0  0  0  0  0  0  0  0  0  0
   -2.4085   -0.4900   -2.3830 C   0  0  0  0  0  0  0  0  0  0  0  0
   -3.8508   -0.0662   -2.7274 C   0  0  0  0  0  0  0  0  0  0  0  0
   -4.6698    0.2510   -1.4787 C   0  0  0  0  0  0  0  0  0  0  0  0
   -4.6845   -0.9028   -0.5914 N   0  0  0  0  0  0  0  0  0  0  0  0
   -5.4912   -0.8850    0.5390 C   0  0  0  0  0  0  0  0  0  0  0  0
   -6.6104   -1.7334    0.5688 C   0  0  0  0  0  0  0  0  0  0  0  0
   -7.4925   -1.7401    1.6525 C   0  0  0  0  0  0  0  0  0  0  0  0
   -7.2702   -0.8967    2.7363 C   0  0  0  0  0  0  0  0  0  0  0  0
   -6.1576   -0.0569    2.7419 C   0  0  0  0  0  0  0  0  0  0  0  0
   -5.2611   -0.0544    1.6596 C   0  0  0  0  0  0  0  0  0  0  0  0
   -4.0881    0.7910    1.7458 C   0  0  0  0  0  0  0  0  0  0  0  0
   -4.1459    2.1623    1.6575 N   0  0  0  0  0  0  0  0  0  0  0  0
   -2.8906    2.5934    1.6470 N   0  0  0  0  0  0  0  0  0  0  0  0
   -2.1502    1.4767    1.7234 N   0  0  0  0  0  0  0  0  0  0  0  0
   -2.8335    0.3332    1.8851 N   0  0  0  0  0  0  0  0  0  0  0  0
   -3.7172   -1.9811   -0.7503 C   0  0  0  0  0  0  0  0  0  0  0  0
   -2.3562   -1.4032   -1.1400 C   0  0  0  0  0  0  0  0  0  0  0  0
    0.5086    0.4895   -0.8626 C   0  0  0  0  0  0  0  0  0  0  0  0
   -0.0523    0.9159    0.1473 O   0  0  0  0  0  0  0  0  0  0  0  0
    1.9008    0.0288   -0.7487 C   0  0  0  0  0  0  0  0  0  0  0  0
    2.5336   -0.0707    0.4995 C   0  0  0  0  0  0  0  0  0  0  0  0
    7.8978   -2.9380    1.3705 H   0  0  0  0  0  0  0  0  0  0  0  0
    7.8383   -2.7443    3.1339 H   0  0  0  0  0  0  0  0  0  0  0  0
    8.9896   -1.7979    2.1754 H   0  0  0  0  0  0  0  0  0  0  0  0
    7.0825   -0.3743    2.8387 H   0  0  0  0  0  0  0  0  0  0  0  0
    7.1399   -0.5661    1.0936 H   0  0  0  0  0  0  0  0  0  0  0  0
    5.3421   -2.1427    3.0148 H   0  0  0  0  0  0  0  0  0  0  0  0
    5.3919   -2.4414    1.2972 H   0  0  0  0  0  0  0  0  0  0  0  0
    2.1913    1.6092    4.4347 H   0  0  0  0  0  0  0  0  0  0  0  0
    1.6903    4.1096    3.6910 H   0  0  0  0  0  0  0  0  0  0  0  0
    3.2727    4.8347    1.7110 H   0  0  0  0  0  0  0  0  0  0  0  0
    5.5602   -1.1683   -0.5940 H   0  0  0  0  0  0  0  0  0  0  0  0
    4.4125   -1.0130   -2.7453 H   0  0  0  0  0  0  0  0  0  0  0  0
   -0.9342    0.0720   -4.6827 H   0  0  0  0  0  0  0  0  0  0  0  0
    0.6250   -0.4513   -5.2959 H   0  0  0  0  0  0  0  0  0  0  0  0
   -0.0006    1.7802   -6.1976 H   0  0  0  0  0  0  0  0  0  0  0  0
   -0.0662    2.4462   -4.5547 H   0  0  0  0  0  0  0  0  0  0  0  0
    1.4733    1.8907   -5.2185 H   0  0  0  0  0  0  0  0  0  0  0  0
   -1.8154    1.3342   -1.3517 H   0  0  0  0  0  0  0  0  0  0  0  0
   -1.6429    1.4249   -3.0868 H   0  0  0  0  0  0  0  0  0  0  0  0
   -2.0439   -1.0823   -3.2309 H   0  0  0  0  0  0  0  0  0  0  0  0
   -3.8547    0.7925   -3.4086 H   0  0  0  0  0  0  0  0  0  0  0  0
   -4.3373   -0.8876   -3.2709 H   0  0  0  0  0  0  0  0  0  0  0  0
   -4.2471    1.1293   -0.9816 H   0  0  0  0  0  0  0  0  0  0  0  0
   -5.6937    0.5042   -1.7791 H   0  0  0  0  0  0  0  0  0  0  0  0
   -6.8068   -2.3865   -0.2783 H   0  0  0  0  0  0  0  0  0  0  0  0
   -8.3550   -2.4011    1.6437 H   0  0  0  0  0  0  0  0  0  0  0  0
   -7.9558   -0.8981    3.5795 H   0  0  0  0  0  0  0  0  0  0  0  0
   -5.9782    0.5875    3.6001 H   0  0  0  0  0  0  0  0  0  0  0  0
   -1.1374    1.4852    1.5933 H   0  0  0  0  0  0  0  0  0  0  0  0
   -3.6049   -2.5618    0.1740 H   0  0  0  0  0  0  0  0  0  0  0  0
   -4.0696   -2.6746   -1.5231 H   0  0  0  0  0  0  0  0  0  0  0  0
   -1.9611   -0.8526   -0.2834 H   0  0  0  0  0  0  0  0  0  0  0  0
   -1.6492   -2.2223   -1.3200 H   0  0  0  0  0  0  0  0  0  0  0  0
    1.9523    0.1527    1.3894 H   0  0  0  0  0  0  0  0  0  0  0  0
  1  2  1  0
  2  3  1  0
  3  4  1  0
  4  5  1  0
  5  6  2  0
  5  7  1  0
  7  8  2  0
  8  9  1  0
  9 10  2  0
 10 11  1  0
  4 12  1  0
 12 13  2  0
 13 14  1  0
 14 15  2  0
 15 16  1  0
 16 17  2  0
 17 18  1  0
 18 19  1  0
 17 20  1  0
 20 21  1  0
 21 22  1  0
 22 23  1  0
 23 24  1  0
 24 25  1  0
 25 26  1  0
 26 27  2  0
 27 28  1  0
 28 29  2  0
 29 30  1  0
 30 31  2  0
 31 32  1  0
 32 33  1  0
 33 34  2  0
 34 35  1  0
 35 36  1  0
 25 37  1  0
 37 38  1  0
 20 39  1  0
 39 40  2  0
 39 41  1  0
 41 42  2  0
 11  7  1  0
 42 12  1  0
 41 15  1  0
 38 22  1  0
 31 26  1  0
 36 32  2  0
  1 43  1  0
  1 44  1  0
  1 45  1  0
  2 46  1  0
  2 47  1  0
  3 48  1  0
  3 49  1  0
  8 50  1  0
  9 51  1  0
 10 52  1  0
 13 53  1  0
 14 54  1  0
 18 55  1  0
 18 56  1  0
 19 57  1  0
 19 58  1  0
 19 59  1  0
 21 60  1  0
 21 61  1  0
 22 62  1  0
 23 63  1  0
 23 64  1  0
 24 65  1  0
 24 66  1  0
 27 67  1  0
 28 68  1  0
 29 69  1  0
 30 70  1  0
 35 71  1  0
 37 72  1  0
 37 73  1  0
 38 74  1  0
 38 75  1  0
 42 76  1  0
M  END
>  <mol_id>  (1) 
15042

>  <source_index>  (1) 
1

>  <layer>  (1) 
L4

>  <uniprot>  (1) 
P50052

>  <paff>  (1) 
6.7986000000000004

>  <smiles>  (1) 
CCCN(C(=O)c1cccs1)c1ccc2nc(CC)n(CC3CCN(c4ccccc4-c4nn[nH]n4)CC3)c(=O)c2c1

$$$$
