L4:P50052:16998
 OpenBabel09212617543D

 71 75  0  0  0  0  0  0  0  0999 V2000
   63.4208   13.5552    9.1073 O   0  0  0  0  0  0  0  0  0  0  0  0
   63.9225   13.3387    8.0021 C   0  0  0  0  0  0  0  0  0  0  0  0
   63.4064   12.3363    7.1807 N   0  0  0  0  0  0  0  0  0  0  0  0
   62.3806   11.4674    7.7521 C   0  0  0  0  0  0  0  0  0  0  0  0
   62.3641   10.0845    7.1016 C   0  0  0  0  0  0  0  0  0  0  0  0
   62.2801   10.1263    5.5527 C   0  0  0  0  0  0  0  0  0  0  0  0
   62.4018   11.5788    5.0267 C   0  0  0  0  0  0  0  0  0  0  0  0
   63.5332   12.3355    5.7270 C   0  0  0  0  0  0  0  0  0  0  0  0
   65.0351   14.0234    7.5573 N   0  0  0  0  0  0  0  0  0  0  0  0
   66.1342   13.4858    6.7394 C   0  0  0  0  0  0  0  0  0  0  0  0
   67.3928   14.2878    7.0936 C   0  0  0  0  0  0  0  0  0  0  0  0
   66.8031   15.4832    7.7698 C   0  0  0  0  0  0  0  0  0  0  0  0
   67.4596   16.6422    8.1615 C   0  0  0  0  0  0  0  0  0  0  0  0
   66.7328   17.6208    8.8431 C   0  0  0  0  0  0  0  0  0  0  0  0
   65.3716   17.4285    9.1214 C   0  0  0  0  0  0  0  0  0  0  0  0
   64.7282   16.2541    8.7285 C   0  0  0  0  0  0  0  0  0  0  0  0
   63.4114   16.1458    8.9438 F   0  0  0  0  0  0  0  0  0  0  0  0
   65.4515   15.2761    8.0622 C   0  0  0  0  0  0  0  0  0  0  0  0
   63.4534    9.3185    4.9887 C   0  0  0  0  0  0  0  0  0  0  0  0
   64.2181    8.6001    5.6120 O   0  0  0  0  0  0  0  0  0  0  0  0
   63.6368    9.4910    3.6639 O   0  0  0  0  0  0  0  0  0  0  0  0
   64.4020    8.9177    3.4448 H   0  0  0  0  0  0  0  0  0  0  0  0
   61.0134    9.4311    4.9815 C   0  0  0  0  0  0  0  0  0  0  0  0
   59.7564   10.2861    4.8360 C   0  0  0  0  0  0  0  0  0  0  0  0
   59.1562   10.6490    5.8480 O   0  0  0  0  0  0  0  0  0  0  0  0
   59.3523   10.6235    3.5213 N   0  0  0  0  0  0  0  0  0  0  0  0
   60.2123   10.3622    2.3335 C   0  0  2  0  0  0  0  0  0  0  0  0
   60.0658   11.4479    1.2438 C   0  0  0  0  0  0  0  0  0  0  0  0
   60.2592   10.9022   -0.1728 C   0  0  0  0  0  0  0  0  0  0  0  0
   61.4201    9.9156   -0.2318 C   0  0  0  0  0  0  0  0  0  0  0  0
   61.2305    8.7390    0.7213 C   0  0  0  0  0  0  0  0  0  0  0  0
   60.9487    7.6193    0.0069 F   0  0  0  0  0  0  0  0  0  0  0  0
   62.4160    8.5007    1.3446 F   0  0  0  0  0  0  0  0  0  0  0  0
   60.1490    8.9324    1.7738 C   0  0  0  0  0  0  0  0  0  0  0  0
   58.0877   11.3075    3.3403 C   0  0  0  0  0  0  0  0  0  0  0  0
   56.9670   10.6774    2.7795 C   0  0  0  0  0  0  0  0  0  0  0  0
   55.7477   11.3511    2.6326 C   0  0  0  0  0  0  0  0  0  0  0  0
   55.6234   12.6720    3.0466 C   0  0  0  0  0  0  0  0  0  0  0  0
   56.7185   13.3189    3.6056 C   0  0  0  0  0  0  0  0  0  0  0  0
   57.9348   12.6422    3.7503 C   0  0  0  0  0  0  0  0  0  0  0  0
   61.4240   11.9255    7.6111 H   0  0  0  0  0  0  0  0  0  0  0  0
   62.6025   11.3381    8.7908 H   0  0  0  0  0  0  0  0  0  0  0  0
   61.5163    9.5469    7.4718 H   0  0  0  0  0  0  0  0  0  0  0  0
   63.2893    9.6092    7.3525 H   0  0  0  0  0  0  0  0  0  0  0  0
   61.4792   12.0911    5.2034 H   0  0  0  0  0  0  0  0  0  0  0  0
   62.6211   11.5398    3.9801 H   0  0  0  0  0  0  0  0  0  0  0  0
   63.5285   13.3490    5.3841 H   0  0  0  0  0  0  0  0  0  0  0  0
   64.4483   11.8358    5.4865 H   0  0  0  0  0  0  0  0  0  0  0  0
   65.9074   13.5986    5.6998 H   0  0  0  0  0  0  0  0  0  0  0  0
   66.2792   12.4436    6.9334 H   0  0  0  0  0  0  0  0  0  0  0  0
   67.9396   14.5648    6.2166 H   0  0  0  0  0  0  0  0  0  0  0  0
   68.0982   13.7510    7.6929 H   0  0  0  0  0  0  0  0  0  0  0  0
   68.4614   16.7774    7.9538 H   0  0  0  0  0  0  0  0  0  0  0  0
   67.2000   18.4905    9.1437 H   0  0  0  0  0  0  0  0  0  0  0  0
   64.8422   18.1606    9.6202 H   0  0  0  0  0  0  0  0  0  0  0  0
   60.7742    8.6140    5.6296 H   0  0  0  0  0  0  0  0  0  0  0  0
   61.2767    9.1538    3.9822 H   0  0  0  0  0  0  0  0  0  0  0  0
   61.2097   10.4354    2.7138 H   0  0  0  0  0  0  0  0  0  0  0  0
   60.7979   12.2083    1.4193 H   0  0  0  0  0  0  0  0  0  0  0  0
   59.0689   11.8317    1.3059 H   0  0  0  0  0  0  0  0  0  0  0  0
   60.4603   11.7174   -0.8361 H   0  0  0  0  0  0  0  0  0  0  0  0
   59.3655   10.3904   -0.4629 H   0  0  0  0  0  0  0  0  0  0  0  0
   62.3214   10.4290    0.0307 H   0  0  0  0  0  0  0  0  0  0  0  0
   61.4675    9.5257   -1.2271 H   0  0  0  0  0  0  0  0  0  0  0  0
   60.2995    8.2331    2.5696 H   0  0  0  0  0  0  0  0  0  0  0  0
   59.1902    8.7716    1.3268 H   0  0  0  0  0  0  0  0  0  0  0  0
   57.0424    9.6963    2.4684 H   0  0  0  0  0  0  0  0  0  0  0  0
   54.9387   10.8648    2.2154 H   0  0  0  0  0  0  0  0  0  0  0  0
   54.7249   13.1683    2.9396 H   0  0  0  0  0  0  0  0  0  0  0  0
   56.6348   14.3000    3.9146 H   0  0  0  0  0  0  0  0  0  0  0  0
   58.7389   13.1358    4.1684 H   0  0  0  0  0  0  0  0  0  0  0  0
  1  2  2  0  0  0  0
  2  3  1  0  0  0  0
  2  9  1  0  0  0  0
  3  4  1  0  0  0  0
  4  5  1  0  0  0  0
  4 41  1  0  0  0  0
  4 42  1  0  0  0  0
  5  6  1  0  0  0  0
  5 43  1  0  0  0  0
  5 44  1  0  0  0  0
  6 23  1  0  0  0  0
  6 19  1  0  0  0  0
  6  7  1  0  0  0  0
  7  8  1  0  0  0  0
  7 45  1  0  0  0  0
  7 46  1  0  0  0  0
  8  3  1  0  0  0  0
  8 47  1  0  0  0  0
  8 48  1  0  0  0  0
  9 10  1  0  0  0  0
 10 11  1  0  0  0  0
 10 49  1  0  0  0  0
 10 50  1  0  0  0  0
 11 12  1  0  0  0  0
 11 51  1  0  0  0  0
 11 52  1  0  0  0  0
 12 13  2  0  0  0  0
 13 14  1  0  0  0  0
 13 53  1  0  0  0  0
 14 15  2  0  0  0  0
 14 54  1  0  0  0  0
 15 16  1  0  0  0  0
 15 55  1  0  0  0  0
 16 17  1  0  0  0  0
 16 18  2  0  0  0  0
 18  9  1  0  0  0  0
 18 12  1  0  0  0  0
 19 20  2  0  0  0  0
 19 21  1  0  0  0  0
 21 22  1  0  0  0  0
 23 24  1  0  0  0  0
 23 56  1  0  0  0  0
 23 57  1  0  0  0  0
 24 25  2  0  0  0  0
 24 26  1  0  0  0  0
 26 35  1  0  0  0  0
 26 27  1  0  0  0  0
 27 28  1  0  0  0  0
 27 58  1  1  0  0  0
 28 29  1  0  0  0  0
 28 59  1  0  0  0  0
 28 60  1  0  0  0  0
 29 30  1  0  0  0  0
 29 61  1  0  0  0  0
 29 62  1  0  0  0  0
 30 31  1  0  0  0  0
 30 63  1  0  0  0  0
 30 64  1  0  0  0  0
 31 32  1  0  0  0  0
 31 33  1  0  0  0  0
 31 34  1  0  0  0  0
 34 27  1  0  0  0  0
 34 65  1  0  0  0  0
 34 66  1  0  0  0  0
 35 36  2  0  0  0  0
 36 37  1  0  0  0  0
 36 67  1  0  0  0  0
 37 38  2  0  0  0  0
 37 68  1  0  0  0  0
 38 39  1  0  0  0  0
 38 69  1  0  0  0  0
 39 40  2  0  0  0  0
 39 70  1  0  0  0  0
 40 35  1  0  0  0  0
 40 71  1  0  0  0  0
M  END
>  <minimizedAffinity>
-10.42198

$$$$
