L4:P50052:16998
     RDKit          3D

 71 75  0  0  0  0  0  0  0  0999 V2000
    4.5799    0.8041   -1.3065 O   0  0  0  0  0  0  0  0  0  0  0  0
    4.2290    0.4255   -0.1869 C   0  0  0  0  0  0  0  0  0  0  0  0
    2.8951    0.5363    0.2060 N   0  0  0  0  0  0  0  0  0  0  0  0
    1.9943    1.2609   -0.6869 C   0  0  0  0  0  0  0  0  0  0  0  0
    0.8210    1.8928    0.0612 C   0  0  0  0  0  0  0  0  0  0  0  0
    0.0495    0.8951    0.9653 C   0  0  0  0  0  0  0  0  0  0  0  0
   -1.4444    0.7295    0.5718 C   0  0  0  0  0  0  0  0  0  0  0  0
   -1.7408    0.2421   -0.8448 C   0  0  0  0  0  0  0  0  0  0  0  0
   -0.8040    0.0258   -1.6140 O   0  0  0  0  0  0  0  0  0  0  0  0
   -3.1008    0.0572   -1.1939 N   0  0  0  0  0  0  0  0  0  0  0  0
   -3.4246   -0.2625   -2.5697 C   0  0  0  0  0  0  0  0  0  0  0  0
   -4.4632   -1.1410   -2.9117 C   0  0  0  0  0  0  0  0  0  0  0  0
   -4.7729   -1.4203   -4.2489 C   0  0  0  0  0  0  0  0  0  0  0  0
   -4.0493   -0.8233   -5.2745 C   0  0  0  0  0  0  0  0  0  0  0  0
   -3.0157    0.0510   -4.9624 C   0  0  0  0  0  0  0  0  0  0  0  0
   -2.7095    0.3270   -3.6252 C   0  0  0  0  0  0  0  0  0  0  0  0
   -4.1950    0.1111   -0.1847 C   0  0  2  0  0  0  0  0  0  0  0  0
   -4.4707   -1.2629    0.4664 C   0  0  0  0  0  0  0  0  0  0  0  0
   -5.9372   -1.4539    0.8599 C   0  0  0  0  0  0  0  0  0  0  0  0
   -6.5123   -0.1867    1.4828 C   0  0  0  0  0  0  0  0  0  0  0  0
   -6.4117    1.0160    0.5489 C   0  0  0  0  0  0  0  0  0  0  0  0
   -7.6474    1.3312    0.0828 F   0  0  0  0  0  0  0  0  0  0  0  0
   -5.9986    2.0877    1.2780 F   0  0  0  0  0  0  0  0  0  0  0  0
   -5.4744    0.8333   -0.6355 C   0  0  0  0  0  0  0  0  0  0  0  0
    0.0151    1.4665    2.3865 C   0  0  0  0  0  0  0  0  0  0  0  0
    0.3656    0.9063    3.4125 O   0  0  0  0  0  0  0  0  0  0  0  0
   -0.5054    2.7086    2.4536 O   0  0  0  0  0  0  0  0  0  0  0  0
    0.7658   -0.4780    1.0183 C   0  0  0  0  0  0  0  0  0  0  0  0
    2.2750   -0.3155    1.2155 C   0  0  0  0  0  0  0  0  0  0  0  0
    5.1317   -0.0613    0.7365 N   0  0  0  0  0  0  0  0  0  0  0  0
    5.0950    0.1337    2.1948 C   0  0  0  0  0  0  0  0  0  0  0  0
    6.5452    0.0852    2.6921 C   0  0  0  0  0  0  0  0  0  0  0  0
    7.2367   -0.5521    1.5303 C   0  0  0  0  0  0  0  0  0  0  0  0
    8.5480   -1.0045    1.4717 C   0  0  0  0  0  0  0  0  0  0  0  0
    9.0231   -1.5131    0.2608 C   0  0  0  0  0  0  0  0  0  0  0  0
    8.1877   -1.5616   -0.8648 C   0  0  0  0  0  0  0  0  0  0  0  0
    6.8745   -1.0950   -0.7919 C   0  0  0  0  0  0  0  0  0  0  0  0
    6.0882   -1.2328   -1.8665 F   0  0  0  0  0  0  0  0  0  0  0  0
    6.4050   -0.5785    0.4066 C   0  0  0  0  0  0  0  0  0  0  0  0
    1.6526    0.5556   -1.4519 H   0  0  0  0  0  0  0  0  0  0  0  0
    2.5447    2.0503   -1.2122 H   0  0  0  0  0  0  0  0  0  0  0  0
    0.1488    2.3681   -0.6630 H   0  0  0  0  0  0  0  0  0  0  0  0
    1.2337    2.7149    0.6611 H   0  0  0  0  0  0  0  0  0  0  0  0
   -1.9498    1.6983    0.6765 H   0  0  0  0  0  0  0  0  0  0  0  0
   -1.9039    0.0297    1.2799 H   0  0  0  0  0  0  0  0  0  0  0  0
   -5.0414   -1.6620   -2.1586 H   0  0  0  0  0  0  0  0  0  0  0  0
   -5.5757   -2.1139   -4.4860 H   0  0  0  0  0  0  0  0  0  0  0  0
   -4.2851   -1.0421   -6.3124 H   0  0  0  0  0  0  0  0  0  0  0  0
   -2.4407    0.5231   -5.7551 H   0  0  0  0  0  0  0  0  0  0  0  0
   -1.9079    1.0361   -3.4315 H   0  0  0  0  0  0  0  0  0  0  0  0
   -3.8340    0.7429    0.6323 H   0  0  0  0  0  0  0  0  0  0  0  0
   -3.8481   -1.3526    1.3662 H   0  0  0  0  0  0  0  0  0  0  0  0
   -4.1589   -2.0934   -0.1760 H   0  0  0  0  0  0  0  0  0  0  0  0
   -6.0218   -2.2896    1.5639 H   0  0  0  0  0  0  0  0  0  0  0  0
   -6.5254   -1.7279   -0.0245 H   0  0  0  0  0  0  0  0  0  0  0  0
   -5.9727    0.0269    2.4137 H   0  0  0  0  0  0  0  0  0  0  0  0
   -7.5597   -0.3583    1.7553 H   0  0  0  0  0  0  0  0  0  0  0  0
   -5.2219    1.8147   -1.0549 H   0  0  0  0  0  0  0  0  0  0  0  0
   -6.0094    0.2903   -1.4189 H   0  0  0  0  0  0  0  0  0  0  0  0
   -0.4571    2.9446    3.4045 H   0  0  0  0  0  0  0  0  0  0  0  0
    0.5981   -1.0420    0.0940 H   0  0  0  0  0  0  0  0  0  0  0  0
    0.3619   -1.1004    1.8269 H   0  0  0  0  0  0  0  0  0  0  0  0
    2.4695    0.1359    2.1914 H   0  0  0  0  0  0  0  0  0  0  0  0
    2.7543   -1.3005    1.1953 H   0  0  0  0  0  0  0  0  0  0  0  0
    4.6008    1.0754    2.4541 H   0  0  0  0  0  0  0  0  0  0  0  0
    4.5358   -0.7003    2.6336 H   0  0  0  0  0  0  0  0  0  0  0  0
    6.9367    1.0954    2.8512 H   0  0  0  0  0  0  0  0  0  0  0  0
    6.6368   -0.4978    3.6127 H   0  0  0  0  0  0  0  0  0  0  0  0
    9.1963   -0.9581    2.3415 H   0  0  0  0  0  0  0  0  0  0  0  0
   10.0457   -1.8759    0.1878 H   0  0  0  0  0  0  0  0  0  0  0  0
    8.5505   -1.9716   -1.8026 H   0  0  0  0  0  0  0  0  0  0  0  0
  1  2  2  0
  2  3  1  0
  3  4  1  0
  4  5  1  0
  5  6  1  0
  6  7  1  0
  7  8  1  0
  8  9  2  0
  8 10  1  0
 10 11  1  0
 11 12  2  0
 12 13  1  0
 13 14  2  0
 14 15  1  0
 15 16  2  0
 10 17  1  0
 17 18  1  0
 18 19  1  0
 19 20  1  0
 20 21  1  0
 21 22  1  0
 21 23  1  0
 21 24  1  0
  6 25  1  0
 25 26  2  0
 25 27  1  0
  6 28  1  0
 28 29  1  0
  2 30  1  0
 30 31  1  0
 31 32  1  0
 32 33  1  0
 33 34  2  0
 34 35  1  0
 35 36  2  0
 36 37  1  0
 37 38  1  0
 37 39  2  0
 29  3  1  0
 39 30  1  0
 16 11  1  0
 24 17  1  0
 39 33  1  0
  4 40  1  0
  4 41  1  0
  5 42  1  0
  5 43  1  0
  7 44  1  0
  7 45  1  0
 12 46  1  0
 13 47  1  0
 14 48  1  0
 15 49  1  0
 16 50  1  0
 17 51  1  1
 18 52  1  0
 18 53  1  0
 19 54  1  0
 19 55  1  0
 20 56  1  0
 20 57  1  0
 24 58  1  0
 24 59  1  0
 27 60  1  0
 28 61  1  0
 28 62  1  0
 29 63  1  0
 29 64  1  0
 31 65  1  0
 31 66  1  0
 32 67  1  0
 32 68  1  0
 34 69  1  0
 35 70  1  0
 36 71  1  0
M  END
>  <mol_id>  (1) 
16998

>  <source_index>  (1) 
2

>  <layer>  (1) 
L4

>  <uniprot>  (1) 
P50052

>  <paff>  (1) 
8.5185999999999993

>  <smiles>  (1) 
O=C(N1CCC(CC(=O)N(c2ccccc2)C2CCCC(F)(F)C2)(C(=O)O)CC1)N1CCc2cccc(F)c21

$$$$
