L4:P50052:38303
     RDKit          3D

 58 61  0  0  0  0  0  0  0  0999 V2000
    7.6967    1.7722   -2.0260 C   0  0  0  0  0  0  0  0  0  0  0  0
    6.5444    1.0793   -1.3728 C   0  0  0  0  0  0  0  0  0  0  0  0
    5.4106    0.7130   -2.0961 C   0  0  0  0  0  0  0  0  0  0  0  0
    4.3704    0.0418   -1.4566 C   0  0  0  0  0  0  0  0  0  0  0  0
    4.4907   -0.2608   -0.1009 C   0  0  0  0  0  0  0  0  0  0  0  0
    3.3690   -0.9859    0.6284 C   0  0  0  0  0  0  0  0  0  0  0  0
    2.4467   -0.1079    1.3735 N   0  0  0  0  0  0  0  0  0  0  0  0
    1.6959    0.8048    0.4833 C   0  0  0  0  0  0  0  0  0  0  0  0
    0.3339    1.2693    1.0528 C   0  0  0  0  0  0  0  0  0  0  0  0
   -0.5360    0.1043    1.2888 N   0  0  0  0  0  0  0  0  0  0  0  0
   -1.9109    0.1626    1.1030 C   0  0  0  0  0  0  0  0  0  0  0  0
   -2.5543   -0.9128    0.4472 C   0  0  0  0  0  0  0  0  0  0  0  0
   -3.9322   -0.9280    0.1691 C   0  0  0  0  0  0  0  0  0  0  0  0
   -4.5576   -2.0967   -0.5538 C   0  0  0  0  0  0  0  0  0  0  0  0
   -4.1983   -2.1676   -2.0510 C   0  0  0  0  0  0  0  0  0  0  0  0
   -4.6912   -3.4917   -2.6398 C   0  0  0  0  0  0  0  0  0  0  0  0
   -4.7940   -0.9990   -2.8402 C   0  0  0  0  0  0  0  0  0  0  0  0
   -4.7047    0.1595    0.5656 C   0  0  0  0  0  0  0  0  0  0  0  0
   -4.1054    1.2244    1.2290 C   0  0  0  0  0  0  0  0  0  0  0  0
   -4.8977    2.2329    1.6288 F   0  0  0  0  0  0  0  0  0  0  0  0
   -2.7299    1.2430    1.5073 C   0  0  0  0  0  0  0  0  0  0  0  0
   -2.2344    2.3525    2.2932 C   0  0  0  0  0  0  0  0  0  0  0  0
   -1.7556    2.2022    3.5748 N   0  0  0  0  0  0  0  0  0  0  0  0
   -1.4185    3.4119    4.0000 N   0  0  0  0  0  0  0  0  0  0  0  0
   -1.7088    4.2208    2.9759 N   0  0  0  0  0  0  0  0  0  0  0  0
   -2.2012    3.6324    1.8764 N   0  0  0  0  0  0  0  0  0  0  0  0
    0.1325   -1.1540    1.6537 C   0  0  0  0  0  0  0  0  0  0  0  0
    1.5361   -0.8829    2.2442 C   0  0  0  0  0  0  0  0  0  0  0  0
    5.5963    0.0677    0.6141 N   0  0  0  0  0  0  0  0  0  0  0  0
    6.5875    0.7224   -0.0311 C   0  0  0  0  0  0  0  0  0  0  0  0
    8.4057    1.0356   -2.4161 H   0  0  0  0  0  0  0  0  0  0  0  0
    7.3548    2.4049   -2.8519 H   0  0  0  0  0  0  0  0  0  0  0  0
    8.2172    2.4214   -1.3140 H   0  0  0  0  0  0  0  0  0  0  0  0
    5.3285    0.9486   -3.1540 H   0  0  0  0  0  0  0  0  0  0  0  0
    3.4820   -0.2386   -2.0124 H   0  0  0  0  0  0  0  0  0  0  0  0
    2.8202   -1.6262   -0.0750 H   0  0  0  0  0  0  0  0  0  0  0  0
    3.8625   -1.6674    1.3344 H   0  0  0  0  0  0  0  0  0  0  0  0
    1.4910    0.3149   -0.4783 H   0  0  0  0  0  0  0  0  0  0  0  0
    2.3113    1.6882    0.2788 H   0  0  0  0  0  0  0  0  0  0  0  0
    0.4979    1.8168    1.9874 H   0  0  0  0  0  0  0  0  0  0  0  0
   -0.1192    1.9523    0.3243 H   0  0  0  0  0  0  0  0  0  0  0  0
   -1.9604   -1.7594    0.1079 H   0  0  0  0  0  0  0  0  0  0  0  0
   -4.2281   -3.0148   -0.0489 H   0  0  0  0  0  0  0  0  0  0  0  0
   -5.6486   -2.0697   -0.4324 H   0  0  0  0  0  0  0  0  0  0  0  0
   -3.1077   -2.1361   -2.1684 H   0  0  0  0  0  0  0  0  0  0  0  0
   -4.2411   -4.3417   -2.1162 H   0  0  0  0  0  0  0  0  0  0  0  0
   -5.7799   -3.5817   -2.5605 H   0  0  0  0  0  0  0  0  0  0  0  0
   -4.4206   -3.5720   -3.6980 H   0  0  0  0  0  0  0  0  0  0  0  0
   -4.5642   -1.0950   -3.9070 H   0  0  0  0  0  0  0  0  0  0  0  0
   -4.3841   -0.0415   -2.5041 H   0  0  0  0  0  0  0  0  0  0  0  0
   -5.8833   -0.9606   -2.7321 H   0  0  0  0  0  0  0  0  0  0  0  0
   -5.7734    0.1937    0.3758 H   0  0  0  0  0  0  0  0  0  0  0  0
   -1.5603    5.2241    3.0319 H   0  0  0  0  0  0  0  0  0  0  0  0
    0.2322   -1.7960    0.7703 H   0  0  0  0  0  0  0  0  0  0  0  0
   -0.4603   -1.6921    2.4033 H   0  0  0  0  0  0  0  0  0  0  0  0
    1.9909   -1.8305    2.5578 H   0  0  0  0  0  0  0  0  0  0  0  0
    1.4086   -0.3028    3.1680 H   0  0  0  0  0  0  0  0  0  0  0  0
    7.4484    0.9591    0.5886 H   0  0  0  0  0  0  0  0  0  0  0  0
  1  2  1  0
  2  3  2  0
  3  4  1  0
  4  5  2  0
  5  6  1  0
  6  7  1  0
  7  8  1  0
  8  9  1  0
  9 10  1  0
 10 11  1  0
 11 12  2  0
 12 13  1  0
 13 14  1  0
 14 15  1  0
 15 16  1  0
 15 17  1  0
 13 18  2  0
 18 19  1  0
 19 20  1  0
 19 21  2  0
 21 22  1  0
 22 23  1  0
 23 24  2  0
 24 25  1  0
 25 26  1  0
 10 27  1  0
 27 28  1  0
  5 29  1  0
 29 30  2  0
 30  2  1  0
 28  7  1  0
 21 11  1  0
 26 22  2  0
  1 31  1  0
  1 32  1  0
  1 33  1  0
  3 34  1  0
  4 35  1  0
  6 36  1  0
  6 37  1  0
  8 38  1  0
  8 39  1  0
  9 40  1  0
  9 41  1  0
 12 42  1  0
 14 43  1  0
 14 44  1  0
 15 45  1  0
 16 46  1  0
 16 47  1  0
 16 48  1  0
 17 49  1  0
 17 50  1  0
 17 51  1  0
 18 52  1  0
 25 53  1  0
 27 54  1  0
 27 55  1  0
 28 56  1  0
 28 57  1  0
 30 58  1  0
M  END
>  <mol_id>  (1) 
38303

>  <source_index>  (1) 
3

>  <layer>  (1) 
L4

>  <uniprot>  (1) 
P50052

>  <paff>  (1) 
6.1871

>  <smiles>  (1) 
Cc1ccc(CN2CCN(c3cc(CC(C)C)cc(F)c3-c3nn[nH]n3)CC2)nc1

$$$$
