L4:P50052:38303


 31 34  0  0  0  0  0  0  0  0999 V2000
   64.8149   11.9221    5.4035 C   0  0  0  0  0  0  0  0  0  0  0  0
   65.8133   11.0258    4.9560 C   0  0  0  0  0  0  0  0  0  0  0  0
   67.1516   11.0934    5.3810 C   0  0  0  0  0  0  0  0  0  0  0  0
   67.5174   12.0945    6.2758 C   0  0  0  0  0  0  0  0  0  0  0  0
   66.5632   13.0029    6.7204 C   0  0  0  0  0  0  0  0  0  0  0  0
   66.9714   13.9765    7.5512 F   0  0  0  0  0  0  0  0  0  0  0  0
   65.2262   12.9375    6.2987 C   0  0  0  0  0  0  0  0  0  0  0  0
   60.8220   11.1380    3.7982 N   0  0  0  0  0  0  0  0  0  0  0  0
   61.6994   10.1381    4.4460 C   0  0  0  0  0  0  0  0  0  0  0  0
   62.6236   10.7199    5.5426 C   0  0  0  0  0  0  0  0  0  0  0  0
   63.5106   11.7426    4.9621 N   0  0  0  0  0  0  0  0  0  0  0  0
   62.9743   12.5145    3.8307 C   0  0  0  0  0  0  0  0  0  0  0  0
   61.4279   12.4871    3.8267 C   0  0  0  0  0  0  0  0  0  0  0  0
   60.4339   10.7422    2.4309 C   0  0  0  0  0  0  0  0  0  0  0  0
   61.9825    5.4001    0.8668 C   0  0  0  0  0  0  0  0  0  0  0  0
   61.5365    6.7638    1.2864 C   0  0  0  0  0  0  0  0  0  0  0  0
   60.6196    6.9434    2.3207 C   0  0  0  0  0  0  0  0  0  0  0  0
   60.2520    8.2322    2.7018 C   0  0  0  0  0  0  0  0  0  0  0  0
   60.8205    9.3221    2.0438 C   0  0  0  0  0  0  0  0  0  0  0  0
   61.7315    9.1672    1.0501 N   0  0  0  0  0  0  0  0  0  0  0  0
   62.0658    7.9055    0.6983 C   0  0  0  0  0  0  0  0  0  0  0  0
   64.3452   13.9956    6.7440 C   0  0  0  0  0  0  0  0  0  0  0  0
   63.4700   13.8430    7.7953 N   0  0  0  0  0  0  0  0  0  0  0  0
   62.8064   14.9853    7.9076 N   0  0  0  0  0  0  0  0  0  0  0  0
   63.2997   15.7573    6.9339 N   0  0  0  0  0  0  0  0  0  0  0  0
   64.2704   15.2174    6.1831 N   0  0  0  0  0  0  0  0  0  0  0  0
   62.9565   16.7005    6.7776 H   0  0  0  0  0  0  0  0  0  0  0  0
   68.1676   10.0936    4.8834 C   0  0  0  0  0  0  0  0  0  0  0  0
   69.4922   10.7302    4.4189 C   0  0  0  0  0  0  0  0  0  0  0  0
   70.5967    9.6706    4.3977 C   0  0  0  0  0  0  0  0  0  0  0  0
   69.3665   11.3715    3.0347 C   0  0  0  0  0  0  0  0  0  0  0  0
 15 16  1  0  0  0
 16 17  2  0  0  0
 17 18  1  0  0  0
 18 19  2  0  0  0
 19 14  1  0  0  0
 14  8  1  0  0  0
  8  9  1  0  0  0
  9 10  1  0  0  0
 10 11  1  0  0  0
 11  1  1  0  0  0
  1  2  2  0  0  0
  2  3  1  0  0  0
  3 28  1  0  0  0
 28 29  1  0  0  0
 29 30  1  0  0  0
 29 31  1  0  0  0
  3  4  2  0  0  0
  4  5  1  0  0  0
  5  6  1  0  0  0
  5  7  2  0  0  0
  7 22  1  0  0  0
 22 23  1  0  0  0
 23 24  2  0  0  0
 24 25  1  0  0  0
 25 26  1  0  0  0
 11 12  1  0  0  0
 12 13  1  0  0  0
 19 20  1  0  0  0
 20 21  2  0  0  0
 21 16  1  0  0  0
 13  8  1  0  0  0
  7  1  1  0  0  0
 26 22  2  0  0  0
 25 27  1  0  0  0
M  END
> <minimizedAffinity>
-9.52102

$$$$
