L4:P50052:46537
     RDKit          3D

 61 65  0  0  0  0  0  0  0  0999 V2000
   -6.1926   -0.0821    3.0181 C   0  0  0  0  0  0  0  0  0  0  0  0
   -5.3694   -0.4314    1.7759 C   0  0  0  0  0  0  0  0  0  0  0  0
   -5.8978   -1.7269    1.1545 C   0  0  0  0  0  0  0  0  0  0  0  0
   -5.4050    0.7435    0.7789 C   0  0  0  0  0  0  0  0  0  0  0  0
   -4.4554    0.5844   -0.3844 C   0  0  0  0  0  0  0  0  0  0  0  0
   -4.9354    0.3242   -1.6645 C   0  0  0  0  0  0  0  0  0  0  0  0
   -4.0394    0.1750   -2.7162 C   0  0  0  0  0  0  0  0  0  0  0  0
   -4.5411   -0.0922   -3.9334 F   0  0  0  0  0  0  0  0  0  0  0  0
   -2.6533    0.2846   -2.5282 C   0  0  0  0  0  0  0  0  0  0  0  0
   -1.8251    0.0330   -3.6852 C   0  0  0  0  0  0  0  0  0  0  0  0
   -1.4753    1.0213   -4.5770 N   0  0  0  0  0  0  0  0  0  0  0  0
   -0.7456    0.4411   -5.5200 N   0  0  0  0  0  0  0  0  0  0  0  0
   -0.7188   -0.8518   -5.1758 N   0  0  0  0  0  0  0  0  0  0  0  0
   -1.3428   -1.1737   -4.0347 N   0  0  0  0  0  0  0  0  0  0  0  0
   -2.1291    0.5682   -1.2458 C   0  0  0  0  0  0  0  0  0  0  0  0
   -0.7769    0.7253   -0.9641 N   0  0  0  0  0  0  0  0  0  0  0  0
    0.1022    1.5283   -1.8302 C   0  0  0  0  0  0  0  0  0  0  0  0
    1.2338    2.1900   -1.0074 C   0  0  0  0  0  0  0  0  0  0  0  0
    2.0721    1.2607   -0.2152 N   0  0  0  0  0  0  0  0  0  0  0  0
    3.3349    0.9490   -0.9108 C   0  0  0  0  0  0  0  0  0  0  0  0
    4.2948    0.2051    0.0144 C   0  0  0  0  0  0  0  0  0  0  0  0
    5.0314    0.8399    0.8706 N   0  0  0  0  0  0  0  0  0  0  0  0
    5.8850    0.0880    1.6947 C   0  0  0  0  0  0  0  0  0  0  0  0
    6.6823    0.7543    2.6271 C   0  0  0  0  0  0  0  0  0  0  0  0
    7.5448    0.0409    3.4656 C   0  0  0  0  0  0  0  0  0  0  0  0
    7.6175   -1.3503    3.3784 C   0  0  0  0  0  0  0  0  0  0  0  0
    6.8273   -2.0304    2.4530 C   0  0  0  0  0  0  0  0  0  0  0  0
    5.9691   -1.3049    1.6206 C   0  0  0  0  0  0  0  0  0  0  0  0
    5.1167   -1.9813    0.6301 C   0  0  0  0  0  0  0  0  0  0  0  0
    5.1134   -3.1979    0.4866 O   0  0  0  0  0  0  0  0  0  0  0  0
    4.3212   -1.1603   -0.1258 N   0  0  0  0  0  0  0  0  0  0  0  0
    1.3147    0.0470    0.1662 C   0  0  0  0  0  0  0  0  0  0  0  0
   -0.2077    0.2733    0.3153 C   0  0  0  0  0  0  0  0  0  0  0  0
   -3.0668    0.7019   -0.1952 C   0  0  0  0  0  0  0  0  0  0  0  0
   -6.1569   -0.8957    3.7504 H   0  0  0  0  0  0  0  0  0  0  0  0
   -5.8020    0.8189    3.5028 H   0  0  0  0  0  0  0  0  0  0  0  0
   -7.2424    0.0977    2.7621 H   0  0  0  0  0  0  0  0  0  0  0  0
   -4.3356   -0.6067    2.0997 H   0  0  0  0  0  0  0  0  0  0  0  0
   -6.9206   -1.6012    0.7832 H   0  0  0  0  0  0  0  0  0  0  0  0
   -5.2698   -2.0530    0.3195 H   0  0  0  0  0  0  0  0  0  0  0  0
   -5.9042   -2.5360    1.8928 H   0  0  0  0  0  0  0  0  0  0  0  0
   -6.4286    0.8869    0.4082 H   0  0  0  0  0  0  0  0  0  0  0  0
   -5.1451    1.6774    1.2951 H   0  0  0  0  0  0  0  0  0  0  0  0
   -5.9987    0.2247   -1.8610 H   0  0  0  0  0  0  0  0  0  0  0  0
   -0.2477   -1.5461   -5.7485 H   0  0  0  0  0  0  0  0  0  0  0  0
    0.5521    0.8894   -2.5978 H   0  0  0  0  0  0  0  0  0  0  0  0
   -0.4655    2.3264   -2.3230 H   0  0  0  0  0  0  0  0  0  0  0  0
    1.8457    2.8182   -1.6664 H   0  0  0  0  0  0  0  0  0  0  0  0
    0.7705    2.8841   -0.2934 H   0  0  0  0  0  0  0  0  0  0  0  0
    3.1531    0.3653   -1.8209 H   0  0  0  0  0  0  0  0  0  0  0  0
    3.8410    1.8787   -1.1989 H   0  0  0  0  0  0  0  0  0  0  0  0
    6.6274    1.8377    2.6993 H   0  0  0  0  0  0  0  0  0  0  0  0
    8.1593    0.5739    4.1873 H   0  0  0  0  0  0  0  0  0  0  0  0
    8.2886   -1.9027    4.0317 H   0  0  0  0  0  0  0  0  0  0  0  0
    6.8784   -3.1140    2.3803 H   0  0  0  0  0  0  0  0  0  0  0  0
    3.7317   -1.6248   -0.8006 H   0  0  0  0  0  0  0  0  0  0  0  0
    1.7084   -0.3336    1.1154 H   0  0  0  0  0  0  0  0  0  0  0  0
    1.4536   -0.7395   -0.5880 H   0  0  0  0  0  0  0  0  0  0  0  0
   -0.6658   -0.6748    0.6225 H   0  0  0  0  0  0  0  0  0  0  0  0
   -0.3980    1.0157    1.0999 H   0  0  0  0  0  0  0  0  0  0  0  0
   -2.7126    0.9379    0.8069 H   0  0  0  0  0  0  0  0  0  0  0  0
  1  2  1  0
  2  3  1  0
  2  4  1  0
  4  5  1  0
  5  6  2  0
  6  7  1  0
  7  8  1  0
  7  9  2  0
  9 10  1  0
 10 11  1  0
 11 12  2  0
 12 13  1  0
 13 14  1  0
  9 15  1  0
 15 16  1  0
 16 17  1  0
 17 18  1  0
 18 19  1  0
 19 20  1  0
 20 21  1  0
 21 22  2  0
 22 23  1  0
 23 24  2  0
 24 25  1  0
 25 26  2  0
 26 27  1  0
 27 28  2  0
 28 29  1  0
 29 30  2  0
 29 31  1  0
 19 32  1  0
 32 33  1  0
 15 34  2  0
 34  5  1  0
 14 10  2  0
 33 16  1  0
 31 21  1  0
 28 23  1  0
  1 35  1  0
  1 36  1  0
  1 37  1  0
  2 38  1  0
  3 39  1  0
  3 40  1  0
  3 41  1  0
  4 42  1  0
  4 43  1  0
  6 44  1  0
 13 45  1  0
 17 46  1  0
 17 47  1  0
 18 48  1  0
 18 49  1  0
 20 50  1  0
 20 51  1  0
 24 52  1  0
 25 53  1  0
 26 54  1  0
 27 55  1  0
 31 56  1  0
 32 57  1  0
 32 58  1  0
 33 59  1  0
 33 60  1  0
 34 61  1  0
M  END
>  <mol_id>  (1) 
46537

>  <source_index>  (1) 
4

>  <layer>  (1) 
L4

>  <uniprot>  (1) 
P50052

>  <paff>  (1) 
6.7958999999999996

>  <smiles>  (1) 
CC(C)Cc1cc(F)c(-c2nn[nH]n2)c(N2CCN(Cc3nc4ccccc4c(=O)[nH]3)CC2)c1

$$$$
