L4:P50052:60167


 37 40  0  0  0  0  0  0  0  0999 V2000
   68.4382   16.7631    6.6123 C   0  0  0  0  0  0  0  0  0  0  0  0
   67.3600   16.4849    7.5472 N   0  0  0  0  0  0  0  0  0  0  0  0
   66.8816   15.1766    7.6306 C   0  0  0  0  0  0  0  0  0  0  0  0
   66.8929   14.5367    8.6831 O   0  0  0  0  0  0  0  0  0  0  0  0
   66.3915   14.6295    6.4440 N   0  0  0  0  0  0  0  0  0  0  0  0
   65.9833   15.4264    5.2907 C   0  0  0  0  0  0  0  0  0  0  0  0
   64.8584   14.7614    4.4893 C   0  0  0  0  0  0  0  0  0  0  0  0
   63.7923   14.1061    5.4046 C   0  0  0  0  0  0  0  0  0  0  0  0
   64.4659   13.1025    6.3867 C   0  0  0  0  0  0  0  0  0  0  0  0
   65.9896   13.2343    6.4355 C   0  0  0  0  0  0  0  0  0  0  0  0
   66.9880   17.4754    8.5182 C   0  0  0  0  0  0  0  0  0  0  0  0
   67.9303   18.3714    9.0541 C   0  0  0  0  0  0  0  0  0  0  0  0
   67.5511   19.3525    9.9778 C   0  0  0  0  0  0  0  0  0  0  0  0
   66.2234   19.4558   10.3653 C   0  0  0  0  0  0  0  0  0  0  0  0
   65.8628   20.3984   11.2457 F   0  0  0  0  0  0  0  0  0  0  0  0
   65.2670   18.6005    9.8427 C   0  0  0  0  0  0  0  0  0  0  0  0
   65.6480   17.6198    8.9206 C   0  0  0  0  0  0  0  0  0  0  0  0
   63.1154   15.2441    6.1751 C   0  0  0  0  0  0  0  0  0  0  0  0
   62.4284   16.1421    5.7184 O   0  0  0  0  0  0  0  0  0  0  0  0
   63.2534   15.1327    7.5133 O   0  0  0  0  0  0  0  0  0  0  0  0
   62.8217   15.9506    7.8430 H   0  0  0  0  0  0  0  0  0  0  0  0
   62.7636   13.3624    4.5078 C   0  0  0  0  0  0  0  0  0  0  0  0
   63.2687   12.0487    3.9142 C   0  0  0  0  0  0  0  0  0  0  0  0
   64.2524   12.0898    3.1708 O   0  0  0  0  0  0  0  0  0  0  0  0
   62.6456   10.8491    4.3063 N   0  0  0  0  0  0  0  0  0  0  0  0
   63.1695    9.5966    3.8036 C   0  0  0  0  0  0  0  0  0  0  0  0
   62.5647    8.9488    2.7136 C   0  0  0  0  0  0  0  0  0  0  0  0
   63.0759    7.7471    2.2116 C   0  0  0  0  0  0  0  0  0  0  0  0
   64.2014    7.1711    2.7916 C   0  0  0  0  0  0  0  0  0  0  0  0
   64.8117    7.7937    3.8756 C   0  0  0  0  0  0  0  0  0  0  0  0
   64.2988    8.9947    4.3771 C   0  0  0  0  0  0  0  0  0  0  0  0
   61.4259   10.7350    5.1585 C   0  0  0  0  0  0  0  0  0  0  0  0
   61.4421    9.4957    6.0763 C   0  0  0  0  0  0  0  0  0  0  0  0
   60.0307    8.9654    6.3206 C   0  0  0  0  0  0  0  0  0  0  0  0
   59.0389   10.1136    6.4681 C   0  0  0  0  0  0  0  0  0  0  0  0
   58.9871   10.9947    5.3437 O   0  0  0  0  0  0  0  0  0  0  0  0
   60.0841   10.8948    4.4292 C   0  0  0  0  0  0  0  0  0  0  0  0
  1  2  1  0  0  0
  2  3  1  0  0  0
  3  4  2  0  0  0
  3  5  1  0  0  0
  5  6  1  0  0  0
  6  7  1  0  0  0
  7  8  1  0  0  0
  8 22  1  0  0  0
 22 23  1  0  0  0
 23 24  2  0  0  0
 23 25  1  0  0  0
 25 26  1  0  0  0
 26 27  2  0  0  0
 27 28  1  0  0  0
 28 29  2  0  0  0
 29 30  1  0  0  0
 30 31  2  0  0  0
 25 32  1  0  0  0
 32 33  1  0  0  0
 33 34  1  0  0  0
 34 35  1  0  0  0
 35 36  1  0  0  0
 36 37  1  0  0  0
  8 18  1  0  0  0
 18 19  2  0  0  0
 18 20  1  0  0  0
  8  9  1  0  0  0
  9 10  1  0  0  0
  2 11  1  0  0  0
 11 12  2  0  0  0
 12 13  1  0  0  0
 13 14  2  0  0  0
 14 15  1  0  0  0
 14 16  1  0  0  0
 16 17  2  0  0  0
 10  5  1  0  0  0
 17 11  1  0  0  0
 31 26  1  0  0  0
 37 32  1  0  0  0
 20 21  1  0  0  0
M  END
> <minimizedAffinity>
-9.39491

$$$$
