L4:P50052:60167
     RDKit          3D

 68 71  0  0  0  0  0  0  0  0999 V2000
    5.0750    2.9417    0.0455 C   0  0  0  0  0  0  0  0  0  0  0  0
    4.7887    1.6537   -0.5653 N   0  0  0  0  0  0  0  0  0  0  0  0
    3.6369    1.5354   -1.3442 C   0  0  0  0  0  0  0  0  0  0  0  0
    3.6737    1.1958   -2.5277 O   0  0  0  0  0  0  0  0  0  0  0  0
    2.4335    1.8314   -0.7024 N   0  0  0  0  0  0  0  0  0  0  0  0
    2.2699    1.8473    0.7483 C   0  0  0  0  0  0  0  0  0  0  0  0
    0.8532    1.4533    1.1812 C   0  0  0  0  0  0  0  0  0  0  0  0
    0.2874    0.2783    0.3427 C   0  0  0  0  0  0  0  0  0  0  0  0
   -1.1853    0.0306    0.7733 C   0  0  0  0  0  0  0  0  0  0  0  0
   -1.8713   -1.1312    0.0570 C   0  0  0  0  0  0  0  0  0  0  0  0
   -1.1578   -1.9967   -0.4568 O   0  0  0  0  0  0  0  0  0  0  0  0
   -3.2764   -1.2058    0.0879 N   0  0  0  0  0  0  0  0  0  0  0  0
   -3.9261   -2.3448   -0.5258 C   0  0  0  0  0  0  0  0  0  0  0  0
   -5.0501   -2.9402    0.0707 C   0  0  0  0  0  0  0  0  0  0  0  0
   -5.6934   -4.0302   -0.5255 C   0  0  0  0  0  0  0  0  0  0  0  0
   -5.2234   -4.5449   -1.7293 C   0  0  0  0  0  0  0  0  0  0  0  0
   -4.1082   -3.9733   -2.3333 C   0  0  0  0  0  0  0  0  0  0  0  0
   -3.4654   -2.8842   -1.7354 C   0  0  0  0  0  0  0  0  0  0  0  0
   -4.1952   -0.1709    0.6462 C   0  0  2  0  0  0  0  0  0  0  0  0
   -4.2063    1.1351   -0.1740 C   0  0  0  0  0  0  0  0  0  0  0  0
   -4.4639    2.3493    0.7162 C   0  0  0  0  0  0  0  0  0  0  0  0
   -5.4878    2.0210    1.7967 C   0  0  0  0  0  0  0  0  0  0  0  0
   -5.1214    0.9281    2.6421 O   0  0  0  0  0  0  0  0  0  0  0  0
   -4.0646    0.0955    2.1528 C   0  0  0  0  0  0  0  0  0  0  0  0
    1.1559   -0.9439    0.6571 C   0  0  0  0  0  0  0  0  0  0  0  0
    2.0860   -1.3806    0.0005 O   0  0  0  0  0  0  0  0  0  0  0  0
    0.8722   -1.5012    1.8534 O   0  0  0  0  0  0  0  0  0  0  0  0
    0.3480    0.6191   -1.1757 C   0  0  0  0  0  0  0  0  0  0  0  0
    1.2117    1.8433   -1.4869 C   0  0  0  0  0  0  0  0  0  0  0  0
    5.7934    0.6275   -0.5639 C   0  0  0  0  0  0  0  0  0  0  0  0
    7.0514    0.8296    0.0314 C   0  0  0  0  0  0  0  0  0  0  0  0
    8.0127   -0.1878    0.0532 C   0  0  0  0  0  0  0  0  0  0  0  0
    7.7210   -1.4218   -0.5087 C   0  0  0  0  0  0  0  0  0  0  0  0
    8.6410   -2.3947   -0.4823 F   0  0  0  0  0  0  0  0  0  0  0  0
    6.4847   -1.6595   -1.0871 C   0  0  0  0  0  0  0  0  0  0  0  0
    5.5257   -0.6412   -1.1091 C   0  0  0  0  0  0  0  0  0  0  0  0
    5.2005    2.8173    1.1252 H   0  0  0  0  0  0  0  0  0  0  0  0
    4.2706    3.6592   -0.1434 H   0  0  0  0  0  0  0  0  0  0  0  0
    5.9814    3.3661   -0.3986 H   0  0  0  0  0  0  0  0  0  0  0  0
    3.0022    1.1733    1.2061 H   0  0  0  0  0  0  0  0  0  0  0  0
    2.4814    2.8607    1.1049 H   0  0  0  0  0  0  0  0  0  0  0  0
    0.1943    2.3256    1.0714 H   0  0  0  0  0  0  0  0  0  0  0  0
    0.8619    1.2135    2.2519 H   0  0  0  0  0  0  0  0  0  0  0  0
   -1.2209   -0.1985    1.8446 H   0  0  0  0  0  0  0  0  0  0  0  0
   -1.7363    0.9574    0.6196 H   0  0  0  0  0  0  0  0  0  0  0  0
   -5.4231   -2.6003    1.0330 H   0  0  0  0  0  0  0  0  0  0  0  0
   -6.5543   -4.4834   -0.0407 H   0  0  0  0  0  0  0  0  0  0  0  0
   -5.7185   -5.3945   -2.1920 H   0  0  0  0  0  0  0  0  0  0  0  0
   -3.7310   -4.3721   -3.2716 H   0  0  0  0  0  0  0  0  0  0  0  0
   -2.6101   -2.4546   -2.2511 H   0  0  0  0  0  0  0  0  0  0  0  0
   -5.2249   -0.5306    0.5246 H   0  0  0  0  0  0  0  0  0  0  0  0
   -5.0040    1.0644   -0.9262 H   0  0  0  0  0  0  0  0  0  0  0  0
   -3.2901    1.2852   -0.7535 H   0  0  0  0  0  0  0  0  0  0  0  0
   -3.5218    2.6506    1.1902 H   0  0  0  0  0  0  0  0  0  0  0  0
   -4.8049    3.1945    0.1090 H   0  0  0  0  0  0  0  0  0  0  0  0
   -5.6517    2.8927    2.4384 H   0  0  0  0  0  0  0  0  0  0  0  0
   -6.4523    1.7734    1.3389 H   0  0  0  0  0  0  0  0  0  0  0  0
   -3.1270    0.5842    2.4222 H   0  0  0  0  0  0  0  0  0  0  0  0
   -4.1040   -0.8459    2.7110 H   0  0  0  0  0  0  0  0  0  0  0  0
    1.4642   -2.2843    1.8718 H   0  0  0  0  0  0  0  0  0  0  0  0
    0.7298   -0.2365   -1.7465 H   0  0  0  0  0  0  0  0  0  0  0  0
   -0.6544    0.8169   -1.5755 H   0  0  0  0  0  0  0  0  0  0  0  0
    1.4212    1.8865   -2.5609 H   0  0  0  0  0  0  0  0  0  0  0  0
    0.6709    2.7648   -1.2386 H   0  0  0  0  0  0  0  0  0  0  0  0
    7.3209    1.7763    0.4878 H   0  0  0  0  0  0  0  0  0  0  0  0
    8.9843   -0.0220    0.5070 H   0  0  0  0  0  0  0  0  0  0  0  0
    6.2624   -2.6315   -1.5150 H   0  0  0  0  0  0  0  0  0  0  0  0
    4.5581   -0.8717   -1.5517 H   0  0  0  0  0  0  0  0  0  0  0  0
  1  2  1  0
  2  3  1  0
  3  4  2  0
  3  5  1  0
  5  6  1  0
  6  7  1  0
  7  8  1  0
  8  9  1  0
  9 10  1  0
 10 11  2  0
 10 12  1  0
 12 13  1  0
 13 14  2  0
 14 15  1  0
 15 16  2  0
 16 17  1  0
 17 18  2  0
 12 19  1  0
 19 20  1  0
 20 21  1  0
 21 22  1  0
 22 23  1  0
 23 24  1  0
  8 25  1  0
 25 26  2  0
 25 27  1  0
  8 28  1  0
 28 29  1  0
  2 30  1  0
 30 31  2  0
 31 32  1  0
 32 33  2  0
 33 34  1  0
 33 35  1  0
 35 36  2  0
 29  5  1  0
 36 30  1  0
 18 13  1  0
 24 19  1  0
  1 37  1  0
  1 38  1  0
  1 39  1  0
  6 40  1  0
  6 41  1  0
  7 42  1  0
  7 43  1  0
  9 44  1  0
  9 45  1  0
 14 46  1  0
 15 47  1  0
 16 48  1  0
 17 49  1  0
 18 50  1  0
 19 51  1  1
 20 52  1  0
 20 53  1  0
 21 54  1  0
 21 55  1  0
 22 56  1  0
 22 57  1  0
 24 58  1  0
 24 59  1  0
 27 60  1  0
 28 61  1  0
 28 62  1  0
 29 63  1  0
 29 64  1  0
 31 65  1  0
 32 66  1  0
 35 67  1  0
 36 68  1  0
M  END
>  <mol_id>  (1) 
60167

>  <source_index>  (1) 
5

>  <layer>  (1) 
L4

>  <uniprot>  (1) 
P50052

>  <paff>  (1) 
7.7798999999999996

>  <smiles>  (1) 
CN(C(=O)N1CCC(CC(=O)N(c2ccccc2)C2CCCOC2)(C(=O)O)CC1)c1ccc(F)cc1

$$$$
