L4:P50052:70458
 OpenBabel09212617553D

 55 58  0  0  0  0  0  0  0  0999 V2000
   67.3305   12.1309    5.7471 C   0  0  0  0  0  0  0  0  0  0  0  0
   67.3382   13.4978    5.4855 C   0  0  0  0  0  0  0  0  0  0  0  0
   66.1574   14.1373    5.1243 C   0  0  0  0  0  0  0  0  0  0  0  0
   66.2053   15.4653    4.9273 F   0  0  0  0  0  0  0  0  0  0  0  0
   64.9455   13.4398    5.0038 C   0  0  0  0  0  0  0  0  0  0  0  0
   64.9059   12.0462    5.2436 C   0  0  0  0  0  0  0  0  0  0  0  0
   66.1194   11.4284    5.6245 C   0  0  0  0  0  0  0  0  0  0  0  0
   63.7584   14.2191    4.7208 C   0  0  0  0  0  0  0  0  0  0  0  0
   63.1769   15.0575    5.6460 N   0  0  0  0  0  0  0  0  0  0  0  0
   62.1344   15.6197    5.0497 N   0  0  0  0  0  0  0  0  0  0  0  0
   62.1411   15.1110    3.8129 N   0  0  0  0  0  0  0  0  0  0  0  0
   63.1044   14.2189    3.5441 N   0  0  0  0  0  0  0  0  0  0  0  0
   61.4502   15.3853    3.1205 H   0  0  0  0  0  0  0  0  0  0  0  0
   63.7681   11.2612    5.1090 N   0  0  0  0  0  0  0  0  0  0  0  0
   63.6161   10.3134    3.9919 C   0  0  0  0  0  0  0  0  0  0  0  0
   62.7946    9.0781    4.4328 C   0  0  0  0  0  0  0  0  0  0  0  0
   61.4467    9.3707    4.9793 N   0  0  0  0  0  0  0  0  0  0  0  0
   61.4009   10.7286    5.5758 C   0  0  0  0  0  0  0  0  0  0  0  0
   62.7469   11.2067    6.1653 C   0  0  0  0  0  0  0  0  0  0  0  0
   60.3865    9.2426    3.9593 C   0  0  0  0  0  0  0  0  0  0  0  0
   60.7971    8.4279    2.7477 C   0  0  0  0  0  0  0  0  0  0  0  0
   61.0716    9.1007    1.5926 N   0  0  0  0  0  0  0  0  0  0  0  0
   61.4585    8.3564    0.5266 C   0  0  0  0  0  0  0  0  0  0  0  0
   61.5832    6.9741    0.5523 C   0  0  0  0  0  0  0  0  0  0  0  0
   62.0783    6.1100   -0.8454 Cl  0  0  0  0  0  0  0  0  0  0  0  0
   61.2955    6.3021    1.7321 C   0  0  0  0  0  0  0  0  0  0  0  0
   60.8989    7.0401    2.8401 C   0  0  0  0  0  0  0  0  0  0  0  0
   60.6043    6.3996    3.9798 F   0  0  0  0  0  0  0  0  0  0  0  0
   68.5968   11.4142    6.1506 C   0  0  0  0  0  0  0  0  0  0  0  0
   70.3278    9.6291    5.5995 C   0  0  0  0  0  0  0  0  0  0  0  0
   69.0560   10.3459    5.1388 C   0  0  0  0  0  0  0  0  0  0  0  0
   69.2957   10.9946    3.7733 C   0  0  0  0  0  0  0  0  0  0  0  0
   68.2165   14.0345    5.5593 H   0  0  0  0  0  0  0  0  0  0  0  0
   66.1156   10.4154    5.8215 H   0  0  0  0  0  0  0  0  0  0  0  0
   64.5845    9.9941    3.6676 H   0  0  0  0  0  0  0  0  0  0  0  0
   63.1004   10.8029    3.1923 H   0  0  0  0  0  0  0  0  0  0  0  0
   63.3519    8.5635    5.1874 H   0  0  0  0  0  0  0  0  0  0  0  0
   62.6338    8.5002    3.5468 H   0  0  0  0  0  0  0  0  0  0  0  0
   60.6729   10.7263    6.3600 H   0  0  0  0  0  0  0  0  0  0  0  0
   61.1545   11.4045    4.7837 H   0  0  0  0  0  0  0  0  0  0  0  0
   63.0618   10.5251    6.9276 H   0  0  0  0  0  0  0  0  0  0  0  0
   62.6202   12.1841    6.5818 H   0  0  0  0  0  0  0  0  0  0  0  0
   60.1153   10.2238    3.6298 H   0  0  0  0  0  0  0  0  0  0  0  0
   59.5714    8.7253    4.4207 H   0  0  0  0  0  0  0  0  0  0  0  0
   61.6728    8.8468   -0.3558 H   0  0  0  0  0  0  0  0  0  0  0  0
   61.3747    5.2745    1.7851 H   0  0  0  0  0  0  0  0  0  0  0  0
   69.3769   12.1393    6.2530 H   0  0  0  0  0  0  0  0  0  0  0  0
   68.3880   10.9051    7.0683 H   0  0  0  0  0  0  0  0  0  0  0  0
   70.6098    8.8988    4.8701 H   0  0  0  0  0  0  0  0  0  0  0  0
   70.1452    9.1454    6.5363 H   0  0  0  0  0  0  0  0  0  0  0  0
   71.1174   10.3420    5.7141 H   0  0  0  0  0  0  0  0  0  0  0  0
   68.2785    9.6144    5.0652 H   0  0  0  0  0  0  0  0  0  0  0  0
   70.0741   11.7240    3.8567 H   0  0  0  0  0  0  0  0  0  0  0  0
   68.3962   11.4693    3.4411 H   0  0  0  0  0  0  0  0  0  0  0  0
   69.5844   10.2439    3.0676 H   0  0  0  0  0  0  0  0  0  0  0  0
  1  2  2  0  0  0  0
  2  3  1  0  0  0  0
  2 33  1  0  0  0  0
  3  4  1  0  0  0  0
  3  5  2  0  0  0  0
  5  8  1  0  0  0  0
  5  6  1  0  0  0  0
  6 14  1  0  0  0  0
  6  7  2  0  0  0  0
  7  1  1  0  0  0  0
  7 34  1  0  0  0  0
  8  9  1  0  0  0  0
  9 10  2  0  0  0  0
 10 11  1  0  0  0  0
 11 12  1  0  0  0  0
 11 13  1  0  0  0  0
 12  8  2  0  0  0  0
 14 15  1  0  0  0  0
 15 16  1  0  0  0  0
 15 35  1  0  0  0  0
 15 36  1  0  0  0  0
 16 17  1  0  0  0  0
 16 37  1  0  0  0  0
 16 38  1  0  0  0  0
 17 20  1  0  0  0  0
 17 18  1  0  0  0  0
 18 19  1  0  0  0  0
 18 39  1  0  0  0  0
 18 40  1  0  0  0  0
 19 14  1  0  0  0  0
 19 41  1  0  0  0  0
 19 42  1  0  0  0  0
 20 21  1  0  0  0  0
 20 43  1  0  0  0  0
 20 44  1  0  0  0  0
 21 22  2  0  0  0  0
 22 23  1  0  0  0  0
 23 24  2  0  0  0  0
 23 45  1  0  0  0  0
 24 25  1  0  0  0  0
 24 26  1  0  0  0  0
 26 27  2  0  0  0  0
 26 46  1  0  0  0  0
 27 28  1  0  0  0  0
 27 21  1  0  0  0  0
 29  1  1  0  0  0  0
 29 47  1  0  0  0  0
 29 48  1  0  0  0  0
 30 31  1  0  0  0  0
 30 49  1  0  0  0  0
 30 50  1  0  0  0  0
 30 51  1  0  0  0  0
 31 32  1  0  0  0  0
 31 29  1  0  0  0  0
 31 52  1  0  0  0  0
 32 53  1  0  0  0  0
 32 54  1  0  0  0  0
 32 55  1  0  0  0  0
M  END
>  <minimizedAffinity>
-9.31894

$$$$
