L4:P50052:70458


 32 35  0  0  0  0  0  0  0  0999 V2000
   67.3305   12.1309    5.7471 C   0  0  0  0  0  0  0  0  0  0  0  0
   67.3382   13.4978    5.4855 C   0  0  0  0  0  0  0  0  0  0  0  0
   66.1574   14.1373    5.1243 C   0  0  0  0  0  0  0  0  0  0  0  0
   66.2053   15.4653    4.9273 F   0  0  0  0  0  0  0  0  0  0  0  0
   64.9455   13.4398    5.0038 C   0  0  0  0  0  0  0  0  0  0  0  0
   64.9059   12.0462    5.2436 C   0  0  0  0  0  0  0  0  0  0  0  0
   66.1194   11.4284    5.6245 C   0  0  0  0  0  0  0  0  0  0  0  0
   63.7584   14.2191    4.7208 C   0  0  0  0  0  0  0  0  0  0  0  0
   63.1769   15.0575    5.6460 N   0  0  0  0  0  0  0  0  0  0  0  0
   62.1344   15.6197    5.0497 N   0  0  0  0  0  0  0  0  0  0  0  0
   62.1411   15.1110    3.8129 N   0  0  0  0  0  0  0  0  0  0  0  0
   63.1044   14.2189    3.5441 N   0  0  0  0  0  0  0  0  0  0  0  0
   61.4502   15.3853    3.1205 H   0  0  0  0  0  0  0  0  0  0  0  0
   63.7681   11.2612    5.1090 N   0  0  0  0  0  0  0  0  0  0  0  0
   63.6161   10.3134    3.9919 C   0  0  0  0  0  0  0  0  0  0  0  0
   62.7946    9.0781    4.4328 C   0  0  0  0  0  0  0  0  0  0  0  0
   61.4467    9.3707    4.9793 N   0  0  0  0  0  0  0  0  0  0  0  0
   61.4009   10.7286    5.5758 C   0  0  0  0  0  0  0  0  0  0  0  0
   62.7469   11.2067    6.1653 C   0  0  0  0  0  0  0  0  0  0  0  0
   60.3865    9.2426    3.9593 C   0  0  0  0  0  0  0  0  0  0  0  0
   60.7971    8.4279    2.7477 C   0  0  0  0  0  0  0  0  0  0  0  0
   61.0716    9.1007    1.5926 N   0  0  0  0  0  0  0  0  0  0  0  0
   61.4585    8.3564    0.5266 C   0  0  0  0  0  0  0  0  0  0  0  0
   61.5832    6.9741    0.5523 C   0  0  0  0  0  0  0  0  0  0  0  0
   62.0783    6.1100   -0.8454 Cl  0  0  0  0  0  0  0  0  0  0  0  0
   61.2955    6.3021    1.7321 C   0  0  0  0  0  0  0  0  0  0  0  0
   60.8989    7.0401    2.8401 C   0  0  0  0  0  0  0  0  0  0  0  0
   60.6043    6.3996    3.9798 F   0  0  0  0  0  0  0  0  0  0  0  0
   68.5968   11.4142    6.1506 C   0  0  0  0  0  0  0  0  0  0  0  0
   70.3278    9.6291    5.5995 C   0  0  0  0  0  0  0  0  0  0  0  0
   69.0560   10.3459    5.1388 C   0  0  0  0  0  0  0  0  0  0  0  0
   69.2957   10.9946    3.7733 C   0  0  0  0  0  0  0  0  0  0  0  0
 30 31  1  0  0  0
 31 32  1  0  0  0
 31 29  1  0  0  0
 29  1  1  0  0  0
  1  2  2  0  0  0
  2  3  1  0  0  0
  3  4  1  0  0  0
  3  5  2  0  0  0
  5  8  1  0  0  0
  8  9  1  0  0  0
  9 10  2  0  0  0
 10 11  1  0  0  0
 11 12  1  0  0  0
  5  6  1  0  0  0
  6 14  1  0  0  0
 14 15  1  0  0  0
 15 16  1  0  0  0
 16 17  1  0  0  0
 17 20  1  0  0  0
 20 21  1  0  0  0
 21 22  2  0  0  0
 22 23  1  0  0  0
 23 24  2  0  0  0
 24 25  1  0  0  0
 24 26  1  0  0  0
 26 27  2  0  0  0
 27 28  1  0  0  0
 17 18  1  0  0  0
 18 19  1  0  0  0
  6  7  2  0  0  0
  7  1  1  0  0  0
 12  8  2  0  0  0
 19 14  1  0  0  0
 27 21  1  0  0  0
 11 13  1  0  0  0
M  END
> <minimizedAffinity>
-9.31894

$$$$
