L4:P50052:70458
     RDKit          3D

 55 58  0  0  0  0  0  0  0  0999 V2000
   -5.7643    0.2439    1.6103 C   0  0  0  0  0  0  0  0  0  0  0  0
   -4.8549    1.4753    1.6205 C   0  0  0  0  0  0  0  0  0  0  0  0
   -5.5636    2.6338    2.3266 C   0  0  0  0  0  0  0  0  0  0  0  0
   -4.4466    1.9032    0.1971 C   0  0  0  0  0  0  0  0  0  0  0  0
   -3.5580    0.9062   -0.5074 C   0  0  0  0  0  0  0  0  0  0  0  0
   -4.0419    0.1455   -1.5677 C   0  0  0  0  0  0  0  0  0  0  0  0
   -3.2069   -0.7728   -2.1949 C   0  0  0  0  0  0  0  0  0  0  0  0
   -3.7323   -1.5168   -3.1823 F   0  0  0  0  0  0  0  0  0  0  0  0
   -1.8735   -0.9530   -1.7958 C   0  0  0  0  0  0  0  0  0  0  0  0
   -1.1232   -2.0048   -2.4494 C   0  0  0  0  0  0  0  0  0  0  0  0
   -0.6405   -3.1062   -1.7780 N   0  0  0  0  0  0  0  0  0  0  0  0
   -0.0282   -3.8638   -2.6778 N   0  0  0  0  0  0  0  0  0  0  0  0
   -0.1756   -3.2012   -3.8300 N   0  0  0  0  0  0  0  0  0  0  0  0
   -0.8232   -2.0299   -3.7616 N   0  0  0  0  0  0  0  0  0  0  0  0
   -1.3438   -0.1823   -0.7343 C   0  0  0  0  0  0  0  0  0  0  0  0
   -0.0284   -0.2558   -0.2948 N   0  0  0  0  0  0  0  0  0  0  0  0
    1.0993   -0.2610   -1.2423 C   0  0  0  0  0  0  0  0  0  0  0  0
    2.3344    0.4372   -0.6239 C   0  0  0  0  0  0  0  0  0  0  0  0
    2.8080   -0.1275    0.6637 N   0  0  0  0  0  0  0  0  0  0  0  0
    3.9124   -1.0909    0.4827 C   0  0  0  0  0  0  0  0  0  0  0  0
    5.2267   -0.4484    0.0824 C   0  0  0  0  0  0  0  0  0  0  0  0
    5.6049   -0.5367   -1.2258 N   0  0  0  0  0  0  0  0  0  0  0  0
    6.7723    0.0633   -1.5684 C   0  0  0  0  0  0  0  0  0  0  0  0
    7.5841    0.7451   -0.6722 C   0  0  0  0  0  0  0  0  0  0  0  0
    9.0480    1.4748   -1.1918 Cl  0  0  0  0  0  0  0  0  0  0  0  0
    7.1900    0.8224    0.6563 C   0  0  0  0  0  0  0  0  0  0  0  0
    5.9975    0.2184    1.0342 C   0  0  0  0  0  0  0  0  0  0  0  0
    5.6154    0.2743    2.3175 F   0  0  0  0  0  0  0  0  0  0  0  0
    1.6948   -0.7797    1.3968 C   0  0  0  0  0  0  0  0  0  0  0  0
    0.3084   -0.1505    1.1325 C   0  0  0  0  0  0  0  0  0  0  0  0
   -2.2223    0.7308   -0.1069 C   0  0  0  0  0  0  0  0  0  0  0  0
   -5.2489   -0.6283    1.1962 H   0  0  0  0  0  0  0  0  0  0  0  0
   -6.0769   -0.0151    2.6277 H   0  0  0  0  0  0  0  0  0  0  0  0
   -6.6666    0.4211    1.0153 H   0  0  0  0  0  0  0  0  0  0  0  0
   -3.9570    1.2300    2.2017 H   0  0  0  0  0  0  0  0  0  0  0  0
   -6.4779    2.9230    1.7971 H   0  0  0  0  0  0  0  0  0  0  0  0
   -5.8377    2.3568    3.3501 H   0  0  0  0  0  0  0  0  0  0  0  0
   -4.9116    3.5120    2.3831 H   0  0  0  0  0  0  0  0  0  0  0  0
   -3.9077    2.8594    0.2365 H   0  0  0  0  0  0  0  0  0  0  0  0
   -5.3437    2.0952   -0.4062 H   0  0  0  0  0  0  0  0  0  0  0  0
   -5.0680    0.2411   -1.9101 H   0  0  0  0  0  0  0  0  0  0  0  0
    0.1883   -3.5671   -4.7051 H   0  0  0  0  0  0  0  0  0  0  0  0
    1.3690   -1.2896   -1.5030 H   0  0  0  0  0  0  0  0  0  0  0  0
    0.8322    0.2718   -2.1630 H   0  0  0  0  0  0  0  0  0  0  0  0
    3.1323    0.4858   -1.3721 H   0  0  0  0  0  0  0  0  0  0  0  0
    2.0640    1.4831   -0.4251 H   0  0  0  0  0  0  0  0  0  0  0  0
    4.0955   -1.6293    1.4227 H   0  0  0  0  0  0  0  0  0  0  0  0
    3.6425   -1.8553   -0.2583 H   0  0  0  0  0  0  0  0  0  0  0  0
    7.0415   -0.0243   -2.6175 H   0  0  0  0  0  0  0  0  0  0  0  0
    7.7891    1.3401    1.3969 H   0  0  0  0  0  0  0  0  0  0  0  0
    1.6304   -1.8429    1.1251 H   0  0  0  0  0  0  0  0  0  0  0  0
    1.9116   -0.7330    2.4702 H   0  0  0  0  0  0  0  0  0  0  0  0
   -0.4340   -0.6841    1.7385 H   0  0  0  0  0  0  0  0  0  0  0  0
    0.3133    0.9006    1.4455 H   0  0  0  0  0  0  0  0  0  0  0  0
   -1.8485    1.3560    0.7021 H   0  0  0  0  0  0  0  0  0  0  0  0
  1  2  1  0
  2  3  1  0
  2  4  1  0
  4  5  1  0
  5  6  2  0
  6  7  1  0
  7  8  1  0
  7  9  2  0
  9 10  1  0
 10 11  1  0
 11 12  2  0
 12 13  1  0
 13 14  1  0
  9 15  1  0
 15 16  1  0
 16 17  1  0
 17 18  1  0
 18 19  1  0
 19 20  1  0
 20 21  1  0
 21 22  2  0
 22 23  1  0
 23 24  2  0
 24 25  1  0
 24 26  1  0
 26 27  2  0
 27 28  1  0
 19 29  1  0
 29 30  1  0
 15 31  2  0
 31  5  1  0
 14 10  2  0
 30 16  1  0
 27 21  1  0
  1 32  1  0
  1 33  1  0
  1 34  1  0
  2 35  1  0
  3 36  1  0
  3 37  1  0
  3 38  1  0
  4 39  1  0
  4 40  1  0
  6 41  1  0
 13 42  1  0
 17 43  1  0
 17 44  1  0
 18 45  1  0
 18 46  1  0
 20 47  1  0
 20 48  1  0
 23 49  1  0
 26 50  1  0
 29 51  1  0
 29 52  1  0
 30 53  1  0
 30 54  1  0
 31 55  1  0
M  END
>  <mol_id>  (1) 
70458

>  <source_index>  (1) 
6

>  <layer>  (1) 
L4

>  <uniprot>  (1) 
P50052

>  <paff>  (1) 
6.4214000000000002

>  <smiles>  (1) 
CC(C)Cc1cc(F)c(-c2nn[nH]n2)c(N2CCN(Cc3ncc(Cl)cc3F)CC2)c1

$$$$
