L4:P50052:99833
     RDKit          3D

 68 71  0  0  0  0  0  0  0  0999 V2000
   -3.8375   -6.1102    1.3794 C   0  0  0  0  0  0  0  0  0  0  0  0
   -3.4137   -4.7656    1.9762 C   0  0  0  0  0  0  0  0  0  0  0  0
   -4.0168   -4.6110    3.3748 C   0  0  0  0  0  0  0  0  0  0  0  0
   -3.8325   -3.6213    1.0332 C   0  0  0  0  0  0  0  0  0  0  0  0
   -3.2507   -2.2924    1.4274 C   0  0  0  0  0  0  0  0  0  0  0  0
   -1.9335   -1.8858    1.3684 C   0  0  0  0  0  0  0  0  0  0  0  0
   -1.7513   -0.5469    1.8358 C   0  0  0  0  0  0  0  0  0  0  0  0
   -0.4908    0.1693    1.9052 C   0  0  0  0  0  0  0  0  0  0  0  0
    0.1341    0.3918    3.1352 C   0  0  0  0  0  0  0  0  0  0  0  0
    1.3190    1.1274    3.1932 C   0  0  0  0  0  0  0  0  0  0  0  0
    1.8806    1.6510    2.0254 C   0  0  0  0  0  0  0  0  0  0  0  0
    1.2612    1.4241    0.7908 C   0  0  0  0  0  0  0  0  0  0  0  0
    1.7859    1.9974   -0.4795 C   0  0  0  0  0  0  0  0  0  0  0  0
    0.9952    2.2131   -1.3964 O   0  0  0  0  0  0  0  0  0  0  0  0
    3.2595    2.3165   -0.5602 C   0  0  0  0  0  0  0  0  0  0  0  0
    3.7921    2.2633   -1.9124 N   0  0  0  0  0  0  0  0  0  0  0  0
    4.0955    3.4007   -2.6243 C   0  0  0  0  0  0  0  0  0  0  0  0
    4.6512    2.9647   -3.7955 C   0  0  0  0  0  0  0  0  0  0  0  0
    4.7012    1.6032   -3.8147 N   0  0  0  0  0  0  0  0  0  0  0  0
    4.1704    1.1722   -2.6789 C   0  0  0  0  0  0  0  0  0  0  0  0
    3.9963   -0.3155   -2.3744 C   0  0  0  0  0  0  0  0  0  0  0  0
    4.3789   -0.7026   -0.9392 C   0  0  0  0  0  0  0  0  0  0  0  0
    2.5496   -0.7472   -2.6668 C   0  0  0  0  0  0  0  0  0  0  0  0
    4.9228   -1.1284   -3.3162 C   0  0  0  0  0  0  0  0  0  0  0  0
    0.0846    0.6687    0.7333 C   0  0  0  0  0  0  0  0  0  0  0  0
   -2.9527    0.0467    2.1917 C   0  0  0  0  0  0  0  0  0  0  0  0
   -3.3709    1.6607    2.8254 S   0  0  0  0  0  6  0  0  0  0  0  0
   -4.7213    1.9732    2.4065 O   0  0  0  0  0  0  0  0  0  0  0  0
   -3.0444    1.5711    4.2361 O   0  0  0  0  0  0  0  0  0  0  0  0
   -2.3414    2.8122    2.1990 N   0  0  0  0  0  0  0  0  0  0  0  0
   -2.5435    3.1430    0.8605 C   0  0  0  0  0  0  0  0  0  0  0  0
   -2.2042    4.4079    0.5840 N   0  0  0  0  0  0  0  0  0  0  0  0
   -2.1443    4.7196   -0.7319 C   0  0  0  0  0  0  0  0  0  0  0  0
   -2.3702    3.8137   -1.7432 C   0  0  0  0  0  0  0  0  0  0  0  0
   -2.2915    4.2483   -3.3930 Cl  0  0  0  0  0  0  0  0  0  0  0  0
   -2.6626    2.5348   -1.3299 C   0  0  0  0  0  0  0  0  0  0  0  0
   -2.7345    2.1665   -0.0299 N   0  0  0  0  0  0  0  0  0  0  0  0
   -4.2607   -1.0455    2.0190 S   0  0  0  0  0  0  0  0  0  0  0  0
   -4.9249   -6.1674    1.2601 H   0  0  0  0  0  0  0  0  0  0  0  0
   -3.5230   -6.9385    2.0231 H   0  0  0  0  0  0  0  0  0  0  0  0
   -3.3795   -6.2611    0.3961 H   0  0  0  0  0  0  0  0  0  0  0  0
   -2.3206   -4.7749    2.0762 H   0  0  0  0  0  0  0  0  0  0  0  0
   -3.7458   -5.4617    4.0095 H   0  0  0  0  0  0  0  0  0  0  0  0
   -5.1099   -4.5569    3.3326 H   0  0  0  0  0  0  0  0  0  0  0  0
   -3.6490   -3.7069    3.8698 H   0  0  0  0  0  0  0  0  0  0  0  0
   -4.9274   -3.5679    0.9748 H   0  0  0  0  0  0  0  0  0  0  0  0
   -3.4855   -3.8449    0.0153 H   0  0  0  0  0  0  0  0  0  0  0  0
   -1.1313   -2.5253    1.0184 H   0  0  0  0  0  0  0  0  0  0  0  0
   -0.3062    0.0111    4.0558 H   0  0  0  0  0  0  0  0  0  0  0  0
    1.7915    1.3096    4.1563 H   0  0  0  0  0  0  0  0  0  0  0  0
    2.7811    2.2521    2.1134 H   0  0  0  0  0  0  0  0  0  0  0  0
    3.3995    3.3376   -0.1853 H   0  0  0  0  0  0  0  0  0  0  0  0
    3.8703    1.6607    0.0596 H   0  0  0  0  0  0  0  0  0  0  0  0
    3.8914    4.3946   -2.2520 H   0  0  0  0  0  0  0  0  0  0  0  0
    5.0175    3.5563   -4.6239 H   0  0  0  0  0  0  0  0  0  0  0  0
    3.6109   -0.4148   -0.2167 H   0  0  0  0  0  0  0  0  0  0  0  0
    4.4880   -1.7893   -0.8378 H   0  0  0  0  0  0  0  0  0  0  0  0
    5.3284   -0.2459   -0.6381 H   0  0  0  0  0  0  0  0  0  0  0  0
    1.8365   -0.2706   -1.9902 H   0  0  0  0  0  0  0  0  0  0  0  0
    2.4294   -1.8306   -2.5508 H   0  0  0  0  0  0  0  0  0  0  0  0
    2.2540   -0.4864   -3.6899 H   0  0  0  0  0  0  0  0  0  0  0  0
    5.9748   -0.8549   -3.1700 H   0  0  0  0  0  0  0  0  0  0  0  0
    4.8307   -2.2057   -3.1350 H   0  0  0  0  0  0  0  0  0  0  0  0
    4.6787   -0.9567   -4.3715 H   0  0  0  0  0  0  0  0  0  0  0  0
   -0.4074    0.5011   -0.2239 H   0  0  0  0  0  0  0  0  0  0  0  0
   -2.3463    3.6574    2.7595 H   0  0  0  0  0  0  0  0  0  0  0  0
   -1.8928    5.7538   -0.9491 H   0  0  0  0  0  0  0  0  0  0  0  0
   -2.8417    1.7374   -2.0454 H   0  0  0  0  0  0  0  0  0  0  0  0
  1  2  1  0
  2  3  1  0
  2  4  1  0
  4  5  1  0
  5  6  2  0
  6  7  1  0
  7  8  1  0
  8  9  2  0
  9 10  1  0
 10 11  2  0
 11 12  1  0
 12 13  1  0
 13 14  2  0
 13 15  1  0
 15 16  1  0
 16 17  1  0
 17 18  2  0
 18 19  1  0
 19 20  2  0
 20 21  1  0
 21 22  1  0
 21 23  1  0
 21 24  1  0
 12 25  2  0
  7 26  2  0
 26 27  1  0
 27 28  2  0
 27 29  2  0
 27 30  1  0
 30 31  1  0
 31 32  2  0
 32 33  1  0
 33 34  2  0
 34 35  1  0
 34 36  1  0
 36 37  2  0
 26 38  1  0
 38  5  1  0
 25  8  1  0
 37 31  1  0
 20 16  1  0
  1 39  1  0
  1 40  1  0
  1 41  1  0
  2 42  1  0
  3 43  1  0
  3 44  1  0
  3 45  1  0
  4 46  1  0
  4 47  1  0
  6 48  1  0
  9 49  1  0
 10 50  1  0
 11 51  1  0
 15 52  1  0
 15 53  1  0
 17 54  1  0
 18 55  1  0
 22 56  1  0
 22 57  1  0
 22 58  1  0
 23 59  1  0
 23 60  1  0
 23 61  1  0
 24 62  1  0
 24 63  1  0
 24 64  1  0
 25 65  1  0
 30 66  1  0
 33 67  1  0
 36 68  1  0
M  END
>  <mol_id>  (1) 
99833

>  <source_index>  (1) 
7

>  <layer>  (1) 
L4

>  <uniprot>  (1) 
P50052

>  <paff>  (1) 
8.4815000000000005

>  <smiles>  (1) 
CC(C)Cc1cc(-c2cccc(C(=O)Cn3ccnc3C(C)(C)C)c2)c(S(=O)(=O)Nc2ncc(Cl)cn2)s1

$$$$
