L4:P50052:99833
 OpenBabel09212617563D

 68 71  0  0  0  0  0  0  0  0999 V2000
   67.5148   11.6236    5.5492 C   0  0  0  0  0  0  0  0  0  0  0  0
   66.5496   11.6529    4.5636 C   0  0  0  0  0  0  0  0  0  0  0  0
   65.4800   12.5510    4.8698 C   0  0  0  0  0  0  0  0  0  0  0  0
   65.6403   13.1446    6.1125 C   0  0  0  0  0  0  0  0  0  0  0  0
   67.1081   12.6580    6.8490 S   0  0  0  0  0  0  0  0  0  0  0  0
   64.3191   12.8114    4.0385 C   0  0  0  0  0  0  0  0  0  0  0  0
   64.3261   13.8603    3.1152 C   0  0  0  0  0  0  0  0  0  0  0  0
   63.1846   14.1327    2.3595 C   0  0  0  0  0  0  0  0  0  0  0  0
   62.0289   13.3650    2.5279 C   0  0  0  0  0  0  0  0  0  0  0  0
   62.0205   12.3091    3.4467 C   0  0  0  0  0  0  0  0  0  0  0  0
   63.1730   12.0252    4.1880 C   0  0  0  0  0  0  0  0  0  0  0  0
   60.8047   11.4886    3.7042 C   0  0  0  0  0  0  0  0  0  0  0  0
   59.8155   12.0402    4.1833 O   0  0  0  0  0  0  0  0  0  0  0  0
   60.8412   10.0265    3.3289 C   0  0  0  0  0  0  0  0  0  0  0  0
   60.7418    9.7917    1.8972 N   0  0  0  0  0  0  0  0  0  0  0  0
   60.2454   10.7401    1.0332 C   0  0  0  0  0  0  0  0  0  0  0  0
   60.3915   10.2099   -0.2191 C   0  0  0  0  0  0  0  0  0  0  0  0
   60.9653    8.9763   -0.1439 N   0  0  0  0  0  0  0  0  0  0  0  0
   61.1694    8.7129    1.1392 C   0  0  0  0  0  0  0  0  0  0  0  0
   61.7430    7.3785    1.6153 C   0  0  0  0  0  0  0  0  0  0  0  0
   63.1398    7.4930    2.2411 C   0  0  0  0  0  0  0  0  0  0  0  0
   60.7754    6.7136    2.6086 C   0  0  0  0  0  0  0  0  0  0  0  0
   61.8789    6.4309    0.3947 C   0  0  0  0  0  0  0  0  0  0  0  0
   64.6654   14.3209    7.0331 S   0  0  0  0  0  0  0  0  0  0  0  0
   64.5306   15.5194    6.2318 O   0  0  0  0  0  0  0  0  0  0  0  0
   63.4902   13.5640    7.4214 O   0  0  0  0  0  0  0  0  0  0  0  0
   65.4335   14.7190    8.4578 N   0  0  0  0  0  0  0  0  0  0  0  0
   64.8197   14.5973    9.2559 H   0  0  0  0  0  0  0  0  0  0  0  0
   66.0070   15.9882    8.5038 C   0  0  0  0  0  0  0  0  0  0  0  0
   65.3310   16.8322    9.2926 N   0  0  0  0  0  0  0  0  0  0  0  0
   65.9614   17.9966    9.5738 C   0  0  0  0  0  0  0  0  0  0  0  0
   67.2268   18.3074    9.1303 C   0  0  0  0  0  0  0  0  0  0  0  0
   67.9858   19.7916    9.5017 Cl  0  0  0  0  0  0  0  0  0  0  0  0
   67.8353   17.3375    8.3682 C   0  0  0  0  0  0  0  0  0  0  0  0
   67.2541   16.1559    8.0572 N   0  0  0  0  0  0  0  0  0  0  0  0
   68.7815   10.8151    5.5868 C   0  0  0  0  0  0  0  0  0  0  0  0
   70.5617    9.5859    4.3083 C   0  0  0  0  0  0  0  0  0  0  0  0
   69.2349   10.3408    4.1927 C   0  0  0  0  0  0  0  0  0  0  0  0
   69.3892   11.5039    3.2093 C   0  0  0  0  0  0  0  0  0  0  0  0
   66.5947   11.0888    3.7006 H   0  0  0  0  0  0  0  0  0  0  0  0
   65.1753   14.4336    2.9920 H   0  0  0  0  0  0  0  0  0  0  0  0
   63.1940   14.9039    1.6738 H   0  0  0  0  0  0  0  0  0  0  0  0
   61.1831   13.5763    1.9757 H   0  0  0  0  0  0  0  0  0  0  0  0
   63.1768   11.2318    4.8480 H   0  0  0  0  0  0  0  0  0  0  0  0
   60.0231    9.5328    3.8105 H   0  0  0  0  0  0  0  0  0  0  0  0
   61.7893    9.6443    3.6451 H   0  0  0  0  0  0  0  0  0  0  0  0
   59.8462   11.6596    1.2786 H   0  0  0  0  0  0  0  0  0  0  0  0
   60.1080   10.6768   -1.0947 H   0  0  0  0  0  0  0  0  0  0  0  0
   63.0974    8.1403    3.0920 H   0  0  0  0  0  0  0  0  0  0  0  0
   63.8215    7.8948    1.5209 H   0  0  0  0  0  0  0  0  0  0  0  0
   63.4743    6.5236    2.5467 H   0  0  0  0  0  0  0  0  0  0  0  0
   60.6574    7.3420    3.4665 H   0  0  0  0  0  0  0  0  0  0  0  0
   61.1705    5.7666    2.9118 H   0  0  0  0  0  0  0  0  0  0  0  0
   59.8250    6.5696    2.1386 H   0  0  0  0  0  0  0  0  0  0  0  0
   62.5476    6.8634   -0.3199 H   0  0  0  0  0  0  0  0  0  0  0  0
   60.9186    6.2893   -0.0556 H   0  0  0  0  0  0  0  0  0  0  0  0
   62.2642    5.4863    0.7176 H   0  0  0  0  0  0  0  0  0  0  0  0
   65.4649   18.6909   10.1538 H   0  0  0  0  0  0  0  0  0  0  0  0
   68.7872   17.5210    8.0143 H   0  0  0  0  0  0  0  0  0  0  0  0
   69.5577   11.4170    6.0112 H   0  0  0  0  0  0  0  0  0  0  0  0
   68.5866    9.9421    6.1740 H   0  0  0  0  0  0  0  0  0  0  0  0
   70.8718    9.2590    3.3378 H   0  0  0  0  0  0  0  0  0  0  0  0
   70.4345    8.7369    4.9469 H   0  0  0  0  0  0  0  0  0  0  0  0
   71.3062   10.2343    4.7210 H   0  0  0  0  0  0  0  0  0  0  0  0
   68.4745    9.6919    3.8110 H   0  0  0  0  0  0  0  0  0  0  0  0
   70.1451   12.1730    3.5640 H   0  0  0  0  0  0  0  0  0  0  0  0
   68.4596   12.0273    3.1272 H   0  0  0  0  0  0  0  0  0  0  0  0
   69.6708   11.1243    2.2493 H   0  0  0  0  0  0  0  0  0  0  0  0
  1  2  2  0  0  0  0
  2  3  1  0  0  0  0
  2 40  1  0  0  0  0
  3  6  1  0  0  0  0
  3  4  2  0  0  0  0
  4 24  1  0  0  0  0
  4  5  1  0  0  0  0
  5  1  1  0  0  0  0
  6  7  2  0  0  0  0
  7  8  1  0  0  0  0
  7 41  1  0  0  0  0
  8  9  2  0  0  0  0
  8 42  1  0  0  0  0
  9 10  1  0  0  0  0
  9 43  1  0  0  0  0
 10 12  1  0  0  0  0
 10 11  2  0  0  0  0
 11  6  1  0  0  0  0
 11 44  1  0  0  0  0
 12 13  2  0  0  0  0
 12 14  1  0  0  0  0
 14 15  1  0  0  0  0
 14 45  1  0  0  0  0
 14 46  1  0  0  0  0
 15 16  1  0  0  0  0
 16 17  2  0  0  0  0
 16 47  1  0  0  0  0
 17 18  1  0  0  0  0
 17 48  1  0  0  0  0
 18 19  2  0  0  0  0
 19 20  1  0  0  0  0
 19 15  1  0  0  0  0
 20 21  1  0  0  0  0
 20 22  1  0  0  0  0
 20 23  1  0  0  0  0
 21 49  1  0  0  0  0
 21 50  1  0  0  0  0
 21 51  1  0  0  0  0
 22 52  1  0  0  0  0
 22 53  1  0  0  0  0
 22 54  1  0  0  0  0
 23 55  1  0  0  0  0
 23 56  1  0  0  0  0
 23 57  1  0  0  0  0
 24 25  2  0  0  0  0
 24 26  2  0  0  0  0
 24 27  1  0  0  0  0
 27 29  1  0  0  0  0
 27 28  1  0  0  0  0
 29 30  2  0  0  0  0
 30 31  1  0  0  0  0
 31 32  2  0  0  0  0
 31 58  1  0  0  0  0
 32 33  1  0  0  0  0
 32 34  1  0  0  0  0
 34 35  2  0  0  0  0
 34 59  1  0  0  0  0
 35 29  1  0  0  0  0
 36  1  1  0  0  0  0
 36 60  1  0  0  0  0
 36 61  1  0  0  0  0
 37 38  1  0  0  0  0
 37 62  1  0  0  0  0
 37 63  1  0  0  0  0
 37 64  1  0  0  0  0
 38 39  1  0  0  0  0
 38 36  1  0  0  0  0
 38 65  1  0  0  0  0
 39 66  1  0  0  0  0
 39 67  1  0  0  0  0
 39 68  1  0  0  0  0
M  END
>  <minimizedAffinity>
-10.83620

$$$$
