shp2_000
     RDKit          3D

 43 45  0  0  1  0  0  0  0  0999 V2000
   24.5843   41.3785    2.5740 N   0  0  0  0  0  0  0  0  0  0  0  0
   25.0812   42.6814    2.1511 C   0  0  0  0  0  0  0  0  0  0  0  0
   25.9844   43.2506    3.2220 C   0  0  0  0  0  0  0  0  0  0  0  0
   27.1614   42.3255    3.5089 C   0  0  0  0  0  0  0  0  0  0  0  0
   26.6737   40.9026    3.7706 C   0  0  0  0  0  0  0  0  0  0  0  0
   25.6761   40.4233    2.7291 C   0  0  0  0  0  0  0  0  0  0  0  0
   19.8715   40.6407    5.3348 C   0  0  0  0  0  0  0  0  0  0  0  0
   19.5571   40.8225    6.6895 C   0  0  0  0  0  0  0  0  0  0  0  0
   18.2518   40.6475    7.1490 C   0  0  0  0  0  0  0  0  0  0  0  0
   17.2564   40.1729    6.3049 C   0  0  0  0  0  0  0  0  0  0  0  0
   17.5772   39.9187    4.9762 C   0  0  0  0  0  0  0  0  0  0  0  0
   18.8486   40.1882    4.4995 C   0  0  0  0  0  0  0  0  0  0  0  0
   21.1796   40.9441    4.7481 C   0  0  0  0  0  0  0  0  0  0  0  0
   21.2481   41.9493    3.8726 N   0  0  0  0  0  0  0  0  0  0  0  0
   22.3763   42.1483    3.2027 C   0  0  0  0  0  0  0  0  0  0  0  0
   23.4780   41.2749    3.3650 C   0  0  0  0  0  0  0  0  0  0  0  0
   23.4519   40.3136    4.2893 N   0  0  0  0  0  0  0  0  0  0  0  0
   22.3367   40.1442    4.9994 C   0  0  0  0  0  0  0  0  0  0  0  0
   17.8128   41.1337    8.7693 Cl  0  0  0  0  0  0  0  0  0  0  0  0
   20.8016   41.3048    7.8112 Cl  0  0  0  0  0  0  0  0  0  0  0  0
   22.3398   39.1778    5.9293 N   0  0  0  0  0  0  0  0  0  0  0  0
   27.7569   42.8039    4.8288 N   0  0  0  0  0  0  0  0  0  0  0  0
   28.2421   42.4169    2.4480 C   0  0  0  0  0  0  0  0  0  0  0  0
   25.6114   42.5599    1.2122 H   0  0  0  0  0  0  0  0  0  0  0  0
   24.2580   43.3560    1.9709 H   0  0  0  0  0  0  0  0  0  0  0  0
   25.3990   43.3816    4.1337 H   0  0  0  0  0  0  0  0  0  0  0  0
   26.3423   44.2361    2.9358 H   0  0  0  0  0  0  0  0  0  0  0  0
   26.1770   40.8529    4.7379 H   0  0  0  0  0  0  0  0  0  0  0  0
   27.5294   40.2324    3.8110 H   0  0  0  0  0  0  0  0  0  0  0  0
   26.1619   40.3107    1.7597 H   0  0  0  0  0  0  0  0  0  0  0  0
   25.2632   39.4587    2.9957 H   0  0  0  0  0  0  0  0  0  0  0  0
   16.2677   39.9884    6.6983 H   0  0  0  0  0  0  0  0  0  0  0  0
   16.8330   39.5256    4.2996 H   0  0  0  0  0  0  0  0  0  0  0  0
   19.0668   40.0347    3.4519 H   0  0  0  0  0  0  0  0  0  0  0  0
   22.3867   42.9542    2.4882 H   0  0  0  0  0  0  0  0  0  0  0  0
   21.5448   39.0273    6.5251 H   0  0  0  0  0  0  0  0  0  0  0  0
   23.1821   38.6527    6.1546 H   0  0  0  0  0  0  0  0  0  0  0  0
   28.7300   42.5370    4.9445 H   0  0  0  0  0  0  0  0  0  0  0  0
   27.7342   43.8156    4.9254 H   0  0  0  0  0  0  0  0  0  0  0  0
   27.8466   42.1079    1.4824 H   0  0  0  0  0  0  0  0  0  0  0  0
   29.0937   41.7700    2.6621 H   0  0  0  0  0  0  0  0  0  0  0  0
   28.5876   43.4450    2.3619 H   0  0  0  0  0  0  0  0  0  0  0  0
   27.2510   42.4103    5.6300 H   0  0  0  0  0  0  0  0  0  0  0  0
  1  2  1  0
  1  6  1  0
  1 16  1  0
  2  3  1  0
  2 24  1  0
  2 25  1  0
  3  4  1  0
  3 26  1  0
  3 27  1  0
  4  5  1  0
  4 22  1  0
  4 23  1  0
  5  6  1  0
  5 28  1  0
  5 29  1  0
  6 30  1  0
  6 31  1  0
  7  8  2  0
  7 12  1  0
  7 13  1  0
  8  9  1  0
  8 20  1  0
  9 10  2  0
  9 19  1  0
 10 11  1  0
 10 32  1  0
 11 12  2  0
 11 33  1  0
 12 34  1  0
 13 14  2  0
 13 18  1  0
 14 15  1  0
 15 16  2  0
 15 35  1  0
 16 17  1  0
 17 18  2  0
 18 21  1  0
 21 36  1  0
 21 37  1  0
 22 38  1  0
 22 39  1  0
 22 43  1  0
 23 40  1  0
 23 41  1  0
 23 42  1  0
M  CHG  1  22   1
M  END
>  <r_exp_dg>  (1) 
-9.75265

>  <mol_id>  (1) 
0

>  <source_index>  (1) 
0

>  <paff>  (1) 
7.1500354498362606

>  <source_r_exp_dg>  (1) 
-9.7526499999999992

>  <smiles>  (1) 
CC1(N)CCN(c2cnc(-c3cccc(Cl)c3Cl)c(N)n2)CC1

>  <aimnet_interaction_kcal_mol>  (1) 
-247.71244596490018

$$$$
shp2_001
     RDKit          3D

 43 45  0  0  1  0  0  0  0  0999 V2000
   24.6310   41.4327    3.0629 N   0  0  0  0  0  0  0  0  0  0  0  0
   25.1151   42.7102    2.5672 C   0  0  0  0  0  0  0  0  0  0  0  0
   26.5342   42.9820    3.0325 C   0  0  0  0  0  0  0  0  0  0  0  0
   27.4820   41.8572    2.6745 C   0  0  0  0  0  0  0  0  0  0  0  0
   26.9453   40.5825    3.2969 C   0  0  0  0  0  0  0  0  0  0  0  0
   25.5214   40.2958    2.8543 C   0  0  0  0  0  0  0  0  0  0  0  0
   19.7404   40.6046    5.5176 C   0  0  0  0  0  0  0  0  0  0  0  0
   19.4195   40.8579    6.8560 C   0  0  0  0  0  0  0  0  0  0  0  0
   18.1066   40.7229    7.3063 C   0  0  0  0  0  0  0  0  0  0  0  0
   17.1152   40.2230    6.4702 C   0  0  0  0  0  0  0  0  0  0  0  0
   17.4444   39.8974    5.1596 C   0  0  0  0  0  0  0  0  0  0  0  0
   18.7243   40.1330    4.6849 C   0  0  0  0  0  0  0  0  0  0  0  0
   21.0610   40.8520    4.9327 C   0  0  0  0  0  0  0  0  0  0  0  0
   21.1176   41.7663    3.9650 N   0  0  0  0  0  0  0  0  0  0  0  0
   22.2253   41.9320    3.2871 C   0  0  0  0  0  0  0  0  0  0  0  0
   23.4189   41.2250    3.6321 C   0  0  0  0  0  0  0  0  0  0  0  0
   23.3515   40.2734    4.5574 N   0  0  0  0  0  0  0  0  0  0  0  0
   22.2167   40.0711    5.2249 C   0  0  0  0  0  0  0  0  0  0  0  0
   17.6555   41.2790    8.8972 Cl  0  0  0  0  0  0  0  0  0  0  0  0
   20.6817   41.3571    7.9497 Cl  0  0  0  0  0  0  0  0  0  0  0  0
   22.2043   39.0821    6.1271 N   0  0  0  0  0  0  0  0  0  0  0  0
   28.8367   42.1351    3.2972 N   0  0  0  0  0  0  0  0  0  0  0  0
   27.7313   41.7379    1.1814 C   0  0  0  0  0  0  0  0  0  0  0  0
   25.0492   42.7277    1.4838 H   0  0  0  0  0  0  0  0  0  0  0  0
   24.4759   43.4994    2.9407 H   0  0  0  0  0  0  0  0  0  0  0  0
   26.5176   43.1061    4.1138 H   0  0  0  0  0  0  0  0  0  0  0  0
   26.8756   43.9201    2.6029 H   0  0  0  0  0  0  0  0  0  0  0  0
   26.9438   40.6660    4.3837 H   0  0  0  0  0  0  0  0  0  0  0  0
   27.5866   39.7450    3.0318 H   0  0  0  0  0  0  0  0  0  0  0  0
   25.5002   40.0084    1.7994 H   0  0  0  0  0  0  0  0  0  0  0  0
   25.1263   39.4626    3.4147 H   0  0  0  0  0  0  0  0  0  0  0  0
   16.1183   40.0709    6.8569 H   0  0  0  0  0  0  0  0  0  0  0  0
   18.9575   39.9424    3.6452 H   0  0  0  0  0  0  0  0  0  0  0  0
   22.0496   42.9794    1.6968 Br  0  0  0  0  0  0  0  0  0  0  0  0
   23.0615   38.5853    6.3662 H   0  0  0  0  0  0  0  0  0  0  0  0
   21.4228   38.9523    6.7455 H   0  0  0  0  0  0  0  0  0  0  0  0
   29.5749   41.3877    3.0319 H   0  0  0  0  0  0  0  0  0  0  0  0
   26.8213   41.5032    0.6383 H   0  0  0  0  0  0  0  0  0  0  0  0
   28.4605   40.9585    0.9777 H   0  0  0  0  0  0  0  0  0  0  0  0
   28.1043   42.6807    0.7789 H   0  0  0  0  0  0  0  0  0  0  0  0
   29.1802   43.0438    3.0049 H   0  0  0  0  0  0  0  0  0  0  0  0
   16.7004   39.4824    4.4963 H   0  0  0  0  0  0  0  0  0  0  0  0
   28.7723   42.1647    4.3119 H   0  0  0  0  0  0  0  0  0  0  0  0
  1  2  1  0
  1  6  1  0
  1 16  1  0
  2  3  1  0
  2 24  1  0
  2 25  1  0
  3  4  1  0
  3 26  1  0
  3 27  1  0
  4  5  1  0
  4 22  1  0
  4 23  1  0
  5  6  1  0
  5 28  1  0
  5 29  1  0
  6 30  1  0
  6 31  1  0
  7  8  2  0
  7 12  1  0
  7 13  1  0
  8  9  1  0
  8 20  1  0
  9 10  2  0
  9 19  1  0
 10 11  1  0
 10 32  1  0
 11 12  2  0
 11 42  1  0
 12 33  1  0
 13 14  2  0
 13 18  1  0
 14 15  1  0
 15 16  2  0
 15 34  1  0
 16 17  1  0
 17 18  2  0
 18 21  1  0
 21 35  1  0
 21 36  1  0
 22 37  1  0
 22 41  1  0
 22 43  1  0
 23 38  1  0
 23 39  1  0
 23 40  1  0
M  CHG  1  22   1
M  END
>  <r_exp_dg>  (2) 
-9.23883

>  <mol_id>  (2) 
1

>  <source_index>  (2) 
1

>  <paff>  (2) 
6.7733389890788231

>  <source_r_exp_dg>  (2) 
-9.2388300000000001

>  <smiles>  (2) 
CC1(N)CCN(c2nc(N)c(-c3cccc(Cl)c3Cl)nc2Br)CC1

>  <aimnet_interaction_kcal_mol>  (2) 
-253.97354537971717

$$$$
shp2_002
     RDKit          3D

 47 49  0  0  1  0  0  0  0  0999 V2000
   24.3784   41.4830    2.7440 N   0  0  0  0  0  0  0  0  0  0  0  0
   24.8989   42.7685    2.3000 C   0  0  0  0  0  0  0  0  0  0  0  0
   25.9083   43.2908    3.2987 C   0  0  0  0  0  0  0  0  0  0  0  0
   27.0617   42.3186    3.5165 C   0  0  0  0  0  0  0  0  0  0  0  0
   26.5276   40.9157    3.7918 C   0  0  0  0  0  0  0  0  0  0  0  0
   25.4523   40.4953    2.8011 C   0  0  0  0  0  0  0  0  0  0  0  0
   19.8764   40.6770    5.8732 C   0  0  0  0  0  0  0  0  0  0  0  0
   18.7727   40.3499    5.1977 C   0  0  0  0  0  0  0  0  0  0  0  0
   17.5059   39.8333    5.8037 C   0  0  0  0  0  0  0  0  0  0  0  0
   17.5037   39.8248    7.3297 C   0  0  0  0  0  0  0  0  0  0  0  0
   18.4621   40.8320    7.9442 C   0  0  0  0  0  0  0  0  0  0  0  0
   19.8653   40.6699    7.3820 C   0  0  0  0  0  0  0  0  0  0  0  0
   21.1166   40.9901    5.1425 C   0  0  0  0  0  0  0  0  0  0  0  0
   21.1526   42.0548    4.3387 N   0  0  0  0  0  0  0  0  0  0  0  0
   22.2302   42.2721    3.5863 C   0  0  0  0  0  0  0  0  0  0  0  0
   23.3239   41.3761    3.6082 C   0  0  0  0  0  0  0  0  0  0  0  0
   23.3410   40.3622    4.4735 N   0  0  0  0  0  0  0  0  0  0  0  0
   22.2690   40.1523    5.2386 C   0  0  0  0  0  0  0  0  0  0  0  0
   22.3286   39.1185    6.0894 N   0  0  0  0  0  0  0  0  0  0  0  0
   27.7410   42.7714    4.8096 N   0  0  0  0  0  0  0  0  0  0  0  0
   28.0946   42.3748    2.4069 C   0  0  0  0  0  0  0  0  0  0  0  0
   25.3531   42.6314    1.3251 H   0  0  0  0  0  0  0  0  0  0  0  0
   24.0953   43.4794    2.1847 H   0  0  0  0  0  0  0  0  0  0  0  0
   25.3960   43.4441    4.2474 H   0  0  0  0  0  0  0  0  0  0  0  0
   26.2877   44.2610    2.9878 H   0  0  0  0  0  0  0  0  0  0  0  0
   26.0818   40.8781    4.7845 H   0  0  0  0  0  0  0  0  0  0  0  0
   27.3491   40.2026    3.7792 H   0  0  0  0  0  0  0  0  0  0  0  0
   25.8693   40.4006    1.7989 H   0  0  0  0  0  0  0  0  0  0  0  0
   25.0358   39.5346    3.0675 H   0  0  0  0  0  0  0  0  0  0  0  0
   18.7973   40.3889    4.1135 H   0  0  0  0  0  0  0  0  0  0  0  0
   17.3329   38.8293    5.4224 H   0  0  0  0  0  0  0  0  0  0  0  0
   16.6509   40.3905    5.4084 H   0  0  0  0  0  0  0  0  0  0  0  0
   16.4939   39.9851    7.7045 H   0  0  0  0  0  0  0  0  0  0  0  0
   17.7920   38.8454    7.6850 H   0  0  0  0  0  0  0  0  0  0  0  0
   18.4722   40.7358    9.0255 H   0  0  0  0  0  0  0  0  0  0  0  0
   18.0828   41.8427    7.7654 H   0  0  0  0  0  0  0  0  0  0  0  0
   20.5502   41.4170    7.7789 H   0  0  0  0  0  0  0  0  0  0  0  0
   20.2424   39.7195    7.7581 H   0  0  0  0  0  0  0  0  0  0  0  0
   22.2200   43.1392    2.9427 H   0  0  0  0  0  0  0  0  0  0  0  0
   21.5249   38.7855    6.5855 H   0  0  0  0  0  0  0  0  0  0  0  0
   23.1911   38.5945    6.2323 H   0  0  0  0  0  0  0  0  0  0  0  0
   28.7152   42.4911    4.8711 H   0  0  0  0  0  0  0  0  0  0  0  0
   27.7412   43.7823    4.9192 H   0  0  0  0  0  0  0  0  0  0  0  0
   27.6411   42.0818    1.4618 H   0  0  0  0  0  0  0  0  0  0  0  0
   28.9349   41.7041    2.5867 H   0  0  0  0  0  0  0  0  0  0  0  0
   28.4697   43.3912    2.3016 H   0  0  0  0  0  0  0  0  0  0  0  0
   27.2713   42.3755    5.6312 H   0  0  0  0  0  0  0  0  0  0  0  0
  1  2  1  0
  1  6  1  0
  1 16  1  0
  2  3  1  0
  2 22  1  0
  2 23  1  0
  3  4  1  0
  3 24  1  0
  3 25  1  0
  4  5  1  0
  4 20  1  0
  4 21  1  0
  5  6  1  0
  5 26  1  0
  5 27  1  0
  6 28  1  0
  6 29  1  0
  7  8  2  0
  7 12  1  0
  7 13  1  0
  8  9  1  0
  8 30  1  0
  9 10  1  0
  9 31  1  0
  9 32  1  0
 10 11  1  0
 10 33  1  0
 10 34  1  0
 11 12  1  0
 11 35  1  0
 11 36  1  0
 12 37  1  0
 12 38  1  0
 13 14  2  0
 13 18  1  0
 14 15  1  0
 15 16  2  0
 15 39  1  0
 16 17  1  0
 17 18  2  0
 18 19  1  0
 19 40  1  0
 19 41  1  0
 20 42  1  0
 20 43  1  0
 20 47  1  0
 21 44  1  0
 21 45  1  0
 21 46  1  0
M  CHG  1  20   1
M  END
>  <r_exp_dg>  (3) 
-7.62278

>  <mol_id>  (3) 
2

>  <source_index>  (3) 
2

>  <paff>  (3) 
5.5885507214453911

>  <source_r_exp_dg>  (3) 
-7.6227799999999997

>  <smiles>  (3) 
CC1(N)CCN(c2cnc(C3=CCCCC3)c(N)n2)CC1

>  <aimnet_interaction_kcal_mol>  (3) 
-239.05702866763403

$$$$
shp2_004
     RDKit          3D

 43 45  0  0  1  0  0  0  0  0999 V2000
   25.5209   41.1215    3.0821 N   0  0  0  0  0  0  0  0  0  0  0  0
   26.2214   42.3682    2.8249 C   0  0  0  0  0  0  0  0  0  0  0  0
   27.6768   42.1366    2.4061 C   0  0  1  0  0  0  0  0  0  0  0  0
   28.1918   40.8963    3.0908 N   0  0  0  0  0  0  0  0  0  0  0  0
   27.4239   39.6168    2.8383 C   0  0  1  0  0  0  0  0  0  0  0  0
   26.0108   39.9415    2.4103 C   0  0  0  0  0  0  0  0  0  0  0  0
   20.4979   40.7741    5.3149 C   0  0  0  0  0  0  0  0  0  0  0  0
   20.1977   40.9536    6.6754 C   0  0  0  0  0  0  0  0  0  0  0  0
   18.9019   40.7711    7.1397 C   0  0  0  0  0  0  0  0  0  0  0  0
   17.8950   40.3728    6.2700 C   0  0  0  0  0  0  0  0  0  0  0  0
   18.1892   40.1008    4.9426 C   0  0  0  0  0  0  0  0  0  0  0  0
   19.4706   40.3250    4.4696 C   0  0  0  0  0  0  0  0  0  0  0  0
   21.8670   40.9764    4.8236 C   0  0  0  0  0  0  0  0  0  0  0  0
   22.3287   42.0859    4.1478 C   0  0  0  0  0  0  0  0  0  0  0  0
   23.5638   42.2061    3.6547 N   0  0  0  0  0  0  0  0  0  0  0  0
   24.3336   41.1107    3.7577 C   0  0  0  0  0  0  0  0  0  0  0  0
   24.0470   40.0067    4.4516 N   0  0  0  0  0  0  0  0  0  0  0  0
   22.8526   39.9693    5.0494 C   0  0  0  0  0  0  0  0  0  0  0  0
   18.5248   41.0382    8.8196 Cl  0  0  0  0  0  0  0  0  0  0  0  0
   22.5897   38.9543    5.8732 N   0  0  0  0  0  0  0  0  0  0  0  0
   27.9180   42.1100    0.9173 C   0  0  0  0  0  0  0  0  0  0  0  0
   28.1243   38.7374    1.8334 C   0  0  0  0  0  0  0  0  0  0  0  0
   16.2186   40.3845    6.7958 Cl  0  0  0  0  0  0  0  0  0  0  0  0
   26.2009   42.9735    3.7265 H   0  0  0  0  0  0  0  0  0  0  0  0
   25.7151   42.9410    2.0542 H   0  0  0  0  0  0  0  0  0  0  0  0
   28.2721   42.9426    2.8298 H   0  0  0  0  0  0  0  0  0  0  0  0
   28.1250   41.0863    4.0870 H   0  0  0  0  0  0  0  0  0  0  0  0
   27.3865   39.1277    3.8080 H   0  0  0  0  0  0  0  0  0  0  0  0
   25.3676   39.0994    2.6400 H   0  0  0  0  0  0  0  0  0  0  0  0
   25.9722   40.0794    1.3286 H   0  0  0  0  0  0  0  0  0  0  0  0
   20.9618   41.2464    7.3789 H   0  0  0  0  0  0  0  0  0  0  0  0
   17.4246   39.7155    4.2840 H   0  0  0  0  0  0  0  0  0  0  0  0
   19.6755   40.1178    3.4303 H   0  0  0  0  0  0  0  0  0  0  0  0
   21.6663   42.9333    3.9830 H   0  0  0  0  0  0  0  0  0  0  0  0
   21.7145   38.9018    6.3642 H   0  0  0  0  0  0  0  0  0  0  0  0
   23.3475   38.3626    6.2193 H   0  0  0  0  0  0  0  0  0  0  0  0
   27.6781   43.0889    0.5169 H   0  0  0  0  0  0  0  0  0  0  0  0
   27.2924   41.3960    0.3914 H   0  0  0  0  0  0  0  0  0  0  0  0
   28.9606   41.8893    0.7032 H   0  0  0  0  0  0  0  0  0  0  0  0
   29.0935   38.4291    2.2071 H   0  0  0  0  0  0  0  0  0  0  0  0
   28.2753   39.2605    0.8926 H   0  0  0  0  0  0  0  0  0  0  0  0
   27.5102   37.8607    1.6418 H   0  0  0  0  0  0  0  0  0  0  0  0
   29.2497   40.7144    2.8961 H   0  0  0  0  0  0  0  0  0  0  0  0
  1  2  1  0
  1  6  1  0
  1 16  1  0
  2  3  1  0
  2 24  1  0
  2 25  1  0
  3  4  1  0
  3 21  1  0
  3 26  1  1
  4  5  1  0
  4 27  1  0
  4 43  1  0
  5  6  1  0
  5 22  1  0
  5 28  1  1
  6 29  1  0
  6 30  1  0
  7  8  2  0
  7 12  1  0
  7 13  1  0
  8  9  1  0
  8 31  1  0
  9 10  2  0
  9 19  1  0
 10 11  1  0
 10 23  1  0
 11 12  2  0
 11 32  1  0
 12 33  1  0
 13 14  2  0
 13 18  1  0
 14 15  1  0
 14 34  1  0
 15 16  2  0
 16 17  1  0
 17 18  2  0
 18 20  1  0
 20 35  1  0
 20 36  1  0
 21 37  1  0
 21 38  1  0
 21 39  1  0
 22 40  1  0
 22 41  1  0
 22 42  1  0
M  CHG  1   4   1
M  END
>  <r_exp_dg>  (4) 
-5.82207

>  <mol_id>  (4) 
4

>  <source_index>  (4) 
4

>  <paff>  (4) 
4.2683788059044439

>  <source_r_exp_dg>  (4) 
-5.8220700000000001

>  <smiles>  (4) 
C[C@@H]1CN(c2ncc(-c3ccc(Cl)c(Cl)c3)c(N)n2)C[C@H](C)N1

>  <aimnet_interaction_kcal_mol>  (4) 
-236.6758023365642

$$$$
shp2_005
     RDKit          3D

 46 48  0  0  1  0  0  0  0  0999 V2000
   24.6406   41.2735    2.6455 N   0  0  0  0  0  0  0  0  0  0  0  0
   25.7574   40.3533    2.7924 C   0  0  0  0  0  0  0  0  0  0  0  0
   26.7492   40.8835    3.8110 C   0  0  0  0  0  0  0  0  0  0  0  0
   27.1742   42.3208    3.5154 C   0  0  0  0  0  0  0  0  0  0  0  0
   25.9695   43.2084    3.2200 C   0  0  0  0  0  0  0  0  0  0  0  0
   25.0585   42.5879    2.1793 C   0  0  0  0  0  0  0  0  0  0  0  0
   19.8987   40.6137    5.3274 C   0  0  0  0  0  0  0  0  0  0  0  0
   19.5475   40.7818    6.6722 C   0  0  0  0  0  0  0  0  0  0  0  0
   18.2430   40.5970    7.1445 C   0  0  0  0  0  0  0  0  0  0  0  0
   17.2741   40.1673    6.2365 C   0  0  0  0  0  0  0  0  0  0  0  0
   17.5945   39.9826    4.8992 C   0  0  0  0  0  0  0  0  0  0  0  0
   18.8792   40.2393    4.4492 C   0  0  0  0  0  0  0  0  0  0  0  0
   21.2323   40.8596    4.7826 C   0  0  0  0  0  0  0  0  0  0  0  0
   21.4195   41.8382    3.8301 C   0  0  0  0  0  0  0  0  0  0  0  0
   22.5556   42.0730    3.1874 N   0  0  0  0  0  0  0  0  0  0  0  0
   23.5434   41.1759    3.4327 C   0  0  0  0  0  0  0  0  0  0  0  0
   23.5188   40.2175    4.3652 N   0  0  0  0  0  0  0  0  0  0  0  0
   22.3847   40.0588    5.0538 C   0  0  0  0  0  0  0  0  0  0  0  0
   17.8887   40.8736    8.5669 C   0  0  0  0  0  0  0  0  0  0  0  0
   20.7907   41.2822    7.8044 Cl  0  0  0  0  0  0  0  0  0  0  0  0
   22.3590   39.0980    5.9798 N   0  0  0  0  0  0  0  0  0  0  0  0
   27.7596   42.8359    4.8243 N   0  0  0  0  0  0  0  0  0  0  0  0
   28.2454   42.4276    2.4465 C   0  0  0  0  0  0  0  0  0  0  0  0
   26.2340   40.2402    1.8182 H   0  0  0  0  0  0  0  0  0  0  0  0
   25.3825   39.3799    3.0813 H   0  0  0  0  0  0  0  0  0  0  0  0
   26.2698   40.8247    4.7869 H   0  0  0  0  0  0  0  0  0  0  0  0
   27.6337   40.2512    3.8456 H   0  0  0  0  0  0  0  0  0  0  0  0
   25.3943   43.3529    4.1364 H   0  0  0  0  0  0  0  0  0  0  0  0
   26.2999   44.1947    2.9042 H   0  0  0  0  0  0  0  0  0  0  0  0
   25.5643   42.4720    1.2260 H   0  0  0  0  0  0  0  0  0  0  0  0
   24.1781   43.1929    2.0274 H   0  0  0  0  0  0  0  0  0  0  0  0
   16.2717   39.9512    6.5857 H   0  0  0  0  0  0  0  0  0  0  0  0
   16.8463   39.6482    4.1966 H   0  0  0  0  0  0  0  0  0  0  0  0
   19.1197   40.1175    3.4013 H   0  0  0  0  0  0  0  0  0  0  0  0
   28.7331   42.5757    4.9531 H   0  0  0  0  0  0  0  0  0  0  0  0
   29.1118   41.8016    2.6608 H   0  0  0  0  0  0  0  0  0  0  0  0
   28.5672   43.4620    2.3488 H   0  0  0  0  0  0  0  0  0  0  0  0
   27.8496   42.1019    1.4866 H   0  0  0  0  0  0  0  0  0  0  0  0
   27.7264   43.8492    4.8978 H   0  0  0  0  0  0  0  0  0  0  0  0
   23.1969   38.5754    6.2312 H   0  0  0  0  0  0  0  0  0  0  0  0
   20.5722   42.4672    3.5552 H   0  0  0  0  0  0  0  0  0  0  0  0
   21.5529   38.9670    6.5618 H   0  0  0  0  0  0  0  0  0  0  0  0
   16.8560   40.6124    8.7624 H   0  0  0  0  0  0  0  0  0  0  0  0
   18.0138   41.9264    8.8287 H   0  0  0  0  0  0  0  0  0  0  0  0
   18.5039   40.3186    9.2639 H   0  0  0  0  0  0  0  0  0  0  0  0
   27.2503   42.4564    5.6291 H   0  0  0  0  0  0  0  0  0  0  0  0
  1  2  1  0
  1  6  1  0
  1 16  1  0
  2  3  1  0
  2 24  1  0
  2 25  1  0
  3  4  1  0
  3 26  1  0
  3 27  1  0
  4  5  1  0
  4 22  1  0
  4 23  1  0
  5  6  1  0
  5 28  1  0
  5 29  1  0
  6 30  1  0
  6 31  1  0
  7  8  2  0
  7 12  1  0
  7 13  1  0
  8  9  1  0
  8 20  1  0
  9 10  2  0
  9 19  1  0
 10 11  1  0
 10 32  1  0
 11 12  2  0
 11 33  1  0
 12 34  1  0
 13 14  2  0
 13 18  1  0
 14 15  1  0
 14 41  1  0
 15 16  2  0
 16 17  1  0
 17 18  2  0
 18 21  1  0
 19 43  1  0
 19 44  1  0
 19 45  1  0
 21 40  1  0
 21 42  1  0
 22 35  1  0
 22 39  1  0
 22 46  1  0
 23 36  1  0
 23 37  1  0
 23 38  1  0
M  CHG  1  22   1
M  END
>  <r_exp_dg>  (5) 
-8.27622

>  <mol_id>  (5) 
5

>  <source_index>  (5) 
5

>  <paff>  (5) 
6.0676109056668546

>  <source_r_exp_dg>  (5) 
-8.2762200000000004

>  <smiles>  (5) 
Cc1cccc(-c2cnc(N3CCC(C)(N)CC3)nc2N)c1Cl

>  <aimnet_interaction_kcal_mol>  (5) 
-235.17495687193019

$$$$
shp2_006
     RDKit          3D

 40 42  0  0  1  0  0  0  0  0999 V2000
   19.7128   40.6385    5.4618 C   0  0  0  0  0  0  0  0  0  0  0  0
   19.3952   40.8565    6.8103 C   0  0  0  0  0  0  0  0  0  0  0  0
   18.0886   40.7020    7.2681 C   0  0  0  0  0  0  0  0  0  0  0  0
   17.0974   40.2017    6.4310 C   0  0  0  0  0  0  0  0  0  0  0  0
   17.4273   39.8898    5.1179 C   0  0  0  0  0  0  0  0  0  0  0  0
   18.7024   40.1410    4.6387 C   0  0  0  0  0  0  0  0  0  0  0  0
   21.0216   40.9561    4.8900 C   0  0  0  0  0  0  0  0  0  0  0  0
   21.0930   41.9771    4.0328 N   0  0  0  0  0  0  0  0  0  0  0  0
   22.2588   42.2557    3.4629 C   0  0  0  0  0  0  0  0  0  0  0  0
   23.3990   41.4587    3.7297 C   0  0  0  0  0  0  0  0  0  0  0  0
   23.3498   40.4524    4.6034 N   0  0  0  0  0  0  0  0  0  0  0  0
   22.1848   40.1876    5.1857 C   0  0  0  0  0  0  0  0  0  0  0  0
   17.6409   41.2425    8.8672 Cl  0  0  0  0  0  0  0  0  0  0  0  0
   20.6562   41.3402    7.9162 Cl  0  0  0  0  0  0  0  0  0  0  0  0
   22.1552   39.1451    6.0312 N   0  0  0  0  0  0  0  0  0  0  0  0
   24.5795   41.6914    3.1260 N   0  0  0  0  0  0  0  0  0  0  0  0
   25.7727   40.9238    3.4619 C   0  0  0  0  0  0  0  0  0  0  0  0
   26.8941   41.7491    2.8373 C   0  0  1  0  0  0  0  0  0  0  0  0
   26.2285   42.3630    1.6125 C   0  0  0  0  0  0  0  0  0  0  0  0
   24.8231   42.6970    2.0975 C   0  0  0  0  0  0  0  0  0  0  0  0
   27.3528   42.8396    3.7890 C   0  0  0  0  0  0  0  0  0  0  0  0
   28.2081   42.2744    4.8675 N   0  0  0  0  0  0  0  0  0  0  0  0
   16.1020   40.0439    6.8187 H   0  0  0  0  0  0  0  0  0  0  0  0
   16.6856   39.4752    4.4519 H   0  0  0  0  0  0  0  0  0  0  0  0
   18.9331   39.9423    3.6010 H   0  0  0  0  0  0  0  0  0  0  0  0
   22.3070   43.1026    2.7975 H   0  0  0  0  0  0  0  0  0  0  0  0
   23.0071   38.6432    6.2653 H   0  0  0  0  0  0  0  0  0  0  0  0
   21.3680   38.9935    6.6368 H   0  0  0  0  0  0  0  0  0  0  0  0
   25.8518   40.8238    4.5402 H   0  0  0  0  0  0  0  0  0  0  0  0
   25.7244   39.9125    3.0575 H   0  0  0  0  0  0  0  0  0  0  0  0
   27.7397   41.1247    2.5567 H   0  0  0  0  0  0  0  0  0  0  0  0
   26.7537   43.2376    1.2415 H   0  0  0  0  0  0  0  0  0  0  0  0
   26.1790   41.6412    0.8012 H   0  0  0  0  0  0  0  0  0  0  0  0
   24.0747   42.6246    1.3138 H   0  0  0  0  0  0  0  0  0  0  0  0
   24.7783   43.7021    2.5102 H   0  0  0  0  0  0  0  0  0  0  0  0
   27.9358   43.5967    3.2725 H   0  0  0  0  0  0  0  0  0  0  0  0
   26.5229   43.3504    4.2676 H   0  0  0  0  0  0  0  0  0  0  0  0
   28.6396   42.9908    5.4620 H   0  0  0  0  0  0  0  0  0  0  0  0
   27.6896   41.6639    5.4986 H   0  0  0  0  0  0  0  0  0  0  0  0
   28.9783   41.7565    4.4497 H   0  0  0  0  0  0  0  0  0  0  0  0
  1  2  2  0
  1  6  1  0
  1  7  1  0
  2  3  1  0
  2 14  1  0
  3  4  2  0
  3 13  1  0
  4  5  1  0
  4 23  1  0
  5  6  2  0
  5 24  1  0
  6 25  1  0
  7  8  2  0
  7 12  1  0
  8  9  1  0
  9 10  2  0
  9 26  1  0
 10 11  1  0
 10 16  1  0
 11 12  2  0
 12 15  1  0
 15 27  1  0
 15 28  1  0
 16 17  1  0
 16 20  1  0
 17 18  1  0
 17 29  1  0
 17 30  1  0
 18 19  1  0
 18 21  1  0
 18 31  1  6
 19 20  1  0
 19 32  1  0
 19 33  1  0
 20 34  1  0
 20 35  1  0
 21 22  1  0
 21 36  1  0
 21 37  1  0
 22 38  1  0
 22 39  1  0
 22 40  1  0
M  CHG  1  22   1
M  END
>  <r_exp_dg>  (6) 
-9.77823

>  <mol_id>  (6) 
6

>  <source_index>  (6) 
6

>  <paff>  (6) 
7.1687887141431874

>  <source_r_exp_dg>  (6) 
-9.7782300000000006

>  <smiles>  (6) 
NC[C@@H]1CCN(c2cnc(-c3cccc(Cl)c3Cl)c(N)n2)C1

>  <aimnet_interaction_kcal_mol>  (6) 
-250.65795581226939

$$$$
shp2_007
     RDKit          3D

 47 49  0  0  1  0  0  0  0  0999 V2000
   24.3365   41.6553    2.7523 N   0  0  0  0  0  0  0  0  0  0  0  0
   25.3132   40.5695    2.6371 C   0  0  0  0  0  0  0  0  0  0  0  0
   26.4640   40.7355    3.6174 C   0  0  0  0  0  0  0  0  0  0  0  0
   27.1485   42.0858    3.4865 C   0  0  0  0  0  0  0  0  0  0  0  0
   26.1048   43.1842    3.5501 C   0  0  0  0  0  0  0  0  0  0  0  0
   24.9791   42.9568    2.5690 C   0  0  0  0  0  0  0  0  0  0  0  0
   19.6920   40.5773    5.5823 C   0  0  0  0  0  0  0  0  0  0  0  0
   19.3830   40.8601    6.9139 C   0  0  0  0  0  0  0  0  0  0  0  0
   18.0724   40.7405    7.3749 C   0  0  0  0  0  0  0  0  0  0  0  0
   17.0807   40.2075    6.5587 C   0  0  0  0  0  0  0  0  0  0  0  0
   17.4102   39.8168    5.2693 C   0  0  0  0  0  0  0  0  0  0  0  0
   18.6917   40.0292    4.7847 C   0  0  0  0  0  0  0  0  0  0  0  0
   20.9810   40.9551    4.9654 C   0  0  0  0  0  0  0  0  0  0  0  0
   20.9900   42.0151    4.1802 N   0  0  0  0  0  0  0  0  0  0  0  0
   22.0422   42.2606    3.3900 C   0  0  0  0  0  0  0  0  0  0  0  0
   23.2204   41.4706    3.5266 C   0  0  0  0  0  0  0  0  0  0  0  0
   23.2512   40.4586    4.3981 N   0  0  0  0  0  0  0  0  0  0  0  0
   22.1725   40.1881    5.1313 C   0  0  0  0  0  0  0  0  0  0  0  0
   17.6237   41.3467    8.9447 Cl  0  0  0  0  0  0  0  0  0  0  0  0
   20.6588   41.3652    7.9924 Cl  0  0  0  0  0  0  0  0  0  0  0  0
   22.2396   39.1716    5.9976 N   0  0  0  0  0  0  0  0  0  0  0  0
   28.0586   42.2047    2.2779 C   0  0  0  0  0  0  0  0  0  0  0  0
   28.0257   42.2510    4.7130 N   0  0  0  0  0  0  0  0  0  0  0  0
   21.7194   43.2675    2.3331 C   0  0  0  0  0  0  0  0  0  0  0  0
   22.4052   43.1422    1.1848 N   0  0  0  0  0  0  0  0  0  0  0  0
   20.8412   44.1206    2.5054 O   0  0  0  0  0  0  0  0  0  0  0  0
   24.8142   39.6241    2.8038 H   0  0  0  0  0  0  0  0  0  0  0  0
   25.6854   40.5646    1.6119 H   0  0  0  0  0  0  0  0  0  0  0  0
   27.1916   39.9351    3.4848 H   0  0  0  0  0  0  0  0  0  0  0  0
   26.0522   40.6347    4.6208 H   0  0  0  0  0  0  0  0  0  0  0  0
   26.5621   44.1526    3.3648 H   0  0  0  0  0  0  0  0  0  0  0  0
   25.6920   43.2339    4.5536 H   0  0  0  0  0  0  0  0  0  0  0  0
   24.2421   43.7388    2.6658 H   0  0  0  0  0  0  0  0  0  0  0  0
   25.3554   43.0040    1.5516 H   0  0  0  0  0  0  0  0  0  0  0  0
   16.0823   40.0792    6.9507 H   0  0  0  0  0  0  0  0  0  0  0  0
   16.6633   39.3794    4.6247 H   0  0  0  0  0  0  0  0  0  0  0  0
   18.9239   39.7704    3.7608 H   0  0  0  0  0  0  0  0  0  0  0  0
   23.1096   38.6728    6.1670 H   0  0  0  0  0  0  0  0  0  0  0  0
   21.4972   38.9967    6.6525 H   0  0  0  0  0  0  0  0  0  0  0  0
   22.0671   43.5802    0.3449 H   0  0  0  0  0  0  0  0  0  0  0  0
   23.0555   42.3825    1.0493 H   0  0  0  0  0  0  0  0  0  0  0  0
   28.2483   43.2210    4.9166 H   0  0  0  0  0  0  0  0  0  0  0  0
   27.5841   41.8770    5.5570 H   0  0  0  0  0  0  0  0  0  0  0  0
   28.9211   41.7833    4.5817 H   0  0  0  0  0  0  0  0  0  0  0  0
   28.5234   43.1889    2.2633 H   0  0  0  0  0  0  0  0  0  0  0  0
   27.4913   42.0876    1.3578 H   0  0  0  0  0  0  0  0  0  0  0  0
   28.8455   41.4511    2.2908 H   0  0  0  0  0  0  0  0  0  0  0  0
  1  2  1  0
  1  6  1  0
  1 16  1  0
  2  3  1  0
  2 27  1  0
  2 28  1  0
  3  4  1  0
  3 29  1  0
  3 30  1  0
  4  5  1  0
  4 22  1  0
  4 23  1  0
  5  6  1  0
  5 31  1  0
  5 32  1  0
  6 33  1  0
  6 34  1  0
  7  8  2  0
  7 12  1  0
  7 13  1  0
  8  9  1  0
  8 20  1  0
  9 10  2  0
  9 19  1  0
 10 11  1  0
 10 35  1  0
 11 12  2  0
 11 36  1  0
 12 37  1  0
 13 14  2  0
 13 18  1  0
 14 15  1  0
 15 16  2  0
 15 24  1  0
 16 17  1  0
 17 18  2  0
 18 21  1  0
 21 38  1  0
 21 39  1  0
 22 45  1  0
 22 46  1  0
 22 47  1  0
 23 42  1  0
 23 43  1  0
 23 44  1  0
 24 25  1  0
 24 26  2  0
 25 40  1  0
 25 41  1  0
M  CHG  1  23   1
M  END
>  <r_exp_dg>  (7) 
-8.95905

>  <mol_id>  (7) 
7

>  <source_index>  (7) 
7

>  <paff>  (7) 
6.5682193051335398

>  <source_r_exp_dg>  (7) 
-8.9590499999999995

>  <smiles>  (7) 
CC1(N)CCN(c2nc(N)c(-c3cccc(Cl)c3Cl)nc2C(N)=O)CC1

>  <aimnet_interaction_kcal_mol>  (7) 
-265.62126102544676

$$$$
shp2_008
     RDKit          3D

 43 45  0  0  1  0  0  0  0  0999 V2000
   25.5172   41.1216    3.1426 N   0  0  0  0  0  0  0  0  0  0  0  0
   26.2077   42.3701    2.8644 C   0  0  0  0  0  0  0  0  0  0  0  0
   27.6647   42.1443    2.4428 C   0  0  1  0  0  0  0  0  0  0  0  0
   28.1804   40.8854    3.0937 N   0  0  0  0  0  0  0  0  0  0  0  0
   27.4086   39.6158    2.8079 C   0  0  1  0  0  0  0  0  0  0  0  0
   25.9826   39.9538    2.4306 C   0  0  0  0  0  0  0  0  0  0  0  0
   20.3892   40.7842    5.0897 C   0  0  0  0  0  0  0  0  0  0  0  0
   19.8544   40.8726    6.3897 C   0  0  0  0  0  0  0  0  0  0  0  0
   18.5087   40.5881    6.6212 C   0  0  0  0  0  0  0  0  0  0  0  0
   17.7009   40.0682    5.6230 C   0  0  0  0  0  0  0  0  0  0  0  0
   18.2125   39.9827    4.3360 C   0  0  0  0  0  0  0  0  0  0  0  0
   19.4983   40.4162    4.0706 C   0  0  0  0  0  0  0  0  0  0  0  0
   21.8122   41.0055    4.7855 C   0  0  0  0  0  0  0  0  0  0  0  0
   22.3074   42.1144    4.1347 C   0  0  0  0  0  0  0  0  0  0  0  0
   23.5554   42.2272    3.6711 N   0  0  0  0  0  0  0  0  0  0  0  0
   24.3131   41.1245    3.7919 C   0  0  0  0  0  0  0  0  0  0  0  0
   24.0002   40.0300    4.4875 N   0  0  0  0  0  0  0  0  0  0  0  0
   22.7951   40.0074    5.0691 C   0  0  0  0  0  0  0  0  0  0  0  0
   17.7662   40.9828    8.1594 Cl  0  0  0  0  0  0  0  0  0  0  0  0
   20.8640   41.2935    7.7451 Cl  0  0  0  0  0  0  0  0  0  0  0  0
   22.5269   39.0033    5.9042 N   0  0  0  0  0  0  0  0  0  0  0  0
   27.8992   42.1531    0.9524 C   0  0  0  0  0  0  0  0  0  0  0  0
   28.0872   38.7771    1.7544 C   0  0  0  0  0  0  0  0  0  0  0  0
   26.1834   42.9900    3.7550 H   0  0  0  0  0  0  0  0  0  0  0  0
   25.6926   42.9250    2.0858 H   0  0  0  0  0  0  0  0  0  0  0  0
   28.2644   42.9362    2.8864 H   0  0  0  0  0  0  0  0  0  0  0  0
   28.1109   41.0477    4.0942 H   0  0  0  0  0  0  0  0  0  0  0  0
   27.3971   39.0878    3.7580 H   0  0  0  0  0  0  0  0  0  0  0  0
   25.3434   39.1083    2.6592 H   0  0  0  0  0  0  0  0  0  0  0  0
   25.9133   40.1165    1.3534 H   0  0  0  0  0  0  0  0  0  0  0  0
   16.6931   39.7568    5.8547 H   0  0  0  0  0  0  0  0  0  0  0  0
   17.6161   39.5656    3.5362 H   0  0  0  0  0  0  0  0  0  0  0  0
   19.8328   40.4190    3.0468 H   0  0  0  0  0  0  0  0  0  0  0  0
   21.6591   42.9724    3.9637 H   0  0  0  0  0  0  0  0  0  0  0  0
   21.6621   38.9762    6.4137 H   0  0  0  0  0  0  0  0  0  0  0  0
   23.2860   38.4180    6.2566 H   0  0  0  0  0  0  0  0  0  0  0  0
   27.6666   43.1441    0.5779 H   0  0  0  0  0  0  0  0  0  0  0  0
   27.2619   41.4582    0.4143 H   0  0  0  0  0  0  0  0  0  0  0  0
   28.9380   41.9277    0.7253 H   0  0  0  0  0  0  0  0  0  0  0  0
   29.0729   38.4760    2.0885 H   0  0  0  0  0  0  0  0  0  0  0  0
   28.2000   39.3273    0.8240 H   0  0  0  0  0  0  0  0  0  0  0  0
   27.4799   37.8964    1.5599 H   0  0  0  0  0  0  0  0  0  0  0  0
   29.2380   40.7081    2.8978 H   0  0  0  0  0  0  0  0  0  0  0  0
  1  2  1  0
  1  6  1  0
  1 16  1  0
  2  3  1  0
  2 24  1  0
  2 25  1  0
  3  4  1  0
  3 22  1  0
  3 26  1  1
  4  5  1  0
  4 27  1  0
  4 43  1  0
  5  6  1  0
  5 23  1  0
  5 28  1  1
  6 29  1  0
  6 30  1  0
  7  8  2  0
  7 12  1  0
  7 13  1  0
  8  9  1  0
  8 20  1  0
  9 10  2  0
  9 19  1  0
 10 11  1  0
 10 31  1  0
 11 12  2  0
 11 32  1  0
 12 33  1  0
 13 14  2  0
 13 18  1  0
 14 15  1  0
 14 34  1  0
 15 16  2  0
 16 17  1  0
 17 18  2  0
 18 21  1  0
 21 35  1  0
 21 36  1  0
 22 37  1  0
 22 38  1  0
 22 39  1  0
 23 40  1  0
 23 41  1  0
 23 42  1  0
M  CHG  1   4   1
M  END
>  <r_exp_dg>  (8) 
-6.71321

>  <mol_id>  (8) 
8

>  <source_index>  (8) 
8

>  <paff>  (8) 
4.9217093375421337

>  <source_r_exp_dg>  (8) 
-6.7132100000000001

>  <smiles>  (8) 
C[C@@H]1CN(c2ncc(-c3cccc(Cl)c3Cl)c(N)n2)C[C@H](C)N1

>  <aimnet_interaction_kcal_mol>  (8) 
-231.69161163383387

$$$$
shp2_009
     RDKit          3D

 44 46  0  0  1  0  0  0  0  0999 V2000
   24.6679   41.2442    2.6334 N   0  0  0  0  0  0  0  0  0  0  0  0
   25.0744   42.5627    2.1675 C   0  0  0  0  0  0  0  0  0  0  0  0
   25.9731   43.1939    3.2124 C   0  0  0  0  0  0  0  0  0  0  0  0
   27.1844   42.3179    3.5162 C   0  0  0  0  0  0  0  0  0  0  0  0
   26.7730   40.8763    3.8103 C   0  0  0  0  0  0  0  0  0  0  0  0
   25.7925   40.3354    2.7874 C   0  0  0  0  0  0  0  0  0  0  0  0
   19.8857   40.5205    5.2096 C   0  0  0  0  0  0  0  0  0  0  0  0
   19.4843   40.6963    6.5421 C   0  0  0  0  0  0  0  0  0  0  0  0
   18.1418   40.5362    6.8889 C   0  0  0  0  0  0  0  0  0  0  0  0
   17.1921   40.1278    5.9671 C   0  0  0  0  0  0  0  0  0  0  0  0
   17.5876   39.9646    4.6420 C   0  0  0  0  0  0  0  0  0  0  0  0
   18.9063   40.1787    4.2741 C   0  0  0  0  0  0  0  0  0  0  0  0
   21.2392   40.7885    4.7211 C   0  0  0  0  0  0  0  0  0  0  0  0
   21.4323   41.7791    3.7815 C   0  0  0  0  0  0  0  0  0  0  0  0
   22.5728   42.0246    3.1543 N   0  0  0  0  0  0  0  0  0  0  0  0
   23.5665   41.1380    3.4128 C   0  0  0  0  0  0  0  0  0  0  0  0
   23.5432   40.1864    4.3526 N   0  0  0  0  0  0  0  0  0  0  0  0
   22.4019   40.0141    5.0262 C   0  0  0  0  0  0  0  0  0  0  0  0
   17.5870   40.9774    8.4895 Cl  0  0  0  0  0  0  0  0  0  0  0  0
   20.6497   41.1761    7.7383 Cl  0  0  0  0  0  0  0  0  0  0  0  0
   22.3836   39.0668    5.9653 N   0  0  0  0  0  0  0  0  0  0  0  0
   27.7562   42.8400    4.8276 N   0  0  0  0  0  0  0  0  0  0  0  0
   28.2601   42.4342    2.4528 C   0  0  0  0  0  0  0  0  0  0  0  0
   25.5854   42.4514    1.2165 H   0  0  0  0  0  0  0  0  0  0  0  0
   24.1880   43.1573    2.0108 H   0  0  0  0  0  0  0  0  0  0  0  0
   25.3913   43.3359    4.1252 H   0  0  0  0  0  0  0  0  0  0  0  0
   26.2960   44.1823    2.8957 H   0  0  0  0  0  0  0  0  0  0  0  0
   26.2906   40.8111    4.7842 H   0  0  0  0  0  0  0  0  0  0  0  0
   27.6635   40.2532    3.8471 H   0  0  0  0  0  0  0  0  0  0  0  0
   26.2755   40.2255    1.8162 H   0  0  0  0  0  0  0  0  0  0  0  0
   25.4257   39.3587    3.0756 H   0  0  0  0  0  0  0  0  0  0  0  0
   16.1654   39.9886    6.2692 H   0  0  0  0  0  0  0  0  0  0  0  0
   16.6255   39.7280    3.6957 O   0  0  0  0  0  0  0  0  0  0  0  0
   19.1874   40.0775    3.2350 H   0  0  0  0  0  0  0  0  0  0  0  0
   23.2294   38.5617    6.2295 H   0  0  0  0  0  0  0  0  0  0  0  0
   21.5832   38.9366    6.5547 H   0  0  0  0  0  0  0  0  0  0  0  0
   28.7303   42.5869    4.9656 H   0  0  0  0  0  0  0  0  0  0  0  0
   27.8718   42.1068    1.4904 H   0  0  0  0  0  0  0  0  0  0  0  0
   29.1295   41.8135    2.6703 H   0  0  0  0  0  0  0  0  0  0  0  0
   28.5752   43.4708    2.3582 H   0  0  0  0  0  0  0  0  0  0  0  0
   27.7156   43.8534    4.8975 H   0  0  0  0  0  0  0  0  0  0  0  0
   16.9773   39.2315    2.9311 H   0  0  0  0  0  0  0  0  0  0  0  0
   27.2427   42.4598    5.6297 H   0  0  0  0  0  0  0  0  0  0  0  0
   20.5828   42.4051    3.5034 H   0  0  0  0  0  0  0  0  0  0  0  0
  1  2  1  0
  1  6  1  0
  1 16  1  0
  2  3  1  0
  2 24  1  0
  2 25  1  0
  3  4  1  0
  3 26  1  0
  3 27  1  0
  4  5  1  0
  4 22  1  0
  4 23  1  0
  5  6  1  0
  5 28  1  0
  5 29  1  0
  6 30  1  0
  6 31  1  0
  7  8  2  0
  7 12  1  0
  7 13  1  0
  8  9  1  0
  8 20  1  0
  9 10  2  0
  9 19  1  0
 10 11  1  0
 10 32  1  0
 11 12  2  0
 11 33  1  0
 12 34  1  0
 13 14  2  0
 13 18  1  0
 14 15  1  0
 14 44  1  0
 15 16  2  0
 16 17  1  0
 17 18  2  0
 18 21  1  0
 21 35  1  0
 21 36  1  0
 22 37  1  0
 22 41  1  0
 22 43  1  0
 23 38  1  0
 23 39  1  0
 23 40  1  0
 33 42  1  0
M  CHG  1  22   1
M  END
>  <r_exp_dg>  (9) 
-9.06926

>  <mol_id>  (9) 
9

>  <source_index>  (9) 
9

>  <paff>  (9) 
6.6490208298579683

>  <source_r_exp_dg>  (9) 
-9.0692599999999999

>  <smiles>  (9) 
CC1(N)CCN(c2ncc(-c3cc(O)cc(Cl)c3Cl)c(N)n2)CC1

>  <aimnet_interaction_kcal_mol>  (9) 
-249.90642456495405

$$$$
shp2_010
     RDKit          3D

 43 45  0  0  1  0  0  0  0  0999 V2000
   24.6648   41.2574    2.6420 N   0  0  0  0  0  0  0  0  0  0  0  0
   25.0765   42.5745    2.1763 C   0  0  0  0  0  0  0  0  0  0  0  0
   25.9806   43.1989    3.2200 C   0  0  0  0  0  0  0  0  0  0  0  0
   27.1893   42.3174    3.5187 C   0  0  0  0  0  0  0  0  0  0  0  0
   26.7746   40.8753    3.8081 C   0  0  0  0  0  0  0  0  0  0  0  0
   25.7851   40.3419    2.7895 C   0  0  0  0  0  0  0  0  0  0  0  0
   19.9254   40.5975    5.3295 C   0  0  0  0  0  0  0  0  0  0  0  0
   19.5804   40.7932    6.6764 C   0  0  0  0  0  0  0  0  0  0  0  0
   18.2645   40.6243    7.1064 C   0  0  0  0  0  0  0  0  0  0  0  0
   17.2805   40.1690    6.2392 C   0  0  0  0  0  0  0  0  0  0  0  0
   17.6173   39.9483    4.9077 C   0  0  0  0  0  0  0  0  0  0  0  0
   18.9017   40.2052    4.4608 C   0  0  0  0  0  0  0  0  0  0  0  0
   21.2561   40.8430    4.7786 C   0  0  0  0  0  0  0  0  0  0  0  0
   21.4428   41.8194    3.8227 C   0  0  0  0  0  0  0  0  0  0  0  0
   22.5777   42.0503    3.1791 N   0  0  0  0  0  0  0  0  0  0  0  0
   23.5674   41.1561    3.4277 C   0  0  0  0  0  0  0  0  0  0  0  0
   23.5445   40.2004    4.3626 N   0  0  0  0  0  0  0  0  0  0  0  0
   22.4109   40.0445    5.0523 C   0  0  0  0  0  0  0  0  0  0  0  0
   17.8017   41.0878    8.7290 Cl  0  0  0  0  0  0  0  0  0  0  0  0
   20.8012   41.2857    7.8167 Cl  0  0  0  0  0  0  0  0  0  0  0  0
   22.3849   39.0911    5.9846 N   0  0  0  0  0  0  0  0  0  0  0  0
   27.7633   42.8344    4.8309 N   0  0  0  0  0  0  0  0  0  0  0  0
   28.2645   42.4343    2.4549 C   0  0  0  0  0  0  0  0  0  0  0  0
   25.5847   42.4617    1.2240 H   0  0  0  0  0  0  0  0  0  0  0  0
   24.1932   43.1744    2.0224 H   0  0  0  0  0  0  0  0  0  0  0  0
   25.4017   43.3411    4.1346 H   0  0  0  0  0  0  0  0  0  0  0  0
   26.3071   44.1868    2.9052 H   0  0  0  0  0  0  0  0  0  0  0  0
   26.2996   40.8065    4.7855 H   0  0  0  0  0  0  0  0  0  0  0  0
   27.6636   40.2493    3.8357 H   0  0  0  0  0  0  0  0  0  0  0  0
   26.2622   40.2306    1.8155 H   0  0  0  0  0  0  0  0  0  0  0  0
   25.4135   39.3673    3.0784 H   0  0  0  0  0  0  0  0  0  0  0  0
   16.2861   39.9765    6.6144 H   0  0  0  0  0  0  0  0  0  0  0  0
   16.8776   39.5900    4.2079 H   0  0  0  0  0  0  0  0  0  0  0  0
   19.1418   40.0731    3.4142 H   0  0  0  0  0  0  0  0  0  0  0  0
   27.7284   43.8477    4.9027 H   0  0  0  0  0  0  0  0  0  0  0  0
   27.8755   42.1087    1.4921 H   0  0  0  0  0  0  0  0  0  0  0  0
   29.1334   41.8125    2.6711 H   0  0  0  0  0  0  0  0  0  0  0  0
   28.5806   43.4708    2.3619 H   0  0  0  0  0  0  0  0  0  0  0  0
   27.2479   42.4554    5.6322 H   0  0  0  0  0  0  0  0  0  0  0  0
   21.5742   38.9545    6.5600 H   0  0  0  0  0  0  0  0  0  0  0  0
   20.5966   42.4500    3.5472 H   0  0  0  0  0  0  0  0  0  0  0  0
   23.2219   38.5669    6.2385 H   0  0  0  0  0  0  0  0  0  0  0  0
   28.7363   42.5767    4.9686 H   0  0  0  0  0  0  0  0  0  0  0  0
  1  2  1  0
  1  6  1  0
  1 16  1  0
  2  3  1  0
  2 24  1  0
  2 25  1  0
  3  4  1  0
  3 26  1  0
  3 27  1  0
  4  5  1  0
  4 22  1  0
  4 23  1  0
  5  6  1  0
  5 28  1  0
  5 29  1  0
  6 30  1  0
  6 31  1  0
  7  8  2  0
  7 12  1  0
  7 13  1  0
  8  9  1  0
  8 20  1  0
  9 10  2  0
  9 19  1  0
 10 11  1  0
 10 32  1  0
 11 12  2  0
 11 33  1  0
 12 34  1  0
 13 14  2  0
 13 18  1  0
 14 15  1  0
 14 41  1  0
 15 16  2  0
 16 17  1  0
 17 18  2  0
 18 21  1  0
 21 40  1  0
 21 42  1  0
 22 35  1  0
 22 39  1  0
 22 43  1  0
 23 36  1  0
 23 37  1  0
 23 38  1  0
M  CHG  1  22   1
M  END
>  <r_exp_dg>  (10) 
-8.98818

>  <mol_id>  (10) 
10

>  <source_index>  (10) 
10

>  <paff>  (10) 
6.5895728002195826

>  <source_r_exp_dg>  (10) 
-8.9881799999999998

>  <smiles>  (10) 
CC1(N)CCN(c2ncc(-c3cccc(Cl)c3Cl)c(N)n2)CC1

>  <aimnet_interaction_kcal_mol>  (10) 
-238.0893580448454

$$$$
shp2_011
     RDKit          3D

 43 45  0  0  1  0  0  0  0  0999 V2000
   25.5129   41.1309    3.1032 N   0  0  0  0  0  0  0  0  0  0  0  0
   26.2161   42.3738    2.8351 C   0  0  0  0  0  0  0  0  0  0  0  0
   27.6698   42.1382    2.4122 C   0  0  1  0  0  0  0  0  0  0  0  0
   28.1851   40.8982    3.0976 N   0  0  0  0  0  0  0  0  0  0  0  0
   27.4120   39.6209    2.8478 C   0  0  1  0  0  0  0  0  0  0  0  0
   25.9955   39.9481    2.4307 C   0  0  0  0  0  0  0  0  0  0  0  0
   20.4479   40.8517    5.2656 C   0  0  0  0  0  0  0  0  0  0  0  0
   20.0889   41.0814    6.6035 C   0  0  0  0  0  0  0  0  0  0  0  0
   18.8066   40.7712    7.0339 C   0  0  0  0  0  0  0  0  0  0  0  0
   17.8562   40.2138    6.1902 C   0  0  0  0  0  0  0  0  0  0  0  0
   18.1954   40.0306    4.8545 C   0  0  0  0  0  0  0  0  0  0  0  0
   19.4541   40.3813    4.3936 C   0  0  0  0  0  0  0  0  0  0  0  0
   21.8400   41.0318    4.8153 C   0  0  0  0  0  0  0  0  0  0  0  0
   22.3153   42.1264    4.1275 C   0  0  0  0  0  0  0  0  0  0  0  0
   23.5555   42.2339    3.6433 N   0  0  0  0  0  0  0  0  0  0  0  0
   24.3162   41.1344    3.7640 C   0  0  0  0  0  0  0  0  0  0  0  0
   24.0132   40.0404    4.4661 N   0  0  0  0  0  0  0  0  0  0  0  0
   22.8200   40.0247    5.0687 C   0  0  0  0  0  0  0  0  0  0  0  0
   18.3419   41.1022    8.6938 Cl  0  0  0  0  0  0  0  0  0  0  0  0
   22.5604   39.0296    5.9190 N   0  0  0  0  0  0  0  0  0  0  0  0
   27.9048   42.1083    0.9225 C   0  0  0  0  0  0  0  0  0  0  0  0
   28.1053   38.7431    1.8367 C   0  0  0  0  0  0  0  0  0  0  0  0
   26.2001   42.9854    3.7325 H   0  0  0  0  0  0  0  0  0  0  0  0
   25.7081   42.9423    2.0624 H   0  0  0  0  0  0  0  0  0  0  0  0
   28.2682   42.9437    2.8323 H   0  0  0  0  0  0  0  0  0  0  0  0
   28.1202   41.0896    4.0936 H   0  0  0  0  0  0  0  0  0  0  0  0
   27.3800   39.1299    3.8166 H   0  0  0  0  0  0  0  0  0  0  0  0
   25.3520   39.1083    2.6674 H   0  0  0  0  0  0  0  0  0  0  0  0
   25.9488   40.0825    1.3487 H   0  0  0  0  0  0  0  0  0  0  0  0
   20.8029   41.4728    7.3106 H   0  0  0  0  0  0  0  0  0  0  0  0
   16.8995   39.8897    6.5756 H   0  0  0  0  0  0  0  0  0  0  0  0
   17.4878   39.5826    4.1691 H   0  0  0  0  0  0  0  0  0  0  0  0
   19.6768   40.2322    3.3482 H   0  0  0  0  0  0  0  0  0  0  0  0
   21.6586   42.9745    3.9428 H   0  0  0  0  0  0  0  0  0  0  0  0
   21.6927   38.9928    6.4239 H   0  0  0  0  0  0  0  0  0  0  0  0
   23.3172   38.4331    6.2591 H   0  0  0  0  0  0  0  0  0  0  0  0
   27.6683   43.0880    0.5220 H   0  0  0  0  0  0  0  0  0  0  0  0
   27.2726   41.3971    0.4006 H   0  0  0  0  0  0  0  0  0  0  0  0
   28.9452   41.8818    0.7036 H   0  0  0  0  0  0  0  0  0  0  0  0
   29.0752   38.4308    2.2052 H   0  0  0  0  0  0  0  0  0  0  0  0
   28.2537   39.2689    0.8971 H   0  0  0  0  0  0  0  0  0  0  0  0
   27.4878   37.8689    1.6445 H   0  0  0  0  0  0  0  0  0  0  0  0
   29.2418   40.7149    2.9010 H   0  0  0  0  0  0  0  0  0  0  0  0
  1  2  1  0
  1  6  1  0
  1 16  1  0
  2  3  1  0
  2 23  1  0
  2 24  1  0
  3  4  1  0
  3 21  1  0
  3 25  1  1
  4  5  1  0
  4 26  1  0
  4 43  1  0
  5  6  1  0
  5 22  1  0
  5 27  1  1
  6 28  1  0
  6 29  1  0
  7  8  2  0
  7 12  1  0
  7 13  1  0
  8  9  1  0
  8 30  1  0
  9 10  2  0
  9 19  1  0
 10 11  1  0
 10 31  1  0
 11 12  2  0
 11 32  1  0
 12 33  1  0
 13 14  2  0
 13 18  1  0
 14 15  1  0
 14 34  1  0
 15 16  2  0
 16 17  1  0
 17 18  2  0
 18 20  1  0
 20 35  1  0
 20 36  1  0
 21 37  1  0
 21 38  1  0
 21 39  1  0
 22 40  1  0
 22 41  1  0
 22 42  1  0
M  CHG  1   4   1
M  END
>  <r_exp_dg>  (11) 
-5.46294

>  <mol_id>  (11) 
11

>  <source_index>  (11) 
11

>  <paff>  (11) 
4.0050895332940506

>  <source_r_exp_dg>  (11) 
-5.4629399999999997

>  <smiles>  (11) 
C[C@@H]1CN(c2ncc(-c3cccc(Cl)c3)c(N)n2)C[C@H](C)N1

>  <aimnet_interaction_kcal_mol>  (11) 
-231.01573144089363

$$$$
shp2_012
     RDKit          3D

 43 45  0  0  1  0  0  0  0  0999 V2000
   24.3078   41.1854    2.4866 N   0  0  0  0  0  0  0  0  0  0  0  0
   25.3656   40.1857    2.5837 C   0  0  0  0  0  0  0  0  0  0  0  0
   26.5390   40.7584    3.3488 C   0  0  0  0  0  0  0  0  0  0  0  0
   27.0138   42.0590    2.7192 C   0  0  0  0  0  0  0  0  0  0  0  0
   25.8681   43.0403    2.4760 C   0  0  0  0  0  0  0  0  0  0  0  0
   24.7382   42.3519    1.7425 C   0  0  0  0  0  0  0  0  0  0  0  0
   19.7801   40.6799    5.4585 C   0  0  0  0  0  0  0  0  0  0  0  0
   19.4452   40.8896    6.8030 C   0  0  0  0  0  0  0  0  0  0  0  0
   18.1360   40.7149    7.2476 C   0  0  0  0  0  0  0  0  0  0  0  0
   17.1601   40.2039    6.3991 C   0  0  0  0  0  0  0  0  0  0  0  0
   17.5075   39.8998    5.0883 C   0  0  0  0  0  0  0  0  0  0  0  0
   18.7844   40.1701    4.6243 C   0  0  0  0  0  0  0  0  0  0  0  0
   21.0979   40.9923    4.8985 C   0  0  0  0  0  0  0  0  0  0  0  0
   21.2188   42.0768    4.1295 N   0  0  0  0  0  0  0  0  0  0  0  0
   22.3312   42.2367    3.4200 C   0  0  0  0  0  0  0  0  0  0  0  0
   23.3284   41.2296    3.4168 C   0  0  0  0  0  0  0  0  0  0  0  0
   23.3084   40.2647    4.3399 N   0  0  0  0  0  0  0  0  0  0  0  0
   22.2215   40.1355    5.0942 C   0  0  0  0  0  0  0  0  0  0  0  0
   17.6655   41.2359    8.8472 Cl  0  0  0  0  0  0  0  0  0  0  0  0
   20.6929   41.3704    7.9254 Cl  0  0  0  0  0  0  0  0  0  0  0  0
   22.2185   39.1550    6.0105 N   0  0  0  0  0  0  0  0  0  0  0  0
   28.1454   42.6706    3.5072 C   0  0  0  0  0  0  0  0  0  0  0  0
   24.9741   39.3034    3.0660 H   0  0  0  0  0  0  0  0  0  0  0  0
   25.6574   39.9057    1.5708 H   0  0  0  0  0  0  0  0  0  0  0  0
   27.3536   40.0368    3.3790 H   0  0  0  0  0  0  0  0  0  0  0  0
   26.2145   40.9088    4.3800 H   0  0  0  0  0  0  0  0  0  0  0  0
   26.2128   43.8957    1.8997 H   0  0  0  0  0  0  0  0  0  0  0  0
   25.4717   43.4382    3.4107 H   0  0  0  0  0  0  0  0  0  0  0  0
   23.9051   43.0168    1.5699 H   0  0  0  0  0  0  0  0  0  0  0  0
   25.0796   42.0200    0.7655 H   0  0  0  0  0  0  0  0  0  0  0  0
   16.1638   40.0299    6.7780 H   0  0  0  0  0  0  0  0  0  0  0  0
   19.0245   39.9743    3.5876 H   0  0  0  0  0  0  0  0  0  0  0  0
   22.4236   43.1405    2.8418 H   0  0  0  0  0  0  0  0  0  0  0  0
   23.0610   38.6246    6.2194 H   0  0  0  0  0  0  0  0  0  0  0  0
   21.4548   39.0516    6.6545 H   0  0  0  0  0  0  0  0  0  0  0  0
   16.7799   39.4701    4.4153 H   0  0  0  0  0  0  0  0  0  0  0  0
   28.9772   41.9766    3.6179 H   0  0  0  0  0  0  0  0  0  0  0  0
   27.7029   43.0737    4.8730 N   0  0  0  0  0  0  0  0  0  0  0  0
   28.5222   43.5677    3.0237 H   0  0  0  0  0  0  0  0  0  0  0  0
   28.5080   43.3800    5.4330 H   0  0  0  0  0  0  0  0  0  0  0  0
   27.0442   43.8518    4.8722 H   0  0  0  0  0  0  0  0  0  0  0  0
   27.4304   41.8055    1.7412 H   0  0  0  0  0  0  0  0  0  0  0  0
   27.2653   42.3193    5.4038 H   0  0  0  0  0  0  0  0  0  0  0  0
  1  2  1  0
  1  6  1  0
  1 16  1  0
  2  3  1  0
  2 23  1  0
  2 24  1  0
  3  4  1  0
  3 25  1  0
  3 26  1  0
  4  5  1  0
  4 22  1  0
  4 42  1  0
  5  6  1  0
  5 27  1  0
  5 28  1  0
  6 29  1  0
  6 30  1  0
  7  8  2  0
  7 12  1  0
  7 13  1  0
  8  9  1  0
  8 20  1  0
  9 10  2  0
  9 19  1  0
 10 11  1  0
 10 31  1  0
 11 12  2  0
 11 36  1  0
 12 32  1  0
 13 14  2  0
 13 18  1  0
 14 15  1  0
 15 16  2  0
 15 33  1  0
 16 17  1  0
 17 18  2  0
 18 21  1  0
 21 34  1  0
 21 35  1  0
 22 37  1  0
 22 38  1  0
 22 39  1  0
 38 40  1  0
 38 41  1  0
 38 43  1  0
M  CHG  1  38   1
M  END
>  <r_exp_dg>  (12) 
-8.7941

>  <mol_id>  (12) 
12

>  <source_index>  (12) 
12

>  <paff>  (12) 
6.4472837532021074

>  <source_r_exp_dg>  (12) 
-8.7941000000000003

>  <smiles>  (12) 
NCC1CCN(c2cnc(-c3cccc(Cl)c3Cl)c(N)n2)CC1

>  <aimnet_interaction_kcal_mol>  (12) 
-252.59524303977818

$$$$
shp2_013
     RDKit          3D

 46 48  0  0  1  0  0  0  0  0999 V2000
   24.3771   41.1949    2.5181 N   0  0  0  0  0  0  0  0  0  0  0  0
   25.4287   40.1901    2.6153 C   0  0  0  0  0  0  0  0  0  0  0  0
   26.6243   40.7756    3.3398 C   0  0  0  0  0  0  0  0  0  0  0  0
   27.1271   42.0691    2.6932 C   0  0  0  0  0  0  0  0  0  0  0  0
   25.9556   43.0315    2.4384 C   0  0  0  0  0  0  0  0  0  0  0  0
   24.8000   42.3449    1.7454 C   0  0  0  0  0  0  0  0  0  0  0  0
   19.8158   40.6866    5.4412 C   0  0  0  0  0  0  0  0  0  0  0  0
   19.4714   40.8841    6.7854 C   0  0  0  0  0  0  0  0  0  0  0  0
   18.1602   40.7001    7.2204 C   0  0  0  0  0  0  0  0  0  0  0  0
   17.1912   40.1940    6.3617 C   0  0  0  0  0  0  0  0  0  0  0  0
   17.5469   39.9069    5.0490 C   0  0  0  0  0  0  0  0  0  0  0  0
   18.8254   40.1857    4.5951 C   0  0  0  0  0  0  0  0  0  0  0  0
   21.1378   41.0001    4.8935 C   0  0  0  0  0  0  0  0  0  0  0  0
   21.2681   42.0848    4.1253 N   0  0  0  0  0  0  0  0  0  0  0  0
   22.3862   42.2440    3.4254 C   0  0  0  0  0  0  0  0  0  0  0  0
   23.3857   41.2377    3.4333 C   0  0  0  0  0  0  0  0  0  0  0  0
   23.3537   40.2709    4.3550 N   0  0  0  0  0  0  0  0  0  0  0  0
   22.2583   40.1408    5.0969 C   0  0  0  0  0  0  0  0  0  0  0  0
   17.6788   41.2054    8.8226 Cl  0  0  0  0  0  0  0  0  0  0  0  0
   20.7070   41.3653    7.9202 Cl  0  0  0  0  0  0  0  0  0  0  0  0
   22.2430   39.1574    6.0097 N   0  0  0  0  0  0  0  0  0  0  0  0
   28.1612   42.7211    3.5966 C   0  0  0  0  0  0  0  0  0  0  0  0
   27.8701   41.7610    1.3896 C   0  0  0  0  0  0  0  0  0  0  0  0
   25.0405   39.3276    3.1366 H   0  0  0  0  0  0  0  0  0  0  0  0
   25.6834   39.8687    1.6067 H   0  0  0  0  0  0  0  0  0  0  0  0
   27.4328   40.0471    3.3793 H   0  0  0  0  0  0  0  0  0  0  0  0
   26.3069   40.9365    4.3721 H   0  0  0  0  0  0  0  0  0  0  0  0
   26.2945   43.8752    1.8428 H   0  0  0  0  0  0  0  0  0  0  0  0
   25.5640   43.4512    3.3664 H   0  0  0  0  0  0  0  0  0  0  0  0
   23.9695   43.0183    1.5936 H   0  0  0  0  0  0  0  0  0  0  0  0
   25.0980   42.0022    0.7591 H   0  0  0  0  0  0  0  0  0  0  0  0
   16.1936   40.0122    6.7334 H   0  0  0  0  0  0  0  0  0  0  0  0
   19.0710   40.0031    3.5575 H   0  0  0  0  0  0  0  0  0  0  0  0
   22.4823   43.1472    2.8468 H   0  0  0  0  0  0  0  0  0  0  0  0
   23.0808   38.6214    6.2248 H   0  0  0  0  0  0  0  0  0  0  0  0
   21.4689   39.0494    6.6403 H   0  0  0  0  0  0  0  0  0  0  0  0
   27.2482   41.2457    0.6599 H   0  0  0  0  0  0  0  0  0  0  0  0
   28.7486   41.1494    1.5873 H   0  0  0  0  0  0  0  0  0  0  0  0
   28.2045   42.6916    0.9282 H   0  0  0  0  0  0  0  0  0  0  0  0
   16.8245   39.4822    4.3670 H   0  0  0  0  0  0  0  0  0  0  0  0
   28.9960   42.0459    3.7749 H   0  0  0  0  0  0  0  0  0  0  0  0
   27.6295   43.1220    4.9285 N   0  0  0  0  0  0  0  0  0  0  0  0
   28.5576   43.6236    3.1396 H   0  0  0  0  0  0  0  0  0  0  0  0
   28.4059   43.4150    5.5351 H   0  0  0  0  0  0  0  0  0  0  0  0
   26.9806   43.9085    4.8922 H   0  0  0  0  0  0  0  0  0  0  0  0
   27.1595   42.3649    5.4263 H   0  0  0  0  0  0  0  0  0  0  0  0
  1  2  1  0
  1  6  1  0
  1 16  1  0
  2  3  1  0
  2 24  1  0
  2 25  1  0
  3  4  1  0
  3 26  1  0
  3 27  1  0
  4  5  1  0
  4 22  1  0
  4 23  1  0
  5  6  1  0
  5 28  1  0
  5 29  1  0
  6 30  1  0
  6 31  1  0
  7  8  2  0
  7 12  1  0
  7 13  1  0
  8  9  1  0
  8 20  1  0
  9 10  2  0
  9 19  1  0
 10 11  1  0
 10 32  1  0
 11 12  2  0
 11 40  1  0
 12 33  1  0
 13 14  2  0
 13 18  1  0
 14 15  1  0
 15 16  2  0
 15 34  1  0
 16 17  1  0
 17 18  2  0
 18 21  1  0
 21 35  1  0
 21 36  1  0
 22 41  1  0
 22 42  1  0
 22 43  1  0
 23 37  1  0
 23 38  1  0
 23 39  1  0
 42 44  1  0
 42 45  1  0
 42 46  1  0
M  CHG  1  42   1
M  END
>  <r_exp_dg>  (13) 
-9.71233

>  <mol_id>  (13) 
13

>  <source_index>  (13) 
13

>  <paff>  (13) 
7.120475041901261

>  <source_r_exp_dg>  (13) 
-9.7123299999999997

>  <smiles>  (13) 
CC1(CN)CCN(c2cnc(-c3cccc(Cl)c3Cl)c(N)n2)CC1

>  <aimnet_interaction_kcal_mol>  (13) 
-254.85418289082989

$$$$
shp2_015
     RDKit          3D

 46 48  0  0  1  0  0  0  0  0999 V2000
   24.6965   41.4255    3.1367 N   0  0  0  0  0  0  0  0  0  0  0  0
   25.1609   42.6941    2.6078 C   0  0  0  0  0  0  0  0  0  0  0  0
   26.5726   42.9925    3.0713 C   0  0  0  0  0  0  0  0  0  0  0  0
   27.5269   41.8759    2.7134 C   0  0  0  0  0  0  0  0  0  0  0  0
   27.0151   40.6002    3.3544 C   0  0  0  0  0  0  0  0  0  0  0  0
   25.5892   40.2938    2.9344 C   0  0  0  0  0  0  0  0  0  0  0  0
   19.7681   40.6227    5.4970 C   0  0  0  0  0  0  0  0  0  0  0  0
   19.4388   40.8689    6.8383 C   0  0  0  0  0  0  0  0  0  0  0  0
   18.1258   40.7228    7.2837 C   0  0  0  0  0  0  0  0  0  0  0  0
   17.1402   40.2175    6.4431 C   0  0  0  0  0  0  0  0  0  0  0  0
   17.4765   39.8995    5.1319 C   0  0  0  0  0  0  0  0  0  0  0  0
   18.7550   40.1459    4.6613 C   0  0  0  0  0  0  0  0  0  0  0  0
   21.0898   40.8689    4.9246 C   0  0  0  0  0  0  0  0  0  0  0  0
   21.1586   41.7738    3.9436 N   0  0  0  0  0  0  0  0  0  0  0  0
   22.2916   41.9390    3.2691 C   0  0  0  0  0  0  0  0  0  0  0  0
   23.4593   41.2241    3.6829 C   0  0  0  0  0  0  0  0  0  0  0  0
   23.3846   40.2801    4.6122 N   0  0  0  0  0  0  0  0  0  0  0  0
   22.2318   40.0828    5.2456 C   0  0  0  0  0  0  0  0  0  0  0  0
   17.6643   41.2692    8.8765 Cl  0  0  0  0  0  0  0  0  0  0  0  0
   20.6907   41.3719    7.9434 Cl  0  0  0  0  0  0  0  0  0  0  0  0
   22.1866   39.0830    6.1429 N   0  0  0  0  0  0  0  0  0  0  0  0
   28.8829   42.1778    3.3183 N   0  0  0  0  0  0  0  0  0  0  0  0
   27.7606   41.7446    1.2189 C   0  0  0  0  0  0  0  0  0  0  0  0
   25.1126   42.6925    1.5205 H   0  0  0  0  0  0  0  0  0  0  0  0
   24.5057   43.4850    2.9527 H   0  0  0  0  0  0  0  0  0  0  0  0
   26.5542   43.1190    4.1518 H   0  0  0  0  0  0  0  0  0  0  0  0
   26.9030   43.9324    2.6380 H   0  0  0  0  0  0  0  0  0  0  0  0
   27.0275   40.6928    4.4395 H   0  0  0  0  0  0  0  0  0  0  0  0
   27.6638   39.7691    3.0879 H   0  0  0  0  0  0  0  0  0  0  0  0
   25.5600   39.9842    1.8851 H   0  0  0  0  0  0  0  0  0  0  0  0
   25.2100   39.4678    3.5158 H   0  0  0  0  0  0  0  0  0  0  0  0
   16.1437   40.0563    6.8268 H   0  0  0  0  0  0  0  0  0  0  0  0
   18.9912   39.9571    3.6230 H   0  0  0  0  0  0  0  0  0  0  0  0
   22.2153   42.7292    2.0108 C   0  0  0  0  0  0  0  0  0  0  0  0
   23.0331   38.5814    6.4033 H   0  0  0  0  0  0  0  0  0  0  0  0
   21.3921   38.9647    6.7452 H   0  0  0  0  0  0  0  0  0  0  0  0
   29.6165   41.4316    3.0472 H   0  0  0  0  0  0  0  0  0  0  0  0
   26.8488   41.4827    0.6913 H   0  0  0  0  0  0  0  0  0  0  0  0
   28.5038   40.9791    1.0145 H   0  0  0  0  0  0  0  0  0  0  0  0
   28.1065   42.6917    0.8018 H   0  0  0  0  0  0  0  0  0  0  0  0
   29.2123   43.0871    3.0127 H   0  0  0  0  0  0  0  0  0  0  0  0
   16.7385   39.4785    4.4650 H   0  0  0  0  0  0  0  0  0  0  0  0
   22.4431   43.7772    2.1637 H   0  0  0  0  0  0  0  0  0  0  0  0
   21.2038   42.6528    1.6182 H   0  0  0  0  0  0  0  0  0  0  0  0
   22.8923   42.3399    1.2593 H   0  0  0  0  0  0  0  0  0  0  0  0
   28.8299   42.2124    4.3331 H   0  0  0  0  0  0  0  0  0  0  0  0
  1  2  1  0
  1  6  1  0
  1 16  1  0
  2  3  1  0
  2 24  1  0
  2 25  1  0
  3  4  1  0
  3 26  1  0
  3 27  1  0
  4  5  1  0
  4 22  1  0
  4 23  1  0
  5  6  1  0
  5 28  1  0
  5 29  1  0
  6 30  1  0
  6 31  1  0
  7  8  2  0
  7 12  1  0
  7 13  1  0
  8  9  1  0
  8 20  1  0
  9 10  2  0
  9 19  1  0
 10 11  1  0
 10 32  1  0
 11 12  2  0
 11 42  1  0
 12 33  1  0
 13 14  2  0
 13 18  1  0
 14 15  1  0
 15 16  2  0
 15 34  1  0
 16 17  1  0
 17 18  2  0
 18 21  1  0
 21 35  1  0
 21 36  1  0
 22 37  1  0
 22 41  1  0
 22 46  1  0
 23 38  1  0
 23 39  1  0
 23 40  1  0
 34 43  1  0
 34 44  1  0
 34 45  1  0
M  CHG  1  22   1
M  END
>  <r_exp_dg>  (14) 
-9.07722

>  <mol_id>  (14) 
15

>  <source_index>  (14) 
15

>  <paff>  (14) 
6.6548512478378159

>  <source_r_exp_dg>  (14) 
-9.0772200000000005

>  <smiles>  (14) 
Cc1nc(-c2cccc(Cl)c2Cl)c(N)nc1N1CCC(C)(N)CC1

>  <aimnet_interaction_kcal_mol>  (14) 
-253.0975345774182

$$$$
shp2_016
     RDKit          3D

 47 50  0  0  1  0  0  0  0  0999 V2000
   24.5429   41.3704    2.5767 N   0  0  0  0  0  0  0  0  0  0  0  0
   25.0202   42.6867    2.1735 C   0  0  0  0  0  0  0  0  0  0  0  0
   25.9481   43.2427    3.2323 C   0  0  0  0  0  0  0  0  0  0  0  0
   27.1365   42.3213    3.4862 C   0  0  0  0  0  0  0  0  0  0  0  0
   26.6610   40.8921    3.7301 C   0  0  0  0  0  0  0  0  0  0  0  0
   25.6507   40.4271    2.6925 C   0  0  0  0  0  0  0  0  0  0  0  0
   20.1219   40.7092    5.8419 C   0  0  0  0  0  0  0  0  0  0  0  0
   18.8528   40.3926    5.3314 C   0  0  0  0  0  0  0  0  0  0  0  0
   17.6955   40.3179    6.1416 C   0  0  0  0  0  0  0  0  0  0  0  0
   17.8124   40.5487    7.5246 C   0  0  0  0  0  0  0  0  0  0  0  0
   19.0686   40.7749    8.0528 C   0  0  0  0  0  0  0  0  0  0  0  0
   20.2062   40.8158    7.2312 C   0  0  0  0  0  0  0  0  0  0  0  0
   21.2599   40.8983    4.9452 C   0  0  0  0  0  0  0  0  0  0  0  0
   21.2356   41.8655    4.0237 N   0  0  0  0  0  0  0  0  0  0  0  0
   22.3185   42.0608    3.2721 C   0  0  0  0  0  0  0  0  0  0  0  0
   23.4586   41.2302    3.3969 C   0  0  0  0  0  0  0  0  0  0  0  0
   23.4966   40.2558    4.3084 N   0  0  0  0  0  0  0  0  0  0  0  0
   22.4255   40.0783    5.0776 C   0  0  0  0  0  0  0  0  0  0  0  0
   22.4615   39.1073    5.9969 N   0  0  0  0  0  0  0  0  0  0  0  0
   27.7476   42.7880    4.8063 N   0  0  0  0  0  0  0  0  0  0  0  0
   28.2038   42.4313    2.4135 C   0  0  0  0  0  0  0  0  0  0  0  0
   16.6133   39.9983    5.2616 C   0  0  0  0  0  0  0  0  0  0  0  0
   17.1407   39.8283    4.0003 C   0  0  0  0  0  0  0  0  0  0  0  0
   18.4840   40.0927    4.0419 N   0  0  0  0  0  0  0  0  0  0  0  0
   25.5285   42.5900    1.2203 H   0  0  0  0  0  0  0  0  0  0  0  0
   24.1857   43.3579    2.0311 H   0  0  0  0  0  0  0  0  0  0  0  0
   25.3791   43.3571    4.1563 H   0  0  0  0  0  0  0  0  0  0  0  0
   26.2954   44.2347    2.9544 H   0  0  0  0  0  0  0  0  0  0  0  0
   26.1781   40.8234    4.7031 H   0  0  0  0  0  0  0  0  0  0  0  0
   27.5195   40.2241    3.7462 H   0  0  0  0  0  0  0  0  0  0  0  0
   26.1230   40.3453    1.7131 H   0  0  0  0  0  0  0  0  0  0  0  0
   25.2566   39.4498    2.9414 H   0  0  0  0  0  0  0  0  0  0  0  0
   16.9487   40.5136    8.1679 H   0  0  0  0  0  0  0  0  0  0  0  0
   19.1866   40.9066    9.1213 H   0  0  0  0  0  0  0  0  0  0  0  0
   21.1756   40.9402    7.7018 H   0  0  0  0  0  0  0  0  0  0  0  0
   22.2672   42.8422    2.5298 H   0  0  0  0  0  0  0  0  0  0  0  0
   21.6545   38.8988    6.5575 H   0  0  0  0  0  0  0  0  0  0  0  0
   23.3043   38.5659    6.1904 H   0  0  0  0  0  0  0  0  0  0  0  0
   28.7221   42.5207    4.9103 H   0  0  0  0  0  0  0  0  0  0  0  0
   27.7265   43.7995    4.9112 H   0  0  0  0  0  0  0  0  0  0  0  0
   27.7937   42.1387    1.4485 H   0  0  0  0  0  0  0  0  0  0  0  0
   29.0584   41.7826    2.6095 H   0  0  0  0  0  0  0  0  0  0  0  0
   28.5470   43.4608    2.3378 H   0  0  0  0  0  0  0  0  0  0  0  0
   15.5761   39.9454    5.5434 H   0  0  0  0  0  0  0  0  0  0  0  0
   16.6963   39.4970    3.0785 H   0  0  0  0  0  0  0  0  0  0  0  0
   19.1144   39.8834    3.2721 H   0  0  0  0  0  0  0  0  0  0  0  0
   27.2491   42.3893    5.6095 H   0  0  0  0  0  0  0  0  0  0  0  0
  1  2  1  0
  1  6  1  0
  1 16  1  0
  2  3  1  0
  2 25  1  0
  2 26  1  0
  3  4  1  0
  3 27  1  0
  3 28  1  0
  4  5  1  0
  4 20  1  0
  4 21  1  0
  5  6  1  0
  5 29  1  0
  5 30  1  0
  6 31  1  0
  6 32  1  0
  7  8  2  0
  7 12  1  0
  7 13  1  0
  8  9  1  0
  8 24  1  0
  9 10  2  0
  9 22  1  0
 10 11  1  0
 10 33  1  0
 11 12  2  0
 11 34  1  0
 12 35  1  0
 13 14  2  0
 13 18  1  0
 14 15  1  0
 15 16  2  0
 15 36  1  0
 16 17  1  0
 17 18  2  0
 18 19  1  0
 19 37  1  0
 19 38  1  0
 20 39  1  0
 20 40  1  0
 20 47  1  0
 21 41  1  0
 21 42  1  0
 21 43  1  0
 22 23  2  0
 22 44  1  0
 23 24  1  0
 23 45  1  0
 24 46  1  0
M  CHG  1  20   1
M  END
>  <r_exp_dg>  (15) 
-8.45735

>  <mol_id>  (15) 
16

>  <source_index>  (15) 
16

>  <paff>  (15) 
6.2004051600033936

>  <source_r_exp_dg>  (15) 
-8.4573499999999999

>  <smiles>  (15) 
CC1(N)CCN(c2cnc(-c3cccc4cc[nH]c34)c(N)n2)CC1

>  <aimnet_interaction_kcal_mol>  (15) 
-256.01419081483556

$$$$
shp2_017
     RDKit          3D

 41 43  0  0  1  0  0  0  0  0999 V2000
   24.5542   41.3699    2.6009 N   0  0  0  0  0  0  0  0  0  0  0  0
   25.0650   42.6609    2.1589 C   0  0  0  0  0  0  0  0  0  0  0  0
   25.9750   43.2361    3.2218 C   0  0  0  0  0  0  0  0  0  0  0  0
   27.1413   42.3029    3.5215 C   0  0  0  0  0  0  0  0  0  0  0  0
   26.6380   40.8895    3.8059 C   0  0  0  0  0  0  0  0  0  0  0  0
   25.6347   40.4034    2.7728 C   0  0  0  0  0  0  0  0  0  0  0  0
   19.7413   40.6406    5.1785 C   0  0  0  0  0  0  0  0  0  0  0  0
   19.4608   40.7386    6.5456 C   0  0  0  0  0  0  0  0  0  0  0  0
   18.1595   40.5563    7.0186 C   0  0  0  0  0  0  0  0  0  0  0  0
   17.1418   40.1577    6.1627 C   0  0  0  0  0  0  0  0  0  0  0  0
   17.4334   39.9872    4.8150 C   0  0  0  0  0  0  0  0  0  0  0  0
   18.7071   40.2448    4.3346 C   0  0  0  0  0  0  0  0  0  0  0  0
   21.0597   40.9481    4.6118 C   0  0  0  0  0  0  0  0  0  0  0  0
   21.1605   41.9709    3.7418 N   0  0  0  0  0  0  0  0  0  0  0  0
   22.3211   42.1453    3.1279 C   0  0  0  0  0  0  0  0  0  0  0  0
   23.4151   41.2742    3.3371 C   0  0  0  0  0  0  0  0  0  0  0  0
   23.3264   40.3126    4.2677 N   0  0  0  0  0  0  0  0  0  0  0  0
   22.1736   40.1705    4.9045 C   0  0  0  0  0  0  0  0  0  0  0  0
   17.7659   40.9297    8.6761 Cl  0  0  0  0  0  0  0  0  0  0  0  0
   20.7426   41.1176    7.6559 Cl  0  0  0  0  0  0  0  0  0  0  0  0
   27.7466   42.7941    4.8334 N   0  0  0  0  0  0  0  0  0  0  0  0
   28.2191   42.3706    2.4564 C   0  0  0  0  0  0  0  0  0  0  0  0
   25.5935   42.5219    1.2209 H   0  0  0  0  0  0  0  0  0  0  0  0
   24.2511   43.3441    1.9685 H   0  0  0  0  0  0  0  0  0  0  0  0
   25.3920   43.3870    4.1316 H   0  0  0  0  0  0  0  0  0  0  0  0
   26.3415   44.2138    2.9209 H   0  0  0  0  0  0  0  0  0  0  0  0
   26.1433   40.8573    4.7748 H   0  0  0  0  0  0  0  0  0  0  0  0
   27.4862   40.2105    3.8544 H   0  0  0  0  0  0  0  0  0  0  0  0
   26.1187   40.2664    1.8057 H   0  0  0  0  0  0  0  0  0  0  0  0
   25.2113   39.4493    3.0597 H   0  0  0  0  0  0  0  0  0  0  0  0
   16.1510   39.9892    6.5594 H   0  0  0  0  0  0  0  0  0  0  0  0
   16.6664   39.6707    4.1258 H   0  0  0  0  0  0  0  0  0  0  0  0
   18.9186   40.1168    3.2836 H   0  0  0  0  0  0  0  0  0  0  0  0
   28.7187   42.5229    4.9469 H   0  0  0  0  0  0  0  0  0  0  0  0
   27.8189   42.0469    1.4978 H   0  0  0  0  0  0  0  0  0  0  0  0
   29.0682   41.7229    2.6771 H   0  0  0  0  0  0  0  0  0  0  0  0
   28.5715   43.3949    2.3523 H   0  0  0  0  0  0  0  0  0  0  0  0
   27.7300   43.8068    4.9191 H   0  0  0  0  0  0  0  0  0  0  0  0
   22.1166   39.3954    5.6637 H   0  0  0  0  0  0  0  0  0  0  0  0
   22.3670   42.9541    2.4161 H   0  0  0  0  0  0  0  0  0  0  0  0
   27.2428   42.4106    5.6418 H   0  0  0  0  0  0  0  0  0  0  0  0
  1  2  1  0
  1  6  1  0
  1 16  1  0
  2  3  1  0
  2 23  1  0
  2 24  1  0
  3  4  1  0
  3 25  1  0
  3 26  1  0
  4  5  1  0
  4 21  1  0
  4 22  1  0
  5  6  1  0
  5 27  1  0
  5 28  1  0
  6 29  1  0
  6 30  1  0
  7  8  2  0
  7 12  1  0
  7 13  1  0
  8  9  1  0
  8 20  1  0
  9 10  2  0
  9 19  1  0
 10 11  1  0
 10 31  1  0
 11 12  2  0
 11 32  1  0
 12 33  1  0
 13 14  2  0
 13 18  1  0
 14 15  1  0
 15 16  2  0
 15 40  1  0
 16 17  1  0
 17 18  2  0
 18 39  1  0
 21 34  1  0
 21 38  1  0
 21 41  1  0
 22 35  1  0
 22 36  1  0
 22 37  1  0
M  CHG  1  21   1
M  END
>  <r_exp_dg>  (16) 
-7.15428

>  <mol_id>  (16) 
17

>  <source_index>  (16) 
17

>  <paff>  (16) 
5.2450744986883704

>  <source_r_exp_dg>  (16) 
-7.15428

>  <smiles>  (16) 
CC1(N)CCN(c2cnc(-c3cccc(Cl)c3Cl)cn2)CC1

>  <aimnet_interaction_kcal_mol>  (16) 
-238.68917549865773

$$$$
shp2_018
     RDKit          3D

 44 46  0  0  1  0  0  0  0  0999 V2000
   24.7043   41.3631    3.1130 N   0  0  0  0  0  0  0  0  0  0  0  0
   25.6169   40.2473    2.8977 C   0  0  0  0  0  0  0  0  0  0  0  0
   27.0359   40.5815    3.3093 C   0  0  0  0  0  0  0  0  0  0  0  0
   27.5201   41.8612    2.6549 C   0  0  0  0  0  0  0  0  0  0  0  0
   26.5441   42.9666    2.9989 C   0  0  0  0  0  0  0  0  0  0  0  0
   25.1269   42.6390    2.5580 C   0  0  0  0  0  0  0  0  0  0  0  0
   19.7825   40.5341    5.4980 C   0  0  0  0  0  0  0  0  0  0  0  0
   19.4568   40.7971    6.8329 C   0  0  0  0  0  0  0  0  0  0  0  0
   18.1398   40.6748    7.2764 C   0  0  0  0  0  0  0  0  0  0  0  0
   17.1482   40.1924    6.4305 C   0  0  0  0  0  0  0  0  0  0  0  0
   17.4795   39.8710    5.1197 C   0  0  0  0  0  0  0  0  0  0  0  0
   18.7679   40.0810    4.6569 C   0  0  0  0  0  0  0  0  0  0  0  0
   21.1102   40.8030    4.9223 C   0  0  0  0  0  0  0  0  0  0  0  0
   21.1959   41.7755    4.0293 N   0  0  0  0  0  0  0  0  0  0  0  0
   22.3528   41.9276    3.3633 C   0  0  0  0  0  0  0  0  0  0  0  0
   23.5076   41.1566    3.6961 C   0  0  0  0  0  0  0  0  0  0  0  0
   23.4179   40.1811    4.5991 N   0  0  0  0  0  0  0  0  0  0  0  0
   22.2597   39.9952    5.2230 C   0  0  0  0  0  0  0  0  0  0  0  0
   17.6856   41.2299    8.8671 Cl  0  0  0  0  0  0  0  0  0  0  0  0
   20.7095   41.3170    7.9289 Cl  0  0  0  0  0  0  0  0  0  0  0  0
   22.2021   39.0043    6.1158 N   0  0  0  0  0  0  0  0  0  0  0  0
   27.7548   41.7206    1.1616 C   0  0  0  0  0  0  0  0  0  0  0  0
   28.8757   42.1857    3.2561 N   0  0  0  0  0  0  0  0  0  0  0  0
   22.3000   42.7690    2.2432 C   0  0  0  0  0  0  0  0  0  0  0  0
   22.1573   43.4419    1.3082 N   0  0  0  0  0  0  0  0  0  0  0  0
   25.2521   39.4151    3.4774 H   0  0  0  0  0  0  0  0  0  0  0  0
   25.5754   39.9500    1.8478 H   0  0  0  0  0  0  0  0  0  0  0  0
   27.6976   39.7596    3.0466 H   0  0  0  0  0  0  0  0  0  0  0  0
   27.0499   40.6828    4.3944 H   0  0  0  0  0  0  0  0  0  0  0  0
   26.8533   43.9036    2.5442 H   0  0  0  0  0  0  0  0  0  0  0  0
   26.5336   43.1135    4.0775 H   0  0  0  0  0  0  0  0  0  0  0  0
   24.4636   43.4178    2.9115 H   0  0  0  0  0  0  0  0  0  0  0  0
   25.0374   42.6245    1.4743 H   0  0  0  0  0  0  0  0  0  0  0  0
   16.1469   40.0485    6.8102 H   0  0  0  0  0  0  0  0  0  0  0  0
   16.7339   39.4760    4.4460 H   0  0  0  0  0  0  0  0  0  0  0  0
   19.0022   39.8835    3.6194 H   0  0  0  0  0  0  0  0  0  0  0  0
   21.3999   38.8861    6.7100 H   0  0  0  0  0  0  0  0  0  0  0  0
   23.0507   38.5017    6.3805 H   0  0  0  0  0  0  0  0  0  0  0  0
   28.0844   42.6688    0.7353 H   0  0  0  0  0  0  0  0  0  0  0  0
   26.8469   41.4424    0.6360 H   0  0  0  0  0  0  0  0  0  0  0  0
   28.5103   40.9658    0.9623 H   0  0  0  0  0  0  0  0  0  0  0  0
   29.2032   43.0859    2.9218 H   0  0  0  0  0  0  0  0  0  0  0  0
   28.8199   42.2516    4.2698 H   0  0  0  0  0  0  0  0  0  0  0  0
   29.6151   41.4312    3.0118 H   0  0  0  0  0  0  0  0  0  0  0  0
  1  2  1  0
  1  6  1  0
  1 16  1  0
  2  3  1  0
  2 26  1  0
  2 27  1  0
  3  4  1  0
  3 28  1  0
  3 29  1  0
  4  5  1  0
  4 22  1  0
  4 23  1  0
  5  6  1  0
  5 30  1  0
  5 31  1  0
  6 32  1  0
  6 33  1  0
  7  8  2  0
  7 12  1  0
  7 13  1  0
  8  9  1  0
  8 20  1  0
  9 10  2  0
  9 19  1  0
 10 11  1  0
 10 34  1  0
 11 12  2  0
 11 35  1  0
 12 36  1  0
 13 14  2  0
 13 18  1  0
 14 15  1  0
 15 16  2  0
 15 24  1  0
 16 17  1  0
 17 18  2  0
 18 21  1  0
 21 37  1  0
 21 38  1  0
 22 39  1  0
 22 40  1  0
 22 41  1  0
 23 42  1  0
 23 43  1  0
 23 44  1  0
 24 25  3  0
M  CHG  1  23   1
M  END
>  <r_exp_dg>  (17) 
-8.86991

>  <mol_id>  (17) 
18

>  <source_index>  (17) 
18

>  <paff>  (17) 
6.5028660458203982

>  <source_r_exp_dg>  (17) 
-8.8699100000000008

>  <smiles>  (17) 
CC1(N)CCN(c2nc(N)c(-c3cccc(Cl)c3Cl)nc2C#N)CC1

>  <aimnet_interaction_kcal_mol>  (17) 
-253.13007423435897

$$$$
shp2_019
     RDKit          3D

 43 45  0  0  1  0  0  0  0  0999 V2000
   25.5111   41.1945    3.0839 N   0  0  0  0  0  0  0  0  0  0  0  0
   26.2387   42.4180    2.7849 C   0  0  0  0  0  0  0  0  0  0  0  0
   27.6957   42.1520    2.3842 C   0  0  1  0  0  0  0  0  0  0  0  0
   28.1868   40.9205    3.0997 N   0  0  0  0  0  0  0  0  0  0  0  0
   27.3905   39.6515    2.8674 C   0  0  1  0  0  0  0  0  0  0  0  0
   25.9814   39.9935    2.4354 C   0  0  0  0  0  0  0  0  0  0  0  0
   20.4227   40.8836    5.0975 C   0  0  0  0  0  0  0  0  0  0  0  0
   19.8700   40.8958    6.3897 C   0  0  0  0  0  0  0  0  0  0  0  0
   18.5289   40.5628    6.5824 C   0  0  0  0  0  0  0  0  0  0  0  0
   17.7569   40.0707    5.5421 C   0  0  0  0  0  0  0  0  0  0  0  0
   18.2899   40.0725    4.2581 C   0  0  0  0  0  0  0  0  0  0  0  0
   19.5630   40.5652    4.0402 C   0  0  0  0  0  0  0  0  0  0  0  0
   21.8415   41.1303    4.8033 C   0  0  0  0  0  0  0  0  0  0  0  0
   22.1912   42.2267    4.1333 N   0  0  0  0  0  0  0  0  0  0  0  0
   23.4292   42.3003    3.6346 C   0  0  0  0  0  0  0  0  0  0  0  0
   24.3106   41.2104    3.7502 C   0  0  0  0  0  0  0  0  0  0  0  0
   24.0103   40.1454    4.4880 N   0  0  0  0  0  0  0  0  0  0  0  0
   22.8188   40.1268    5.0920 C   0  0  0  0  0  0  0  0  0  0  0  0
   17.7496   40.8668    8.1207 Cl  0  0  0  0  0  0  0  0  0  0  0  0
   20.8418   41.3125    7.7760 Cl  0  0  0  0  0  0  0  0  0  0  0  0
   22.5565   39.1190    5.9329 N   0  0  0  0  0  0  0  0  0  0  0  0
   27.9446   42.0892    0.8967 C   0  0  0  0  0  0  0  0  0  0  0  0
   28.0769   38.7464    1.8752 C   0  0  0  0  0  0  0  0  0  0  0  0
   26.2308   43.0626    3.6620 H   0  0  0  0  0  0  0  0  0  0  0  0
   25.7598   42.9657    1.9748 H   0  0  0  0  0  0  0  0  0  0  0  0
   28.3001   42.9592    2.7921 H   0  0  0  0  0  0  0  0  0  0  0  0
   28.1227   41.1318    4.0923 H   0  0  0  0  0  0  0  0  0  0  0  0
   27.3442   39.1760    3.8434 H   0  0  0  0  0  0  0  0  0  0  0  0
   25.3240   39.1680    2.6855 H   0  0  0  0  0  0  0  0  0  0  0  0
   25.9411   40.1071    1.3505 H   0  0  0  0  0  0  0  0  0  0  0  0
   16.7559   39.7146    5.7381 H   0  0  0  0  0  0  0  0  0  0  0  0
   17.7193   39.6738    3.4322 H   0  0  0  0  0  0  0  0  0  0  0  0
   19.9265   40.6726    3.0314 H   0  0  0  0  0  0  0  0  0  0  0  0
   21.6872   39.0763    6.4345 H   0  0  0  0  0  0  0  0  0  0  0  0
   23.3099   38.5141    6.2628 H   0  0  0  0  0  0  0  0  0  0  0  0
   27.7293   43.0643    0.4739 H   0  0  0  0  0  0  0  0  0  0  0  0
   27.3053   41.3777    0.3834 H   0  0  0  0  0  0  0  0  0  0  0  0
   28.9830   41.8403    0.6928 H   0  0  0  0  0  0  0  0  0  0  0  0
   29.0313   38.4094    2.2623 H   0  0  0  0  0  0  0  0  0  0  0  0
   28.2546   39.2590    0.9333 H   0  0  0  0  0  0  0  0  0  0  0  0
   27.4378   37.8887    1.6800 H   0  0  0  0  0  0  0  0  0  0  0  0
   29.2429   40.7183    2.9075 H   0  0  0  0  0  0  0  0  0  0  0  0
   23.7152   43.1796    3.0776 H   0  0  0  0  0  0  0  0  0  0  0  0
  1  2  1  0
  1  6  1  0
  1 16  1  0
  2  3  1  0
  2 24  1  0
  2 25  1  0
  3  4  1  0
  3 22  1  0
  3 26  1  1
  4  5  1  0
  4 27  1  0
  4 42  1  0
  5  6  1  0
  5 23  1  0
  5 28  1  1
  6 29  1  0
  6 30  1  0
  7  8  2  0
  7 12  1  0
  7 13  1  0
  8  9  1  0
  8 20  1  0
  9 10  2  0
  9 19  1  0
 10 11  1  0
 10 31  1  0
 11 12  2  0
 11 32  1  0
 12 33  1  0
 13 14  2  0
 13 18  1  0
 14 15  1  0
 15 16  2  0
 15 43  1  0
 16 17  1  0
 17 18  2  0
 18 21  1  0
 21 34  1  0
 21 35  1  0
 22 36  1  0
 22 37  1  0
 22 38  1  0
 23 39  1  0
 23 40  1  0
 23 41  1  0
M  CHG  1   4   1
M  END
>  <r_exp_dg>  (18) 
-8.51853

>  <mol_id>  (18) 
19

>  <source_index>  (18) 
19

>  <paff>  (18) 
6.245255120688519

>  <source_r_exp_dg>  (18) 
-8.5185300000000002

>  <smiles>  (18) 
C[C@@H]1CN(c2cnc(-c3cccc(Cl)c3Cl)c(N)n2)C[C@H](C)N1

>  <aimnet_interaction_kcal_mol>  (18) 
-241.11204988365461

$$$$
shp2_020
     RDKit          3D

 40 42  0  0  1  0  0  0  0  0999 V2000
   24.7529   41.2932    2.7981 N   0  0  0  0  0  0  0  0  0  0  0  0
   25.1091   42.5370    2.1349 C   0  0  0  0  0  0  0  0  0  0  0  0
   26.0750   43.3219    3.0015 C   0  0  0  0  0  0  0  0  0  0  0  0
   27.2729   42.4723    3.3814 C   0  0  0  0  0  0  0  0  0  0  0  0
   26.8988   41.1168    3.9464 C   0  0  0  0  0  0  0  0  0  0  0  0
   25.8946   40.4244    3.0417 C   0  0  0  0  0  0  0  0  0  0  0  0
   19.9386   40.6135    5.3467 C   0  0  0  0  0  0  0  0  0  0  0  0
   19.5816   40.8086    6.6916 C   0  0  0  0  0  0  0  0  0  0  0  0
   18.2636   40.6322    7.1111 C   0  0  0  0  0  0  0  0  0  0  0  0
   17.2902   40.1681    6.2367 C   0  0  0  0  0  0  0  0  0  0  0  0
   17.6392   39.9459    4.9086 C   0  0  0  0  0  0  0  0  0  0  0  0
   18.9251   40.2114    4.4701 C   0  0  0  0  0  0  0  0  0  0  0  0
   21.2761   40.8609    4.8139 C   0  0  0  0  0  0  0  0  0  0  0  0
   21.4817   41.8331    3.8572 C   0  0  0  0  0  0  0  0  0  0  0  0
   22.6330   42.0719    3.2433 N   0  0  0  0  0  0  0  0  0  0  0  0
   23.6290   41.1996    3.5406 C   0  0  0  0  0  0  0  0  0  0  0  0
   23.5845   40.2483    4.4799 N   0  0  0  0  0  0  0  0  0  0  0  0
   22.4271   40.0665    5.1182 C   0  0  0  0  0  0  0  0  0  0  0  0
   17.7837   41.0951    8.7293 Cl  0  0  0  0  0  0  0  0  0  0  0  0
   20.7913   41.3054    7.8415 Cl  0  0  0  0  0  0  0  0  0  0  0  0
   22.3717   39.0895    6.0239 N   0  0  0  0  0  0  0  0  0  0  0  0
   28.0765   43.2261    4.4188 N   0  0  0  0  0  0  0  0  0  0  0  0
   24.2042   43.0988    1.9636 H   0  0  0  0  0  0  0  0  0  0  0  0
   25.5507   42.2956    1.1704 H   0  0  0  0  0  0  0  0  0  0  0  0
   26.4021   44.2203    2.4846 H   0  0  0  0  0  0  0  0  0  0  0  0
   25.5537   43.6524    3.8977 H   0  0  0  0  0  0  0  0  0  0  0  0
   27.7904   40.5025    4.0200 H   0  0  0  0  0  0  0  0  0  0  0  0
   26.4865   41.2153    4.9481 H   0  0  0  0  0  0  0  0  0  0  0  0
   25.5475   39.4971    3.4724 H   0  0  0  0  0  0  0  0  0  0  0  0
   26.3498   40.1877    2.0777 H   0  0  0  0  0  0  0  0  0  0  0  0
   16.2938   39.9702    6.6038 H   0  0  0  0  0  0  0  0  0  0  0  0
   16.9069   39.5798    4.2051 H   0  0  0  0  0  0  0  0  0  0  0  0
   19.1738   40.0765    3.4258 H   0  0  0  0  0  0  0  0  0  0  0  0
   28.4097   44.1049    4.0277 H   0  0  0  0  0  0  0  0  0  0  0  0
   27.5208   43.4698    5.2378 H   0  0  0  0  0  0  0  0  0  0  0  0
   23.2030   38.5601    6.2875 H   0  0  0  0  0  0  0  0  0  0  0  0
   20.6384   42.4545    3.5527 H   0  0  0  0  0  0  0  0  0  0  0  0
   27.9509   42.3508    2.5349 H   0  0  0  0  0  0  0  0  0  0  0  0
   21.5505   38.9485    6.5834 H   0  0  0  0  0  0  0  0  0  0  0  0
   28.8855   42.7117    4.7631 H   0  0  0  0  0  0  0  0  0  0  0  0
  1  2  1  0
  1  6  1  0
  1 16  1  0
  2  3  1  0
  2 23  1  0
  2 24  1  0
  3  4  1  0
  3 25  1  0
  3 26  1  0
  4  5  1  0
  4 22  1  0
  4 38  1  0
  5  6  1  0
  5 27  1  0
  5 28  1  0
  6 29  1  0
  6 30  1  0
  7  8  2  0
  7 12  1  0
  7 13  1  0
  8  9  1  0
  8 20  1  0
  9 10  2  0
  9 19  1  0
 10 11  1  0
 10 31  1  0
 11 12  2  0
 11 32  1  0
 12 33  1  0
 13 14  2  0
 13 18  1  0
 14 15  1  0
 14 37  1  0
 15 16  2  0
 16 17  1  0
 17 18  2  0
 18 21  1  0
 21 36  1  0
 21 39  1  0
 22 34  1  0
 22 35  1  0
 22 40  1  0
M  CHG  1  22   1
M  END
>  <r_exp_dg>  (19) 
-8.03004

>  <mol_id>  (19) 
20

>  <source_index>  (19) 
20

>  <paff>  (19) 
5.8871224478892215

>  <source_r_exp_dg>  (19) 
-8.0300399999999996

>  <smiles>  (19) 
Nc1nc(N2CCC(N)CC2)ncc1-c1cccc(Cl)c1Cl

>  <aimnet_interaction_kcal_mol>  (19) 
-232.0837540745305

$$$$
shp2_021
     RDKit          3D

 42 44  0  0  1  0  0  0  0  0999 V2000
   24.5620   41.3924    2.7869 N   0  0  0  0  0  0  0  0  0  0  0  0
   24.9986   42.7106    2.3428 C   0  0  0  0  0  0  0  0  0  0  0  0
   26.0101   43.2480    3.3280 C   0  0  0  0  0  0  0  0  0  0  0  0
   27.1931   42.3074    3.5210 C   0  0  0  0  0  0  0  0  0  0  0  0
   26.7420   40.8652    3.7577 C   0  0  0  0  0  0  0  0  0  0  0  0
   25.6579   40.4298    2.7843 C   0  0  0  0  0  0  0  0  0  0  0  0
   19.9163   40.6136    5.3985 C   0  0  0  0  0  0  0  0  0  0  0  0
   19.5558   40.8172    6.7363 C   0  0  0  0  0  0  0  0  0  0  0  0
   18.2370   40.6450    7.1556 C   0  0  0  0  0  0  0  0  0  0  0  0
   17.2734   40.1642    6.2785 C   0  0  0  0  0  0  0  0  0  0  0  0
   17.6396   39.9001    4.9639 C   0  0  0  0  0  0  0  0  0  0  0  0
   18.9308   40.1516    4.5295 C   0  0  0  0  0  0  0  0  0  0  0  0
   21.2748   40.8997    4.9103 C   0  0  0  0  0  0  0  0  0  0  0  0
   21.4808   42.0493    4.2868 N   0  0  0  0  0  0  0  0  0  0  0  0
   22.6364   42.2927    3.6812 N   0  0  0  0  0  0  0  0  0  0  0  0
   23.5360   41.2668    3.6541 C   0  0  0  0  0  0  0  0  0  0  0  0
   23.4821   40.1652    4.4115 N   0  0  0  0  0  0  0  0  0  0  0  0
   22.3678   39.9991    5.1136 C   0  0  0  0  0  0  0  0  0  0  0  0
   17.7474   41.1362    8.7593 Cl  0  0  0  0  0  0  0  0  0  0  0  0
   20.7771   41.3099    7.8771 Cl  0  0  0  0  0  0  0  0  0  0  0  0
   22.2999   38.9892    5.9820 N   0  0  0  0  0  0  0  0  0  0  0  0
   27.8409   42.7556    4.8254 N   0  0  0  0  0  0  0  0  0  0  0  0
   28.2235   42.4354    2.4139 C   0  0  0  0  0  0  0  0  0  0  0  0
   25.4247   42.6081    1.3513 H   0  0  0  0  0  0  0  0  0  0  0  0
   24.1459   43.3695    2.2809 H   0  0  0  0  0  0  0  0  0  0  0  0
   25.5074   43.3937    4.2842 H   0  0  0  0  0  0  0  0  0  0  0  0
   26.3625   44.2268    3.0133 H   0  0  0  0  0  0  0  0  0  0  0  0
   26.3396   40.7543    4.7635 H   0  0  0  0  0  0  0  0  0  0  0  0
   27.6034   40.2044    3.6877 H   0  0  0  0  0  0  0  0  0  0  0  0
   26.0529   40.3791    1.7702 H   0  0  0  0  0  0  0  0  0  0  0  0
   25.2797   39.4453    3.0292 H   0  0  0  0  0  0  0  0  0  0  0  0
   16.2701   39.9826    6.6354 H   0  0  0  0  0  0  0  0  0  0  0  0
   16.9160   39.5098    4.2638 H   0  0  0  0  0  0  0  0  0  0  0  0
   19.1827   39.9743    3.4929 H   0  0  0  0  0  0  0  0  0  0  0  0
   23.1411   38.4671    6.2374 H   0  0  0  0  0  0  0  0  0  0  0  0
   21.5128   38.8949    6.6012 H   0  0  0  0  0  0  0  0  0  0  0  0
   28.8162   42.4868    4.9010 H   0  0  0  0  0  0  0  0  0  0  0  0
   27.7778   42.1621    1.4587 H   0  0  0  0  0  0  0  0  0  0  0  0
   29.0840   41.7848    2.5720 H   0  0  0  0  0  0  0  0  0  0  0  0
   28.5640   43.4662    2.3447 H   0  0  0  0  0  0  0  0  0  0  0  0
   27.8287   43.7644    4.9426 H   0  0  0  0  0  0  0  0  0  0  0  0
   27.3597   42.3497    5.6342 H   0  0  0  0  0  0  0  0  0  0  0  0
  1  2  1  0
  1  6  1  0
  1 16  1  0
  2  3  1  0
  2 24  1  0
  2 25  1  0
  3  4  1  0
  3 26  1  0
  3 27  1  0
  4  5  1  0
  4 22  1  0
  4 23  1  0
  5  6  1  0
  5 28  1  0
  5 29  1  0
  6 30  1  0
  6 31  1  0
  7  8  2  0
  7 12  1  0
  7 13  1  0
  8  9  1  0
  8 20  1  0
  9 10  2  0
  9 19  1  0
 10 11  1  0
 10 32  1  0
 11 12  2  0
 11 33  1  0
 12 34  1  0
 13 14  2  0
 13 18  1  0
 14 15  1  0
 15 16  2  0
 16 17  1  0
 17 18  2  0
 18 21  1  0
 21 35  1  0
 21 36  1  0
 22 37  1  0
 22 41  1  0
 22 42  1  0
 23 38  1  0
 23 39  1  0
 23 40  1  0
M  CHG  1  22   1
M  END
>  <r_exp_dg>  (20) 
-9.1571

>  <mol_id>  (20) 
21

>  <source_index>  (20) 
21

>  <paff>  (20) 
6.7134134231075162

>  <source_r_exp_dg>  (20) 
-9.1570999999999998

>  <smiles>  (20) 
CC1(N)CCN(c2nnc(-c3cccc(Cl)c3Cl)c(N)n2)CC1

>  <aimnet_interaction_kcal_mol>  (20) 
-245.7865896138276

$$$$
shp2_022
     RDKit          3D

 47 49  0  0  1  0  0  0  0  0999 V2000
   24.6437   41.2416    2.6363 N   0  0  0  0  0  0  0  0  0  0  0  0
   25.7700   40.3335    2.7840 C   0  0  0  0  0  0  0  0  0  0  0  0
   26.7541   40.8721    3.8053 C   0  0  0  0  0  0  0  0  0  0  0  0
   27.1675   42.3124    3.5100 C   0  0  0  0  0  0  0  0  0  0  0  0
   25.9545   43.1892    3.2153 C   0  0  0  0  0  0  0  0  0  0  0  0
   25.0476   42.5616    2.1742 C   0  0  0  0  0  0  0  0  0  0  0  0
   19.8914   40.5396    5.2960 C   0  0  0  0  0  0  0  0  0  0  0  0
   19.5999   40.6632    6.6664 C   0  0  0  0  0  0  0  0  0  0  0  0
   18.3004   40.4678    7.1240 C   0  0  0  0  0  0  0  0  0  0  0  0
   17.2492   40.2215    6.2461 C   0  0  0  0  0  0  0  0  0  0  0  0
   17.5143   40.2631    4.8825 C   0  0  0  0  0  0  0  0  0  0  0  0
   18.8228   40.3123    4.4225 C   0  0  0  0  0  0  0  0  0  0  0  0
   21.2200   40.7639    4.7345 C   0  0  0  0  0  0  0  0  0  0  0  0
   21.3986   41.7457    3.7804 C   0  0  0  0  0  0  0  0  0  0  0  0
   22.5391   42.0035    3.1556 N   0  0  0  0  0  0  0  0  0  0  0  0
   23.5412   41.1245    3.4126 C   0  0  0  0  0  0  0  0  0  0  0  0
   23.5260   40.1699    4.3487 N   0  0  0  0  0  0  0  0  0  0  0  0
   22.3867   39.9877    5.0236 C   0  0  0  0  0  0  0  0  0  0  0  0
   17.9170   40.6281    8.8213 Cl  0  0  0  0  0  0  0  0  0  0  0  0
   20.8358   41.1795    7.7691 Cl  0  0  0  0  0  0  0  0  0  0  0  0
   22.3719   39.0288    5.9509 N   0  0  0  0  0  0  0  0  0  0  0  0
   28.2371   42.4270    2.4402 C   0  0  0  0  0  0  0  0  0  0  0  0
   27.7499   42.8326    4.8185 N   0  0  0  0  0  0  0  0  0  0  0  0
   25.4050   39.3557    3.0705 H   0  0  0  0  0  0  0  0  0  0  0  0
   26.2499   40.2269    1.8108 H   0  0  0  0  0  0  0  0  0  0  0  0
   27.6437   40.2473    3.8416 H   0  0  0  0  0  0  0  0  0  0  0  0
   26.2729   40.8091    4.7801 H   0  0  0  0  0  0  0  0  0  0  0  0
   26.2752   44.1789    2.9004 H   0  0  0  0  0  0  0  0  0  0  0  0
   25.3781   43.3276    4.1319 H   0  0  0  0  0  0  0  0  0  0  0  0
   24.1610   43.1576    2.0240 H   0  0  0  0  0  0  0  0  0  0  0  0
   25.5535   42.4536    1.2201 H   0  0  0  0  0  0  0  0  0  0  0  0
   16.2788   40.0147    6.6605 H   0  0  0  0  0  0  0  0  0  0  0  0
   16.5389   40.3910    3.8989 O   0  0  0  0  0  0  0  0  0  0  0  0
   19.0292   40.2037    3.3676 H   0  0  0  0  0  0  0  0  0  0  0  0
   23.2219   38.5321    6.2164 H   0  0  0  0  0  0  0  0  0  0  0  0
   21.5732   38.8913    6.5418 H   0  0  0  0  0  0  0  0  0  0  0  0
   15.2297   40.7023    4.3028 C   0  0  0  0  0  0  0  0  0  0  0  0
   14.5661   40.3606    3.5138 H   0  0  0  0  0  0  0  0  0  0  0  0
   15.0544   41.7739    4.4393 H   0  0  0  0  0  0  0  0  0  0  0  0
   14.9388   40.2113    5.2250 H   0  0  0  0  0  0  0  0  0  0  0  0
   28.5529   43.4632    2.3429 H   0  0  0  0  0  0  0  0  0  0  0  0
   27.8420   42.1002    1.4803 H   0  0  0  0  0  0  0  0  0  0  0  0
   29.1070   41.8056    2.6533 H   0  0  0  0  0  0  0  0  0  0  0  0
   27.7146   43.8462    4.8887 H   0  0  0  0  0  0  0  0  0  0  0  0
   27.2398   42.4543    5.6237 H   0  0  0  0  0  0  0  0  0  0  0  0
   28.7235   42.5739    4.9497 H   0  0  0  0  0  0  0  0  0  0  0  0
   20.5413   42.3597    3.4983 H   0  0  0  0  0  0  0  0  0  0  0  0
  1  2  1  0
  1  6  1  0
  1 16  1  0
  2  3  1  0
  2 24  1  0
  2 25  1  0
  3  4  1  0
  3 26  1  0
  3 27  1  0
  4  5  1  0
  4 22  1  0
  4 23  1  0
  5  6  1  0
  5 28  1  0
  5 29  1  0
  6 30  1  0
  6 31  1  0
  7  8  2  0
  7 12  1  0
  7 13  1  0
  8  9  1  0
  8 20  1  0
  9 10  2  0
  9 19  1  0
 10 11  1  0
 10 32  1  0
 11 12  2  0
 11 33  1  0
 12 34  1  0
 13 14  2  0
 13 18  1  0
 14 15  1  0
 14 47  1  0
 15 16  2  0
 16 17  1  0
 17 18  2  0
 18 21  1  0
 21 35  1  0
 21 36  1  0
 22 41  1  0
 22 42  1  0
 22 43  1  0
 23 44  1  0
 23 45  1  0
 23 46  1  0
 33 37  1  0
 37 38  1  0
 37 39  1  0
 37 40  1  0
M  CHG  1  23   1
M  END
>  <r_exp_dg>  (21) 
-7.56309

>  <mol_id>  (21) 
22

>  <source_index>  (21) 
22

>  <paff>  (21) 
5.5447893757973947

>  <source_r_exp_dg>  (21) 
-7.5630899999999999

>  <smiles>  (21) 
COc1cc(Cl)c(Cl)c(-c2cnc(N3CCC(C)(N)CC3)nc2N)c1

>  <aimnet_interaction_kcal_mol>  (21) 
-233.01515961826129

$$$$
shp2_023
     RDKit          3D

 43 45  0  0  1  0  0  0  0  0999 V2000
   24.6757   41.2565    2.6026 N   0  0  0  0  0  0  0  0  0  0  0  0
   25.7996   40.3420    2.7391 C   0  0  0  0  0  0  0  0  0  0  0  0
   26.7888   40.8660    3.7648 C   0  0  0  0  0  0  0  0  0  0  0  0
   27.1994   42.3132    3.4949 C   0  0  0  0  0  0  0  0  0  0  0  0
   25.9889   43.1955    3.2030 C   0  0  0  0  0  0  0  0  0  0  0  0
   25.0861   42.5799    2.1525 C   0  0  0  0  0  0  0  0  0  0  0  0
   21.3335   40.8799    4.8552 C   0  0  0  0  0  0  0  0  0  0  0  0
   21.4950   41.8615    3.8954 C   0  0  0  0  0  0  0  0  0  0  0  0
   22.5998   42.0506    3.1924 N   0  0  0  0  0  0  0  0  0  0  0  0
   23.5901   41.1494    3.4058 C   0  0  0  0  0  0  0  0  0  0  0  0
   23.5837   40.1840    4.3311 N   0  0  0  0  0  0  0  0  0  0  0  0
   22.4783   40.0454    5.0630 C   0  0  0  0  0  0  0  0  0  0  0  0
   22.4643   39.1044    6.0081 N   0  0  0  0  0  0  0  0  0  0  0  0
   27.7667   42.8189    4.8155 N   0  0  0  0  0  0  0  0  0  0  0  0
   28.2780   42.4442    2.4359 C   0  0  0  0  0  0  0  0  0  0  0  0
   26.2768   40.2440    1.7637 H   0  0  0  0  0  0  0  0  0  0  0  0
   25.4308   39.3623    3.0159 H   0  0  0  0  0  0  0  0  0  0  0  0
   26.3151   40.7831    4.7420 H   0  0  0  0  0  0  0  0  0  0  0  0
   27.6797   40.2422    3.7843 H   0  0  0  0  0  0  0  0  0  0  0  0
   25.4084   43.3303    4.1184 H   0  0  0  0  0  0  0  0  0  0  0  0
   26.3155   44.1862    2.8962 H   0  0  0  0  0  0  0  0  0  0  0  0
   25.5960   42.4771    1.2001 H   0  0  0  0  0  0  0  0  0  0  0  0
   24.2029   43.1811    2.0047 H   0  0  0  0  0  0  0  0  0  0  0  0
   28.7395   42.5621    4.9547 H   0  0  0  0  0  0  0  0  0  0  0  0
   29.1465   41.8203    2.6479 H   0  0  0  0  0  0  0  0  0  0  0  0
   28.5930   43.4820    2.3555 H   0  0  0  0  0  0  0  0  0  0  0  0
   27.8913   42.1298    1.4683 H   0  0  0  0  0  0  0  0  0  0  0  0
   27.7307   43.8317    4.8961 H   0  0  0  0  0  0  0  0  0  0  0  0
   23.2960   38.5589    6.2370 H   0  0  0  0  0  0  0  0  0  0  0  0
   20.6658   42.5377    3.6817 H   0  0  0  0  0  0  0  0  0  0  0  0
   21.6446   38.9254    6.5578 H   0  0  0  0  0  0  0  0  0  0  0  0
   20.1111   40.7046    5.5965 C   0  0  0  0  0  0  0  0  0  0  0  0
   18.8891   40.2740    5.1632 C   0  0  0  0  0  0  0  0  0  0  0  0
   17.9104   40.2127    6.1923 C   0  0  0  0  0  0  0  0  0  0  0  0
   18.3504   40.6210    7.4135 C   0  0  0  0  0  0  0  0  0  0  0  0
   20.0427   41.0536    7.3293 S   0  0  0  0  0  0  0  0  0  0  0  0
   18.7100   39.9554    4.1473 H   0  0  0  0  0  0  0  0  0  0  0  0
   16.9134   39.8175    6.0382 H   0  0  0  0  0  0  0  0  0  0  0  0
   17.5790   40.7351    8.6724 C   0  0  0  0  0  0  0  0  0  0  0  0
   17.6796   41.7226    9.1199 H   0  0  0  0  0  0  0  0  0  0  0  0
   17.9012   40.0153    9.4174 H   0  0  0  0  0  0  0  0  0  0  0  0
   16.5292   40.5515    8.4666 H   0  0  0  0  0  0  0  0  0  0  0  0
   27.2486   42.4338    5.6123 H   0  0  0  0  0  0  0  0  0  0  0  0
  1  2  1  0
  1  6  1  0
  1 10  1  0
  2  3  1  0
  2 16  1  0
  2 17  1  0
  3  4  1  0
  3 18  1  0
  3 19  1  0
  4  5  1  0
  4 14  1  0
  4 15  1  0
  5  6  1  0
  5 20  1  0
  5 21  1  0
  6 22  1  0
  6 23  1  0
  7  8  2  0
  7 12  1  0
  7 32  1  0
  8  9  1  0
  8 30  1  0
  9 10  2  0
 10 11  1  0
 11 12  2  0
 12 13  1  0
 13 29  1  0
 13 31  1  0
 14 24  1  0
 14 28  1  0
 14 43  1  0
 15 25  1  0
 15 26  1  0
 15 27  1  0
 32 33  2  0
 32 36  1  0
 33 34  1  0
 33 37  1  0
 34 35  2  0
 34 38  1  0
 35 36  1  0
 35 39  1  0
 39 40  1  0
 39 41  1  0
 39 42  1  0
M  CHG  1  14   1
M  END
>  <r_exp_dg>  (22) 
-8.20109

>  <mol_id>  (22) 
23

>  <source_index>  (22) 
23

>  <paff>  (22) 
6.0125292221472053

>  <source_r_exp_dg>  (22) 
-8.2010900000000007

>  <smiles>  (22) 
Cc1ccc(-c2cnc(N3CCC(C)(N)CC3)nc2N)s1

>  <aimnet_interaction_kcal_mol>  (22) 
-235.27710498796091

$$$$
shp2_024
     RDKit          3D

 43 45  0  0  1  0  0  0  0  0999 V2000
   24.6535   41.4327    3.0617 N   0  0  0  0  0  0  0  0  0  0  0  0
   25.1304   42.7085    2.5541 C   0  0  0  0  0  0  0  0  0  0  0  0
   26.5485   42.9841    3.0160 C   0  0  0  0  0  0  0  0  0  0  0  0
   27.4967   41.8603    2.6581 C   0  0  0  0  0  0  0  0  0  0  0  0
   26.9661   40.5841    3.2831 C   0  0  0  0  0  0  0  0  0  0  0  0
   25.5405   40.2954    2.8484 C   0  0  0  0  0  0  0  0  0  0  0  0
   19.7495   40.6039    5.4838 C   0  0  0  0  0  0  0  0  0  0  0  0
   19.4260   40.8433    6.8244 C   0  0  0  0  0  0  0  0  0  0  0  0
   18.1128   40.7014    7.2721 C   0  0  0  0  0  0  0  0  0  0  0  0
   17.1222   40.2122    6.4289 C   0  0  0  0  0  0  0  0  0  0  0  0
   17.4529   39.9065    5.1134 C   0  0  0  0  0  0  0  0  0  0  0  0
   18.7338   40.1454    4.6438 C   0  0  0  0  0  0  0  0  0  0  0  0
   21.0705   40.8529    4.9048 C   0  0  0  0  0  0  0  0  0  0  0  0
   21.1322   41.7671    3.9347 N   0  0  0  0  0  0  0  0  0  0  0  0
   22.2479   41.9322    3.2725 C   0  0  0  0  0  0  0  0  0  0  0  0
   23.4381   41.2251    3.6262 C   0  0  0  0  0  0  0  0  0  0  0  0
   23.3666   40.2748    4.5508 N   0  0  0  0  0  0  0  0  0  0  0  0
   22.2247   40.0735    5.2070 C   0  0  0  0  0  0  0  0  0  0  0  0
   17.6620   41.2396    8.8700 Cl  0  0  0  0  0  0  0  0  0  0  0  0
   20.6829   41.3412    7.9250 Cl  0  0  0  0  0  0  0  0  0  0  0  0
   22.2066   39.0838    6.1098 N   0  0  0  0  0  0  0  0  0  0  0  0
   28.8514   42.1430    3.2767 N   0  0  0  0  0  0  0  0  0  0  0  0
   27.7412   41.7398    1.1641 C   0  0  0  0  0  0  0  0  0  0  0  0
   25.0614   42.7195    1.4703 H   0  0  0  0  0  0  0  0  0  0  0  0
   24.4899   43.4990    2.9235 H   0  0  0  0  0  0  0  0  0  0  0  0
   26.5325   43.1089    4.0973 H   0  0  0  0  0  0  0  0  0  0  0  0
   26.8879   43.9221    2.5846 H   0  0  0  0  0  0  0  0  0  0  0  0
   26.9702   40.6671    4.3700 H   0  0  0  0  0  0  0  0  0  0  0  0
   27.6080   39.7484    3.0138 H   0  0  0  0  0  0  0  0  0  0  0  0
   25.5142   40.0067    1.7941 H   0  0  0  0  0  0  0  0  0  0  0  0
   25.1482   39.4626    3.4116 H   0  0  0  0  0  0  0  0  0  0  0  0
   16.1245   40.0561    6.8121 H   0  0  0  0  0  0  0  0  0  0  0  0
   18.9689   39.9674    3.6026 H   0  0  0  0  0  0  0  0  0  0  0  0
   22.1250   42.9120    1.8240 Cl  0  0  0  0  0  0  0  0  0  0  0  0
   21.4207   38.9529    6.7224 H   0  0  0  0  0  0  0  0  0  0  0  0
   23.0626   38.5880    6.3544 H   0  0  0  0  0  0  0  0  0  0  0  0
   29.5886   41.3906    3.0188 H   0  0  0  0  0  0  0  0  0  0  0  0
   26.8316   41.4918    0.6262 H   0  0  0  0  0  0  0  0  0  0  0  0
   28.4793   40.9693    0.9588 H   0  0  0  0  0  0  0  0  0  0  0  0
   28.0994   42.6864    0.7569 H   0  0  0  0  0  0  0  0  0  0  0  0
   29.1952   43.0480    2.9738 H   0  0  0  0  0  0  0  0  0  0  0  0
   16.7099   39.5041    4.4412 H   0  0  0  0  0  0  0  0  0  0  0  0
   28.7882   42.1822    4.2912 H   0  0  0  0  0  0  0  0  0  0  0  0
  1  2  1  0
  1  6  1  0
  1 16  1  0
  2  3  1  0
  2 24  1  0
  2 25  1  0
  3  4  1  0
  3 26  1  0
  3 27  1  0
  4  5  1  0
  4 22  1  0
  4 23  1  0
  5  6  1  0
  5 28  1  0
  5 29  1  0
  6 30  1  0
  6 31  1  0
  7  8  2  0
  7 12  1  0
  7 13  1  0
  8  9  1  0
  8 20  1  0
  9 10  2  0
  9 19  1  0
 10 11  1  0
 10 32  1  0
 11 12  2  0
 11 42  1  0
 12 33  1  0
 13 14  2  0
 13 18  1  0
 14 15  1  0
 15 16  2  0
 15 34  1  0
 16 17  1  0
 17 18  2  0
 18 21  1  0
 21 35  1  0
 21 36  1  0
 22 37  1  0
 22 41  1  0
 22 43  1  0
 23 38  1  0
 23 39  1  0
 23 40  1  0
M  CHG  1  22   1
M  END
>  <r_exp_dg>  (23) 
-8.74034

>  <mol_id>  (23) 
24

>  <source_index>  (23) 
24

>  <paff>  (23) 
6.4078733718290355

>  <source_r_exp_dg>  (23) 
-8.7403399999999998

>  <smiles>  (23) 
CC1(N)CCN(c2nc(N)c(-c3cccc(Cl)c3Cl)nc2Cl)CC1

>  <aimnet_interaction_kcal_mol>  (23) 
-253.84285853605039

$$$$
shp2_025
     RDKit          3D

 40 42  0  0  1  0  0  0  0  0999 V2000
   24.7254   41.2423    2.5646 N   0  0  0  0  0  0  0  0  0  0  0  0
   25.1311   42.5707    2.1237 C   0  0  0  0  0  0  0  0  0  0  0  0
   26.0136   43.1891    3.1887 C   0  0  0  0  0  0  0  0  0  0  0  0
   27.2274   42.3147    3.4911 C   0  0  0  0  0  0  0  0  0  0  0  0
   26.8276   40.8619    3.7486 C   0  0  0  0  0  0  0  0  0  0  0  0
   25.8518   40.3335    2.7127 C   0  0  0  0  0  0  0  0  0  0  0  0
   21.3643   40.8556    4.7840 C   0  0  0  0  0  0  0  0  0  0  0  0
   21.5359   41.8435    3.8298 C   0  0  0  0  0  0  0  0  0  0  0  0
   22.6474   42.0339    3.1406 N   0  0  0  0  0  0  0  0  0  0  0  0
   23.6364   41.1334    3.3624 C   0  0  0  0  0  0  0  0  0  0  0  0
   23.6274   40.1736    4.2930 N   0  0  0  0  0  0  0  0  0  0  0  0
   22.5149   40.0342    5.0143 C   0  0  0  0  0  0  0  0  0  0  0  0
   22.4997   39.1085    5.9752 N   0  0  0  0  0  0  0  0  0  0  0  0
   27.7734   42.8196    4.8201 N   0  0  0  0  0  0  0  0  0  0  0  0
   28.3166   42.4602    2.4451 C   0  0  0  0  0  0  0  0  0  0  0  0
   25.6531   42.4761    1.1769 H   0  0  0  0  0  0  0  0  0  0  0  0
   24.2445   43.1641    1.9686 H   0  0  0  0  0  0  0  0  0  0  0  0
   25.4199   43.3159    4.0972 H   0  0  0  0  0  0  0  0  0  0  0  0
   26.3365   44.1833    2.8895 H   0  0  0  0  0  0  0  0  0  0  0  0
   26.3482   40.7673    4.7222 H   0  0  0  0  0  0  0  0  0  0  0  0
   27.7234   40.2460    3.7690 H   0  0  0  0  0  0  0  0  0  0  0  0
   26.3396   40.2374    1.7424 H   0  0  0  0  0  0  0  0  0  0  0  0
   25.4839   39.3522    2.9862 H   0  0  0  0  0  0  0  0  0  0  0  0
   28.7465   42.5708    4.9719 H   0  0  0  0  0  0  0  0  0  0  0  0
   27.9442   42.1483    1.4712 H   0  0  0  0  0  0  0  0  0  0  0  0
   29.1863   41.8403    2.6628 H   0  0  0  0  0  0  0  0  0  0  0  0
   28.6250   43.5005    2.3748 H   0  0  0  0  0  0  0  0  0  0  0  0
   27.7293   43.8318    4.9025 H   0  0  0  0  0  0  0  0  0  0  0  0
   23.3307   38.5658    6.2134 H   0  0  0  0  0  0  0  0  0  0  0  0
   20.7104   42.5225    3.6081 H   0  0  0  0  0  0  0  0  0  0  0  0
   21.6745   38.9193    6.5136 H   0  0  0  0  0  0  0  0  0  0  0  0
   20.1442   40.6724    5.5214 C   0  0  0  0  0  0  0  0  0  0  0  0
   18.9194   40.2209    5.1075 C   0  0  0  0  0  0  0  0  0  0  0  0
   17.9355   40.1853    6.1360 C   0  0  0  0  0  0  0  0  0  0  0  0
   18.4118   40.6303    7.3283 C   0  0  0  0  0  0  0  0  0  0  0  0
   20.0990   41.0544    7.2561 S   0  0  0  0  0  0  0  0  0  0  0  0
   18.7441   39.8738    4.1001 H   0  0  0  0  0  0  0  0  0  0  0  0
   16.9310   39.8049    6.0137 H   0  0  0  0  0  0  0  0  0  0  0  0
   17.5028   40.8840    8.7795 Cl  0  0  0  0  0  0  0  0  0  0  0  0
   27.2481   42.4295    5.6099 H   0  0  0  0  0  0  0  0  0  0  0  0
  1  2  1  0
  1  6  1  0
  1 10  1  0
  2  3  1  0
  2 16  1  0
  2 17  1  0
  3  4  1  0
  3 18  1  0
  3 19  1  0
  4  5  1  0
  4 14  1  0
  4 15  1  0
  5  6  1  0
  5 20  1  0
  5 21  1  0
  6 22  1  0
  6 23  1  0
  7  8  2  0
  7 12  1  0
  7 32  1  0
  8  9  1  0
  8 30  1  0
  9 10  2  0
 10 11  1  0
 11 12  2  0
 12 13  1  0
 13 29  1  0
 13 31  1  0
 14 24  1  0
 14 28  1  0
 14 40  1  0
 15 25  1  0
 15 26  1  0
 15 27  1  0
 32 33  2  0
 32 36  1  0
 33 34  1  0
 33 37  1  0
 34 35  2  0
 34 38  1  0
 35 36  1  0
 35 39  1  0
M  CHG  1  14   1
M  END
>  <r_exp_dg>  (24) 
-8.21587

>  <mol_id>  (24) 
25

>  <source_index>  (24) 
25

>  <paff>  (24) 
6.0233664302881857

>  <source_r_exp_dg>  (24) 
-8.2158700000000007

>  <smiles>  (24) 
CC1(N)CCN(c2ncc(-c3ccc(Cl)s3)c(N)n2)CC1

>  <aimnet_interaction_kcal_mol>  (24) 
-236.29570288702544

$$$$
