L2:P41143:25790
     RDKit          3D

 69 76  0  0  0  0  0  0  0  0999 V2000
   -7.0927  -66.0977   70.5215 C   0  0  0  0  0  0  0  0  0  0  0  0
   -6.1576  -65.5264   71.4016 C   0  0  0  0  0  0  0  0  0  0  0  0
   -5.4367  -66.3208   72.3235 C   0  0  0  0  0  0  0  0  0  0  0  0
   -5.6828  -67.6889   72.4141 C   0  0  0  0  0  0  0  0  0  0  0  0
   -6.7032  -68.1921   71.6251 C   0  0  0  0  0  0  0  0  0  0  0  0
   -7.3252  -67.4561   70.6423 C   0  0  0  0  0  0  0  0  0  0  0  0
   -8.0645  -68.2384   69.7884 O   0  0  0  0  0  0  0  0  0  0  0  0
   -7.7957  -69.6242   70.1708 C   0  0  2  0  0  0  0  0  0  0  0  0
   -7.1015  -69.6215   71.5499 C   0  0  2  0  0  0  0  0  0  0  0  0
   -8.0622  -69.9877   72.6989 C   0  0  0  0  0  0  0  0  0  0  0  0
   -7.3862  -69.9622   74.0758 C   0  0  0  0  0  0  0  0  0  0  0  0
   -6.0601  -70.5852   74.1173 N   0  0  0  0  0  0  0  0  0  0  0  0
   -5.1806  -70.1986   72.9857 C   0  0  2  0  0  0  0  0  0  0  0  0
   -4.8002  -68.6637   73.1673 C   0  0  0  0  0  0  0  0  0  0  0  0
   -5.8009  -70.4648   71.5719 C   0  0  2  0  0  0  0  0  0  0  0  0
   -4.8848  -70.0361   70.4073 C   0  0  0  0  0  0  0  0  0  0  0  0
   -5.4653  -69.9935   69.1946 C   0  0  0  0  0  0  0  0  0  0  0  0
   -6.9117  -70.4603   69.1612 C   0  0  1  0  0  0  0  0  0  0  0  0
   -6.8795  -71.9219   69.7705 C   0  0  2  0  0  0  0  0  0  0  0  0
   -6.1832  -71.9175   71.1841 C   0  0  0  0  0  0  0  0  0  0  0  0
   -8.7488  -64.4965   69.9484 C   0  0  0  0  0  0  0  0  0  0  0  0
   -7.7754  -65.4459   69.5358 O   0  0  0  0  0  0  0  0  0  0  0  0
   -7.4827  -70.5542   67.8583 O   0  0  0  0  0  0  0  0  0  0  0  0
   -6.9283  -69.7320   66.8401 C   0  0  0  0  0  0  0  0  0  0  0  0
   -6.1902  -72.9225   68.8330 C   0  0  0  0  0  0  0  0  0  0  0  0
   -5.4558  -72.5471   67.9159 O   0  0  0  0  0  0  0  0  0  0  0  0
   -6.3614  -74.3997   69.0420 C   0  0  0  0  0  0  0  0  0  0  0  0
   -5.4405  -75.2608   68.4217 C   0  0  0  0  0  0  0  0  0  0  0  0
   -5.5297  -76.6448   68.5908 C   0  0  0  0  0  0  0  0  0  0  0  0
   -6.5423  -77.1849   69.3803 C   0  0  0  0  0  0  0  0  0  0  0  0
   -7.4674  -76.3424   69.9944 C   0  0  0  0  0  0  0  0  0  0  0  0
   -7.3789  -74.9562   69.8274 C   0  0  0  0  0  0  0  0  0  0  0  0
   -6.0828  -72.0112   74.4267 C   0  0  0  0  0  0  0  0  0  0  0  0
   -4.6709  -72.5275   74.4146 C   0  0  0  0  0  0  0  0  0  0  0  0
   -3.7657  -72.3755   75.6134 C   0  0  0  0  0  0  0  0  0  0  0  0
   -4.3130  -73.7280   75.2544 C   0  0  0  0  0  0  0  0  0  0  0  0
   -5.9938  -64.5078   71.3747 H   0  0  0  0  0  0  0  0  0  0  0  0
   -4.7256  -65.8851   72.9314 H   0  0  0  0  0  0  0  0  0  0  0  0
   -8.7490  -70.1101   70.1787 H   0  0  0  0  0  0  0  0  0  0  0  0
   -8.4433  -70.9722   72.5242 H   0  0  0  0  0  0  0  0  0  0  0  0
   -8.8413  -69.2544   72.7110 H   0  0  0  0  0  0  0  0  0  0  0  0
   -8.0189  -70.4781   74.7676 H   0  0  0  0  0  0  0  0  0  0  0  0
   -7.2443  -68.9312   74.3244 H   0  0  0  0  0  0  0  0  0  0  0  0
   -4.3095  -70.8192   73.0159 H   0  0  0  0  0  0  0  0  0  0  0  0
   -3.7940  -68.5293   72.8290 H   0  0  0  0  0  0  0  0  0  0  0  0
   -4.9335  -68.4447   74.2061 H   0  0  0  0  0  0  0  0  0  0  0  0
   -3.8909  -69.7974   70.5493 H   0  0  0  0  0  0  0  0  0  0  0  0
   -4.9669  -69.6687   68.3513 H   0  0  0  0  0  0  0  0  0  0  0  0
   -7.8944  -72.2408   69.8853 H   0  0  0  0  0  0  0  0  0  0  0  0
   -5.3000  -72.5205   71.1478 H   0  0  0  0  0  0  0  0  0  0  0  0
   -6.8581  -72.3140   71.9137 H   0  0  0  0  0  0  0  0  0  0  0  0
   -9.2086  -64.0597   69.0867 H   0  0  0  0  0  0  0  0  0  0  0  0
   -8.2769  -63.7306   70.5277 H   0  0  0  0  0  0  0  0  0  0  0  0
   -9.4939  -64.9843   70.5415 H   0  0  0  0  0  0  0  0  0  0  0  0
   -7.4484  -69.9032   65.9208 H   0  0  0  0  0  0  0  0  0  0  0  0
   -5.8928  -69.9701   66.7137 H   0  0  0  0  0  0  0  0  0  0  0  0
   -7.0263  -68.7037   67.1192 H   0  0  0  0  0  0  0  0  0  0  0  0
   -4.6893  -74.8663   67.8342 H   0  0  0  0  0  0  0  0  0  0  0  0
   -4.8460  -77.2664   68.1312 H   0  0  0  0  0  0  0  0  0  0  0  0
   -6.6074  -78.2066   69.5102 H   0  0  0  0  0  0  0  0  0  0  0  0
   -8.2209  -76.7429   70.5748 H   0  0  0  0  0  0  0  0  0  0  0  0
   -8.0678  -74.3396   70.2859 H   0  0  0  0  0  0  0  0  0  0  0  0
   -6.6626  -72.5302   73.6923 H   0  0  0  0  0  0  0  0  0  0  0  0
   -6.5214  -72.1692   75.3898 H   0  0  0  0  0  0  0  0  0  0  0  0
   -4.5931  -72.2600   73.3815 H   0  0  0  0  0  0  0  0  0  0  0  0
   -4.1179  -71.8713   76.4889 H   0  0  0  0  0  0  0  0  0  0  0  0
   -2.7870  -71.9747   75.7759 H   0  0  0  0  0  0  0  0  0  0  0  0
   -5.0544  -74.1864   75.8749 H   0  0  0  0  0  0  0  0  0  0  0  0
   -3.8843  -74.6881   75.0560 H   0  0  0  0  0  0  0  0  0  0  0  0
  1  2  2  0
  2  3  1  0
  2 37  1  0
  3  4  2  0
  3 38  1  0
  4  5  1  0
  5  6  2  0
  6  7  1  0
  6  1  1  0
  7  8  1  0
  8  9  1  0
  8 39  1  1
  9 10  1  1
  9  5  1  0
 10 11  1  0
 10 40  1  0
 10 41  1  0
 11 12  1  0
 11 42  1  0
 11 43  1  0
 12 33  1  0
 12 13  1  0
 13 14  1  0
 13 15  1  0
 13 44  1  6
 14  4  1  0
 14 45  1  0
 14 46  1  0
 15 16  1  0
 15 20  1  6
 15  9  1  0
 16 17  2  0
 16 47  1  0
 17 18  1  0
 17 48  1  0
 18 23  1  6
 18 19  1  0
 18  8  1  0
 19 25  1  0
 19 20  1  0
 19 49  1  1
 20 50  1  0
 20 51  1  0
 21 22  1  0
 21 52  1  0
 21 53  1  0
 21 54  1  0
 22  1  1  0
 23 24  1  0
 24 55  1  0
 24 56  1  0
 24 57  1  0
 25 26  2  0
 25 27  1  0
 27 28  2  0
 28 29  1  0
 28 58  1  0
 29 30  2  0
 29 59  1  0
 30 31  1  0
 30 60  1  0
 31 32  2  0
 31 61  1  0
 32 27  1  0
 32 62  1  0
 33 34  1  0
 33 63  1  0
 33 64  1  0
 34 35  1  0
 34 65  1  0
 35 36  1  0
 35 66  1  0
 35 67  1  0
 36 34  1  0
 36 68  1  0
 36 69  1  0
M  END
>  <minimizedAffinity>  (1) 
-8.50052

>  <mol_id>  (1) 
25790

>  <source_index>  (1) 
0

>  <layer>  (1) 
L2

>  <uniprot>  (1) 
P41143

>  <paff>  (1) 
6.1113

>  <smiles>  (1) 
COc1ccc2c3c1O[C@@H]1[C@]34CCN(CC3CC3)[C@H](C2)[C@]42C=C[C@@]1(OC)C(C(=O)c1ccccc1)C2

$$$$
L2:P41143:28940
     RDKit          3D

124127  0  0  0  0  0  0  0  0999 V2000
   -7.3523  -68.8987   71.6074 C   0  0  1  0  0  0  0  0  0  0  0  0
   -7.7668  -69.8034   70.5409 N   0  0  0  0  0  0  0  0  0  0  0  0
   -8.2211  -69.2955   69.3415 C   0  0  0  0  0  0  0  0  0  0  0  0
   -8.2728  -68.0844   69.1131 O   0  0  0  0  0  0  0  0  0  0  0  0
   -8.1333  -70.7102   70.8088 H   0  0  0  0  0  0  0  0  0  0  0  0
   -8.6934  -70.3375   68.3046 C   0  0  2  0  0  0  0  0  0  0  0  0
   -7.8568  -70.1246   67.1142 N   0  0  0  0  0  0  0  0  0  0  0  0
   -7.6298  -71.1676   66.2521 C   0  0  0  0  0  0  0  0  0  0  0  0
   -8.1871  -72.2528   66.3919 O   0  0  0  0  0  0  0  0  0  0  0  0
   -6.7499  -70.8996   65.2183 N   0  0  0  0  0  0  0  0  0  0  0  0
   -6.9974  -69.6478   67.3585 H   0  0  0  0  0  0  0  0  0  0  0  0
   -6.2293  -69.5721   64.8737 C   0  0  0  0  0  0  0  0  0  0  0  0
   -4.8779  -69.2789   65.4823 C   0  0  0  0  0  0  0  0  0  0  0  0
   -4.3440  -67.9819   65.4464 C   0  0  0  0  0  0  0  0  0  0  0  0
   -3.0979  -67.7124   66.0153 C   0  0  0  0  0  0  0  0  0  0  0  0
   -2.3782  -68.7318   66.6341 C   0  0  0  0  0  0  0  0  0  0  0  0
   -2.9032  -70.0219   66.6847 C   0  0  0  0  0  0  0  0  0  0  0  0
   -4.1463  -70.2963   66.1116 C   0  0  0  0  0  0  0  0  0  0  0  0
   -6.4269  -71.9985   64.3012 C   0  0  0  0  0  0  0  0  0  0  0  0
   -6.8717  -71.7493   62.8472 C   0  0  0  0  0  0  0  0  0  0  0  0
   -5.7267  -71.7027   61.9280 N   0  0  0  0  0  0  0  0  0  0  0  0
   -5.1829  -70.8638   62.1229 H   0  0  0  0  0  0  0  0  0  0  0  0
   -6.0795  -71.5839   60.9781 H   0  0  0  0  0  0  0  0  0  0  0  0
  -10.1725  -70.1341   67.9511 C   0  0  0  0  0  0  0  0  0  0  0  0
  -11.0863  -71.2010   68.5087 C   0  0  0  0  0  0  0  0  0  0  0  0
  -10.6089  -72.1373   69.4374 C   0  0  0  0  0  0  0  0  0  0  0  0
  -11.4565  -73.1211   69.9496 C   0  0  0  0  0  0  0  0  0  0  0  0
  -12.7862  -73.1802   69.5393 C   0  0  0  0  0  0  0  0  0  0  0  0
  -13.2682  -72.2615   68.6102 C   0  0  0  0  0  0  0  0  0  0  0  0
  -12.4217  -71.2786   68.0949 C   0  0  0  0  0  0  0  0  0  0  0  0
   -6.8439  -69.6984   72.8160 C   0  0  0  0  0  0  0  0  0  0  0  0
   -7.6025  -70.0750   73.7159 O   0  0  0  0  0  0  0  0  0  0  0  0
   -5.3712  -70.0600   72.8526 C   0  0  0  0  0  0  0  0  0  0  0  0
   -5.1126  -71.5128   72.4212 C   0  0  1  0  0  0  0  0  0  0  0  0
   -5.1041  -71.5961   70.8886 C   0  0  0  0  0  0  0  0  0  0  0  0
   -4.5435  -70.7195   70.2253 O   0  0  0  0  0  0  0  0  0  0  0  0
   -5.7122  -72.6833   70.2677 N   0  0  0  0  0  0  0  0  0  0  0  0
   -6.5637  -73.6779   70.9260 C   0  0  0  0  0  0  0  0  0  0  0  0
   -7.6878  -74.1397   70.0083 C   0  0  0  0  0  0  0  0  0  0  0  0
   -7.1299  -74.8082   68.7452 C   0  0  0  0  0  0  0  0  0  0  0  0
   -5.8045  -74.1825   68.2815 C   0  0  0  0  0  0  0  0  0  0  0  0
   -5.6155  -72.7640   68.8082 C   0  0  0  0  0  0  0  0  0  0  0  0
   -8.1345  -74.8064   67.6918 N   0  0  0  0  0  0  0  0  0  0  0  0
   -8.9257  -75.8881   67.4336 C   0  0  0  0  0  0  0  0  0  0  0  0
   -8.9044  -76.9448   68.0478 O   0  0  0  0  0  0  0  0  0  0  0  0
   -8.1909  -74.0478   67.0234 H   0  0  0  0  0  0  0  0  0  0  0  0
   -9.7480  -75.6000   66.3918 O   0  0  0  0  0  0  0  0  0  0  0  0
  -10.9201  -74.8258   66.7103 C   0  0  0  0  0  0  0  0  0  0  0  0
  -12.0991  -75.7786   66.9456 C   0  0  0  0  0  0  0  0  0  0  0  0
  -12.4317  -76.6285   65.7265 C   0  0  0  0  0  0  0  0  0  0  0  0
  -12.8359  -75.6231   64.3161 S   0  0  0  0  0  0  0  0  0  0  0  0
  -14.0022  -74.8301   64.6520 O   0  0  0  0  0  0  0  0  0  0  0  0
  -12.8218  -76.4694   63.1401 O   0  0  0  0  0  0  0  0  0  0  0  0
  -11.4339  -74.5316   64.2242 C   0  0  0  0  0  0  0  0  0  0  0  0
  -11.1715  -73.8444   65.5561 C   0  0  0  0  0  0  0  0  0  0  0  0
   -3.8327  -72.1307   73.0262 C   0  0  0  0  0  0  0  0  0  0  0  0
   -3.8372  -72.2474   74.5565 C   0  0  0  0  0  0  0  0  0  0  0  0
   -4.5263  -73.5200   75.0662 C   0  0  0  0  0  0  0  0  0  0  0  0
   -5.7753  -73.2390   75.9011 C   0  0  0  0  0  0  0  0  0  0  0  0
   -6.8613  -72.7388   75.0609 N   0  0  0  0  0  0  0  0  0  0  0  0
   -6.5485  -71.9093   74.5578 H   0  0  0  0  0  0  0  0  0  0  0  0
   -7.0823  -73.4310   74.3455 H   0  0  0  0  0  0  0  0  0  0  0  0
   -6.3572  -67.8279   71.1332 C   0  0  0  0  0  0  0  0  0  0  0  0
   -6.8351  -65.3994   70.7527 C   0  0  0  0  0  0  0  0  0  0  0  0
   -6.4069  -66.4352   71.7973 C   0  0  0  0  0  0  0  0  0  0  0  0
   -5.0790  -66.0050   72.4174 C   0  0  0  0  0  0  0  0  0  0  0  0
   -8.2141  -68.3475   71.9211 H   0  0  0  0  0  0  0  0  0  0  0  0
   -8.6003  -71.3316   68.6892 H   0  0  0  0  0  0  0  0  0  0  0  0
   -6.9238  -68.8354   65.2199 H   0  0  0  0  0  0  0  0  0  0  0  0
   -6.1082  -69.5473   63.8109 H   0  0  0  0  0  0  0  0  0  0  0  0
   -4.8765  -67.2213   64.9960 H   0  0  0  0  0  0  0  0  0  0  0  0
   -2.7096  -66.7570   65.9773 H   0  0  0  0  0  0  0  0  0  0  0  0
   -1.4572  -68.5321   67.0547 H   0  0  0  0  0  0  0  0  0  0  0  0
   -2.3717  -70.7762   67.1469 H   0  0  0  0  0  0  0  0  0  0  0  0
   -4.5292  -71.2538   66.1513 H   0  0  0  0  0  0  0  0  0  0  0  0
   -6.9107  -72.8852   64.6542 H   0  0  0  0  0  0  0  0  0  0  0  0
   -5.3608  -72.0894   64.2887 H   0  0  0  0  0  0  0  0  0  0  0  0
   -7.3928  -70.8160   62.7993 H   0  0  0  0  0  0  0  0  0  0  0  0
   -7.5052  -72.5585   62.5493 H   0  0  0  0  0  0  0  0  0  0  0  0
  -10.2673  -70.1323   66.8853 H   0  0  0  0  0  0  0  0  0  0  0  0
  -10.4728  -69.2061   68.3910 H   0  0  0  0  0  0  0  0  0  0  0  0
   -9.6243  -72.0987   69.7442 H   0  0  0  0  0  0  0  0  0  0  0  0
  -11.0974  -73.8056   70.6333 H   0  0  0  0  0  0  0  0  0  0  0  0
  -13.4136  -73.9040   69.9234 H   0  0  0  0  0  0  0  0  0  0  0  0
  -14.2522  -72.3075   68.3024 H   0  0  0  0  0  0  0  0  0  0  0  0
  -12.7831  -70.6034   67.4031 H   0  0  0  0  0  0  0  0  0  0  0  0
   -5.0100  -69.9288   73.8512 H   0  0  0  0  0  0  0  0  0  0  0  0
   -4.8612  -69.4198   72.1635 H   0  0  0  0  0  0  0  0  0  0  0  0
   -5.9139  -72.1033   72.8138 H   0  0  0  0  0  0  0  0  0  0  0  0
   -6.9890  -73.2441   71.8068 H   0  0  0  0  0  0  0  0  0  0  0  0
   -5.9610  -74.5264   71.1745 H   0  0  0  0  0  0  0  0  0  0  0  0
   -8.2773  -73.2931   69.7243 H   0  0  0  0  0  0  0  0  0  0  0  0
   -8.2852  -74.8540   70.5354 H   0  0  0  0  0  0  0  0  0  0  0  0
   -6.8992  -75.8243   68.9884 H   0  0  0  0  0  0  0  0  0  0  0  0
   -5.7926  -74.1563   67.2119 H   0  0  0  0  0  0  0  0  0  0  0  0
   -5.0076  -74.7828   68.6680 H   0  0  0  0  0  0  0  0  0  0  0  0
   -6.3697  -72.1370   68.3803 H   0  0  0  0  0  0  0  0  0  0  0  0
   -4.6318  -72.4461   68.5322 H   0  0  0  0  0  0  0  0  0  0  0  0
  -10.7904  -74.2570   67.6072 H   0  0  0  0  0  0  0  0  0  0  0  0
  -12.9606  -75.1979   67.2014 H   0  0  0  0  0  0  0  0  0  0  0  0
  -11.8181  -76.4461   67.7333 H   0  0  0  0  0  0  0  0  0  0  0  0
  -13.2682  -77.2544   65.9576 H   0  0  0  0  0  0  0  0  0  0  0  0
  -11.5705  -77.2150   65.4830 H   0  0  0  0  0  0  0  0  0  0  0  0
  -11.6222  -73.7863   63.4799 H   0  0  0  0  0  0  0  0  0  0  0  0
  -10.5722  -75.1137   63.9722 H   0  0  0  0  0  0  0  0  0  0  0  0
  -12.0224  -73.2436   65.8011 H   0  0  0  0  0  0  0  0  0  0  0  0
  -10.2830  -73.2596   65.4399 H   0  0  0  0  0  0  0  0  0  0  0  0
   -3.0013  -71.5204   72.7411 H   0  0  0  0  0  0  0  0  0  0  0  0
   -3.7718  -73.1296   72.6476 H   0  0  0  0  0  0  0  0  0  0  0  0
   -4.3492  -71.3990   74.9603 H   0  0  0  0  0  0  0  0  0  0  0  0
   -2.8163  -72.2910   74.8740 H   0  0  0  0  0  0  0  0  0  0  0  0
   -3.8302  -74.0647   75.6693 H   0  0  0  0  0  0  0  0  0  0  0  0
   -4.8382  -74.0768   74.2074 H   0  0  0  0  0  0  0  0  0  0  0  0
   -5.5420  -72.5064   76.6453 H   0  0  0  0  0  0  0  0  0  0  0  0
   -6.0915  -74.1515   76.3619 H   0  0  0  0  0  0  0  0  0  0  0  0
   -5.3734  -68.2184   71.2901 H   0  0  0  0  0  0  0  0  0  0  0  0
   -6.6327  -67.6445   70.1157 H   0  0  0  0  0  0  0  0  0  0  0  0
   -6.8720  -64.4306   71.2054 H   0  0  0  0  0  0  0  0  0  0  0  0
   -7.8032  -65.6535   70.3745 H   0  0  0  0  0  0  0  0  0  0  0  0
   -6.1291  -65.3907   69.9487 H   0  0  0  0  0  0  0  0  0  0  0  0
   -7.1131  -66.4983   72.5987 H   0  0  0  0  0  0  0  0  0  0  0  0
   -4.3361  -65.9274   71.6512 H   0  0  0  0  0  0  0  0  0  0  0  0
   -4.7712  -66.7312   73.1405 H   0  0  0  0  0  0  0  0  0  0  0  0
   -5.1995  -65.0551   72.8949 H   0  0  0  0  0  0  0  0  0  0  0  0
  1  2  1  0
  1 31  1  0
  1 67  1  1
  2  3  1  0
  2  5  1  0
  3  4  2  0
  3  6  1  0
  6 24  1  0
  6  7  1  0
  6 68  1  1
  7  8  1  0
  7 11  1  0
  8  9  2  0
  8 10  1  0
 10 19  1  0
 10 12  1  0
 12 13  1  0
 12 69  1  0
 12 70  1  0
 13 14  2  0
 14 15  1  0
 14 71  1  0
 15 16  2  0
 15 72  1  0
 16 17  1  0
 16 73  1  0
 17 18  2  0
 17 74  1  0
 18 13  1  0
 18 75  1  0
 19 20  1  0
 19 76  1  0
 19 77  1  0
 20 21  1  0
 20 78  1  0
 20 79  1  0
 21 22  1  0
 21 23  1  0
 24 25  1  0
 24 80  1  0
 24 81  1  0
 25 26  2  0
 26 27  1  0
 26 82  1  0
 27 28  2  0
 27 83  1  0
 28 29  1  0
 28 84  1  0
 29 30  2  0
 29 85  1  0
 30 25  1  0
 30 86  1  0
 31 32  2  0
 31 33  1  0
 33 34  1  0
 33 87  1  0
 33 88  1  0
 34 56  1  0
 34 35  1  0
 34 89  1  1
 35 36  2  0
 35 37  1  0
 37 38  1  0
 38 39  1  0
 38 90  1  0
 38 91  1  0
 39 40  1  0
 39 92  1  0
 39 93  1  0
 40 43  1  0
 40 41  1  0
 40 94  1  0
 41 42  1  0
 41 95  1  0
 41 96  1  0
 42 37  1  0
 42 97  1  0
 42 98  1  0
 43 44  1  0
 43 46  1  0
 44 45  2  0
 44 47  1  0
 47 48  1  0
 48 49  1  0
 48 99  1  0
 49 50  1  0
 49100  1  0
 49101  1  0
 50 51  1  0
 50102  1  0
 50103  1  0
 51 52  2  0
 51 53  2  0
 51 54  1  0
 54 55  1  0
 54104  1  0
 54105  1  0
 55 48  1  0
 55106  1  0
 55107  1  0
 56 57  1  0
 56108  1  0
 56109  1  0
 57 58  1  0
 57110  1  0
 57111  1  0
 58 59  1  0
 58112  1  0
 58113  1  0
 59 60  1  0
 59114  1  0
 59115  1  0
 60 61  1  0
 60 62  1  0
 63  1  1  0
 63116  1  0
 63117  1  0
 64 65  1  0
 64118  1  0
 64119  1  0
 64120  1  0
 65 66  1  0
 65 63  1  0
 65121  1  0
 66122  1  0
 66123  1  0
 66124  1  0
M  END
>  <minimizedAffinity>  (2) 
-6.39914

>  <mol_id>  (2) 
28940

>  <source_index>  (2) 
1

>  <layer>  (2) 
L2

>  <uniprot>  (2) 
P41143

>  <paff>  (2) 
6

>  <smiles>  (2) 
CC(C)C[C@@H](NC(=O)[C@@H](Cc1ccccc1)NC(=O)N(CCN)Cc1ccccc1)C(=O)C[C@H](CCCCN)C(=O)N1CCC(NC(=O)OC2CCS(=O)(=O)CC2)CC1

$$$$
L2:P41143:31551
     RDKit          3D

104106  0  0  0  0  0  0  0  0999 V2000
   -6.0887  -75.0771   68.2753 C   0  0  1  0  0  0  0  0  0  0  0  0
   -5.8273  -73.9991   69.2240 N   0  0  0  0  0  0  0  0  0  0  0  0
   -6.7513  -73.7016   70.2120 C   0  0  0  0  0  0  0  0  0  0  0  0
   -7.6903  -74.4401   70.4872 O   0  0  0  0  0  0  0  0  0  0  0  0
   -5.3973  -73.1875   68.7919 H   0  0  0  0  0  0  0  0  0  0  0  0
   -6.4814  -72.3686   70.9094 C   0  0  1  0  0  0  0  0  0  0  0  0
   -5.0262  -72.2991   71.4117 C   0  0  0  0  0  0  0  0  0  0  0  0
   -4.8915  -72.5357   72.9000 C   0  0  0  0  0  0  0  0  0  0  0  0
   -6.0084  -72.8828   73.6729 C   0  0  0  0  0  0  0  0  0  0  0  0
   -5.8833  -73.0646   75.0510 C   0  0  0  0  0  0  0  0  0  0  0  0
   -4.6411  -72.9153   75.6660 C   0  0  0  0  0  0  0  0  0  0  0  0
   -3.5221  -72.5852   74.9041 C   0  0  0  0  0  0  0  0  0  0  0  0
   -3.6465  -72.3951   73.5268 C   0  0  0  0  0  0  0  0  0  0  0  0
   -6.9283  -71.1882   70.0291 C   0  0  0  0  0  0  0  0  0  0  0  0
   -8.1914  -70.4741   70.4781 C   0  0  0  0  0  0  0  0  0  0  0  0
   -9.2936  -70.6848   69.9699 O   0  0  0  0  0  0  0  0  0  0  0  0
   -8.0261  -69.4363   71.5690 C   0  0  0  0  0  0  0  0  0  0  0  0
   -7.1265  -68.2906   71.0896 C   0  0  1  0  0  0  0  0  0  0  0  0
   -7.8941  -67.0498   70.9246 N   0  0  0  0  0  0  0  0  0  0  0  0
   -8.6831  -67.2360   70.2963 H   0  0  0  0  0  0  0  0  0  0  0  0
   -7.3104  -66.3543   70.4609 H   0  0  0  0  0  0  0  0  0  0  0  0
   -5.9828  -68.0813   72.0666 C   0  0  0  0  0  0  0  0  0  0  0  0
   -5.5431  -69.1210   72.9040 C   0  0  0  0  0  0  0  0  0  0  0  0
   -4.4751  -68.9281   73.7804 C   0  0  0  0  0  0  0  0  0  0  0  0
   -3.8324  -67.6907   73.8322 C   0  0  0  0  0  0  0  0  0  0  0  0
   -4.2514  -66.6530   73.0028 C   0  0  0  0  0  0  0  0  0  0  0  0
   -5.3195  -66.8450   72.1240 C   0  0  0  0  0  0  0  0  0  0  0  0
   -6.0068  -74.4874   66.8542 C   0  0  0  0  0  0  0  0  0  0  0  0
   -7.0321  -74.0993   66.2792 O   0  0  0  0  0  0  0  0  0  0  0  0
   -4.6431  -74.2446   66.2175 C   0  0  0  0  0  0  0  0  0  0  0  0
   -4.5388  -73.0106   65.3037 C   0  0  1  0  0  0  0  0  0  0  0  0
   -4.3138  -71.7358   66.1268 C   0  0  0  0  0  0  0  0  0  0  0  0
   -3.2881  -71.6146   66.8021 O   0  0  0  0  0  0  0  0  0  0  0  0
   -5.2596  -70.7224   66.0536 N   0  0  0  0  0  0  0  0  0  0  0  0
   -6.5906  -70.8449   65.4588 C   0  0  0  0  0  0  0  0  0  0  0  0
   -7.6139  -69.9580   66.1623 C   0  0  0  0  0  0  0  0  0  0  0  0
   -7.2067  -68.4718   66.1362 C   0  0  0  0  0  0  0  0  0  0  0  0
   -7.8186  -67.7719   64.9728 N   0  0  0  0  0  0  0  0  0  0  0  0
   -5.6807  -68.2912   66.0439 C   0  0  0  0  0  0  0  0  0  0  0  0
   -4.9488  -69.4506   66.7165 C   0  0  0  0  0  0  0  0  0  0  0  0
   -8.8306  -67.7308   65.1322 H   0  0  0  0  0  0  0  0  0  0  0  0
   -7.6759  -68.3154   64.1234 H   0  0  0  0  0  0  0  0  0  0  0  0
   -7.7381  -67.8202   67.4313 C   0  0  0  0  0  0  0  0  0  0  0  0
   -8.8208  -68.0037   67.9644 O   0  0  0  0  0  0  0  0  0  0  0  0
   -6.8685  -66.9177   67.9503 O   0  0  0  0  0  0  0  0  0  0  0  0
   -7.3309  -66.5961   68.7561 H   0  0  0  0  0  0  0  0  0  0  0  0
   -3.4667  -73.2065   64.2038 C   0  0  0  0  0  0  0  0  0  0  0  0
   -3.9191  -73.1437   62.7368 C   0  0  0  0  0  0  0  0  0  0  0  0
   -5.1824  -72.3337   62.4318 C   0  0  0  0  0  0  0  0  0  0  0  0
   -4.9467  -70.9555   61.8113 C   0  0  0  0  0  0  0  0  0  0  0  0
   -4.2154  -70.0748   62.7159 N   0  0  0  0  0  0  0  0  0  0  0  0
   -3.9757  -69.2120   62.2256 H   0  0  0  0  0  0  0  0  0  0  0  0
   -3.3255  -70.5088   62.9633 H   0  0  0  0  0  0  0  0  0  0  0  0
   -5.1647  -76.2847   68.4994 C   0  0  0  0  0  0  0  0  0  0  0  0
   -6.9331  -77.7260   69.5448 C   0  0  0  0  0  0  0  0  0  0  0  0
   -5.4864  -77.2355   69.6727 C   0  0  0  0  0  0  0  0  0  0  0  0
   -4.5517  -78.4403   69.7557 C   0  0  0  0  0  0  0  0  0  0  0  0
   -7.0716  -75.4729   68.4245 H   0  0  0  0  0  0  0  0  0  0  0  0
   -7.0813  -72.2932   71.7922 H   0  0  0  0  0  0  0  0  0  0  0  0
   -4.6356  -71.3289   71.1859 H   0  0  0  0  0  0  0  0  0  0  0  0
   -4.4844  -73.0786   70.9180 H   0  0  0  0  0  0  0  0  0  0  0  0
   -6.9279  -73.0045   73.2205 H   0  0  0  0  0  0  0  0  0  0  0  0
   -6.7116  -73.3099   75.6156 H   0  0  0  0  0  0  0  0  0  0  0  0
   -4.5503  -73.0492   76.6852 H   0  0  0  0  0  0  0  0  0  0  0  0
   -2.6012  -72.4812   75.3581 H   0  0  0  0  0  0  0  0  0  0  0  0
   -2.8155  -72.1493   72.9664 H   0  0  0  0  0  0  0  0  0  0  0  0
   -7.0948  -71.5602   69.0398 H   0  0  0  0  0  0  0  0  0  0  0  0
   -6.1443  -70.4629   70.0932 H   0  0  0  0  0  0  0  0  0  0  0  0
   -7.5832  -69.8959   72.4278 H   0  0  0  0  0  0  0  0  0  0  0  0
   -8.9883  -69.0396   71.8175 H   0  0  0  0  0  0  0  0  0  0  0  0
   -6.7233  -68.5574   70.1350 H   0  0  0  0  0  0  0  0  0  0  0  0
   -6.0159  -70.0377   72.8701 H   0  0  0  0  0  0  0  0  0  0  0  0
   -4.1608  -69.6995   74.3896 H   0  0  0  0  0  0  0  0  0  0  0  0
   -3.0466  -67.5443   74.4850 H   0  0  0  0  0  0  0  0  0  0  0  0
   -3.7713  -65.7401   73.0379 H   0  0  0  0  0  0  0  0  0  0  0  0
   -5.6238  -66.0720   71.5117 H   0  0  0  0  0  0  0  0  0  0  0  0
   -4.3954  -75.1066   65.6340 H   0  0  0  0  0  0  0  0  0  0  0  0
   -3.9722  -74.0608   67.0305 H   0  0  0  0  0  0  0  0  0  0  0  0
   -5.4728  -72.8928   64.7951 H   0  0  0  0  0  0  0  0  0  0  0  0
   -6.9089  -71.8639   65.5308 H   0  0  0  0  0  0  0  0  0  0  0  0
   -6.5270  -70.5310   64.4379 H   0  0  0  0  0  0  0  0  0  0  0  0
   -7.7023  -70.2739   67.1808 H   0  0  0  0  0  0  0  0  0  0  0  0
   -8.5453  -70.0541   65.6444 H   0  0  0  0  0  0  0  0  0  0  0  0
   -5.4070  -67.3771   66.5280 H   0  0  0  0  0  0  0  0  0  0  0  0
   -5.4029  -68.2671   65.0109 H   0  0  0  0  0  0  0  0  0  0  0  0
   -5.2501  -69.5073   67.7416 H   0  0  0  0  0  0  0  0  0  0  0  0
   -3.8954  -69.2768   66.6451 H   0  0  0  0  0  0  0  0  0  0  0  0
   -3.0233  -74.1678   64.3592 H   0  0  0  0  0  0  0  0  0  0  0  0
   -2.8108  -72.3688   64.3175 H   0  0  0  0  0  0  0  0  0  0  0  0
   -4.0927  -74.1475   62.4095 H   0  0  0  0  0  0  0  0  0  0  0  0
   -3.1311  -72.6317   62.2252 H   0  0  0  0  0  0  0  0  0  0  0  0
   -5.7150  -72.1954   63.3495 H   0  0  0  0  0  0  0  0  0  0  0  0
   -5.7232  -72.8969   61.7002 H   0  0  0  0  0  0  0  0  0  0  0  0
   -5.8931  -70.5109   61.5842 H   0  0  0  0  0  0  0  0  0  0  0  0
   -4.3612  -71.0842   60.9250 H   0  0  0  0  0  0  0  0  0  0  0  0
   -5.1811  -76.8686   67.6029 H   0  0  0  0  0  0  0  0  0  0  0  0
   -4.2194  -75.8540   68.7558 H   0  0  0  0  0  0  0  0  0  0  0  0
   -7.1593  -78.3853   70.3566 H   0  0  0  0  0  0  0  0  0  0  0  0
   -7.0523  -78.2474   68.6181 H   0  0  0  0  0  0  0  0  0  0  0  0
   -7.5975  -76.8877   69.5704 H   0  0  0  0  0  0  0  0  0  0  0  0
   -5.3458  -76.6733   70.5722 H   0  0  0  0  0  0  0  0  0  0  0  0
   -4.6578  -79.0355   68.8729 H   0  0  0  0  0  0  0  0  0  0  0  0
   -4.8024  -79.0277   70.6142 H   0  0  0  0  0  0  0  0  0  0  0  0
   -3.5400  -78.1018   69.8381 H   0  0  0  0  0  0  0  0  0  0  0  0
  1  2  1  0
  1 28  1  0
  1 58  1  1
  2  3  1  0
  2  5  1  0
  3  4  2  0
  3  6  1  0
  6 14  1  0
  6  7  1  0
  6 59  1  1
  7  8  1  0
  7 60  1  0
  7 61  1  0
  8  9  2  0
  9 10  1  0
  9 62  1  0
 10 11  2  0
 10 63  1  0
 11 12  1  0
 11 64  1  0
 12 13  2  0
 12 65  1  0
 13  8  1  0
 13 66  1  0
 14 15  1  0
 14 67  1  0
 14 68  1  0
 15 16  2  0
 15 17  1  0
 17 18  1  0
 17 69  1  0
 17 70  1  0
 18 19  1  0
 18 22  1  0
 18 71  1  6
 19 20  1  0
 19 21  1  0
 22 23  2  0
 23 24  1  0
 23 72  1  0
 24 25  2  0
 24 73  1  0
 25 26  1  0
 25 74  1  0
 26 27  2  0
 26 75  1  0
 27 22  1  0
 27 76  1  0
 28 29  2  0
 28 30  1  0
 30 31  1  0
 30 77  1  0
 30 78  1  0
 31 47  1  0
 31 32  1  0
 31 79  1  6
 32 33  2  0
 32 34  1  0
 34 35  1  0
 35 36  1  0
 35 80  1  0
 35 81  1  0
 36 37  1  0
 36 82  1  0
 36 83  1  0
 37 38  1  0
 37 43  1  0
 37 39  1  0
 38 41  1  0
 38 42  1  0
 39 40  1  0
 39 84  1  0
 39 85  1  0
 40 34  1  0
 40 86  1  0
 40 87  1  0
 43 44  2  0
 43 45  1  0
 45 46  1  0
 47 48  1  0
 47 88  1  0
 47 89  1  0
 48 49  1  0
 48 90  1  0
 48 91  1  0
 49 50  1  0
 49 92  1  0
 49 93  1  0
 50 51  1  0
 50 94  1  0
 50 95  1  0
 51 52  1  0
 51 53  1  0
 54  1  1  0
 54 96  1  0
 54 97  1  0
 55 56  1  0
 55 98  1  0
 55 99  1  0
 55100  1  0
 56 57  1  0
 56 54  1  0
 56101  1  0
 57102  1  0
 57103  1  0
 57104  1  0
M  END
>  <minimizedAffinity>  (3) 
-6.75926

>  <mol_id>  (3) 
31551

>  <source_index>  (3) 
2

>  <layer>  (3) 
L2

>  <uniprot>  (3) 
P41143

>  <paff>  (3) 
6

>  <smiles>  (3) 
CC(C)C[C@@H](NC(=O)[C@H](CC(=O)C[C@@H](N)c1ccccc1)Cc1ccccc1)C(=O)C[C@H](CCCCN)C(=O)N1CCC(N)(C(=O)O)CC1

$$$$
L2:P41143:64116
     RDKit          3D

109112  0  0  0  0  0  0  0  0999 V2000
   -6.2298  -74.7505   67.1893 C   0  0  1  0  0  0  0  0  0  0  0  0
   -5.7510  -73.4329   67.5629 N   0  0  0  0  0  0  0  0  0  0  0  0
   -6.1739  -72.7435   68.6735 C   0  0  0  0  0  0  0  0  0  0  0  0
   -6.9563  -73.2266   69.4850 O   0  0  0  0  0  0  0  0  0  0  0  0
   -5.1118  -72.9496   66.9387 H   0  0  0  0  0  0  0  0  0  0  0  0
   -5.7148  -71.2722   68.7021 C   0  0  2  0  0  0  0  0  0  0  0  0
   -6.1692  -70.5969   69.9241 N   0  0  0  0  0  0  0  0  0  0  0  0
   -5.3286  -70.4317   70.9868 C   0  0  0  0  0  0  0  0  0  0  0  0
   -4.2305  -70.9832   71.0128 O   0  0  0  0  0  0  0  0  0  0  0  0
   -5.8117  -69.6710   72.0315 N   0  0  0  0  0  0  0  0  0  0  0  0
   -6.9025  -69.9255   69.7810 H   0  0  0  0  0  0  0  0  0  0  0  0
   -5.0221  -69.6359   73.2667 C   0  0  0  0  0  0  0  0  0  0  0  0
   -5.0989  -70.9296   74.0429 C   0  0  0  0  0  0  0  0  0  0  0  0
   -3.9298  -71.6188   74.4018 C   0  0  0  0  0  0  0  0  0  0  0  0
   -4.0071  -72.8244   75.1040 C   0  0  0  0  0  0  0  0  0  0  0  0
   -5.2466  -73.3486   75.4605 C   0  0  0  0  0  0  0  0  0  0  0  0
   -6.4156  -72.6752   75.1062 C   0  0  0  0  0  0  0  0  0  0  0  0
   -6.3413  -71.4730   74.4001 C   0  0  0  0  0  0  0  0  0  0  0  0
   -7.0869  -68.9498   72.0474 C   0  0  0  0  0  0  0  0  0  0  0  0
   -6.9719  -67.5118   71.5242 C   0  0  0  0  0  0  0  0  0  0  0  0
   -6.4207  -67.4528   70.1728 N   0  0  0  0  0  0  0  0  0  0  0  0
   -5.5124  -67.9110   70.1424 H   0  0  0  0  0  0  0  0  0  0  0  0
   -7.0289  -67.9472   69.5218 H   0  0  0  0  0  0  0  0  0  0  0  0
   -6.0811  -70.5006   67.4221 C   0  0  0  0  0  0  0  0  0  0  0  0
   -4.9930  -69.5729   66.9290 C   0  0  0  0  0  0  0  0  0  0  0  0
   -3.6433  -69.9315   67.0762 C   0  0  0  0  0  0  0  0  0  0  0  0
   -2.6334  -69.0644   66.6652 C   0  0  0  0  0  0  0  0  0  0  0  0
   -2.9568  -67.8373   66.0924 C   0  0  0  0  0  0  0  0  0  0  0  0
   -4.2930  -67.4791   65.9322 C   0  0  0  0  0  0  0  0  0  0  0  0
   -5.3098  -68.3430   66.3432 C   0  0  0  0  0  0  0  0  0  0  0  0
   -6.4341  -74.7295   65.6666 C   0  0  0  0  0  0  0  0  0  0  0  0
   -5.5298  -75.0420   64.8872 O   0  0  0  0  0  0  0  0  0  0  0  0
   -7.7414  -74.1841   65.1367 C   0  0  0  0  0  0  0  0  0  0  0  0
   -7.7079  -72.6932   64.7770 C   0  0  1  0  0  0  0  0  0  0  0  0
   -7.5859  -72.5535   63.2564 C   0  0  0  0  0  0  0  0  0  0  0  0
   -8.2324  -73.3030   62.5150 O   0  0  0  0  0  0  0  0  0  0  0  0
   -6.7782  -71.5406   62.7444 N   0  0  0  0  0  0  0  0  0  0  0  0
   -5.7948  -70.7876   63.5312 C   0  0  0  0  0  0  0  0  0  0  0  0
   -4.8426  -69.9564   62.6715 C   0  0  0  0  0  0  0  0  0  0  0  0
   -5.6007  -69.1006   61.6595 C   0  0  0  0  0  0  0  0  0  0  0  0
   -6.7596  -69.8313   60.9645 C   0  0  0  0  0  0  0  0  0  0  0  0
   -6.7836  -71.3225   61.3019 C   0  0  0  0  0  0  0  0  0  0  0  0
   -4.6949  -68.4932   60.7003 N   0  0  0  0  0  0  0  0  0  0  0  0
   -4.7306  -67.1221   60.7294 C   0  0  0  0  0  0  0  0  0  0  0  0
   -4.0702  -66.3947   60.0125 O   0  0  0  0  0  0  0  0  0  0  0  0
   -5.6004  -66.7306   61.6824 N   0  0  0  0  0  0  0  0  0  0  0  0
   -6.1162  -67.8088   62.3324 C   0  0  0  0  0  0  0  0  0  0  0  0
   -6.8585  -67.7510   63.3000 O   0  0  0  0  0  0  0  0  0  0  0  0
   -4.0816  -68.9811   60.0575 H   0  0  0  0  0  0  0  0  0  0  0  0
   -5.7597  -65.7696   61.9312 H   0  0  0  0  0  0  0  0  0  0  0  0
   -8.8825  -71.8484   65.3179 C   0  0  0  0  0  0  0  0  0  0  0  0
   -9.4577  -72.2185   66.6930 C   0  0  0  0  0  0  0  0  0  0  0  0
   -9.5632  -71.0470   67.6813 C   0  0  0  0  0  0  0  0  0  0  0  0
  -10.1655  -71.3851   69.0486 C   0  0  0  0  0  0  0  0  0  0  0  0
   -9.2093  -71.1901   70.1300 N   0  0  0  0  0  0  0  0  0  0  0  0
   -8.5147  -71.9481   70.1018 H   0  0  0  0  0  0  0  0  0  0  0  0
   -9.6737  -71.3240   71.0313 H   0  0  0  0  0  0  0  0  0  0  0  0
   -5.3441  -75.9123   67.6650 C   0  0  0  0  0  0  0  0  0  0  0  0
   -7.1671  -77.2888   68.8428 C   0  0  0  0  0  0  0  0  0  0  0  0
   -5.7710  -76.6848   68.9295 C   0  0  0  0  0  0  0  0  0  0  0  0
   -4.7497  -77.7990   69.1935 C   0  0  0  0  0  0  0  0  0  0  0  0
   -7.1520  -74.9480   67.6947 H   0  0  0  0  0  0  0  0  0  0  0  0
   -4.6451  -71.2810   68.7250 H   0  0  0  0  0  0  0  0  0  0  0  0
   -5.3883  -68.8431   73.8850 H   0  0  0  0  0  0  0  0  0  0  0  0
   -3.9991  -69.4828   72.9929 H   0  0  0  0  0  0  0  0  0  0  0  0
   -3.0077  -71.2327   74.1455 H   0  0  0  0  0  0  0  0  0  0  0  0
   -3.1430  -73.3276   75.3591 H   0  0  0  0  0  0  0  0  0  0  0  0
   -5.3005  -74.2348   75.9866 H   0  0  0  0  0  0  0  0  0  0  0  0
   -7.3350  -73.0654   75.3659 H   0  0  0  0  0  0  0  0  0  0  0  0
   -7.2091  -70.9795   74.1385 H   0  0  0  0  0  0  0  0  0  0  0  0
   -7.4476  -68.9180   73.0543 H   0  0  0  0  0  0  0  0  0  0  0  0
   -7.7573  -69.4729   71.3979 H   0  0  0  0  0  0  0  0  0  0  0  0
   -6.3335  -66.9576   72.1801 H   0  0  0  0  0  0  0  0  0  0  0  0
   -7.9575  -67.0966   71.4927 H   0  0  0  0  0  0  0  0  0  0  0  0
   -6.9561  -69.9174   67.6198 H   0  0  0  0  0  0  0  0  0  0  0  0
   -6.2362  -71.2303   66.6550 H   0  0  0  0  0  0  0  0  0  0  0  0
   -3.3978  -70.8437   67.4917 H   0  0  0  0  0  0  0  0  0  0  0  0
   -1.6440  -69.3320   66.7855 H   0  0  0  0  0  0  0  0  0  0  0  0
   -2.2086  -67.1952   65.7875 H   0  0  0  0  0  0  0  0  0  0  0  0
   -4.5330  -66.5698   65.5072 H   0  0  0  0  0  0  0  0  0  0  0  0
   -6.2976  -68.0734   66.2145 H   0  0  0  0  0  0  0  0  0  0  0  0
   -8.4927  -74.3310   65.8843 H   0  0  0  0  0  0  0  0  0  0  0  0
   -7.9466  -74.7122   64.2290 H   0  0  0  0  0  0  0  0  0  0  0  0
   -6.8520  -72.2866   65.2740 H   0  0  0  0  0  0  0  0  0  0  0  0
   -5.2165  -71.4808   64.1056 H   0  0  0  0  0  0  0  0  0  0  0  0
   -6.3391  -70.1063   64.1512 H   0  0  0  0  0  0  0  0  0  0  0  0
   -4.1849  -70.6160   62.1449 H   0  0  0  0  0  0  0  0  0  0  0  0
   -4.2929  -69.3034   63.3168 H   0  0  0  0  0  0  0  0  0  0  0  0
   -6.6531  -69.7187   59.9058 H   0  0  0  0  0  0  0  0  0  0  0  0
   -7.6758  -69.4002   61.3104 H   0  0  0  0  0  0  0  0  0  0  0  0
   -5.9207  -71.7901   60.8756 H   0  0  0  0  0  0  0  0  0  0  0  0
   -7.6809  -71.7449   60.9002 H   0  0  0  0  0  0  0  0  0  0  0  0
   -9.6803  -71.9201   64.6085 H   0  0  0  0  0  0  0  0  0  0  0  0
   -8.4708  -70.8700   65.4527 H   0  0  0  0  0  0  0  0  0  0  0  0
   -8.8272  -72.9656   67.1279 H   0  0  0  0  0  0  0  0  0  0  0  0
  -10.4572  -72.5593   66.5206 H   0  0  0  0  0  0  0  0  0  0  0  0
  -10.1722  -70.2909   67.2314 H   0  0  0  0  0  0  0  0  0  0  0  0
   -8.5577  -70.7358   67.8739 H   0  0  0  0  0  0  0  0  0  0  0  0
  -10.4784  -72.4083   69.0446 H   0  0  0  0  0  0  0  0  0  0  0  0
  -10.9928  -70.7277   69.2167 H   0  0  0  0  0  0  0  0  0  0  0  0
   -5.2917  -76.6197   66.8639 H   0  0  0  0  0  0  0  0  0  0  0  0
   -4.4206  -75.4463   67.9386 H   0  0  0  0  0  0  0  0  0  0  0  0
   -7.3893  -77.8056   69.7530 H   0  0  0  0  0  0  0  0  0  0  0  0
   -7.2083  -77.9757   68.0234 H   0  0  0  0  0  0  0  0  0  0  0  0
   -7.8842  -76.5093   68.6911 H   0  0  0  0  0  0  0  0  0  0  0  0
   -5.8008  -75.9773   69.7317 H   0  0  0  0  0  0  0  0  0  0  0  0
   -4.7492  -78.4844   68.3719 H   0  0  0  0  0  0  0  0  0  0  0  0
   -5.0127  -78.3185   70.0912 H   0  0  0  0  0  0  0  0  0  0  0  0
   -3.7750  -77.3711   69.3016 H   0  0  0  0  0  0  0  0  0  0  0  0
  1  2  1  0
  1 31  1  0
  1 62  1  1
  2  3  1  0
  2  5  1  0
  3  4  2  0
  3  6  1  0
  6 24  1  0
  6  7  1  0
  6 63  1  1
  7  8  1  0
  7 11  1  0
  8  9  2  0
  8 10  1  0
 10 19  1  0
 10 12  1  0
 12 13  1  0
 12 64  1  0
 12 65  1  0
 13 14  2  0
 14 15  1  0
 14 66  1  0
 15 16  2  0
 15 67  1  0
 16 17  1  0
 16 68  1  0
 17 18  2  0
 17 69  1  0
 18 13  1  0
 18 70  1  0
 19 20  1  0
 19 71  1  0
 19 72  1  0
 20 21  1  0
 20 73  1  0
 20 74  1  0
 21 22  1  0
 21 23  1  0
 24 25  1  0
 24 75  1  0
 24 76  1  0
 25 26  2  0
 26 27  1  0
 26 77  1  0
 27 28  2  0
 27 78  1  0
 28 29  1  0
 28 79  1  0
 29 30  2  0
 29 80  1  0
 30 25  1  0
 30 81  1  0
 31 32  2  0
 31 33  1  0
 33 34  1  0
 33 82  1  0
 33 83  1  0
 34 51  1  0
 34 35  1  0
 34 84  1  1
 35 36  2  0
 35 37  1  0
 37 38  1  0
 38 39  1  0
 38 85  1  0
 38 86  1  0
 39 40  1  0
 39 87  1  0
 39 88  1  0
 40 41  1  0
 40 43  1  0
 40 47  1  0
 41 42  1  0
 41 89  1  0
 41 90  1  0
 42 37  1  0
 42 91  1  0
 42 92  1  0
 43 44  1  0
 43 49  1  0
 44 45  2  0
 44 46  1  0
 46 47  1  0
 46 50  1  0
 47 48  2  0
 51 52  1  0
 51 93  1  0
 51 94  1  0
 52 53  1  0
 52 95  1  0
 52 96  1  0
 53 54  1  0
 53 97  1  0
 53 98  1  0
 54 55  1  0
 54 99  1  0
 54100  1  0
 55 56  1  0
 55 57  1  0
 58  1  1  0
 58101  1  0
 58102  1  0
 59 60  1  0
 59103  1  0
 59104  1  0
 59105  1  0
 60 61  1  0
 60 58  1  0
 60106  1  0
 61107  1  0
 61108  1  0
 61109  1  0
M  END
>  <minimizedAffinity>  (4) 
-6.41642

>  <mol_id>  (4) 
64116

>  <source_index>  (4) 
3

>  <layer>  (4) 
L2

>  <uniprot>  (4) 
P41143

>  <paff>  (4) 
6

>  <smiles>  (4) 
CC(C)C[C@@H](NC(=O)[C@@H](Cc1ccccc1)NC(=O)N(CCN)Cc1ccccc1)C(=O)C[C@H](CCCCN)C(=O)N1CCC2(CC1)NC(=O)NC2=O

$$$$
L2:P41143:82509
     RDKit          3D

115119  0  0  0  0  0  0  0  0999 V2000
   -8.2009  -68.2036   66.5779 C   0  0  1  0  0  0  0  0  0  0  0  0
   -7.5212  -68.2596   67.8722 N   0  0  0  0  0  0  0  0  0  0  0  0
   -7.5788  -67.2173   68.7738 C   0  0  0  0  0  0  0  0  0  0  0  0
   -8.1313  -66.1520   68.5251 O   0  0  0  0  0  0  0  0  0  0  0  0
   -7.2385  -69.1650   68.2250 H   0  0  0  0  0  0  0  0  0  0  0  0
   -6.8750  -67.5104   70.0948 C   0  0  1  0  0  0  0  0  0  0  0  0
   -7.2143  -66.4416   71.1590 C   0  0  0  0  0  0  0  0  0  0  0  0
   -6.1379  -65.4140   71.4309 C   0  0  0  0  0  0  0  0  0  0  0  0
   -6.1892  -64.1409   70.8466 C   0  0  0  0  0  0  0  0  0  0  0  0
   -5.1943  -63.1986   71.1114 C   0  0  0  0  0  0  0  0  0  0  0  0
   -4.1398  -63.5198   71.9642 C   0  0  0  0  0  0  0  0  0  0  0  0
   -4.0749  -64.7809   72.5484 C   0  0  0  0  0  0  0  0  0  0  0  0
   -5.0667  -65.7266   72.2798 C   0  0  0  0  0  0  0  0  0  0  0  0
   -7.1476  -68.9580   70.5330 C   0  0  0  0  0  0  0  0  0  0  0  0
   -5.9572  -69.8739   70.2970 C   0  0  0  0  0  0  0  0  0  0  0  0
   -5.1949  -69.7218   69.3391 O   0  0  0  0  0  0  0  0  0  0  0  0
   -5.7686  -71.0258   71.3020 C   0  0  2  0  0  0  0  0  0  0  0  0
   -6.9791  -71.8796   71.2804 N   0  0  0  0  0  0  0  0  0  0  0  0
   -7.7913  -71.2697   71.4052 H   0  0  0  0  0  0  0  0  0  0  0  0
   -7.0894  -72.2641   70.3410 H   0  0  0  0  0  0  0  0  0  0  0  0
   -5.5207  -70.4349   72.7012 C   0  0  0  0  0  0  0  0  0  0  0  0
   -5.3049  -71.4912   73.7608 C   0  0  0  0  0  0  0  0  0  0  0  0
   -4.0261  -72.0154   73.9907 C   0  0  0  0  0  0  0  0  0  0  0  0
   -3.8204  -72.9873   74.9702 C   0  0  0  0  0  0  0  0  0  0  0  0
   -4.8922  -73.4374   75.7374 C   0  0  0  0  0  0  0  0  0  0  0  0
   -6.1681  -72.9202   75.5228 C   0  0  0  0  0  0  0  0  0  0  0  0
   -6.3753  -71.9498   74.5404 C   0  0  0  0  0  0  0  0  0  0  0  0
   -7.2738  -68.5492   65.3934 C   0  0  0  0  0  0  0  0  0  0  0  0
   -6.3540  -67.7998   65.0629 O   0  0  0  0  0  0  0  0  0  0  0  0
   -7.4233  -69.9341   64.7677 C   0  0  0  0  0  0  0  0  0  0  0  0
   -6.6641  -71.0205   65.5484 C   0  0  1  0  0  0  0  0  0  0  0  0
   -7.4269  -72.3464   65.6438 C   0  0  0  0  0  0  0  0  0  0  0  0
   -8.4000  -72.5120   64.8992 O   0  0  0  0  0  0  0  0  0  0  0  0
   -7.0450  -73.3320   66.5565 N   0  0  0  0  0  0  0  0  0  0  0  0
   -6.5397  -73.0203   67.8937 C   0  0  0  0  0  0  0  0  0  0  0  0
   -5.7660  -74.1845   68.5038 C   0  0  0  0  0  0  0  0  0  0  0  0
   -6.5988  -75.4792   68.5296 C   0  0  0  0  0  0  0  0  0  0  0  0
   -7.0627  -75.7708   67.0822 C   0  0  0  0  0  0  0  0  0  0  0  0
   -7.7920  -74.5861   66.4541 C   0  0  0  0  0  0  0  0  0  0  0  0
   -5.8351  -76.6855   69.0507 C   0  0  0  0  0  0  0  0  0  0  0  0
   -4.5156  -77.0475   68.8155 C   0  0  0  0  0  0  0  0  0  0  0  0
   -4.0320  -78.2328   69.3750 C   0  0  0  0  0  0  0  0  0  0  0  0
   -4.8665  -79.0488   70.1512 C   0  0  0  0  0  0  0  0  0  0  0  0
   -6.1968  -78.6919   70.3764 C   0  0  0  0  0  0  0  0  0  0  0  0
   -6.6632  -77.5073   69.8274 C   0  0  0  0  0  0  0  0  0  0  0  0
   -8.0486  -76.9482   69.9169 C   0  0  0  0  0  0  0  0  0  0  0  0
   -7.8251  -75.4639   69.5219 C   0  0  1  0  0  0  0  0  0  0  0  0
   -7.6035  -74.6548   70.7359 N   0  0  0  0  0  0  0  0  0  0  0  0
   -7.7699  -73.6713   70.5387 H   0  0  0  0  0  0  0  0  0  0  0  0
   -8.2780  -74.9140   71.4542 H   0  0  0  0  0  0  0  0  0  0  0  0
   -5.2138  -71.2512   65.0792 C   0  0  0  0  0  0  0  0  0  0  0  0
   -4.1231  -70.7442   66.0352 C   0  0  0  0  0  0  0  0  0  0  0  0
   -3.1703  -69.7226   65.4100 C   0  0  0  0  0  0  0  0  0  0  0  0
   -2.9790  -68.5213   66.3376 C   0  0  0  0  0  0  0  0  0  0  0  0
   -3.5285  -67.3105   65.7451 N   0  0  0  0  0  0  0  0  0  0  0  0
   -4.5308  -67.4237   65.5919 H   0  0  0  0  0  0  0  0  0  0  0  0
   -3.1250  -67.1669   64.8192 H   0  0  0  0  0  0  0  0  0  0  0  0
   -9.5200  -68.9999   66.5767 C   0  0  0  0  0  0  0  0  0  0  0  0
  -12.0751  -68.6767   66.6975 C   0  0  0  0  0  0  0  0  0  0  0  0
  -10.7747  -68.3208   65.9823 C   0  0  0  0  0  0  0  0  0  0  0  0
  -10.5816  -66.7997   66.0046 C   0  0  0  0  0  0  0  0  0  0  0  0
   -8.4756  -67.1808   66.4250 H   0  0  0  0  0  0  0  0  0  0  0  0
   -5.8157  -67.4383   69.9622 H   0  0  0  0  0  0  0  0  0  0  0  0
   -7.4229  -66.9487   72.0778 H   0  0  0  0  0  0  0  0  0  0  0  0
   -8.0443  -65.8936   70.7643 H   0  0  0  0  0  0  0  0  0  0  0  0
   -6.9689  -63.8984   70.2155 H   0  0  0  0  0  0  0  0  0  0  0  0
   -5.2395  -62.2641   70.6758 H   0  0  0  0  0  0  0  0  0  0  0  0
   -3.4063  -62.8215   72.1626 H   0  0  0  0  0  0  0  0  0  0  0  0
   -3.2939  -65.0174   73.1802 H   0  0  0  0  0  0  0  0  0  0  0  0
   -5.0107  -66.6632   72.7096 H   0  0  0  0  0  0  0  0  0  0  0  0
   -7.9831  -69.3322   69.9791 H   0  0  0  0  0  0  0  0  0  0  0  0
   -7.3446  -68.9468   71.5846 H   0  0  0  0  0  0  0  0  0  0  0  0
   -4.9243  -71.6283   71.0394 H   0  0  0  0  0  0  0  0  0  0  0  0
   -6.3694  -69.8444   72.9768 H   0  0  0  0  0  0  0  0  0  0  0  0
   -4.6264  -69.8499   72.6468 H   0  0  0  0  0  0  0  0  0  0  0  0
   -3.2279  -71.6790   73.4296 H   0  0  0  0  0  0  0  0  0  0  0  0
   -2.8756  -73.3721   75.1261 H   0  0  0  0  0  0  0  0  0  0  0  0
   -4.7414  -74.1539   76.4647 H   0  0  0  0  0  0  0  0  0  0  0  0
   -6.9617  -73.2551   76.0912 H   0  0  0  0  0  0  0  0  0  0  0  0
   -7.3219  -71.5682   74.3876 H   0  0  0  0  0  0  0  0  0  0  0  0
   -7.0431  -69.9014   63.7681 H   0  0  0  0  0  0  0  0  0  0  0  0
   -8.4626  -70.1879   64.7863 H   0  0  0  0  0  0  0  0  0  0  0  0
   -6.5975  -70.6141   66.5360 H   0  0  0  0  0  0  0  0  0  0  0  0
   -7.3682  -72.7866   68.5292 H   0  0  0  0  0  0  0  0  0  0  0  0
   -5.8695  -72.1908   67.8062 H   0  0  0  0  0  0  0  0  0  0  0  0
   -5.4921  -73.9298   69.5063 H   0  0  0  0  0  0  0  0  0  0  0  0
   -4.9008  -74.3597   67.8991 H   0  0  0  0  0  0  0  0  0  0  0  0
   -7.7232  -76.6125   67.0962 H   0  0  0  0  0  0  0  0  0  0  0  0
   -6.1907  -75.9659   66.4936 H   0  0  0  0  0  0  0  0  0  0  0  0
   -8.7324  -74.4637   66.9496 H   0  0  0  0  0  0  0  0  0  0  0  0
   -7.9126  -74.8014   65.4129 H   0  0  0  0  0  0  0  0  0  0  0  0
   -3.9027  -76.4515   68.2375 H   0  0  0  0  0  0  0  0  0  0  0  0
   -3.0509  -78.5102   69.2153 H   0  0  0  0  0  0  0  0  0  0  0  0
   -4.4942  -79.9205   70.5594 H   0  0  0  0  0  0  0  0  0  0  0  0
   -6.8181  -79.2950   70.9379 H   0  0  0  0  0  0  0  0  0  0  0  0
   -8.4379  -77.0316   70.9101 H   0  0  0  0  0  0  0  0  0  0  0  0
   -8.7591  -77.4563   69.2989 H   0  0  0  0  0  0  0  0  0  0  0  0
   -8.6680  -75.0145   69.0398 H   0  0  0  0  0  0  0  0  0  0  0  0
   -5.0874  -70.7534   64.1405 H   0  0  0  0  0  0  0  0  0  0  0  0
   -5.0872  -72.3122   65.0238 H   0  0  0  0  0  0  0  0  0  0  0  0
   -3.5471  -71.5840   66.3635 H   0  0  0  0  0  0  0  0  0  0  0  0
   -4.6242  -70.2472   66.8394 H   0  0  0  0  0  0  0  0  0  0  0  0
   -3.5777  -69.3862   64.4795 H   0  0  0  0  0  0  0  0  0  0  0  0
   -2.2206  -70.1899   65.2529 H   0  0  0  0  0  0  0  0  0  0  0  0
   -1.9334  -68.3800   66.5157 H   0  0  0  0  0  0  0  0  0  0  0  0
   -3.4935  -68.7148   67.2556 H   0  0  0  0  0  0  0  0  0  0  0  0
   -9.3497  -69.8976   66.0199 H   0  0  0  0  0  0  0  0  0  0  0  0
   -9.7530  -69.1342   67.6123 H   0  0  0  0  0  0  0  0  0  0  0  0
  -12.8912  -68.1687   66.2276 H   0  0  0  0  0  0  0  0  0  0  0  0
  -12.0116  -68.3775   67.7229 H   0  0  0  0  0  0  0  0  0  0  0  0
  -12.2342  -69.7334   66.6435 H   0  0  0  0  0  0  0  0  0  0  0  0
  -10.8734  -68.6888   64.9824 H   0  0  0  0  0  0  0  0  0  0  0  0
  -10.4867  -66.4670   67.0171 H   0  0  0  0  0  0  0  0  0  0  0  0
  -11.4273  -66.3261   65.5514 H   0  0  0  0  0  0  0  0  0  0  0  0
   -9.6961  -66.5446   65.4609 H   0  0  0  0  0  0  0  0  0  0  0  0
  1  2  1  0
  1 28  1  0
  1 62  1  6
  2  3  1  0
  2  5  1  0
  3  4  2  0
  3  6  1  0
  6 14  1  0
  6  7  1  0
  6 63  1  6
  7  8  1  0
  7 64  1  0
  7 65  1  0
  8  9  2  0
  9 10  1  0
  9 66  1  0
 10 11  2  0
 10 67  1  0
 11 12  1  0
 11 68  1  0
 12 13  2  0
 12 69  1  0
 13  8  1  0
 13 70  1  0
 14 15  1  0
 14 71  1  0
 14 72  1  0
 15 16  2  0
 15 17  1  0
 17 18  1  0
 17 21  1  0
 17 73  1  6
 18 19  1  0
 18 20  1  0
 21 22  1  0
 21 74  1  0
 21 75  1  0
 22 23  2  0
 23 24  1  0
 23 76  1  0
 24 25  2  0
 24 77  1  0
 25 26  1  0
 25 78  1  0
 26 27  2  0
 26 79  1  0
 27 22  1  0
 27 80  1  0
 28 29  2  0
 28 30  1  0
 30 31  1  0
 30 81  1  0
 30 82  1  0
 31 51  1  0
 31 32  1  0
 31 83  1  1
 32 33  2  0
 32 34  1  0
 34 35  1  0
 35 36  1  0
 35 84  1  0
 35 85  1  0
 36 37  1  0
 36 86  1  0
 36 87  1  0
 37 38  1  0
 37 40  1  0
 38 39  1  0
 38 88  1  0
 38 89  1  0
 39 34  1  0
 39 90  1  0
 39 91  1  0
 40 41  2  0
 41 42  1  0
 41 92  1  0
 42 43  2  0
 42 93  1  0
 43 44  1  0
 43 94  1  0
 44 45  2  0
 44 95  1  0
 45 46  1  0
 45 40  1  0
 46 47  1  0
 46 96  1  0
 46 97  1  0
 47 48  1  0
 47 37  1  0
 47 98  1  6
 48 49  1  0
 48 50  1  0
 51 52  1  0
 51 99  1  0
 51100  1  0
 52 53  1  0
 52101  1  0
 52102  1  0
 53 54  1  0
 53103  1  0
 53104  1  0
 54 55  1  0
 54105  1  0
 54106  1  0
 55 56  1  0
 55 57  1  0
 58  1  1  0
 58107  1  0
 58108  1  0
 59 60  1  0
 59109  1  0
 59110  1  0
 59111  1  0
 60 61  1  0
 60 58  1  0
 60112  1  0
 61113  1  0
 61114  1  0
 61115  1  0
M  END
>  <minimizedAffinity>  (5) 
-7.82461

>  <mol_id>  (5) 
82509

>  <source_index>  (5) 
4

>  <layer>  (5) 
L2

>  <uniprot>  (5) 
P41143

>  <paff>  (5) 
6

>  <smiles>  (5) 
CC(C)C[C@@H](NC(=O)[C@H](CC(=O)[C@H](N)Cc1ccccc1)Cc1ccccc1)C(=O)C[C@H](CCCCN)C(=O)N1CCC2(CC1)c1ccccc1CC2N

$$$$
L2:P41143:85390
     RDKit          3D

 60 63  0  0  0  0  0  0  0  0999 V2000
   -5.4648  -72.4057   68.9380 N   0  0  0  0  0  0  0  0  0  0  0  0
   -6.6154  -72.4660   69.8497 C   0  0  0  0  0  0  0  0  0  0  0  0
   -6.1659  -72.2188   71.2917 C   0  0  0  0  0  0  0  0  0  0  0  0
   -5.4506  -70.8708   71.3987 C   0  0  0  0  0  0  0  0  0  0  0  0
   -4.3338  -70.7142   70.3590 C   0  0  0  0  0  0  0  0  0  0  0  0
   -4.8389  -71.0758   68.9602 C   0  0  0  0  0  0  0  0  0  0  0  0
   -5.0439  -70.4313   72.7754 N   0  0  0  0  0  0  0  0  0  0  0  0
   -4.8946  -69.1150   73.2575 C   0  0  0  0  0  0  0  0  0  0  0  0
   -4.5949  -68.8882   74.4400 O   0  0  0  0  0  0  0  0  0  0  0  0
   -4.9966  -71.5075   73.7453 C   0  0  0  0  0  0  0  0  0  0  0  0
   -6.1351  -71.8813   74.4727 C   0  0  0  0  0  0  0  0  0  0  0  0
   -6.0893  -72.9365   75.3887 C   0  0  0  0  0  0  0  0  0  0  0  0
   -4.9015  -73.6322   75.5940 C   0  0  0  0  0  0  0  0  0  0  0  0
   -3.7584  -73.2701   74.8874 C   0  0  0  0  0  0  0  0  0  0  0  0
   -3.8056  -72.2154   73.9706 C   0  0  0  0  0  0  0  0  0  0  0  0
   -4.9424  -67.9116   72.2922 C   0  0  2  0  0  0  0  0  0  0  0  0
   -4.2965  -66.6526   72.9101 C   0  0  0  0  0  0  0  0  0  0  0  0
   -5.1048  -65.5778   72.2884 C   0  0  0  0  0  0  0  0  0  0  0  0
   -6.1671  -66.1430   71.7324 C   0  0  0  0  0  0  0  0  0  0  0  0
   -6.2416  -67.5131   71.8382 O   0  0  0  0  0  0  0  0  0  0  0  0
   -5.8563  -72.8113   67.5738 C   0  0  0  0  0  0  0  0  0  0  0  0
   -4.7419  -72.6517   66.5196 C   0  0  0  0  0  0  0  0  0  0  0  0
   -4.8238  -68.8367   64.4713 C   0  0  0  0  0  0  0  0  0  0  0  0
   -6.0106  -69.5113   64.7618 C   0  0  0  0  0  0  0  0  0  0  0  0
   -5.9884  -70.7431   65.4196 C   0  0  0  0  0  0  0  0  0  0  0  0
   -4.7724  -71.3230   65.7987 C   0  0  0  0  0  0  0  0  0  0  0  0
   -3.5832  -70.6427   65.5066 C   0  0  0  0  0  0  0  0  0  0  0  0
   -3.6080  -69.4085   64.8458 C   0  0  0  0  0  0  0  0  0  0  0  0
   -5.3532  -67.6987   62.4543 C   0  0  0  0  0  0  0  0  0  0  0  0
   -4.9875  -67.6416   63.8266 O   0  0  0  0  0  0  0  0  0  0  0  0
   -7.0685  -73.4330   69.7823 H   0  0  0  0  0  0  0  0  0  0  0  0
   -7.3196  -71.7102   69.5709 H   0  0  0  0  0  0  0  0  0  0  0  0
   -5.4974  -72.9984   71.5920 H   0  0  0  0  0  0  0  0  0  0  0  0
   -7.0257  -72.2092   71.9285 H   0  0  0  0  0  0  0  0  0  0  0  0
   -6.2190  -70.1676   71.1540 H   0  0  0  0  0  0  0  0  0  0  0  0
   -3.5214  -71.3611   70.6167 H   0  0  0  0  0  0  0  0  0  0  0  0
   -4.0105  -69.6942   70.3539 H   0  0  0  0  0  0  0  0  0  0  0  0
   -4.0127  -71.0694   68.2803 H   0  0  0  0  0  0  0  0  0  0  0  0
   -5.5753  -70.3545   68.6734 H   0  0  0  0  0  0  0  0  0  0  0  0
   -7.0201  -71.3700   74.3300 H   0  0  0  0  0  0  0  0  0  0  0  0
   -6.9378  -73.2000   75.9136 H   0  0  0  0  0  0  0  0  0  0  0  0
   -4.8685  -74.4134   76.2675 H   0  0  0  0  0  0  0  0  0  0  0  0
   -2.8747  -73.7807   75.0403 H   0  0  0  0  0  0  0  0  0  0  0  0
   -2.9525  -71.9537   73.4521 H   0  0  0  0  0  0  0  0  0  0  0  0
   -4.3985  -68.2847   71.4496 H   0  0  0  0  0  0  0  0  0  0  0  0
   -3.2637  -66.5707   72.6427 H   0  0  0  0  0  0  0  0  0  0  0  0
   -4.2979  -66.6392   73.9800 H   0  0  0  0  0  0  0  0  0  0  0  0
   -4.8810  -64.5704   72.2882 H   0  0  0  0  0  0  0  0  0  0  0  0
   -6.8930  -65.5901   71.2503 H   0  0  0  0  0  0  0  0  0  0  0  0
   -6.1471  -73.8407   67.6008 H   0  0  0  0  0  0  0  0  0  0  0  0
   -6.6533  -72.1615   67.2779 H   0  0  0  0  0  0  0  0  0  0  0  0
   -3.7961  -72.7478   67.0107 H   0  0  0  0  0  0  0  0  0  0  0  0
   -4.8983  -73.4110   65.7821 H   0  0  0  0  0  0  0  0  0  0  0  0
   -6.9144  -69.0954   64.4875 H   0  0  0  0  0  0  0  0  0  0  0  0
   -6.8748  -71.2290   65.6276 H   0  0  0  0  0  0  0  0  0  0  0  0
   -2.6784  -71.0559   65.7816 H   0  0  0  0  0  0  0  0  0  0  0  0
   -2.7236  -68.9202   64.6351 H   0  0  0  0  0  0  0  0  0  0  0  0
   -5.4491  -66.7051   62.0691 H   0  0  0  0  0  0  0  0  0  0  0  0
   -6.2871  -68.2114   62.3551 H   0  0  0  0  0  0  0  0  0  0  0  0
   -4.5986  -68.2226   61.9056 H   0  0  0  0  0  0  0  0  0  0  0  0
  1  2  1  0
  2  3  1  0
  2 31  1  0
  2 32  1  0
  3  4  1  0
  3 33  1  0
  3 34  1  0
  4  7  1  0
  4  5  1  0
  4 35  1  0
  5  6  1  0
  5 36  1  0
  5 37  1  0
  6  1  1  0
  6 38  1  0
  6 39  1  0
  7  8  1  0
  7 10  1  0
  8  9  2  0
  8 16  1  0
 10 11  2  0
 11 12  1  0
 11 40  1  0
 12 13  2  0
 12 41  1  0
 13 14  1  0
 13 42  1  0
 14 15  2  0
 14 43  1  0
 15 10  1  0
 15 44  1  0
 16 17  1  0
 16 45  1  6
 17 18  1  0
 17 46  1  0
 17 47  1  0
 18 19  2  0
 18 48  1  0
 19 20  1  0
 19 49  1  0
 20 16  1  0
 21  1  1  0
 21 50  1  0
 21 51  1  0
 22 21  1  0
 22 52  1  0
 22 53  1  0
 23 24  2  0
 24 25  1  0
 24 54  1  0
 25 26  2  0
 25 55  1  0
 26 22  1  0
 26 27  1  0
 27 28  2  0
 27 56  1  0
 28 23  1  0
 28 57  1  0
 29 30  1  0
 29 58  1  0
 29 59  1  0
 29 60  1  0
 30 23  1  0
M  END
>  <minimizedAffinity>  (6) 
-7.76288

>  <mol_id>  (6) 
85390

>  <source_index>  (6) 
5

>  <layer>  (6) 
L2

>  <uniprot>  (6) 
P41143

>  <paff>  (6) 
7.3978999999999999

>  <smiles>  (6) 
COc4ccc(CCN3CCC(N(C(=O)C1CC=CO1)c2ccccc2)CC3)cc4

$$$$
