L1:Q8N1Q1:35301
     RDKit          3D

 19 19  0  0  0  0  0  0  0  0999 V2000
   41.5646   60.7525   36.5865 C   0  0  0  0  0  0  0  0  0  0  0  0
   40.6591   60.6636   37.5399 N   0  0  0  0  0  0  0  0  0  0  0  0
   41.0274   59.7697   38.5278 N   0  0  0  0  0  0  0  0  0  0  0  0
   42.2007   59.2340   38.2582 C   0  0  0  0  0  0  0  0  0  0  0  0
   42.9336   59.7610   36.8171 S   0  0  0  0  0  0  0  0  0  0  0  0
   43.0281   58.0495   39.2624 S   0  0  0  0  0  0  0  0  0  0  0  0
   44.4376   58.3475   39.1516 O   0  0  0  0  0  0  0  0  0  0  0  0
   42.4594   56.7667   38.9171 O   0  0  0  0  0  0  0  0  0  0  0  0
   42.5946   58.3530   40.8685 N   0  0  0  0  0  0  0  0  0  0  0  0
   41.5979   58.1986   41.0195 H   0  0  0  0  0  0  0  0  0  0  0  0
   42.9200   59.2698   41.1743 H   0  0  0  0  0  0  0  0  0  0  0  0
   40.7920   62.4388   33.3501 C   0  0  0  0  0  0  0  0  0  0  0  0
   40.8014   61.2742   34.3096 C   0  0  0  0  0  0  0  0  0  0  0  0
   40.2891   60.2070   33.9944 O   0  0  0  0  0  0  0  0  0  0  0  0
   41.4002   61.5855   35.5078 N   0  0  0  0  0  0  0  0  0  0  0  0
   41.7627   62.5171   35.6589 H   0  0  0  0  0  0  0  0  0  0  0  0
   40.3171   62.1451   32.4374 H   0  0  0  0  0  0  0  0  0  0  0  0
   41.7979   62.7419   33.1473 H   0  0  0  0  0  0  0  0  0  0  0  0
   40.2544   63.2552   33.7853 H   0  0  0  0  0  0  0  0  0  0  0  0
  1  2  2  0
  2  3  1  0
  3  4  2  0
  4  5  1  0
  4  6  1  0
  5  1  1  0
  6  7  2  0
  6  8  2  0
  6  9  1  0
  9 10  1  0
  9 11  1  0
 12 13  1  0
 12 17  1  0
 12 18  1  0
 12 19  1  0
 13 14  2  0
 13 15  1  0
 15  1  1  0
 15 16  1  0
M  END
>  <minimizedAffinity>  (1) 
-5.46897

>  <mol_id>  (1) 
35301

>  <source_index>  (1) 
0

>  <layer>  (1) 
L1

>  <uniprot>  (1) 
Q8N1Q1

>  <paff>  (1) 
7.7695999999999996

>  <smiles>  (1) 
CC(=O)Nc1nnc(s1)S(=O)(=O)N

$$$$
L1:Q8N1Q1:35426
     RDKit          3D

 50 52  0  0  0  0  0  0  0  0999 V2000
   39.8496   60.9631   40.8801 C   0  0  0  0  0  0  0  0  0  0  0  0
   40.2568   60.6795   39.4938 N   0  0  0  0  0  0  0  0  0  0  0  0
   41.1647   59.5347   39.3843 C   0  0  0  0  0  0  0  0  0  0  0  0
   41.7142   59.4129   37.9635 C   0  0  0  0  0  0  0  0  0  0  0  0
   40.5734   59.3061   36.9484 C   0  0  0  0  0  0  0  0  0  0  0  0
   39.6103   60.4854   37.1278 C   0  0  0  0  0  0  0  0  0  0  0  0
   39.1222   60.5717   38.5728 C   0  0  0  0  0  0  0  0  0  0  0  0
   41.0861   59.3276   35.5751 N   0  0  0  0  0  0  0  0  0  0  0  0
   40.7788   58.5241   35.0312 H   0  0  0  0  0  0  0  0  0  0  0  0
   41.1085   60.4942   34.8087 C   0  0  0  0  0  0  0  0  0  0  0  0
   42.1541   61.4070   35.0171 C   0  0  0  0  0  0  0  0  0  0  0  0
   42.2117   62.6243   34.3313 C   0  0  0  0  0  0  0  0  0  0  0  0
   41.2027   62.9656   33.4382 C   0  0  0  0  0  0  0  0  0  0  0  0
   40.1348   62.0951   33.2459 C   0  0  0  0  0  0  0  0  0  0  0  0
   40.0838   60.8784   33.9369 C   0  0  0  0  0  0  0  0  0  0  0  0
   38.7359   60.0813   41.4737 C   0  0  0  0  0  0  0  0  0  0  0  0
   38.9300   59.9829   45.7742 C   0  0  0  0  0  0  0  0  0  0  0  0
   38.1947   59.0094   45.0949 C   0  0  0  0  0  0  0  0  0  0  0  0
   38.1265   59.0496   43.7014 C   0  0  0  0  0  0  0  0  0  0  0  0
   38.7922   60.0557   42.9849 C   0  0  0  0  0  0  0  0  0  0  0  0
   39.5415   61.0153   43.6818 C   0  0  0  0  0  0  0  0  0  0  0  0
   39.6135   60.9805   45.0749 C   0  0  0  0  0  0  0  0  0  0  0  0
   40.3212   58.8861   47.7809 N   0  0  0  0  0  0  0  0  0  0  0  0
   39.0296   59.9415   47.5433 S   0  0  0  0  0  0  0  0  0  0  0  0
   39.4913   61.2289   48.0098 O   0  0  0  0  0  0  0  0  0  0  0  0
   37.8375   59.3098   48.0554 O   0  0  0  0  0  0  0  0  0  0  0  0
   41.0847   59.3973   48.2272 H   0  0  0  0  0  0  0  0  0  0  0  0
   40.6224   58.4218   46.9251 H   0  0  0  0  0  0  0  0  0  0  0  0
   40.7146   60.8522   41.5001 H   0  0  0  0  0  0  0  0  0  0  0  0
   39.4387   61.9507   40.8534 H   0  0  0  0  0  0  0  0  0  0  0  0
   40.6330   58.6401   39.6328 H   0  0  0  0  0  0  0  0  0  0  0  0
   41.9834   59.6801   40.0577 H   0  0  0  0  0  0  0  0  0  0  0  0
   42.3259   58.5375   37.8975 H   0  0  0  0  0  0  0  0  0  0  0  0
   42.2906   60.2867   37.7419 H   0  0  0  0  0  0  0  0  0  0  0  0
   40.0666   58.3792   37.1184 H   0  0  0  0  0  0  0  0  0  0  0  0
   38.7687   60.3527   36.4805 H   0  0  0  0  0  0  0  0  0  0  0  0
   40.1272   61.3904   36.8856 H   0  0  0  0  0  0  0  0  0  0  0  0
   38.5608   59.6916   38.8077 H   0  0  0  0  0  0  0  0  0  0  0  0
   38.5078   61.4413   38.6785 H   0  0  0  0  0  0  0  0  0  0  0  0
   42.8985   61.1741   35.6929 H   0  0  0  0  0  0  0  0  0  0  0  0
   43.0025   63.2686   34.4881 H   0  0  0  0  0  0  0  0  0  0  0  0
   41.2455   63.8580   32.9217 H   0  0  0  0  0  0  0  0  0  0  0  0
   39.3775   62.3470   32.5916 H   0  0  0  0  0  0  0  0  0  0  0  0
   39.2745   60.2527   33.8005 H   0  0  0  0  0  0  0  0  0  0  0  0
   37.7864   60.4685   41.1681 H   0  0  0  0  0  0  0  0  0  0  0  0
   38.8739   59.0821   41.1166 H   0  0  0  0  0  0  0  0  0  0  0  0
   37.7059   58.2666   45.6187 H   0  0  0  0  0  0  0  0  0  0  0  0
   37.5825   58.3341   43.1943 H   0  0  0  0  0  0  0  0  0  0  0  0
   40.0427   61.7517   43.1608 H   0  0  0  0  0  0  0  0  0  0  0  0
   40.1675   61.6864   45.5847 H   0  0  0  0  0  0  0  0  0  0  0  0
  1  2  1  0
  1 29  1  0
  1 30  1  0
  2  3  1  0
  3  4  1  0
  3 31  1  0
  3 32  1  0
  4  5  1  0
  4 33  1  0
  4 34  1  0
  5  8  1  0
  5  6  1  0
  5 35  1  0
  6  7  1  0
  6 36  1  0
  6 37  1  0
  7  2  1  0
  7 38  1  0
  7 39  1  0
  8 10  1  0
  8  9  1  0
 10 11  2  0
 11 12  1  0
 11 40  1  0
 12 13  2  0
 12 41  1  0
 13 14  1  0
 13 42  1  0
 14 15  2  0
 14 43  1  0
 15 10  1  0
 15 44  1  0
 16  1  1  0
 16 45  1  0
 16 46  1  0
 17 18  2  0
 18 19  1  0
 18 47  1  0
 19 20  2  0
 19 48  1  0
 20 16  1  0
 20 21  1  0
 21 22  2  0
 21 49  1  0
 22 17  1  0
 22 50  1  0
 23 24  1  0
 23 27  1  0
 23 28  1  0
 24 25  2  0
 24 26  2  0
 24 17  1  0
M  END
>  <minimizedAffinity>  (2) 
-6.21668

>  <mol_id>  (2) 
35426

>  <source_index>  (2) 
1

>  <layer>  (2) 
L1

>  <uniprot>  (2) 
Q8N1Q1

>  <paff>  (2) 
7.1938000000000004

>  <smiles>  (2) 
NS(=O)(=O)c1ccc(CCN2CCC(Nc3ccccc3)CC2)cc1

$$$$
L1:Q8N1Q1:35427
     RDKit          3D

 53 55  0  0  0  0  0  0  0  0999 V2000
   39.2420   61.1907   38.8442 C   0  0  0  0  0  0  0  0  0  0  0  0
   39.8799   61.5133   40.2066 C   0  0  0  0  0  0  0  0  0  0  0  0
   39.8254   60.3224   41.1593 C   0  0  0  0  0  0  0  0  0  0  0  0
   38.4712   59.8123   41.3816 N   0  0  0  0  0  0  0  0  0  0  0  0
   37.4979   60.1576   40.3458 C   0  0  0  0  0  0  0  0  0  0  0  0
   38.1389   60.1291   38.9619 C   0  0  0  0  0  0  0  0  0  0  0  0
   40.2918   60.7436   37.9196 N   0  0  0  0  0  0  0  0  0  0  0  0
   40.4280   59.7352   37.9429 H   0  0  0  0  0  0  0  0  0  0  0  0
   40.9409   62.9231   32.6557 C   0  0  0  0  0  0  0  0  0  0  0  0
   40.7586   62.3717   34.0374 C   0  0  0  0  0  0  0  0  0  0  0  0
   41.8398   61.8410   34.7420 C   0  0  0  0  0  0  0  0  0  0  0  0
   41.6546   61.3016   36.0201 C   0  0  0  0  0  0  0  0  0  0  0  0
   40.3868   61.2390   36.6165 C   0  0  0  0  0  0  0  0  0  0  0  0
   39.3183   61.7986   35.9103 C   0  0  0  0  0  0  0  0  0  0  0  0
   39.4945   62.3403   34.6299 C   0  0  0  0  0  0  0  0  0  0  0  0
   37.9679   59.9805   42.7503 C   0  0  0  0  0  0  0  0  0  0  0  0
   36.5743   59.3926   43.0371 C   0  0  0  0  0  0  0  0  0  0  0  0
   36.6445   57.9106   43.3276 C   0  0  0  0  0  0  0  0  0  0  0  0
   35.9496   56.9972   42.5210 C   0  0  0  0  0  0  0  0  0  0  0  0
   36.0280   55.6269   42.7750 C   0  0  0  0  0  0  0  0  0  0  0  0
   36.8012   55.1677   43.8439 C   0  0  0  0  0  0  0  0  0  0  0  0
   37.5131   56.0635   44.6449 C   0  0  0  0  0  0  0  0  0  0  0  0
   37.4314   57.4328   44.3860 C   0  0  0  0  0  0  0  0  0  0  0  0
   36.9285   53.4304   44.1455 S   0  0  0  0  0  0  0  0  0  0  0  0
   38.4168   53.0660   43.4587 N   0  0  0  0  0  0  0  0  0  0  0  0
   37.0794   53.2026   45.5639 O   0  0  0  0  0  0  0  0  0  0  0  0
   35.9450   52.7331   43.3498 O   0  0  0  0  0  0  0  0  0  0  0  0
   38.2888   52.4156   42.6831 H   0  0  0  0  0  0  0  0  0  0  0  0
   39.0562   52.7294   44.1787 H   0  0  0  0  0  0  0  0  0  0  0  0
   38.7778   62.0786   38.4686 H   0  0  0  0  0  0  0  0  0  0  0  0
   39.3542   62.3337   40.6487 H   0  0  0  0  0  0  0  0  0  0  0  0
   40.9084   61.7572   40.0407 H   0  0  0  0  0  0  0  0  0  0  0  0
   40.2324   60.6241   42.1018 H   0  0  0  0  0  0  0  0  0  0  0  0
   40.3884   59.5326   40.7075 H   0  0  0  0  0  0  0  0  0  0  0  0
   37.1186   61.1400   40.5356 H   0  0  0  0  0  0  0  0  0  0  0  0
   36.7056   59.4388   40.3693 H   0  0  0  0  0  0  0  0  0  0  0  0
   37.3879   60.3216   38.2244 H   0  0  0  0  0  0  0  0  0  0  0  0
   38.5763   59.1647   38.8087 H   0  0  0  0  0  0  0  0  0  0  0  0
   41.9729   62.8609   32.3802 H   0  0  0  0  0  0  0  0  0  0  0  0
   40.6274   63.9459   32.6356 H   0  0  0  0  0  0  0  0  0  0  0  0
   40.3525   62.3561   31.9649 H   0  0  0  0  0  0  0  0  0  0  0  0
   42.7809   61.8463   34.3185 H   0  0  0  0  0  0  0  0  0  0  0  0
   42.4718   60.9407   36.5368 H   0  0  0  0  0  0  0  0  0  0  0  0
   38.3804   61.8132   36.3406 H   0  0  0  0  0  0  0  0  0  0  0  0
   38.6817   62.7199   34.1197 H   0  0  0  0  0  0  0  0  0  0  0  0
   37.9290   61.0295   42.9576 H   0  0  0  0  0  0  0  0  0  0  0  0
   38.6440   59.4340   43.3741 H   0  0  0  0  0  0  0  0  0  0  0  0
   35.9487   59.5499   42.1834 H   0  0  0  0  0  0  0  0  0  0  0  0
   36.1747   59.8841   43.8994 H   0  0  0  0  0  0  0  0  0  0  0  0
   35.3765   57.3407   41.7345 H   0  0  0  0  0  0  0  0  0  0  0  0
   35.5183   54.9577   42.1772 H   0  0  0  0  0  0  0  0  0  0  0  0
   38.0954   55.7155   45.4226 H   0  0  0  0  0  0  0  0  0  0  0  0
   37.9535   58.0982   44.9773 H   0  0  0  0  0  0  0  0  0  0  0  0
  1  2  1  0
  1 30  1  0
  2  3  1  0
  2 31  1  0
  2 32  1  0
  3  4  1  0
  3 33  1  0
  3 34  1  0
  4 16  1  0
  4  5  1  0
  5  6  1  0
  5 35  1  0
  5 36  1  0
  6  1  1  0
  6 37  1  0
  6 38  1  0
  7  1  1  0
  7  8  1  0
  9 10  1  0
  9 39  1  0
  9 40  1  0
  9 41  1  0
 10 11  2  0
 11 12  1  0
 11 42  1  0
 12 13  2  0
 12 43  1  0
 13  7  1  0
 13 14  1  0
 14 15  2  0
 14 44  1  0
 15 10  1  0
 15 45  1  0
 16 17  1  0
 16 46  1  0
 16 47  1  0
 17 18  1  0
 17 48  1  0
 17 49  1  0
 18 19  2  0
 19 20  1  0
 19 50  1  0
 20 21  2  0
 20 51  1  0
 21 24  1  0
 21 22  1  0
 22 23  2  0
 22 52  1  0
 23 18  1  0
 23 53  1  0
 24 25  1  0
 24 26  2  0
 24 27  2  0
 25 28  1  0
 25 29  1  0
M  END
>  <minimizedAffinity>  (3) 
-5.91851

>  <mol_id>  (3) 
35427

>  <source_index>  (3) 
2

>  <layer>  (3) 
L1

>  <uniprot>  (3) 
Q8N1Q1

>  <paff>  (3) 
6.1481000000000003

>  <smiles>  (3) 
Cc1ccc(NC2CCN(CCc3ccc(S(N)(=O)=O)cc3)CC2)cc1

$$$$
L1:Q8N1Q1:35430
     RDKit          3D

 58 60  0  0  0  0  0  0  0  0999 V2000
   40.5305   60.5293   37.4823 C   0  0  0  0  0  0  0  0  0  0  0  0
   40.7813   60.6422   38.9888 C   0  0  0  0  0  0  0  0  0  0  0  0
   39.5970   61.3281   39.6831 C   0  0  0  0  0  0  0  0  0  0  0  0
   38.2962   60.9916   39.0962 N   0  0  0  0  0  0  0  0  0  0  0  0
   38.2770   59.7281   38.3681 C   0  0  0  0  0  0  0  0  0  0  0  0
   39.2024   59.8180   37.1516 C   0  0  0  0  0  0  0  0  0  0  0  0
   41.9743   60.3256   35.3456 C   0  0  0  0  0  0  0  0  0  0  0  0
   42.9788   59.9220   34.7498 O   0  0  0  0  0  0  0  0  0  0  0  0
   41.6887   60.0110   36.6883 N   0  0  0  0  0  0  0  0  0  0  0  0
   42.6365   59.2068   37.4315 C   0  0  0  0  0  0  0  0  0  0  0  0
   42.2126   58.0714   38.1420 C   0  0  0  0  0  0  0  0  0  0  0  0
   43.1176   57.2962   38.8748 C   0  0  0  0  0  0  0  0  0  0  0  0
   44.4644   57.6430   38.9104 C   0  0  0  0  0  0  0  0  0  0  0  0
   44.9058   58.7603   38.2089 C   0  0  0  0  0  0  0  0  0  0  0  0
   43.9994   59.5333   37.4753 C   0  0  0  0  0  0  0  0  0  0  0  0
   41.4601   62.4847   34.1298 C   0  0  0  0  0  0  0  0  0  0  0  0
   40.9433   61.1136   34.5467 C   0  0  0  0  0  0  0  0  0  0  0  0
   37.1714   61.1773   40.0229 C   0  0  0  0  0  0  0  0  0  0  0  0
   36.3297   59.9244   40.3272 C   0  0  0  0  0  0  0  0  0  0  0  0
   36.7308   59.2883   41.6390 C   0  0  0  0  0  0  0  0  0  0  0  0
   36.1692   58.0646   42.0334 C   0  0  0  0  0  0  0  0  0  0  0  0
   36.5204   57.4863   43.2537 C   0  0  0  0  0  0  0  0  0  0  0  0
   37.4409   58.1335   44.0818 C   0  0  0  0  0  0  0  0  0  0  0  0
   37.9956   59.3605   43.7124 C   0  0  0  0  0  0  0  0  0  0  0  0
   37.6399   59.9341   42.4905 C   0  0  0  0  0  0  0  0  0  0  0  0
   37.8787   57.3959   45.6330 S   0  0  0  0  0  0  0  0  0  0  0  0
   38.3706   56.0623   45.3838 O   0  0  0  0  0  0  0  0  0  0  0  0
   36.8306   57.6748   46.5881 O   0  0  0  0  0  0  0  0  0  0  0  0
   39.1832   58.3531   46.1025 N   0  0  0  0  0  0  0  0  0  0  0  0
   38.9332   58.8520   46.9584 H   0  0  0  0  0  0  0  0  0  0  0  0
   39.4998   58.9875   45.3705 H   0  0  0  0  0  0  0  0  0  0  0  0
   40.4249   61.5418   37.1526 H   0  0  0  0  0  0  0  0  0  0  0  0
   41.6680   61.2174   39.1556 H   0  0  0  0  0  0  0  0  0  0  0  0
   40.8966   59.6587   39.3942 H   0  0  0  0  0  0  0  0  0  0  0  0
   39.7338   62.3873   39.6173 H   0  0  0  0  0  0  0  0  0  0  0  0
   39.5833   60.9811   40.6952 H   0  0  0  0  0  0  0  0  0  0  0  0
   37.2793   59.5213   38.0413 H   0  0  0  0  0  0  0  0  0  0  0  0
   38.6146   58.9433   39.0123 H   0  0  0  0  0  0  0  0  0  0  0  0
   38.7029   60.3628   36.3779 H   0  0  0  0  0  0  0  0  0  0  0  0
   39.4323   58.8209   36.8389 H   0  0  0  0  0  0  0  0  0  0  0  0
   41.2159   57.8045   38.1230 H   0  0  0  0  0  0  0  0  0  0  0  0
   42.7856   56.4658   39.3898 H   0  0  0  0  0  0  0  0  0  0  0  0
   45.1323   57.0745   39.4542 H   0  0  0  0  0  0  0  0  0  0  0  0
   45.9045   59.0196   38.2297 H   0  0  0  0  0  0  0  0  0  0  0  0
   44.3399   60.3584   36.9573 H   0  0  0  0  0  0  0  0  0  0  0  0
   40.7031   62.9972   33.5738 H   0  0  0  0  0  0  0  0  0  0  0  0
   42.3320   62.3672   33.5208 H   0  0  0  0  0  0  0  0  0  0  0  0
   41.7082   63.0527   35.0020 H   0  0  0  0  0  0  0  0  0  0  0  0
   40.6920   60.5585   33.6671 H   0  0  0  0  0  0  0  0  0  0  0  0
   40.0882   61.2624   35.1724 H   0  0  0  0  0  0  0  0  0  0  0  0
   36.5198   61.9145   39.6024 H   0  0  0  0  0  0  0  0  0  0  0  0
   37.6118   61.4609   40.9559 H   0  0  0  0  0  0  0  0  0  0  0  0
   36.4687   59.2133   39.5398 H   0  0  0  0  0  0  0  0  0  0  0  0
   35.3039   60.2202   40.3990 H   0  0  0  0  0  0  0  0  0  0  0  0
   35.4919   57.5891   41.4169 H   0  0  0  0  0  0  0  0  0  0  0  0
   36.1034   56.5875   43.5423 H   0  0  0  0  0  0  0  0  0  0  0  0
   38.6629   59.8392   44.3374 H   0  0  0  0  0  0  0  0  0  0  0  0
   38.0486   60.8397   42.2114 H   0  0  0  0  0  0  0  0  0  0  0  0
  1  2  1  0
  1 32  1  0
  2  3  1  0
  2 33  1  0
  2 34  1  0
  3  4  1  0
  3 35  1  0
  3 36  1  0
  4  5  1  0
  4 18  1  0
  5  6  1  0
  5 37  1  0
  5 38  1  0
  6  1  1  0
  6 39  1  0
  6 40  1  0
  7  8  2  0
  7  9  1  0
  9 10  1  0
  9  1  1  0
 10 11  2  0
 11 12  1  0
 11 41  1  0
 12 13  2  0
 12 42  1  0
 13 14  1  0
 13 43  1  0
 14 15  2  0
 14 44  1  0
 15 10  1  0
 15 45  1  0
 16 17  1  0
 16 46  1  0
 16 47  1  0
 16 48  1  0
 17  7  1  0
 17 49  1  0
 17 50  1  0
 18 19  1  0
 18 51  1  0
 18 52  1  0
 19 20  1  0
 19 53  1  0
 19 54  1  0
 20 21  2  0
 21 22  1  0
 21 55  1  0
 22 23  2  0
 22 56  1  0
 23 24  1  0
 23 26  1  0
 24 25  2  0
 24 57  1  0
 25 20  1  0
 25 58  1  0
 26 27  2  0
 26 28  2  0
 26 29  1  0
 29 30  1  0
 29 31  1  0
M  END
>  <minimizedAffinity>  (4) 
-6.39703

>  <mol_id>  (4) 
35430

>  <source_index>  (4) 
3

>  <layer>  (4) 
L1

>  <uniprot>  (4) 
Q8N1Q1

>  <paff>  (4) 
7.0555000000000003

>  <smiles>  (4) 
CCC(=O)N(c1ccccc1)C2CCN(CC2)CCc3ccc(cc3)S(=O)(=O)N

$$$$
L1:Q8N1Q1:35431
     RDKit          3D

 55 57  0  0  0  0  0  0  0  0999 V2000
   38.8142   61.5402   38.5602 N   0  0  0  0  0  0  0  0  0  0  0  0
   38.0234   60.3360   38.8615 C   0  0  0  0  0  0  0  0  0  0  0  0
   37.9635   59.9806   40.3525 C   0  0  0  0  0  0  0  0  0  0  0  0
   37.9135   61.2482   41.2135 C   0  0  0  0  0  0  0  0  0  0  0  0
   39.0891   62.1939   40.9012 C   0  0  0  0  0  0  0  0  0  0  0  0
   39.8033   61.8281   39.6000 C   0  0  0  0  0  0  0  0  0  0  0  0
   37.7902   60.9489   42.6639 N   0  0  0  0  0  0  0  0  0  0  0  0
   36.7451   60.1332   43.1171 C   0  0  0  0  0  0  0  0  0  0  0  0
   35.7886   59.8173   42.4017 O   0  0  0  0  0  0  0  0  0  0  0  0
   38.6126   61.7144   43.5422 C   0  0  0  0  0  0  0  0  0  0  0  0
   39.8560   61.2240   43.9662 C   0  0  0  0  0  0  0  0  0  0  0  0
   40.6443   61.9622   44.8526 C   0  0  0  0  0  0  0  0  0  0  0  0
   40.1908   63.1916   45.3316 C   0  0  0  0  0  0  0  0  0  0  0  0
   38.9461   63.6786   44.9311 C   0  0  0  0  0  0  0  0  0  0  0  0
   38.1576   62.9404   44.0450 C   0  0  0  0  0  0  0  0  0  0  0  0
   36.8451   59.5444   44.5177 C   0  0  0  0  0  0  0  0  0  0  0  0
   38.0060   58.1998   44.5150 Cl  0  0  0  0  0  0  0  0  0  0  0  0
   39.4315   61.4871   37.2235 C   0  0  0  0  0  0  0  0  0  0  0  0
   39.7281   60.0588   36.7253 C   0  0  0  0  0  0  0  0  0  0  0  0
   43.5791   58.6714   38.0734 C   0  0  0  0  0  0  0  0  0  0  0  0
   43.5048   59.5861   37.0196 C   0  0  0  0  0  0  0  0  0  0  0  0
   42.2554   60.0189   36.5732 C   0  0  0  0  0  0  0  0  0  0  0  0
   41.0788   59.5448   37.1756 C   0  0  0  0  0  0  0  0  0  0  0  0
   41.1733   58.6331   38.2394 C   0  0  0  0  0  0  0  0  0  0  0  0
   42.4207   58.1972   38.6920 C   0  0  0  0  0  0  0  0  0  0  0  0
   44.7459   57.2787   40.0420 N   0  0  0  0  0  0  0  0  0  0  0  0
   45.1675   58.1532   38.6644 S   0  0  0  0  0  0  0  0  0  0  0  0
   45.7366   57.2319   37.7095 O   0  0  0  0  0  0  0  0  0  0  0  0
   45.8822   59.3146   39.1475 O   0  0  0  0  0  0  0  0  0  0  0  0
   43.7422   57.1087   40.1139 H   0  0  0  0  0  0  0  0  0  0  0  0
   45.1093   57.7735   40.8634 H   0  0  0  0  0  0  0  0  0  0  0  0
   38.4563   59.5101   38.3367 H   0  0  0  0  0  0  0  0  0  0  0  0
   37.0196   60.5421   38.5537 H   0  0  0  0  0  0  0  0  0  0  0  0
   38.8328   59.4138   40.6131 H   0  0  0  0  0  0  0  0  0  0  0  0
   37.0775   59.4085   40.5331 H   0  0  0  0  0  0  0  0  0  0  0  0
   37.0176   61.7692   40.9473 H   0  0  0  0  0  0  0  0  0  0  0  0
   39.7933   62.1435   41.7053 H   0  0  0  0  0  0  0  0  0  0  0  0
   38.6918   63.1810   40.7883 H   0  0  0  0  0  0  0  0  0  0  0  0
   40.4136   60.9639   39.7598 H   0  0  0  0  0  0  0  0  0  0  0  0
   40.4167   62.6478   39.2892 H   0  0  0  0  0  0  0  0  0  0  0  0
   40.1913   60.3111   43.6210 H   0  0  0  0  0  0  0  0  0  0  0  0
   41.5620   61.5981   45.1530 H   0  0  0  0  0  0  0  0  0  0  0  0
   40.7754   63.7402   45.9815 H   0  0  0  0  0  0  0  0  0  0  0  0
   38.6076   64.5851   45.2898 H   0  0  0  0  0  0  0  0  0  0  0  0
   37.2338   63.3006   43.7589 H   0  0  0  0  0  0  0  0  0  0  0  0
   35.8845   59.1853   44.8228 H   0  0  0  0  0  0  0  0  0  0  0  0
   37.1769   60.3000   45.1988 H   0  0  0  0  0  0  0  0  0  0  0  0
   38.7671   61.9549   36.5274 H   0  0  0  0  0  0  0  0  0  0  0  0
   40.3728   61.9906   37.2973 H   0  0  0  0  0  0  0  0  0  0  0  0
   38.9709   59.4025   37.1006 H   0  0  0  0  0  0  0  0  0  0  0  0
   39.7366   60.0878   35.6557 H   0  0  0  0  0  0  0  0  0  0  0  0
   44.3668   59.9387   36.5751 H   0  0  0  0  0  0  0  0  0  0  0  0
   42.1957   60.6929   35.7940 H   0  0  0  0  0  0  0  0  0  0  0  0
   40.3140   58.2822   38.6905 H   0  0  0  0  0  0  0  0  0  0  0  0
   42.4856   57.5303   39.4769 H   0  0  0  0  0  0  0  0  0  0  0  0
  1  2  1  0
  2  3  1  0
  2 32  1  0
  2 33  1  0
  3  4  1  0
  3 34  1  0
  3 35  1  0
  4  7  1  0
  4  5  1  0
  4 36  1  0
  5  6  1  0
  5 37  1  0
  5 38  1  0
  6  1  1  0
  6 39  1  0
  6 40  1  0
  7  8  1  0
  7 10  1  0
  8  9  2  0
  8 16  1  0
 10 11  2  0
 11 12  1  0
 11 41  1  0
 12 13  2  0
 12 42  1  0
 13 14  1  0
 13 43  1  0
 14 15  2  0
 14 44  1  0
 15 10  1  0
 15 45  1  0
 16 17  1  0
 16 46  1  0
 16 47  1  0
 18  1  1  0
 18 48  1  0
 18 49  1  0
 19 18  1  0
 19 50  1  0
 19 51  1  0
 20 21  2  0
 21 22  1  0
 21 52  1  0
 22 23  2  0
 22 53  1  0
 23 19  1  0
 23 24  1  0
 24 25  2  0
 24 54  1  0
 25 20  1  0
 25 55  1  0
 26 27  1  0
 26 30  1  0
 26 31  1  0
 27 28  2  0
 27 29  2  0
 27 20  1  0
M  END
>  <minimizedAffinity>  (5) 
-5.72960

>  <mol_id>  (5) 
35431

>  <source_index>  (5) 
4

>  <layer>  (5) 
L1

>  <uniprot>  (5) 
Q8N1Q1

>  <paff>  (5) 
6.1669

>  <smiles>  (5) 
NS(=O)(=O)c1ccc(CCN2CCC(N(C(=O)CCl)c3ccccc3)CC2)cc1

$$$$
L1:Q8N1Q1:35432
     RDKit          3D

 82 84  0  0  0  0  0  0  0  0999 V2000
   39.2162   60.1220   42.3003 C   0  0  0  0  0  0  0  0  0  0  0  0
   39.4398   61.2622   43.3050 C   0  0  0  0  0  0  0  0  0  0  0  0
   39.0667   60.7826   44.7092 C   0  0  0  0  0  0  0  0  0  0  0  0
   37.6880   60.2863   44.8329 N   0  0  0  0  0  0  0  0  0  0  0  0
   36.9949   60.1539   43.5443 C   0  0  0  0  0  0  0  0  0  0  0  0
   37.8317   59.4614   42.4703 C   0  0  0  0  0  0  0  0  0  0  0  0
   40.5246   59.8922   40.1911 C   0  0  0  0  0  0  0  0  0  0  0  0
   41.2987   59.0985   40.7331 O   0  0  0  0  0  0  0  0  0  0  0  0
   39.4974   60.5315   40.9005 N   0  0  0  0  0  0  0  0  0  0  0  0
   38.7376   61.6265   40.3904 C   0  0  0  0  0  0  0  0  0  0  0  0
   37.4816   61.4233   39.8076 C   0  0  0  0  0  0  0  0  0  0  0  0
   36.7502   62.4995   39.2994 C   0  0  0  0  0  0  0  0  0  0  0  0
   37.2736   63.7888   39.3576 C   0  0  0  0  0  0  0  0  0  0  0  0
   38.5320   64.0021   39.9148 C   0  0  0  0  0  0  0  0  0  0  0  0
   39.2634   62.9258   40.4233 C   0  0  0  0  0  0  0  0  0  0  0  0
   40.6271   60.1610   38.6894 C   0  0  0  0  0  0  0  0  0  0  0  0
   42.0051   59.7958   38.1263 C   0  0  0  0  0  0  0  0  0  0  0  0
   41.9786   58.5512   37.2333 C   0  0  0  0  0  0  0  0  0  0  0  0
   40.7080   58.3661   36.3976 C   0  0  0  0  0  0  0  0  0  0  0  0
   40.7521   58.9773   34.9929 C   0  0  0  0  0  0  0  0  0  0  0  0
   39.5629   59.8716   34.6212 C   0  0  0  0  0  0  0  0  0  0  0  0
   39.7769   61.3442   34.9825 C   0  0  0  0  0  0  0  0  0  0  0  0
   41.2614   61.7182   34.9581 C   0  0  0  0  0  0  0  0  0  0  0  0
   40.4620   63.0327   32.9171 C   0  0  0  0  0  0  0  0  0  0  0  0
   41.6044   62.7517   33.8833 C   0  0  0  0  0  0  0  0  0  0  0  0
   37.5892   59.0604   45.6461 C   0  0  0  0  0  0  0  0  0  0  0  0
   38.9005   58.2575   45.7633 C   0  0  0  0  0  0  0  0  0  0  0  0
   38.7574   56.8004   45.3852 C   0  0  0  0  0  0  0  0  0  0  0  0
   37.5218   56.3026   44.9423 C   0  0  0  0  0  0  0  0  0  0  0  0
   37.3830   54.9577   44.5927 C   0  0  0  0  0  0  0  0  0  0  0  0
   38.4826   54.1022   44.6988 C   0  0  0  0  0  0  0  0  0  0  0  0
   39.7195   54.5824   45.1355 C   0  0  0  0  0  0  0  0  0  0  0  0
   39.8518   55.9284   45.4826 C   0  0  0  0  0  0  0  0  0  0  0  0
   38.3256   52.4047   44.2317 S   0  0  0  0  0  0  0  0  0  0  0  0
   39.8369   51.7928   44.6294 N   0  0  0  0  0  0  0  0  0  0  0  0
   37.3896   51.7475   45.1166 O   0  0  0  0  0  0  0  0  0  0  0  0
   38.2225   52.3165   42.7928 O   0  0  0  0  0  0  0  0  0  0  0  0
   40.3208   51.4725   43.7896 H   0  0  0  0  0  0  0  0  0  0  0  0
   39.7506   51.0911   45.3627 H   0  0  0  0  0  0  0  0  0  0  0  0
   39.9373   59.3652   42.5289 H   0  0  0  0  0  0  0  0  0  0  0  0
   38.8271   62.0980   43.0387 H   0  0  0  0  0  0  0  0  0  0  0  0
   40.4686   61.5559   43.2892 H   0  0  0  0  0  0  0  0  0  0  0  0
   39.1901   61.6015   45.3868 H   0  0  0  0  0  0  0  0  0  0  0  0
   39.7105   59.9575   44.9322 H   0  0  0  0  0  0  0  0  0  0  0  0
   36.7388   61.1325   43.1954 H   0  0  0  0  0  0  0  0  0  0  0  0
   36.1319   59.5441   43.7125 H   0  0  0  0  0  0  0  0  0  0  0  0
   37.3081   59.5120   41.5385 H   0  0  0  0  0  0  0  0  0  0  0  0
   37.9848   58.4468   42.7739 H   0  0  0  0  0  0  0  0  0  0  0  0
   37.0920   60.4692   39.7527 H   0  0  0  0  0  0  0  0  0  0  0  0
   35.8209   62.3390   38.8803 H   0  0  0  0  0  0  0  0  0  0  0  0
   36.7300   64.5846   38.9885 H   0  0  0  0  0  0  0  0  0  0  0  0
   38.9245   64.9558   39.9521 H   0  0  0  0  0  0  0  0  0  0  0  0
   40.1992   63.0886   40.8268 H   0  0  0  0  0  0  0  0  0  0  0  0
   39.8839   59.5801   38.1843 H   0  0  0  0  0  0  0  0  0  0  0  0
   40.4766   61.2088   38.5332 H   0  0  0  0  0  0  0  0  0  0  0  0
   42.3670   60.6212   37.5495 H   0  0  0  0  0  0  0  0  0  0  0  0
   42.6423   59.5784   38.9579 H   0  0  0  0  0  0  0  0  0  0  0  0
   42.8094   58.6097   36.5615 H   0  0  0  0  0  0  0  0  0  0  0  0
   42.0186   57.7127   37.8968 H   0  0  0  0  0  0  0  0  0  0  0  0
   40.5297   57.3160   36.2956 H   0  0  0  0  0  0  0  0  0  0  0  0
   39.9319   58.8843   36.9211 H   0  0  0  0  0  0  0  0  0  0  0  0
   41.6426   59.5658   34.9179 H   0  0  0  0  0  0  0  0  0  0  0  0
   40.7206   58.1513   34.3134 H   0  0  0  0  0  0  0  0  0  0  0  0
   39.4014   59.8008   33.5658 H   0  0  0  0  0  0  0  0  0  0  0  0
   38.7194   59.5268   35.1820 H   0  0  0  0  0  0  0  0  0  0  0  0
   39.2529   61.9549   34.2772 H   0  0  0  0  0  0  0  0  0  0  0  0
   39.4068   61.5038   35.9737 H   0  0  0  0  0  0  0  0  0  0  0  0
   41.5267   62.1202   35.9136 H   0  0  0  0  0  0  0  0  0  0  0  0
   41.8101   60.8282   34.7304 H   0  0  0  0  0  0  0  0  0  0  0  0
   40.7740   63.7610   32.1980 H   0  0  0  0  0  0  0  0  0  0  0  0
   39.6191   63.4061   33.4603 H   0  0  0  0  0  0  0  0  0  0  0  0
   40.1899   62.1285   32.4139 H   0  0  0  0  0  0  0  0  0  0  0  0
   41.8697   63.6679   34.3682 H   0  0  0  0  0  0  0  0  0  0  0  0
   42.4094   62.3470   33.3062 H   0  0  0  0  0  0  0  0  0  0  0  0
   36.8486   58.4266   45.2049 H   0  0  0  0  0  0  0  0  0  0  0  0
   37.3377   59.3748   46.6375 H   0  0  0  0  0  0  0  0  0  0  0  0
   39.2403   58.3117   46.7765 H   0  0  0  0  0  0  0  0  0  0  0  0
   39.5955   58.6920   45.0756 H   0  0  0  0  0  0  0  0  0  0  0  0
   36.7095   56.9356   44.8745 H   0  0  0  0  0  0  0  0  0  0  0  0
   36.4751   54.5984   44.2585 H   0  0  0  0  0  0  0  0  0  0  0  0
   40.5299   53.9468   45.2011 H   0  0  0  0  0  0  0  0  0  0  0  0
   40.7621   56.2845   45.8135 H   0  0  0  0  0  0  0  0  0  0  0  0
  1  2  1  0
  1 40  1  0
  2  3  1  0
  2 41  1  0
  2 42  1  0
  3  4  1  0
  3 43  1  0
  3 44  1  0
  4 26  1  0
  4  5  1  0
  5  6  1  0
  5 45  1  0
  5 46  1  0
  6  1  1  0
  6 47  1  0
  6 48  1  0
  7  8  2  0
  7  9  1  0
  9 10  1  0
  9  1  1  0
 10 11  2  0
 11 12  1  0
 11 49  1  0
 12 13  2  0
 12 50  1  0
 13 14  1  0
 13 51  1  0
 14 15  2  0
 14 52  1  0
 15 10  1  0
 15 53  1  0
 16  7  1  0
 16 54  1  0
 16 55  1  0
 17 16  1  0
 17 56  1  0
 17 57  1  0
 18 17  1  0
 18 58  1  0
 18 59  1  0
 19 18  1  0
 19 60  1  0
 19 61  1  0
 20 19  1  0
 20 62  1  0
 20 63  1  0
 21 20  1  0
 21 64  1  0
 21 65  1  0
 22 21  1  0
 22 66  1  0
 22 67  1  0
 23 22  1  0
 23 68  1  0
 23 69  1  0
 24 25  1  0
 24 70  1  0
 24 71  1  0
 24 72  1  0
 25 23  1  0
 25 73  1  0
 25 74  1  0
 26 27  1  0
 26 75  1  0
 26 76  1  0
 27 28  1  0
 27 77  1  0
 27 78  1  0
 28 29  2  0
 29 30  1  0
 29 79  1  0
 30 31  2  0
 30 80  1  0
 31 34  1  0
 31 32  1  0
 32 33  2  0
 32 81  1  0
 33 28  1  0
 33 82  1  0
 34 35  1  0
 34 36  2  0
 34 37  2  0
 35 38  1  0
 35 39  1  0
M  END
>  <minimizedAffinity>  (6) 
-5.69921

>  <mol_id>  (6) 
35432

>  <source_index>  (6) 
5

>  <layer>  (6) 
L1

>  <uniprot>  (6) 
Q8N1Q1

>  <paff>  (6) 
6.1745999999999999

>  <smiles>  (6) 
CCCCCCCCCCC(=O)N(c1ccccc1)C1CCN(CCc2ccc(S(N)(=O)=O)cc2)CC1

$$$$
L1:Q8N1Q1:35433
     RDKit          3D

 61 63  0  0  0  0  0  0  0  0999 V2000
   39.4900   60.4826   38.0436 C   0  0  0  0  0  0  0  0  0  0  0  0
   38.2802   59.6215   38.4507 C   0  0  0  0  0  0  0  0  0  0  0  0
   37.6004   60.2466   39.6684 C   0  0  0  0  0  0  0  0  0  0  0  0
   38.4686   60.2750   40.8580 N   0  0  0  0  0  0  0  0  0  0  0  0
   39.9021   60.2077   40.5373 C   0  0  0  0  0  0  0  0  0  0  0  0
   40.2885   60.9669   39.2720 C   0  0  0  0  0  0  0  0  0  0  0  0
   40.0840   60.2683   35.6608 C   0  0  0  0  0  0  0  0  0  0  0  0
   39.1205   60.9773   35.3597 O   0  0  0  0  0  0  0  0  0  0  0  0
   40.3511   59.9049   36.9891 N   0  0  0  0  0  0  0  0  0  0  0  0
   41.6070   59.3718   37.3637 C   0  0  0  0  0  0  0  0  0  0  0  0
   41.6532   58.1583   38.0530 C   0  0  0  0  0  0  0  0  0  0  0  0
   42.8843   57.6131   38.4262 C   0  0  0  0  0  0  0  0  0  0  0  0
   44.0784   58.2725   38.1065 C   0  0  0  0  0  0  0  0  0  0  0  0
   45.4067   57.7034   38.5188 C   0  0  0  0  0  0  0  0  0  0  0  0
   44.0215   59.4926   37.4211 C   0  0  0  0  0  0  0  0  0  0  0  0
   42.7911   60.0403   37.0471 C   0  0  0  0  0  0  0  0  0  0  0  0
   40.3873   58.6194   33.7684 C   0  0  0  0  0  0  0  0  0  0  0  0
   41.0284   59.7236   34.5942 C   0  0  0  0  0  0  0  0  0  0  0  0
   38.1524   61.4112   41.7462 C   0  0  0  0  0  0  0  0  0  0  0  0
   36.9630   62.2789   41.2834 C   0  0  0  0  0  0  0  0  0  0  0  0
   37.3862   63.5974   40.6732 C   0  0  0  0  0  0  0  0  0  0  0  0
   38.7214   64.0200   40.7439 C   0  0  0  0  0  0  0  0  0  0  0  0
   39.1156   65.2257   40.1635 C   0  0  0  0  0  0  0  0  0  0  0  0
   38.1706   66.0101   39.4993 C   0  0  0  0  0  0  0  0  0  0  0  0
   36.8351   65.6138   39.4306 C   0  0  0  0  0  0  0  0  0  0  0  0
   36.4471   64.4061   40.0144 C   0  0  0  0  0  0  0  0  0  0  0  0
   38.6804   67.5284   38.7435 S   0  0  0  0  0  0  0  0  0  0  0  0
   38.2500   67.2590   37.1369 N   0  0  0  0  0  0  0  0  0  0  0  0
   37.8104   68.5894   39.2007 O   0  0  0  0  0  0  0  0  0  0  0  0
   40.1199   67.6163   38.8119 O   0  0  0  0  0  0  0  0  0  0  0  0
   37.5190   67.9255   36.8771 H   0  0  0  0  0  0  0  0  0  0  0  0
   37.9675   66.2957   36.9596 H   0  0  0  0  0  0  0  0  0  0  0  0
   39.0646   61.3442   37.5729 H   0  0  0  0  0  0  0  0  0  0  0  0
   38.6108   58.6334   38.6942 H   0  0  0  0  0  0  0  0  0  0  0  0
   37.5855   59.5736   37.6383 H   0  0  0  0  0  0  0  0  0  0  0  0
   36.7236   59.6783   39.8991 H   0  0  0  0  0  0  0  0  0  0  0  0
   37.3640   61.2600   39.4192 H   0  0  0  0  0  0  0  0  0  0  0  0
   40.1707   59.1800   40.4089 H   0  0  0  0  0  0  0  0  0  0  0  0
   40.4240   60.6703   41.3488 H   0  0  0  0  0  0  0  0  0  0  0  0
   41.3320   60.8206   39.0859 H   0  0  0  0  0  0  0  0  0  0  0  0
   40.0654   62.0021   39.4253 H   0  0  0  0  0  0  0  0  0  0  0  0
   40.7779   57.6641   38.2868 H   0  0  0  0  0  0  0  0  0  0  0  0
   42.9142   56.7190   38.9406 H   0  0  0  0  0  0  0  0  0  0  0  0
   45.2544   56.7741   39.0269 H   0  0  0  0  0  0  0  0  0  0  0  0
   45.9016   58.3906   39.1728 H   0  0  0  0  0  0  0  0  0  0  0  0
   46.0099   57.5403   37.6502 H   0  0  0  0  0  0  0  0  0  0  0  0
   44.8951   59.9913   37.1903 H   0  0  0  0  0  0  0  0  0  0  0  0
   42.7580   60.9373   36.5378 H   0  0  0  0  0  0  0  0  0  0  0  0
   41.0853   58.2704   33.0364 H   0  0  0  0  0  0  0  0  0  0  0  0
   39.5165   59.0010   33.2774 H   0  0  0  0  0  0  0  0  0  0  0  0
   40.1089   57.8098   34.4103 H   0  0  0  0  0  0  0  0  0  0  0  0
   41.3087   60.5236   33.9412 H   0  0  0  0  0  0  0  0  0  0  0  0
   41.8807   59.3093   35.0910 H   0  0  0  0  0  0  0  0  0  0  0  0
   39.0179   62.0373   41.8077 H   0  0  0  0  0  0  0  0  0  0  0  0
   37.8707   60.9894   42.6884 H   0  0  0  0  0  0  0  0  0  0  0  0
   36.3401   62.4806   42.1297 H   0  0  0  0  0  0  0  0  0  0  0  0
   36.4462   61.7296   40.5244 H   0  0  0  0  0  0  0  0  0  0  0  0
   39.4184   63.4340   41.2295 H   0  0  0  0  0  0  0  0  0  0  0  0
   40.0981   65.5355   40.2246 H   0  0  0  0  0  0  0  0  0  0  0  0
   36.1398   66.2079   38.9525 H   0  0  0  0  0  0  0  0  0  0  0  0
   35.4613   64.1056   39.9610 H   0  0  0  0  0  0  0  0  0  0  0  0
  1  2  1  0
  1 33  1  0
  2  3  1  0
  2 34  1  0
  2 35  1  0
  3  4  1  0
  3 36  1  0
  3 37  1  0
  4 19  1  0
  4  5  1  0
  5  6  1  0
  5 38  1  0
  5 39  1  0
  6  1  1  0
  6 40  1  0
  6 41  1  0
  7  8  2  0
  7  9  1  0
  9 10  1  0
  9  1  1  0
 10 11  2  0
 11 12  1  0
 11 42  1  0
 12 13  2  0
 12 43  1  0
 13 14  1  0
 13 15  1  0
 14 44  1  0
 14 45  1  0
 14 46  1  0
 15 16  2  0
 15 47  1  0
 16 10  1  0
 16 48  1  0
 17 18  1  0
 17 49  1  0
 17 50  1  0
 17 51  1  0
 18  7  1  0
 18 52  1  0
 18 53  1  0
 19 20  1  0
 19 54  1  0
 19 55  1  0
 20 21  1  0
 20 56  1  0
 20 57  1  0
 21 22  2  0
 22 23  1  0
 22 58  1  0
 23 24  2  0
 23 59  1  0
 24 27  1  0
 24 25  1  0
 25 26  2  0
 25 60  1  0
 26 21  1  0
 26 61  1  0
 27 28  1  0
 27 29  2  0
 27 30  2  0
 28 31  1  0
 28 32  1  0
M  END
>  <minimizedAffinity>  (7) 
-6.48290

>  <mol_id>  (7) 
35433

>  <source_index>  (7) 
6

>  <layer>  (7) 
L1

>  <uniprot>  (7) 
Q8N1Q1

>  <paff>  (7) 
6.1700999999999997

>  <smiles>  (7) 
CCC(=O)N(c1ccc(C)cc1)C1CCN(CCc2ccc(S(N)(=O)=O)cc2)CC1

$$$$
L1:Q8N1Q1:35468
     RDKit          3D

 51 52  0  0  0  0  0  0  0  0999 V2000
   39.8457   60.5913   37.6253 C   0  0  0  0  0  0  0  0  0  0  0  0
   40.6755   59.8849   38.5075 C   0  0  0  0  0  0  0  0  0  0  0  0
   41.6939   59.0716   38.0063 C   0  0  0  0  0  0  0  0  0  0  0  0
   41.8881   58.9229   36.6303 C   0  0  0  0  0  0  0  0  0  0  0  0
   41.0625   59.6101   35.7386 C   0  0  0  0  0  0  0  0  0  0  0  0
   40.0622   60.4703   36.2404 C   0  0  0  0  0  0  0  0  0  0  0  0
   42.7317   58.1966   39.1465 S   0  0  0  0  0  0  0  0  0  0  0  0
   42.1650   58.7428   40.6322 N   0  0  0  0  0  0  0  0  0  0  0  0
   44.0728   58.7234   39.0348 O   0  0  0  0  0  0  0  0  0  0  0  0
   42.4340   56.7908   39.0312 O   0  0  0  0  0  0  0  0  0  0  0  0
   42.9006   59.2739   41.1007 H   0  0  0  0  0  0  0  0  0  0  0  0
   41.2845   59.2533   40.5863 H   0  0  0  0  0  0  0  0  0  0  0  0
   37.6590   60.8144   38.7097 N   0  0  0  0  0  0  0  0  0  0  0  0
   38.7867   61.4458   38.2418 C   0  0  0  0  0  0  0  0  0  0  0  0
   38.9600   62.6579   38.3290 O   0  0  0  0  0  0  0  0  0  0  0  0
   37.6815   59.7994   38.7525 H   0  0  0  0  0  0  0  0  0  0  0  0
   36.7021   61.4962   39.5608 C   0  0  0  0  0  0  0  0  0  0  0  0
   37.1661   61.5855   42.1198 N   0  0  0  0  0  0  0  0  0  0  0  0
   37.1893   60.5541   43.1760 C   0  0  0  0  0  0  0  0  0  0  0  0
   37.5681   59.2469   42.4890 C   0  0  0  0  0  0  0  0  0  0  0  0
   37.2890   59.4747   41.0088 C   0  0  0  0  0  0  0  0  0  0  0  0
   36.6126   60.8428   40.9531 C   0  0  2  0  0  0  0  0  0  0  0  0
   38.5014   62.1553   41.8901 C   0  0  0  0  0  0  0  0  0  0  0  0
   38.7680   63.9184   43.6706 C   0  0  0  0  0  0  0  0  0  0  0  0
   39.0781   62.7197   43.1586 C   0  0  0  0  0  0  0  0  0  0  0  0
   41.1602   59.5245   34.3733 O   0  0  0  0  0  0  0  0  0  0  0  0
   40.4293   58.4887   33.7273 C   0  0  0  0  0  0  0  0  0  0  0  0
   39.2494   61.1392   35.3521 O   0  0  0  0  0  0  0  0  0  0  0  0
   39.8794   62.3466   34.9145 C   0  0  0  0  0  0  0  0  0  0  0  0
   40.5337   59.9660   39.5265 H   0  0  0  0  0  0  0  0  0  0  0  0
   42.6376   58.3086   36.2754 H   0  0  0  0  0  0  0  0  0  0  0  0
   37.0044   62.5162   39.6750 H   0  0  0  0  0  0  0  0  0  0  0  0
   35.7390   61.4317   39.0990 H   0  0  0  0  0  0  0  0  0  0  0  0
   36.2246   60.4677   43.6308 H   0  0  0  0  0  0  0  0  0  0  0  0
   37.8864   60.8039   43.9483 H   0  0  0  0  0  0  0  0  0  0  0  0
   36.9722   58.4407   42.8629 H   0  0  0  0  0  0  0  0  0  0  0  0
   38.5902   58.9848   42.6664 H   0  0  0  0  0  0  0  0  0  0  0  0
   36.6395   58.7158   40.6253 H   0  0  0  0  0  0  0  0  0  0  0  0
   38.1792   59.4366   40.4164 H   0  0  0  0  0  0  0  0  0  0  0  0
   35.5480   60.8100   41.0557 H   0  0  0  0  0  0  0  0  0  0  0  0
   39.1500   61.3874   41.5234 H   0  0  0  0  0  0  0  0  0  0  0  0
   38.4131   62.9477   41.1765 H   0  0  0  0  0  0  0  0  0  0  0  0
   39.2090   64.2342   44.5486 H   0  0  0  0  0  0  0  0  0  0  0  0
   38.0882   64.5258   43.1870 H   0  0  0  0  0  0  0  0  0  0  0  0
   39.7621   62.1422   43.6720 H   0  0  0  0  0  0  0  0  0  0  0  0
   40.5961   58.5394   32.6716 H   0  0  0  0  0  0  0  0  0  0  0  0
   39.3855   58.6091   33.9296 H   0  0  0  0  0  0  0  0  0  0  0  0
   40.7566   57.5386   34.0949 H   0  0  0  0  0  0  0  0  0  0  0  0
   39.2371   62.8547   34.2259 H   0  0  0  0  0  0  0  0  0  0  0  0
   40.8049   62.1113   34.4318 H   0  0  0  0  0  0  0  0  0  0  0  0
   40.0674   62.9769   35.7584 H   0  0  0  0  0  0  0  0  0  0  0  0
  1  2  2  0
  2  3  1  0
  2 30  1  0
  3  7  1  0
  3  4  2  0
  4  5  1  0
  4 31  1  0
  5 26  1  0
  5  6  2  0
  6 28  1  0
  6  1  1  0
  7  8  1  0
  7  9  2  0
  7 10  2  0
  8 11  1  0
  8 12  1  0
 13 14  1  0
 13 16  1  0
 14 15  2  0
 14  1  1  0
 17 13  1  0
 17 32  1  0
 17 33  1  0
 18 19  1  0
 19 20  1  0
 19 34  1  0
 19 35  1  0
 20 21  1  0
 20 36  1  0
 20 37  1  0
 21 22  1  0
 21 38  1  0
 21 39  1  0
 22 17  1  0
 22 18  1  0
 22 40  1  1
 23 18  1  0
 23 41  1  0
 23 42  1  0
 24 25  2  0
 24 43  1  0
 24 44  1  0
 25 23  1  0
 25 45  1  0
 26 27  1  0
 27 46  1  0
 27 47  1  0
 27 48  1  0
 28 29  1  0
 29 49  1  0
 29 50  1  0
 29 51  1  0
M  END
>  <minimizedAffinity>  (8) 
-5.45244

>  <mol_id>  (8) 
35468

>  <source_index>  (8) 
7

>  <layer>  (8) 
L1

>  <uniprot>  (8) 
Q8N1Q1

>  <paff>  (8) 
7.0362

>  <smiles>  (8) 
C=CCN1CCCC1CNC(=O)c1cc(S(N)(=O)=O)cc(OC)c1OC

$$$$
L1:Q8N1Q1:35485
     RDKit          3D

 66 69  0  0  0  0  0  0  0  0999 V2000
   38.2080   59.8355   40.1853 C   0  0  0  0  0  0  0  0  0  0  0  0
   36.8807   59.4756   39.8878 C   0  0  0  0  0  0  0  0  0  0  0  0
   35.9890   59.0731   40.8869 C   0  0  0  0  0  0  0  0  0  0  0  0
   36.4445   59.0267   42.2086 C   0  0  0  0  0  0  0  0  0  0  0  0
   37.7490   59.4208   42.5657 C   0  0  0  0  0  0  0  0  0  0  0  0
   38.6287   59.8085   41.5329 C   0  0  0  0  0  0  0  0  0  0  0  0
   39.9239   60.1845   41.8171 O   0  0  0  0  0  0  0  0  0  0  0  0
   40.1222   59.9953   42.7517 H   0  0  0  0  0  0  0  0  0  0  0  0
   41.0887   61.7712   35.2900 C   0  0  0  0  0  0  0  0  0  0  0  0
   42.1853   61.1619   35.9157 C   0  0  0  0  0  0  0  0  0  0  0  0
   42.0366   60.5268   37.1568 C   0  0  0  0  0  0  0  0  0  0  0  0
   40.7711   60.5173   37.7619 C   0  0  0  0  0  0  0  0  0  0  0  0
   40.3727   59.9692   38.9544 N   0  0  0  0  0  0  0  0  0  0  0  0
   39.0820   60.2335   39.0709 C   0  0  0  0  0  0  0  0  0  0  0  0
   38.6528   60.9472   37.9744 N   0  0  0  0  0  0  0  0  0  0  0  0
   39.7049   61.1323   37.1198 C   0  0  0  0  0  0  0  0  0  0  0  0
   39.8146   61.7676   35.8807 C   0  0  0  0  0  0  0  0  0  0  0  0
   37.7033   61.2699   37.8516 H   0  0  0  0  0  0  0  0  0  0  0  0
   40.4196   62.2534   32.9911 N   0  0  0  0  0  0  0  0  0  0  0  0
   41.2584   62.4192   33.9624 C   0  0  0  0  0  0  0  0  0  0  0  0
   42.3252   63.2354   33.7312 N   0  0  0  0  0  0  0  0  0  0  0  0
   39.6838   61.5898   33.2488 H   0  0  0  0  0  0  0  0  0  0  0  0
   42.5942   63.8254   34.5091 H   0  0  0  0  0  0  0  0  0  0  0  0
   42.1861   63.7672   32.8766 H   0  0  0  0  0  0  0  0  0  0  0  0
   38.0888   59.4612   44.0024 C   0  0  0  0  0  0  0  0  0  0  0  0
   38.5341   58.2826   44.6256 C   0  0  0  0  0  0  0  0  0  0  0  0
   38.9066   58.2759   45.9742 C   0  0  0  0  0  0  0  0  0  0  0  0
   38.8227   59.4366   46.7408 C   0  0  0  0  0  0  0  0  0  0  0  0
   38.3544   60.6082   46.1466 C   0  0  0  0  0  0  0  0  0  0  0  0
   38.0092   60.6181   44.7927 C   0  0  0  0  0  0  0  0  0  0  0  0
   37.5681   61.8085   44.2877 O   0  0  0  0  0  0  0  0  0  0  0  0
   37.7689   61.8436   43.3335 H   0  0  0  0  0  0  0  0  0  0  0  0
   39.5606   56.7784   46.6675 S   0  0  0  0  0  0  0  0  0  0  0  0
   40.2788   56.0642   45.3281 N   0  0  0  0  0  0  0  0  0  0  0  0
   40.6101   57.1378   47.5991 O   0  0  0  0  0  0  0  0  0  0  0  0
   38.4568   55.9241   47.0339 O   0  0  0  0  0  0  0  0  0  0  0  0
   40.3039   56.6587   44.4998 H   0  0  0  0  0  0  0  0  0  0  0  0
   39.8226   55.1691   45.1385 H   0  0  0  0  0  0  0  0  0  0  0  0
   34.5459   58.7635   40.5601 C   0  0  0  0  0  0  0  0  0  0  0  0
   33.6912   60.0190   40.4696 C   0  0  0  0  0  0  0  0  0  0  0  0
   32.6416   60.1551   41.0890 O   0  0  0  0  0  0  0  0  0  0  0  0
   34.1955   60.9906   39.6370 N   0  0  0  0  0  0  0  0  0  0  0  0
   34.9688   60.7642   39.0194 H   0  0  0  0  0  0  0  0  0  0  0  0
   33.4079   62.1643   39.2297 C   0  0  2  0  0  0  0  0  0  0  0  0
   32.9198   61.9485   37.7862 C   0  0  0  0  0  0  0  0  0  0  0  0
   32.1360   61.0959   37.4057 O   0  0  0  0  0  0  0  0  0  0  0  0
   33.4725   62.8237   36.9078 O   0  0  0  0  0  0  0  0  0  0  0  0
   33.1482   62.5430   36.0067 H   0  0  0  0  0  0  0  0  0  0  0  0
   34.2368   63.4394   39.3081 C   0  0  0  0  0  0  0  0  0  0  0  0
   35.6830   63.1030   39.5265 C   0  0  0  0  0  0  0  0  0  0  0  0
   36.2670   63.0372   40.5964 O   0  0  0  0  0  0  0  0  0  0  0  0
   36.3242   62.8301   38.3756 O   0  0  0  0  0  0  0  0  0  0  0  0
   37.2450   62.6442   38.6553 H   0  0  0  0  0  0  0  0  0  0  0  0
   36.5574   59.5095   38.9083 H   0  0  0  0  0  0  0  0  0  0  0  0
   35.8042   58.6930   42.9460 H   0  0  0  0  0  0  0  0  0  0  0  0
   43.1104   61.1810   35.4587 H   0  0  0  0  0  0  0  0  0  0  0  0
   42.8427   60.0750   37.6163 H   0  0  0  0  0  0  0  0  0  0  0  0
   39.0025   62.2108   35.4235 H   0  0  0  0  0  0  0  0  0  0  0  0
   38.5871   57.4084   44.0798 H   0  0  0  0  0  0  0  0  0  0  0  0
   39.1031   59.4293   47.7340 H   0  0  0  0  0  0  0  0  0  0  0  0
   38.2627   61.4694   46.7079 H   0  0  0  0  0  0  0  0  0  0  0  0
   34.1479   58.1310   41.3259 H   0  0  0  0  0  0  0  0  0  0  0  0
   34.5230   58.2828   39.6044 H   0  0  0  0  0  0  0  0  0  0  0  0
   32.5765   62.2742   39.8943 H   0  0  0  0  0  0  0  0  0  0  0  0
   33.8865   64.0396   40.1217 H   0  0  0  0  0  0  0  0  0  0  0  0
   34.1379   63.9780   38.3888 H   0  0  0  0  0  0  0  0  0  0  0  0
  1  2  2  0
  2  3  1  0
  2 54  1  0
  3 39  1  0
  3  4  2  0
  4  5  1  0
  4 55  1  0
  5 25  1  0
  5  6  2  0
  6  7  1  0
  6  1  1  0
  7  8  1  0
  9 10  2  0
 10 11  1  0
 10 56  1  0
 11 12  2  0
 11 57  1  0
 12 13  1  0
 13 14  2  0
 14  1  1  0
 14 15  1  0
 15 16  1  0
 15 18  1  0
 16 17  2  0
 16 12  1  0
 17  9  1  0
 17 58  1  0
 19 20  2  0
 19 22  1  0
 20 21  1  0
 20  9  1  0
 21 23  1  0
 21 24  1  0
 25 26  2  0
 26 27  1  0
 26 59  1  0
 27 33  1  0
 27 28  2  0
 28 29  1  0
 28 60  1  0
 29 30  2  0
 29 61  1  0
 30 31  1  0
 30 25  1  0
 31 32  1  0
 33 34  1  0
 33 35  2  0
 33 36  2  0
 34 37  1  0
 34 38  1  0
 39 40  1  0
 39 62  1  0
 39 63  1  0
 40 41  2  0
 40 42  1  0
 42 44  1  0
 42 43  1  0
 44 49  1  0
 44 45  1  0
 44 64  1  1
 45 46  2  0
 45 47  1  0
 47 48  1  0
 49 50  1  0
 49 65  1  0
 49 66  1  0
 50 51  2  0
 50 52  1  0
 52 53  1  0
M  END
>  <minimizedAffinity>  (9) 
-6.61274

>  <mol_id>  (9) 
35485

>  <source_index>  (9) 
8

>  <layer>  (9) 
L1

>  <uniprot>  (9) 
Q8N1Q1

>  <paff>  (9) 
6.3410000000000002

>  <smiles>  (9) 
N=C(N)c1ccc2nc(-c3cc(CC(=O)N[C@@H](CC(=O)O)C(=O)O)cc(-c4cc(S(N)(=O)=O)ccc4O)c3O)[nH]c2c1

$$$$
L1:Q8N1Q1:85942
     RDKit          3D

 91 93  0  0  0  0  0  0  0  0999 V2000
   39.3811   60.2491   40.3374 C   0  0  0  0  0  0  0  0  0  0  0  0
   40.5395   59.9435   40.6325 O   0  0  0  0  0  0  0  0  0  0  0  0
   38.4152   60.6203   41.2927 N   0  0  0  0  0  0  0  0  0  0  0  0
   37.0372   61.1276   41.0054 C   0  0  0  0  0  0  0  0  0  0  0  0
   36.4427   62.0830   42.0432 C   0  0  0  0  0  0  0  0  0  0  0  0
   35.1395   62.6915   41.5021 C   0  0  0  0  0  0  0  0  0  0  0  0
   34.2466   61.7400   40.8091 N   0  0  0  0  0  0  0  0  0  0  0  0
   34.6232   60.3431   41.0478 C   0  0  0  0  0  0  0  0  0  0  0  0
   36.0521   60.0093   40.6134 C   0  0  0  0  0  0  0  0  0  0  0  0
   34.0877   62.1024   39.3876 C   0  0  0  0  0  0  0  0  0  0  0  0
   33.6885   63.5668   39.1341 C   0  0  0  0  0  0  0  0  0  0  0  0
   34.6945   64.2602   38.2430 C   0  0  0  0  0  0  0  0  0  0  0  0
   36.0478   63.8911   38.2809 C   0  0  0  0  0  0  0  0  0  0  0  0
   36.9816   64.5436   37.4743 C   0  0  0  0  0  0  0  0  0  0  0  0
   36.5599   65.5766   36.6343 C   0  0  0  0  0  0  0  0  0  0  0  0
   35.2146   65.9504   36.5790 C   0  0  0  0  0  0  0  0  0  0  0  0
   34.2863   65.2952   37.3885 C   0  0  0  0  0  0  0  0  0  0  0  0
   37.7331   66.4108   35.5999 S   0  0  0  0  0  0  0  0  0  0  0  0
   36.7193   67.3417   34.6268 N   0  0  0  0  0  0  0  0  0  0  0  0
   38.4710   67.3552   36.4072 O   0  0  0  0  0  0  0  0  0  0  0  0
   38.3796   65.4312   34.7599 O   0  0  0  0  0  0  0  0  0  0  0  0
   35.7337   67.1080   34.7366 H   0  0  0  0  0  0  0  0  0  0  0  0
   36.9026   68.3296   34.8127 H   0  0  0  0  0  0  0  0  0  0  0  0
   38.8154   60.7156   42.6789 C   0  0  0  0  0  0  0  0  0  0  0  0
   39.5259   61.8240   43.1618 C   0  0  0  0  0  0  0  0  0  0  0  0
   39.8742   61.9209   44.5130 C   0  0  0  0  0  0  0  0  0  0  0  0
   39.5215   60.9086   45.4017 C   0  0  0  0  0  0  0  0  0  0  0  0
   38.8257   59.7951   44.9391 C   0  0  0  0  0  0  0  0  0  0  0  0
   38.4730   59.7030   43.5892 C   0  0  0  0  0  0  0  0  0  0  0  0
   38.9411   60.1271   38.8812 C   0  0  0  0  0  0  0  0  0  0  0  0
   39.3475   61.3208   38.0039 C   0  0  0  0  0  0  0  0  0  0  0  0
   39.0057   61.0998   36.5243 C   0  0  0  0  0  0  0  0  0  0  0  0
   39.6105   62.1597   35.5964 C   0  0  0  0  0  0  0  0  0  0  0  0
   40.5951   61.6270   34.5479 C   0  0  0  0  0  0  0  0  0  0  0  0
   42.0770   61.7598   34.9281 C   0  0  0  0  0  0  0  0  0  0  0  0
   42.6189   60.5832   35.7402 C   0  0  0  0  0  0  0  0  0  0  0  0
   41.8503   59.2753   35.5178 C   0  0  0  0  0  0  0  0  0  0  0  0
   41.5759   58.4994   36.8089 C   0  0  0  0  0  0  0  0  0  0  0  0
   42.4826   58.9209   37.9703 C   0  0  0  0  0  0  0  0  0  0  0  0
   43.1348   57.7772   38.7530 C   0  0  0  0  0  0  0  0  0  0  0  0
   45.4771   58.7354   39.0794 C   0  0  0  0  0  0  0  0  0  0  0  0
   44.6376   57.5942   38.5264 C   0  0  0  0  0  0  0  0  0  0  0  0
   37.1865   61.7443   40.1438 H   0  0  0  0  0  0  0  0  0  0  0  0
   37.1426   62.8661   42.2476 H   0  0  0  0  0  0  0  0  0  0  0  0
   36.2342   61.5428   42.9430 H   0  0  0  0  0  0  0  0  0  0  0  0
   35.3970   63.4677   40.8121 H   0  0  0  0  0  0  0  0  0  0  0  0
   34.5973   63.0436   42.3547 H   0  0  0  0  0  0  0  0  0  0  0  0
   33.9492   59.7139   40.5049 H   0  0  0  0  0  0  0  0  0  0  0  0
   34.5712   60.1809   42.1042 H   0  0  0  0  0  0  0  0  0  0  0  0
   36.0724   59.8848   39.5509 H   0  0  0  0  0  0  0  0  0  0  0  0
   36.3518   59.1091   41.1082 H   0  0  0  0  0  0  0  0  0  0  0  0
   33.3310   61.4738   38.9667 H   0  0  0  0  0  0  0  0  0  0  0  0
   35.0479   61.9699   38.9345 H   0  0  0  0  0  0  0  0  0  0  0  0
   33.6378   64.0821   40.0705 H   0  0  0  0  0  0  0  0  0  0  0  0
   32.7368   63.5793   38.6453 H   0  0  0  0  0  0  0  0  0  0  0  0
   36.3547   63.1322   38.9093 H   0  0  0  0  0  0  0  0  0  0  0  0
   37.9750   64.2651   37.4984 H   0  0  0  0  0  0  0  0  0  0  0  0
   34.9102   66.7051   35.9444 H   0  0  0  0  0  0  0  0  0  0  0  0
   33.2930   65.5737   37.3585 H   0  0  0  0  0  0  0  0  0  0  0  0
   39.7955   62.5785   42.5114 H   0  0  0  0  0  0  0  0  0  0  0  0
   40.3942   62.7452   44.8523 H   0  0  0  0  0  0  0  0  0  0  0  0
   39.7749   60.9835   46.3993 H   0  0  0  0  0  0  0  0  0  0  0  0
   38.5703   59.0380   45.5922 H   0  0  0  0  0  0  0  0  0  0  0  0
   37.9521   58.8766   43.2563 H   0  0  0  0  0  0  0  0  0  0  0  0
   39.3803   59.2423   38.4700 H   0  0  0  0  0  0  0  0  0  0  0  0
   37.8716   60.0937   38.8826 H   0  0  0  0  0  0  0  0  0  0  0  0
   38.8325   62.1928   38.3494 H   0  0  0  0  0  0  0  0  0  0  0  0
   40.4084   61.4371   38.0808 H   0  0  0  0  0  0  0  0  0  0  0  0
   39.3759   60.1400   36.2301 H   0  0  0  0  0  0  0  0  0  0  0  0
   37.9419   61.1679   36.4316 H   0  0  0  0  0  0  0  0  0  0  0  0
   38.8080   62.6442   35.0804 H   0  0  0  0  0  0  0  0  0  0  0  0
   40.1742   62.8169   36.2251 H   0  0  0  0  0  0  0  0  0  0  0  0
   40.3839   60.5900   34.3898 H   0  0  0  0  0  0  0  0  0  0  0  0
   40.4546   62.2255   33.6721 H   0  0  0  0  0  0  0  0  0  0  0  0
   42.6495   61.8391   34.0276 H   0  0  0  0  0  0  0  0  0  0  0  0
   42.1608   62.6281   35.5477 H   0  0  0  0  0  0  0  0  0  0  0  0
   43.6409   60.4254   35.4656 H   0  0  0  0  0  0  0  0  0  0  0  0
   42.5088   60.8390   36.7733 H   0  0  0  0  0  0  0  0  0  0  0  0
   40.9130   59.5077   35.0570 H   0  0  0  0  0  0  0  0  0  0  0  0
   42.4631   58.6518   34.9009 H   0  0  0  0  0  0  0  0  0  0  0  0
   40.5581   58.6641   37.0949 H   0  0  0  0  0  0  0  0  0  0  0  0
   41.7749   57.4674   36.6083 H   0  0  0  0  0  0  0  0  0  0  0  0
   43.2638   59.5338   37.5717 H   0  0  0  0  0  0  0  0  0  0  0  0
   41.8474   59.4262   38.6675 H   0  0  0  0  0  0  0  0  0  0  0  0
   42.9789   57.9607   39.7955 H   0  0  0  0  0  0  0  0  0  0  0  0
   42.6735   56.8792   38.3985 H   0  0  0  0  0  0  0  0  0  0  0  0
   46.5119   58.5428   38.8870 H   0  0  0  0  0  0  0  0  0  0  0  0
   45.3194   58.8153   40.1347 H   0  0  0  0  0  0  0  0  0  0  0  0
   45.1906   59.6510   38.6056 H   0  0  0  0  0  0  0  0  0  0  0  0
   44.9440   56.6864   39.0028 H   0  0  0  0  0  0  0  0  0  0  0  0
   44.7961   57.5704   37.4685 H   0  0  0  0  0  0  0  0  0  0  0  0
  1  2  2  0
  1  3  1  0
  3 24  1  0
  3  4  1  0
  4  5  1  0
  4 43  1  0
  5  6  1  0
  5 44  1  0
  5 45  1  0
  6  7  1  0
  6 46  1  0
  6 47  1  0
  7 10  1  0
  7  8  1  0
  8  9  1  0
  8 48  1  0
  8 49  1  0
  9  4  1  0
  9 50  1  0
  9 51  1  0
 10 11  1  0
 10 52  1  0
 10 53  1  0
 11 12  1  0
 11 54  1  0
 11 55  1  0
 12 13  2  0
 13 14  1  0
 13 56  1  0
 14 15  2  0
 14 57  1  0
 15 18  1  0
 15 16  1  0
 16 17  2  0
 16 58  1  0
 17 12  1  0
 17 59  1  0
 18 19  1  0
 18 20  2  0
 18 21  2  0
 19 22  1  0
 19 23  1  0
 24 25  2  0
 25 26  1  0
 25 60  1  0
 26 27  2  0
 26 61  1  0
 27 28  1  0
 27 62  1  0
 28 29  2  0
 28 63  1  0
 29 24  1  0
 29 64  1  0
 30  1  1  0
 30 65  1  0
 30 66  1  0
 31 30  1  0
 31 67  1  0
 31 68  1  0
 32 31  1  0
 32 69  1  0
 32 70  1  0
 33 32  1  0
 33 71  1  0
 33 72  1  0
 34 33  1  0
 34 73  1  0
 34 74  1  0
 35 34  1  0
 35 75  1  0
 35 76  1  0
 36 35  1  0
 36 77  1  0
 36 78  1  0
 37 36  1  0
 37 79  1  0
 37 80  1  0
 38 37  1  0
 38 81  1  0
 38 82  1  0
 39 38  1  0
 39 83  1  0
 39 84  1  0
 40 39  1  0
 40 85  1  0
 40 86  1  0
 41 42  1  0
 41 87  1  0
 41 88  1  0
 41 89  1  0
 42 40  1  0
 42 90  1  0
 42 91  1  0
M  END
>  <minimizedAffinity>  (10) 
-5.49933

>  <mol_id>  (10) 
85942

>  <source_index>  (10) 
9

>  <layer>  (10) 
L1

>  <uniprot>  (10) 
Q8N1Q1

>  <paff>  (10) 
7.0132000000000003

>  <smiles>  (10) 
CCCCCCCCCCCCCC(=O)N(c1ccccc1)C1CCN(CCc2ccc(S(N)(=O)=O)cc2)CC1

$$$$
