L4:P42226:115838
     RDKit          3D

 87 92  0  0  0  0  0  0  0  0999 V2000
   -0.8915    2.8441    2.7521 C   0  0  0  0  0  0  0  0  0  0  0  0
    0.4113    2.8132    1.9286 C   0  0  0  0  0  0  0  0  0  0  0  0
    1.4871    3.5893    2.7203 C   0  0  0  0  0  0  0  0  0  0  0  0
    0.1642    3.5548    0.6012 C   0  0  0  0  0  0  0  0  0  0  0  0
    0.8832    1.3379    1.7360 C   0  0  2  0  0  0  0  0  0  0  0  0
    2.1380    1.2418    0.9938 N   0  0  0  0  0  0  0  0  0  0  0  0
    3.1323    0.3510    1.3294 C   0  0  0  0  0  0  0  0  0  0  0  0
    3.0565   -0.3391    2.3441 O   0  0  0  0  0  0  0  0  0  0  0  0
    4.2584    0.2747    0.4091 C   0  0  0  0  0  0  0  0  0  0  0  0
    5.3647   -0.5424    0.5323 C   0  0  0  0  0  0  0  0  0  0  0  0
    6.3086   -0.3934   -0.5363 C   0  0  0  0  0  0  0  0  0  0  0  0
    7.5470   -1.0402   -0.7685 C   0  0  0  0  0  0  0  0  0  0  0  0
    8.3196   -0.7352   -1.9024 C   0  0  0  0  0  0  0  0  0  0  0  0
    9.6411   -1.4114   -2.1298 C   0  0  0  0  0  0  0  0  0  0  0  0
    9.8083   -2.5829   -1.4426 F   0  0  0  0  0  0  0  0  0  0  0  0
    9.8884   -1.7228   -3.4344 F   0  0  0  0  0  0  0  0  0  0  0  0
   11.1604   -0.5413   -1.6721 P   0  0  0  0  0  5  0  0  0  0  0  0
   11.4908    0.7326   -2.3875 O   0  0  0  0  0  0  0  0  0  0  0  0
   11.1307   -0.3212   -0.0739 O   0  0  0  0  0  0  0  0  0  0  0  0
   12.3577   -1.6252   -1.7414 O   0  0  0  0  0  0  0  0  0  0  0  0
    7.8572    0.2263   -2.8024 C   0  0  0  0  0  0  0  0  0  0  0  0
    6.6390    0.8803   -2.5969 C   0  0  0  0  0  0  0  0  0  0  0  0
    5.8759    0.5588   -1.4592 C   0  0  0  0  0  0  0  0  0  0  0  0
    4.3584    1.2294   -1.0037 S   0  0  0  0  0  0  0  0  0  0  0  0
   -0.1230    0.4613    0.9504 C   0  0  0  0  0  0  0  0  0  0  0  0
   -0.2766    0.6102   -0.2674 O   0  0  0  0  0  0  0  0  0  0  0  0
   -0.8291   -0.4960    1.6342 N   0  0  0  0  0  0  0  0  0  0  0  0
   -0.6099   -0.9490    3.0066 C   0  0  0  0  0  0  0  0  0  0  0  0
   -1.4436   -2.1851    3.1081 C   0  0  0  0  0  0  0  0  0  0  0  0
   -1.5545   -3.0654    4.1709 C   0  0  0  0  0  0  0  0  0  0  0  0
   -2.4050   -4.1643    4.0324 C   0  0  0  0  0  0  0  0  0  0  0  0
   -3.1278   -4.3665    2.8456 C   0  0  0  0  0  0  0  0  0  0  0  0
   -3.0115   -3.4726    1.7789 C   0  0  0  0  0  0  0  0  0  0  0  0
   -2.1653   -2.3842    1.9242 C   0  0  0  0  0  0  0  0  0  0  0  0
   -1.8661   -1.2794    0.9433 C   0  0  1  0  0  0  0  0  0  0  0  0
   -3.1185   -0.3893    0.7057 C   0  0  0  0  0  0  0  0  0  0  0  0
   -3.5455    0.3518    1.5993 O   0  0  0  0  0  0  0  0  0  0  0  0
   -3.7634   -0.4811   -0.5289 N   0  0  0  0  0  0  0  0  0  0  0  0
   -3.2355   -1.2355   -1.6625 C   0  0  0  0  0  0  0  0  0  0  0  0
   -4.1125   -1.1467   -2.9083 C   0  0  0  0  0  0  0  0  0  0  0  0
   -5.5752   -1.4132   -2.5633 C   0  0  0  0  0  0  0  0  0  0  0  0
   -6.0861   -0.5132   -1.4139 C   0  0  2  0  0  0  0  0  0  0  0  0
   -7.2419    0.3752   -1.8433 C   0  0  0  0  0  0  0  0  0  0  0  0
   -8.4646    0.3113   -1.1583 C   0  0  0  0  0  0  0  0  0  0  0  0
   -9.5341    1.1271   -1.5326 C   0  0  0  0  0  0  0  0  0  0  0  0
   -9.3950    2.0184   -2.5938 C   0  0  0  0  0  0  0  0  0  0  0  0
   -8.1861    2.0960   -3.2810 C   0  0  0  0  0  0  0  0  0  0  0  0
   -7.1154    1.2813   -2.9081 C   0  0  0  0  0  0  0  0  0  0  0  0
   -4.9623    0.3225   -0.7690 C   0  0  0  0  0  0  0  0  0  0  0  0
   -1.2029    3.8741    2.9610 H   0  0  0  0  0  0  0  0  0  0  0  0
   -0.7639    2.3375    3.7150 H   0  0  0  0  0  0  0  0  0  0  0  0
   -1.7155    2.3585    2.2203 H   0  0  0  0  0  0  0  0  0  0  0  0
    1.1580    4.6118    2.9385 H   0  0  0  0  0  0  0  0  0  0  0  0
    2.4260    3.6618    2.1605 H   0  0  0  0  0  0  0  0  0  0  0  0
    1.7030    3.1005    3.6771 H   0  0  0  0  0  0  0  0  0  0  0  0
   -0.6535    3.1053    0.0295 H   0  0  0  0  0  0  0  0  0  0  0  0
   -0.1146    4.5993    0.7852 H   0  0  0  0  0  0  0  0  0  0  0  0
    1.0570    3.5674   -0.0319 H   0  0  0  0  0  0  0  0  0  0  0  0
    1.0502    0.9108    2.7281 H   0  0  0  0  0  0  0  0  0  0  0  0
    2.1826    1.6731    0.0781 H   0  0  0  0  0  0  0  0  0  0  0  0
    5.4918   -1.2263    1.3645 H   0  0  0  0  0  0  0  0  0  0  0  0
    7.8966   -1.7824   -0.0519 H   0  0  0  0  0  0  0  0  0  0  0  0
   11.8852    0.2350    0.2033 H   0  0  0  0  0  0  0  0  0  0  0  0
   12.0424   -2.5490   -1.6676 H   0  0  0  0  0  0  0  0  0  0  0  0
    8.4455    0.4830   -3.6843 H   0  0  0  0  0  0  0  0  0  0  0  0
    6.2900    1.6267   -3.3058 H   0  0  0  0  0  0  0  0  0  0  0  0
    0.4501   -1.1704    3.1569 H   0  0  0  0  0  0  0  0  0  0  0  0
   -0.9508   -0.1732    3.6975 H   0  0  0  0  0  0  0  0  0  0  0  0
   -0.9975   -2.9111    5.0897 H   0  0  0  0  0  0  0  0  0  0  0  0
   -2.5114   -4.8706    4.8525 H   0  0  0  0  0  0  0  0  0  0  0  0
   -3.7876   -5.2268    2.7603 H   0  0  0  0  0  0  0  0  0  0  0  0
   -3.5787   -3.6305    0.8674 H   0  0  0  0  0  0  0  0  0  0  0  0
   -1.4309   -1.6832    0.0277 H   0  0  0  0  0  0  0  0  0  0  0  0
   -2.2313   -0.8622   -1.8910 H   0  0  0  0  0  0  0  0  0  0  0  0
   -3.1412   -2.2818   -1.3509 H   0  0  0  0  0  0  0  0  0  0  0  0
   -3.7647   -1.8661   -3.6579 H   0  0  0  0  0  0  0  0  0  0  0  0
   -4.0191   -0.1511   -3.3592 H   0  0  0  0  0  0  0  0  0  0  0  0
   -5.6662   -2.4613   -2.2466 H   0  0  0  0  0  0  0  0  0  0  0  0
   -6.1899   -1.3250   -3.4667 H   0  0  0  0  0  0  0  0  0  0  0  0
   -6.4582   -1.1990   -0.6388 H   0  0  0  0  0  0  0  0  0  0  0  0
   -8.5945   -0.3735   -0.3229 H   0  0  0  0  0  0  0  0  0  0  0  0
  -10.4756    1.0681   -0.9928 H   0  0  0  0  0  0  0  0  0  0  0  0
  -10.2276    2.6539   -2.8833 H   0  0  0  0  0  0  0  0  0  0  0  0
   -8.0754    2.7932   -4.1074 H   0  0  0  0  0  0  0  0  0  0  0  0
   -6.1805    1.3619   -3.4580 H   0  0  0  0  0  0  0  0  0  0  0  0
   -5.3295    0.7708    0.1612 H   0  0  0  0  0  0  0  0  0  0  0  0
   -4.6562    1.1582   -1.4110 H   0  0  0  0  0  0  0  0  0  0  0  0
  1  2  1  0
  2  3  1  0
  2  4  1  0
  2  5  1  0
  5  6  1  0
  6  7  1  0
  7  8  2  0
  7  9  1  0
  9 10  2  0
 10 11  1  0
 11 12  2  0
 12 13  1  0
 13 14  1  0
 14 15  1  0
 14 16  1  0
 14 17  1  0
 17 18  2  0
 17 19  1  0
 17 20  1  0
 13 21  2  0
 21 22  1  0
 22 23  2  0
 23 24  1  0
  5 25  1  0
 25 26  2  0
 25 27  1  0
 27 28  1  0
 28 29  1  0
 29 30  2  0
 30 31  1  0
 31 32  2  0
 32 33  1  0
 33 34  2  0
 34 35  1  0
 35 36  1  0
 36 37  2  0
 36 38  1  0
 38 39  1  0
 39 40  1  0
 40 41  1  0
 41 42  1  0
 42 43  1  0
 43 44  2  0
 44 45  1  0
 45 46  2  0
 46 47  1  0
 47 48  2  0
 42 49  1  0
 24  9  1  0
 35 27  1  0
 49 38  1  0
 23 11  1  0
 34 29  1  0
 48 43  1  0
  1 50  1  0
  1 51  1  0
  1 52  1  0
  3 53  1  0
  3 54  1  0
  3 55  1  0
  4 56  1  0
  4 57  1  0
  4 58  1  0
  5 59  1  1
  6 60  1  0
 10 61  1  0
 12 62  1  0
 19 63  1  0
 20 64  1  0
 21 65  1  0
 22 66  1  0
 28 67  1  0
 28 68  1  0
 30 69  1  0
 31 70  1  0
 32 71  1  0
 33 72  1  0
 35 73  1  6
 39 74  1  0
 39 75  1  0
 40 76  1  0
 40 77  1  0
 41 78  1  0
 41 79  1  0
 42 80  1  1
 44 81  1  0
 45 82  1  0
 46 83  1  0
 47 84  1  0
 48 85  1  0
 49 86  1  0
 49 87  1  0
M  END
>  <mol_id>  (1) 
115838

>  <source_index>  (1) 
6

>  <layer>  (1) 
L4

>  <uniprot>  (1) 
P42226

>  <paff>  (1) 
7.3768000000000002

>  <smiles>  (1) 
CC(C)(C)[C@H](NC(=O)c1cc2cc(C(F)(F)P(=O)(O)O)ccc2s1)C(=O)N1Cc2ccccc2[C@H]1C(=O)N1CCC[C@H](c2ccccc2)C1

$$$$
