L4:P42226:115838


 52 57  0  0  0  0  0  0  0  0999 V2000
    4.2445  -48.1528  -28.1963 C   0  0  0  0  0  0  0  0  0  0  0  0
    3.3969  -47.3670  -29.2268 C   0  0  0  0  0  0  0  0  0  0  0  0
    2.1620  -47.3697  -29.1648 O   0  0  0  0  0  0  0  0  0  0  0  0
    4.0483  -46.6541  -30.2015 N   0  0  0  0  0  0  0  0  0  0  0  0
    5.4789  -46.3650  -30.2829 C   0  0  0  0  0  0  0  0  0  0  0  0
    5.5685  -45.3220  -31.3494 C   0  0  0  0  0  0  0  0  0  0  0  0
    6.6854  -44.6318  -31.7886 C   0  0  0  0  0  0  0  0  0  0  0  0
    6.5222  -43.6919  -32.8086 C   0  0  0  0  0  0  0  0  0  0  0  0
    5.2575  -43.4574  -33.3719 C   0  0  0  0  0  0  0  0  0  0  0  0
    4.1363  -44.1593  -32.9241 C   0  0  0  0  0  0  0  0  0  0  0  0
    4.3065  -45.0906  -31.9114 C   0  0  0  0  0  0  0  0  0  0  0  0
    3.2779  -45.9777  -31.2577 C   0  0  0  0  0  0  0  0  0  0  0  0
    2.7324  -47.0332  -32.2606 C   0  0  0  0  0  0  0  0  0  0  0  0
    3.4022  -48.0308  -32.5543 O   0  0  0  0  0  0  0  0  0  0  0  0
    1.4856  -46.8006  -32.8435 N   0  0  0  0  0  0  0  0  0  0  0  0
    0.5955  -45.7146  -32.4421 C   0  0  0  0  0  0  0  0  0  0  0  0
   -0.7238  -45.6999  -33.2090 C   0  0  0  0  0  0  0  0  0  0  0  0
   -0.4812  -45.8322  -34.7101 C   0  0  0  0  0  0  0  0  0  0  0  0
    0.3953  -47.0567  -35.0627 C   0  0  0  0  0  0  0  0  0  0  0  0
    0.9613  -47.7620  -33.8139 C   0  0  0  0  0  0  0  0  0  0  0  0
   -0.3265  -48.0466  -35.9620 C   0  0  0  0  0  0  0  0  0  0  0  0
   -0.5934  -49.3443  -35.5005 C   0  0  0  0  0  0  0  0  0  0  0  0
   -1.2642  -50.2639  -36.3092 C   0  0  0  0  0  0  0  0  0  0  0  0
   -1.6789  -49.8981  -37.5875 C   0  0  0  0  0  0  0  0  0  0  0  0
   -1.4246  -48.6122  -38.0581 C   0  0  0  0  0  0  0  0  0  0  0  0
   -0.7542  -47.6912  -37.2510 C   0  0  0  0  0  0  0  0  0  0  0  0
    4.3809  -50.0558  -29.8728 C   0  0  0  0  0  0  0  0  0  0  0  0
    4.1836  -49.7009  -28.3857 C   0  0  0  0  0  0  0  0  0  0  0  0
    5.3351  -50.3538  -27.5892 C   0  0  0  0  0  0  0  0  0  0  0  0
    2.8575  -50.3238  -27.9098 C   0  0  0  0  0  0  0  0  0  0  0  0
    3.7516  -47.7270  -26.8885 N   0  0  0  0  0  0  0  0  0  0  0  0
    4.3328  -46.7044  -26.1734 C   0  0  0  0  0  0  0  0  0  0  0  0
    5.3699  -46.1660  -26.5557 O   0  0  0  0  0  0  0  0  0  0  0  0
    2.8270  -48.0311  -26.6072 H   0  0  0  0  0  0  0  0  0  0  0  0
    3.6404  -46.3022  -24.9570 C   0  0  0  0  0  0  0  0  0  0  0  0
    2.5838  -46.9598  -24.3587 C   0  0  0  0  0  0  0  0  0  0  0  0
    2.1124  -46.3197  -23.1658 C   0  0  0  0  0  0  0  0  0  0  0  0
    1.0652  -46.6761  -22.2813 C   0  0  0  0  0  0  0  0  0  0  0  0
    0.7744  -45.8905  -21.1527 C   0  0  0  0  0  0  0  0  0  0  0  0
    1.5267  -44.7396  -20.9124 C   0  0  0  0  0  0  0  0  0  0  0  0
    2.5652  -44.3644  -21.7696 C   0  0  0  0  0  0  0  0  0  0  0  0
    2.8461  -45.1655  -22.8919 C   0  0  0  0  0  0  0  0  0  0  0  0
    4.0666  -44.9025  -24.0756 S   0  0  0  0  0  0  0  0  0  0  0  0
   -0.3510  -46.2651  -20.2315 C   0  0  0  0  0  0  0  0  0  0  0  0
   -1.5404  -45.6450  -20.5023 F   0  0  0  0  0  0  0  0  0  0  0  0
   -0.6370  -47.5986  -20.2179 F   0  0  0  0  0  0  0  0  0  0  0  0
   -0.1904  -45.9122  -18.4639 P   0  0  0  0  0  0  0  0  0  0  0  0
   -0.9577  -46.7627  -17.4986 O   0  0  0  0  0  0  0  0  0  0  0  0
    1.3842  -45.9066  -18.1114 O   0  0  0  0  0  0  0  0  0  0  0  0
   -0.4828  -44.3337  -18.2748 O   0  0  0  0  0  0  0  0  0  0  0  0
    1.5127  -45.8201  -17.1463 H   0  0  0  0  0  0  0  0  0  0  0  0
   -0.3491  -43.8186  -19.0964 H   0  0  0  0  0  0  0  0  0  0  0  0
 27 28  1  0  0  0
 28 29  1  0  0  0
 28 30  1  0  0  0
 28  1  1  0  0  0
  1 31  1  0  0  0
 31 32  1  0  0  0
 32 33  2  0  0  0
 32 35  1  0  0  0
 35 36  2  0  0  0
 36 37  1  0  0  0
 37 38  2  0  0  0
 38 39  1  0  0  0
 39 44  1  0  0  0
 44 45  1  0  0  0
 44 46  1  0  0  0
 44 47  1  0  0  0
 47 48  2  0  0  0
 47 49  1  0  0  0
 47 50  1  0  0  0
 39 40  2  0  0  0
 40 41  1  0  0  0
 41 42  2  0  0  0
 42 43  1  0  0  0
  1  2  1  0  0  0
  2  3  2  0  0  0
  2  4  1  0  0  0
  4  5  1  0  0  0
  5  6  1  0  0  0
  6  7  2  0  0  0
  7  8  1  0  0  0
  8  9  2  0  0  0
  9 10  1  0  0  0
 10 11  2  0  0  0
 11 12  1  0  0  0
 12 13  1  0  0  0
 13 14  2  0  0  0
 13 15  1  0  0  0
 15 16  1  0  0  0
 16 17  1  0  0  0
 17 18  1  0  0  0
 18 19  1  0  0  0
 19 21  1  0  0  0
 21 22  2  0  0  0
 22 23  1  0  0  0
 23 24  2  0  0  0
 24 25  1  0  0  0
 25 26  2  0  0  0
 19 20  1  0  0  0
 43 35  1  0  0  0
 12  4  1  0  0  0
 20 15  1  0  0  0
 42 37  1  0  0  0
 11  6  1  0  0  0
 26 21  1  0  0  0
 31 34  1  0  0  0
 49 51  1  0  0  0
 50 52  1  0  0  0
M  END
> <minimizedAffinity>
-8.31022

$$$$
