L4:P42226:11604
     RDKit          3D

 90 95  0  0  0  0  0  0  0  0999 V2000
   -2.6516    7.3564    2.2539 C   0  0  0  0  0  0  0  0  0  0  0  0
   -1.6451    6.4859    1.6546 N   0  0  0  0  0  0  0  0  0  0  0  0
   -1.9238    5.0742    1.9500 C   0  0  0  0  0  0  0  0  0  0  0  0
   -1.2981    4.0942    0.9435 C   0  0  0  0  0  0  0  0  0  0  0  0
    0.0016    4.6509    0.3582 C   0  0  0  0  0  0  0  0  0  0  0  0
    0.7612    3.6727   -0.5632 C   0  0  0  0  0  0  0  0  0  0  0  0
   -0.0639    3.0680   -1.7230 C   0  0  2  0  0  0  0  0  0  0  0  0
   -0.7624    1.8727   -1.2694 N   0  0  0  0  0  0  0  0  0  0  0  0
   -1.9636    1.4742   -1.8226 C   0  0  0  0  0  0  0  0  0  0  0  0
   -2.4374    2.0365   -2.8051 O   0  0  0  0  0  0  0  0  0  0  0  0
   -2.5527    0.3121   -1.1777 C   0  0  0  0  0  0  0  0  0  0  0  0
   -2.3964   -0.1495    0.1139 C   0  0  0  0  0  0  0  0  0  0  0  0
   -3.0152   -1.4239    0.3334 C   0  0  0  0  0  0  0  0  0  0  0  0
   -2.9769   -2.2714    1.4646 C   0  0  0  0  0  0  0  0  0  0  0  0
   -3.5212   -3.5671    1.4098 C   0  0  0  0  0  0  0  0  0  0  0  0
   -3.2507   -4.5347    2.5370 C   0  0  0  0  0  0  0  0  0  0  0  0
   -3.7349   -5.7911    2.3336 F   0  0  0  0  0  0  0  0  0  0  0  0
   -3.7195   -4.1201    3.7450 F   0  0  0  0  0  0  0  0  0  0  0  0
   -1.4934   -4.8414    2.8919 P   0  0  0  0  0  5  0  0  0  0  0  0
   -0.6855   -3.6961    3.4296 O   0  0  0  0  0  0  0  0  0  0  0  0
   -0.8315   -5.3859    1.5263 O   0  0  0  0  0  0  0  0  0  0  0  0
   -1.3259   -6.1428    3.8241 O   0  0  0  0  0  0  0  0  0  0  0  0
   -4.2195   -3.9645    0.2694 C   0  0  0  0  0  0  0  0  0  0  0  0
   -4.3333   -3.1163   -0.8371 C   0  0  0  0  0  0  0  0  0  0  0  0
   -3.6908   -1.8650   -0.8037 C   0  0  0  0  0  0  0  0  0  0  0  0
   -3.5951   -0.7059   -2.0711 S   0  0  0  0  0  0  0  0  0  0  0  0
    0.8437    2.9665   -2.9786 C   0  0  0  0  0  0  0  0  0  0  0  0
    1.1268    4.0216   -3.5679 O   0  0  0  0  0  0  0  0  0  0  0  0
    1.4669    1.7969   -3.3576 N   0  0  0  0  0  0  0  0  0  0  0  0
    2.4449    1.8591   -4.4336 C   0  0  0  0  0  0  0  0  0  0  0  0
    3.0520    0.4727   -4.5016 C   0  0  0  0  0  0  0  0  0  0  0  0
    1.8940   -0.4150   -4.0712 C   0  0  0  0  0  0  0  0  0  0  0  0
    1.2139    0.4015   -2.9598 C   0  0  1  0  0  0  0  0  0  0  0  0
    1.8144    0.0337   -1.5780 C   0  0  0  0  0  0  0  0  0  0  0  0
    2.5000    0.8421   -0.9463 O   0  0  0  0  0  0  0  0  0  0  0  0
    1.5531   -1.2287   -1.0579 N   0  0  0  0  0  0  0  0  0  0  0  0
    0.6280   -2.2222   -1.6167 C   0  0  0  0  0  0  0  0  0  0  0  0
    0.1369   -3.1841   -0.5298 C   0  0  0  0  0  0  0  0  0  0  0  0
    1.1924   -3.9224    0.1033 O   0  0  0  0  0  0  0  0  0  0  0  0
    2.4261   -3.1823    0.2249 C   0  0  2  0  0  0  0  0  0  0  0  0
    3.1110   -3.6667    1.4833 C   0  0  0  0  0  0  0  0  0  0  0  0
    4.2826   -4.4351    1.3981 C   0  0  0  0  0  0  0  0  0  0  0  0
    4.9169   -4.8992    2.5522 C   0  0  0  0  0  0  0  0  0  0  0  0
    4.3893   -4.6033    3.8058 C   0  0  0  0  0  0  0  0  0  0  0  0
    3.2257   -3.8466    3.9068 C   0  0  0  0  0  0  0  0  0  0  0  0
    2.5886   -3.3844    2.7537 C   0  0  0  0  0  0  0  0  0  0  0  0
    2.2356   -1.6461    0.1790 C   0  0  0  0  0  0  0  0  0  0  0  0
   -0.2597    6.0102   -0.3215 C   0  0  0  0  0  0  0  0  0  0  0  0
   -1.5037    6.7276    0.2196 C   0  0  0  0  0  0  0  0  0  0  0  0
   -2.7061    7.1933    3.3362 H   0  0  0  0  0  0  0  0  0  0  0  0
   -3.6474    7.1906    1.8276 H   0  0  0  0  0  0  0  0  0  0  0  0
   -2.3867    8.4094    2.1080 H   0  0  0  0  0  0  0  0  0  0  0  0
   -1.5342    4.8548    2.9512 H   0  0  0  0  0  0  0  0  0  0  0  0
   -3.0027    4.8750    1.9794 H   0  0  0  0  0  0  0  0  0  0  0  0
   -1.1188    3.1326    1.4369 H   0  0  0  0  0  0  0  0  0  0  0  0
   -2.0225    3.9152    0.1399 H   0  0  0  0  0  0  0  0  0  0  0  0
    0.6739    4.8468    1.2066 H   0  0  0  0  0  0  0  0  0  0  0  0
    1.6389    4.2029   -0.9551 H   0  0  0  0  0  0  0  0  0  0  0  0
    1.1631    2.8653    0.0613 H   0  0  0  0  0  0  0  0  0  0  0  0
   -0.8425    3.7816   -2.0213 H   0  0  0  0  0  0  0  0  0  0  0  0
   -0.3436    1.3477   -0.5150 H   0  0  0  0  0  0  0  0  0  0  0  0
   -1.8166    0.3657    0.8711 H   0  0  0  0  0  0  0  0  0  0  0  0
   -2.4417   -1.9383    2.3539 H   0  0  0  0  0  0  0  0  0  0  0  0
    0.1458   -5.2911    1.4772 H   0  0  0  0  0  0  0  0  0  0  0  0
   -0.4200   -6.2385    4.1715 H   0  0  0  0  0  0  0  0  0  0  0  0
   -4.6625   -4.9589    0.2168 H   0  0  0  0  0  0  0  0  0  0  0  0
   -4.8671   -3.4423   -1.7262 H   0  0  0  0  0  0  0  0  0  0  0  0
    3.1921    2.6355   -4.2395 H   0  0  0  0  0  0  0  0  0  0  0  0
    1.9136    2.1059   -5.3606 H   0  0  0  0  0  0  0  0  0  0  0  0
    3.8782    0.3840   -3.7859 H   0  0  0  0  0  0  0  0  0  0  0  0
    3.4324    0.2273   -5.4969 H   0  0  0  0  0  0  0  0  0  0  0  0
    1.2000   -0.5445   -4.9110 H   0  0  0  0  0  0  0  0  0  0  0  0
    2.2493   -1.4022   -3.7689 H   0  0  0  0  0  0  0  0  0  0  0  0
    0.1397    0.2187   -2.9581 H   0  0  0  0  0  0  0  0  0  0  0  0
    1.1826   -2.7842   -2.3751 H   0  0  0  0  0  0  0  0  0  0  0  0
   -0.2162   -1.7243   -2.0974 H   0  0  0  0  0  0  0  0  0  0  0  0
   -0.5653   -3.9078   -0.9536 H   0  0  0  0  0  0  0  0  0  0  0  0
   -0.3836   -2.6332    0.2573 H   0  0  0  0  0  0  0  0  0  0  0  0
    3.0322   -3.4684   -0.6450 H   0  0  0  0  0  0  0  0  0  0  0  0
    4.7148   -4.6780    0.4301 H   0  0  0  0  0  0  0  0  0  0  0  0
    5.8267   -5.4881    2.4732 H   0  0  0  0  0  0  0  0  0  0  0  0
    4.8865   -4.9605    4.7037 H   0  0  0  0  0  0  0  0  0  0  0  0
    2.8089   -3.6138    4.8831 H   0  0  0  0  0  0  0  0  0  0  0  0
    1.6765   -2.8010    2.8623 H   0  0  0  0  0  0  0  0  0  0  0  0
    3.2017   -1.1362    0.2680 H   0  0  0  0  0  0  0  0  0  0  0  0
    1.6002   -1.2991    1.0028 H   0  0  0  0  0  0  0  0  0  0  0  0
   -0.3680    5.9037   -1.4067 H   0  0  0  0  0  0  0  0  0  0  0  0
    0.6230    6.6438   -0.1664 H   0  0  0  0  0  0  0  0  0  0  0  0
   -2.3983    6.3944   -0.3221 H   0  0  0  0  0  0  0  0  0  0  0  0
   -1.3902    7.7986    0.0145 H   0  0  0  0  0  0  0  0  0  0  0  0
  1  2  1  0
  2  3  1  0
  3  4  1  0
  4  5  1  0
  5  6  1  0
  6  7  1  0
  7  8  1  0
  8  9  1  0
  9 10  2  0
  9 11  1  0
 11 12  2  0
 12 13  1  0
 13 14  2  0
 14 15  1  0
 15 16  1  0
 16 17  1  0
 16 18  1  0
 16 19  1  0
 19 20  2  0
 19 21  1  0
 19 22  1  0
 15 23  2  0
 23 24  1  0
 24 25  2  0
 25 26  1  0
  7 27  1  0
 27 28  2  0
 27 29  1  0
 29 30  1  0
 30 31  1  0
 31 32  1  0
 32 33  1  0
 33 34  1  0
 34 35  2  0
 34 36  1  0
 36 37  1  0
 37 38  1  0
 38 39  1  0
 39 40  1  0
 40 41  1  0
 41 42  2  0
 42 43  1  0
 43 44  2  0
 44 45  1  0
 45 46  2  0
 40 47  1  0
  5 48  1  0
 48 49  1  0
 49  2  1  0
 26 11  1  0
 33 29  1  0
 47 36  1  0
 25 13  1  0
 46 41  1  0
  1 50  1  0
  1 51  1  0
  1 52  1  0
  3 53  1  0
  3 54  1  0
  4 55  1  0
  4 56  1  0
  5 57  1  0
  6 58  1  0
  6 59  1  0
  7 60  1  6
  8 61  1  0
 12 62  1  0
 14 63  1  0
 21 64  1  0
 22 65  1  0
 23 66  1  0
 24 67  1  0
 30 68  1  0
 30 69  1  0
 31 70  1  0
 31 71  1  0
 32 72  1  0
 32 73  1  0
 33 74  1  1
 37 75  1  0
 37 76  1  0
 38 77  1  0
 38 78  1  0
 40 79  1  6
 42 80  1  0
 43 81  1  0
 44 82  1  0
 45 83  1  0
 46 84  1  0
 47 85  1  0
 47 86  1  0
 48 87  1  0
 48 88  1  0
 49 89  1  0
 49 90  1  0
M  END
>  <mol_id>  (1) 
11604

>  <source_index>  (1) 
0

>  <layer>  (1) 
L4

>  <uniprot>  (1) 
P42226

>  <paff>  (1) 
6.6021000000000001

>  <smiles>  (1) 
CN1CCC(C[C@H](NC(=O)c2cc3cc(C(F)(F)P(=O)(O)O)ccc3s2)C(=O)N2CCC[C@H]2C(=O)N2CCO[C@H](c3ccccc3)C2)CC1

$$$$
