L4:P42226:11604


 52 57  0  0  0  0  0  0  0  0999 V2000
    3.4114  -45.0819  -20.9788 C   0  0  0  0  0  0  0  0  0  0  0  0
    1.9059  -44.8569  -20.6732 C   0  0  0  0  0  0  0  0  0  0  0  0
    1.4940  -43.6861  -20.6529 O   0  0  0  0  0  0  0  0  0  0  0  0
    0.9977  -45.8904  -20.5893 N   0  0  0  0  0  0  0  0  0  0  0  0
   -0.4151  -45.5550  -20.4916 C   0  0  0  0  0  0  0  0  0  0  0  0
   -1.1463  -46.8792  -20.5757 C   0  0  0  0  0  0  0  0  0  0  0  0
   -0.1613  -47.8406  -19.9278 C   0  0  0  0  0  0  0  0  0  0  0  0
    1.2045  -47.3395  -20.4256 C   0  0  0  0  0  0  0  0  0  0  0  0
    1.5951  -48.0611  -21.7417 C   0  0  0  0  0  0  0  0  0  0  0  0
    1.2632  -47.6063  -22.8397 O   0  0  0  0  0  0  0  0  0  0  0  0
    2.3409  -49.2312  -21.6585 N   0  0  0  0  0  0  0  0  0  0  0  0
    2.9401  -49.7928  -20.4416 C   0  0  0  0  0  0  0  0  0  0  0  0
    4.1392  -50.6833  -20.7834 C   0  0  0  0  0  0  0  0  0  0  0  0
    3.8057  -51.7979  -21.6239 O   0  0  0  0  0  0  0  0  0  0  0  0
    2.7567  -51.5143  -22.5745 C   0  0  0  0  0  0  0  0  0  0  0  0
    2.5920  -50.0062  -22.8858 C   0  0  0  0  0  0  0  0  0  0  0  0
    3.0309  -52.3557  -23.8009 C   0  0  0  0  0  0  0  0  0  0  0  0
    3.1757  -51.7463  -25.0571 C   0  0  0  0  0  0  0  0  0  0  0  0
    3.4160  -52.5134  -26.1988 C   0  0  0  0  0  0  0  0  0  0  0  0
    3.5137  -53.8984  -26.1014 C   0  0  0  0  0  0  0  0  0  0  0  0
    3.3678  -54.5180  -24.8638 C   0  0  0  0  0  0  0  0  0  0  0  0
    3.1244  -53.7527  -23.7218 C   0  0  0  0  0  0  0  0  0  0  0  0
    3.7754  -45.8379  -22.1698 N   0  0  0  0  0  0  0  0  0  0  0  0
    4.8008  -46.7632  -22.1629 C   0  0  0  0  0  0  0  0  0  0  0  0
    5.3716  -47.0831  -21.1247 O   0  0  0  0  0  0  0  0  0  0  0  0
    3.2589  -45.6481  -23.0168 H   0  0  0  0  0  0  0  0  0  0  0  0
    5.0760  -47.3477  -23.4652 C   0  0  0  0  0  0  0  0  0  0  0  0
    4.5754  -47.0055  -24.7053 C   0  0  0  0  0  0  0  0  0  0  0  0
    4.9606  -47.9217  -25.7385 C   0  0  0  0  0  0  0  0  0  0  0  0
    4.5606  -47.9861  -27.0932 C   0  0  0  0  0  0  0  0  0  0  0  0
    4.9328  -49.0758  -27.9007 C   0  0  0  0  0  0  0  0  0  0  0  0
    5.8130  -50.0309  -27.3918 C   0  0  0  0  0  0  0  0  0  0  0  0
    6.2805  -49.9504  -26.0759 C   0  0  0  0  0  0  0  0  0  0  0  0
    5.8125  -48.9115  -25.2503 C   0  0  0  0  0  0  0  0  0  0  0  0
    6.1536  -48.6692  -23.5818 S   0  0  0  0  0  0  0  0  0  0  0  0
    4.2941  -49.2468  -29.2582 C   0  0  0  0  0  0  0  0  0  0  0  0
    4.5036  -50.4630  -29.8338 F   0  0  0  0  0  0  0  0  0  0  0  0
    4.6706  -48.3077  -30.1678 F   0  0  0  0  0  0  0  0  0  0  0  0
    2.4811  -49.1035  -29.2867 P   0  0  0  0  0  0  0  0  0  0  0  0
    1.8943  -47.7239  -29.2090 O   0  0  0  0  0  0  0  0  0  0  0  0
    1.9244  -50.0054  -28.0718 O   0  0  0  0  0  0  0  0  0  0  0  0
    1.8720  -49.9111  -30.5387 O   0  0  0  0  0  0  0  0  0  0  0  0
    1.0161  -49.7767  -27.7730 H   0  0  0  0  0  0  0  0  0  0  0  0
    0.9272  -49.7184  -30.6826 H   0  0  0  0  0  0  0  0  0  0  0  0
    4.1265  -43.7107  -20.9815 C   0  0  0  0  0  0  0  0  0  0  0  0
    7.0013  -42.5250  -16.1357 C   0  0  0  0  0  0  0  0  0  0  0  0
    6.4411  -42.8020  -17.4546 N   0  0  0  0  0  0  0  0  0  0  0  0
    6.0160  -44.2037  -17.5645 C   0  0  0  0  0  0  0  0  0  0  0  0
    4.9436  -44.4446  -18.6401 C   0  0  0  0  0  0  0  0  0  0  0  0
    5.0836  -43.4539  -19.7980 C   0  0  0  0  0  0  0  0  0  0  0  0
    4.9901  -42.0064  -19.2746 C   0  0  0  0  0  0  0  0  0  0  0  0
    5.3624  -41.8744  -17.7916 C   0  0  0  0  0  0  0  0  0  0  0  0
 46 47  1  0  0  0
 47 48  1  0  0  0
 48 49  1  0  0  0
 49 50  1  0  0  0
 50 45  1  0  0  0
 45  1  1  0  0  0
  1 23  1  0  0  0
 23 24  1  0  0  0
 24 25  2  0  0  0
 24 27  1  0  0  0
 27 28  2  0  0  0
 28 29  1  0  0  0
 29 30  2  0  0  0
 30 31  1  0  0  0
 31 36  1  0  0  0
 36 37  1  0  0  0
 36 38  1  0  0  0
 36 39  1  0  0  0
 39 40  2  0  0  0
 39 41  1  0  0  0
 39 42  1  0  0  0
 31 32  2  0  0  0
 32 33  1  0  0  0
 33 34  2  0  0  0
 34 35  1  0  0  0
  1  2  1  0  0  0
  2  3  2  0  0  0
  2  4  1  0  0  0
  4  5  1  0  0  0
  5  6  1  0  0  0
  6  7  1  0  0  0
  7  8  1  0  0  0
  8  9  1  0  0  0
  9 10  2  0  0  0
  9 11  1  0  0  0
 11 12  1  0  0  0
 12 13  1  0  0  0
 13 14  1  0  0  0
 14 15  1  0  0  0
 15 17  1  0  0  0
 17 18  2  0  0  0
 18 19  1  0  0  0
 19 20  2  0  0  0
 20 21  1  0  0  0
 21 22  2  0  0  0
 15 16  1  0  0  0
 50 51  1  0  0  0
 51 52  1  0  0  0
 52 47  1  0  0  0
 35 27  1  0  0  0
  8  4  1  0  0  0
 16 11  1  0  0  0
 34 29  1  0  0  0
 22 17  1  0  0  0
 23 26  1  0  0  0
 41 43  1  0  0  0
 42 44  1  0  0  0
M  END
> <minimizedAffinity>
-6.51133

$$$$
