L4:P42226:120290


 50 54  0  0  0  0  0  0  0  0999 V2000
  -11.2619  -36.4529  -23.3560 C   0  0  0  0  0  0  0  0  0  0  0  0
  -11.7425  -37.4775  -24.4340 C   0  0  0  0  0  0  0  0  0  0  0  0
  -11.0132  -38.4428  -24.6973 O   0  0  0  0  0  0  0  0  0  0  0  0
  -13.0040  -37.4215  -24.9864 N   0  0  0  0  0  0  0  0  0  0  0  0
  -14.0870  -36.4911  -24.7093 C   0  0  0  0  0  0  0  0  0  0  0  0
  -15.3176  -37.0375  -25.4240 C   0  0  0  0  0  0  0  0  0  0  0  0
  -14.9308  -38.4542  -25.8313 C   0  0  0  0  0  0  0  0  0  0  0  0
  -13.4105  -38.3997  -26.0010 C   0  0  0  0  0  0  0  0  0  0  0  0
  -13.0379  -37.9037  -27.4257 C   0  0  0  0  0  0  0  0  0  0  0  0
  -12.4700  -36.8127  -27.5683 O   0  0  0  0  0  0  0  0  0  0  0  0
  -13.3184  -38.6884  -28.5328 N   0  0  0  0  0  0  0  0  0  0  0  0
  -12.9694  -38.1478  -29.8484 C   0  0  0  0  0  0  0  0  0  0  0  0
  -13.4301  -39.0439  -30.9986 C   0  0  0  0  0  0  0  0  0  0  0  0
  -12.9463  -40.3807  -30.8582 O   0  0  0  0  0  0  0  0  0  0  0  0
  -13.2810  -40.9838  -29.5965 C   0  0  0  0  0  0  0  0  0  0  0  0
  -13.9130  -40.0270  -28.5464 C   0  0  0  0  0  0  0  0  0  0  0  0
  -12.0839  -41.7412  -29.0571 C   0  0  0  0  0  0  0  0  0  0  0  0
  -10.8521  -41.6733  -29.7353 C   0  0  0  0  0  0  0  0  0  0  0  0
   -9.7501  -42.4034  -29.2841 C   0  0  0  0  0  0  0  0  0  0  0  0
   -9.8724  -43.2061  -28.1564 C   0  0  0  0  0  0  0  0  0  0  0  0
   -8.8148  -43.9123  -27.7349 F   0  0  0  0  0  0  0  0  0  0  0  0
  -11.0708  -43.2864  -27.4662 C   0  0  0  0  0  0  0  0  0  0  0  0
  -12.1645  -42.5556  -27.9199 C   0  0  0  0  0  0  0  0  0  0  0  0
  -13.3095  -42.6540  -27.2335 F   0  0  0  0  0  0  0  0  0  0  0  0
   -8.7460  -36.0825  -23.4865 C   0  0  0  0  0  0  0  0  0  0  0  0
  -10.1264  -35.4949  -23.8630 C   0  0  0  0  0  0  0  0  0  0  0  0
  -10.2298  -34.1124  -23.1827 C   0  0  0  0  0  0  0  0  0  0  0  0
  -10.1641  -35.2848  -25.3859 C   0  0  0  0  0  0  0  0  0  0  0  0
  -10.9431  -37.0364  -22.0562 N   0  0  0  0  0  0  0  0  0  0  0  0
  -11.5202  -36.5906  -20.8850 C   0  0  0  0  0  0  0  0  0  0  0  0
  -12.3259  -35.6645  -20.8751 O   0  0  0  0  0  0  0  0  0  0  0  0
  -10.2895  -37.8042  -21.9956 H   0  0  0  0  0  0  0  0  0  0  0  0
  -11.1106  -37.2889  -19.6737 C   0  0  0  0  0  0  0  0  0  0  0  0
   -9.8147  -37.5571  -19.2806 C   0  0  0  0  0  0  0  0  0  0  0  0
   -9.7283  -38.2635  -18.0364 C   0  0  0  0  0  0  0  0  0  0  0  0
   -8.5996  -38.7132  -17.3092 C   0  0  0  0  0  0  0  0  0  0  0  0
   -8.7501  -39.3985  -16.0910 C   0  0  0  0  0  0  0  0  0  0  0  0
  -10.0348  -39.6402  -15.6017 C   0  0  0  0  0  0  0  0  0  0  0  0
  -11.1665  -39.2054  -16.2979 C   0  0  0  0  0  0  0  0  0  0  0  0
  -10.9963  -38.5181  -17.5140 C   0  0  0  0  0  0  0  0  0  0  0  0
  -12.2323  -37.8945  -18.5359 S   0  0  0  0  0  0  0  0  0  0  0  0
   -7.5378  -39.8882  -15.3418 C   0  0  0  0  0  0  0  0  0  0  0  0
   -7.7562  -40.0570  -14.0058 F   0  0  0  0  0  0  0  0  0  0  0  0
   -7.0583  -41.0807  -15.8002 F   0  0  0  0  0  0  0  0  0  0  0  0
   -6.0441  -38.8746  -15.3406 P   0  0  0  0  0  0  0  0  0  0  0  0
   -6.1419  -37.3801  -15.2754 O   0  0  0  0  0  0  0  0  0  0  0  0
   -5.1458  -39.2994  -16.6133 O   0  0  0  0  0  0  0  0  0  0  0  0
   -5.0800  -39.4003  -14.1564 O   0  0  0  0  0  0  0  0  0  0  0  0
   -4.4502  -38.6444  -16.8088 H   0  0  0  0  0  0  0  0  0  0  0  0
   -4.3700  -38.7636  -13.9527 H   0  0  0  0  0  0  0  0  0  0  0  0
 25 26  1  0  0  0
 26 27  1  0  0  0
 26 28  1  0  0  0
 26  1  1  0  0  0
  1 29  1  0  0  0
 29 30  1  0  0  0
 30 31  2  0  0  0
 30 33  1  0  0  0
 33 34  2  0  0  0
 34 35  1  0  0  0
 35 36  2  0  0  0
 36 37  1  0  0  0
 37 42  1  0  0  0
 42 43  1  0  0  0
 42 44  1  0  0  0
 42 45  1  0  0  0
 45 46  2  0  0  0
 45 47  1  0  0  0
 45 48  1  0  0  0
 37 38  2  0  0  0
 38 39  1  0  0  0
 39 40  2  0  0  0
 40 41  1  0  0  0
  1  2  1  0  0  0
  2  3  2  0  0  0
  2  4  1  0  0  0
  4  5  1  0  0  0
  5  6  1  0  0  0
  6  7  1  0  0  0
  7  8  1  0  0  0
  8  9  1  0  0  0
  9 10  2  0  0  0
  9 11  1  0  0  0
 11 12  1  0  0  0
 12 13  1  0  0  0
 13 14  1  0  0  0
 14 15  1  0  0  0
 15 17  1  0  0  0
 17 18  2  0  0  0
 18 19  1  0  0  0
 19 20  2  0  0  0
 20 21  1  0  0  0
 20 22  1  0  0  0
 22 23  2  0  0  0
 23 24  1  0  0  0
 15 16  1  0  0  0
 41 33  1  0  0  0
  8  4  1  0  0  0
 16 11  1  0  0  0
 40 35  1  0  0  0
 23 17  1  0  0  0
 29 32  1  0  0  0
 47 49  1  0  0  0
 48 50  1  0  0  0
M  END
> <minimizedAffinity>
-8.08148

$$$$
