L4:P42226:120290
     RDKit          3D

 81 85  0  0  0  0  0  0  0  0999 V2000
    0.5543   -3.5625    2.6084 C   0  0  0  0  0  0  0  0  0  0  0  0
   -0.3118   -2.3288    2.9554 C   0  0  0  0  0  0  0  0  0  0  0  0
   -1.6630   -2.8591    3.4825 C   0  0  0  0  0  0  0  0  0  0  0  0
    0.3781   -1.5574    4.0928 C   0  0  0  0  0  0  0  0  0  0  0  0
   -0.5192   -1.4531    1.6692 C   0  0  2  0  0  0  0  0  0  0  0  0
    0.7484   -1.1222    1.0246 N   0  0  0  0  0  0  0  0  0  0  0  0
    0.8749   -1.0166   -0.3452 C   0  0  0  0  0  0  0  0  0  0  0  0
   -0.0756   -1.2112   -1.0973 O   0  0  0  0  0  0  0  0  0  0  0  0
    2.2017   -0.6617   -0.8312 C   0  0  0  0  0  0  0  0  0  0  0  0
    2.5605   -0.4377   -2.1453 C   0  0  0  0  0  0  0  0  0  0  0  0
    3.9448   -0.1054   -2.3122 C   0  0  0  0  0  0  0  0  0  0  0  0
    4.6861    0.1911   -3.4816 C   0  0  0  0  0  0  0  0  0  0  0  0
    6.0574    0.4930   -3.4116 C   0  0  0  0  0  0  0  0  0  0  0  0
    6.8346    0.7851   -4.6691 C   0  0  0  0  0  0  0  0  0  0  0  0
    6.1022    1.4282   -5.6235 F   0  0  0  0  0  0  0  0  0  0  0  0
    7.9418    1.5547   -4.4596 F   0  0  0  0  0  0  0  0  0  0  0  0
    7.5252   -0.5932   -5.6084 P   0  0  0  0  0  5  0  0  0  0  0  0
    8.3127   -0.3397   -6.8586 O   0  0  0  0  0  0  0  0  0  0  0  0
    6.3327   -1.6343   -5.9261 O   0  0  0  0  0  0  0  0  0  0  0  0
    8.3999   -1.5017   -4.5995 O   0  0  0  0  0  0  0  0  0  0  0  0
    6.6905    0.4922   -2.1676 C   0  0  0  0  0  0  0  0  0  0  0  0
    5.9823    0.2053   -0.9969 C   0  0  0  0  0  0  0  0  0  0  0  0
    4.6096   -0.0913   -1.0861 C   0  0  0  0  0  0  0  0  0  0  0  0
    3.5434   -0.4721    0.2097 S   0  0  0  0  0  0  0  0  0  0  0  0
   -1.4795   -0.2395    1.8878 C   0  0  0  0  0  0  0  0  0  0  0  0
   -2.6917   -0.4605    2.0091 O   0  0  0  0  0  0  0  0  0  0  0  0
   -1.0083    1.0389    2.0957 N   0  0  0  0  0  0  0  0  0  0  0  0
    0.3658    1.5103    2.1685 C   0  0  0  0  0  0  0  0  0  0  0  0
    0.3004    2.9554    2.6491 C   0  0  0  0  0  0  0  0  0  0  0  0
   -1.1342    3.1383    3.1299 C   0  0  0  0  0  0  0  0  0  0  0  0
   -1.9462    2.1499    2.2892 C   0  0  1  0  0  0  0  0  0  0  0  0
   -2.3371    2.7853    0.9261 C   0  0  0  0  0  0  0  0  0  0  0  0
   -1.4916    3.4135    0.2752 O   0  0  0  0  0  0  0  0  0  0  0  0
   -3.6208    2.6313    0.4275 N   0  0  0  0  0  0  0  0  0  0  0  0
   -3.9316    3.2819   -0.8472 C   0  0  0  0  0  0  0  0  0  0  0  0
   -5.4030    3.1438   -1.2398 C   0  0  0  0  0  0  0  0  0  0  0  0
   -5.8239    1.7788   -1.2545 O   0  0  0  0  0  0  0  0  0  0  0  0
   -5.5744    1.0868   -0.0190 C   0  0  1  0  0  0  0  0  0  0  0  0
   -5.0320   -0.2988   -0.3083 C   0  0  0  0  0  0  0  0  0  0  0  0
   -5.6076   -1.4187    0.3214 C   0  0  0  0  0  0  0  0  0  0  0  0
   -5.0909   -2.6987    0.1081 C   0  0  0  0  0  0  0  0  0  0  0  0
   -3.9968   -2.8672   -0.7318 C   0  0  0  0  0  0  0  0  0  0  0  0
   -3.4991   -4.0962   -0.9239 F   0  0  0  0  0  0  0  0  0  0  0  0
   -3.4150   -1.7836   -1.3692 C   0  0  0  0  0  0  0  0  0  0  0  0
   -3.9352   -0.5112   -1.1538 C   0  0  0  0  0  0  0  0  0  0  0  0
   -3.3516    0.5167   -1.7821 F   0  0  0  0  0  0  0  0  0  0  0  0
   -4.7191    1.8648    1.0205 C   0  0  0  0  0  0  0  0  0  0  0  0
    0.1088   -4.1380    1.7891 H   0  0  0  0  0  0  0  0  0  0  0  0
    1.5685   -3.2778    2.3084 H   0  0  0  0  0  0  0  0  0  0  0  0
    0.6516   -4.2334    3.4699 H   0  0  0  0  0  0  0  0  0  0  0  0
   -1.5142   -3.5905    4.2857 H   0  0  0  0  0  0  0  0  0  0  0  0
   -2.2322   -3.3539    2.6877 H   0  0  0  0  0  0  0  0  0  0  0  0
   -2.2813   -2.0577    3.8991 H   0  0  0  0  0  0  0  0  0  0  0  0
    1.3776   -1.2175    3.8043 H   0  0  0  0  0  0  0  0  0  0  0  0
    0.4989   -2.1920    4.9787 H   0  0  0  0  0  0  0  0  0  0  0  0
   -0.2070   -0.6843    4.3995 H   0  0  0  0  0  0  0  0  0  0  0  0
   -1.0599   -2.0823    0.9470 H   0  0  0  0  0  0  0  0  0  0  0  0
    1.5688   -0.9470    1.5873 H   0  0  0  0  0  0  0  0  0  0  0  0
    1.8494   -0.5074   -2.9617 H   0  0  0  0  0  0  0  0  0  0  0  0
    4.1789    0.1820   -4.4459 H   0  0  0  0  0  0  0  0  0  0  0  0
    6.5770   -2.2742   -6.6203 H   0  0  0  0  0  0  0  0  0  0  0  0
    8.9796   -2.1239   -5.0767 H   0  0  0  0  0  0  0  0  0  0  0  0
    7.7543    0.7184   -2.0944 H   0  0  0  0  0  0  0  0  0  0  0  0
    6.4878    0.2107   -0.0350 H   0  0  0  0  0  0  0  0  0  0  0  0
    0.9347    0.8899    2.8626 H   0  0  0  0  0  0  0  0  0  0  0  0
    0.8232    1.4622    1.1772 H   0  0  0  0  0  0  0  0  0  0  0  0
    1.0298    3.1595    3.4393 H   0  0  0  0  0  0  0  0  0  0  0  0
    0.5233    3.6398    1.8232 H   0  0  0  0  0  0  0  0  0  0  0  0
   -1.1941    2.8548    4.1883 H   0  0  0  0  0  0  0  0  0  0  0  0
   -1.4740    4.1744    3.0373 H   0  0  0  0  0  0  0  0  0  0  0  0
   -2.8226    1.8372    2.8566 H   0  0  0  0  0  0  0  0  0  0  0  0
   -3.6584    4.3412   -0.7777 H   0  0  0  0  0  0  0  0  0  0  0  0
   -3.2907    2.8297   -1.6114 H   0  0  0  0  0  0  0  0  0  0  0  0
   -5.5597    3.5526   -2.2430 H   0  0  0  0  0  0  0  0  0  0  0  0
   -6.0508    3.7040   -0.5551 H   0  0  0  0  0  0  0  0  0  0  0  0
   -6.5668    0.9567    0.4326 H   0  0  0  0  0  0  0  0  0  0  0  0
   -6.4551   -1.3007    0.9928 H   0  0  0  0  0  0  0  0  0  0  0  0
   -5.5281   -3.5624    0.5986 H   0  0  0  0  0  0  0  0  0  0  0  0
   -2.5552   -1.9178   -2.0156 H   0  0  0  0  0  0  0  0  0  0  0  0
   -5.3582    2.6209    1.4956 H   0  0  0  0  0  0  0  0  0  0  0  0
   -4.3919    1.2036    1.8194 H   0  0  0  0  0  0  0  0  0  0  0  0
  1  2  1  0
  2  3  1  0
  2  4  1  0
  2  5  1  0
  5  6  1  0
  6  7  1  0
  7  8  2  0
  7  9  1  0
  9 10  2  0
 10 11  1  0
 11 12  2  0
 12 13  1  0
 13 14  1  0
 14 15  1  0
 14 16  1  0
 14 17  1  0
 17 18  2  0
 17 19  1  0
 17 20  1  0
 13 21  2  0
 21 22  1  0
 22 23  2  0
 23 24  1  0
  5 25  1  0
 25 26  2  0
 25 27  1  0
 27 28  1  0
 28 29  1  0
 29 30  1  0
 30 31  1  0
 31 32  1  0
 32 33  2  0
 32 34  1  0
 34 35  1  0
 35 36  1  0
 36 37  1  0
 37 38  1  0
 38 39  1  0
 39 40  2  0
 40 41  1  0
 41 42  2  0
 42 43  1  0
 42 44  1  0
 44 45  2  0
 45 46  1  0
 38 47  1  0
 24  9  1  0
 31 27  1  0
 47 34  1  0
 23 11  1  0
 45 39  1  0
  1 48  1  0
  1 49  1  0
  1 50  1  0
  3 51  1  0
  3 52  1  0
  3 53  1  0
  4 54  1  0
  4 55  1  0
  4 56  1  0
  5 57  1  6
  6 58  1  0
 10 59  1  0
 12 60  1  0
 19 61  1  0
 20 62  1  0
 21 63  1  0
 22 64  1  0
 28 65  1  0
 28 66  1  0
 29 67  1  0
 29 68  1  0
 30 69  1  0
 30 70  1  0
 31 71  1  1
 35 72  1  0
 35 73  1  0
 36 74  1  0
 36 75  1  0
 38 76  1  1
 40 77  1  0
 41 78  1  0
 44 79  1  0
 47 80  1  0
 47 81  1  0
M  END
>  <mol_id>  (1) 
120290

>  <source_index>  (1) 
7

>  <layer>  (1) 
L4

>  <uniprot>  (1) 
P42226

>  <paff>  (1) 
6.3768000000000002

>  <smiles>  (1) 
CC(C)(C)[C@H](NC(=O)c1cc2cc(C(F)(F)P(=O)(O)O)ccc2s1)C(=O)N1CCC[C@H]1C(=O)N1CCOC(c2ccc(F)cc2F)C1

$$$$
