L4:P42226:125214
     RDKit          3D

 82 86  0  0  0  0  0  0  0  0999 V2000
    0.3927    0.0342   -3.4067 C   0  0  0  0  0  0  0  0  0  0  0  0
    0.4316    1.5489   -3.1275 C   0  0  0  0  0  0  0  0  0  0  0  0
    1.4408    2.1923   -4.1042 C   0  0  0  0  0  0  0  0  0  0  0  0
   -0.9604    2.1334   -3.4386 C   0  0  0  0  0  0  0  0  0  0  0  0
    0.8430    1.8993   -1.6631 C   0  0  2  0  0  0  0  0  0  0  0  0
    2.1789    1.4058   -1.3207 N   0  0  0  0  0  0  0  0  0  0  0  0
    3.0269    2.1191   -0.4969 C   0  0  0  0  0  0  0  0  0  0  0  0
    2.7104    3.2337   -0.0845 O   0  0  0  0  0  0  0  0  0  0  0  0
    4.2730    1.4425   -0.1567 C   0  0  0  0  0  0  0  0  0  0  0  0
    4.8360    0.2887   -0.6694 C   0  0  0  0  0  0  0  0  0  0  0  0
    6.0903   -0.0563   -0.0601 C   0  0  0  0  0  0  0  0  0  0  0  0
    6.9613   -1.1473   -0.3010 C   0  0  0  0  0  0  0  0  0  0  0  0
    8.1609   -1.2885    0.4200 C   0  0  0  0  0  0  0  0  0  0  0  0
    9.0646   -2.4713    0.1765 C   0  0  0  0  0  0  0  0  0  0  0  0
   10.3801   -2.1422    0.0662 F   0  0  0  0  0  0  0  0  0  0  0  0
    8.7417   -3.1770   -0.9433 F   0  0  0  0  0  0  0  0  0  0  0  0
    9.0984   -3.7813    1.4291 P   0  0  0  0  0  5  0  0  0  0  0  0
    9.9041   -5.0182    1.1730 O   0  0  0  0  0  0  0  0  0  0  0  0
    9.5452   -3.1172    2.8325 O   0  0  0  0  0  0  0  0  0  0  0  0
    7.5707   -4.1304    1.8278 O   0  0  0  0  0  0  0  0  0  0  0  0
    8.4928   -0.3324    1.3807 C   0  0  0  0  0  0  0  0  0  0  0  0
    7.6508    0.7529    1.6386 C   0  0  0  0  0  0  0  0  0  0  0  0
    6.4530    0.8760    0.9105 C   0  0  0  0  0  0  0  0  0  0  0  0
    5.2757    2.1188    1.0552 S   0  0  0  0  0  0  0  0  0  0  0  0
   -0.0923    1.2896   -0.5894 C   0  0  0  0  0  0  0  0  0  0  0  0
   -0.0596    0.0794   -0.3379 O   0  0  0  0  0  0  0  0  0  0  0  0
   -0.9308    2.1302    0.1045 N   0  0  0  0  0  0  0  0  0  0  0  0
   -0.9838    3.5868    0.0426 C   0  0  0  0  0  0  0  0  0  0  0  0
   -2.1526    3.9742    0.9498 C   0  0  1  0  0  0  0  0  0  0  0  0
   -3.3727    4.0762    0.2186 O   0  0  0  0  0  0  0  0  0  0  0  0
   -2.2277    2.8249    1.9553 C   0  0  0  0  0  0  0  0  0  0  0  0
   -1.8363    1.6012    1.1248 C   0  0  1  0  0  0  0  0  0  0  0  0
   -3.0909    0.9846    0.4628 C   0  0  0  0  0  0  0  0  0  0  0  0
   -3.4885    1.4227   -0.6243 O   0  0  0  0  0  0  0  0  0  0  0  0
   -3.7981    0.0160    1.1547 N   0  0  0  0  0  0  0  0  0  0  0  0
   -3.4487   -0.5383    2.4658 C   0  0  0  0  0  0  0  0  0  0  0  0
   -4.6980   -0.7450    3.3304 C   0  0  0  0  0  0  0  0  0  0  0  0
   -5.6846   -1.5279    2.6490 O   0  0  0  0  0  0  0  0  0  0  0  0
   -6.1111   -0.8706    1.4363 C   0  0  2  0  0  0  0  0  0  0  0  0
   -7.2043   -1.6816    0.7696 C   0  0  0  0  0  0  0  0  0  0  0  0
   -8.1925   -1.0313    0.0130 C   0  0  0  0  0  0  0  0  0  0  0  0
   -9.1909   -1.7628   -0.6332 C   0  0  0  0  0  0  0  0  0  0  0  0
   -9.2123   -3.1523   -0.5353 C   0  0  0  0  0  0  0  0  0  0  0  0
   -8.2356   -3.8119    0.2074 C   0  0  0  0  0  0  0  0  0  0  0  0
   -7.2362   -3.0820    0.8535 C   0  0  0  0  0  0  0  0  0  0  0  0
   -4.9114   -0.6737    0.4867 C   0  0  0  0  0  0  0  0  0  0  0  0
    1.3571   -0.4434   -3.2076 H   0  0  0  0  0  0  0  0  0  0  0  0
    0.1484   -0.1616   -4.4578 H   0  0  0  0  0  0  0  0  0  0  0  0
   -0.3695   -0.4711   -2.8056 H   0  0  0  0  0  0  0  0  0  0  0  0
    1.5094    3.2744   -3.9452 H   0  0  0  0  0  0  0  0  0  0  0  0
    2.4445    1.7705   -3.9830 H   0  0  0  0  0  0  0  0  0  0  0  0
    1.1425    2.0296   -5.1463 H   0  0  0  0  0  0  0  0  0  0  0  0
   -0.9776    3.2182   -3.2887 H   0  0  0  0  0  0  0  0  0  0  0  0
   -1.2455    1.9424   -4.4797 H   0  0  0  0  0  0  0  0  0  0  0  0
   -1.7346    1.6905   -2.8042 H   0  0  0  0  0  0  0  0  0  0  0  0
    0.8596    2.9882   -1.5660 H   0  0  0  0  0  0  0  0  0  0  0  0
    2.3485    0.4212   -1.4646 H   0  0  0  0  0  0  0  0  0  0  0  0
    4.3892   -0.2991   -1.4615 H   0  0  0  0  0  0  0  0  0  0  0  0
    6.6942   -1.8766   -1.0657 H   0  0  0  0  0  0  0  0  0  0  0  0
    9.7376   -3.8238    3.4811 H   0  0  0  0  0  0  0  0  0  0  0  0
    6.9519   -3.3755    1.8267 H   0  0  0  0  0  0  0  0  0  0  0  0
    9.4222   -0.4181    1.9456 H   0  0  0  0  0  0  0  0  0  0  0  0
    7.9217    1.4933    2.3874 H   0  0  0  0  0  0  0  0  0  0  0  0
   -1.1183    3.9177   -0.9898 H   0  0  0  0  0  0  0  0  0  0  0  0
   -0.0347    3.9646    0.4363 H   0  0  0  0  0  0  0  0  0  0  0  0
   -1.9873    4.9389    1.4378 H   0  0  0  0  0  0  0  0  0  0  0  0
   -3.4605    3.2916   -0.3657 H   0  0  0  0  0  0  0  0  0  0  0  0
   -1.4801    2.9811    2.7423 H   0  0  0  0  0  0  0  0  0  0  0  0
   -3.2157    2.7298    2.4164 H   0  0  0  0  0  0  0  0  0  0  0  0
   -1.3037    0.8483    1.7114 H   0  0  0  0  0  0  0  0  0  0  0  0
   -2.9615   -1.5012    2.2740 H   0  0  0  0  0  0  0  0  0  0  0  0
   -2.7466    0.1021    3.0017 H   0  0  0  0  0  0  0  0  0  0  0  0
   -5.1400    0.2171    3.6156 H   0  0  0  0  0  0  0  0  0  0  0  0
   -4.4293   -1.2733    4.2505 H   0  0  0  0  0  0  0  0  0  0  0  0
   -6.5252    0.1049    1.7255 H   0  0  0  0  0  0  0  0  0  0  0  0
   -8.1910    0.0529   -0.0795 H   0  0  0  0  0  0  0  0  0  0  0  0
   -9.9518   -1.2478   -1.2139 H   0  0  0  0  0  0  0  0  0  0  0  0
   -9.9902   -3.7213   -1.0375 H   0  0  0  0  0  0  0  0  0  0  0  0
   -8.2511   -4.8958    0.2856 H   0  0  0  0  0  0  0  0  0  0  0  0
   -6.4814   -3.6128    1.4304 H   0  0  0  0  0  0  0  0  0  0  0  0
   -5.2213   -0.1405   -0.4183 H   0  0  0  0  0  0  0  0  0  0  0  0
   -4.5130   -1.6465    0.1699 H   0  0  0  0  0  0  0  0  0  0  0  0
  1  2  1  0
  2  3  1  0
  2  4  1  0
  2  5  1  0
  5  6  1  0
  6  7  1  0
  7  8  2  0
  7  9  1  0
  9 10  2  0
 10 11  1  0
 11 12  2  0
 12 13  1  0
 13 14  1  0
 14 15  1  0
 14 16  1  0
 14 17  1  0
 17 18  2  0
 17 19  1  0
 17 20  1  0
 13 21  2  0
 21 22  1  0
 22 23  2  0
 23 24  1  0
  5 25  1  0
 25 26  2  0
 25 27  1  0
 27 28  1  0
 28 29  1  0
 29 30  1  0
 29 31  1  0
 31 32  1  0
 32 33  1  0
 33 34  2  0
 33 35  1  0
 35 36  1  0
 36 37  1  0
 37 38  1  0
 38 39  1  0
 39 40  1  0
 40 41  2  0
 41 42  1  0
 42 43  2  0
 43 44  1  0
 44 45  2  0
 39 46  1  0
 24  9  1  0
 32 27  1  0
 46 35  1  0
 23 11  1  0
 45 40  1  0
  1 47  1  0
  1 48  1  0
  1 49  1  0
  3 50  1  0
  3 51  1  0
  3 52  1  0
  4 53  1  0
  4 54  1  0
  4 55  1  0
  5 56  1  6
  6 57  1  0
 10 58  1  0
 12 59  1  0
 19 60  1  0
 20 61  1  0
 21 62  1  0
 22 63  1  0
 28 64  1  0
 28 65  1  0
 29 66  1  1
 30 67  1  0
 31 68  1  0
 31 69  1  0
 32 70  1  1
 36 71  1  0
 36 72  1  0
 37 73  1  0
 37 74  1  0
 39 75  1  1
 41 76  1  0
 42 77  1  0
 43 78  1  0
 44 79  1  0
 45 80  1  0
 46 81  1  0
 46 82  1  0
M  END
>  <mol_id>  (1) 
125214

>  <source_index>  (1) 
8

>  <layer>  (1) 
L4

>  <uniprot>  (1) 
P42226

>  <paff>  (1) 
8

>  <smiles>  (1) 
CC(C)(C)[C@H](NC(=O)c1cc2cc(C(F)(F)P(=O)(O)O)ccc2s1)C(=O)N1C[C@@H](O)C[C@H]1C(=O)N1CCO[C@H](c2ccccc2)C1

$$$$
