L4:P42226:125214
 OpenBabel09212617593D

 82 86  0  0  0  0  0  0  0  0999 V2000
    4.1420  -47.9358  -28.3720 C   0  0  2  0  0  0  0  0  0  0  0  0
    3.1701  -47.2343  -29.3531 C   0  0  0  0  0  0  0  0  0  0  0  0
    1.9464  -47.3538  -29.2224 O   0  0  0  0  0  0  0  0  0  0  0  0
    3.6979  -46.4447  -30.3477 N   0  0  0  0  0  0  0  0  0  0  0  0
    5.0953  -46.0754  -30.5456 C   0  0  0  0  0  0  0  0  0  0  0  0
    5.1056  -45.2657  -31.8431 C   0  0  1  0  0  0  0  0  0  0  0  0
    5.3492  -46.0953  -32.9771 O   0  0  0  0  0  0  0  0  0  0  0  0
    3.6990  -44.6701  -31.9101 C   0  0  0  0  0  0  0  0  0  0  0  0
    2.8210  -45.7653  -31.3018 C   0  0  1  0  0  0  0  0  0  0  0  0
    4.7802  -46.8936  -32.9160 H   0  0  0  0  0  0  0  0  0  0  0  0
    2.3593  -46.7491  -32.4025 C   0  0  0  0  0  0  0  0  0  0  0  0
    3.0568  -47.7341  -32.6763 O   0  0  0  0  0  0  0  0  0  0  0  0
    1.2173  -46.4480  -33.1252 N   0  0  0  0  0  0  0  0  0  0  0  0
    0.3465  -45.2867  -32.9216 C   0  0  0  0  0  0  0  0  0  0  0  0
   -0.1265  -44.7078  -34.2602 C   0  0  0  0  0  0  0  0  0  0  0  0
   -0.7339  -45.7116  -35.0812 O   0  0  0  0  0  0  0  0  0  0  0  0
    0.2072  -46.7644  -35.3824 C   0  0  1  0  0  0  0  0  0  0  0  0
    0.6917  -47.4345  -34.0801 C   0  0  0  0  0  0  0  0  0  0  0  0
   -0.4349  -47.7779  -36.3086 C   0  0  0  0  0  0  0  0  0  0  0  0
   -0.8116  -49.0362  -35.8120 C   0  0  0  0  0  0  0  0  0  0  0  0
   -1.4311  -49.9728  -36.6418 C   0  0  0  0  0  0  0  0  0  0  0  0
   -1.6857  -49.6628  -37.9760 C   0  0  0  0  0  0  0  0  0  0  0  0
   -1.3225  -48.4166  -38.4816 C   0  0  0  0  0  0  0  0  0  0  0  0
   -0.7036  -47.4788  -37.6530 C   0  0  0  0  0  0  0  0  0  0  0  0
    3.0802  -50.2693  -27.9865 C   0  0  0  0  0  0  0  0  0  0  0  0
    4.2543  -49.4770  -28.5926 C   0  0  0  0  0  0  0  0  0  0  0  0
    5.5623  -49.9863  -27.9474 C   0  0  0  0  0  0  0  0  0  0  0  0
    4.3216  -49.7906  -30.1003 C   0  0  0  0  0  0  0  0  0  0  0  0
    3.6411  -47.5933  -27.0389 N   0  0  0  0  0  0  0  0  0  0  0  0
    4.1613  -46.5372  -26.3174 C   0  0  0  0  0  0  0  0  0  0  0  0
    5.1189  -45.8956  -26.7463 O   0  0  0  0  0  0  0  0  0  0  0  0
    2.7342  -47.9589  -26.7882 H   0  0  0  0  0  0  0  0  0  0  0  0
    3.4799  -46.2513  -25.0603 C   0  0  0  0  0  0  0  0  0  0  0  0
    2.4875  -46.9505  -24.3989 C   0  0  0  0  0  0  0  0  0  0  0  0
    2.0722  -46.3318  -23.1708 C   0  0  0  0  0  0  0  0  0  0  0  0
    1.0956  -46.7289  -22.2245 C   0  0  0  0  0  0  0  0  0  0  0  0
    0.8528  -45.9626  -21.0701 C   0  0  0  0  0  0  0  0  0  0  0  0
    1.5932  -44.7988  -20.8590 C   0  0  0  0  0  0  0  0  0  0  0  0
    2.5618  -44.3841  -21.7773 C   0  0  0  0  0  0  0  0  0  0  0  0
    2.7885  -45.1610  -22.9284 C   0  0  0  0  0  0  0  0  0  0  0  0
    3.9212  -44.8495  -24.1820 S   0  0  0  0  0  0  0  0  0  0  0  0
   -0.2115  -46.3790  -20.0858 C   0  0  0  0  0  0  0  0  0  0  0  0
   -0.3317  -47.7271  -19.9466 F   0  0  0  0  0  0  0  0  0  0  0  0
   -1.4504  -45.9048  -20.3962 F   0  0  0  0  0  0  0  0  0  0  0  0
   -0.0361  -45.8279  -18.3677 P   0  0  0  0  0  0  0  0  0  0  0  0
    1.2854  -45.9856  -17.6797 O   0  0  0  0  0  0  0  0  0  0  0  0
   -0.5151  -44.2870  -18.2875 O   0  0  0  0  0  0  0  0  0  0  0  0
   -1.2425  -46.4779  -17.5093 O   0  0  0  0  0  0  0  0  0  0  0  0
   -0.2711  -43.9146  -17.4165 H   0  0  0  0  0  0  0  0  0  0  0  0
   -2.0919  -46.5725  -17.9808 H   0  0  0  0  0  0  0  0  0  0  0  0
    5.1464  -47.5994  -28.5236 H   0  0  0  0  0  0  0  0  0  0  0  0
    5.7060  -46.9488  -30.6415 H   0  0  0  0  0  0  0  0  0  0  0  0
    5.4870  -45.5194  -29.7195 H   0  0  0  0  0  0  0  0  0  0  0  0
    5.8795  -44.5269  -31.8526 H   0  0  0  0  0  0  0  0  0  0  0  0
    3.4156  -44.4703  -32.9224 H   0  0  0  0  0  0  0  0  0  0  0  0
    3.6164  -43.7350  -31.3965 H   0  0  0  0  0  0  0  0  0  0  0  0
    1.9374  -45.3769  -30.8400 H   0  0  0  0  0  0  0  0  0  0  0  0
    0.8876  -44.5339  -32.3874 H   0  0  0  0  0  0  0  0  0  0  0  0
   -0.5121  -45.6001  -32.3653 H   0  0  0  0  0  0  0  0  0  0  0  0
    0.7150  -44.2974  -34.7782 H   0  0  0  0  0  0  0  0  0  0  0  0
   -0.8564  -43.9516  -34.0596 H   0  0  0  0  0  0  0  0  0  0  0  0
    1.0590  -46.3461  -35.8766 H   0  0  0  0  0  0  0  0  0  0  0  0
    1.4656  -48.1344  -34.3171 H   0  0  0  0  0  0  0  0  0  0  0  0
   -0.1435  -47.9262  -33.6267 H   0  0  0  0  0  0  0  0  0  0  0  0
   -0.6287  -49.2711  -34.8239 H   0  0  0  0  0  0  0  0  0  0  0  0
   -1.7006  -50.8956  -36.2665 H   0  0  0  0  0  0  0  0  0  0  0  0
   -2.1429  -50.3557  -38.5891 H   0  0  0  0  0  0  0  0  0  0  0  0
   -1.5111  -48.1864  -39.4697 H   0  0  0  0  0  0  0  0  0  0  0  0
   -0.4410  -46.5560  -38.0332 H   0  0  0  0  0  0  0  0  0  0  0  0
    3.2204  -51.3135  -28.1734 H   0  0  0  0  0  0  0  0  0  0  0  0
    2.1634  -49.9467  -28.4342 H   0  0  0  0  0  0  0  0  0  0  0  0
    3.0414  -50.0979  -26.9310 H   0  0  0  0  0  0  0  0  0  0  0  0
    5.6451  -51.0428  -28.0953 H   0  0  0  0  0  0  0  0  0  0  0  0
    5.5495  -49.7729  -26.8990 H   0  0  0  0  0  0  0  0  0  0  0  0
    6.3982  -49.4960  -28.4010 H   0  0  0  0  0  0  0  0  0  0  0  0
    4.3984  -50.8485  -30.2415 H   0  0  0  0  0  0  0  0  0  0  0  0
    5.1778  -49.3108  -30.5265 H   0  0  0  0  0  0  0  0  0  0  0  0
    3.4354  -49.4302  -30.5795 H   0  0  0  0  0  0  0  0  0  0  0  0
    2.0840  -47.8318  -24.7532 H   0  0  0  0  0  0  0  0  0  0  0  0
    0.5544  -47.5929  -22.3844 H   0  0  0  0  0  0  0  0  0  0  0  0
    1.4229  -44.2353  -20.0113 H   0  0  0  0  0  0  0  0  0  0  0  0
    3.1028  -43.5207  -21.6135 H   0  0  0  0  0  0  0  0  0  0  0  0
  1 29  1  0  0  0  0
  1  2  1  0  0  0  0
  1 51  1  6  0  0  0
  2  3  2  0  0  0  0
  2  4  1  0  0  0  0
  4  5  1  0  0  0  0
  5  6  1  0  0  0  0
  5 52  1  0  0  0  0
  5 53  1  0  0  0  0
  6  7  1  0  0  0  0
  6  8  1  0  0  0  0
  6 54  1  1  0  0  0
  7 10  1  0  0  0  0
  8  9  1  0  0  0  0
  8 55  1  0  0  0  0
  8 56  1  0  0  0  0
  9 11  1  0  0  0  0
  9  4  1  0  0  0  0
  9 57  1  1  0  0  0
 11 12  2  0  0  0  0
 11 13  1  0  0  0  0
 13 14  1  0  0  0  0
 14 15  1  0  0  0  0
 14 58  1  0  0  0  0
 14 59  1  0  0  0  0
 15 16  1  0  0  0  0
 15 60  1  0  0  0  0
 15 61  1  0  0  0  0
 16 17  1  0  0  0  0
 17 19  1  0  0  0  0
 17 18  1  0  0  0  0
 17 62  1  6  0  0  0
 18 13  1  0  0  0  0
 18 63  1  0  0  0  0
 18 64  1  0  0  0  0
 19 20  2  0  0  0  0
 20 21  1  0  0  0  0
 20 65  1  0  0  0  0
 21 22  2  0  0  0  0
 21 66  1  0  0  0  0
 22 23  1  0  0  0  0
 22 67  1  0  0  0  0
 23 24  2  0  0  0  0
 23 68  1  0  0  0  0
 24 19  1  0  0  0  0
 24 69  1  0  0  0  0
 25 26  1  0  0  0  0
 25 70  1  0  0  0  0
 25 71  1  0  0  0  0
 25 72  1  0  0  0  0
 26 27  1  0  0  0  0
 26 28  1  0  0  0  0
 26  1  1  0  0  0  0
 27 73  1  0  0  0  0
 27 74  1  0  0  0  0
 27 75  1  0  0  0  0
 28 76  1  0  0  0  0
 28 77  1  0  0  0  0
 28 78  1  0  0  0  0
 29 30  1  0  0  0  0
 29 32  1  0  0  0  0
 30 31  2  0  0  0  0
 30 33  1  0  0  0  0
 33 34  2  0  0  0  0
 34 35  1  0  0  0  0
 34 79  1  0  0  0  0
 35 36  2  0  0  0  0
 36 37  1  0  0  0  0
 36 80  1  0  0  0  0
 37 42  1  0  0  0  0
 37 38  2  0  0  0  0
 38 39  1  0  0  0  0
 38 81  1  0  0  0  0
 39 40  2  0  0  0  0
 39 82  1  0  0  0  0
 40 41  1  0  0  0  0
 40 35  1  0  0  0  0
 41 33  1  0  0  0  0
 42 43  1  0  0  0  0
 42 44  1  0  0  0  0
 42 45  1  0  0  0  0
 45 46  2  0  0  0  0
 45 47  1  0  0  0  0
 45 48  1  0  0  0  0
 47 49  1  0  0  0  0
 48 50  1  0  0  0  0
M  END
>  <minimizedAffinity>
-7.86575

$$$$
