L4:P42226:143645
     RDKit          3D

 84 88  0  0  0  0  0  0  0  0999 V2000
    0.2419   -6.0913    1.1320 C   0  0  0  0  0  0  0  0  0  0  0  0
    0.5839   -4.5854    1.1436 C   0  0  0  0  0  0  0  0  0  0  0  0
    1.9282   -4.4370    1.8954 C   0  0  0  0  0  0  0  0  0  0  0  0
   -0.5061   -3.8533    1.9448 C   0  0  0  0  0  0  0  0  0  0  0  0
    0.7243   -4.0250   -0.3203 C   0  0  2  0  0  0  0  0  0  0  0  0
    1.2755   -2.6729   -0.3212 N   0  0  0  0  0  0  0  0  0  0  0  0
    1.8819   -2.1274   -1.4370 C   0  0  0  0  0  0  0  0  0  0  0  0
    2.0293   -2.7690   -2.4710 O   0  0  0  0  0  0  0  0  0  0  0  0
    2.2088   -0.7176   -1.2846 C   0  0  0  0  0  0  0  0  0  0  0  0
    2.5460   -0.0024   -0.1519 C   0  0  0  0  0  0  0  0  0  0  0  0
    2.6187    1.4133   -0.3794 C   0  0  0  0  0  0  0  0  0  0  0  0
    2.8590    2.4789    0.5214 C   0  0  0  0  0  0  0  0  0  0  0  0
    2.8369    3.8147    0.0820 C   0  0  0  0  0  0  0  0  0  0  0  0
    3.0688    4.9381    1.0588 C   0  0  0  0  0  0  0  0  0  0  0  0
    2.6019    4.6618    2.3117 F   0  0  0  0  0  0  0  0  0  0  0  0
    2.4820    6.1134    0.6906 F   0  0  0  0  0  0  0  0  0  0  0  0
    4.7593    5.4636    1.4056 P   0  0  0  0  0  5  0  0  0  0  0  0
    5.0210    6.5815    2.3688 O   0  0  0  0  0  0  0  0  0  0  0  0
    5.6048    4.1614    1.8512 O   0  0  0  0  0  0  0  0  0  0  0  0
    5.4870    5.7781   -0.0001 O   0  0  0  0  0  0  0  0  0  0  0  0
    2.6073    4.0837   -1.2676 C   0  0  0  0  0  0  0  0  0  0  0  0
    2.3873    3.0501   -2.1813 C   0  0  0  0  0  0  0  0  0  0  0  0
    2.3885    1.7214   -1.7201 C   0  0  0  0  0  0  0  0  0  0  0  0
    2.1242    0.3016   -2.6526 S   0  0  0  0  0  0  0  0  0  0  0  0
   -0.5678   -4.2709   -1.1834 C   0  0  0  0  0  0  0  0  0  0  0  0
   -0.7238   -5.4272   -1.6094 O   0  0  0  0  0  0  0  0  0  0  0  0
   -1.5766   -3.3280   -1.3776 N   0  0  0  0  0  0  0  0  0  0  0  0
   -2.7764   -3.7767   -2.1045 C   0  0  0  0  0  0  0  0  0  0  0  0
   -3.0516   -2.9076   -3.3268 C   0  0  0  0  0  0  0  0  0  0  0  0
   -3.1436   -1.4366   -2.9441 C   0  0  0  0  0  0  0  0  0  0  0  0
   -1.8902   -1.0041   -2.1893 C   0  0  0  0  0  0  0  0  0  0  0  0
   -1.6000   -1.9009   -0.9745 C   0  0  1  0  0  0  0  0  0  0  0  0
   -2.5566   -1.5563    0.2073 C   0  0  0  0  0  0  0  0  0  0  0  0
   -3.5748   -2.2191    0.4186 O   0  0  0  0  0  0  0  0  0  0  0  0
   -2.2504   -0.4503    1.0089 N   0  0  0  0  0  0  0  0  0  0  0  0
   -3.0607   -0.2511    2.2148 C   0  0  0  0  0  0  0  0  0  0  0  0
   -3.0825    1.2014    2.6819 C   0  0  0  0  0  0  0  0  0  0  0  0
   -1.7546    1.7023    2.8645 O   0  0  0  0  0  0  0  0  0  0  0  0
   -0.9974    1.6872    1.6456 C   0  0  2  0  0  0  0  0  0  0  0  0
   -1.3622    2.8655    0.7588 C   0  0  0  0  0  0  0  0  0  0  0  0
   -0.8232    4.1287    1.0609 C   0  0  0  0  0  0  0  0  0  0  0  0
   -1.1027    5.2392    0.2635 C   0  0  0  0  0  0  0  0  0  0  0  0
   -1.9401    5.1084   -0.8402 C   0  0  0  0  0  0  0  0  0  0  0  0
   -2.5049    3.8709   -1.1390 C   0  0  0  0  0  0  0  0  0  0  0  0
   -2.2226    2.7583   -0.3424 C   0  0  0  0  0  0  0  0  0  0  0  0
   -0.9778    0.2863    0.9825 C   0  0  0  0  0  0  0  0  0  0  0  0
    0.9481   -6.6529    0.5106 H   0  0  0  0  0  0  0  0  0  0  0  0
    0.2839   -6.5139    2.1430 H   0  0  0  0  0  0  0  0  0  0  0  0
   -0.7695   -6.2781    0.7574 H   0  0  0  0  0  0  0  0  0  0  0  0
    1.8800   -4.9005    2.8878 H   0  0  0  0  0  0  0  0  0  0  0  0
    2.7422   -4.9205    1.3437 H   0  0  0  0  0  0  0  0  0  0  0  0
    2.2004   -3.3875    2.0485 H   0  0  0  0  0  0  0  0  0  0  0  0
   -0.3076   -2.7802    2.0147 H   0  0  0  0  0  0  0  0  0  0  0  0
   -0.5638   -4.2381    2.9698 H   0  0  0  0  0  0  0  0  0  0  0  0
   -1.4940   -3.9910    1.4950 H   0  0  0  0  0  0  0  0  0  0  0  0
    1.4919   -4.6336   -0.8225 H   0  0  0  0  0  0  0  0  0  0  0  0
    1.1741   -2.1150    0.5110 H   0  0  0  0  0  0  0  0  0  0  0  0
    2.7012   -0.4558    0.8196 H   0  0  0  0  0  0  0  0  0  0  0  0
    3.0458    2.2582    1.5717 H   0  0  0  0  0  0  0  0  0  0  0  0
    6.4560    4.4017    2.2630 H   0  0  0  0  0  0  0  0  0  0  0  0
    6.3151    6.2805    0.1155 H   0  0  0  0  0  0  0  0  0  0  0  0
    2.5910    5.1125   -1.6276 H   0  0  0  0  0  0  0  0  0  0  0  0
    2.2064    3.2731   -3.2297 H   0  0  0  0  0  0  0  0  0  0  0  0
   -2.6922   -4.8166   -2.4343 H   0  0  0  0  0  0  0  0  0  0  0  0
   -3.6272   -3.7491   -1.4175 H   0  0  0  0  0  0  0  0  0  0  0  0
   -3.9828   -3.2257   -3.8083 H   0  0  0  0  0  0  0  0  0  0  0  0
   -2.2456   -3.0421   -4.0590 H   0  0  0  0  0  0  0  0  0  0  0  0
   -4.0317   -1.2677   -2.3239 H   0  0  0  0  0  0  0  0  0  0  0  0
   -3.2622   -0.8257   -3.8460 H   0  0  0  0  0  0  0  0  0  0  0  0
   -1.9960    0.0432   -1.8944 H   0  0  0  0  0  0  0  0  0  0  0  0
   -1.0364   -1.0544   -2.8772 H   0  0  0  0  0  0  0  0  0  0  0  0
   -0.6179   -1.6401   -0.6249 H   0  0  0  0  0  0  0  0  0  0  0  0
   -4.0850   -0.6041    2.0580 H   0  0  0  0  0  0  0  0  0  0  0  0
   -2.6059   -0.8802    2.9900 H   0  0  0  0  0  0  0  0  0  0  0  0
   -3.5943    1.2682    3.6475 H   0  0  0  0  0  0  0  0  0  0  0  0
   -3.6321    1.8379    1.9808 H   0  0  0  0  0  0  0  0  0  0  0  0
    0.0432    1.8660    1.9492 H   0  0  0  0  0  0  0  0  0  0  0  0
   -0.1768    4.2544    1.9284 H   0  0  0  0  0  0  0  0  0  0  0  0
   -0.6694    6.2058    0.5088 H   0  0  0  0  0  0  0  0  0  0  0  0
   -2.1624    5.9731   -1.4599 H   0  0  0  0  0  0  0  0  0  0  0  0
   -3.1732    3.7727   -1.9910 H   0  0  0  0  0  0  0  0  0  0  0  0
   -2.7009    1.8153   -0.5896 H   0  0  0  0  0  0  0  0  0  0  0  0
   -0.2843   -0.3464    1.5509 H   0  0  0  0  0  0  0  0  0  0  0  0
   -0.5877    0.3567   -0.0349 H   0  0  0  0  0  0  0  0  0  0  0  0
  1  2  1  0
  2  3  1  0
  2  4  1  0
  2  5  1  0
  5  6  1  0
  6  7  1  0
  7  8  2  0
  7  9  1  0
  9 10  2  0
 10 11  1  0
 11 12  2  0
 12 13  1  0
 13 14  1  0
 14 15  1  0
 14 16  1  0
 14 17  1  0
 17 18  2  0
 17 19  1  0
 17 20  1  0
 13 21  2  0
 21 22  1  0
 22 23  2  0
 23 24  1  0
  5 25  1  0
 25 26  2  0
 25 27  1  0
 27 28  1  0
 28 29  1  0
 29 30  1  0
 30 31  1  0
 31 32  1  0
 32 33  1  0
 33 34  2  0
 33 35  1  0
 35 36  1  0
 36 37  1  0
 37 38  1  0
 38 39  1  0
 39 40  1  0
 40 41  2  0
 41 42  1  0
 42 43  2  0
 43 44  1  0
 44 45  2  0
 39 46  1  0
 24  9  1  0
 32 27  1  0
 46 35  1  0
 23 11  1  0
 45 40  1  0
  1 47  1  0
  1 48  1  0
  1 49  1  0
  3 50  1  0
  3 51  1  0
  3 52  1  0
  4 53  1  0
  4 54  1  0
  4 55  1  0
  5 56  1  6
  6 57  1  0
 10 58  1  0
 12 59  1  0
 19 60  1  0
 20 61  1  0
 21 62  1  0
 22 63  1  0
 28 64  1  0
 28 65  1  0
 29 66  1  0
 29 67  1  0
 30 68  1  0
 30 69  1  0
 31 70  1  0
 31 71  1  0
 32 72  1  1
 36 73  1  0
 36 74  1  0
 37 75  1  0
 37 76  1  0
 39 77  1  1
 41 78  1  0
 42 79  1  0
 43 80  1  0
 44 81  1  0
 45 82  1  0
 46 83  1  0
 46 84  1  0
M  END
>  <mol_id>  (1) 
143645

>  <source_index>  (1) 
9

>  <layer>  (1) 
L4

>  <uniprot>  (1) 
P42226

>  <paff>  (1) 
6.9585999999999997

>  <smiles>  (1) 
CC(C)(C)[C@H](NC(=O)c1cc2cc(C(F)(F)P(=O)(O)O)ccc2s1)C(=O)N1CCCC[C@H]1C(=O)N1CCO[C@H](c2ccccc2)C1

$$$$
