L4:P42226:143645
 OpenBabel09212618003D

 84 88  0  0  0  0  0  0  0  0999 V2000
    1.5700  -45.9108  -20.2938 C   0  0  2  0  0  0  0  0  0  0  0  0
    2.4534  -46.3243  -19.0595 C   0  0  0  0  0  0  0  0  0  0  0  0
    2.2348  -45.7064  -18.0044 O   0  0  0  0  0  0  0  0  0  0  0  0
    3.3435  -47.3977  -19.0523 N   0  0  0  0  0  0  0  0  0  0  0  0
    3.9876  -47.7198  -17.7675 C   0  0  0  0  0  0  0  0  0  0  0  0
    5.5082  -47.7030  -17.8806 C   0  0  0  0  0  0  0  0  0  0  0  0
    5.9853  -48.6242  -18.9952 C   0  0  0  0  0  0  0  0  0  0  0  0
    5.2972  -48.2691  -20.3098 C   0  0  0  0  0  0  0  0  0  0  0  0
    3.7648  -48.2587  -20.1840 C   0  0  1  0  0  0  0  0  0  0  0  0
    3.2027  -49.7126  -20.1624 C   0  0  0  0  0  0  0  0  0  0  0  0
    3.0574  -50.3253  -19.1021 O   0  0  0  0  0  0  0  0  0  0  0  0
    2.8955  -50.3242  -21.3835 N   0  0  0  0  0  0  0  0  0  0  0  0
    2.2057  -51.6173  -21.3312 C   0  0  0  0  0  0  0  0  0  0  0  0
    2.4319  -52.4616  -22.5820 C   0  0  0  0  0  0  0  0  0  0  0  0
    2.0773  -51.7355  -23.7629 O   0  0  0  0  0  0  0  0  0  0  0  0
    2.8728  -50.5531  -23.9313 C   0  0  1  0  0  0  0  0  0  0  0  0
    2.8359  -49.6363  -22.6820 C   0  0  0  0  0  0  0  0  0  0  0  0
    4.2406  -50.8888  -24.5009 C   0  0  0  0  0  0  0  0  0  0  0  0
    5.3843  -50.5025  -23.7797 C   0  0  0  0  0  0  0  0  0  0  0  0
    6.6643  -50.8100  -24.2426 C   0  0  0  0  0  0  0  0  0  0  0  0
    6.8223  -51.4945  -25.4439 C   0  0  0  0  0  0  0  0  0  0  0  0
    5.7018  -51.8612  -26.1854 C   0  0  0  0  0  0  0  0  0  0  0  0
    4.4201  -51.5560  -25.7203 C   0  0  0  0  0  0  0  0  0  0  0  0
   -0.7517  -45.4253  -19.3009 C   0  0  0  0  0  0  0  0  0  0  0  0
    0.0813  -46.4031  -20.1582 C   0  0  0  0  0  0  0  0  0  0  0  0
   -0.5852  -46.4551  -21.5537 C   0  0  0  0  0  0  0  0  0  0  0  0
   -0.0139  -47.7994  -19.5201 C   0  0  0  0  0  0  0  0  0  0  0  0
    2.1066  -46.1999  -21.6206 N   0  0  0  0  0  0  0  0  0  0  0  0
    3.0324  -45.3772  -22.2340 C   0  0  0  0  0  0  0  0  0  0  0  0
    3.4165  -44.3359  -21.7137 O   0  0  0  0  0  0  0  0  0  0  0  0
    1.8138  -47.0467  -22.0803 H   0  0  0  0  0  0  0  0  0  0  0  0
    3.5644  -45.9291  -23.4709 C   0  0  0  0  0  0  0  0  0  0  0  0
    2.9045  -46.3773  -24.5987 C   0  0  0  0  0  0  0  0  0  0  0  0
    3.7733  -47.0237  -25.5413 C   0  0  0  0  0  0  0  0  0  0  0  0
    3.4828  -47.6720  -26.7660 C   0  0  0  0  0  0  0  0  0  0  0  0
    4.5004  -48.2889  -27.5155 C   0  0  0  0  0  0  0  0  0  0  0  0
    5.8164  -48.2282  -27.0562 C   0  0  0  0  0  0  0  0  0  0  0  0
    6.1334  -47.5775  -25.8614 C   0  0  0  0  0  0  0  0  0  0  0  0
    5.0999  -46.9872  -25.1120 C   0  0  0  0  0  0  0  0  0  0  0  0
    5.2511  -46.1563  -23.6148 S   0  0  0  0  0  0  0  0  0  0  0  0
    4.1701  -48.9971  -28.8037 C   0  0  0  0  0  0  0  0  0  0  0  0
    4.5788  -50.2998  -28.8173 F   0  0  0  0  0  0  0  0  0  0  0  0
    4.7279  -48.4175  -29.9055 F   0  0  0  0  0  0  0  0  0  0  0  0
    2.4432  -49.1499  -29.3025 P   0  0  0  0  0  0  0  0  0  0  0  0
    1.6058  -47.9249  -29.5126 O   0  0  0  0  0  0  0  0  0  0  0  0
    2.3865  -50.0731  -30.6267 O   0  0  0  0  0  0  0  0  0  0  0  0
    1.7048  -50.1394  -28.2633 O   0  0  0  0  0  0  0  0  0  0  0  0
    1.5219  -50.0162  -31.0752 H   0  0  0  0  0  0  0  0  0  0  0  0
    0.7329  -50.0890  -28.3304 H   0  0  0  0  0  0  0  0  0  0  0  0
    1.5933  -44.8423  -20.2414 H   0  0  0  0  0  0  0  0  0  0  0  0
    3.6735  -48.6943  -17.4565 H   0  0  0  0  0  0  0  0  0  0  0  0
    3.6975  -46.9780  -17.0531 H   0  0  0  0  0  0  0  0  0  0  0  0
    5.9312  -48.0284  -16.9532 H   0  0  0  0  0  0  0  0  0  0  0  0
    5.8211  -46.7052  -18.1071 H   0  0  0  0  0  0  0  0  0  0  0  0
    5.7543  -49.6370  -18.7387 H   0  0  0  0  0  0  0  0  0  0  0  0
    7.0422  -48.5069  -19.1139 H   0  0  0  0  0  0  0  0  0  0  0  0
    5.5765  -48.9898  -21.0497 H   0  0  0  0  0  0  0  0  0  0  0  0
    5.6090  -47.2835  -20.5859 H   0  0  0  0  0  0  0  0  0  0  0  0
    3.3257  -47.8111  -21.0510 H   0  0  0  0  0  0  0  0  0  0  0  0
    1.1559  -51.4402  -21.2240 H   0  0  0  0  0  0  0  0  0  0  0  0
    2.6046  -52.1608  -20.5003 H   0  0  0  0  0  0  0  0  0  0  0  0
    1.8312  -53.3450  -22.5210 H   0  0  0  0  0  0  0  0  0  0  0  0
    3.4696  -52.7165  -22.6377 H   0  0  0  0  0  0  0  0  0  0  0  0
    2.4315  -49.9319  -24.6825 H   0  0  0  0  0  0  0  0  0  0  0  0
    1.9265  -49.0733  -22.7142 H   0  0  0  0  0  0  0  0  0  0  0  0
    3.7202  -49.0362  -22.7347 H   0  0  0  0  0  0  0  0  0  0  0  0
    5.2753  -49.9835  -22.8944 H   0  0  0  0  0  0  0  0  0  0  0  0
    7.4928  -50.5301  -23.6947 H   0  0  0  0  0  0  0  0  0  0  0  0
    7.7676  -51.7299  -25.7846 H   0  0  0  0  0  0  0  0  0  0  0  0
    5.8186  -52.3600  -27.0813 H   0  0  0  0  0  0  0  0  0  0  0  0
    3.5964  -51.8249  -26.2809 H   0  0  0  0  0  0  0  0  0  0  0  0
   -1.7569  -45.7842  -19.2258 H   0  0  0  0  0  0  0  0  0  0  0  0
   -0.7514  -44.4589  -19.7603 H   0  0  0  0  0  0  0  0  0  0  0  0
   -0.3240  -45.3553  -18.3226 H   0  0  0  0  0  0  0  0  0  0  0  0
   -1.5964  -46.7904  -21.4537 H   0  0  0  0  0  0  0  0  0  0  0  0
   -0.0453  -47.1325  -22.1818 H   0  0  0  0  0  0  0  0  0  0  0  0
   -0.5748  -45.4784  -21.9905 H   0  0  0  0  0  0  0  0  0  0  0  0
   -1.0413  -48.0899  -19.4492 H   0  0  0  0  0  0  0  0  0  0  0  0
    0.4180  -47.7745  -18.5415 H   0  0  0  0  0  0  0  0  0  0  0  0
    0.5153  -48.5051  -20.1257 H   0  0  0  0  0  0  0  0  0  0  0  0
    1.8902  -46.2595  -24.7484 H   0  0  0  0  0  0  0  0  0  0  0  0
    2.5112  -47.6921  -27.1134 H   0  0  0  0  0  0  0  0  0  0  0  0
    6.5677  -48.6711  -27.6080 H   0  0  0  0  0  0  0  0  0  0  0  0
    7.1109  -47.5306  -25.5337 H   0  0  0  0  0  0  0  0  0  0  0  0
  1 28  1  0  0  0  0
  1  2  1  0  0  0  0
  1 50  1  1  0  0  0
  2  3  2  0  0  0  0
  2  4  1  0  0  0  0
  4  5  1  0  0  0  0
  5  6  1  0  0  0  0
  5 51  1  0  0  0  0
  5 52  1  0  0  0  0
  6  7  1  0  0  0  0
  6 53  1  0  0  0  0
  6 54  1  0  0  0  0
  7  8  1  0  0  0  0
  7 55  1  0  0  0  0
  7 56  1  0  0  0  0
  8  9  1  0  0  0  0
  8 57  1  0  0  0  0
  8 58  1  0  0  0  0
  9 10  1  0  0  0  0
  9  4  1  0  0  0  0
  9 59  1  6  0  0  0
 10 11  2  0  0  0  0
 10 12  1  0  0  0  0
 12 13  1  0  0  0  0
 13 14  1  0  0  0  0
 13 60  1  0  0  0  0
 13 61  1  0  0  0  0
 14 15  1  0  0  0  0
 14 62  1  0  0  0  0
 14 63  1  0  0  0  0
 15 16  1  0  0  0  0
 16 18  1  0  0  0  0
 16 17  1  0  0  0  0
 16 64  1  6  0  0  0
 17 12  1  0  0  0  0
 17 65  1  0  0  0  0
 17 66  1  0  0  0  0
 18 19  2  0  0  0  0
 19 20  1  0  0  0  0
 19 67  1  0  0  0  0
 20 21  2  0  0  0  0
 20 68  1  0  0  0  0
 21 22  1  0  0  0  0
 21 69  1  0  0  0  0
 22 23  2  0  0  0  0
 22 70  1  0  0  0  0
 23 18  1  0  0  0  0
 23 71  1  0  0  0  0
 24 25  1  0  0  0  0
 24 72  1  0  0  0  0
 24 73  1  0  0  0  0
 24 74  1  0  0  0  0
 25 26  1  0  0  0  0
 25 27  1  0  0  0  0
 25  1  1  0  0  0  0
 26 75  1  0  0  0  0
 26 76  1  0  0  0  0
 26 77  1  0  0  0  0
 27 78  1  0  0  0  0
 27 79  1  0  0  0  0
 27 80  1  0  0  0  0
 28 29  1  0  0  0  0
 28 31  1  0  0  0  0
 29 30  2  0  0  0  0
 29 32  1  0  0  0  0
 32 33  2  0  0  0  0
 33 34  1  0  0  0  0
 33 81  1  0  0  0  0
 34 35  2  0  0  0  0
 35 36  1  0  0  0  0
 35 82  1  0  0  0  0
 36 41  1  0  0  0  0
 36 37  2  0  0  0  0
 37 38  1  0  0  0  0
 37 83  1  0  0  0  0
 38 39  2  0  0  0  0
 38 84  1  0  0  0  0
 39 40  1  0  0  0  0
 39 34  1  0  0  0  0
 40 32  1  0  0  0  0
 41 42  1  0  0  0  0
 41 43  1  0  0  0  0
 41 44  1  0  0  0  0
 44 45  2  0  0  0  0
 44 46  1  0  0  0  0
 44 47  1  0  0  0  0
 46 48  1  0  0  0  0
 47 49  1  0  0  0  0
M  END
>  <minimizedAffinity>
-6.22687

$$$$
