L4:P42226:143645


 49 53  0  0  0  0  0  0  0  0999 V2000
    1.5700  -45.9108  -20.2938 C   0  0  0  0  0  0  0  0  0  0  0  0
    2.4534  -46.3243  -19.0595 C   0  0  0  0  0  0  0  0  0  0  0  0
    2.2348  -45.7064  -18.0044 O   0  0  0  0  0  0  0  0  0  0  0  0
    3.3435  -47.3977  -19.0523 N   0  0  0  0  0  0  0  0  0  0  0  0
    3.9876  -47.7198  -17.7675 C   0  0  0  0  0  0  0  0  0  0  0  0
    5.5082  -47.7030  -17.8806 C   0  0  0  0  0  0  0  0  0  0  0  0
    5.9853  -48.6242  -18.9952 C   0  0  0  0  0  0  0  0  0  0  0  0
    5.2972  -48.2691  -20.3098 C   0  0  0  0  0  0  0  0  0  0  0  0
    3.7648  -48.2587  -20.1840 C   0  0  0  0  0  0  0  0  0  0  0  0
    3.2027  -49.7126  -20.1624 C   0  0  0  0  0  0  0  0  0  0  0  0
    3.0574  -50.3253  -19.1021 O   0  0  0  0  0  0  0  0  0  0  0  0
    2.8955  -50.3242  -21.3835 N   0  0  0  0  0  0  0  0  0  0  0  0
    2.2057  -51.6173  -21.3312 C   0  0  0  0  0  0  0  0  0  0  0  0
    2.4319  -52.4616  -22.5820 C   0  0  0  0  0  0  0  0  0  0  0  0
    2.0773  -51.7355  -23.7629 O   0  0  0  0  0  0  0  0  0  0  0  0
    2.8728  -50.5531  -23.9313 C   0  0  0  0  0  0  0  0  0  0  0  0
    2.8359  -49.6363  -22.6820 C   0  0  0  0  0  0  0  0  0  0  0  0
    4.2406  -50.8888  -24.5009 C   0  0  0  0  0  0  0  0  0  0  0  0
    5.3843  -50.5025  -23.7797 C   0  0  0  0  0  0  0  0  0  0  0  0
    6.6643  -50.8100  -24.2426 C   0  0  0  0  0  0  0  0  0  0  0  0
    6.8223  -51.4945  -25.4439 C   0  0  0  0  0  0  0  0  0  0  0  0
    5.7018  -51.8612  -26.1854 C   0  0  0  0  0  0  0  0  0  0  0  0
    4.4201  -51.5560  -25.7203 C   0  0  0  0  0  0  0  0  0  0  0  0
   -0.7517  -45.4253  -19.3009 C   0  0  0  0  0  0  0  0  0  0  0  0
    0.0813  -46.4031  -20.1582 C   0  0  0  0  0  0  0  0  0  0  0  0
   -0.5852  -46.4551  -21.5537 C   0  0  0  0  0  0  0  0  0  0  0  0
   -0.0139  -47.7994  -19.5201 C   0  0  0  0  0  0  0  0  0  0  0  0
    2.1066  -46.1999  -21.6206 N   0  0  0  0  0  0  0  0  0  0  0  0
    3.0324  -45.3772  -22.2340 C   0  0  0  0  0  0  0  0  0  0  0  0
    3.4165  -44.3359  -21.7137 O   0  0  0  0  0  0  0  0  0  0  0  0
    1.8138  -47.0467  -22.0803 H   0  0  0  0  0  0  0  0  0  0  0  0
    3.5644  -45.9291  -23.4709 C   0  0  0  0  0  0  0  0  0  0  0  0
    2.9045  -46.3773  -24.5987 C   0  0  0  0  0  0  0  0  0  0  0  0
    3.7733  -47.0237  -25.5413 C   0  0  0  0  0  0  0  0  0  0  0  0
    3.4828  -47.6720  -26.7660 C   0  0  0  0  0  0  0  0  0  0  0  0
    4.5004  -48.2889  -27.5155 C   0  0  0  0  0  0  0  0  0  0  0  0
    5.8164  -48.2282  -27.0562 C   0  0  0  0  0  0  0  0  0  0  0  0
    6.1334  -47.5775  -25.8614 C   0  0  0  0  0  0  0  0  0  0  0  0
    5.0999  -46.9872  -25.1120 C   0  0  0  0  0  0  0  0  0  0  0  0
    5.2511  -46.1563  -23.6148 S   0  0  0  0  0  0  0  0  0  0  0  0
    4.1701  -48.9971  -28.8037 C   0  0  0  0  0  0  0  0  0  0  0  0
    4.5788  -50.2998  -28.8173 F   0  0  0  0  0  0  0  0  0  0  0  0
    4.7279  -48.4175  -29.9055 F   0  0  0  0  0  0  0  0  0  0  0  0
    2.4432  -49.1499  -29.3025 P   0  0  0  0  0  0  0  0  0  0  0  0
    1.6058  -47.9249  -29.5126 O   0  0  0  0  0  0  0  0  0  0  0  0
    2.3865  -50.0731  -30.6267 O   0  0  0  0  0  0  0  0  0  0  0  0
    1.7048  -50.1394  -28.2633 O   0  0  0  0  0  0  0  0  0  0  0  0
    1.5219  -50.0162  -31.0752 H   0  0  0  0  0  0  0  0  0  0  0  0
    0.7329  -50.0890  -28.3304 H   0  0  0  0  0  0  0  0  0  0  0  0
 24 25  1  0  0  0
 25 26  1  0  0  0
 25 27  1  0  0  0
 25  1  1  0  0  0
  1 28  1  0  0  0
 28 29  1  0  0  0
 29 30  2  0  0  0
 29 32  1  0  0  0
 32 33  2  0  0  0
 33 34  1  0  0  0
 34 35  2  0  0  0
 35 36  1  0  0  0
 36 41  1  0  0  0
 41 42  1  0  0  0
 41 43  1  0  0  0
 41 44  1  0  0  0
 44 45  2  0  0  0
 44 46  1  0  0  0
 44 47  1  0  0  0
 36 37  2  0  0  0
 37 38  1  0  0  0
 38 39  2  0  0  0
 39 40  1  0  0  0
  1  2  1  0  0  0
  2  3  2  0  0  0
  2  4  1  0  0  0
  4  5  1  0  0  0
  5  6  1  0  0  0
  6  7  1  0  0  0
  7  8  1  0  0  0
  8  9  1  0  0  0
  9 10  1  0  0  0
 10 11  2  0  0  0
 10 12  1  0  0  0
 12 13  1  0  0  0
 13 14  1  0  0  0
 14 15  1  0  0  0
 15 16  1  0  0  0
 16 18  1  0  0  0
 18 19  2  0  0  0
 19 20  1  0  0  0
 20 21  2  0  0  0
 21 22  1  0  0  0
 22 23  2  0  0  0
 16 17  1  0  0  0
 40 32  1  0  0  0
  9  4  1  0  0  0
 17 12  1  0  0  0
 39 34  1  0  0  0
 23 18  1  0  0  0
 28 31  1  0  0  0
 46 48  1  0  0  0
 47 49  1  0  0  0
M  END
> <minimizedAffinity>
-6.22687

$$$$
