L4:P42226:24276
 OpenBabel09212617533D

 94 99  0  0  0  0  0  0  0  0999 V2000
    3.2827  -48.2508  -28.4809 C   0  0  1  0  0  0  0  0  0  0  0  0
    2.7959  -47.1062  -29.4179 C   0  0  0  0  0  0  0  0  0  0  0  0
    1.5967  -46.9730  -29.6816 O   0  0  0  0  0  0  0  0  0  0  0  0
    3.7359  -46.3696  -30.1195 N   0  0  0  0  0  0  0  0  0  0  0  0
    5.1852  -46.3871  -29.9721 C   0  0  0  0  0  0  0  0  0  0  0  0
    5.6440  -45.0255  -30.4703 C   0  0  0  0  0  0  0  0  0  0  0  0
    4.5999  -44.6635  -31.5127 C   0  0  0  0  0  0  0  0  0  0  0  0
    3.2995  -45.2168  -30.9182 C   0  0  1  0  0  0  0  0  0  0  0  0
    2.2494  -45.3702  -32.0470 C   0  0  0  0  0  0  0  0  0  0  0  0
    2.4771  -46.2044  -32.9349 O   0  0  0  0  0  0  0  0  0  0  0  0
    1.0249  -44.7301  -32.0012 N   0  0  0  0  0  0  0  0  0  0  0  0
    0.4747  -43.9060  -30.9297 C   0  0  0  0  0  0  0  0  0  0  0  0
    0.1238  -42.5133  -31.4621 C   0  0  0  0  0  0  0  0  0  0  0  0
   -0.7925  -42.6027  -32.5634 O   0  0  0  0  0  0  0  0  0  0  0  0
   -0.2190  -43.3678  -33.6509 C   0  0  1  0  0  0  0  0  0  0  0  0
    0.1426  -44.7947  -33.1751 C   0  0  0  0  0  0  0  0  0  0  0  0
   -1.1930  -43.4135  -34.8115 C   0  0  0  0  0  0  0  0  0  0  0  0
   -0.7581  -43.6048  -36.1317 C   0  0  0  0  0  0  0  0  0  0  0  0
   -1.6709  -43.6141  -37.1881 C   0  0  0  0  0  0  0  0  0  0  0  0
   -3.0288  -43.4266  -36.9391 C   0  0  0  0  0  0  0  0  0  0  0  0
   -3.4754  -43.2292  -35.6344 C   0  0  0  0  0  0  0  0  0  0  0  0
   -2.5639  -43.2205  -34.5769 C   0  0  0  0  0  0  0  0  0  0  0  0
    3.1010  -48.0805  -27.0390 N   0  0  0  0  0  0  0  0  0  0  0  0
    3.8227  -47.1412  -26.3227 C   0  0  0  0  0  0  0  0  0  0  0  0
    4.9067  -46.7246  -26.7208 O   0  0  0  0  0  0  0  0  0  0  0  0
    2.2270  -48.3858  -26.6328 H   0  0  0  0  0  0  0  0  0  0  0  0
    3.2247  -46.6934  -25.0734 C   0  0  0  0  0  0  0  0  0  0  0  0
    2.2194  -47.3335  -24.3769 C   0  0  0  0  0  0  0  0  0  0  0  0
    1.8695  -46.6818  -23.1505 C   0  0  0  0  0  0  0  0  0  0  0  0
    0.9196  -47.0323  -22.1606 C   0  0  0  0  0  0  0  0  0  0  0  0
    0.7433  -46.2361  -21.0151 C   0  0  0  0  0  0  0  0  0  0  0  0
    1.5206  -45.0873  -20.8597 C   0  0  0  0  0  0  0  0  0  0  0  0
    2.4662  -44.7193  -21.8211 C   0  0  0  0  0  0  0  0  0  0  0  0
    2.6303  -45.5281  -22.9605 C   0  0  0  0  0  0  0  0  0  0  0  0
    3.7312  -45.2812  -24.2602 S   0  0  0  0  0  0  0  0  0  0  0  0
   -0.2905  -46.6035  -19.9802 C   0  0  0  0  0  0  0  0  0  0  0  0
   -1.5686  -46.3502  -20.3768 F   0  0  0  0  0  0  0  0  0  0  0  0
   -0.2480  -47.9110  -19.6053 F   0  0  0  0  0  0  0  0  0  0  0  0
   -0.2312  -45.7441  -18.3850 P   0  0  0  0  0  0  0  0  0  0  0  0
   -0.5435  -44.2798  -18.3318 O   0  0  0  0  0  0  0  0  0  0  0  0
   -1.1830  -46.5473  -17.3555 O   0  0  0  0  0  0  0  0  0  0  0  0
    1.1869  -46.0832  -17.6866 O   0  0  0  0  0  0  0  0  0  0  0  0
   -1.3022  -46.0167  -16.5423 H   0  0  0  0  0  0  0  0  0  0  0  0
    1.5546  -46.9663  -17.8796 H   0  0  0  0  0  0  0  0  0  0  0  0
    2.8584  -49.6611  -28.9718 C   0  0  0  0  0  0  0  0  0  0  0  0
    4.5285  -53.1265  -26.9282 C   0  0  0  0  0  0  0  0  0  0  0  0
    4.9450  -52.7696  -28.2204 C   0  0  0  0  0  0  0  0  0  0  0  0
    4.4323  -51.6387  -28.8679 C   0  0  0  0  0  0  0  0  0  0  0  0
    3.4798  -50.8308  -28.2451 C   0  0  0  0  0  0  0  0  0  0  0  0
    3.0740  -51.1575  -26.9471 C   0  0  0  0  0  0  0  0  0  0  0  0
    3.5872  -52.2877  -26.3038 C   0  0  0  0  0  0  0  0  0  0  0  0
    3.8848  -55.0755  -25.4621 C   0  0  0  0  0  0  0  0  0  0  0  0
    5.0469  -54.3801  -26.2036 C   0  0  0  0  0  0  0  0  0  0  0  0
    6.1452  -54.0873  -25.1567 C   0  0  0  0  0  0  0  0  0  0  0  0
    5.6488  -55.3576  -27.2370 C   0  0  0  0  0  0  0  0  0  0  0  0
    4.3445  -48.1655  -28.5818 H   0  0  0  0  0  0  0  0  0  0  0  0
    5.6146  -47.1688  -30.5632 H   0  0  0  0  0  0  0  0  0  0  0  0
    5.4858  -46.5692  -28.9615 H   0  0  0  0  0  0  0  0  0  0  0  0
    6.6181  -45.0863  -30.9088 H   0  0  0  0  0  0  0  0  0  0  0  0
    5.7240  -44.2992  -29.6886 H   0  0  0  0  0  0  0  0  0  0  0  0
    4.8194  -45.1269  -32.4518 H   0  0  0  0  0  0  0  0  0  0  0  0
    4.5549  -43.6133  -31.7124 H   0  0  0  0  0  0  0  0  0  0  0  0
    2.7470  -44.5988  -30.2416 H   0  0  0  0  0  0  0  0  0  0  0  0
    1.1988  -43.8134  -30.1474 H   0  0  0  0  0  0  0  0  0  0  0  0
   -0.4126  -44.3699  -30.5524 H   0  0  0  0  0  0  0  0  0  0  0  0
    1.0191  -42.0275  -31.7896 H   0  0  0  0  0  0  0  0  0  0  0  0
   -0.3389  -41.9532  -30.6765 H   0  0  0  0  0  0  0  0  0  0  0  0
    0.6820  -42.8929  -33.9788 H   0  0  0  0  0  0  0  0  0  0  0  0
    0.6431  -45.3145  -33.9652 H   0  0  0  0  0  0  0  0  0  0  0  0
   -0.7554  -45.3120  -32.9088 H   0  0  0  0  0  0  0  0  0  0  0  0
    0.2468  -43.7400  -36.3238 H   0  0  0  0  0  0  0  0  0  0  0  0
   -1.3394  -43.7600  -38.1545 H   0  0  0  0  0  0  0  0  0  0  0  0
   -3.7031  -43.4339  -37.7203 H   0  0  0  0  0  0  0  0  0  0  0  0
   -4.4810  -43.0893  -35.4494 H   0  0  0  0  0  0  0  0  0  0  0  0
   -2.9011  -43.0707  -33.6131 H   0  0  0  0  0  0  0  0  0  0  0  0
    1.7639  -48.1983  -24.7080 H   0  0  0  0  0  0  0  0  0  0  0  0
    0.3490  -47.8836  -22.2815 H   0  0  0  0  0  0  0  0  0  0  0  0
    1.3951  -44.4996  -20.0207 H   0  0  0  0  0  0  0  0  0  0  0  0
    3.0353  -43.8674  -21.6970 H   0  0  0  0  0  0  0  0  0  0  0  0
    1.7963  -49.7380  -28.8676 H   0  0  0  0  0  0  0  0  0  0  0  0
    3.2060  -49.7315  -29.9813 H   0  0  0  0  0  0  0  0  0  0  0  0
    5.6448  -53.3538  -28.7041 H   0  0  0  0  0  0  0  0  0  0  0  0
    4.7624  -51.4000  -29.8161 H   0  0  0  0  0  0  0  0  0  0  0  0
    2.3893  -50.5587  -26.4596 H   0  0  0  0  0  0  0  0  0  0  0  0
    3.2680  -52.5120  -25.3484 H   0  0  0  0  0  0  0  0  0  0  0  0
    4.2521  -55.9463  -24.9604 H   0  0  0  0  0  0  0  0  0  0  0  0
    3.1320  -55.3608  -26.1669 H   0  0  0  0  0  0  0  0  0  0  0  0
    3.4650  -54.4013  -24.7451 H   0  0  0  0  0  0  0  0  0  0  0  0
    6.4535  -55.0033  -24.6975 H   0  0  0  0  0  0  0  0  0  0  0  0
    5.7585  -53.4262  -24.4095 H   0  0  0  0  0  0  0  0  0  0  0  0
    6.9840  -53.6297  -25.6382 H   0  0  0  0  0  0  0  0  0  0  0  0
    6.0099  -56.2304  -26.7342 H   0  0  0  0  0  0  0  0  0  0  0  0
    6.4580  -54.8809  -27.7497 H   0  0  0  0  0  0  0  0  0  0  0  0
    4.8955  -55.6387  -27.9430 H   0  0  0  0  0  0  0  0  0  0  0  0
  1 23  1  0  0  0  0
  1  2  1  0  0  0  0
  1 56  1  6  0  0  0
  2  3  2  0  0  0  0
  2  4  1  0  0  0  0
  4  5  1  0  0  0  0
  5  6  1  0  0  0  0
  5 57  1  0  0  0  0
  5 58  1  0  0  0  0
  6  7  1  0  0  0  0
  6 59  1  0  0  0  0
  6 60  1  0  0  0  0
  7  8  1  0  0  0  0
  7 61  1  0  0  0  0
  7 62  1  0  0  0  0
  8  9  1  0  0  0  0
  8  4  1  0  0  0  0
  8 63  1  1  0  0  0
  9 10  2  0  0  0  0
  9 11  1  0  0  0  0
 11 12  1  0  0  0  0
 12 13  1  0  0  0  0
 12 64  1  0  0  0  0
 12 65  1  0  0  0  0
 13 14  1  0  0  0  0
 13 66  1  0  0  0  0
 13 67  1  0  0  0  0
 14 15  1  0  0  0  0
 15 17  1  0  0  0  0
 15 16  1  0  0  0  0
 15 68  1  6  0  0  0
 16 11  1  0  0  0  0
 16 69  1  0  0  0  0
 16 70  1  0  0  0  0
 17 18  2  0  0  0  0
 18 19  1  0  0  0  0
 18 71  1  0  0  0  0
 19 20  2  0  0  0  0
 19 72  1  0  0  0  0
 20 21  1  0  0  0  0
 20 73  1  0  0  0  0
 21 22  2  0  0  0  0
 21 74  1  0  0  0  0
 22 17  1  0  0  0  0
 22 75  1  0  0  0  0
 23 24  1  0  0  0  0
 23 26  1  0  0  0  0
 24 25  2  0  0  0  0
 24 27  1  0  0  0  0
 27 28  2  0  0  0  0
 28 29  1  0  0  0  0
 28 76  1  0  0  0  0
 29 30  2  0  0  0  0
 30 31  1  0  0  0  0
 30 77  1  0  0  0  0
 31 36  1  0  0  0  0
 31 32  2  0  0  0  0
 32 33  1  0  0  0  0
 32 78  1  0  0  0  0
 33 34  2  0  0  0  0
 33 79  1  0  0  0  0
 34 35  1  0  0  0  0
 34 29  1  0  0  0  0
 35 27  1  0  0  0  0
 36 37  1  0  0  0  0
 36 38  1  0  0  0  0
 36 39  1  0  0  0  0
 39 40  2  0  0  0  0
 39 41  1  0  0  0  0
 39 42  1  0  0  0  0
 41 43  1  0  0  0  0
 42 44  1  0  0  0  0
 45  1  1  0  0  0  0
 45 80  1  0  0  0  0
 45 81  1  0  0  0  0
 46 47  2  0  0  0  0
 47 48  1  0  0  0  0
 47 82  1  0  0  0  0
 48 49  2  0  0  0  0
 48 83  1  0  0  0  0
 49 45  1  0  0  0  0
 49 50  1  0  0  0  0
 50 51  2  0  0  0  0
 50 84  1  0  0  0  0
 51 46  1  0  0  0  0
 51 85  1  0  0  0  0
 52 53  1  0  0  0  0
 52 86  1  0  0  0  0
 52 87  1  0  0  0  0
 52 88  1  0  0  0  0
 53 54  1  0  0  0  0
 53 55  1  0  0  0  0
 53 46  1  0  0  0  0
 54 89  1  0  0  0  0
 54 90  1  0  0  0  0
 54 91  1  0  0  0  0
 55 92  1  0  0  0  0
 55 93  1  0  0  0  0
 55 94  1  0  0  0  0
M  END
>  <minimizedAffinity>
-8.57822

$$$$
