L4:P42226:26786
 OpenBabel09212617543D

 87 92  0  0  0  0  0  0  0  0999 V2000
    5.3284  -47.8068  -28.1011 C   0  0  2  0  0  0  0  0  0  0  0  0
    4.6136  -49.1243  -28.4995 C   0  0  0  0  0  0  0  0  0  0  0  0
    4.5369  -50.0730  -27.7139 O   0  0  0  0  0  0  0  0  0  0  0  0
    3.9624  -49.1766  -29.7154 N   0  0  0  0  0  0  0  0  0  0  0  0
    3.2997  -50.4018  -30.1322 C   0  0  0  0  0  0  0  0  0  0  0  0
    2.6045  -50.0595  -31.4397 C   0  0  0  0  0  0  0  0  0  0  0  0
    3.4371  -48.9049  -31.9858 C   0  0  0  0  0  0  0  0  0  0  0  0
    3.8138  -48.1195  -30.7271 C   0  0  1  0  0  0  0  0  0  0  0  0
    2.6870  -47.1129  -30.3558 C   0  0  0  0  0  0  0  0  0  0  0  0
    2.1971  -47.1055  -29.2214 O   0  0  0  0  0  0  0  0  0  0  0  0
    2.2274  -46.2447  -31.3425 N   0  0  0  0  0  0  0  0  0  0  0  0
    1.3176  -45.1648  -30.9490 C   0  0  0  0  0  0  0  0  0  0  0  0
    0.3788  -44.7454  -32.0776 C   0  0  0  0  0  0  0  0  0  0  0  0
    1.1014  -44.4100  -33.2670 O   0  0  0  0  0  0  0  0  0  0  0  0
    1.9115  -45.4943  -33.7480 C   0  0  1  0  0  0  0  0  0  0  0  0
    2.8571  -46.0602  -32.6563 C   0  0  0  0  0  0  0  0  0  0  0  0
    1.0606  -46.5012  -34.5087 C   0  0  0  0  0  0  0  0  0  0  0  0
    0.6422  -46.3050  -35.8294 C   0  0  0  0  0  0  0  0  0  0  0  0
   -0.1385  -47.2620  -36.4851 C   0  0  0  0  0  0  0  0  0  0  0  0
   -0.5127  -48.4494  -35.8410 C   0  0  0  0  0  0  0  0  0  0  0  0
   -1.2973  -49.4192  -36.4865 C   0  0  0  0  0  0  0  0  0  0  0  0
   -1.6525  -50.5997  -35.8321 C   0  0  0  0  0  0  0  0  0  0  0  0
   -1.2265  -50.8258  -34.5268 C   0  0  0  0  0  0  0  0  0  0  0  0
   -0.4456  -49.8713  -33.8728 C   0  0  0  0  0  0  0  0  0  0  0  0
   -0.0822  -48.6770  -34.5165 C   0  0  0  0  0  0  0  0  0  0  0  0
    0.7027  -47.7043  -33.8726 C   0  0  0  0  0  0  0  0  0  0  0  0
    7.2858  -48.3443  -26.5648 C   0  0  0  0  0  0  0  0  0  0  0  0
    6.8878  -47.9135  -27.9919 C   0  0  0  0  0  0  0  0  0  0  0  0
    7.6217  -46.6048  -28.3450 C   0  0  0  0  0  0  0  0  0  0  0  0
    7.3981  -49.0063  -28.9601 C   0  0  0  0  0  0  0  0  0  0  0  0
    4.7079  -47.3952  -26.8450 N   0  0  0  0  0  0  0  0  0  0  0  0
    4.3931  -46.0852  -26.5583 C   0  0  0  0  0  0  0  0  0  0  0  0
    4.6731  -45.1806  -27.3432 O   0  0  0  0  0  0  0  0  0  0  0  0
    4.4655  -48.1274  -26.1900 H   0  0  0  0  0  0  0  0  0  0  0  0
    3.7139  -45.8850  -25.2883 C   0  0  0  0  0  0  0  0  0  0  0  0
    2.6892  -46.6093  -24.7114 C   0  0  0  0  0  0  0  0  0  0  0  0
    2.2676  -46.0866  -23.4431 C   0  0  0  0  0  0  0  0  0  0  0  0
    1.2601  -46.5335  -22.5530 C   0  0  0  0  0  0  0  0  0  0  0  0
    1.0105  -45.8605  -21.3434 C   0  0  0  0  0  0  0  0  0  0  0  0
    1.7626  -44.7261  -21.0326 C   0  0  0  0  0  0  0  0  0  0  0  0
    2.7606  -44.2617  -21.8946 C   0  0  0  0  0  0  0  0  0  0  0  0
    3.0004  -44.9521  -23.0964 C   0  0  0  0  0  0  0  0  0  0  0  0
    4.1575  -44.5589  -24.3061 S   0  0  0  0  0  0  0  0  0  0  0  0
   -0.0629  -46.3436  -20.4052 C   0  0  0  0  0  0  0  0  0  0  0  0
   -1.3232  -46.0283  -20.8086 F   0  0  0  0  0  0  0  0  0  0  0  0
   -0.0437  -47.6969  -20.2044 F   0  0  0  0  0  0  0  0  0  0  0  0
   -0.0490  -45.7759  -18.6858 P   0  0  0  0  0  0  0  0  0  0  0  0
   -0.5277  -44.3877  -18.3863 O   0  0  0  0  0  0  0  0  0  0  0  0
   -0.8314  -46.8527  -17.7745 O   0  0  0  0  0  0  0  0  0  0  0  0
    1.4411  -46.0477  -18.1197 O   0  0  0  0  0  0  0  0  0  0  0  0
   -0.9549  -46.5061  -16.8696 H   0  0  0  0  0  0  0  0  0  0  0  0
    1.8413  -46.8648  -18.4802 H   0  0  0  0  0  0  0  0  0  0  0  0
    5.2028  -47.0772  -28.8736 H   0  0  0  0  0  0  0  0  0  0  0  0
    2.5852  -50.7095  -29.3976 H   0  0  0  0  0  0  0  0  0  0  0  0
    3.9922  -51.2090  -30.2490 H   0  0  0  0  0  0  0  0  0  0  0  0
    1.5930  -49.7555  -31.2682 H   0  0  0  0  0  0  0  0  0  0  0  0
    2.5454  -50.8891  -32.1129 H   0  0  0  0  0  0  0  0  0  0  0  0
    2.8626  -48.3014  -32.6571 H   0  0  0  0  0  0  0  0  0  0  0  0
    4.2876  -49.2299  -32.5479 H   0  0  0  0  0  0  0  0  0  0  0  0
    4.6972  -47.5251  -30.8330 H   0  0  0  0  0  0  0  0  0  0  0  0
    1.8999  -44.3166  -30.6549 H   0  0  0  0  0  0  0  0  0  0  0  0
    0.7135  -45.5281  -30.1440 H   0  0  0  0  0  0  0  0  0  0  0  0
   -0.1848  -43.8925  -31.7616 H   0  0  0  0  0  0  0  0  0  0  0  0
   -0.2668  -45.5693  -32.2994 H   0  0  0  0  0  0  0  0  0  0  0  0
    2.6049  -45.1276  -34.4757 H   0  0  0  0  0  0  0  0  0  0  0  0
    3.6781  -45.3836  -32.5416 H   0  0  0  0  0  0  0  0  0  0  0  0
    3.1593  -47.0314  -32.9885 H   0  0  0  0  0  0  0  0  0  0  0  0
    0.9135  -45.4422  -36.3264 H   0  0  0  0  0  0  0  0  0  0  0  0
   -0.4433  -47.0918  -37.4563 H   0  0  0  0  0  0  0  0  0  0  0  0
   -1.6146  -49.2571  -37.4551 H   0  0  0  0  0  0  0  0  0  0  0  0
   -2.2307  -51.3044  -36.3159 H   0  0  0  0  0  0  0  0  0  0  0  0
   -1.4878  -51.6988  -34.0424 H   0  0  0  0  0  0  0  0  0  0  0  0
   -0.1317  -50.0452  -32.9052 H   0  0  0  0  0  0  0  0  0  0  0  0
    1.0250  -47.8773  -32.9076 H   0  0  0  0  0  0  0  0  0  0  0  0
    8.3513  -48.4150  -26.4977 H   0  0  0  0  0  0  0  0  0  0  0  0
    6.8506  -49.2968  -26.3454 H   0  0  0  0  0  0  0  0  0  0  0  0
    6.9315  -47.6198  -25.8617 H   0  0  0  0  0  0  0  0  0  0  0  0
    8.6773  -46.7508  -28.2491 H   0  0  0  0  0  0  0  0  0  0  0  0
    7.3071  -45.8286  -27.6791 H   0  0  0  0  0  0  0  0  0  0  0  0
    7.3901  -46.3265  -29.3519 H   0  0  0  0  0  0  0  0  0  0  0  0
    8.4630  -49.0795  -28.8859 H   0  0  0  0  0  0  0  0  0  0  0  0
    7.1273  -48.7492  -29.9628 H   0  0  0  0  0  0  0  0  0  0  0  0
    6.9570  -49.9462  -28.7014 H   0  0  0  0  0  0  0  0  0  0  0  0
    2.2683  -47.4438  -25.1490 H   0  0  0  0  0  0  0  0  0  0  0  0
    0.7005  -47.3659  -22.7959 H   0  0  0  0  0  0  0  0  0  0  0  0
    1.5787  -44.2216  -20.1513 H   0  0  0  0  0  0  0  0  0  0  0  0
    3.3133  -43.4245  -21.6526 H   0  0  0  0  0  0  0  0  0  0  0  0
  1 31  1  0  0  0  0
  1  2  1  0  0  0  0
  1 53  1  6  0  0  0
  2  3  2  0  0  0  0
  2  4  1  0  0  0  0
  4  5  1  0  0  0  0
  5  6  1  0  0  0  0
  5 54  1  0  0  0  0
  5 55  1  0  0  0  0
  6  7  1  0  0  0  0
  6 56  1  0  0  0  0
  6 57  1  0  0  0  0
  7  8  1  0  0  0  0
  7 58  1  0  0  0  0
  7 59  1  0  0  0  0
  8  9  1  0  0  0  0
  8  4  1  0  0  0  0
  8 60  1  6  0  0  0
  9 10  2  0  0  0  0
  9 11  1  0  0  0  0
 11 12  1  0  0  0  0
 12 13  1  0  0  0  0
 12 61  1  0  0  0  0
 12 62  1  0  0  0  0
 13 14  1  0  0  0  0
 13 63  1  0  0  0  0
 13 64  1  0  0  0  0
 14 15  1  0  0  0  0
 15 17  1  0  0  0  0
 15 16  1  0  0  0  0
 15 65  1  6  0  0  0
 16 11  1  0  0  0  0
 16 66  1  0  0  0  0
 16 67  1  0  0  0  0
 17 18  2  0  0  0  0
 18 19  1  0  0  0  0
 18 68  1  0  0  0  0
 19 20  2  0  0  0  0
 19 69  1  0  0  0  0
 20 21  1  0  0  0  0
 21 22  2  0  0  0  0
 21 70  1  0  0  0  0
 22 23  1  0  0  0  0
 22 71  1  0  0  0  0
 23 24  2  0  0  0  0
 23 72  1  0  0  0  0
 24 25  1  0  0  0  0
 24 73  1  0  0  0  0
 25 26  2  0  0  0  0
 25 20  1  0  0  0  0
 26 17  1  0  0  0  0
 26 74  1  0  0  0  0
 27 28  1  0  0  0  0
 27 75  1  0  0  0  0
 27 76  1  0  0  0  0
 27 77  1  0  0  0  0
 28 29  1  0  0  0  0
 28 30  1  0  0  0  0
 28  1  1  0  0  0  0
 29 78  1  0  0  0  0
 29 79  1  0  0  0  0
 29 80  1  0  0  0  0
 30 81  1  0  0  0  0
 30 82  1  0  0  0  0
 30 83  1  0  0  0  0
 31 32  1  0  0  0  0
 31 34  1  0  0  0  0
 32 33  2  0  0  0  0
 32 35  1  0  0  0  0
 35 36  2  0  0  0  0
 36 37  1  0  0  0  0
 36 84  1  0  0  0  0
 37 38  2  0  0  0  0
 38 39  1  0  0  0  0
 38 85  1  0  0  0  0
 39 44  1  0  0  0  0
 39 40  2  0  0  0  0
 40 41  1  0  0  0  0
 40 86  1  0  0  0  0
 41 42  2  0  0  0  0
 41 87  1  0  0  0  0
 42 43  1  0  0  0  0
 42 37  1  0  0  0  0
 43 35  1  0  0  0  0
 44 45  1  0  0  0  0
 44 46  1  0  0  0  0
 44 47  1  0  0  0  0
 47 48  2  0  0  0  0
 47 49  1  0  0  0  0
 47 50  1  0  0  0  0
 49 51  1  0  0  0  0
 50 52  1  0  0  0  0
M  END
>  <minimizedAffinity>
-8.29678

$$$$
