L4:P42226:26786


 52 57  0  0  0  0  0  0  0  0999 V2000
    5.3284  -47.8068  -28.1011 C   0  0  0  0  0  0  0  0  0  0  0  0
    4.6136  -49.1243  -28.4995 C   0  0  0  0  0  0  0  0  0  0  0  0
    4.5369  -50.0730  -27.7139 O   0  0  0  0  0  0  0  0  0  0  0  0
    3.9624  -49.1766  -29.7154 N   0  0  0  0  0  0  0  0  0  0  0  0
    3.2997  -50.4018  -30.1322 C   0  0  0  0  0  0  0  0  0  0  0  0
    2.6045  -50.0595  -31.4397 C   0  0  0  0  0  0  0  0  0  0  0  0
    3.4371  -48.9049  -31.9858 C   0  0  0  0  0  0  0  0  0  0  0  0
    3.8138  -48.1195  -30.7271 C   0  0  0  0  0  0  0  0  0  0  0  0
    2.6870  -47.1129  -30.3558 C   0  0  0  0  0  0  0  0  0  0  0  0
    2.1971  -47.1055  -29.2214 O   0  0  0  0  0  0  0  0  0  0  0  0
    2.2274  -46.2447  -31.3425 N   0  0  0  0  0  0  0  0  0  0  0  0
    1.3176  -45.1648  -30.9490 C   0  0  0  0  0  0  0  0  0  0  0  0
    0.3788  -44.7454  -32.0776 C   0  0  0  0  0  0  0  0  0  0  0  0
    1.1014  -44.4100  -33.2670 O   0  0  0  0  0  0  0  0  0  0  0  0
    1.9115  -45.4943  -33.7480 C   0  0  0  0  0  0  0  0  0  0  0  0
    2.8571  -46.0602  -32.6563 C   0  0  0  0  0  0  0  0  0  0  0  0
    1.0606  -46.5012  -34.5087 C   0  0  0  0  0  0  0  0  0  0  0  0
    0.6422  -46.3050  -35.8294 C   0  0  0  0  0  0  0  0  0  0  0  0
   -0.1385  -47.2620  -36.4851 C   0  0  0  0  0  0  0  0  0  0  0  0
   -0.5127  -48.4494  -35.8410 C   0  0  0  0  0  0  0  0  0  0  0  0
   -1.2973  -49.4192  -36.4865 C   0  0  0  0  0  0  0  0  0  0  0  0
   -1.6525  -50.5997  -35.8321 C   0  0  0  0  0  0  0  0  0  0  0  0
   -1.2265  -50.8258  -34.5268 C   0  0  0  0  0  0  0  0  0  0  0  0
   -0.4456  -49.8713  -33.8728 C   0  0  0  0  0  0  0  0  0  0  0  0
   -0.0822  -48.6770  -34.5165 C   0  0  0  0  0  0  0  0  0  0  0  0
    0.7027  -47.7043  -33.8726 C   0  0  0  0  0  0  0  0  0  0  0  0
    7.2858  -48.3443  -26.5648 C   0  0  0  0  0  0  0  0  0  0  0  0
    6.8878  -47.9135  -27.9919 C   0  0  0  0  0  0  0  0  0  0  0  0
    7.6217  -46.6048  -28.3450 C   0  0  0  0  0  0  0  0  0  0  0  0
    7.3981  -49.0063  -28.9601 C   0  0  0  0  0  0  0  0  0  0  0  0
    4.7079  -47.3952  -26.8450 N   0  0  0  0  0  0  0  0  0  0  0  0
    4.3931  -46.0852  -26.5583 C   0  0  0  0  0  0  0  0  0  0  0  0
    4.6731  -45.1806  -27.3432 O   0  0  0  0  0  0  0  0  0  0  0  0
    4.4655  -48.1274  -26.1900 H   0  0  0  0  0  0  0  0  0  0  0  0
    3.7139  -45.8850  -25.2883 C   0  0  0  0  0  0  0  0  0  0  0  0
    2.6892  -46.6093  -24.7114 C   0  0  0  0  0  0  0  0  0  0  0  0
    2.2676  -46.0866  -23.4431 C   0  0  0  0  0  0  0  0  0  0  0  0
    1.2601  -46.5335  -22.5530 C   0  0  0  0  0  0  0  0  0  0  0  0
    1.0105  -45.8605  -21.3434 C   0  0  0  0  0  0  0  0  0  0  0  0
    1.7626  -44.7261  -21.0326 C   0  0  0  0  0  0  0  0  0  0  0  0
    2.7606  -44.2617  -21.8946 C   0  0  0  0  0  0  0  0  0  0  0  0
    3.0004  -44.9521  -23.0964 C   0  0  0  0  0  0  0  0  0  0  0  0
    4.1575  -44.5589  -24.3061 S   0  0  0  0  0  0  0  0  0  0  0  0
   -0.0629  -46.3436  -20.4052 C   0  0  0  0  0  0  0  0  0  0  0  0
   -1.3232  -46.0283  -20.8086 F   0  0  0  0  0  0  0  0  0  0  0  0
   -0.0437  -47.6969  -20.2044 F   0  0  0  0  0  0  0  0  0  0  0  0
   -0.0490  -45.7759  -18.6858 P   0  0  0  0  0  0  0  0  0  0  0  0
   -0.5277  -44.3877  -18.3863 O   0  0  0  0  0  0  0  0  0  0  0  0
   -0.8314  -46.8527  -17.7745 O   0  0  0  0  0  0  0  0  0  0  0  0
    1.4411  -46.0477  -18.1197 O   0  0  0  0  0  0  0  0  0  0  0  0
   -0.9549  -46.5061  -16.8696 H   0  0  0  0  0  0  0  0  0  0  0  0
    1.8413  -46.8648  -18.4802 H   0  0  0  0  0  0  0  0  0  0  0  0
 27 28  1  0  0  0
 28 29  1  0  0  0
 28 30  1  0  0  0
 28  1  1  0  0  0
  1 31  1  0  0  0
 31 32  1  0  0  0
 32 33  2  0  0  0
 32 35  1  0  0  0
 35 36  2  0  0  0
 36 37  1  0  0  0
 37 38  2  0  0  0
 38 39  1  0  0  0
 39 44  1  0  0  0
 44 45  1  0  0  0
 44 46  1  0  0  0
 44 47  1  0  0  0
 47 48  2  0  0  0
 47 49  1  0  0  0
 47 50  1  0  0  0
 39 40  2  0  0  0
 40 41  1  0  0  0
 41 42  2  0  0  0
 42 43  1  0  0  0
  1  2  1  0  0  0
  2  3  2  0  0  0
  2  4  1  0  0  0
  4  5  1  0  0  0
  5  6  1  0  0  0
  6  7  1  0  0  0
  7  8  1  0  0  0
  8  9  1  0  0  0
  9 10  2  0  0  0
  9 11  1  0  0  0
 11 12  1  0  0  0
 12 13  1  0  0  0
 13 14  1  0  0  0
 14 15  1  0  0  0
 15 17  1  0  0  0
 17 18  2  0  0  0
 18 19  1  0  0  0
 19 20  2  0  0  0
 20 21  1  0  0  0
 21 22  2  0  0  0
 22 23  1  0  0  0
 23 24  2  0  0  0
 24 25  1  0  0  0
 25 26  2  0  0  0
 15 16  1  0  0  0
 43 35  1  0  0  0
  8  4  1  0  0  0
 16 11  1  0  0  0
 42 37  1  0  0  0
 26 17  1  0  0  0
 25 20  1  0  0  0
 31 34  1  0  0  0
 49 51  1  0  0  0
 50 52  1  0  0  0
M  END
> <minimizedAffinity>
-8.29678

$$$$
