L4:P42226:26786
     RDKit          3D

 87 92  0  0  0  0  0  0  0  0999 V2000
    0.4024   -1.6759    5.7318 C   0  0  0  0  0  0  0  0  0  0  0  0
    1.3483   -1.7824    4.5175 C   0  0  0  0  0  0  0  0  0  0  0  0
    2.7762   -1.4041    4.9579 C   0  0  0  0  0  0  0  0  0  0  0  0
    1.3749   -3.2672    4.0856 C   0  0  0  0  0  0  0  0  0  0  0  0
    0.8030   -0.9060    3.3387 C   0  0  2  0  0  0  0  0  0  0  0  0
    1.7262   -0.8539    2.2086 N   0  0  0  0  0  0  0  0  0  0  0  0
    1.5790   -1.6349    1.0836 C   0  0  0  0  0  0  0  0  0  0  0  0
    0.6736   -2.4634    1.0023 O   0  0  0  0  0  0  0  0  0  0  0  0
    2.5566   -1.3865    0.0363 C   0  0  0  0  0  0  0  0  0  0  0  0
    3.2749   -0.2415   -0.2473 C   0  0  0  0  0  0  0  0  0  0  0  0
    4.1398   -0.3799   -1.3840 C   0  0  0  0  0  0  0  0  0  0  0  0
    5.0208    0.5506   -1.9884 C   0  0  0  0  0  0  0  0  0  0  0  0
    5.7869    0.1983   -3.1141 C   0  0  0  0  0  0  0  0  0  0  0  0
    6.7195    1.1950   -3.7486 C   0  0  0  0  0  0  0  0  0  0  0  0
    6.4096    1.4872   -5.0406 F   0  0  0  0  0  0  0  0  0  0  0  0
    6.7793    2.3881   -3.0815 F   0  0  0  0  0  0  0  0  0  0  0  0
    8.4855    0.8077   -3.8480 P   0  0  0  0  0  5  0  0  0  0  0  0
    8.8953   -0.5400   -4.3595 O   0  0  0  0  0  0  0  0  0  0  0  0
    9.2303    1.9762   -4.6738 O   0  0  0  0  0  0  0  0  0  0  0  0
    9.1135    1.1299   -2.3931 O   0  0  0  0  0  0  0  0  0  0  0  0
    5.6574   -1.0862   -3.6456 C   0  0  0  0  0  0  0  0  0  0  0  0
    4.7930   -2.0228   -3.0709 C   0  0  0  0  0  0  0  0  0  0  0  0
    4.0403   -1.6542   -1.9413 C   0  0  0  0  0  0  0  0  0  0  0  0
    2.9124   -2.6278   -1.0829 S   0  0  0  0  0  0  0  0  0  0  0  0
    0.5205    0.5740    3.7065 C   0  0  0  0  0  0  0  0  0  0  0  0
    1.2594    1.1938    4.4765 O   0  0  0  0  0  0  0  0  0  0  0  0
   -0.5147    1.2241    3.0654 N   0  0  0  0  0  0  0  0  0  0  0  0
   -0.8229    2.6051    3.3998 C   0  0  0  0  0  0  0  0  0  0  0  0
   -1.9193    3.0193    2.4323 C   0  0  0  0  0  0  0  0  0  0  0  0
   -2.5895    1.6966    2.0774 C   0  0  0  0  0  0  0  0  0  0  0  0
   -1.4169    0.7143    2.0217 C   0  0  1  0  0  0  0  0  0  0  0  0
   -0.7523    0.7389    0.6151 C   0  0  0  0  0  0  0  0  0  0  0  0
    0.2597    1.4170    0.4080 O   0  0  0  0  0  0  0  0  0  0  0  0
   -1.3450    0.0022   -0.4069 N   0  0  0  0  0  0  0  0  0  0  0  0
   -0.6174   -0.1427   -1.6711 C   0  0  0  0  0  0  0  0  0  0  0  0
   -1.5474   -0.3255   -2.8680 C   0  0  0  0  0  0  0  0  0  0  0  0
   -2.4602   -1.4095   -2.6654 O   0  0  0  0  0  0  0  0  0  0  0  0
   -3.2762   -1.2362   -1.4961 C   0  0  2  0  0  0  0  0  0  0  0  0
   -4.4243   -0.2788   -1.7821 C   0  0  0  0  0  0  0  0  0  0  0  0
   -4.3609    1.0927   -1.5125 C   0  0  0  0  0  0  0  0  0  0  0  0
   -5.4438    1.9310   -1.7949 C   0  0  0  0  0  0  0  0  0  0  0  0
   -6.6177    1.4219   -2.3672 C   0  0  0  0  0  0  0  0  0  0  0  0
   -7.7138    2.2515   -2.6556 C   0  0  0  0  0  0  0  0  0  0  0  0
   -8.8712    1.7281   -3.2339 C   0  0  0  0  0  0  0  0  0  0  0  0
   -8.9461    0.3710   -3.5326 C   0  0  0  0  0  0  0  0  0  0  0  0
   -7.8644   -0.4655   -3.2524 C   0  0  0  0  0  0  0  0  0  0  0  0
   -6.6938    0.0452   -2.6678 C   0  0  0  0  0  0  0  0  0  0  0  0
   -5.5953   -0.7830   -2.3777 C   0  0  0  0  0  0  0  0  0  0  0  0
   -2.4372   -0.9617   -0.2206 C   0  0  0  0  0  0  0  0  0  0  0  0
    0.3946   -0.6673    6.1571 H   0  0  0  0  0  0  0  0  0  0  0  0
   -0.6262   -1.9314    5.4532 H   0  0  0  0  0  0  0  0  0  0  0  0
    0.7083   -2.3594    6.5324 H   0  0  0  0  0  0  0  0  0  0  0  0
    3.1317   -2.0808    5.7443 H   0  0  0  0  0  0  0  0  0  0  0  0
    3.4876   -1.4737    4.1282 H   0  0  0  0  0  0  0  0  0  0  0  0
    2.8325   -0.3920    5.3664 H   0  0  0  0  0  0  0  0  0  0  0  0
    2.0927   -3.4400    3.2770 H   0  0  0  0  0  0  0  0  0  0  0  0
    0.3888   -3.5985    3.7415 H   0  0  0  0  0  0  0  0  0  0  0  0
    1.6670   -3.9167    4.9192 H   0  0  0  0  0  0  0  0  0  0  0  0
   -0.1330   -1.3643    3.0088 H   0  0  0  0  0  0  0  0  0  0  0  0
    2.4738   -0.1736    2.2563 H   0  0  0  0  0  0  0  0  0  0  0  0
    3.1710    0.6818    0.3112 H   0  0  0  0  0  0  0  0  0  0  0  0
    5.0919    1.5530   -1.5686 H   0  0  0  0  0  0  0  0  0  0  0  0
   10.1564    1.7254   -4.8571 H   0  0  0  0  0  0  0  0  0  0  0  0
    8.6969    1.9036   -1.9624 H   0  0  0  0  0  0  0  0  0  0  0  0
    6.2322   -1.3836   -4.5240 H   0  0  0  0  0  0  0  0  0  0  0  0
    4.7034   -3.0199   -3.4949 H   0  0  0  0  0  0  0  0  0  0  0  0
    0.0697    3.2330    3.3164 H   0  0  0  0  0  0  0  0  0  0  0  0
   -1.1738    2.6305    4.4376 H   0  0  0  0  0  0  0  0  0  0  0  0
   -2.6121    3.7442    2.8687 H   0  0  0  0  0  0  0  0  0  0  0  0
   -1.4801    3.4696    1.5342 H   0  0  0  0  0  0  0  0  0  0  0  0
   -3.1613    1.7688    1.1515 H   0  0  0  0  0  0  0  0  0  0  0  0
   -3.2769    1.4090    2.8826 H   0  0  0  0  0  0  0  0  0  0  0  0
   -1.7295   -0.3011    2.2707 H   0  0  0  0  0  0  0  0  0  0  0  0
    0.0040   -1.0378   -1.5617 H   0  0  0  0  0  0  0  0  0  0  0  0
    0.0489    0.7088   -1.8410 H   0  0  0  0  0  0  0  0  0  0  0  0
   -2.1012    0.5931   -3.0857 H   0  0  0  0  0  0  0  0  0  0  0  0
   -0.9549   -0.5595   -3.7586 H   0  0  0  0  0  0  0  0  0  0  0  0
   -3.7424   -2.2151   -1.3188 H   0  0  0  0  0  0  0  0  0  0  0  0
   -3.4609    1.5402   -1.1018 H   0  0  0  0  0  0  0  0  0  0  0  0
   -5.3583    2.9927   -1.5733 H   0  0  0  0  0  0  0  0  0  0  0  0
   -7.6723    3.3153   -2.4332 H   0  0  0  0  0  0  0  0  0  0  0  0
   -9.7119    2.3810   -3.4533 H   0  0  0  0  0  0  0  0  0  0  0  0
   -9.8454   -0.0380   -3.9857 H   0  0  0  0  0  0  0  0  0  0  0  0
   -7.9412   -1.5229   -3.4955 H   0  0  0  0  0  0  0  0  0  0  0  0
   -5.6491   -1.8426   -2.6259 H   0  0  0  0  0  0  0  0  0  0  0  0
   -3.0883   -0.6672    0.6063 H   0  0  0  0  0  0  0  0  0  0  0  0
   -1.9409   -1.8946    0.0753 H   0  0  0  0  0  0  0  0  0  0  0  0
  1  2  1  0
  2  3  1  0
  2  4  1  0
  2  5  1  0
  5  6  1  0
  6  7  1  0
  7  8  2  0
  7  9  1  0
  9 10  2  0
 10 11  1  0
 11 12  2  0
 12 13  1  0
 13 14  1  0
 14 15  1  0
 14 16  1  0
 14 17  1  0
 17 18  2  0
 17 19  1  0
 17 20  1  0
 13 21  2  0
 21 22  1  0
 22 23  2  0
 23 24  1  0
  5 25  1  0
 25 26  2  0
 25 27  1  0
 27 28  1  0
 28 29  1  0
 29 30  1  0
 30 31  1  0
 31 32  1  0
 32 33  2  0
 32 34  1  0
 34 35  1  0
 35 36  1  0
 36 37  1  0
 37 38  1  0
 38 39  1  0
 39 40  2  0
 40 41  1  0
 41 42  2  0
 42 43  1  0
 43 44  2  0
 44 45  1  0
 45 46  2  0
 46 47  1  0
 47 48  2  0
 38 49  1  0
 24  9  1  0
 31 27  1  0
 49 34  1  0
 23 11  1  0
 48 39  1  0
 47 42  1  0
  1 50  1  0
  1 51  1  0
  1 52  1  0
  3 53  1  0
  3 54  1  0
  3 55  1  0
  4 56  1  0
  4 57  1  0
  4 58  1  0
  5 59  1  6
  6 60  1  0
 10 61  1  0
 12 62  1  0
 19 63  1  0
 20 64  1  0
 21 65  1  0
 22 66  1  0
 28 67  1  0
 28 68  1  0
 29 69  1  0
 29 70  1  0
 30 71  1  0
 30 72  1  0
 31 73  1  1
 35 74  1  0
 35 75  1  0
 36 76  1  0
 36 77  1  0
 38 78  1  1
 40 79  1  0
 41 80  1  0
 43 81  1  0
 44 82  1  0
 45 83  1  0
 46 84  1  0
 48 85  1  0
 49 86  1  0
 49 87  1  0
M  END
>  <mol_id>  (1) 
26786

>  <source_index>  (1) 
2

>  <layer>  (1) 
L4

>  <uniprot>  (1) 
P42226

>  <paff>  (1) 
7.0808999999999997

>  <smiles>  (1) 
CC(C)(C)[C@H](NC(=O)c1cc2cc(C(F)(F)P(=O)(O)O)ccc2s1)C(=O)N1CCC[C@H]1C(=O)N1CCOC(c2ccc3ccccc3c2)C1

$$$$
