L4:P42226:41686


 62 69  0  0  0  0  0  0  0  0999 V2000
    3.0307  -48.6286  -32.7261 C   0  0  0  0  0  0  0  0  0  0  0  0
    3.9280  -48.1937  -31.7351 C   0  0  0  0  0  0  0  0  0  0  0  0
    3.4986  -47.5909  -30.5384 C   0  0  0  0  0  0  0  0  0  0  0  0
    2.1171  -47.4240  -30.3809 C   0  0  0  0  0  0  0  0  0  0  0  0
    1.2066  -47.8567  -31.3500 C   0  0  0  0  0  0  0  0  0  0  0  0
    1.6457  -48.4888  -32.5222 C   0  0  0  0  0  0  0  0  0  0  0  0
    4.3948  -47.1782  -29.5671 N   0  0  0  0  0  0  0  0  0  0  0  0
    4.5295  -45.7664  -29.1789 C   0  0  0  0  0  0  0  0  0  0  0  0
    5.9621  -45.4503  -28.6812 C   0  0  0  0  0  0  0  0  0  0  0  0
    6.4806  -46.3100  -27.5962 N   0  0  0  0  0  0  0  0  0  0  0  0
    5.7372  -47.5845  -27.5183 C   0  0  0  0  0  0  0  0  0  0  0  0
    5.2950  -48.1310  -28.8944 C   0  0  0  0  0  0  0  0  0  0  0  0
    6.5225  -45.6431  -26.2855 C   0  0  0  0  0  0  0  0  0  0  0  0
    5.8139  -46.4413  -25.1727 C   0  0  0  0  0  0  0  0  0  0  0  0
    4.8590  -45.6043  -24.3605 C   0  0  0  0  0  0  0  0  0  0  0  0
    4.9915  -44.2001  -24.4253 C   0  0  0  0  0  0  0  0  0  0  0  0
    4.1732  -43.3360  -23.6779 C   0  0  0  0  0  0  0  0  0  0  0  0
    3.1908  -43.8449  -22.8329 C   0  0  0  0  0  0  0  0  0  0  0  0
    3.0605  -45.2186  -22.7633 C   0  0  0  0  0  0  0  0  0  0  0  0
    3.8743  -46.0952  -23.5081 C   0  0  0  0  0  0  0  0  0  0  0  0
    3.4635  -47.4054  -23.1822 N   0  0  0  0  0  0  0  0  0  0  0  0
    3.9812  -48.6392  -23.6895 C   0  0  0  0  0  0  0  0  0  0  0  0
    2.4094  -47.3463  -22.2485 C   0  0  0  0  0  0  0  0  0  0  0  0
    1.8106  -48.2885  -21.7523 O   0  0  0  0  0  0  0  0  0  0  0  0
    2.1665  -45.9848  -21.9995 N   0  0  0  0  0  0  0  0  0  0  0  0
    1.1578  -45.4876  -21.0889 C   0  0  0  0  0  0  0  0  0  0  0  0
   -0.1950  -46.1761  -21.2774 C   0  0  0  0  0  0  0  0  0  0  0  0
   -1.1923  -45.6367  -20.2665 C   0  0  0  0  0  0  0  0  0  0  0  0
   -0.6889  -45.8190  -18.8550 C   0  0  0  0  0  0  0  0  0  0  0  0
   -1.4492  -45.9085  -17.8953 O   0  0  0  0  0  0  0  0  0  0  0  0
    0.6719  -45.7946  -18.6829 N   0  0  0  0  0  0  0  0  0  0  0  0
    1.6477  -45.6179  -19.6386 C   0  0  0  0  0  0  0  0  0  0  0  0
    2.8198  -45.4705  -19.2955 O   0  0  0  0  0  0  0  0  0  0  0  0
    1.0018  -45.8832  -17.7316 H   0  0  0  0  0  0  0  0  0  0  0  0
    0.6502  -48.9283  -33.5135 C   0  0  0  0  0  0  0  0  0  0  0  0
    0.1137  -50.2227  -33.3336 C   0  0  0  0  0  0  0  0  0  0  0  0
   -0.8499  -50.7366  -34.2008 C   0  0  0  0  0  0  0  0  0  0  0  0
   -1.2775  -49.9899  -35.2923 C   0  0  0  0  0  0  0  0  0  0  0  0
   -0.7570  -48.7115  -35.4884 C   0  0  0  0  0  0  0  0  0  0  0  0
    0.2135  -48.1536  -34.6177 C   0  0  0  0  0  0  0  0  0  0  0  0
    0.6656  -46.7344  -34.9658 C   0  0  0  0  0  0  0  0  0  0  0  0
    1.3126  -46.6693  -36.3619 C   0  0  0  0  0  0  0  0  0  0  0  0
    1.9382  -45.2933  -36.6027 C   0  0  0  0  0  0  0  0  0  0  0  0
    0.9352  -44.1675  -36.3643 C   0  0  0  0  0  0  0  0  0  0  0  0
    0.2999  -44.2892  -35.0527 N   0  0  0  0  0  0  0  0  0  0  0  0
    0.2762  -43.1929  -34.2036 C   0  0  0  0  0  0  0  0  0  0  0  0
    0.8705  -42.1467  -34.4676 O   0  0  0  0  0  0  0  0  0  0  0  0
   -0.3471  -45.5858  -34.7994 C   0  0  0  0  0  0  0  0  0  0  0  0
   -0.4899  -43.3416  -32.9022 C   0  0  0  0  0  0  0  0  0  0  0  0
    0.3613  -42.9812  -31.6906 C   0  0  0  0  0  0  0  0  0  0  0  0
   -0.0371  -41.7292  -31.0830 N   0  0  0  0  0  0  0  0  0  0  0  0
   -0.2578  -41.4577  -29.7674 C   0  0  0  0  0  0  0  0  0  0  0  0
   -0.6334  -40.1370  -29.7651 C   0  0  0  0  0  0  0  0  0  0  0  0
   -0.6391  -39.6616  -31.0460 N   0  0  0  0  0  0  0  0  0  0  0  0
   -0.2744  -40.6507  -31.8519 N   0  0  0  0  0  0  0  0  0  0  0  0
   -1.3628  -52.1042  -33.9769 C   0  0  0  0  0  0  0  0  0  0  0  0
   -2.4688  -52.2110  -33.4523 O   0  0  0  0  0  0  0  0  0  0  0  0
   -0.5735  -53.1882  -34.3537 N   0  0  0  0  0  0  0  0  0  0  0  0
    0.6268  -53.1016  -35.1735 C   0  0  0  0  0  0  0  0  0  0  0  0
   -0.9938  -54.5241  -33.9681 C   0  0  0  0  0  0  0  0  0  0  0  0
    4.2197  -48.4246  -34.7906 C   0  0  0  0  0  0  0  0  0  0  0  0
    3.4083  -49.1980  -33.9178 O   0  0  0  0  0  0  0  0  0  0  0  0
 61 62  1  0  0  0
 62  1  1  0  0  0
  1  2  2  0  0  0
  2  3  1  0  0  0
  3  7  1  0  0  0
  7  8  1  0  0  0
  8  9  1  0  0  0
  9 10  1  0  0  0
 10 13  1  0  0  0
 13 14  1  0  0  0
 14 15  1  0  0  0
 15 16  2  0  0  0
 16 17  1  0  0  0
 17 18  2  0  0  0
 18 19  1  0  0  0
 19 20  2  0  0  0
 20 21  1  0  0  0
 21 22  1  0  0  0
 21 23  1  0  0  0
 23 24  2  0  0  0
 23 25  1  0  0  0
 25 26  1  0  0  0
 26 27  1  0  0  0
 27 28  1  0  0  0
 28 29  1  0  0  0
 29 30  2  0  0  0
 29 31  1  0  0  0
 31 32  1  0  0  0
 32 33  2  0  0  0
 10 11  1  0  0  0
 11 12  1  0  0  0
  3  4  2  0  0  0
  4  5  1  0  0  0
  5  6  2  0  0  0
  6 35  1  0  0  0
 35 36  2  0  0  0
 36 37  1  0  0  0
 37 56  1  0  0  0
 56 57  2  0  0  0
 56 58  1  0  0  0
 58 59  1  0  0  0
 58 60  1  0  0  0
 37 38  2  0  0  0
 38 39  1  0  0  0
 39 40  2  0  0  0
 40 41  1  0  0  0
 41 42  1  0  0  0
 42 43  1  0  0  0
 43 44  1  0  0  0
 44 45  1  0  0  0
 45 46  1  0  0  0
 46 47  2  0  0  0
 46 49  1  0  0  0
 49 50  1  0  0  0
 50 51  1  0  0  0
 51 52  1  0  0  0
 52 53  2  0  0  0
 53 54  1  0  0  0
 54 55  2  0  0  0
 45 48  1  0  0  0
  6  1  1  0  0  0
 40 35  1  0  0  0
 48 41  1  0  0  0
 12  7  1  0  0  0
 55 51  1  0  0  0
 20 15  1  0  0  0
 32 26  1  0  0  0
 25 19  1  0  0  0
 31 34  1  0  0  0
M  END
> <minimizedAffinity>
-7.79062

$$$$
