L4:P42226:89566


 66 74  0  0  0  0  0  0  0  0999 V2000
    3.4713  -48.8504  -31.2165 C   0  0  0  0  0  0  0  0  0  0  0  0
    4.2371  -49.0760  -30.0616 C   0  0  0  0  0  0  0  0  0  0  0  0
    3.6415  -49.4001  -28.8338 C   0  0  0  0  0  0  0  0  0  0  0  0
    2.2422  -49.4891  -28.8112 C   0  0  0  0  0  0  0  0  0  0  0  0
    1.4674  -49.2477  -29.9523 C   0  0  0  0  0  0  0  0  0  0  0  0
    2.0692  -48.9179  -31.1728 C   0  0  0  0  0  0  0  0  0  0  0  0
    1.2310  -48.6673  -32.3618 C   0  0  0  0  0  0  0  0  0  0  0  0
    0.7647  -47.3554  -32.5796 C   0  0  0  0  0  0  0  0  0  0  0  0
   -0.0232  -47.0324  -33.6865 C   0  0  0  0  0  0  0  0  0  0  0  0
   -0.3504  -48.0466  -34.5944 C   0  0  0  0  0  0  0  0  0  0  0  0
    0.0907  -49.3665  -34.4124 C   0  0  0  0  0  0  0  0  0  0  0  0
   -0.2465  -50.3569  -35.3528 C   0  0  0  0  0  0  0  0  0  0  0  0
    0.1834  -51.6735  -35.1952 C   0  0  0  0  0  0  0  0  0  0  0  0
    0.9410  -52.0141  -34.0774 C   0  0  0  0  0  0  0  0  0  0  0  0
    1.2974  -51.0400  -33.1407 C   0  0  0  0  0  0  0  0  0  0  0  0
    0.8858  -49.6952  -33.2846 C   0  0  0  0  0  0  0  0  0  0  0  0
   -0.4924  -45.6493  -33.9094 C   0  0  0  0  0  0  0  0  0  0  0  0
   -0.9983  -44.9474  -32.8758 C   0  0  0  0  0  0  0  0  0  0  0  0
   -1.5147  -43.5489  -33.0441 C   0  0  0  0  0  0  0  0  0  0  0  0
   -1.7629  -43.2114  -34.5145 C   0  0  0  0  0  0  0  0  0  0  0  0
   -0.6392  -43.6488  -35.3448 N   0  0  0  0  0  0  0  0  0  0  0  0
    0.0806  -42.8443  -36.2140 C   0  0  0  0  0  0  0  0  0  0  0  0
    0.9445  -43.2948  -36.9673 O   0  0  0  0  0  0  0  0  0  0  0  0
   -0.3404  -45.0847  -35.3095 C   0  0  0  0  0  0  0  0  0  0  0  0
   -0.2418  -41.3661  -36.2144 C   0  0  0  0  0  0  0  0  0  0  0  0
    0.8919  -40.5617  -35.5915 C   0  0  0  0  0  0  0  0  0  0  0  0
    0.7387  -40.4353  -34.1588 N   0  0  0  0  0  0  0  0  0  0  0  0
    1.5284  -40.9565  -33.1791 C   0  0  0  0  0  0  0  0  0  0  0  0
    0.9372  -40.5198  -32.0186 C   0  0  0  0  0  0  0  0  0  0  0  0
   -0.1597  -39.7640  -32.3214 N   0  0  0  0  0  0  0  0  0  0  0  0
   -0.2763  -39.7212  -33.6421 N   0  0  0  0  0  0  0  0  0  0  0  0
    1.4453  -53.3926  -33.8993 C   0  0  0  0  0  0  0  0  0  0  0  0
    2.6276  -53.5979  -34.1655 O   0  0  0  0  0  0  0  0  0  0  0  0
    0.5674  -54.3792  -33.4567 N   0  0  0  0  0  0  0  0  0  0  0  0
    1.0131  -55.7617  -33.4617 C   0  0  0  0  0  0  0  0  0  0  0  0
   -0.7604  -54.1325  -32.9126 C   0  0  0  0  0  0  0  0  0  0  0  0
    4.3815  -49.6421  -27.6803 N   0  0  0  0  0  0  0  0  0  0  0  0
    5.3392  -48.6073  -27.2496 C   0  0  0  0  0  0  0  0  0  0  0  0
    5.7150  -48.7782  -25.7579 C   0  0  0  0  0  0  0  0  0  0  0  0
    6.1928  -50.1403  -25.4220 N   0  0  0  0  0  0  0  0  0  0  0  0
    5.1490  -51.1125  -25.8297 C   0  0  0  0  0  0  0  0  0  0  0  0
    4.7753  -51.0145  -27.3258 C   0  0  0  0  0  0  0  0  0  0  0  0
    6.4801  -50.2878  -23.9831 C   0  0  0  0  0  0  0  0  0  0  0  0
    5.9410  -49.1189  -23.1402 C   0  0  0  0  0  0  0  0  0  0  0  0
    4.5875  -49.4304  -22.5560 C   0  0  0  0  0  0  0  0  0  0  0  0
    4.2578  -50.7842  -22.3299 C   0  0  0  0  0  0  0  0  0  0  0  0
    3.0328  -51.1660  -21.7567 C   0  0  0  0  0  0  0  0  0  0  0  0
    2.0936  -50.2071  -21.3846 C   0  0  0  0  0  0  0  0  0  0  0  0
    2.4141  -48.8808  -21.6037 C   0  0  0  0  0  0  0  0  0  0  0  0
    3.6382  -48.4860  -22.1760 C   0  0  0  0  0  0  0  0  0  0  0  0
    3.6253  -47.0774  -22.2282 N   0  0  0  0  0  0  0  0  0  0  0  0
    4.6339  -46.2111  -22.7638 C   0  0  0  0  0  0  0  0  0  0  0  0
    2.4121  -46.6011  -21.6950 C   0  0  0  0  0  0  0  0  0  0  0  0
    2.0686  -45.4354  -21.5785 O   0  0  0  0  0  0  0  0  0  0  0  0
    1.6606  -47.7279  -21.3216 N   0  0  0  0  0  0  0  0  0  0  0  0
    0.3710  -47.6969  -20.6590 C   0  0  0  0  0  0  0  0  0  0  0  0
    0.4394  -47.6963  -19.1336 C   0  0  0  0  0  0  0  0  0  0  0  0
    0.6905  -46.3208  -18.5441 C   0  0  0  0  0  0  0  0  0  0  0  0
   -0.2515  -45.2841  -19.1050 C   0  0  0  0  0  0  0  0  0  0  0  0
   -0.5748  -44.2831  -18.4697 O   0  0  0  0  0  0  0  0  0  0  0  0
   -0.7258  -45.4937  -20.3746 N   0  0  0  0  0  0  0  0  0  0  0  0
   -0.4922  -46.5591  -21.2106 C   0  0  0  0  0  0  0  0  0  0  0  0
   -0.9278  -46.5555  -22.3619 O   0  0  0  0  0  0  0  0  0  0  0  0
   -1.2931  -44.7505  -20.7564 H   0  0  0  0  0  0  0  0  0  0  0  0
    5.2437  -47.7123  -32.2329 C   0  0  0  0  0  0  0  0  0  0  0  0
    4.0608  -48.4912  -32.4055 O   0  0  0  0  0  0  0  0  0  0  0  0
 65 66  1  0  0  0
 66  1  1  0  0  0
  1  2  2  0  0  0
  2  3  1  0  0  0
  3 37  1  0  0  0
 37 38  1  0  0  0
 38 39  1  0  0  0
 39 40  1  0  0  0
 40 43  1  0  0  0
 43 44  1  0  0  0
 44 45  1  0  0  0
 45 46  2  0  0  0
 46 47  1  0  0  0
 47 48  2  0  0  0
 48 49  1  0  0  0
 49 50  2  0  0  0
 50 51  1  0  0  0
 51 52  1  0  0  0
 51 53  1  0  0  0
 53 54  2  0  0  0
 53 55  1  0  0  0
 55 56  1  0  0  0
 56 57  1  0  0  0
 57 58  1  0  0  0
 58 59  1  0  0  0
 59 60  2  0  0  0
 59 61  1  0  0  0
 61 62  1  0  0  0
 62 63  2  0  0  0
 40 41  1  0  0  0
 41 42  1  0  0  0
  3  4  2  0  0  0
  4  5  1  0  0  0
  5  6  2  0  0  0
  6  7  1  0  0  0
  7  8  2  0  0  0
  8  9  1  0  0  0
  9 17  1  0  0  0
 17 18  2  0  0  0
 18 19  1  0  0  0
 19 20  1  0  0  0
 20 21  1  0  0  0
 21 22  1  0  0  0
 22 23  2  0  0  0
 22 25  1  0  0  0
 25 26  1  0  0  0
 26 27  1  0  0  0
 27 28  1  0  0  0
 28 29  2  0  0  0
 29 30  1  0  0  0
 30 31  2  0  0  0
 21 24  1  0  0  0
  9 10  2  0  0  0
 10 11  1  0  0  0
 11 12  2  0  0  0
 12 13  1  0  0  0
 13 14  2  0  0  0
 14 32  1  0  0  0
 32 33  2  0  0  0
 32 34  1  0  0  0
 34 35  1  0  0  0
 34 36  1  0  0  0
 14 15  1  0  0  0
 15 16  2  0  0  0
  6  1  1  0  0  0
 16  7  1  0  0  0
 42 37  1  0  0  0
 24 17  1  0  0  0
 16 11  1  0  0  0
 50 45  1  0  0  0
 62 56  1  0  0  0
 31 27  1  0  0  0
 55 49  1  0  0  0
 61 64  1  0  0  0
M  END
> <minimizedAffinity>
-8.34156

$$$$
