L4:P42226:89566
     RDKit          3D

119127  0  0  0  0  0  0  0  0999 V2000
   -2.0317   -2.0743   -3.5503 C   0  0  0  0  0  0  0  0  0  0  0  0
   -2.7163   -1.2703   -2.5907 O   0  0  0  0  0  0  0  0  0  0  0  0
   -2.1287   -1.2931   -1.3480 C   0  0  0  0  0  0  0  0  0  0  0  0
   -0.7639   -1.0092   -1.1811 C   0  0  0  0  0  0  0  0  0  0  0  0
   -0.1651   -0.9872    0.0870 C   0  0  0  0  0  0  0  0  0  0  0  0
    1.1883   -0.7228    0.2745 N   0  0  0  0  0  0  0  0  0  0  0  0
    1.5538    0.3473    1.2205 C   0  0  0  0  0  0  0  0  0  0  0  0
    3.0244    0.2079    1.6825 C   0  0  0  0  0  0  0  0  0  0  0  0
    3.9891    0.1153    0.5611 N   0  0  0  0  0  0  0  0  0  0  0  0
    5.3718   -0.0817    1.0342 C   0  0  0  0  0  0  0  0  0  0  0  0
    5.9485    1.1595    1.7373 C   0  0  0  0  0  0  0  0  0  0  0  0
    7.4275    1.0208    1.9892 C   0  0  0  0  0  0  0  0  0  0  0  0
    7.8417    0.4307    3.2028 C   0  0  0  0  0  0  0  0  0  0  0  0
    9.1988    0.2293    3.5073 C   0  0  0  0  0  0  0  0  0  0  0  0
   10.1920    0.6072    2.6069 C   0  0  0  0  0  0  0  0  0  0  0  0
    9.7895    1.1841    1.4174 C   0  0  0  0  0  0  0  0  0  0  0  0
    8.4334    1.3900    1.1007 C   0  0  0  0  0  0  0  0  0  0  0  0
    8.4011    1.9734   -0.1821 N   0  0  0  0  0  0  0  0  0  0  0  0
    7.2502    2.4030   -0.9207 C   0  0  0  0  0  0  0  0  0  0  0  0
    9.7172    2.1275   -0.6587 C   0  0  0  0  0  0  0  0  0  0  0  0
   10.0589    2.5915   -1.7350 O   0  0  0  0  0  0  0  0  0  0  0  0
   10.5735    1.6468    0.3461 N   0  0  0  0  0  0  0  0  0  0  0  0
   12.0169    1.5484    0.2449 C   0  0  1  0  0  0  0  0  0  0  0  0
   12.5164    0.4021   -0.6314 C   0  0  0  0  0  0  0  0  0  0  0  0
   12.5110    0.7319   -2.1126 C   0  0  0  0  0  0  0  0  0  0  0  0
   13.1870    2.0496   -2.4015 C   0  0  0  0  0  0  0  0  0  0  0  0
   13.7294    2.2832   -3.4791 O   0  0  0  0  0  0  0  0  0  0  0  0
   13.1575    2.9967   -1.4101 N   0  0  0  0  0  0  0  0  0  0  0  0
   12.6239    2.8980   -0.1476 C   0  0  0  0  0  0  0  0  0  0  0  0
   12.6037    3.8764    0.5991 O   0  0  0  0  0  0  0  0  0  0  0  0
    3.5865   -1.0195   -0.3055 C   0  0  0  0  0  0  0  0  0  0  0  0
    2.1393   -0.9000   -0.8338 C   0  0  0  0  0  0  0  0  0  0  0  0
   -0.9933   -1.2625    1.1846 C   0  0  0  0  0  0  0  0  0  0  0  0
   -2.3596   -1.5283    1.0318 C   0  0  0  0  0  0  0  0  0  0  0  0
   -2.9513   -1.5417   -0.2372 C   0  0  0  0  0  0  0  0  0  0  0  0
   -4.3939   -1.8240   -0.3727 C   0  0  0  0  0  0  0  0  0  0  0  0
   -5.3030   -0.7917   -0.0663 C   0  0  0  0  0  0  0  0  0  0  0  0
   -6.6831   -0.9734   -0.1799 C   0  0  0  0  0  0  0  0  0  0  0  0
   -7.6234    0.1230    0.1308 C   0  0  0  0  0  0  0  0  0  0  0  0
   -8.5873   -0.0730    1.0524 C   0  0  0  0  0  0  0  0  0  0  0  0
   -9.5875    0.9922    1.3925 C   0  0  0  0  0  0  0  0  0  0  0  0
   -9.6260    2.0911    0.3302 C   0  0  0  0  0  0  0  0  0  0  0  0
   -8.2708    2.4964   -0.0473 N   0  0  0  0  0  0  0  0  0  0  0  0
   -7.7796    3.7920   -0.0153 C   0  0  0  0  0  0  0  0  0  0  0  0
   -6.6652    4.0859   -0.4494 O   0  0  0  0  0  0  0  0  0  0  0  0
   -8.6784    4.8572    0.5736 C   0  0  0  0  0  0  0  0  0  0  0  0
   -7.9557    6.1957    0.6536 C   0  0  0  0  0  0  0  0  0  0  0  0
   -8.8237    7.2485    1.1333 N   0  0  0  0  0  0  0  0  0  0  0  0
   -9.2549    8.3537    0.4641 C   0  0  0  0  0  0  0  0  0  0  0  0
  -10.0557    8.9948    1.3777 C   0  0  0  0  0  0  0  0  0  0  0  0
  -10.0888    8.2766    2.5392 N   0  0  0  0  0  0  0  0  0  0  0  0
   -9.3235    7.2047    2.3805 N   0  0  0  0  0  0  0  0  0  0  0  0
   -7.4181    1.4375   -0.5987 C   0  0  0  0  0  0  0  0  0  0  0  0
   -7.1616   -2.2168   -0.6100 C   0  0  0  0  0  0  0  0  0  0  0  0
   -6.2902   -3.2720   -0.9217 C   0  0  0  0  0  0  0  0  0  0  0  0
   -6.8067   -4.5035   -1.3638 C   0  0  0  0  0  0  0  0  0  0  0  0
   -5.9607   -5.5645   -1.6829 C   0  0  0  0  0  0  0  0  0  0  0  0
   -4.5845   -5.4055   -1.5408 C   0  0  0  0  0  0  0  0  0  0  0  0
   -3.6571   -6.4975   -1.9069 C   0  0  0  0  0  0  0  0  0  0  0  0
   -2.8303   -6.2625   -2.7855 O   0  0  0  0  0  0  0  0  0  0  0  0
   -3.7709   -7.7242   -1.2571 N   0  0  0  0  0  0  0  0  0  0  0  0
   -2.9888   -8.8466   -1.7455 C   0  0  0  0  0  0  0  0  0  0  0  0
   -4.5689   -7.9661   -0.0635 C   0  0  0  0  0  0  0  0  0  0  0  0
   -4.0534   -4.1843   -1.1167 C   0  0  0  0  0  0  0  0  0  0  0  0
   -4.8889   -3.0887   -0.8001 C   0  0  0  0  0  0  0  0  0  0  0  0
   -1.6819   -3.0207   -3.1227 H   0  0  0  0  0  0  0  0  0  0  0  0
   -1.1977   -1.5185   -3.9895 H   0  0  0  0  0  0  0  0  0  0  0  0
   -2.7377   -2.3089   -4.3527 H   0  0  0  0  0  0  0  0  0  0  0  0
   -0.1760   -0.7604   -2.0577 H   0  0  0  0  0  0  0  0  0  0  0  0
    0.9238    0.3416    2.1163 H   0  0  0  0  0  0  0  0  0  0  0  0
    1.4133    1.3200    0.7314 H   0  0  0  0  0  0  0  0  0  0  0  0
    3.2528    1.0825    2.3011 H   0  0  0  0  0  0  0  0  0  0  0  0
    3.1084   -0.6794    2.3243 H   0  0  0  0  0  0  0  0  0  0  0  0
    6.0073   -0.3127    0.1696 H   0  0  0  0  0  0  0  0  0  0  0  0
    5.4367   -0.9533    1.6998 H   0  0  0  0  0  0  0  0  0  0  0  0
    5.4443    1.3117    2.7003 H   0  0  0  0  0  0  0  0  0  0  0  0
    5.7395    2.0702    1.1706 H   0  0  0  0  0  0  0  0  0  0  0  0
    7.0979    0.1156    3.9345 H   0  0  0  0  0  0  0  0  0  0  0  0
    9.4736   -0.2256    4.4569 H   0  0  0  0  0  0  0  0  0  0  0  0
   11.2334    0.4485    2.8562 H   0  0  0  0  0  0  0  0  0  0  0  0
    7.5457    2.7741   -1.9068 H   0  0  0  0  0  0  0  0  0  0  0  0
    6.7610    3.2218   -0.3868 H   0  0  0  0  0  0  0  0  0  0  0  0
    6.5639    1.5671   -1.0659 H   0  0  0  0  0  0  0  0  0  0  0  0
   12.4087    1.3634    1.2525 H   0  0  0  0  0  0  0  0  0  0  0  0
   13.5525    0.1792   -0.3421 H   0  0  0  0  0  0  0  0  0  0  0  0
   11.9360   -0.5097   -0.4483 H   0  0  0  0  0  0  0  0  0  0  0  0
   13.0512   -0.0527   -2.6550 H   0  0  0  0  0  0  0  0  0  0  0  0
   11.4957    0.7583   -2.5155 H   0  0  0  0  0  0  0  0  0  0  0  0
   13.5493    3.8952   -1.6536 H   0  0  0  0  0  0  0  0  0  0  0  0
    4.2568   -1.0727   -1.1721 H   0  0  0  0  0  0  0  0  0  0  0  0
    3.6860   -1.9654    0.2442 H   0  0  0  0  0  0  0  0  0  0  0  0
    1.9130   -1.8155   -1.3942 H   0  0  0  0  0  0  0  0  0  0  0  0
    2.0700   -0.0494   -1.5238 H   0  0  0  0  0  0  0  0  0  0  0  0
   -0.5740   -1.2986    2.1867 H   0  0  0  0  0  0  0  0  0  0  0  0
   -2.9590   -1.7364    1.9155 H   0  0  0  0  0  0  0  0  0  0  0  0
   -4.9080    0.1666    0.2691 H   0  0  0  0  0  0  0  0  0  0  0  0
   -8.6688   -1.0134    1.5919 H   0  0  0  0  0  0  0  0  0  0  0  0
  -10.5842    0.5476    1.4883 H   0  0  0  0  0  0  0  0  0  0  0  0
   -9.3213    1.4190    2.3668 H   0  0  0  0  0  0  0  0  0  0  0  0
  -10.2261    2.9281    0.6922 H   0  0  0  0  0  0  0  0  0  0  0  0
  -10.1146    1.7238   -0.5814 H   0  0  0  0  0  0  0  0  0  0  0  0
   -8.9900    4.5437    1.5765 H   0  0  0  0  0  0  0  0  0  0  0  0
   -9.5700    4.9523   -0.0572 H   0  0  0  0  0  0  0  0  0  0  0  0
   -7.5793    6.5014   -0.3298 H   0  0  0  0  0  0  0  0  0  0  0  0
   -7.0990    6.1467    1.3362 H   0  0  0  0  0  0  0  0  0  0  0  0
   -8.9682    8.5819   -0.5514 H   0  0  0  0  0  0  0  0  0  0  0  0
  -10.6032    9.9195    1.2676 H   0  0  0  0  0  0  0  0  0  0  0  0
   -7.6910    1.3209   -1.6544 H   0  0  0  0  0  0  0  0  0  0  0  0
   -6.3710    1.7518   -0.5558 H   0  0  0  0  0  0  0  0  0  0  0  0
   -8.2356   -2.3609   -0.7170 H   0  0  0  0  0  0  0  0  0  0  0  0
   -7.8807   -4.6404   -1.4760 H   0  0  0  0  0  0  0  0  0  0  0  0
   -6.3738   -6.4998   -2.0505 H   0  0  0  0  0  0  0  0  0  0  0  0
   -2.2230   -9.0900   -1.0029 H   0  0  0  0  0  0  0  0  0  0  0  0
   -2.5007   -8.6246   -2.6980 H   0  0  0  0  0  0  0  0  0  0  0  0
   -3.6516   -9.7062   -1.8819 H   0  0  0  0  0  0  0  0  0  0  0  0
   -3.9682   -8.5274    0.6587 H   0  0  0  0  0  0  0  0  0  0  0  0
   -4.8925   -7.0398    0.4143 H   0  0  0  0  0  0  0  0  0  0  0  0
   -5.4433   -8.5597   -0.3450 H   0  0  0  0  0  0  0  0  0  0  0  0
   -2.9711   -4.0946   -1.0439 H   0  0  0  0  0  0  0  0  0  0  0  0
  1  2  1  0
  2  3  1  0
  3  4  2  0
  4  5  1  0
  5  6  1  0
  6  7  1  0
  7  8  1  0
  8  9  1  0
  9 10  1  0
 10 11  1  0
 11 12  1  0
 12 13  2  0
 13 14  1  0
 14 15  2  0
 15 16  1  0
 16 17  2  0
 17 18  1  0
 18 19  1  0
 18 20  1  0
 20 21  2  0
 20 22  1  0
 22 23  1  0
 23 24  1  0
 24 25  1  0
 25 26  1  0
 26 27  2  0
 26 28  1  0
 28 29  1  0
 29 30  2  0
  9 31  1  0
 31 32  1  0
  5 33  2  0
 33 34  1  0
 34 35  2  0
 35 36  1  0
 36 37  2  0
 37 38  1  0
 38 39  1  0
 39 40  2  0
 40 41  1  0
 41 42  1  0
 42 43  1  0
 43 44  1  0
 44 45  2  0
 44 46  1  0
 46 47  1  0
 47 48  1  0
 48 49  1  0
 49 50  2  0
 50 51  1  0
 51 52  2  0
 43 53  1  0
 38 54  2  0
 54 55  1  0
 55 56  2  0
 56 57  1  0
 57 58  2  0
 58 59  1  0
 59 60  2  0
 59 61  1  0
 61 62  1  0
 61 63  1  0
 58 64  1  0
 64 65  2  0
 35  3  1  0
 65 36  1  0
 32  6  1  0
 53 39  1  0
 65 55  1  0
 17 12  1  0
 29 23  1  0
 52 48  1  0
 22 16  1  0
  1 66  1  0
  1 67  1  0
  1 68  1  0
  4 69  1  0
  7 70  1  0
  7 71  1  0
  8 72  1  0
  8 73  1  0
 10 74  1  0
 10 75  1  0
 11 76  1  0
 11 77  1  0
 13 78  1  0
 14 79  1  0
 15 80  1  0
 19 81  1  0
 19 82  1  0
 19 83  1  0
 23 84  1  1
 24 85  1  0
 24 86  1  0
 25 87  1  0
 25 88  1  0
 28 89  1  0
 31 90  1  0
 31 91  1  0
 32 92  1  0
 32 93  1  0
 33 94  1  0
 34 95  1  0
 37 96  1  0
 40 97  1  0
 41 98  1  0
 41 99  1  0
 42100  1  0
 42101  1  0
 46102  1  0
 46103  1  0
 47104  1  0
 47105  1  0
 49106  1  0
 50107  1  0
 53108  1  0
 53109  1  0
 54110  1  0
 56111  1  0
 57112  1  0
 62113  1  0
 62114  1  0
 62115  1  0
 63116  1  0
 63117  1  0
 63118  1  0
 64119  1  0
M  END
>  <mol_id>  (1) 
89566

>  <source_index>  (1) 
4

>  <layer>  (1) 
L4

>  <uniprot>  (1) 
P42226

>  <paff>  (1) 
7

>  <smiles>  (1) 
COc1cc(N2CCN(CCc3cccc4c3n(C)c(=O)n4C3CCC(=O)NC3=O)CC2)ccc1-c1cc(C2=CCCN(C(=O)CCn3ccnn3)C2)cc2ccc(C(=O)N(C)C)cc12

$$$$
