L4:P42226:94248
 OpenBabel09212617573D

 81 85  0  0  0  0  0  0  0  0999 V2000
    5.6231  -48.1299  -27.6457 C   0  0  2  0  0  0  0  0  0  0  0  0
    4.9525  -49.4619  -28.0880 C   0  0  0  0  0  0  0  0  0  0  0  0
    4.8831  -50.4344  -27.3331 O   0  0  0  0  0  0  0  0  0  0  0  0
    4.3725  -49.5154  -29.3408 N   0  0  0  0  0  0  0  0  0  0  0  0
    3.7950  -50.7582  -29.8283 C   0  0  0  0  0  0  0  0  0  0  0  0
    3.1908  -50.4214  -31.1839 C   0  0  0  0  0  0  0  0  0  0  0  0
    3.9959  -49.2077  -31.6394 C   0  0  0  0  0  0  0  0  0  0  0  0
    4.2373  -48.4425  -30.3342 C   0  0  1  0  0  0  0  0  0  0  0  0
    3.0183  -47.5274  -30.0362 C   0  0  0  0  0  0  0  0  0  0  0  0
    2.2404  -47.7782  -29.1099 O   0  0  0  0  0  0  0  0  0  0  0  0
    2.7965  -46.4535  -30.8826 N   0  0  0  0  0  0  0  0  0  0  0  0
    3.7090  -45.9955  -31.9357 C   0  0  0  0  0  0  0  0  0  0  0  0
    3.3633  -44.5759  -32.3943 C   0  0  0  0  0  0  0  0  0  0  0  0
    2.0190  -44.4462  -32.8746 O   0  0  0  0  0  0  0  0  0  0  0  0
    1.0401  -45.2541  -32.1763 C   0  0  2  0  0  0  0  0  0  0  0  0
    1.5470  -45.6895  -30.7797 C   0  0  0  0  0  0  0  0  0  0  0  0
    0.5765  -46.3757  -33.1055 C   0  0  0  0  0  0  0  0  0  0  0  0
    0.4919  -46.1367  -34.4895 C   0  0  0  0  0  0  0  0  0  0  0  0
    0.0546  -47.1281  -35.3708 C   0  0  0  0  0  0  0  0  0  0  0  0
   -0.3203  -48.3765  -34.8840 C   0  0  0  0  0  0  0  0  0  0  0  0
   -0.2625  -48.6301  -33.5174 C   0  0  0  0  0  0  0  0  0  0  0  0
    0.1758  -47.6376  -32.6351 C   0  0  0  0  0  0  0  0  0  0  0  0
    7.4504  -48.6023  -25.9366 C   0  0  0  0  0  0  0  0  0  0  0  0
    7.1719  -48.2100  -27.4070 C   0  0  0  0  0  0  0  0  0  0  0  0
    7.8164  -46.8254  -27.6351 C   0  0  0  0  0  0  0  0  0  0  0  0
    7.8750  -49.2500  -28.3020 C   0  0  0  0  0  0  0  0  0  0  0  0
    4.9064  -47.6761  -26.4535 N   0  0  0  0  0  0  0  0  0  0  0  0
    4.3158  -46.4338  -26.3585 C   0  0  0  0  0  0  0  0  0  0  0  0
    4.3669  -45.6388  -27.2962 O   0  0  0  0  0  0  0  0  0  0  0  0
    4.8248  -48.3345  -25.6895 H   0  0  0  0  0  0  0  0  0  0  0  0
    3.6317  -46.1655  -25.1019 C   0  0  0  0  0  0  0  0  0  0  0  0
    2.6150  -46.8592  -24.4741 C   0  0  0  0  0  0  0  0  0  0  0  0
    2.1876  -46.2551  -23.2440 C   0  0  0  0  0  0  0  0  0  0  0  0
    1.1849  -46.6507  -22.3250 C   0  0  0  0  0  0  0  0  0  0  0  0
    0.9266  -45.8972  -21.1658 C   0  0  0  0  0  0  0  0  0  0  0  0
    1.6742  -44.7420  -20.9261 C   0  0  0  0  0  0  0  0  0  0  0  0
    2.6682  -44.3283  -21.8180 C   0  0  0  0  0  0  0  0  0  0  0  0
    2.9111  -45.0946  -22.9731 C   0  0  0  0  0  0  0  0  0  0  0  0
    4.0662  -44.7745  -24.2049 S   0  0  0  0  0  0  0  0  0  0  0  0
   -0.1315  -46.3385  -20.1913 C   0  0  0  0  0  0  0  0  0  0  0  0
   -1.3544  -45.7735  -20.4404 F   0  0  0  0  0  0  0  0  0  0  0  0
   -0.3318  -47.6849  -20.1430 F   0  0  0  0  0  0  0  0  0  0  0  0
    0.0635  -45.9071  -18.4436 P   0  0  0  0  0  0  0  0  0  0  0  0
    1.4153  -46.0404  -17.8119 O   0  0  0  0  0  0  0  0  0  0  0  0
   -0.5464  -44.4160  -18.2783 O   0  0  0  0  0  0  0  0  0  0  0  0
   -1.0494  -46.6910  -17.5780 O   0  0  0  0  0  0  0  0  0  0  0  0
   -1.3359  -44.2752  -18.8402 H   0  0  0  0  0  0  0  0  0  0  0  0
   -0.8826  -46.5697  -16.6223 H   0  0  0  0  0  0  0  0  0  0  0  0
    5.5453  -47.4272  -28.4488 H   0  0  0  0  0  0  0  0  0  0  0  0
    3.0378  -51.1071  -29.1576 H   0  0  0  0  0  0  0  0  0  0  0  0
    4.5278  -51.5344  -29.9020 H   0  0  0  0  0  0  0  0  0  0  0  0
    2.1528  -50.1790  -31.0907 H   0  0  0  0  0  0  0  0  0  0  0  0
    3.2371  -51.2365  -31.8756 H   0  0  0  0  0  0  0  0  0  0  0  0
    3.4383  -48.6155  -32.3345 H   0  0  0  0  0  0  0  0  0  0  0  0
    4.9005  -49.4691  -32.1476 H   0  0  0  0  0  0  0  0  0  0  0  0
    5.0917  -47.7986  -30.3508 H   0  0  0  0  0  0  0  0  0  0  0  0
    3.6368  -46.6590  -32.7720 H   0  0  0  0  0  0  0  0  0  0  0  0
    4.7036  -45.9897  -31.5411 H   0  0  0  0  0  0  0  0  0  0  0  0
    4.0333  -44.3010  -33.1820 H   0  0  0  0  0  0  0  0  0  0  0  0
    3.4582  -43.9359  -31.5421 H   0  0  0  0  0  0  0  0  0  0  0  0
    0.1662  -44.6830  -31.9417 H   0  0  0  0  0  0  0  0  0  0  0  0
    0.8023  -46.2997  -30.3128 H   0  0  0  0  0  0  0  0  0  0  0  0
    1.7340  -44.8110  -30.1982 H   0  0  0  0  0  0  0  0  0  0  0  0
    0.7580  -45.2112  -34.8605 H   0  0  0  0  0  0  0  0  0  0  0  0
    0.0095  -46.9346  -36.3835 H   0  0  0  0  0  0  0  0  0  0  0  0
   -0.6400  -49.1114  -35.5342 H   0  0  0  0  0  0  0  0  0  0  0  0
   -0.5440  -49.5538  -33.1535 H   0  0  0  0  0  0  0  0  0  0  0  0
    0.2054  -47.8351  -31.6226 H   0  0  0  0  0  0  0  0  0  0  0  0
    8.5069  -48.6564  -25.7759 H   0  0  0  0  0  0  0  0  0  0  0  0
    7.0093  -49.5554  -25.7321 H   0  0  0  0  0  0  0  0  0  0  0  0
    7.0277  -47.8664  -25.2849 H   0  0  0  0  0  0  0  0  0  0  0  0
    8.8715  -46.8915  -27.4698 H   0  0  0  0  0  0  0  0  0  0  0  0
    7.3923  -46.1179  -26.9536 H   0  0  0  0  0  0  0  0  0  0  0  0
    7.6320  -46.5073  -28.6400 H   0  0  0  0  0  0  0  0  0  0  0  0
    8.9236  -49.2530  -28.0892 H   0  0  0  0  0  0  0  0  0  0  0  0
    7.7205  -48.9982  -29.3304 H   0  0  0  0  0  0  0  0  0  0  0  0
    7.4688  -50.2206  -28.1076 H   0  0  0  0  0  0  0  0  0  0  0  0
    2.2032  -47.7266  -24.8524 H   0  0  0  0  0  0  0  0  0  0  0  0
    0.6355  -47.5048  -22.5088 H   0  0  0  0  0  0  0  0  0  0  0  0
    1.4899  -44.1850  -20.0771 H   0  0  0  0  0  0  0  0  0  0  0  0
    3.2158  -43.4735  -21.6320 H   0  0  0  0  0  0  0  0  0  0  0  0
  1 27  1  0  0  0  0
  1  2  1  0  0  0  0
  1 49  1  6  0  0  0
  2  3  2  0  0  0  0
  2  4  1  0  0  0  0
  4  5  1  0  0  0  0
  5  6  1  0  0  0  0
  5 50  1  0  0  0  0
  5 51  1  0  0  0  0
  6  7  1  0  0  0  0
  6 52  1  0  0  0  0
  6 53  1  0  0  0  0
  7  8  1  0  0  0  0
  7 54  1  0  0  0  0
  7 55  1  0  0  0  0
  8  9  1  0  0  0  0
  8  4  1  0  0  0  0
  8 56  1  6  0  0  0
  9 10  2  0  0  0  0
  9 11  1  0  0  0  0
 11 12  1  0  0  0  0
 12 13  1  0  0  0  0
 12 57  1  0  0  0  0
 12 58  1  0  0  0  0
 13 14  1  0  0  0  0
 13 59  1  0  0  0  0
 13 60  1  0  0  0  0
 14 15  1  0  0  0  0
 15 17  1  0  0  0  0
 15 16  1  0  0  0  0
 15 61  1  1  0  0  0
 16 11  1  0  0  0  0
 16 62  1  0  0  0  0
 16 63  1  0  0  0  0
 17 18  2  0  0  0  0
 18 19  1  0  0  0  0
 18 64  1  0  0  0  0
 19 20  2  0  0  0  0
 19 65  1  0  0  0  0
 20 21  1  0  0  0  0
 20 66  1  0  0  0  0
 21 22  2  0  0  0  0
 21 67  1  0  0  0  0
 22 17  1  0  0  0  0
 22 68  1  0  0  0  0
 23 24  1  0  0  0  0
 23 69  1  0  0  0  0
 23 70  1  0  0  0  0
 23 71  1  0  0  0  0
 24 25  1  0  0  0  0
 24 26  1  0  0  0  0
 24  1  1  0  0  0  0
 25 72  1  0  0  0  0
 25 73  1  0  0  0  0
 25 74  1  0  0  0  0
 26 75  1  0  0  0  0
 26 76  1  0  0  0  0
 26 77  1  0  0  0  0
 27 28  1  0  0  0  0
 27 30  1  0  0  0  0
 28 29  2  0  0  0  0
 28 31  1  0  0  0  0
 31 32  2  0  0  0  0
 32 33  1  0  0  0  0
 32 78  1  0  0  0  0
 33 34  2  0  0  0  0
 34 35  1  0  0  0  0
 34 79  1  0  0  0  0
 35 40  1  0  0  0  0
 35 36  2  0  0  0  0
 36 37  1  0  0  0  0
 36 80  1  0  0  0  0
 37 38  2  0  0  0  0
 37 81  1  0  0  0  0
 38 39  1  0  0  0  0
 38 33  1  0  0  0  0
 39 31  1  0  0  0  0
 40 41  1  0  0  0  0
 40 42  1  0  0  0  0
 40 43  1  0  0  0  0
 43 44  2  0  0  0  0
 43 45  1  0  0  0  0
 43 46  1  0  0  0  0
 45 47  1  0  0  0  0
 46 48  1  0  0  0  0
M  END
>  <minimizedAffinity>
-7.58723

$$$$
