L4:P42226:94248
     RDKit          3D

 81 85  0  0  0  0  0  0  0  0999 V2000
    0.9660   -4.9419   -1.9009 C   0  0  0  0  0  0  0  0  0  0  0  0
    0.7208   -4.9213   -0.3735 C   0  0  0  0  0  0  0  0  0  0  0  0
   -0.1623   -6.1438   -0.0412 C   0  0  0  0  0  0  0  0  0  0  0  0
    2.0907   -5.0835    0.3149 C   0  0  0  0  0  0  0  0  0  0  0  0
   -0.0211   -3.5965    0.0223 C   0  0  2  0  0  0  0  0  0  0  0  0
    0.8082   -2.4131   -0.2069 N   0  0  0  0  0  0  0  0  0  0  0  0
    0.6879   -1.6156   -1.3253 C   0  0  0  0  0  0  0  0  0  0  0  0
   -0.1437   -1.8721   -2.1951 O   0  0  0  0  0  0  0  0  0  0  0  0
    1.5861   -0.4710   -1.3719 C   0  0  0  0  0  0  0  0  0  0  0  0
    2.2824    0.1581   -0.3578 C   0  0  0  0  0  0  0  0  0  0  0  0
    3.0539    1.2819   -0.8080 C   0  0  0  0  0  0  0  0  0  0  0  0
    3.8848    2.1747   -0.0876 C   0  0  0  0  0  0  0  0  0  0  0  0
    4.5558    3.2252   -0.7390 C   0  0  0  0  0  0  0  0  0  0  0  0
    5.4469    4.1564    0.0374 C   0  0  0  0  0  0  0  0  0  0  0  0
    5.2211    5.4760   -0.2533 F   0  0  0  0  0  0  0  0  0  0  0  0
    5.3491    4.0378    1.3908 F   0  0  0  0  0  0  0  0  0  0  0  0
    7.2350    4.0763   -0.2360 P   0  0  0  0  0  5  0  0  0  0  0  0
    7.8830    2.7352   -0.3968 O   0  0  0  0  0  0  0  0  0  0  0  0
    7.5429    5.0600   -1.4851 O   0  0  0  0  0  0  0  0  0  0  0  0
    7.9836    4.9373    0.9044 O   0  0  0  0  0  0  0  0  0  0  0  0
    4.3935    3.3836   -2.1172 C   0  0  0  0  0  0  0  0  0  0  0  0
    3.5778    2.5175   -2.8515 C   0  0  0  0  0  0  0  0  0  0  0  0
    2.9134    1.4732   -2.1818 C   0  0  0  0  0  0  0  0  0  0  0  0
    1.8600    0.3040   -2.8727 S   0  0  0  0  0  0  0  0  0  0  0  0
   -0.5015   -3.5239    1.5000 C   0  0  0  0  0  0  0  0  0  0  0  0
    0.0619   -4.1560    2.3963 O   0  0  0  0  0  0  0  0  0  0  0  0
   -1.5497   -2.6768    1.8040 N   0  0  0  0  0  0  0  0  0  0  0  0
   -2.0814   -2.6256    3.1569 C   0  0  0  0  0  0  0  0  0  0  0  0
   -3.1522   -1.5444    3.1321 C   0  0  0  0  0  0  0  0  0  0  0  0
   -3.5800   -1.5024    1.6679 C   0  0  0  0  0  0  0  0  0  0  0  0
   -2.2687   -1.7540    0.9165 C   0  0  1  0  0  0  0  0  0  0  0  0
   -1.5079   -0.4120    0.7371 C   0  0  0  0  0  0  0  0  0  0  0  0
   -0.6175   -0.0705    1.5224 O   0  0  0  0  0  0  0  0  0  0  0  0
   -1.9029    0.4194   -0.2981 N   0  0  0  0  0  0  0  0  0  0  0  0
   -2.8611    0.0712   -1.3527 C   0  0  0  0  0  0  0  0  0  0  0  0
   -2.7612    1.0363   -2.5374 C   0  0  0  0  0  0  0  0  0  0  0  0
   -2.9704    2.4066   -2.1724 O   0  0  0  0  0  0  0  0  0  0  0  0
   -2.4504    2.7789   -0.8726 C   0  0  1  0  0  0  0  0  0  0  0  0
   -3.6249    3.0215    0.0749 C   0  0  0  0  0  0  0  0  0  0  0  0
   -4.8038    3.6082   -0.4209 C   0  0  0  0  0  0  0  0  0  0  0  0
   -5.8928    3.8647    0.4152 C   0  0  0  0  0  0  0  0  0  0  0  0
   -5.8204    3.5515    1.7689 C   0  0  0  0  0  0  0  0  0  0  0  0
   -4.6583    2.9876    2.2856 C   0  0  0  0  0  0  0  0  0  0  0  0
   -3.5681    2.7304    1.4484 C   0  0  0  0  0  0  0  0  0  0  0  0
   -1.3699    1.7849   -0.3810 C   0  0  0  0  0  0  0  0  0  0  0  0
    1.4020   -5.8962   -2.2190 H   0  0  0  0  0  0  0  0  0  0  0  0
    0.0309   -4.8082   -2.4553 H   0  0  0  0  0  0  0  0  0  0  0  0
    1.6598   -4.1539   -2.2100 H   0  0  0  0  0  0  0  0  0  0  0  0
   -1.1518   -6.0513   -0.5028 H   0  0  0  0  0  0  0  0  0  0  0  0
    0.2906   -7.0715   -0.4130 H   0  0  0  0  0  0  0  0  0  0  0  0
   -0.3057   -6.2694    1.0358 H   0  0  0  0  0  0  0  0  0  0  0  0
    2.5906   -5.9993   -0.0250 H   0  0  0  0  0  0  0  0  0  0  0  0
    2.0057   -5.1569    1.4020 H   0  0  0  0  0  0  0  0  0  0  0  0
    2.7601   -4.2469    0.0850 H   0  0  0  0  0  0  0  0  0  0  0  0
   -0.9122   -3.5343   -0.6116 H   0  0  0  0  0  0  0  0  0  0  0  0
    1.4701   -2.1698    0.5187 H   0  0  0  0  0  0  0  0  0  0  0  0
    2.2306   -0.1404    0.6831 H   0  0  0  0  0  0  0  0  0  0  0  0
    3.9992    2.0360    0.9875 H   0  0  0  0  0  0  0  0  0  0  0  0
    6.9794    5.8607   -1.4726 H   0  0  0  0  0  0  0  0  0  0  0  0
    8.9507    4.8050    0.8488 H   0  0  0  0  0  0  0  0  0  0  0  0
    4.9035    4.1874   -2.6480 H   0  0  0  0  0  0  0  0  0  0  0  0
    3.4599    2.6492   -3.9245 H   0  0  0  0  0  0  0  0  0  0  0  0
   -2.5087   -3.6082    3.3895 H   0  0  0  0  0  0  0  0  0  0  0  0
   -1.2854   -2.4104    3.8765 H   0  0  0  0  0  0  0  0  0  0  0  0
   -2.7212   -0.5789    3.4237 H   0  0  0  0  0  0  0  0  0  0  0  0
   -3.9819   -1.7606    3.8116 H   0  0  0  0  0  0  0  0  0  0  0  0
   -4.2847   -2.3199    1.4706 H   0  0  0  0  0  0  0  0  0  0  0  0
   -4.0704   -0.5577    1.4150 H   0  0  0  0  0  0  0  0  0  0  0  0
   -2.4444   -2.2311   -0.0469 H   0  0  0  0  0  0  0  0  0  0  0  0
   -2.6888   -0.9527   -1.6911 H   0  0  0  0  0  0  0  0  0  0  0  0
   -3.8602    0.1244   -0.9081 H   0  0  0  0  0  0  0  0  0  0  0  0
   -1.7773    0.9609   -3.0141 H   0  0  0  0  0  0  0  0  0  0  0  0
   -3.5086    0.7797   -3.2952 H   0  0  0  0  0  0  0  0  0  0  0  0
   -1.9662    3.7538   -1.0104 H   0  0  0  0  0  0  0  0  0  0  0  0
   -4.8801    3.8677   -1.4755 H   0  0  0  0  0  0  0  0  0  0  0  0
   -6.7955    4.3105    0.0073 H   0  0  0  0  0  0  0  0  0  0  0  0
   -6.6657    3.7528    2.4214 H   0  0  0  0  0  0  0  0  0  0  0  0
   -4.5950    2.7495    3.3449 H   0  0  0  0  0  0  0  0  0  0  0  0
   -2.6810    2.2950    1.9019 H   0  0  0  0  0  0  0  0  0  0  0  0
   -0.9311    2.0994    0.5714 H   0  0  0  0  0  0  0  0  0  0  0  0
   -0.5522    1.7513   -1.1094 H   0  0  0  0  0  0  0  0  0  0  0  0
  1  2  1  0
  2  3  1  0
  2  4  1  0
  2  5  1  0
  5  6  1  0
  6  7  1  0
  7  8  2  0
  7  9  1  0
  9 10  2  0
 10 11  1  0
 11 12  2  0
 12 13  1  0
 13 14  1  0
 14 15  1  0
 14 16  1  0
 14 17  1  0
 17 18  2  0
 17 19  1  0
 17 20  1  0
 13 21  2  0
 21 22  1  0
 22 23  2  0
 23 24  1  0
  5 25  1  0
 25 26  2  0
 25 27  1  0
 27 28  1  0
 28 29  1  0
 29 30  1  0
 30 31  1  0
 31 32  1  0
 32 33  2  0
 32 34  1  0
 34 35  1  0
 35 36  1  0
 36 37  1  0
 37 38  1  0
 38 39  1  0
 39 40  2  0
 40 41  1  0
 41 42  2  0
 42 43  1  0
 43 44  2  0
 38 45  1  0
 24  9  1  0
 31 27  1  0
 45 34  1  0
 23 11  1  0
 44 39  1  0
  1 46  1  0
  1 47  1  0
  1 48  1  0
  3 49  1  0
  3 50  1  0
  3 51  1  0
  4 52  1  0
  4 53  1  0
  4 54  1  0
  5 55  1  6
  6 56  1  0
 10 57  1  0
 12 58  1  0
 19 59  1  0
 20 60  1  0
 21 61  1  0
 22 62  1  0
 28 63  1  0
 28 64  1  0
 29 65  1  0
 29 66  1  0
 30 67  1  0
 30 68  1  0
 31 69  1  6
 35 70  1  0
 35 71  1  0
 36 72  1  0
 36 73  1  0
 38 74  1  6
 40 75  1  0
 41 76  1  0
 42 77  1  0
 43 78  1  0
 44 79  1  0
 45 80  1  0
 45 81  1  0
M  END
>  <mol_id>  (1) 
94248

>  <source_index>  (1) 
5

>  <layer>  (1) 
L4

>  <uniprot>  (1) 
P42226

>  <paff>  (1) 
6.2441000000000004

>  <smiles>  (1) 
CC(C)(C)[C@H](NC(=O)c1cc2cc(C(F)(F)P(=O)(O)O)ccc2s1)C(=O)N1CCC[C@H]1C(=O)N1CCO[C@@H](c2ccccc2)C1

$$$$
