L4:P42226:94248


 48 52  0  0  0  0  0  0  0  0999 V2000
    5.6231  -48.1299  -27.6457 C   0  0  0  0  0  0  0  0  0  0  0  0
    4.9525  -49.4619  -28.0880 C   0  0  0  0  0  0  0  0  0  0  0  0
    4.8831  -50.4344  -27.3331 O   0  0  0  0  0  0  0  0  0  0  0  0
    4.3725  -49.5154  -29.3408 N   0  0  0  0  0  0  0  0  0  0  0  0
    3.7950  -50.7582  -29.8283 C   0  0  0  0  0  0  0  0  0  0  0  0
    3.1908  -50.4214  -31.1839 C   0  0  0  0  0  0  0  0  0  0  0  0
    3.9959  -49.2077  -31.6394 C   0  0  0  0  0  0  0  0  0  0  0  0
    4.2373  -48.4425  -30.3342 C   0  0  0  0  0  0  0  0  0  0  0  0
    3.0183  -47.5274  -30.0362 C   0  0  0  0  0  0  0  0  0  0  0  0
    2.2404  -47.7782  -29.1099 O   0  0  0  0  0  0  0  0  0  0  0  0
    2.7965  -46.4535  -30.8826 N   0  0  0  0  0  0  0  0  0  0  0  0
    3.7090  -45.9955  -31.9357 C   0  0  0  0  0  0  0  0  0  0  0  0
    3.3633  -44.5759  -32.3943 C   0  0  0  0  0  0  0  0  0  0  0  0
    2.0190  -44.4462  -32.8746 O   0  0  0  0  0  0  0  0  0  0  0  0
    1.0401  -45.2541  -32.1763 C   0  0  0  0  0  0  0  0  0  0  0  0
    1.5470  -45.6895  -30.7797 C   0  0  0  0  0  0  0  0  0  0  0  0
    0.5765  -46.3757  -33.1055 C   0  0  0  0  0  0  0  0  0  0  0  0
    0.4919  -46.1367  -34.4895 C   0  0  0  0  0  0  0  0  0  0  0  0
    0.0546  -47.1281  -35.3708 C   0  0  0  0  0  0  0  0  0  0  0  0
   -0.3203  -48.3765  -34.8840 C   0  0  0  0  0  0  0  0  0  0  0  0
   -0.2625  -48.6301  -33.5174 C   0  0  0  0  0  0  0  0  0  0  0  0
    0.1758  -47.6376  -32.6351 C   0  0  0  0  0  0  0  0  0  0  0  0
    7.4504  -48.6023  -25.9366 C   0  0  0  0  0  0  0  0  0  0  0  0
    7.1719  -48.2100  -27.4070 C   0  0  0  0  0  0  0  0  0  0  0  0
    7.8164  -46.8254  -27.6351 C   0  0  0  0  0  0  0  0  0  0  0  0
    7.8750  -49.2500  -28.3020 C   0  0  0  0  0  0  0  0  0  0  0  0
    4.9064  -47.6761  -26.4535 N   0  0  0  0  0  0  0  0  0  0  0  0
    4.3158  -46.4338  -26.3585 C   0  0  0  0  0  0  0  0  0  0  0  0
    4.3669  -45.6388  -27.2962 O   0  0  0  0  0  0  0  0  0  0  0  0
    4.8248  -48.3345  -25.6895 H   0  0  0  0  0  0  0  0  0  0  0  0
    3.6317  -46.1655  -25.1019 C   0  0  0  0  0  0  0  0  0  0  0  0
    2.6150  -46.8592  -24.4741 C   0  0  0  0  0  0  0  0  0  0  0  0
    2.1876  -46.2551  -23.2440 C   0  0  0  0  0  0  0  0  0  0  0  0
    1.1849  -46.6507  -22.3250 C   0  0  0  0  0  0  0  0  0  0  0  0
    0.9266  -45.8972  -21.1658 C   0  0  0  0  0  0  0  0  0  0  0  0
    1.6742  -44.7420  -20.9261 C   0  0  0  0  0  0  0  0  0  0  0  0
    2.6682  -44.3283  -21.8180 C   0  0  0  0  0  0  0  0  0  0  0  0
    2.9111  -45.0946  -22.9731 C   0  0  0  0  0  0  0  0  0  0  0  0
    4.0662  -44.7745  -24.2049 S   0  0  0  0  0  0  0  0  0  0  0  0
   -0.1315  -46.3385  -20.1913 C   0  0  0  0  0  0  0  0  0  0  0  0
   -1.3544  -45.7735  -20.4404 F   0  0  0  0  0  0  0  0  0  0  0  0
   -0.3318  -47.6849  -20.1430 F   0  0  0  0  0  0  0  0  0  0  0  0
    0.0635  -45.9071  -18.4436 P   0  0  0  0  0  0  0  0  0  0  0  0
    1.4153  -46.0404  -17.8119 O   0  0  0  0  0  0  0  0  0  0  0  0
   -0.5464  -44.4160  -18.2783 O   0  0  0  0  0  0  0  0  0  0  0  0
   -1.0494  -46.6910  -17.5780 O   0  0  0  0  0  0  0  0  0  0  0  0
   -1.3359  -44.2752  -18.8402 H   0  0  0  0  0  0  0  0  0  0  0  0
   -0.8826  -46.5697  -16.6223 H   0  0  0  0  0  0  0  0  0  0  0  0
 23 24  1  0  0  0
 24 25  1  0  0  0
 24 26  1  0  0  0
 24  1  1  0  0  0
  1 27  1  0  0  0
 27 28  1  0  0  0
 28 29  2  0  0  0
 28 31  1  0  0  0
 31 32  2  0  0  0
 32 33  1  0  0  0
 33 34  2  0  0  0
 34 35  1  0  0  0
 35 40  1  0  0  0
 40 41  1  0  0  0
 40 42  1  0  0  0
 40 43  1  0  0  0
 43 44  2  0  0  0
 43 45  1  0  0  0
 43 46  1  0  0  0
 35 36  2  0  0  0
 36 37  1  0  0  0
 37 38  2  0  0  0
 38 39  1  0  0  0
  1  2  1  0  0  0
  2  3  2  0  0  0
  2  4  1  0  0  0
  4  5  1  0  0  0
  5  6  1  0  0  0
  6  7  1  0  0  0
  7  8  1  0  0  0
  8  9  1  0  0  0
  9 10  2  0  0  0
  9 11  1  0  0  0
 11 12  1  0  0  0
 12 13  1  0  0  0
 13 14  1  0  0  0
 14 15  1  0  0  0
 15 17  1  0  0  0
 17 18  2  0  0  0
 18 19  1  0  0  0
 19 20  2  0  0  0
 20 21  1  0  0  0
 21 22  2  0  0  0
 15 16  1  0  0  0
 39 31  1  0  0  0
  8  4  1  0  0  0
 16 11  1  0  0  0
 38 33  1  0  0  0
 22 17  1  0  0  0
 27 30  1  0  0  0
 45 47  1  0  0  0
 46 48  1  0  0  0
M  END
> <minimizedAffinity>
-7.58723

$$$$
