L1:Q96MU7:23658
     RDKit          3D

 37 39  0  0  0  0  0  0  0  0999 V2000
    1.5748    7.7383    3.5482 C   0  0  0  0  0  0  0  0  0  0  0  0
    1.5920    6.3580    3.8387 C   0  0  0  0  0  0  0  0  0  0  0  0
    0.5937    5.5807    3.2732 C   0  0  0  0  0  0  0  0  0  0  0  0
   -0.3982    5.9919    2.4689 N   0  0  0  0  0  0  0  0  0  0  0  0
   -0.3163    7.3220    2.2690 C   0  0  0  0  0  0  0  0  0  0  0  0
    0.5824    8.2039    2.7481 N   0  0  0  0  0  0  0  0  0  0  0  0
   -1.5308    7.9855    1.2617 Cl  0  0  0  0  0  0  0  0  0  0  0  0
    0.8424    4.3119    3.7173 N   0  0  0  0  0  0  0  0  0  0  0  0
    1.9568    4.3616    4.5124 C   0  0  0  0  0  0  0  0  0  0  0  0
    2.4339    5.5848    4.6138 N   0  0  0  0  0  0  0  0  0  0  0  0
    3.5757    8.9937    3.1083 C   0  0  0  0  0  0  0  0  0  0  0  0
    2.5548    8.5986    4.0550 N   0  0  0  0  0  0  0  0  0  0  0  0
    2.1147    9.3600    4.5694 H   0  0  0  0  0  0  0  0  0  0  0  0
    0.0892    3.1217    3.3762 C   0  0  0  0  0  0  0  0  0  0  0  0
    0.0982    2.1256    4.5088 C   0  0  0  0  0  0  0  0  0  0  0  0
   -0.8149    2.2358    5.5670 C   0  0  0  0  0  0  0  0  0  0  0  0
   -0.8141    1.3015    6.6036 C   0  0  0  0  0  0  0  0  0  0  0  0
    0.0969    0.2439    6.5958 C   0  0  0  0  0  0  0  0  0  0  0  0
    1.0156    0.1145    5.5469 C   0  0  0  0  0  0  0  0  0  0  0  0
    1.0107    1.0571    4.5077 C   0  0  0  0  0  0  0  0  0  0  0  0
    2.0088   -0.9933    5.4876 C   0  0  0  0  0  0  0  0  0  0  0  0
    3.2100   -0.8149    5.3635 O   0  0  0  0  0  0  0  0  0  0  0  0
    1.3920   -2.1973    5.5891 O   0  0  0  0  0  0  0  0  0  0  0  0
    1.2681   -2.8904    4.3463 C   0  0  0  0  0  0  0  0  0  0  0  0
    2.3727    3.5389    4.9764 H   0  0  0  0  0  0  0  0  0  0  0  0
    3.9704    8.1241    2.6257 H   0  0  0  0  0  0  0  0  0  0  0  0
    4.3625    9.5033    3.6242 H   0  0  0  0  0  0  0  0  0  0  0  0
    3.1490    9.6458    2.3751 H   0  0  0  0  0  0  0  0  0  0  0  0
    0.5254    2.6692    2.5103 H   0  0  0  0  0  0  0  0  0  0  0  0
   -0.9242    3.4062    3.1840 H   0  0  0  0  0  0  0  0  0  0  0  0
   -1.4928    3.0138    5.5794 H   0  0  0  0  0  0  0  0  0  0  0  0
   -1.4894    1.3928    7.3786 H   0  0  0  0  0  0  0  0  0  0  0  0
    0.0934   -0.4443    7.3649 H   0  0  0  0  0  0  0  0  0  0  0  0
    1.6858    0.9645    3.7327 H   0  0  0  0  0  0  0  0  0  0  0  0
    0.7743   -3.8259    4.5073 H   0  0  0  0  0  0  0  0  0  0  0  0
    2.2412   -3.0665    3.9376 H   0  0  0  0  0  0  0  0  0  0  0  0
    0.6961   -2.2981    3.6631 H   0  0  0  0  0  0  0  0  0  0  0  0
  1  2  2  0
  2  3  1  0
  3  4  2  0
  3  8  1  0
  4  5  1  0
  5  6  2  0
  5  7  1  0
  6  1  1  0
  8  9  1  0
  8 14  1  0
  9 10  2  0
  9 25  1  0
 10  2  1  0
 11 12  1  0
 11 26  1  0
 11 27  1  0
 11 28  1  0
 12  1  1  0
 12 13  1  0
 14 15  1  0
 14 29  1  0
 14 30  1  0
 15 16  2  0
 16 17  1  0
 16 31  1  0
 17 18  2  0
 17 32  1  0
 18 19  1  0
 18 33  1  0
 19 20  2  0
 19 21  1  0
 20 15  1  0
 20 34  1  0
 21 22  2  0
 21 23  1  0
 23 24  1  0
 24 35  1  0
 24 36  1  0
 24 37  1  0
M  END
>  <minimizedAffinity>  (1) 
-7.27568

>  <mol_id>  (1) 
23658

>  <source_index>  (1) 
0

>  <layer>  (1) 
L1

>  <uniprot>  (1) 
Q96MU7

>  <paff>  (1) 
6

>  <smiles>  (1) 
CNc1c2c(nc(n1)Cl)n(cn2)Cc3cccc(c3)C(=O)OC

$$$$
L1:Q96MU7:24173
     RDKit          3D

 34 36  0  0  0  0  0  0  0  0999 V2000
    1.0559   -0.7340    4.8394 C   0  0  0  0  0  0  0  0  0  0  0  0
    1.8871   -0.7717    5.9119 N   0  0  0  0  0  0  0  0  0  0  0  0
    2.3807    0.3923    6.3761 C   0  0  0  0  0  0  0  0  0  0  0  0
    3.4172    0.2625    7.7322 Cl  0  0  0  0  0  0  0  0  0  0  0  0
    2.1666    1.6479    5.9360 N   0  0  0  0  0  0  0  0  0  0  0  0
    1.3310    1.6356    4.8862 C   0  0  0  0  0  0  0  0  0  0  0  0
    0.7478    0.5287    4.2908 C   0  0  0  0  0  0  0  0  0  0  0  0
   -0.0607    0.9097    3.2383 N   0  0  0  0  0  0  0  0  0  0  0  0
    0.0386    2.2220    3.1930 C   0  0  0  0  0  0  0  0  0  0  0  0
    0.8638    2.7050    4.1736 N   0  0  0  0  0  0  0  0  0  0  0  0
    1.4362   -3.0416    4.2823 C   0  0  0  0  0  0  0  0  0  0  0  0
    0.5344   -1.9100    4.2909 N   0  0  0  0  0  0  0  0  0  0  0  0
   -0.3938   -2.0902    4.6704 H   0  0  0  0  0  0  0  0  0  0  0  0
    1.2102    4.0951    4.3909 C   0  0  0  0  0  0  0  0  0  0  0  0
    0.4637    4.6651    5.5715 C   0  0  0  0  0  0  0  0  0  0  0  0
   -0.8353    4.2320    5.8755 C   0  0  0  0  0  0  0  0  0  0  0  0
   -1.5100    4.7508    6.9823 C   0  0  0  0  0  0  0  0  0  0  0  0
   -3.1038    4.2062    7.3343 Cl  0  0  0  0  0  0  0  0  0  0  0  0
   -0.9076    5.7004    7.8022 C   0  0  0  0  0  0  0  0  0  0  0  0
    0.3886    6.1396    7.5144 C   0  0  0  0  0  0  0  0  0  0  0  0
    1.0705    5.6218    6.4030 C   0  0  0  0  0  0  0  0  0  0  0  0
    0.9996    7.1489    8.4125 C   0  0  0  0  0  0  0  0  0  0  0  0
    1.1729    7.0214    9.6098 O   0  0  0  0  0  0  0  0  0  0  0  0
    1.3607    8.2694    7.7653 O   0  0  0  0  0  0  0  0  0  0  0  0
    1.7485    8.8379    8.4637 H   0  0  0  0  0  0  0  0  0  0  0  0
   -0.4469    2.8150    2.5019 H   0  0  0  0  0  0  0  0  0  0  0  0
    2.3765   -2.7452    3.8665 H   0  0  0  0  0  0  0  0  0  0  0  0
    1.0163   -3.8278    3.6902 H   0  0  0  0  0  0  0  0  0  0  0  0
    1.5826   -3.3886    5.2838 H   0  0  0  0  0  0  0  0  0  0  0  0
    0.9610    4.6578    3.5156 H   0  0  0  0  0  0  0  0  0  0  0  0
    2.2594    4.1554    4.5921 H   0  0  0  0  0  0  0  0  0  0  0  0
   -1.2945    3.5266    5.2783 H   0  0  0  0  0  0  0  0  0  0  0  0
   -1.4145    6.0783    8.6179 H   0  0  0  0  0  0  0  0  0  0  0  0
    2.0274    5.9468    6.1940 H   0  0  0  0  0  0  0  0  0  0  0  0
  1  2  2  0
  2  3  1  0
  3  4  1  0
  3  5  2  0
  5  6  1  0
  6  7  2  0
  7  8  1  0
  7  1  1  0
  8  9  2  0
  9 10  1  0
  9 26  1  0
 10 14  1  0
 10  6  1  0
 11 12  1  0
 11 27  1  0
 11 28  1  0
 11 29  1  0
 12  1  1  0
 12 13  1  0
 14 15  1  0
 14 30  1  0
 14 31  1  0
 15 16  2  0
 16 17  1  0
 16 32  1  0
 17 18  1  0
 17 19  2  0
 19 20  1  0
 19 33  1  0
 20 22  1  0
 20 21  2  0
 21 15  1  0
 21 34  1  0
 22 23  2  0
 22 24  1  0
 24 25  1  0
M  END
>  <minimizedAffinity>  (2) 
-7.25032

>  <mol_id>  (2) 
24173

>  <source_index>  (2) 
1

>  <layer>  (2) 
L1

>  <uniprot>  (2) 
Q96MU7

>  <paff>  (2) 
6.7446999999999999

>  <smiles>  (2) 
CNc1nc(Cl)nc2c1ncn2Cc1cc(Cl)cc(C(=O)O)c1

$$$$
L1:Q96MU7:43216
     RDKit          3D

 37 39  0  0  0  0  0  0  0  0999 V2000
    1.2911   -0.4364    4.8212 C   0  0  0  0  0  0  0  0  0  0  0  0
    2.1638   -0.5918    5.8490 N   0  0  0  0  0  0  0  0  0  0  0  0
    2.4031    0.4668    6.6465 C   0  0  0  0  0  0  0  0  0  0  0  0
    3.5140    0.1912    7.9195 Cl  0  0  0  0  0  0  0  0  0  0  0  0
    1.8835    1.7094    6.5977 N   0  0  0  0  0  0  0  0  0  0  0  0
    1.0239    1.8129    5.5723 C   0  0  0  0  0  0  0  0  0  0  0  0
    0.6766    0.8240    4.6657 C   0  0  0  0  0  0  0  0  0  0  0  0
   -0.2576    1.2937    3.7637 N   0  0  0  0  0  0  0  0  0  0  0  0
   -0.4548    2.5500    4.1056 C   0  0  0  0  0  0  0  0  0  0  0  0
    0.3012    2.9091    5.1899 N   0  0  0  0  0  0  0  0  0  0  0  0
    1.2773   -2.8141    4.4616 C   0  0  0  0  0  0  0  0  0  0  0  0
    1.0202   -1.4889    3.9414 N   0  0  0  0  0  0  0  0  0  0  0  0
    0.1100   -1.3543    3.5045 H   0  0  0  0  0  0  0  0  0  0  0  0
    0.2963    4.2028    5.8425 C   0  0  0  0  0  0  0  0  0  0  0  0
    1.1226    5.2059    5.0768 C   0  0  0  0  0  0  0  0  0  0  0  0
    0.5379    6.3879    4.5992 C   0  0  0  0  0  0  0  0  0  0  0  0
    1.3027    7.3273    3.9025 C   0  0  0  0  0  0  0  0  0  0  0  0
    2.6656    7.1022    3.6741 C   0  0  0  0  0  0  0  0  0  0  0  0
    3.2549    5.9249    4.1523 C   0  0  0  0  0  0  0  0  0  0  0  0
    2.4887    4.9848    4.8495 C   0  0  0  0  0  0  0  0  0  0  0  0
    3.4334    8.1350    2.9255 C   0  0  0  0  0  0  0  0  0  0  0  0
    2.9286    8.8947    2.1141 O   0  0  0  0  0  0  0  0  0  0  0  0
    4.7444    8.1032    3.2734 O   0  0  0  0  0  0  0  0  0  0  0  0
    5.4748    9.2670    2.8829 C   0  0  0  0  0  0  0  0  0  0  0  0
   -1.1014    3.1876    3.6154 H   0  0  0  0  0  0  0  0  0  0  0  0
    2.2550   -2.8435    4.8954 H   0  0  0  0  0  0  0  0  0  0  0  0
    1.2185   -3.5272    3.6660 H   0  0  0  0  0  0  0  0  0  0  0  0
    0.5486   -3.0518    5.2082 H   0  0  0  0  0  0  0  0  0  0  0  0
    0.7004    4.0978    6.8277 H   0  0  0  0  0  0  0  0  0  0  0  0
   -0.7126    4.5569    5.8830 H   0  0  0  0  0  0  0  0  0  0  0  0
   -0.4653    6.5653    4.7636 H   0  0  0  0  0  0  0  0  0  0  0  0
    0.8603    8.1922    3.5542 H   0  0  0  0  0  0  0  0  0  0  0  0
    4.2589    5.7502    3.9895 H   0  0  0  0  0  0  0  0  0  0  0  0
    2.9325    4.1213    5.1995 H   0  0  0  0  0  0  0  0  0  0  0  0
    6.4948    9.1678    3.1904 H   0  0  0  0  0  0  0  0  0  0  0  0
    5.0448   10.1302    3.3465 H   0  0  0  0  0  0  0  0  0  0  0  0
    5.4318    9.3748    1.8192 H   0  0  0  0  0  0  0  0  0  0  0  0
  1  2  2  0
  2  3  1  0
  3  4  1  0
  3  5  2  0
  5  6  1  0
  6  7  2  0
  7  8  1  0
  7  1  1  0
  8  9  2  0
  9 10  1  0
  9 25  1  0
 10 14  1  0
 10  6  1  0
 11 12  1  0
 11 26  1  0
 11 27  1  0
 11 28  1  0
 12  1  1  0
 12 13  1  0
 14 15  1  0
 14 29  1  0
 14 30  1  0
 15 16  2  0
 16 17  1  0
 16 31  1  0
 17 18  2  0
 17 32  1  0
 18 21  1  0
 18 19  1  0
 19 20  2  0
 19 33  1  0
 20 15  1  0
 20 34  1  0
 21 22  2  0
 21 23  1  0
 23 24  1  0
 24 35  1  0
 24 36  1  0
 24 37  1  0
M  END
>  <minimizedAffinity>  (3) 
-7.09264

>  <mol_id>  (3) 
43216

>  <source_index>  (3) 
2

>  <layer>  (3) 
L1

>  <uniprot>  (3) 
Q96MU7

>  <paff>  (3) 
6.0132000000000003

>  <smiles>  (3) 
CNc1nc(Cl)nc2c1ncn2Cc1ccc(C(=O)OC)cc1

$$$$
L1:Q96MU7:58793
     RDKit          3D

 34 36  0  0  0  0  0  0  0  0999 V2000
    1.3700   -0.5179    4.7627 C   0  0  0  0  0  0  0  0  0  0  0  0
    0.6833    0.7065    4.6211 C   0  0  0  0  0  0  0  0  0  0  0  0
    0.9551    1.6953    5.5532 C   0  0  0  0  0  0  0  0  0  0  0  0
    1.8104    1.6260    6.5852 N   0  0  0  0  0  0  0  0  0  0  0  0
    2.4053    0.4171    6.6168 C   0  0  0  0  0  0  0  0  0  0  0  0
    2.2512   -0.6336    5.7884 N   0  0  0  0  0  0  0  0  0  0  0  0
    3.5339    0.1938    7.8844 Cl  0  0  0  0  0  0  0  0  0  0  0  0
    0.1622    2.7482    5.1892 N   0  0  0  0  0  0  0  0  0  0  0  0
   -0.5300    2.3777    4.0667 C   0  0  0  0  0  0  0  0  0  0  0  0
   -0.2355    1.1505    3.6909 N   0  0  0  0  0  0  0  0  0  0  0  0
    1.1794   -2.8986    4.4818 C   0  0  0  0  0  0  0  0  0  0  0  0
    1.1447   -1.5817    3.8838 N   0  0  0  0  0  0  0  0  0  0  0  0
    1.7049   -1.4639    3.0412 H   0  0  0  0  0  0  0  0  0  0  0  0
    0.1007    4.0408    5.8413 C   0  0  0  0  0  0  0  0  0  0  0  0
    0.9646    5.0539    5.1324 C   0  0  0  0  0  0  0  0  0  0  0  0
    0.4927    6.3522    4.8884 C   0  0  0  0  0  0  0  0  0  0  0  0
    1.3024    7.2928    4.2444 C   0  0  0  0  0  0  0  0  0  0  0  0
    2.5963    6.9470    3.8386 C   0  0  0  0  0  0  0  0  0  0  0  0
    3.0741    5.6549    4.0823 C   0  0  0  0  0  0  0  0  0  0  0  0
    2.2644    4.7156    4.7258 C   0  0  0  0  0  0  0  0  0  0  0  0
    3.4908    7.9104    3.1523 C   0  0  0  0  0  0  0  0  0  0  0  0
    4.6810    8.0536    3.3619 O   0  0  0  0  0  0  0  0  0  0  0  0
    2.8507    8.6519    2.2307 O   0  0  0  0  0  0  0  0  0  0  0  0
    3.5537    9.2331    1.8714 H   0  0  0  0  0  0  0  0  0  0  0  0
   -1.2018    2.9873    3.5746 H   0  0  0  0  0  0  0  0  0  0  0  0
    0.5605   -2.9104    5.3546 H   0  0  0  0  0  0  0  0  0  0  0  0
    2.1855   -3.1400    4.7547 H   0  0  0  0  0  0  0  0  0  0  0  0
    0.8179   -3.6194    3.7784 H   0  0  0  0  0  0  0  0  0  0  0  0
    0.4405    3.9385    6.8507 H   0  0  0  0  0  0  0  0  0  0  0  0
   -0.9124    4.3841    5.8159 H   0  0  0  0  0  0  0  0  0  0  0  0
   -0.4596    6.6152    5.1866 H   0  0  0  0  0  0  0  0  0  0  0  0
    0.9449    8.2447    4.0679 H   0  0  0  0  0  0  0  0  0  0  0  0
    4.0277    5.3947    3.7858 H   0  0  0  0  0  0  0  0  0  0  0  0
    2.6252    3.7652    4.9036 H   0  0  0  0  0  0  0  0  0  0  0  0
  1  2  2  0
  2  3  1  0
  3  4  2  0
  3  8  1  0
  4  5  1  0
  5  6  2  0
  5  7  1  0
  6  1  1  0
  8  9  1  0
  8 14  1  0
  9 10  2  0
  9 25  1  0
 10  2  1  0
 11 12  1  0
 11 26  1  0
 11 27  1  0
 11 28  1  0
 12  1  1  0
 12 13  1  0
 14 15  1  0
 14 29  1  0
 14 30  1  0
 15 16  2  0
 16 17  1  0
 16 31  1  0
 17 18  2  0
 17 32  1  0
 18 19  1  0
 18 21  1  0
 19 20  2  0
 19 33  1  0
 20 15  1  0
 20 34  1  0
 21 22  2  0
 21 23  1  0
 23 24  1  0
M  END
>  <minimizedAffinity>  (4) 
-7.25249

>  <mol_id>  (4) 
58793

>  <source_index>  (4) 
3

>  <layer>  (4) 
L1

>  <uniprot>  (4) 
Q96MU7

>  <paff>  (4) 
6.0605000000000002

>  <smiles>  (4) 
CNc1c2c(nc(n1)Cl)n(cn2)Cc3ccc(cc3)C(=O)O

$$$$
L1:Q96MU7:73954
     RDKit          3D

 37 39  0  0  0  0  0  0  0  0999 V2000
    1.1884   -0.5404    4.8112 C   0  0  0  0  0  0  0  0  0  0  0  0
    2.0199   -0.6843    5.8744 N   0  0  0  0  0  0  0  0  0  0  0  0
    2.7032    0.3956    6.2993 C   0  0  0  0  0  0  0  0  0  0  0  0
    3.7303    0.1339    7.6434 Cl  0  0  0  0  0  0  0  0  0  0  0  0
    2.6862    1.6585    5.8281 N   0  0  0  0  0  0  0  0  0  0  0  0
    1.8470    1.7529    4.7852 C   0  0  0  0  0  0  0  0  0  0  0  0
    1.0813    0.7405    4.2297 C   0  0  0  0  0  0  0  0  0  0  0  0
    0.3235    1.2213    3.1803 N   0  0  0  0  0  0  0  0  0  0  0  0
    0.6397    2.4964    3.0907 C   0  0  0  0  0  0  0  0  0  0  0  0
    1.5610    2.8607    4.0364 N   0  0  0  0  0  0  0  0  0  0  0  0
    1.1849   -2.8884    4.2911 C   0  0  0  0  0  0  0  0  0  0  0  0
    0.4725   -1.6292    4.3046 N   0  0  0  0  0  0  0  0  0  0  0  0
   -0.4611   -1.6544    4.7113 H   0  0  0  0  0  0  0  0  0  0  0  0
    2.1029    4.1899    4.2341 C   0  0  0  0  0  0  0  0  0  0  0  0
    1.1575    5.0503    5.0345 C   0  0  0  0  0  0  0  0  0  0  0  0
    0.4912    6.1280    4.4329 C   0  0  0  0  0  0  0  0  0  0  0  0
   -0.3986    6.9084    5.1724 C   0  0  0  0  0  0  0  0  0  0  0  0
   -1.2028    8.2279    4.4151 Cl  0  0  0  0  0  0  0  0  0  0  0  0
   -0.6435    6.6320    6.5158 C   0  0  0  0  0  0  0  0  0  0  0  0
    0.0096    5.5582    7.1306 C   0  0  0  0  0  0  0  0  0  0  0  0
    0.9059    4.7722    6.3871 C   0  0  0  0  0  0  0  0  0  0  0  0
   -0.2065    5.2058    8.5599 C   0  0  0  0  0  0  0  0  0  0  0  0
    0.5589    5.5369    9.4517 O   0  0  0  0  0  0  0  0  0  0  0  0
   -1.3444    4.4863    8.7118 O   0  0  0  0  0  0  0  0  0  0  0  0
   -2.4412    5.2367    9.2363 C   0  0  0  0  0  0  0  0  0  0  0  0
    0.2414    3.1432    2.3922 H   0  0  0  0  0  0  0  0  0  0  0  0
    2.1476   -2.7488    3.8454 H   0  0  0  0  0  0  0  0  0  0  0  0
    0.6299   -3.6061    3.7239 H   0  0  0  0  0  0  0  0  0  0  0  0
    1.3041   -3.2415    5.2941 H   0  0  0  0  0  0  0  0  0  0  0  0
    2.2667    4.6456    3.2799 H   0  0  0  0  0  0  0  0  0  0  0  0
    3.0228    4.1042    4.7739 H   0  0  0  0  0  0  0  0  0  0  0  0
    0.6598    6.3450    3.4382 H   0  0  0  0  0  0  0  0  0  0  0  0
   -1.3026    7.2158    7.0541 H   0  0  0  0  0  0  0  0  0  0  0  0
    1.3858    3.9796    6.8416 H   0  0  0  0  0  0  0  0  0  0  0  0
   -3.2975    4.6014    9.3260 H   0  0  0  0  0  0  0  0  0  0  0  0
   -2.6666    6.0479    8.5760 H   0  0  0  0  0  0  0  0  0  0  0  0
   -2.1810    5.6228   10.1997 H   0  0  0  0  0  0  0  0  0  0  0  0
  1  2  2  0
  2  3  1  0
  3  4  1  0
  3  5  2  0
  5  6  1  0
  6  7  2  0
  7  8  1  0
  7  1  1  0
  8  9  2  0
  9 10  1  0
  9 26  1  0
 10 14  1  0
 10  6  1  0
 11 12  1  0
 11 27  1  0
 11 28  1  0
 11 29  1  0
 12  1  1  0
 12 13  1  0
 14 15  1  0
 14 30  1  0
 14 31  1  0
 15 16  2  0
 16 17  1  0
 16 32  1  0
 17 18  1  0
 17 19  2  0
 19 20  1  0
 19 33  1  0
 20 22  1  0
 20 21  2  0
 21 15  1  0
 21 34  1  0
 22 23  2  0
 22 24  1  0
 24 25  1  0
 25 35  1  0
 25 36  1  0
 25 37  1  0
M  END
>  <minimizedAffinity>  (5) 
-6.91076

>  <mol_id>  (5) 
73954

>  <source_index>  (5) 
4

>  <layer>  (5) 
L1

>  <uniprot>  (5) 
Q96MU7

>  <paff>  (5) 
6

>  <smiles>  (5) 
CNc1nc(Cl)nc2c1ncn2Cc1cc(Cl)cc(C(=O)OC)c1

$$$$
L1:Q96MU7:75808
     RDKit          3D

 34 36  0  0  0  0  0  0  0  0999 V2000
    1.6288    7.4585    3.5186 C   0  0  0  0  0  0  0  0  0  0  0  0
    0.6410    7.9518    2.7293 N   0  0  0  0  0  0  0  0  0  0  0  0
   -0.3086    7.1023    2.2917 C   0  0  0  0  0  0  0  0  0  0  0  0
   -1.5222    7.8017    1.3078 Cl  0  0  0  0  0  0  0  0  0  0  0  0
   -0.4405    5.7797    2.5144 N   0  0  0  0  0  0  0  0  0  0  0  0
    0.5626    5.3365    3.2874 C   0  0  0  0  0  0  0  0  0  0  0  0
    1.6045    6.0801    3.8181 C   0  0  0  0  0  0  0  0  0  0  0  0
    2.4493    5.2785    4.5602 N   0  0  0  0  0  0  0  0  0  0  0  0
    1.9233    4.0735    4.4849 C   0  0  0  0  0  0  0  0  0  0  0  0
    0.7855    4.0595    3.7220 N   0  0  0  0  0  0  0  0  0  0  0  0
    3.8012    8.4317    3.1914 C   0  0  0  0  0  0  0  0  0  0  0  0
    2.6284    8.2941    4.0282 N   0  0  0  0  0  0  0  0  0  0  0  0
    2.8096    8.0624    5.0036 H   0  0  0  0  0  0  0  0  0  0  0  0
   -0.0522    2.9065    3.4594 C   0  0  0  0  0  0  0  0  0  0  0  0
    0.0874    1.8706    4.5466 C   0  0  0  0  0  0  0  0  0  0  0  0
   -0.6562    1.9708    5.7316 C   0  0  0  0  0  0  0  0  0  0  0  0
   -0.5114    1.0194    6.7428 C   0  0  0  0  0  0  0  0  0  0  0  0
    0.3795   -0.0429    6.5844 C   0  0  0  0  0  0  0  0  0  0  0  0
    1.1312   -0.1574    5.4099 C   0  0  0  0  0  0  0  0  0  0  0  0
    0.9836    0.7990    4.3958 C   0  0  0  0  0  0  0  0  0  0  0  0
    2.0909   -1.2678    5.1960 C   0  0  0  0  0  0  0  0  0  0  0  0
    1.8065   -2.3991    4.8497 O   0  0  0  0  0  0  0  0  0  0  0  0
    3.3662   -0.9091    5.4272 O   0  0  0  0  0  0  0  0  0  0  0  0
    3.8743   -1.7277    5.2462 H   0  0  0  0  0  0  0  0  0  0  0  0
    2.3206    3.2397    4.9454 H   0  0  0  0  0  0  0  0  0  0  0  0
    3.5008    8.6741    2.1934 H   0  0  0  0  0  0  0  0  0  0  0  0
    4.3457    7.5106    3.1862 H   0  0  0  0  0  0  0  0  0  0  0  0
    4.4241    9.2121    3.5759 H   0  0  0  0  0  0  0  0  0  0  0  0
    0.2352    2.4721    2.5247 H   0  0  0  0  0  0  0  0  0  0  0  0
   -1.0719    3.2292    3.4284 H   0  0  0  0  0  0  0  0  0  0  0  0
   -1.3159    2.7544    5.8570 H   0  0  0  0  0  0  0  0  0  0  0  0
   -1.0648    1.1019    7.6100 H   0  0  0  0  0  0  0  0  0  0  0  0
    0.4840   -0.7445    7.3340 H   0  0  0  0  0  0  0  0  0  0  0  0
    1.5387    0.7152    3.5298 H   0  0  0  0  0  0  0  0  0  0  0  0
  1  2  2  0
  2  3  1  0
  3  4  1  0
  3  5  2  0
  5  6  1  0
  6  7  2  0
  7  8  1  0
  7  1  1  0
  8  9  2  0
  9 10  1  0
  9 25  1  0
 10 14  1  0
 10  6  1  0
 11 12  1  0
 11 26  1  0
 11 27  1  0
 11 28  1  0
 12  1  1  0
 12 13  1  0
 14 15  1  0
 14 29  1  0
 14 30  1  0
 15 16  2  0
 16 17  1  0
 16 31  1  0
 17 18  2  0
 17 32  1  0
 18 19  1  0
 18 33  1  0
 19 21  1  0
 19 20  2  0
 20 15  1  0
 20 34  1  0
 21 22  2  0
 21 23  1  0
 23 24  1  0
M  END
>  <minimizedAffinity>  (6) 
-7.45516

>  <mol_id>  (6) 
75808

>  <source_index>  (6) 
5

>  <layer>  (6) 
L1

>  <uniprot>  (6) 
Q96MU7

>  <paff>  (6) 
6.2923999999999998

>  <smiles>  (6) 
CNc1nc(Cl)nc2c1ncn2Cc1cccc(C(=O)O)c1

$$$$
L1:Q96MU7:76036
     RDKit          3D

 35 37  0  0  0  0  0  0  0  0999 V2000
    1.0338   -0.7126    4.8860 C   0  0  0  0  0  0  0  0  0  0  0  0
    1.9128   -0.7814    5.9179 N   0  0  0  0  0  0  0  0  0  0  0  0
    2.3222    0.3702    6.4837 C   0  0  0  0  0  0  0  0  0  0  0  0
    3.4292    0.2001    7.7781 Cl  0  0  0  0  0  0  0  0  0  0  0  0
    1.9930    1.6398    6.1733 N   0  0  0  0  0  0  0  0  0  0  0  0
    1.1332    1.6575    5.1431 C   0  0  0  0  0  0  0  0  0  0  0  0
    0.6168    0.5668    4.4621 C   0  0  0  0  0  0  0  0  0  0  0  0
   -0.2344    0.9775    3.4552 N   0  0  0  0  0  0  0  0  0  0  0  0
   -0.2380    2.2921    3.5314 C   0  0  0  0  0  0  0  0  0  0  0  0
    0.5777    2.7477    4.5328 N   0  0  0  0  0  0  0  0  0  0  0  0
    1.4303   -3.0192    4.3409 C   0  0  0  0  0  0  0  0  0  0  0  0
    0.5486   -1.8734    4.2745 N   0  0  0  0  0  0  0  0  0  0  0  0
    0.1852   -1.6522    3.3488 H   0  0  0  0  0  0  0  0  0  0  0  0
    0.7808    4.1335    4.9047 C   0  0  0  0  0  0  0  0  0  0  0  0
    0.0284    4.4762    6.1655 C   0  0  0  0  0  0  0  0  0  0  0  0
    0.6961    4.9881    7.2852 C   0  0  0  0  0  0  0  0  0  0  0  0
   -0.0031    5.2889    8.4611 C   0  0  0  0  0  0  0  0  0  0  0  0
   -1.3837    5.0811    8.5429 C   0  0  0  0  0  0  0  0  0  0  0  0
   -2.0524    4.5653    7.4219 C   0  0  0  0  0  0  0  0  0  0  0  0
   -3.7582    4.2775    7.4426 Cl  0  0  0  0  0  0  0  0  0  0  0  0
   -1.3548    4.2648    6.2468 C   0  0  0  0  0  0  0  0  0  0  0  0
   -2.1454    5.3477    9.6501 O   0  0  0  0  0  0  0  0  0  0  0  0
   -2.5460    6.6929    9.8711 C   0  0  0  0  0  0  0  0  0  0  0  0
   -0.7893    2.9055    2.9110 H   0  0  0  0  0  0  0  0  0  0  0  0
    1.7529   -3.1629    5.3509 H   0  0  0  0  0  0  0  0  0  0  0  0
    2.2817   -2.8508    3.7151 H   0  0  0  0  0  0  0  0  0  0  0  0
    0.9081   -3.8909    4.0058 H   0  0  0  0  0  0  0  0  0  0  0  0
    0.4356    4.7621    4.1106 H   0  0  0  0  0  0  0  0  0  0  0  0
    1.8249    4.2872    5.0812 H   0  0  0  0  0  0  0  0  0  0  0  0
    1.7152    5.1455    7.2434 H   0  0  0  0  0  0  0  0  0  0  0  0
    0.5056    5.6676    9.2752 H   0  0  0  0  0  0  0  0  0  0  0  0
   -1.8630    3.8843    5.4331 H   0  0  0  0  0  0  0  0  0  0  0  0
   -3.1306    6.7486   10.7655 H   0  0  0  0  0  0  0  0  0  0  0  0
   -3.1304    7.0319    9.0414 H   0  0  0  0  0  0  0  0  0  0  0  0
   -1.6787    7.3112    9.9728 H   0  0  0  0  0  0  0  0  0  0  0  0
  1  2  2  0
  2  3  1  0
  3  4  1  0
  3  5  2  0
  5  6  1  0
  6  7  2  0
  7  8  1  0
  7  1  1  0
  8  9  2  0
  9 10  1  0
  9 24  1  0
 10 14  1  0
 10  6  1  0
 11 12  1  0
 11 25  1  0
 11 26  1  0
 11 27  1  0
 12  1  1  0
 12 13  1  0
 14 15  1  0
 14 28  1  0
 14 29  1  0
 15 16  2  0
 16 17  1  0
 16 30  1  0
 17 18  2  0
 17 31  1  0
 18 22  1  0
 18 19  1  0
 19 20  1  0
 19 21  2  0
 21 15  1  0
 21 32  1  0
 22 23  1  0
 23 33  1  0
 23 34  1  0
 23 35  1  0
M  END
>  <minimizedAffinity>  (7) 
-6.91092

>  <mol_id>  (7) 
76036

>  <source_index>  (7) 
6

>  <layer>  (7) 
L1

>  <uniprot>  (7) 
Q96MU7

>  <paff>  (7) 
6.2290999999999999

>  <smiles>  (7) 
CNc1nc(Cl)nc2c1ncn2Cc1ccc(OC)c(Cl)c1

$$$$
L1:Q96MU7:88977
     RDKit          3D

 39 41  0  0  0  0  0  0  0  0999 V2000
    1.5448    3.9753    3.9664 C   0  0  0  0  0  0  0  0  0  0  0  0
    1.0688   -0.7908    4.7613 C   0  0  0  0  0  0  0  0  0  0  0  0
    0.8407    0.4472    4.1235 C   0  0  0  0  0  0  0  0  0  0  0  0
    1.4873    1.5554    4.6463 C   0  0  0  0  0  0  0  0  0  0  0  0
    2.3209    1.5885    5.6968 N   0  0  0  0  0  0  0  0  0  0  0  0
    2.4636    0.3560    6.2214 C   0  0  0  0  0  0  0  0  0  0  0  0
    1.9000   -0.8046    5.8364 N   0  0  0  0  0  0  0  0  0  0  0  0
    3.5041    0.2557    7.5759 Cl  0  0  0  0  0  0  0  0  0  0  0  0
    1.0939    2.6005    3.8578 N   0  0  0  0  0  0  0  0  0  0  0  0
    0.2887    2.0922    2.8730 C   0  0  0  0  0  0  0  0  0  0  0  0
    0.0746    0.8025    3.0332 N   0  0  0  0  0  0  0  0  0  0  0  0
    1.3324   -3.1361    4.2626 C   0  0  0  0  0  0  0  0  0  0  0  0
    0.4766   -1.9675    4.2977 N   0  0  0  0  0  0  0  0  0  0  0  0
   -0.4473   -2.0952    4.7114 H   0  0  0  0  0  0  0  0  0  0  0  0
    0.8165    4.7213    5.0600 C   0  0  0  0  0  0  0  0  0  0  0  0
   -0.3848    4.1760    5.5572 C   0  0  0  0  0  0  0  0  0  0  0  0
   -1.1015    4.8159    6.5683 C   0  0  0  0  0  0  0  0  0  0  0  0
   -0.6342    6.0072    7.1120 C   0  0  0  0  0  0  0  0  0  0  0  0
    0.5502    6.5656    6.6299 C   0  0  0  0  0  0  0  0  0  0  0  0
    1.2673    5.9357    5.6057 C   0  0  0  0  0  0  0  0  0  0  0  0
   -2.5725    4.1353    7.1444 Cl  0  0  0  0  0  0  0  0  0  0  0  0
    2.4477    6.5912    5.1595 N   0  0  0  0  0  0  0  0  0  0  0  0
    3.2028    6.7108    5.8342 H   0  0  0  0  0  0  0  0  0  0  0  0
    2.3054    7.9033    4.1120 S   0  0  0  0  0  0  0  0  0  0  0  0
    2.3722    9.0659    4.9709 O   0  0  0  0  0  0  0  0  0  0  0  0
    1.1894    7.6934    3.2154 O   0  0  0  0  0  0  0  0  0  0  0  0
    3.8291    7.8040    3.1975 C   0  0  0  0  0  0  0  0  0  0  0  0
    1.3711    4.4712    3.0343 H   0  0  0  0  0  0  0  0  0  0  0  0
    2.5869    3.9648    4.2088 H   0  0  0  0  0  0  0  0  0  0  0  0
   -0.1027    2.6519    2.0994 H   0  0  0  0  0  0  0  0  0  0  0  0
    2.2674   -2.8800    3.8096 H   0  0  0  0  0  0  0  0  0  0  0  0
    0.8592   -3.9077    3.6921 H   0  0  0  0  0  0  0  0  0  0  0  0
    1.5027   -3.4836    5.2602 H   0  0  0  0  0  0  0  0  0  0  0  0
   -0.7396    3.2891    5.1667 H   0  0  0  0  0  0  0  0  0  0  0  0
   -1.1597    6.4752    7.8669 H   0  0  0  0  0  0  0  0  0  0  0  0
    0.9002    7.4496    7.0313 H   0  0  0  0  0  0  0  0  0  0  0  0
    4.6541    7.9593    3.8610 H   0  0  0  0  0  0  0  0  0  0  0  0
    3.8376    8.5555    2.4359 H   0  0  0  0  0  0  0  0  0  0  0  0
    3.9117    6.8375    2.7459 H   0  0  0  0  0  0  0  0  0  0  0  0
  1 15  1  0
  1 28  1  0
  1 29  1  0
  2  3  2  0
  3  4  1  0
  4  5  2  0
  4  9  1  0
  5  6  1  0
  6  7  2  0
  6  8  1  0
  7  2  1  0
  9 10  1  0
  9  1  1  0
 10 11  2  0
 10 30  1  0
 11  3  1  0
 12 13  1  0
 12 31  1  0
 12 32  1  0
 12 33  1  0
 13  2  1  0
 13 14  1  0
 15 16  2  0
 16 17  1  0
 16 34  1  0
 17 18  2  0
 17 21  1  0
 18 19  1  0
 18 35  1  0
 19 20  2  0
 19 36  1  0
 20 22  1  0
 20 15  1  0
 22 24  1  0
 22 23  1  0
 24 25  2  0
 24 26  2  0
 24 27  1  0
 27 37  1  0
 27 38  1  0
 27 39  1  0
M  END
>  <minimizedAffinity>  (8) 
-7.39640

>  <mol_id>  (8) 
88977

>  <source_index>  (8) 
7

>  <layer>  (8) 
L1

>  <uniprot>  (8) 
Q96MU7

>  <paff>  (8) 
6.3468

>  <smiles>  (8) 
CNc1c2c(nc(n1)Cl)n(cn2)Cc3cc(ccc3NS(=O)(=O)C)Cl

$$$$
L1:Q96MU7:110901
     RDKit          3D

 38 40  0  0  0  0  0  0  0  0999 V2000
    1.8960    7.8918    3.4291 C   0  0  0  0  0  0  0  0  0  0  0  0
    1.7653    6.5178    3.7213 C   0  0  0  0  0  0  0  0  0  0  0  0
    0.6510    5.8669    3.2164 C   0  0  0  0  0  0  0  0  0  0  0  0
   -0.3300    6.3971    2.4690 N   0  0  0  0  0  0  0  0  0  0  0  0
   -0.0954    7.7066    2.2536 C   0  0  0  0  0  0  0  0  0  0  0  0
    0.9326    8.4712    2.6687 N   0  0  0  0  0  0  0  0  0  0  0  0
   -1.2712    8.5099    1.3031 Cl  0  0  0  0  0  0  0  0  0  0  0  0
    0.7732    4.5753    3.6487 N   0  0  0  0  0  0  0  0  0  0  0  0
    1.9346    4.4870    4.3700 C   0  0  0  0  0  0  0  0  0  0  0  0
    2.5651    5.6419    4.4274 N   0  0  0  0  0  0  0  0  0  0  0  0
    4.1334    8.6859    3.0501 C   0  0  0  0  0  0  0  0  0  0  0  0
    2.9748    8.6372    3.9152 N   0  0  0  0  0  0  0  0  0  0  0  0
    3.1594    8.3895    4.8862 H   0  0  0  0  0  0  0  0  0  0  0  0
   -0.1366    3.4850    3.3586 C   0  0  0  0  0  0  0  0  0  0  0  0
   -0.1836    2.4938    4.4935 C   0  0  0  0  0  0  0  0  0  0  0  0
   -0.9131    2.7749    5.6579 C   0  0  0  0  0  0  0  0  0  0  0  0
   -0.9285    1.8715    6.7218 C   0  0  0  0  0  0  0  0  0  0  0  0
   -0.2224    0.6704    6.6342 C   0  0  0  0  0  0  0  0  0  0  0  0
    0.4960    0.3652    5.4725 C   0  0  0  0  0  0  0  0  0  0  0  0
    0.5223    1.2839    4.4129 C   0  0  0  0  0  0  0  0  0  0  0  0
    1.2708   -0.8993    5.3247 C   0  0  0  0  0  0  0  0  0  0  0  0
    2.3679   -1.0104    5.8609 O   0  0  0  0  0  0  0  0  0  0  0  0
    0.7062   -1.8814    4.5365 N   0  0  0  0  0  0  0  0  0  0  0  0
    1.4334   -3.0914    4.2441 C   0  0  0  0  0  0  0  0  0  0  0  0
   -0.0571   -1.6345    3.9222 H   0  0  0  0  0  0  0  0  0  0  0  0
    2.2745    3.6200    4.8148 H   0  0  0  0  0  0  0  0  0  0  0  0
    3.8283    8.9536    2.0601 H   0  0  0  0  0  0  0  0  0  0  0  0
    4.6046    7.7254    3.0306 H   0  0  0  0  0  0  0  0  0  0  0  0
    4.8242    9.4146    3.4198 H   0  0  0  0  0  0  0  0  0  0  0  0
    0.1913    2.9841    2.4718 H   0  0  0  0  0  0  0  0  0  0  0  0
   -1.1175    3.8906    3.2237 H   0  0  0  0  0  0  0  0  0  0  0  0
   -1.4432    3.6575    5.7287 H   0  0  0  0  0  0  0  0  0  0  0  0
   -1.4637    2.0922    7.5761 H   0  0  0  0  0  0  0  0  0  0  0  0
   -0.2301    0.0080    7.4255 H   0  0  0  0  0  0  0  0  0  0  0  0
    1.0674    1.0673    3.5638 H   0  0  0  0  0  0  0  0  0  0  0  0
    2.2073   -3.2268    4.9705 H   0  0  0  0  0  0  0  0  0  0  0  0
    1.8680   -3.0195    3.2690 H   0  0  0  0  0  0  0  0  0  0  0  0
    0.7646   -3.9260    4.2758 H   0  0  0  0  0  0  0  0  0  0  0  0
  1  2  2  0
  2  3  1  0
  3  4  2  0
  3  8  1  0
  4  5  1  0
  5  6  2  0
  5  7  1  0
  6  1  1  0
  8  9  1  0
  8 14  1  0
  9 10  2  0
  9 26  1  0
 10  2  1  0
 11 12  1  0
 11 27  1  0
 11 28  1  0
 11 29  1  0
 12  1  1  0
 12 13  1  0
 14 15  1  0
 14 30  1  0
 14 31  1  0
 15 16  2  0
 16 17  1  0
 16 32  1  0
 17 18  2  0
 17 33  1  0
 18 19  1  0
 18 34  1  0
 19 20  2  0
 19 21  1  0
 20 15  1  0
 20 35  1  0
 21 22  2  0
 21 23  1  0
 23 24  1  0
 23 25  1  0
 24 36  1  0
 24 37  1  0
 24 38  1  0
M  END
>  <minimizedAffinity>  (9) 
-7.42998

>  <mol_id>  (9) 
110901

>  <source_index>  (9) 
8

>  <layer>  (9) 
L1

>  <uniprot>  (9) 
Q96MU7

>  <paff>  (9) 
6

>  <smiles>  (9) 
CNc1c2c(nc(n1)Cl)n(cn2)Cc3cccc(c3)C(=O)NC

$$$$
L1:Q96MU7:140320
     RDKit          3D

 39 41  0  0  0  0  0  0  0  0999 V2000
    1.0710   -0.7235    4.7957 C   0  0  0  0  0  0  0  0  0  0  0  0
    0.8296    0.5318    4.1985 C   0  0  0  0  0  0  0  0  0  0  0  0
    1.4520    1.6322    4.7656 C   0  0  0  0  0  0  0  0  0  0  0  0
    2.2767    1.6415    5.8241 N   0  0  0  0  0  0  0  0  0  0  0  0
    2.4251    0.3946    6.3119 C   0  0  0  0  0  0  0  0  0  0  0  0
    1.8820   -0.7608    5.8832 N   0  0  0  0  0  0  0  0  0  0  0  0
    3.4370    0.2665    7.6865 Cl  0  0  0  0  0  0  0  0  0  0  0  0
    1.0383    2.6968    4.0126 N   0  0  0  0  0  0  0  0  0  0  0  0
    0.2343    2.2111    3.0160 C   0  0  0  0  0  0  0  0  0  0  0  0
    0.0595    0.9098    3.1173 N   0  0  0  0  0  0  0  0  0  0  0  0
    1.3718   -3.0530    4.2761 C   0  0  0  0  0  0  0  0  0  0  0  0
    0.5071   -1.8931    4.2782 N   0  0  0  0  0  0  0  0  0  0  0  0
   -0.4250   -2.0361    4.6631 H   0  0  0  0  0  0  0  0  0  0  0  0
    1.4448    4.0774    4.1815 C   0  0  0  0  0  0  0  0  0  0  0  0
    0.4338    4.8840    4.9639 C   0  0  0  0  0  0  0  0  0  0  0  0
   -0.2925    4.2423    5.9852 C   0  0  0  0  0  0  0  0  0  0  0  0
   -1.2016    4.9489    6.7691 C   0  0  0  0  0  0  0  0  0  0  0  0
   -1.3823    6.3101    6.5569 C   0  0  0  0  0  0  0  0  0  0  0  0
   -0.6764    6.9591    5.5424 C   0  0  0  0  0  0  0  0  0  0  0  0
    0.1883    6.2460    4.7061 C   0  0  0  0  0  0  0  0  0  0  0  0
    0.9792    6.8958    3.7027 N   0  0  0  0  0  0  0  0  0  0  0  0
    1.2731    6.2573    2.9585 H   0  0  0  0  0  0  0  0  0  0  0  0
    2.3139    7.8440    4.1286 S   0  0  0  0  0  0  0  0  0  0  0  0
    3.4156    6.9123    4.2464 O   0  0  0  0  0  0  0  0  0  0  0  0
    1.9546    8.6906    5.2440 O   0  0  0  0  0  0  0  0  0  0  0  0
    2.5861    8.8561    2.6861 C   0  0  0  0  0  0  0  0  0  0  0  0
   -0.1842    2.7946    2.2748 H   0  0  0  0  0  0  0  0  0  0  0  0
    2.3190   -2.7910    3.8529 H   0  0  0  0  0  0  0  0  0  0  0  0
    0.9238   -3.8308    3.6936 H   0  0  0  0  0  0  0  0  0  0  0  0
    1.5121   -3.3951    5.2802 H   0  0  0  0  0  0  0  0  0  0  0  0
    1.5647    4.5210    3.2152 H   0  0  0  0  0  0  0  0  0  0  0  0
    2.3625    4.0824    4.7317 H   0  0  0  0  0  0  0  0  0  0  0  0
   -0.1493    3.2345    6.1554 H   0  0  0  0  0  0  0  0  0  0  0  0
   -1.7387    4.4634    7.5045 H   0  0  0  0  0  0  0  0  0  0  0  0
   -2.0388    6.8417    7.1497 H   0  0  0  0  0  0  0  0  0  0  0  0
   -0.7939    7.9756    5.4082 H   0  0  0  0  0  0  0  0  0  0  0  0
    2.8523    8.2328    1.8581 H   0  0  0  0  0  0  0  0  0  0  0  0
    3.3784    9.5485    2.8805 H   0  0  0  0  0  0  0  0  0  0  0  0
    1.6910    9.3944    2.4540 H   0  0  0  0  0  0  0  0  0  0  0  0
  1  2  2  0
  2  3  1  0
  3  4  2  0
  3  8  1  0
  4  5  1  0
  5  6  2  0
  5  7  1  0
  6  1  1  0
  8  9  1  0
  8 14  1  0
  9 10  2  0
  9 27  1  0
 10  2  1  0
 11 12  1  0
 11 28  1  0
 11 29  1  0
 11 30  1  0
 12  1  1  0
 12 13  1  0
 14 15  1  0
 14 31  1  0
 14 32  1  0
 15 16  2  0
 16 17  1  0
 16 33  1  0
 17 18  2  0
 17 34  1  0
 18 19  1  0
 18 35  1  0
 19 20  2  0
 19 36  1  0
 20 21  1  0
 20 15  1  0
 21 23  1  0
 21 22  1  0
 23 24  2  0
 23 25  2  0
 23 26  1  0
 26 37  1  0
 26 38  1  0
 26 39  1  0
M  END
>  <minimizedAffinity>  (10) 
-7.31887

>  <mol_id>  (10) 
140320

>  <source_index>  (10) 
9

>  <layer>  (10) 
L1

>  <uniprot>  (10) 
Q96MU7

>  <paff>  (10) 
6.3372000000000002

>  <smiles>  (10) 
CNc1c2c(nc(n1)Cl)n(cn2)Cc3ccccc3NS(=O)(=O)C

$$$$
