jnk1_000
     RDKit          3D

 38 39  0  0  1  0  0  0  0  0999 V2000
   25.0171    4.0730   31.3841 C   0  0  0  0  0  0  0  0  0  0  0  0
   23.6460    3.8956   31.2904 C   0  0  0  0  0  0  0  0  0  0  0  0
   22.9108    4.6321   30.3711 C   0  0  0  0  0  0  0  0  0  0  0  0
   23.5772    5.4605   29.4726 C   0  0  0  0  0  0  0  0  0  0  0  0
   24.9367    5.6719   29.6158 C   0  0  0  0  0  0  0  0  0  0  0  0
   25.6718    4.9873   30.5707 C   0  0  0  0  0  0  0  0  0  0  0  0
   21.4197    4.5768   30.3594 C   0  0  0  0  0  0  0  0  0  0  0  0
   20.7072    5.7548   31.0002 C   0  0  0  0  0  0  0  0  0  0  0  0
   21.4728    6.8911   31.1056 N   0  0  0  0  0  0  0  0  0  0  0  0
   21.0884    8.1461   31.5523 C   0  0  0  0  0  0  0  0  0  0  0  0
   19.5334    5.7002   31.3426 O   0  0  0  0  0  0  0  0  0  0  0  0
   21.9528    9.1224   31.2041 N   0  0  0  0  0  0  0  0  0  0  0  0
   21.6560   10.3606   31.5239 C   0  0  0  0  0  0  0  0  0  0  0  0
   20.5456   10.7343   32.3138 C   0  0  0  0  0  0  0  0  0  0  0  0
   19.7017    9.6711   32.7528 C   0  0  0  0  0  0  0  0  0  0  0  0
   19.9617    8.3712   32.3022 C   0  0  0  0  0  0  0  0  0  0  0  0
   18.6799    9.8672   33.5881 N   0  0  0  0  0  0  0  0  0  0  0  0
   20.3044   12.0798   32.6525 C   0  0  0  0  0  0  0  0  0  0  0  0
   22.4541   11.3503   31.0836 O   0  0  0  0  0  0  0  0  0  0  0  0
   23.7435   10.9501   30.5567 C   0  0  0  0  0  0  0  0  0  0  0  0
   23.6921   10.5588   29.1046 C   0  0  0  0  0  0  0  0  0  0  0  0
   20.0898   13.1874   32.9533 N   0  0  0  0  0  0  0  0  0  0  0  0
   25.5910    3.4935   32.0943 H   0  0  0  0  0  0  0  0  0  0  0  0
   23.0303    5.9287   28.6654 H   0  0  0  0  0  0  0  0  0  0  0  0
   19.2920    7.5659   32.5428 H   0  0  0  0  0  0  0  0  0  0  0  0
   21.0755    3.6755   30.8516 H   0  0  0  0  0  0  0  0  0  0  0  0
   21.0517    4.5183   29.3348 H   0  0  0  0  0  0  0  0  0  0  0  0
   22.4243    6.8340   30.7698 H   0  0  0  0  0  0  0  0  0  0  0  0
   18.3628   10.7761   33.8834 H   0  0  0  0  0  0  0  0  0  0  0  0
   18.0886    9.0920   33.8353 H   0  0  0  0  0  0  0  0  0  0  0  0
   24.1164   10.1305   31.1640 H   0  0  0  0  0  0  0  0  0  0  0  0
   24.3685   11.8278   30.7144 H   0  0  0  0  0  0  0  0  0  0  0  0
   24.6877   10.2532   28.7789 H   0  0  0  0  0  0  0  0  0  0  0  0
   23.0193    9.7197   28.9601 H   0  0  0  0  0  0  0  0  0  0  0  0
   23.3598   11.3842   28.4837 H   0  0  0  0  0  0  0  0  0  0  0  0
   23.1470    3.1709   31.9179 H   0  0  0  0  0  0  0  0  0  0  0  0
   26.7285    5.1756   30.6824 H   0  0  0  0  0  0  0  0  0  0  0  0
   25.7373    6.8603   28.6029 Cl  0  0  0  0  0  0  0  0  0  0  0  0
  1  2  2  0
  1  6  1  0
  1 23  1  0
  2  3  1  0
  2 36  1  0
  3  4  2  0
  3  7  1  0
  4  5  1  0
  4 24  1  0
  5  6  2  0
  5 38  1  0
  6 37  1  0
  7  8  1  0
  7 26  1  0
  7 27  1  0
  8  9  1  0
  8 11  2  0
  9 10  1  0
  9 28  1  0
 10 12  2  0
 10 16  1  0
 12 13  1  0
 13 14  2  0
 13 19  1  0
 14 15  1  0
 14 18  1  0
 15 16  2  0
 15 17  1  0
 16 25  1  0
 17 29  1  0
 17 30  1  0
 18 22  3  0
 19 20  1  0
 20 21  1  0
 20 31  1  0
 20 32  1  0
 21 33  1  0
 21 34  1  0
 21 35  1  0
M  END
>  <r_exp_dg>  (1) 
-8.87

>  <mol_id>  (1) 
0

>  <source_index>  (1) 
9

>  <paff>  (1) 
6.502932467418681

>  <source_r_exp_dg>  (1) 
-8.8699999999999992

>  <smiles>  (1) 
CCOc1nc(NC(=O)Cc2cccc(Cl)c2)cc(N)c1C#N

>  <aimnet_interaction_kcal_mol>  (1) 
-60.824238220871763

$$$$
jnk1_001
     RDKit          3D

 41 42  0  0  1  0  0  0  0  0999 V2000
   24.6208    3.1140   32.1045 C   0  0  0  0  0  0  0  0  0  0  0  0
   23.3050    3.3463   31.7459 C   0  0  0  0  0  0  0  0  0  0  0  0
   22.9702    4.3109   30.7990 C   0  0  0  0  0  0  0  0  0  0  0  0
   23.9934    5.0454   30.1814 C   0  0  0  0  0  0  0  0  0  0  0  0
   25.3135    4.8118   30.5633 C   0  0  0  0  0  0  0  0  0  0  0  0
   25.6307    3.8567   31.5132 C   0  0  0  0  0  0  0  0  0  0  0  0
   21.5249    4.4571   30.4287 C   0  0  0  0  0  0  0  0  0  0  0  0
   20.7683    5.6369   30.9946 C   0  0  0  0  0  0  0  0  0  0  0  0
   21.5287    6.7642   31.1933 N   0  0  0  0  0  0  0  0  0  0  0  0
   21.0933    8.0091   31.6331 C   0  0  0  0  0  0  0  0  0  0  0  0
   19.5621    5.6034   31.2100 O   0  0  0  0  0  0  0  0  0  0  0  0
   21.9226    9.0205   31.2986 N   0  0  0  0  0  0  0  0  0  0  0  0
   21.5667   10.2423   31.6250 C   0  0  0  0  0  0  0  0  0  0  0  0
   20.4312   10.5680   32.3968 C   0  0  0  0  0  0  0  0  0  0  0  0
   19.6060    9.4746   32.7988 C   0  0  0  0  0  0  0  0  0  0  0  0
   19.9416    8.1859   32.3613 C   0  0  0  0  0  0  0  0  0  0  0  0
   18.5341    9.6417   33.5748 N   0  0  0  0  0  0  0  0  0  0  0  0
   20.1521   11.9046   32.7404 C   0  0  0  0  0  0  0  0  0  0  0  0
   22.3254   11.2727   31.2086 O   0  0  0  0  0  0  0  0  0  0  0  0
   23.5436   10.9309   30.5070 C   0  0  0  0  0  0  0  0  0  0  0  0
   23.2953   10.6036   29.0612 C   0  0  0  0  0  0  0  0  0  0  0  0
   19.9263   13.0108   33.0362 N   0  0  0  0  0  0  0  0  0  0  0  0
   24.8625    2.3463   32.8261 H   0  0  0  0  0  0  0  0  0  0  0  0
   23.7771    6.0445   29.0870 C   0  0  0  0  0  0  0  0  0  0  0  0
   19.3034    7.3500   32.5868 H   0  0  0  0  0  0  0  0  0  0  0  0
   20.9834    3.5766   30.7448 H   0  0  0  0  0  0  0  0  0  0  0  0
   21.3962    4.4932   29.3470 H   0  0  0  0  0  0  0  0  0  0  0  0
   22.5030    6.7116   30.9428 H   0  0  0  0  0  0  0  0  0  0  0  0
   17.9772    8.8449   33.8381 H   0  0  0  0  0  0  0  0  0  0  0  0
   18.1829   10.5473   33.8434 H   0  0  0  0  0  0  0  0  0  0  0  0
   24.0146   10.1009   31.0251 H   0  0  0  0  0  0  0  0  0  0  0  0
   24.1621   11.8201   30.6133 H   0  0  0  0  0  0  0  0  0  0  0  0
   24.2467   10.4203   28.5583 H   0  0  0  0  0  0  0  0  0  0  0  0
   22.6770    9.7163   28.9714 H   0  0  0  0  0  0  0  0  0  0  0  0
   22.7994   11.4229   28.5517 H   0  0  0  0  0  0  0  0  0  0  0  0
   26.6644    3.6826   31.7805 H   0  0  0  0  0  0  0  0  0  0  0  0
   26.1027    5.3890   30.0965 H   0  0  0  0  0  0  0  0  0  0  0  0
   24.3862    5.7744   28.2272 H   0  0  0  0  0  0  0  0  0  0  0  0
   22.7504    6.1095   28.7418 H   0  0  0  0  0  0  0  0  0  0  0  0
   24.1010    7.0415   29.3926 H   0  0  0  0  0  0  0  0  0  0  0  0
   22.5207    2.7420   32.1813 H   0  0  0  0  0  0  0  0  0  0  0  0
  1  2  2  0
  1  6  1  0
  1 23  1  0
  2  3  1  0
  2 41  1  0
  3  4  2  0
  3  7  1  0
  4  5  1  0
  4 24  1  0
  5  6  2  0
  5 37  1  0
  6 36  1  0
  7  8  1  0
  7 26  1  0
  7 27  1  0
  8  9  1  0
  8 11  2  0
  9 10  1  0
  9 28  1  0
 10 12  2  0
 10 16  1  0
 12 13  1  0
 13 14  2  0
 13 19  1  0
 14 15  1  0
 14 18  1  0
 15 16  2  0
 15 17  1  0
 16 25  1  0
 17 29  1  0
 17 30  1  0
 18 22  3  0
 19 20  1  0
 20 21  1  0
 20 31  1  0
 20 32  1  0
 21 33  1  0
 21 34  1  0
 21 35  1  0
 24 38  1  0
 24 39  1  0
 24 40  1  0
M  END
>  <r_exp_dg>  (2) 
-8.7

>  <mol_id>  (2) 
1

>  <source_index>  (2) 
5

>  <paff>  (2) 
6.3782989803996601

>  <source_r_exp_dg>  (2) 
-8.6999999999999993

>  <smiles>  (2) 
CCOc1nc(NC(=O)Cc2ccccc2C)cc(N)c1C#N

>  <aimnet_interaction_kcal_mol>  (2) 
-59.020736872414631

$$$$
jnk1_002
     RDKit          3D

 41 42  0  0  1  0  0  0  0  0999 V2000
   24.8164    3.4580   31.8032 C   0  0  0  0  0  0  0  0  0  0  0  0
   23.4528    3.5981   31.6107 C   0  0  0  0  0  0  0  0  0  0  0  0
   22.9714    4.4854   30.6552 C   0  0  0  0  0  0  0  0  0  0  0  0
   23.8860    5.2245   29.9089 C   0  0  0  0  0  0  0  0  0  0  0  0
   25.2606    5.1198   30.1033 C   0  0  0  0  0  0  0  0  0  0  0  0
   25.7098    4.2186   31.0644 C   0  0  0  0  0  0  0  0  0  0  0  0
   21.5000    4.5752   30.3991 C   0  0  0  0  0  0  0  0  0  0  0  0
   20.7727    5.7488   31.0159 C   0  0  0  0  0  0  0  0  0  0  0  0
   21.5346    6.8895   31.1253 N   0  0  0  0  0  0  0  0  0  0  0  0
   21.1364    8.1389   31.5779 C   0  0  0  0  0  0  0  0  0  0  0  0
   19.5916    5.6965   31.3348 O   0  0  0  0  0  0  0  0  0  0  0  0
   21.9867    9.1335   31.2420 N   0  0  0  0  0  0  0  0  0  0  0  0
   21.6577   10.3626   31.5687 C   0  0  0  0  0  0  0  0  0  0  0  0
   20.5329   10.7121   32.3476 C   0  0  0  0  0  0  0  0  0  0  0  0
   19.7002    9.6327   32.7670 C   0  0  0  0  0  0  0  0  0  0  0  0
   19.9972    8.3395   32.3189 C   0  0  0  0  0  0  0  0  0  0  0  0
   18.6550    9.8125   33.5763 N   0  0  0  0  0  0  0  0  0  0  0  0
   20.2696   12.0523   32.6889 C   0  0  0  0  0  0  0  0  0  0  0  0
   22.4331   11.3789   31.1490 O   0  0  0  0  0  0  0  0  0  0  0  0
   23.6619   11.0187   30.4755 C   0  0  0  0  0  0  0  0  0  0  0  0
   23.4435   10.6754   29.0286 C   0  0  0  0  0  0  0  0  0  0  0  0
   20.0449   13.1586   32.9873 N   0  0  0  0  0  0  0  0  0  0  0  0
   25.1884    2.7385   32.5197 H   0  0  0  0  0  0  0  0  0  0  0  0
   23.5238    5.8691   29.1151 H   0  0  0  0  0  0  0  0  0  0  0  0
   19.3417    7.5191   32.5466 H   0  0  0  0  0  0  0  0  0  0  0  0
   21.0122    3.6779   30.7556 H   0  0  0  0  0  0  0  0  0  0  0  0
   21.2920    4.6099   29.3282 H   0  0  0  0  0  0  0  0  0  0  0  0
   22.4956    6.8217   30.8246 H   0  0  0  0  0  0  0  0  0  0  0  0
   18.0754    9.0277   33.8188 H   0  0  0  0  0  0  0  0  0  0  0  0
   18.3212   10.7173   33.8665 H   0  0  0  0  0  0  0  0  0  0  0  0
   24.1168   10.1911   31.0129 H   0  0  0  0  0  0  0  0  0  0  0  0
   24.2836   11.9056   30.5859 H   0  0  0  0  0  0  0  0  0  0  0  0
   24.4058   10.5055   28.5414 H   0  0  0  0  0  0  0  0  0  0  0  0
   22.8428    9.7764   28.9354 H   0  0  0  0  0  0  0  0  0  0  0  0
   22.9415   11.4821   28.5056 H   0  0  0  0  0  0  0  0  0  0  0  0
   26.7740    4.0970   31.2197 H   0  0  0  0  0  0  0  0  0  0  0  0
   22.7641    2.9830   32.1721 H   0  0  0  0  0  0  0  0  0  0  0  0
   26.2159    5.9530   29.3093 C   0  0  0  0  0  0  0  0  0  0  0  0
   27.2249    5.5525   29.3507 H   0  0  0  0  0  0  0  0  0  0  0  0
   25.9216    6.0006   28.2615 H   0  0  0  0  0  0  0  0  0  0  0  0
   26.2486    6.9738   29.6898 H   0  0  0  0  0  0  0  0  0  0  0  0
  1  2  2  0
  1  6  1  0
  1 23  1  0
  2  3  1  0
  2 37  1  0
  3  4  2  0
  3  7  1  0
  4  5  1  0
  4 24  1  0
  5  6  2  0
  5 38  1  0
  6 36  1  0
  7  8  1  0
  7 26  1  0
  7 27  1  0
  8  9  1  0
  8 11  2  0
  9 10  1  0
  9 28  1  0
 10 12  2  0
 10 16  1  0
 12 13  1  0
 13 14  2  0
 13 19  1  0
 14 15  1  0
 14 18  1  0
 15 16  2  0
 15 17  1  0
 16 25  1  0
 17 29  1  0
 17 30  1  0
 18 22  3  0
 19 20  1  0
 20 21  1  0
 20 31  1  0
 20 32  1  0
 21 33  1  0
 21 34  1  0
 21 35  1  0
 38 39  1  0
 38 40  1  0
 38 41  1  0
M  END
>  <r_exp_dg>  (3) 
-8.67

>  <mol_id>  (3) 
2

>  <source_index>  (3) 
14

>  <paff>  (3) 
6.3563050412712201

>  <source_r_exp_dg>  (3) 
-8.6699999999999999

>  <smiles>  (3) 
CCOc1nc(NC(=O)Cc2cccc(C)c2)cc(N)c1C#N

>  <aimnet_interaction_kcal_mol>  (3) 
-60.560970114404398

$$$$
jnk1_003
     RDKit          3D

 38 39  0  0  1  0  0  0  0  0999 V2000
   25.4376    4.4584   31.1165 C   0  0  0  0  0  0  0  0  0  0  0  0
   24.0896    4.1146   31.0953 C   0  0  0  0  0  0  0  0  0  0  0  0
   23.1773    4.8608   30.3415 C   0  0  0  0  0  0  0  0  0  0  0  0
   23.6931    5.8515   29.5070 C   0  0  0  0  0  0  0  0  0  0  0  0
   25.0250    6.2127   29.5633 C   0  0  0  0  0  0  0  0  0  0  0  0
   25.9123    5.5267   30.3750 C   0  0  0  0  0  0  0  0  0  0  0  0
   21.6917    4.6747   30.3855 C   0  0  0  0  0  0  0  0  0  0  0  0
   20.8918    5.8225   30.9896 C   0  0  0  0  0  0  0  0  0  0  0  0
   21.5755    7.0097   31.1052 N   0  0  0  0  0  0  0  0  0  0  0  0
   21.1043    8.2418   31.5373 C   0  0  0  0  0  0  0  0  0  0  0  0
   19.7158    5.6907   31.2974 O   0  0  0  0  0  0  0  0  0  0  0  0
   21.9277    9.2662   31.2197 N   0  0  0  0  0  0  0  0  0  0  0  0
   21.5723   10.4785   31.5795 C   0  0  0  0  0  0  0  0  0  0  0  0
   20.4344   10.7799   32.3587 C   0  0  0  0  0  0  0  0  0  0  0  0
   19.6302    9.6689   32.7520 C   0  0  0  0  0  0  0  0  0  0  0  0
   19.9500    8.3968   32.2590 C   0  0  0  0  0  0  0  0  0  0  0  0
   18.5986    9.7945   33.5852 N   0  0  0  0  0  0  0  0  0  0  0  0
   20.1443   12.1115   32.7137 C   0  0  0  0  0  0  0  0  0  0  0  0
   22.3316   11.5251   31.2032 O   0  0  0  0  0  0  0  0  0  0  0  0
   23.6523   11.2238   30.6984 C   0  0  0  0  0  0  0  0  0  0  0  0
   23.6540   10.9748   29.2189 C   0  0  0  0  0  0  0  0  0  0  0  0
   19.9095   13.2155   33.0115 N   0  0  0  0  0  0  0  0  0  0  0  0
   26.1250    3.8847   31.7215 H   0  0  0  0  0  0  0  0  0  0  0  0
   23.0169    6.3563   28.8302 H   0  0  0  0  0  0  0  0  0  0  0  0
   19.3131    7.5545   32.4591 H   0  0  0  0  0  0  0  0  0  0  0  0
   21.4175    3.7634   30.9036 H   0  0  0  0  0  0  0  0  0  0  0  0
   21.3104    4.5467   29.3692 H   0  0  0  0  0  0  0  0  0  0  0  0
   22.5496    7.0114   30.8426 H   0  0  0  0  0  0  0  0  0  0  0  0
   18.0427    8.9898   33.8179 H   0  0  0  0  0  0  0  0  0  0  0  0
   18.2574   10.6831   33.9137 H   0  0  0  0  0  0  0  0  0  0  0  0
   24.0303   10.3599   31.2356 H   0  0  0  0  0  0  0  0  0  0  0  0
   24.2461   12.0988   30.9640 H   0  0  0  0  0  0  0  0  0  0  0  0
   24.6792   10.8174   28.8838 H   0  0  0  0  0  0  0  0  0  0  0  0
   23.0778   10.0862   28.9807 H   0  0  0  0  0  0  0  0  0  0  0  0
   23.2390   11.8158   28.6716 H   0  0  0  0  0  0  0  0  0  0  0  0
   26.9471    5.8291   30.4402 H   0  0  0  0  0  0  0  0  0  0  0  0
   25.6358    7.7168   28.5809 Br  0  0  0  0  0  0  0  0  0  0  0  0
   23.5746    2.5871   32.0766 Br  0  0  0  0  0  0  0  0  0  0  0  0
  1  2  2  0
  1  6  1  0
  1 23  1  0
  2  3  1  0
  2 38  1  0
  3  4  2  0
  3  7  1  0
  4  5  1  0
  4 24  1  0
  5  6  2  0
  5 37  1  0
  6 36  1  0
  7  8  1  0
  7 26  1  0
  7 27  1  0
  8  9  1  0
  8 11  2  0
  9 10  1  0
  9 28  1  0
 10 12  2  0
 10 16  1  0
 12 13  1  0
 13 14  2  0
 13 19  1  0
 14 15  1  0
 14 18  1  0
 15 16  2  0
 15 17  1  0
 16 25  1  0
 17 29  1  0
 17 30  1  0
 18 22  3  0
 19 20  1  0
 20 21  1  0
 20 31  1  0
 20 32  1  0
 21 33  1  0
 21 34  1  0
 21 35  1  0
M  END
>  <r_exp_dg>  (4) 
-7.51

>  <mol_id>  (4) 
3

>  <source_index>  (4) 
2

>  <paff>  (4) 
5.5058652704412285

>  <source_r_exp_dg>  (4) 
-7.5099999999999998

>  <smiles>  (4) 
CCOc1nc(NC(=O)Cc2cc(Br)ccc2Br)cc(N)c1C#N

>  <aimnet_interaction_kcal_mol>  (4) 
-61.535787556728927

$$$$
jnk1_004
     RDKit          3D

 46 47  0  0  1  0  0  0  0  0999 V2000
   25.0150    3.4536   31.6531 C   0  0  0  0  0  0  0  0  0  0  0  0
   23.6389    3.5277   31.4305 C   0  0  0  0  0  0  0  0  0  0  0  0
   23.1174    4.5382   30.5987 C   0  0  0  0  0  0  0  0  0  0  0  0
   24.0151    5.3557   29.9215 C   0  0  0  0  0  0  0  0  0  0  0  0
   25.3925    5.3031   30.1322 C   0  0  0  0  0  0  0  0  0  0  0  0
   25.8668    4.3356   31.0218 C   0  0  0  0  0  0  0  0  0  0  0  0
   21.6440    4.6243   30.3745 C   0  0  0  0  0  0  0  0  0  0  0  0
   20.8996    5.7895   30.9968 C   0  0  0  0  0  0  0  0  0  0  0  0
   21.6225    6.9594   31.0878 N   0  0  0  0  0  0  0  0  0  0  0  0
   21.1817    8.1987   31.5376 C   0  0  0  0  0  0  0  0  0  0  0  0
   19.7269    5.7006   31.3362 O   0  0  0  0  0  0  0  0  0  0  0  0
   22.0088    9.2199   31.2144 N   0  0  0  0  0  0  0  0  0  0  0  0
   21.6466   10.4365   31.5572 C   0  0  0  0  0  0  0  0  0  0  0  0
   20.5076   10.7481   32.3306 C   0  0  0  0  0  0  0  0  0  0  0  0
   19.6994    9.6447   32.7345 C   0  0  0  0  0  0  0  0  0  0  0  0
   20.0307    8.3650   32.2694 C   0  0  0  0  0  0  0  0  0  0  0  0
   26.3017    6.1079   29.5341 O   0  0  0  0  0  0  0  0  0  0  0  0
   25.8247    7.2218   28.8024 C   0  0  0  0  0  0  0  0  0  0  0  0
   22.7596    2.6498   31.9452 O   0  0  0  0  0  0  0  0  0  0  0  0
   23.2717    1.4865   32.6039 C   0  0  0  0  0  0  0  0  0  0  0  0
   18.6495    9.7897   33.5448 N   0  0  0  0  0  0  0  0  0  0  0  0
   20.2184   12.0806   32.6846 C   0  0  0  0  0  0  0  0  0  0  0  0
   22.3969   11.4855   31.1644 O   0  0  0  0  0  0  0  0  0  0  0  0
   23.7273   11.1943   30.6852 C   0  0  0  0  0  0  0  0  0  0  0  0
   23.7504   10.8779   29.2155 C   0  0  0  0  0  0  0  0  0  0  0  0
   27.7341    4.2209   31.3897 Br  0  0  0  0  0  0  0  0  0  0  0  0
   19.9810   13.1825   32.9878 N   0  0  0  0  0  0  0  0  0  0  0  0
   25.4311    2.7049   32.3070 H   0  0  0  0  0  0  0  0  0  0  0  0
   23.6371    6.0244   29.1613 H   0  0  0  0  0  0  0  0  0  0  0  0
   19.3946    7.5257   32.4826 H   0  0  0  0  0  0  0  0  0  0  0  0
   21.1921    3.7131   30.7554 H   0  0  0  0  0  0  0  0  0  0  0  0
   21.4182    4.6444   29.3039 H   0  0  0  0  0  0  0  0  0  0  0  0
   22.5947    6.9191   30.8195 H   0  0  0  0  0  0  0  0  0  0  0  0
   25.3471    6.9002   27.8757 H   0  0  0  0  0  0  0  0  0  0  0  0
   25.1245    7.8241   29.3853 H   0  0  0  0  0  0  0  0  0  0  0  0
   26.6966    7.8231   28.5636 H   0  0  0  0  0  0  0  0  0  0  0  0
   23.9149    0.9257   31.9338 H   0  0  0  0  0  0  0  0  0  0  0  0
   22.3955    0.9051   32.8582 H   0  0  0  0  0  0  0  0  0  0  0  0
   23.8105    1.7637   33.5107 H   0  0  0  0  0  0  0  0  0  0  0  0
   18.0941    8.9885   33.7904 H   0  0  0  0  0  0  0  0  0  0  0  0
   18.2910   10.6842   33.8398 H   0  0  0  0  0  0  0  0  0  0  0  0
   24.1242   10.3688   31.2688 H   0  0  0  0  0  0  0  0  0  0  0  0
   24.2967   12.0954   30.9118 H   0  0  0  0  0  0  0  0  0  0  0  0
   24.7807   10.7111   28.8956 H   0  0  0  0  0  0  0  0  0  0  0  0
   23.1751    9.9784   29.0172 H   0  0  0  0  0  0  0  0  0  0  0  0
   23.3355   11.6915   28.6280 H   0  0  0  0  0  0  0  0  0  0  0  0
  1  2  2  0
  1  6  1  0
  1 28  1  0
  2  3  1  0
  2 19  1  0
  3  4  2  0
  3  7  1  0
  4  5  1  0
  4 29  1  0
  5  6  2  0
  5 17  1  0
  6 26  1  0
  7  8  1  0
  7 31  1  0
  7 32  1  0
  8  9  1  0
  8 11  2  0
  9 10  1  0
  9 33  1  0
 10 12  2  0
 10 16  1  0
 12 13  1  0
 13 14  2  0
 13 23  1  0
 14 15  1  0
 14 22  1  0
 15 16  2  0
 15 21  1  0
 16 30  1  0
 17 18  1  0
 18 34  1  0
 18 35  1  0
 18 36  1  0
 19 20  1  0
 20 37  1  0
 20 38  1  0
 20 39  1  0
 21 40  1  0
 21 41  1  0
 22 27  3  0
 23 24  1  0
 24 25  1  0
 24 42  1  0
 24 43  1  0
 25 44  1  0
 25 45  1  0
 25 46  1  0
M  END
>  <r_exp_dg>  (5) 
-9.68

>  <mol_id>  (5) 
4

>  <source_index>  (5) 
1

>  <paff>  (5) 
7.0967744172842968

>  <source_r_exp_dg>  (5) 
-9.6799999999999997

>  <smiles>  (5) 
CCOc1nc(NC(=O)Cc2cc(OC)c(Br)cc2OC)cc(N)c1C#N

>  <aimnet_interaction_kcal_mol>  (5) 
-66.694056301264126

$$$$
jnk1_005
     RDKit          3D

 38 39  0  0  1  0  0  0  0  0999 V2000
   25.2344    5.1624   30.0707 C   0  0  0  0  0  0  0  0  0  0  0  0
   23.8680    5.2363   29.8604 C   0  0  0  0  0  0  0  0  0  0  0  0
   22.9678    4.4891   30.6167 C   0  0  0  0  0  0  0  0  0  0  0  0
   23.4795    3.6142   31.5699 C   0  0  0  0  0  0  0  0  0  0  0  0
   24.8421    3.5079   31.7873 C   0  0  0  0  0  0  0  0  0  0  0  0
   25.7049    4.2977   31.0458 C   0  0  0  0  0  0  0  0  0  0  0  0
   21.4931    4.5680   30.3894 C   0  0  0  0  0  0  0  0  0  0  0  0
   20.7691    5.7437   31.0119 C   0  0  0  0  0  0  0  0  0  0  0  0
   21.5310    6.8823   31.1285 N   0  0  0  0  0  0  0  0  0  0  0  0
   21.1287    8.1348   31.5758 C   0  0  0  0  0  0  0  0  0  0  0  0
   19.5882    5.6906   31.3294 O   0  0  0  0  0  0  0  0  0  0  0  0
   21.9791    9.1268   31.2362 N   0  0  0  0  0  0  0  0  0  0  0  0
   21.6524   10.3578   31.5592 C   0  0  0  0  0  0  0  0  0  0  0  0
   20.5301   10.7093   32.3409 C   0  0  0  0  0  0  0  0  0  0  0  0
   19.6965    9.6321   32.7632 C   0  0  0  0  0  0  0  0  0  0  0  0
   19.9900    8.3377   32.3156 C   0  0  0  0  0  0  0  0  0  0  0  0
   18.6539    9.8143   33.5752 N   0  0  0  0  0  0  0  0  0  0  0  0
   20.2694   12.0502   32.6822 C   0  0  0  0  0  0  0  0  0  0  0  0
   22.4265   11.3715   31.1316 O   0  0  0  0  0  0  0  0  0  0  0  0
   23.6722   11.0087   30.4907 C   0  0  0  0  0  0  0  0  0  0  0  0
   23.4949   10.6512   29.0414 C   0  0  0  0  0  0  0  0  0  0  0  0
   27.4305    4.2128   31.3488 Cl  0  0  0  0  0  0  0  0  0  0  0  0
   20.0459   13.1565   32.9812 N   0  0  0  0  0  0  0  0  0  0  0  0
   25.9241    5.7544   29.4868 H   0  0  0  0  0  0  0  0  0  0  0  0
   22.8082    2.9769   32.1274 H   0  0  0  0  0  0  0  0  0  0  0  0
   19.3330    7.5191   32.5457 H   0  0  0  0  0  0  0  0  0  0  0  0
   21.0186    3.6701   30.7630 H   0  0  0  0  0  0  0  0  0  0  0  0
   21.2637    4.5928   29.3222 H   0  0  0  0  0  0  0  0  0  0  0  0
   22.4933    6.8247   30.8321 H   0  0  0  0  0  0  0  0  0  0  0  0
   18.0733    9.0310   33.8202 H   0  0  0  0  0  0  0  0  0  0  0  0
   18.3219   10.7198   33.8656 H   0  0  0  0  0  0  0  0  0  0  0  0
   24.1154   10.1869   31.0457 H   0  0  0  0  0  0  0  0  0  0  0  0
   24.2895   11.8978   30.6091 H   0  0  0  0  0  0  0  0  0  0  0  0
   24.4707   10.4529   28.5933 H   0  0  0  0  0  0  0  0  0  0  0  0
   22.8795    9.7631   28.9384 H   0  0  0  0  0  0  0  0  0  0  0  0
   23.0288   11.4608   28.4901 H   0  0  0  0  0  0  0  0  0  0  0  0
   25.2340    2.8141   32.5158 H   0  0  0  0  0  0  0  0  0  0  0  0
   23.5006    5.8717   29.0651 H   0  0  0  0  0  0  0  0  0  0  0  0
  1  2  2  0
  1  6  1  0
  1 24  1  0
  2  3  1  0
  2 38  1  0
  3  4  2  0
  3  7  1  0
  4  5  1  0
  4 25  1  0
  5  6  2  0
  5 37  1  0
  6 22  1  0
  7  8  1  0
  7 27  1  0
  7 28  1  0
  8  9  1  0
  8 11  2  0
  9 10  1  0
  9 29  1  0
 10 12  2  0
 10 16  1  0
 12 13  1  0
 13 14  2  0
 13 19  1  0
 14 15  1  0
 14 18  1  0
 15 16  2  0
 15 17  1  0
 16 26  1  0
 17 30  1  0
 17 31  1  0
 18 23  3  0
 19 20  1  0
 20 21  1  0
 20 32  1  0
 20 33  1  0
 21 34  1  0
 21 35  1  0
 21 36  1  0
M  END
>  <r_exp_dg>  (6) 
-8.48

>  <mol_id>  (6) 
5

>  <source_index>  (6) 
22

>  <paff>  (6) 
6.2170084620500932

>  <source_r_exp_dg>  (6) 
-8.4800000000000004

>  <smiles>  (6) 
CCOc1nc(NC(=O)Cc2ccc(Cl)cc2)cc(N)c1C#N

>  <aimnet_interaction_kcal_mol>  (6) 
-60.146950905172623

$$$$
jnk1_006
     RDKit          3D

 52 53  0  0  1  0  0  0  0  0999 V2000
   24.9782    3.3050   31.4186 C   0  0  0  0  0  0  0  0  0  0  0  0
   23.5925    3.4501   31.3356 C   0  0  0  0  0  0  0  0  0  0  0  0
   23.0507    4.5084   30.5822 C   0  0  0  0  0  0  0  0  0  0  0  0
   23.9262    5.3704   29.9357 C   0  0  0  0  0  0  0  0  0  0  0  0
   25.3080    5.3026   30.1023 C   0  0  0  0  0  0  0  0  0  0  0  0
   25.8209    4.2166   30.8157 C   0  0  0  0  0  0  0  0  0  0  0  0
   21.5753    4.6015   30.3960 C   0  0  0  0  0  0  0  0  0  0  0  0
   20.8465    5.7731   31.0205 C   0  0  0  0  0  0  0  0  0  0  0  0
   21.5913    6.9243   31.1287 N   0  0  0  0  0  0  0  0  0  0  0  0
   21.1697    8.1767   31.5602 C   0  0  0  0  0  0  0  0  0  0  0  0
   19.6695    5.7026   31.3480 O   0  0  0  0  0  0  0  0  0  0  0  0
   22.0188    9.1755   31.2283 N   0  0  0  0  0  0  0  0  0  0  0  0
   21.6767   10.4052   31.5468 C   0  0  0  0  0  0  0  0  0  0  0  0
   20.5443   10.7472   32.3184 C   0  0  0  0  0  0  0  0  0  0  0  0
   19.7177    9.6637   32.7376 C   0  0  0  0  0  0  0  0  0  0  0  0
   20.0202    8.3730   32.2836 C   0  0  0  0  0  0  0  0  0  0  0  0
   26.1758    6.2222   29.6299 O   0  0  0  0  0  0  0  0  0  0  0  0
   25.6663    7.5001   29.2782 C   0  0  0  0  0  0  0  0  0  0  0  0
   22.7215    2.6015   31.9063 O   0  0  0  0  0  0  0  0  0  0  0  0
   23.2265    1.4548   32.5985 C   0  0  0  0  0  0  0  0  0  0  0  0
   18.6753    9.8330   33.5526 N   0  0  0  0  0  0  0  0  0  0  0  0
   20.2732   12.0871   32.6596 C   0  0  0  0  0  0  0  0  0  0  0  0
   22.4436   11.4282   31.1247 O   0  0  0  0  0  0  0  0  0  0  0  0
   23.7539   11.0909   30.6127 C   0  0  0  0  0  0  0  0  0  0  0  0
   23.7252   10.7217   29.1541 C   0  0  0  0  0  0  0  0  0  0  0  0
   20.0429   13.1920   32.9575 N   0  0  0  0  0  0  0  0  0  0  0  0
   25.3841    2.4620   31.9480 H   0  0  0  0  0  0  0  0  0  0  0  0
   23.5291    6.0953   29.2403 H   0  0  0  0  0  0  0  0  0  0  0  0
   19.3655    7.5496   32.5022 H   0  0  0  0  0  0  0  0  0  0  0  0
   21.1318    3.6951   30.7938 H   0  0  0  0  0  0  0  0  0  0  0  0
   21.3294    4.6154   29.3303 H   0  0  0  0  0  0  0  0  0  0  0  0
   22.5695    6.8635   30.8905 H   0  0  0  0  0  0  0  0  0  0  0  0
   25.1034    7.4521   28.3455 H   0  0  0  0  0  0  0  0  0  0  0  0
   25.0260    7.9016   30.0636 H   0  0  0  0  0  0  0  0  0  0  0  0
   26.5288    8.1469   29.1670 H   0  0  0  0  0  0  0  0  0  0  0  0
   22.3466    0.9245   32.9354 H   0  0  0  0  0  0  0  0  0  0  0  0
   23.8033    0.8305   31.9243 H   0  0  0  0  0  0  0  0  0  0  0  0
   23.8281    1.7613   33.4554 H   0  0  0  0  0  0  0  0  0  0  0  0
   18.1061    9.0423   33.8017 H   0  0  0  0  0  0  0  0  0  0  0  0
   18.3315   10.7340   33.8447 H   0  0  0  0  0  0  0  0  0  0  0  0
   24.1530   10.2817   31.2178 H   0  0  0  0  0  0  0  0  0  0  0  0
   24.3444   11.9893   30.7854 H   0  0  0  0  0  0  0  0  0  0  0  0
   23.3359   11.5347   28.5499 H   0  0  0  0  0  0  0  0  0  0  0  0
   24.7387   10.4983   28.8164 H   0  0  0  0  0  0  0  0  0  0  0  0
   23.1031    9.8454   28.9999 H   0  0  0  0  0  0  0  0  0  0  0  0
   27.6313    4.0885   30.9827 S   0  0  0  0  0  0  0  0  0  0  0  0
   28.0384    5.0144   32.0650 O   0  0  0  0  0  0  0  0  0  0  0  0
   28.2629    4.1856   29.6538 O   0  0  0  0  0  0  0  0  0  0  0  0
   27.8912    2.3998   31.5754 C   0  0  0  0  0  0  0  0  0  0  0  0
   28.9665    2.2663   31.5430 H   0  0  0  0  0  0  0  0  0  0  0  0
   27.5308    2.3092   32.5935 H   0  0  0  0  0  0  0  0  0  0  0  0
   27.4049    1.7012   30.9032 H   0  0  0  0  0  0  0  0  0  0  0  0
  1  2  2  0
  1  6  1  0
  1 27  1  0
  2  3  1  0
  2 19  1  0
  3  4  2  0
  3  7  1  0
  4  5  1  0
  4 28  1  0
  5  6  2  0
  5 17  1  0
  6 46  1  0
  7  8  1  0
  7 30  1  0
  7 31  1  0
  8  9  1  0
  8 11  2  0
  9 10  1  0
  9 32  1  0
 10 12  2  0
 10 16  1  0
 12 13  1  0
 13 14  2  0
 13 23  1  0
 14 15  1  0
 14 22  1  0
 15 16  2  0
 15 21  1  0
 16 29  1  0
 17 18  1  0
 18 33  1  0
 18 34  1  0
 18 35  1  0
 19 20  1  0
 20 36  1  0
 20 37  1  0
 20 38  1  0
 21 39  1  0
 21 40  1  0
 22 26  3  0
 23 24  1  0
 24 25  1  0
 24 41  1  0
 24 42  1  0
 25 43  1  0
 25 44  1  0
 25 45  1  0
 46 47  2  0
 46 48  2  0
 46 49  1  0
 49 50  1  0
 49 51  1  0
 49 52  1  0
M  END
>  <r_exp_dg>  (7) 
-10.09

>  <mol_id>  (7) 
6

>  <source_index>  (7) 
13

>  <paff>  (7) 
7.3973608156802708

>  <source_r_exp_dg>  (7) 
-10.09

>  <smiles>  (7) 
CCOc1nc(NC(=O)Cc2cc(OC)c(S(C)(=O)=O)cc2OC)cc(N)c1C#N

>  <aimnet_interaction_kcal_mol>  (7) 
-69.587295286723887

$$$$
jnk1_007
     RDKit          3D

 50 51  0  0  1  0  0  0  0  0999 V2000
   25.0988    3.6068   31.2283 C   0  0  0  0  0  0  0  0  0  0  0  0
   23.7096    3.7455   31.1508 C   0  0  0  0  0  0  0  0  0  0  0  0
   23.1622    4.7947   30.3867 C   0  0  0  0  0  0  0  0  0  0  0  0
   24.0244    5.6569   29.7154 C   0  0  0  0  0  0  0  0  0  0  0  0
   25.4060    5.5494   29.8388 C   0  0  0  0  0  0  0  0  0  0  0  0
   25.9316    4.5005   30.5840 C   0  0  0  0  0  0  0  0  0  0  0  0
   21.6814    4.8681   30.2064 C   0  0  0  0  0  0  0  0  0  0  0  0
   20.9388    5.9837   30.9045 C   0  0  0  0  0  0  0  0  0  0  0  0
   21.6157    7.1894   30.9725 N   0  0  0  0  0  0  0  0  0  0  0  0
   21.1301    8.4017   31.4473 C   0  0  0  0  0  0  0  0  0  0  0  0
   19.8010    5.8346   31.3264 O   0  0  0  0  0  0  0  0  0  0  0  0
   21.8655    9.4830   31.0744 N   0  0  0  0  0  0  0  0  0  0  0  0
   21.4562   10.6561   31.5030 C   0  0  0  0  0  0  0  0  0  0  0  0
   20.3598   10.8784   32.3621 C   0  0  0  0  0  0  0  0  0  0  0  0
   19.6355    9.7212   32.7718 C   0  0  0  0  0  0  0  0  0  0  0  0
   20.0220    8.4790   32.2531 C   0  0  0  0  0  0  0  0  0  0  0  0
   26.2996    6.3991   29.2535 O   0  0  0  0  0  0  0  0  0  0  0  0
   25.8251    7.6890   28.9114 C   0  0  0  0  0  0  0  0  0  0  0  0
   22.8314    2.9017   31.7345 O   0  0  0  0  0  0  0  0  0  0  0  0
   23.3347    1.7623   32.4388 C   0  0  0  0  0  0  0  0  0  0  0  0
   18.6184    9.7762   33.6285 N   0  0  0  0  0  0  0  0  0  0  0  0
   20.0248   12.2012   32.7195 C   0  0  0  0  0  0  0  0  0  0  0  0
   22.0998   11.7830   31.1374 O   0  0  0  0  0  0  0  0  0  0  0  0
   23.1533   11.6889   30.1800 C   0  0  0  0  0  0  0  0  0  0  0  0
   23.7684   13.0662   30.0715 C   0  0  0  0  0  0  0  0  0  0  0  0
   19.7746   13.3074   32.9946 N   0  0  0  0  0  0  0  0  0  0  0  0
   25.5395    2.7929   31.7820 H   0  0  0  0  0  0  0  0  0  0  0  0
   23.6146    6.3903   29.0354 H   0  0  0  0  0  0  0  0  0  0  0  0
   19.4607    7.5908   32.4817 H   0  0  0  0  0  0  0  0  0  0  0  0
   21.2610    3.9316   30.5566 H   0  0  0  0  0  0  0  0  0  0  0  0
   21.4290    4.9218   29.1423 H   0  0  0  0  0  0  0  0  0  0  0  0
   22.5772    7.1933   30.6645 H   0  0  0  0  0  0  0  0  0  0  0  0
   25.3105    8.1626   29.7519 H   0  0  0  0  0  0  0  0  0  0  0  0
   26.6970    8.2815   28.6512 H   0  0  0  0  0  0  0  0  0  0  0  0
   25.1504    7.6529   28.0539 H   0  0  0  0  0  0  0  0  0  0  0  0
   22.4580    1.2146   32.7591 H   0  0  0  0  0  0  0  0  0  0  0  0
   23.9333    1.1442   31.7798 H   0  0  0  0  0  0  0  0  0  0  0  0
   23.9199    2.0782   33.3052 H   0  0  0  0  0  0  0  0  0  0  0  0
   18.1009    8.9421   33.8478 H   0  0  0  0  0  0  0  0  0  0  0  0
   18.2418   10.6436   33.9754 H   0  0  0  0  0  0  0  0  0  0  0  0
   22.7629   11.3500   29.2231 H   0  0  0  0  0  0  0  0  0  0  0  0
   23.8965   10.9722   30.5253 H   0  0  0  0  0  0  0  0  0  0  0  0
   22.9965   14.0201   29.3696 O   0  0  0  0  0  0  0  0  0  0  0  0
   24.0182   13.4259   31.0753 H   0  0  0  0  0  0  0  0  0  0  0  0
   24.7013   12.9905   29.5124 H   0  0  0  0  0  0  0  0  0  0  0  0
   21.7686   14.3981   29.9690 C   0  0  0  0  0  0  0  0  0  0  0  0
   21.8214   14.4065   31.0604 H   0  0  0  0  0  0  0  0  0  0  0  0
   21.5141   15.3956   29.6209 H   0  0  0  0  0  0  0  0  0  0  0  0
   20.9680   13.7159   29.6848 H   0  0  0  0  0  0  0  0  0  0  0  0
   27.0050    4.3908   30.6445 H   0  0  0  0  0  0  0  0  0  0  0  0
  1  2  2  0
  1  6  1  0
  1 27  1  0
  2  3  1  0
  2 19  1  0
  3  4  2  0
  3  7  1  0
  4  5  1  0
  4 28  1  0
  5  6  2  0
  5 17  1  0
  6 50  1  0
  7  8  1  0
  7 30  1  0
  7 31  1  0
  8  9  1  0
  8 11  2  0
  9 10  1  0
  9 32  1  0
 10 12  2  0
 10 16  1  0
 12 13  1  0
 13 14  2  0
 13 23  1  0
 14 15  1  0
 14 22  1  0
 15 16  2  0
 15 21  1  0
 16 29  1  0
 17 18  1  0
 18 33  1  0
 18 34  1  0
 18 35  1  0
 19 20  1  0
 20 36  1  0
 20 37  1  0
 20 38  1  0
 21 39  1  0
 21 40  1  0
 22 26  3  0
 23 24  1  0
 24 25  1  0
 24 41  1  0
 24 42  1  0
 25 43  1  0
 25 44  1  0
 25 45  1  0
 43 46  1  0
 46 47  1  0
 46 48  1  0
 46 49  1  0
M  END
>  <r_exp_dg>  (8) 
-9.47

>  <mol_id>  (8) 
7

>  <source_index>  (8) 
4

>  <paff>  (8) 
6.9428154450357829

>  <source_r_exp_dg>  (8) 
-9.4700000000000006

>  <smiles>  (8) 
COCCOc1nc(NC(=O)Cc2cc(OC)ccc2OC)cc(N)c1C#N

>  <aimnet_interaction_kcal_mol>  (8) 
-71.671525310337913

$$$$
jnk1_008
     RDKit          3D

 48 49  0  0  1  0  0  0  0  0999 V2000
   25.0528    3.3690   31.6178 C   0  0  0  0  0  0  0  0  0  0  0  0
   23.6789    3.4971   31.4181 C   0  0  0  0  0  0  0  0  0  0  0  0
   23.1866    4.5347   30.5967 C   0  0  0  0  0  0  0  0  0  0  0  0
   24.0987    5.3491   29.9373 C   0  0  0  0  0  0  0  0  0  0  0  0
   25.4780    5.2293   30.1235 C   0  0  0  0  0  0  0  0  0  0  0  0
   25.9179    4.2386   30.9940 C   0  0  0  0  0  0  0  0  0  0  0  0
   21.7163    4.6368   30.3465 C   0  0  0  0  0  0  0  0  0  0  0  0
   20.9565    5.7840   30.9855 C   0  0  0  0  0  0  0  0  0  0  0  0
   21.6564    6.9670   31.0795 N   0  0  0  0  0  0  0  0  0  0  0  0
   21.1985    8.1996   31.5344 C   0  0  0  0  0  0  0  0  0  0  0  0
   19.7896    5.6726   31.3340 O   0  0  0  0  0  0  0  0  0  0  0  0
   22.0211    9.2251   31.2170 N   0  0  0  0  0  0  0  0  0  0  0  0
   21.6504   10.4393   31.5600 C   0  0  0  0  0  0  0  0  0  0  0  0
   20.5071   10.7419   32.3305 C   0  0  0  0  0  0  0  0  0  0  0  0
   19.7028    9.6332   32.7282 C   0  0  0  0  0  0  0  0  0  0  0  0
   20.0436    8.3554   32.2617 C   0  0  0  0  0  0  0  0  0  0  0  0
   26.4243    5.9605   29.4915 O   0  0  0  0  0  0  0  0  0  0  0  0
   26.0319    7.1823   28.8849 C   0  0  0  0  0  0  0  0  0  0  0  0
   22.7780    2.6506   31.9403 O   0  0  0  0  0  0  0  0  0  0  0  0
   23.2648    1.4774   32.6033 C   0  0  0  0  0  0  0  0  0  0  0  0
   18.6480    9.7733   33.5334 N   0  0  0  0  0  0  0  0  0  0  0  0
   20.2109   12.0718   32.6877 C   0  0  0  0  0  0  0  0  0  0  0  0
   22.3952   11.4927   31.1694 O   0  0  0  0  0  0  0  0  0  0  0  0
   23.7285   11.2094   30.6923 C   0  0  0  0  0  0  0  0  0  0  0  0
   23.7572   10.8943   29.2224 C   0  0  0  0  0  0  0  0  0  0  0  0
   19.9697   13.1726   32.9923 N   0  0  0  0  0  0  0  0  0  0  0  0
   25.4564    2.5839   32.2380 H   0  0  0  0  0  0  0  0  0  0  0  0
   23.7412    6.0586   29.2059 H   0  0  0  0  0  0  0  0  0  0  0  0
   19.4116    7.5120   32.4712 H   0  0  0  0  0  0  0  0  0  0  0  0
   21.2558    3.7148   30.6892 H   0  0  0  0  0  0  0  0  0  0  0  0
   21.5161    4.6858   29.2719 H   0  0  0  0  0  0  0  0  0  0  0  0
   22.6267    6.9539   30.8058 H   0  0  0  0  0  0  0  0  0  0  0  0
   26.9522    7.6928   28.6231 H   0  0  0  0  0  0  0  0  0  0  0  0
   25.4503    7.0003   27.9799 H   0  0  0  0  0  0  0  0  0  0  0  0
   25.4607    7.8046   29.5769 H   0  0  0  0  0  0  0  0  0  0  0  0
   22.3755    0.9209   32.8668 H   0  0  0  0  0  0  0  0  0  0  0  0
   23.8870    0.8964   31.9310 H   0  0  0  0  0  0  0  0  0  0  0  0
   23.8167    1.7470   33.5044 H   0  0  0  0  0  0  0  0  0  0  0  0
   18.0974    8.9693   33.7807 H   0  0  0  0  0  0  0  0  0  0  0  0
   18.2841   10.6662   33.8274 H   0  0  0  0  0  0  0  0  0  0  0  0
   24.1287   10.3853   31.2755 H   0  0  0  0  0  0  0  0  0  0  0  0
   24.2925   12.1133   30.9213 H   0  0  0  0  0  0  0  0  0  0  0  0
   24.7901   10.7381   28.9050 H   0  0  0  0  0  0  0  0  0  0  0  0
   23.1912    9.9896   29.0205 H   0  0  0  0  0  0  0  0  0  0  0  0
   23.3366   11.7045   28.6343 H   0  0  0  0  0  0  0  0  0  0  0  0
   27.9340    5.0052   31.8491 O   0  0  0  0  0  0  0  0  0  0  0  0
   27.3735    4.0961   31.2504 N   0  0  0  0  0  0  0  0  0  0  0  0
   27.8985    3.0678   30.8551 O   0  0  0  0  0  0  0  0  0  0  0  0
  1  2  2  0
  1  6  1  0
  1 27  1  0
  2  3  1  0
  2 19  1  0
  3  4  2  0
  3  7  1  0
  4  5  1  0
  4 28  1  0
  5  6  2  0
  5 17  1  0
  6 47  1  0
  7  8  1  0
  7 30  1  0
  7 31  1  0
  8  9  1  0
  8 11  2  0
  9 10  1  0
  9 32  1  0
 10 12  2  0
 10 16  1  0
 12 13  1  0
 13 14  2  0
 13 23  1  0
 14 15  1  0
 14 22  1  0
 15 16  2  0
 15 21  1  0
 16 29  1  0
 17 18  1  0
 18 33  1  0
 18 34  1  0
 18 35  1  0
 19 20  1  0
 20 36  1  0
 20 37  1  0
 20 38  1  0
 21 39  1  0
 21 40  1  0
 22 26  3  0
 23 24  1  0
 24 25  1  0
 24 41  1  0
 24 42  1  0
 25 43  1  0
 25 44  1  0
 25 45  1  0
 46 47  2  0
 47 48  1  0
M  CHG  2  47   1  48  -1
M  END
>  <r_exp_dg>  (9) 
-9.74

>  <mol_id>  (9) 
8

>  <source_index>  (9) 
10

>  <paff>  (9) 
7.1407622955411751

>  <source_r_exp_dg>  (9) 
-9.7400000000000002

>  <smiles>  (9) 
CCOc1nc(NC(=O)Cc2cc(OC)c([N+](=O)[O-])cc2OC)cc(N)c1C#N

>  <aimnet_interaction_kcal_mol>  (9) 
-65.670036923103609

$$$$
jnk1_009
     RDKit          3D

 46 47  0  0  1  0  0  0  0  0999 V2000
   25.0222    3.4765   31.6473 C   0  0  0  0  0  0  0  0  0  0  0  0
   23.6414    3.5265   31.4356 C   0  0  0  0  0  0  0  0  0  0  0  0
   23.1034    4.5304   30.6070 C   0  0  0  0  0  0  0  0  0  0  0  0
   23.9792    5.3646   29.9174 C   0  0  0  0  0  0  0  0  0  0  0  0
   25.3528    5.3231   30.1403 C   0  0  0  0  0  0  0  0  0  0  0  0
   25.8608    4.3712   31.0162 C   0  0  0  0  0  0  0  0  0  0  0  0
   21.6255    4.5996   30.4025 C   0  0  0  0  0  0  0  0  0  0  0  0
   20.8783    5.7718   31.0030 C   0  0  0  0  0  0  0  0  0  0  0  0
   21.6055    6.9400   31.0954 N   0  0  0  0  0  0  0  0  0  0  0  0
   21.1649    8.1795   31.5427 C   0  0  0  0  0  0  0  0  0  0  0  0
   19.6999    5.6919   31.3258 O   0  0  0  0  0  0  0  0  0  0  0  0
   21.9912    9.2030   31.2221 N   0  0  0  0  0  0  0  0  0  0  0  0
   21.6288   10.4179   31.5704 C   0  0  0  0  0  0  0  0  0  0  0  0
   20.4891   10.7274   32.3429 C   0  0  0  0  0  0  0  0  0  0  0  0
   19.6787    9.6229   32.7396 C   0  0  0  0  0  0  0  0  0  0  0  0
   20.0117    8.3451   32.2719 C   0  0  0  0  0  0  0  0  0  0  0  0
   26.2690    6.1452   29.5578 O   0  0  0  0  0  0  0  0  0  0  0  0
   25.7830    7.2384   28.8035 C   0  0  0  0  0  0  0  0  0  0  0  0
   22.7707    2.6375   31.9495 O   0  0  0  0  0  0  0  0  0  0  0  0
   23.2903    1.4810   32.6091 C   0  0  0  0  0  0  0  0  0  0  0  0
   18.6255    9.7660   33.5457 N   0  0  0  0  0  0  0  0  0  0  0  0
   20.2015   12.0588   32.7012 C   0  0  0  0  0  0  0  0  0  0  0  0
   22.3813   11.4684   31.1855 O   0  0  0  0  0  0  0  0  0  0  0  0
   23.7056   11.1744   30.6919 C   0  0  0  0  0  0  0  0  0  0  0  0
   23.7123   10.8904   29.2161 C   0  0  0  0  0  0  0  0  0  0  0  0
   19.9666   13.1605   33.0072 N   0  0  0  0  0  0  0  0  0  0  0  0
   25.4507    2.7283   32.2957 H   0  0  0  0  0  0  0  0  0  0  0  0
   23.5835    6.0215   29.1557 H   0  0  0  0  0  0  0  0  0  0  0  0
   19.3749    7.5052   32.4801 H   0  0  0  0  0  0  0  0  0  0  0  0
   21.1901    3.6929   30.8105 H   0  0  0  0  0  0  0  0  0  0  0  0
   21.3849    4.5955   29.3352 H   0  0  0  0  0  0  0  0  0  0  0  0
   22.5817    6.8859   30.8425 H   0  0  0  0  0  0  0  0  0  0  0  0
   25.0623    7.8375   29.3658 H   0  0  0  0  0  0  0  0  0  0  0  0
   25.3217    6.8940   27.8764 H   0  0  0  0  0  0  0  0  0  0  0  0
   26.6448    7.8555   28.5632 H   0  0  0  0  0  0  0  0  0  0  0  0
   23.8341    1.7639   33.5118 H   0  0  0  0  0  0  0  0  0  0  0  0
   23.9331    0.9202   31.9383 H   0  0  0  0  0  0  0  0  0  0  0  0
   22.4201    0.8938   32.8720 H   0  0  0  0  0  0  0  0  0  0  0  0
   18.0708    8.9640   33.7902 H   0  0  0  0  0  0  0  0  0  0  0  0
   18.2670   10.6605   33.8402 H   0  0  0  0  0  0  0  0  0  0  0  0
   24.0964   10.3317   31.2542 H   0  0  0  0  0  0  0  0  0  0  0  0
   24.2862   12.0647   30.9331 H   0  0  0  0  0  0  0  0  0  0  0  0
   24.7373   10.7111   28.8859 H   0  0  0  0  0  0  0  0  0  0  0  0
   23.3098   11.7250   28.6495 H   0  0  0  0  0  0  0  0  0  0  0  0
   23.1177   10.0071   29.0018 H   0  0  0  0  0  0  0  0  0  0  0  0
   26.9283    4.3354   31.1802 H   0  0  0  0  0  0  0  0  0  0  0  0
  1  2  2  0
  1  6  1  0
  1 27  1  0
  2  3  1  0
  2 19  1  0
  3  4  2  0
  3  7  1  0
  4  5  1  0
  4 28  1  0
  5  6  2  0
  5 17  1  0
  6 46  1  0
  7  8  1  0
  7 30  1  0
  7 31  1  0
  8  9  1  0
  8 11  2  0
  9 10  1  0
  9 32  1  0
 10 12  2  0
 10 16  1  0
 12 13  1  0
 13 14  2  0
 13 23  1  0
 14 15  1  0
 14 22  1  0
 15 16  2  0
 15 21  1  0
 16 29  1  0
 17 18  1  0
 18 33  1  0
 18 34  1  0
 18 35  1  0
 19 20  1  0
 20 36  1  0
 20 37  1  0
 20 38  1  0
 21 39  1  0
 21 40  1  0
 22 26  3  0
 23 24  1  0
 24 25  1  0
 24 41  1  0
 24 42  1  0
 25 43  1  0
 25 44  1  0
 25 45  1  0
M  END
>  <r_exp_dg>  (10) 
-9.99

>  <mol_id>  (10) 
9

>  <source_index>  (10) 
7

>  <paff>  (10) 
7.3240467530191813

>  <source_r_exp_dg>  (10) 
-9.9900000000000002

>  <smiles>  (10) 
CCOc1nc(NC(=O)Cc2cc(OC)ccc2OC)cc(N)c1C#N

>  <aimnet_interaction_kcal_mol>  (10) 
-64.302633746500774

$$$$
jnk1_010
     RDKit          3D

 41 42  0  0  1  0  0  0  0  0999 V2000
   25.2114    5.1648   29.9683 C   0  0  0  0  0  0  0  0  0  0  0  0
   23.8407    5.2541   29.8065 C   0  0  0  0  0  0  0  0  0  0  0  0
   22.9655    4.5096   30.5944 C   0  0  0  0  0  0  0  0  0  0  0  0
   23.5130    3.6538   31.5423 C   0  0  0  0  0  0  0  0  0  0  0  0
   24.8847    3.5586   31.7038 C   0  0  0  0  0  0  0  0  0  0  0  0
   25.7586    4.3175   30.9306 C   0  0  0  0  0  0  0  0  0  0  0  0
   21.4854    4.5708   30.3969 C   0  0  0  0  0  0  0  0  0  0  0  0
   20.7646    5.7482   31.0156 C   0  0  0  0  0  0  0  0  0  0  0  0
   21.5286    6.8866   31.1265 N   0  0  0  0  0  0  0  0  0  0  0  0
   21.1298    8.1373   31.5784 C   0  0  0  0  0  0  0  0  0  0  0  0
   19.5836    5.6980   31.3348 O   0  0  0  0  0  0  0  0  0  0  0  0
   21.9791    9.1319   31.2407 N   0  0  0  0  0  0  0  0  0  0  0  0
   21.6510   10.3612   31.5674 C   0  0  0  0  0  0  0  0  0  0  0  0
   20.5274   10.7105   32.3480 C   0  0  0  0  0  0  0  0  0  0  0  0
   19.6953    9.6313   32.7683 C   0  0  0  0  0  0  0  0  0  0  0  0
   19.9917    8.3379   32.3203 C   0  0  0  0  0  0  0  0  0  0  0  0
   18.6510    9.8112   33.5787 N   0  0  0  0  0  0  0  0  0  0  0  0
   20.2647   12.0508   32.6896 C   0  0  0  0  0  0  0  0  0  0  0  0
   22.4257   11.3772   31.1459 O   0  0  0  0  0  0  0  0  0  0  0  0
   23.6584   11.0161   30.4800 C   0  0  0  0  0  0  0  0  0  0  0  0
   23.4497   10.6721   29.0320 C   0  0  0  0  0  0  0  0  0  0  0  0
   20.0405   13.1571   32.9884 N   0  0  0  0  0  0  0  0  0  0  0  0
   25.8731    5.7433   29.3344 H   0  0  0  0  0  0  0  0  0  0  0  0
   22.8626    3.0211   32.1293 H   0  0  0  0  0  0  0  0  0  0  0  0
   19.3367    7.5175   32.5495 H   0  0  0  0  0  0  0  0  0  0  0  0
   21.0267    3.6727   30.7900 H   0  0  0  0  0  0  0  0  0  0  0  0
   21.2352    4.5830   29.3342 H   0  0  0  0  0  0  0  0  0  0  0  0
   22.4898    6.8203   30.8274 H   0  0  0  0  0  0  0  0  0  0  0  0
   18.0708    9.0267   33.8210 H   0  0  0  0  0  0  0  0  0  0  0  0
   18.3181   10.7160   33.8695 H   0  0  0  0  0  0  0  0  0  0  0  0
   24.1091   10.1884   31.0202 H   0  0  0  0  0  0  0  0  0  0  0  0
   24.2802   11.9026   30.5942 H   0  0  0  0  0  0  0  0  0  0  0  0
   24.4149   10.4884   28.5558 H   0  0  0  0  0  0  0  0  0  0  0  0
   22.8394    9.7800   28.9350 H   0  0  0  0  0  0  0  0  0  0  0  0
   22.9631   11.4835   28.5017 H   0  0  0  0  0  0  0  0  0  0  0  0
   23.4438    5.8894   29.0250 H   0  0  0  0  0  0  0  0  0  0  0  0
   25.2881    2.8665   32.4313 H   0  0  0  0  0  0  0  0  0  0  0  0
   27.2411    4.2439   31.1107 C   0  0  0  0  0  0  0  0  0  0  0  0
   27.7491    4.1423   30.1520 H   0  0  0  0  0  0  0  0  0  0  0  0
   27.6244    5.1515   31.5761 H   0  0  0  0  0  0  0  0  0  0  0  0
   27.5302    3.3996   31.7316 H   0  0  0  0  0  0  0  0  0  0  0  0
  1  2  2  0
  1  6  1  0
  1 23  1  0
  2  3  1  0
  2 36  1  0
  3  4  2  0
  3  7  1  0
  4  5  1  0
  4 24  1  0
  5  6  2  0
  5 37  1  0
  6 38  1  0
  7  8  1  0
  7 26  1  0
  7 27  1  0
  8  9  1  0
  8 11  2  0
  9 10  1  0
  9 28  1  0
 10 12  2  0
 10 16  1  0
 12 13  1  0
 13 14  2  0
 13 19  1  0
 14 15  1  0
 14 18  1  0
 15 16  2  0
 15 17  1  0
 16 25  1  0
 17 29  1  0
 17 30  1  0
 18 22  3  0
 19 20  1  0
 20 21  1  0
 20 31  1  0
 20 32  1  0
 21 33  1  0
 21 34  1  0
 21 35  1  0
 38 39  1  0
 38 40  1  0
 38 41  1  0
M  END
>  <r_exp_dg>  (11) 
-9.14

>  <mol_id>  (11) 
10

>  <source_index>  (11) 
27

>  <paff>  (11) 
6.7008800170987923

>  <source_r_exp_dg>  (11) 
-9.1400000000000006

>  <smiles>  (11) 
CCOc1nc(NC(=O)Cc2ccc(C)cc2)cc(N)c1C#N

>  <aimnet_interaction_kcal_mol>  (11) 
-59.473258034517208

$$$$
jnk1_011
     RDKit          3D

 53 54  0  0  1  0  0  0  0  0999 V2000
   25.0180    3.5751   31.5908 C   0  0  0  0  0  0  0  0  0  0  0  0
   23.6356    3.6010   31.3843 C   0  0  0  0  0  0  0  0  0  0  0  0
   23.0530    4.5827   30.5601 C   0  0  0  0  0  0  0  0  0  0  0  0
   23.9085    5.4299   29.8625 C   0  0  0  0  0  0  0  0  0  0  0  0
   25.2747    5.4304   30.0755 C   0  0  0  0  0  0  0  0  0  0  0  0
   25.8409    4.4955   30.9577 C   0  0  0  0  0  0  0  0  0  0  0  0
   21.5735    4.6240   30.3887 C   0  0  0  0  0  0  0  0  0  0  0  0
   20.8333    5.7934   31.0022 C   0  0  0  0  0  0  0  0  0  0  0  0
   21.5793    6.9466   31.1061 N   0  0  0  0  0  0  0  0  0  0  0  0
   21.1591    8.1938   31.5481 C   0  0  0  0  0  0  0  0  0  0  0  0
   19.6552    5.7238   31.3260 O   0  0  0  0  0  0  0  0  0  0  0  0
   22.0009    9.2022   31.2212 N   0  0  0  0  0  0  0  0  0  0  0  0
   21.6538   10.4261   31.5529 C   0  0  0  0  0  0  0  0  0  0  0  0
   20.5207   10.7580   32.3266 C   0  0  0  0  0  0  0  0  0  0  0  0
   19.7017    9.6660   32.7411 C   0  0  0  0  0  0  0  0  0  0  0  0
   20.0120    8.3804   32.2789 C   0  0  0  0  0  0  0  0  0  0  0  0
   26.1510    6.2963   29.4746 O   0  0  0  0  0  0  0  0  0  0  0  0
   25.6473    7.5817   29.1391 C   0  0  0  0  0  0  0  0  0  0  0  0
   22.7862    2.7022   31.9148 O   0  0  0  0  0  0  0  0  0  0  0  0
   23.3265    1.5559   32.5818 C   0  0  0  0  0  0  0  0  0  0  0  0
   18.6606    9.8233   33.5592 N   0  0  0  0  0  0  0  0  0  0  0  0
   20.2443   12.0960   32.6712 C   0  0  0  0  0  0  0  0  0  0  0  0
   22.4200   11.4579   31.1437 O   0  0  0  0  0  0  0  0  0  0  0  0
   23.7326   11.1290   30.6384 C   0  0  0  0  0  0  0  0  0  0  0  0
   23.7139   10.7910   29.1730 C   0  0  0  0  0  0  0  0  0  0  0  0
   20.0136   13.2009   32.9690 N   0  0  0  0  0  0  0  0  0  0  0  0
   25.4646    2.8417   32.2382 H   0  0  0  0  0  0  0  0  0  0  0  0
   23.5052    6.0824   29.1024 H   0  0  0  0  0  0  0  0  0  0  0  0
   19.3639    7.5511   32.4955 H   0  0  0  0  0  0  0  0  0  0  0  0
   21.1615    3.7140   30.8135 H   0  0  0  0  0  0  0  0  0  0  0  0
   21.3064    4.6115   29.3281 H   0  0  0  0  0  0  0  0  0  0  0  0
   22.5546    6.8721   30.8546 H   0  0  0  0  0  0  0  0  0  0  0  0
   25.0312    7.5385   28.2412 H   0  0  0  0  0  0  0  0  0  0  0  0
   25.0554    8.0021   29.9536 H   0  0  0  0  0  0  0  0  0  0  0  0
   26.5100    8.2186   28.9675 H   0  0  0  0  0  0  0  0  0  0  0  0
   22.4661    0.9606   32.8601 H   0  0  0  0  0  0  0  0  0  0  0  0
   23.9685    0.9973   31.9095 H   0  0  0  0  0  0  0  0  0  0  0  0
   23.8764    1.8577   33.4731 H   0  0  0  0  0  0  0  0  0  0  0  0
   18.0962    9.0280   33.8043 H   0  0  0  0  0  0  0  0  0  0  0  0
   18.3139   10.7209   33.8577 H   0  0  0  0  0  0  0  0  0  0  0  0
   24.1227   10.3043   31.2286 H   0  0  0  0  0  0  0  0  0  0  0  0
   24.3258   12.0209   30.8368 H   0  0  0  0  0  0  0  0  0  0  0  0
   24.7298   10.5726   28.8385 H   0  0  0  0  0  0  0  0  0  0  0  0
   23.0917    9.9187   28.9982 H   0  0  0  0  0  0  0  0  0  0  0  0
   23.3294   11.6158   28.5819 H   0  0  0  0  0  0  0  0  0  0  0  0
   27.6748    5.1988   30.4710 H   0  0  0  0  0  0  0  0  0  0  0  0
   27.2259    4.5674   31.1178 N   0  0  0  0  0  0  0  0  0  0  0  0
   28.0108    3.9998   32.0910 C   0  0  0  0  0  0  0  0  0  0  0  0
   27.5756    3.3262   33.0126 O   0  0  0  0  0  0  0  0  0  0  0  0
   29.4819    4.2895   31.9200 C   0  0  0  0  0  0  0  0  0  0  0  0
   30.0077    3.9436   32.8015 H   0  0  0  0  0  0  0  0  0  0  0  0
   29.8778    3.7665   31.0499 H   0  0  0  0  0  0  0  0  0  0  0  0
   29.6720    5.3526   31.7846 H   0  0  0  0  0  0  0  0  0  0  0  0
  1  2  2  0
  1  6  1  0
  1 27  1  0
  2  3  1  0
  2 19  1  0
  3  4  2  0
  3  7  1  0
  4  5  1  0
  4 28  1  0
  5  6  2  0
  5 17  1  0
  6 47  1  0
  7  8  1  0
  7 30  1  0
  7 31  1  0
  8  9  1  0
  8 11  2  0
  9 10  1  0
  9 32  1  0
 10 12  2  0
 10 16  1  0
 12 13  1  0
 13 14  2  0
 13 23  1  0
 14 15  1  0
 14 22  1  0
 15 16  2  0
 15 21  1  0
 16 29  1  0
 17 18  1  0
 18 33  1  0
 18 34  1  0
 18 35  1  0
 19 20  1  0
 20 36  1  0
 20 37  1  0
 20 38  1  0
 21 39  1  0
 21 40  1  0
 22 26  3  0
 23 24  1  0
 24 25  1  0
 24 41  1  0
 24 42  1  0
 25 43  1  0
 25 44  1  0
 25 45  1  0
 46 47  1  0
 47 48  1  0
 48 49  2  0
 48 50  1  0
 50 51  1  0
 50 52  1  0
 50 53  1  0
M  END
>  <r_exp_dg>  (12) 
-10.14

>  <mol_id>  (12) 
11

>  <source_index>  (12) 
0

>  <paff>  (12) 
7.434017847010816

>  <source_r_exp_dg>  (12) 
-10.140000000000001

>  <smiles>  (12) 
CCOc1nc(NC(=O)Cc2cc(OC)c(NC(C)=O)cc2OC)cc(N)c1C#N

>  <aimnet_interaction_kcal_mol>  (12) 
-67.410319368454097

$$$$
jnk1_012
     RDKit          3D

 47 48  0  0  1  0  0  0  0  0999 V2000
   25.0490    3.5166   31.5000 C   0  0  0  0  0  0  0  0  0  0  0  0
   23.6625    3.6009   31.3375 C   0  0  0  0  0  0  0  0  0  0  0  0
   23.1217    4.6188   30.5280 C   0  0  0  0  0  0  0  0  0  0  0  0
   23.9938    5.4623   29.8442 C   0  0  0  0  0  0  0  0  0  0  0  0
   25.3716    5.3939   30.0290 C   0  0  0  0  0  0  0  0  0  0  0  0
   25.8868    4.4057   30.8594 C   0  0  0  0  0  0  0  0  0  0  0  0
   21.6434    4.6915   30.3290 C   0  0  0  0  0  0  0  0  0  0  0  0
   20.9009    5.8459   30.9676 C   0  0  0  0  0  0  0  0  0  0  0  0
   21.6163    7.0232   31.0553 N   0  0  0  0  0  0  0  0  0  0  0  0
   21.1674    8.2534   31.5235 C   0  0  0  0  0  0  0  0  0  0  0  0
   19.7345    5.7421   31.3240 O   0  0  0  0  0  0  0  0  0  0  0  0
   21.9837    9.2930   31.2176 N   0  0  0  0  0  0  0  0  0  0  0  0
   21.6149   10.4939   31.6124 C   0  0  0  0  0  0  0  0  0  0  0  0
   20.4615   10.7727   32.3755 C   0  0  0  0  0  0  0  0  0  0  0  0
   19.6666    9.6522   32.7538 C   0  0  0  0  0  0  0  0  0  0  0  0
   20.0181    8.3881   32.2628 C   0  0  0  0  0  0  0  0  0  0  0  0
   26.2827    6.2207   29.4428 O   0  0  0  0  0  0  0  0  0  0  0  0
   25.7962    7.3863   28.8076 C   0  0  0  0  0  0  0  0  0  0  0  0
   22.7874    2.7341   31.8853 O   0  0  0  0  0  0  0  0  0  0  0  0
   23.3004    1.5791   32.5547 C   0  0  0  0  0  0  0  0  0  0  0  0
   18.6144    9.7659   33.5644 N   0  0  0  0  0  0  0  0  0  0  0  0
   20.1542   12.0984   32.7374 C   0  0  0  0  0  0  0  0  0  0  0  0
   22.3715   11.5654   31.3059 O   0  0  0  0  0  0  0  0  0  0  0  0
   23.6807   11.3074   30.7751 C   0  0  0  0  0  0  0  0  0  0  0  0
   23.6678   11.2380   29.2757 C   0  0  0  0  0  0  0  0  0  0  0  0
   19.9012   13.1961   33.0422 N   0  0  0  0  0  0  0  0  0  0  0  0
   25.4830    2.7472   32.1189 H   0  0  0  0  0  0  0  0  0  0  0  0
   23.5905    6.1489   29.1129 H   0  0  0  0  0  0  0  0  0  0  0  0
   19.3978    7.5328   32.4600 H   0  0  0  0  0  0  0  0  0  0  0  0
   21.2060    3.7741   30.7126 H   0  0  0  0  0  0  0  0  0  0  0  0
   21.4007    4.7136   29.2619 H   0  0  0  0  0  0  0  0  0  0  0  0
   22.5906    6.9805   30.7930 H   0  0  0  0  0  0  0  0  0  0  0  0
   25.1190    7.9512   29.4536 H   0  0  0  0  0  0  0  0  0  0  0  0
   26.6614    8.0023   28.5785 H   0  0  0  0  0  0  0  0  0  0  0  0
   25.2795    7.1385   27.8782 H   0  0  0  0  0  0  0  0  0  0  0  0
   22.4271    1.0071   32.8398 H   0  0  0  0  0  0  0  0  0  0  0  0
   23.9237    0.9987   31.8830 H   0  0  0  0  0  0  0  0  0  0  0  0
   23.8635    1.8694   33.4435 H   0  0  0  0  0  0  0  0  0  0  0  0
   18.0697    8.9531   33.7959 H   0  0  0  0  0  0  0  0  0  0  0  0
   18.2502   10.6518   33.8772 H   0  0  0  0  0  0  0  0  0  0  0  0
   24.0532   10.3799   31.1965 H   0  0  0  0  0  0  0  0  0  0  0  0
   24.2956   12.1436   31.1040 H   0  0  0  0  0  0  0  0  0  0  0  0
   23.4848   12.5427   28.7463 O   0  0  0  0  0  0  0  0  0  0  0  0
   24.6330   10.8214   28.9521 H   0  0  0  0  0  0  0  0  0  0  0  0
   22.8806   10.5429   28.9612 H   0  0  0  0  0  0  0  0  0  0  0  0
   26.9582    4.3369   30.9814 H   0  0  0  0  0  0  0  0  0  0  0  0
   23.2112   12.4377   27.8246 H   0  0  0  0  0  0  0  0  0  0  0  0
  1  2  2  0
  1  6  1  0
  1 27  1  0
  2  3  1  0
  2 19  1  0
  3  4  2  0
  3  7  1  0
  4  5  1  0
  4 28  1  0
  5  6  2  0
  5 17  1  0
  6 46  1  0
  7  8  1  0
  7 30  1  0
  7 31  1  0
  8  9  1  0
  8 11  2  0
  9 10  1  0
  9 32  1  0
 10 12  2  0
 10 16  1  0
 12 13  1  0
 13 14  2  0
 13 23  1  0
 14 15  1  0
 14 22  1  0
 15 16  2  0
 15 21  1  0
 16 29  1  0
 17 18  1  0
 18 33  1  0
 18 34  1  0
 18 35  1  0
 19 20  1  0
 20 36  1  0
 20 37  1  0
 20 38  1  0
 21 39  1  0
 21 40  1  0
 22 26  3  0
 23 24  1  0
 24 25  1  0
 24 41  1  0
 24 42  1  0
 25 43  1  0
 25 44  1  0
 25 45  1  0
 43 47  1  0
M  END
>  <r_exp_dg>  (13) 
-9.7

>  <mol_id>  (13) 
12

>  <source_index>  (13) 
15

>  <paff>  (13) 
7.111436810311683

>  <source_r_exp_dg>  (13) 
-9.6999999999999993

>  <smiles>  (13) 
COc1ccc(OC)c(CC(=O)Nc2cc(N)c(C#N)c(OCCO)n2)c1

>  <aimnet_interaction_kcal_mol>  (13) 
-70.699170833981

$$$$
jnk1_013
     RDKit          3D

 42 43  0  0  1  0  0  0  0  0999 V2000
   24.6974    3.3547   31.9151 C   0  0  0  0  0  0  0  0  0  0  0  0
   23.3500    3.5616   31.6572 C   0  0  0  0  0  0  0  0  0  0  0  0
   22.9600    4.4834   30.6967 C   0  0  0  0  0  0  0  0  0  0  0  0
   23.9350    5.2105   30.0094 C   0  0  0  0  0  0  0  0  0  0  0  0
   25.2848    5.0470   30.3162 C   0  0  0  0  0  0  0  0  0  0  0  0
   25.6612    4.0927   31.2570 C   0  0  0  0  0  0  0  0  0  0  0  0
   21.5077    4.6279   30.3617 C   0  0  0  0  0  0  0  0  0  0  0  0
   20.7799    5.7926   30.9947 C   0  0  0  0  0  0  0  0  0  0  0  0
   21.5395    6.9364   31.1024 N   0  0  0  0  0  0  0  0  0  0  0  0
   21.1389    8.1881   31.5473 C   0  0  0  0  0  0  0  0  0  0  0  0
   19.6039    5.7303   31.3309 O   0  0  0  0  0  0  0  0  0  0  0  0
   21.9866    9.1865   31.2101 N   0  0  0  0  0  0  0  0  0  0  0  0
   21.6549   10.4138   31.5426 C   0  0  0  0  0  0  0  0  0  0  0  0
   20.5302   10.7573   32.3244 C   0  0  0  0  0  0  0  0  0  0  0  0
   19.7050    9.6739   32.7483 C   0  0  0  0  0  0  0  0  0  0  0  0
   20.0001    8.3849   32.2896 C   0  0  0  0  0  0  0  0  0  0  0  0
   26.3035    5.7602   29.7689 O   0  0  0  0  0  0  0  0  0  0  0  0
   25.9875    6.8071   28.8694 C   0  0  0  0  0  0  0  0  0  0  0  0
   18.6711    9.8434   33.5738 N   0  0  0  0  0  0  0  0  0  0  0  0
   20.2639   12.0969   32.6682 C   0  0  0  0  0  0  0  0  0  0  0  0
   22.4277   11.4368   31.1275 O   0  0  0  0  0  0  0  0  0  0  0  0
   23.7408   11.0972   30.6277 C   0  0  0  0  0  0  0  0  0  0  0  0
   23.7321   10.7486   29.1643 C   0  0  0  0  0  0  0  0  0  0  0  0
   20.0367   13.2023   32.9677 N   0  0  0  0  0  0  0  0  0  0  0  0
   24.9980    2.5987   32.6277 H   0  0  0  0  0  0  0  0  0  0  0  0
   23.6469    5.8633   29.1969 H   0  0  0  0  0  0  0  0  0  0  0  0
   19.3471    7.5615   32.5138 H   0  0  0  0  0  0  0  0  0  0  0  0
   20.9789    3.7329   30.6591 H   0  0  0  0  0  0  0  0  0  0  0  0
   21.3611    4.7031   29.2824 H   0  0  0  0  0  0  0  0  0  0  0  0
   22.5047    6.8668   30.8147 H   0  0  0  0  0  0  0  0  0  0  0  0
   25.5346    6.4181   27.9585 H   0  0  0  0  0  0  0  0  0  0  0  0
   25.3213    7.5485   29.3196 H   0  0  0  0  0  0  0  0  0  0  0  0
   26.9303    7.2858   28.6255 H   0  0  0  0  0  0  0  0  0  0  0  0
   18.0968    9.0546   33.8172 H   0  0  0  0  0  0  0  0  0  0  0  0
   18.3345   10.7446   33.8718 H   0  0  0  0  0  0  0  0  0  0  0  0
   24.1257   10.2729   31.2209 H   0  0  0  0  0  0  0  0  0  0  0  0
   24.3358   11.9882   30.8244 H   0  0  0  0  0  0  0  0  0  0  0  0
   23.1190    9.8693   28.9887 H   0  0  0  0  0  0  0  0  0  0  0  0
   23.3449   11.5661   28.5644 H   0  0  0  0  0  0  0  0  0  0  0  0
   24.7519   10.5340   28.8376 H   0  0  0  0  0  0  0  0  0  0  0  0
   26.7145    3.9394   31.4445 H   0  0  0  0  0  0  0  0  0  0  0  0
   22.6083    2.9703   32.1744 H   0  0  0  0  0  0  0  0  0  0  0  0
  1  2  2  0
  1  6  1  0
  1 25  1  0
  2  3  1  0
  2 42  1  0
  3  4  2  0
  3  7  1  0
  4  5  1  0
  4 26  1  0
  5  6  2  0
  5 17  1  0
  6 41  1  0
  7  8  1  0
  7 28  1  0
  7 29  1  0
  8  9  1  0
  8 11  2  0
  9 10  1  0
  9 30  1  0
 10 12  2  0
 10 16  1  0
 12 13  1  0
 13 14  2  0
 13 21  1  0
 14 15  1  0
 14 20  1  0
 15 16  2  0
 15 19  1  0
 16 27  1  0
 17 18  1  0
 18 31  1  0
 18 32  1  0
 18 33  1  0
 19 34  1  0
 19 35  1  0
 20 24  3  0
 21 22  1  0
 22 23  1  0
 22 36  1  0
 22 37  1  0
 23 38  1  0
 23 39  1  0
 23 40  1  0
M  END
>  <r_exp_dg>  (14) 
-9.08

>  <mol_id>  (14) 
13

>  <source_index>  (14) 
6

>  <paff>  (14) 
6.656891439667195

>  <source_r_exp_dg>  (14) 
-9.0800000000000001

>  <smiles>  (14) 
CCOc1nc(NC(=O)Cc2cccc(OC)c2)cc(N)c1C#N

>  <aimnet_interaction_kcal_mol>  (14) 
-60.470957951227163

$$$$
jnk1_014
     RDKit          3D

 42 43  0  0  1  0  0  0  0  0999 V2000
   24.8609    3.7111   31.8165 C   0  0  0  0  0  0  0  0  0  0  0  0
   23.5056    3.7074   31.5626 C   0  0  0  0  0  0  0  0  0  0  0  0
   22.9586    4.5292   30.5806 C   0  0  0  0  0  0  0  0  0  0  0  0
   23.8291    5.2902   29.8104 C   0  0  0  0  0  0  0  0  0  0  0  0
   25.1921    5.3143   30.0520 C   0  0  0  0  0  0  0  0  0  0  0  0
   25.7114    4.5331   31.0816 C   0  0  0  0  0  0  0  0  0  0  0  0
   21.4805    4.5734   30.3750 C   0  0  0  0  0  0  0  0  0  0  0  0
   20.7541    5.7447   31.0017 C   0  0  0  0  0  0  0  0  0  0  0  0
   21.5234    6.8777   31.1291 N   0  0  0  0  0  0  0  0  0  0  0  0
   21.1252    8.1297   31.5771 C   0  0  0  0  0  0  0  0  0  0  0  0
   19.5711    5.6937   31.3133 O   0  0  0  0  0  0  0  0  0  0  0  0
   21.9763    9.1229   31.2395 N   0  0  0  0  0  0  0  0  0  0  0  0
   21.6501   10.3529   31.5645 C   0  0  0  0  0  0  0  0  0  0  0  0
   20.5272   10.7050   32.3451 C   0  0  0  0  0  0  0  0  0  0  0  0
   19.6925    9.6275   32.7652 C   0  0  0  0  0  0  0  0  0  0  0  0
   19.9857    8.3339   32.3163 C   0  0  0  0  0  0  0  0  0  0  0  0
   18.6491    9.8091   33.5763 N   0  0  0  0  0  0  0  0  0  0  0  0
   20.2672   12.0458   32.6868 C   0  0  0  0  0  0  0  0  0  0  0  0
   22.4266   11.3670   31.1402 O   0  0  0  0  0  0  0  0  0  0  0  0
   23.6625   11.0013   30.4833 C   0  0  0  0  0  0  0  0  0  0  0  0
   23.4639   10.6539   29.0345 C   0  0  0  0  0  0  0  0  0  0  0  0
   20.0448   13.1523   32.9860 N   0  0  0  0  0  0  0  0  0  0  0  0
   25.2891    3.0688   32.5727 H   0  0  0  0  0  0  0  0  0  0  0  0
   23.4421    5.8659   28.9795 H   0  0  0  0  0  0  0  0  0  0  0  0
   19.3278    7.5153   32.5439 H   0  0  0  0  0  0  0  0  0  0  0  0
   21.0290    3.6705   30.7647 H   0  0  0  0  0  0  0  0  0  0  0  0
   21.2291    4.5883   29.3131 H   0  0  0  0  0  0  0  0  0  0  0  0
   22.4899    6.7978   30.8462 H   0  0  0  0  0  0  0  0  0  0  0  0
   18.0685    9.0254   33.8200 H   0  0  0  0  0  0  0  0  0  0  0  0
   18.3173   10.7145   33.8667 H   0  0  0  0  0  0  0  0  0  0  0  0
   24.1071   10.1734   31.0285 H   0  0  0  0  0  0  0  0  0  0  0  0
   24.2860   11.8865   30.5995 H   0  0  0  0  0  0  0  0  0  0  0  0
   24.4323   10.4623   28.5680 H   0  0  0  0  0  0  0  0  0  0  0  0
   22.8496    9.7647   28.9357 H   0  0  0  0  0  0  0  0  0  0  0  0
   22.9860   11.4660   28.4972 H   0  0  0  0  0  0  0  0  0  0  0  0
   27.0211    4.5123   31.4476 O   0  0  0  0  0  0  0  0  0  0  0  0
   25.8343    5.9225   29.4334 H   0  0  0  0  0  0  0  0  0  0  0  0
   22.8644    3.0346   32.1144 H   0  0  0  0  0  0  0  0  0  0  0  0
   27.9523    5.2303   30.6408 C   0  0  0  0  0  0  0  0  0  0  0  0
   28.9298    5.0338   31.0700 H   0  0  0  0  0  0  0  0  0  0  0  0
   27.9387    4.8707   29.6090 H   0  0  0  0  0  0  0  0  0  0  0  0
   27.7557    6.3013   30.6639 H   0  0  0  0  0  0  0  0  0  0  0  0
  1  2  2  0
  1  6  1  0
  1 23  1  0
  2  3  1  0
  2 38  1  0
  3  4  2  0
  3  7  1  0
  4  5  1  0
  4 24  1  0
  5  6  2  0
  5 37  1  0
  6 36  1  0
  7  8  1  0
  7 26  1  0
  7 27  1  0
  8  9  1  0
  8 11  2  0
  9 10  1  0
  9 28  1  0
 10 12  2  0
 10 16  1  0
 12 13  1  0
 13 14  2  0
 13 19  1  0
 14 15  1  0
 14 18  1  0
 15 16  2  0
 15 17  1  0
 16 25  1  0
 17 29  1  0
 17 30  1  0
 18 22  3  0
 19 20  1  0
 20 21  1  0
 20 31  1  0
 20 32  1  0
 21 33  1  0
 21 34  1  0
 21 35  1  0
 36 39  1  0
 39 40  1  0
 39 41  1  0
 39 42  1  0
M  END
>  <r_exp_dg>  (15) 
-9.17

>  <mol_id>  (15) 
14

>  <source_index>  (15) 
31

>  <paff>  (15) 
6.7228739562272324

>  <source_r_exp_dg>  (15) 
-9.1699999999999999

>  <smiles>  (15) 
CCOc1nc(NC(=O)Cc2ccc(OC)cc2)cc(N)c1C#N

>  <aimnet_interaction_kcal_mol>  (15) 
-60.47390390461711

$$$$
jnk1_015
     RDKit          3D

 44 45  0  0  1  0  0  0  0  0999 V2000
   25.0112    3.7315   31.2325 C   0  0  0  0  0  0  0  0  0  0  0  0
   23.6642    3.9987   31.0061 C   0  0  0  0  0  0  0  0  0  0  0  0
   23.3429    5.0259   30.1096 C   0  0  0  0  0  0  0  0  0  0  0  0
   24.3566    5.7644   29.5105 C   0  0  0  0  0  0  0  0  0  0  0  0
   25.7055    5.5040   29.7409 C   0  0  0  0  0  0  0  0  0  0  0  0
   26.0103    4.4674   30.6169 C   0  0  0  0  0  0  0  0  0  0  0  0
   21.9023    5.2777   29.7627 C   0  0  0  0  0  0  0  0  0  0  0  0
   21.1633    6.1783   30.7287 C   0  0  0  0  0  0  0  0  0  0  0  0
   21.8006    7.3968   30.8848 N   0  0  0  0  0  0  0  0  0  0  0  0
   21.3106    8.5755   31.4173 C   0  0  0  0  0  0  0  0  0  0  0  0
   20.1189    5.8892   31.2889 O   0  0  0  0  0  0  0  0  0  0  0  0
   22.0601    9.6599   31.1112 N   0  0  0  0  0  0  0  0  0  0  0  0
   21.6377   10.8355   31.5180 C   0  0  0  0  0  0  0  0  0  0  0  0
   20.4811   11.0454   32.3003 C   0  0  0  0  0  0  0  0  0  0  0  0
   19.7733    9.8732   32.7088 C   0  0  0  0  0  0  0  0  0  0  0  0
   20.1875    8.6313   32.2075 C   0  0  0  0  0  0  0  0  0  0  0  0
   18.7469    9.9131   33.5606 N   0  0  0  0  0  0  0  0  0  0  0  0
   20.0984   12.3589   32.6396 C   0  0  0  0  0  0  0  0  0  0  0  0
   22.3478   11.9369   31.1970 O   0  0  0  0  0  0  0  0  0  0  0  0
   23.7005   11.7191   30.7395 C   0  0  0  0  0  0  0  0  0  0  0  0
   23.7851   11.5760   29.2485 C   0  0  0  0  0  0  0  0  0  0  0  0
   19.8052   13.4560   32.9081 N   0  0  0  0  0  0  0  0  0  0  0  0
   25.2818    2.9174   31.8915 H   0  0  0  0  0  0  0  0  0  0  0  0
   24.0992    6.5598   28.8181 H   0  0  0  0  0  0  0  0  0  0  0  0
   19.6356    7.7392   32.4451 H   0  0  0  0  0  0  0  0  0  0  0  0
   21.3500    4.3487   29.6942 H   0  0  0  0  0  0  0  0  0  0  0  0
   21.8403    5.7235   28.7714 H   0  0  0  0  0  0  0  0  0  0  0  0
   22.7332    7.4611   30.5029 H   0  0  0  0  0  0  0  0  0  0  0  0
   18.2452    9.0696   33.7831 H   0  0  0  0  0  0  0  0  0  0  0  0
   18.3373   10.7700   33.8964 H   0  0  0  0  0  0  0  0  0  0  0  0
   24.0907   10.8381   31.2391 H   0  0  0  0  0  0  0  0  0  0  0  0
   24.2500   12.5937   31.0869 H   0  0  0  0  0  0  0  0  0  0  0  0
   24.8291   11.4429   28.9601 H   0  0  0  0  0  0  0  0  0  0  0  0
   23.2210   10.7140   28.9053 H   0  0  0  0  0  0  0  0  0  0  0  0
   23.3983   12.4570   28.7435 H   0  0  0  0  0  0  0  0  0  0  0  0
   26.7663    6.2844   29.0316 C   0  0  0  0  0  0  0  0  0  0  0  0
   27.7507    6.0869   29.4459 H   0  0  0  0  0  0  0  0  0  0  0  0
   26.7877    6.0253   27.9715 H   0  0  0  0  0  0  0  0  0  0  0  0
   26.5907    7.3564   29.1091 H   0  0  0  0  0  0  0  0  0  0  0  0
   22.5780    3.2142   31.6493 C   0  0  0  0  0  0  0  0  0  0  0  0
   22.9624    2.4410   32.3054 H   0  0  0  0  0  0  0  0  0  0  0  0
   21.9201    3.8602   32.2273 H   0  0  0  0  0  0  0  0  0  0  0  0
   21.9545    2.7232   30.9070 H   0  0  0  0  0  0  0  0  0  0  0  0
   27.0470    4.2237   30.8115 H   0  0  0  0  0  0  0  0  0  0  0  0
  1  2  2  0
  1  6  1  0
  1 23  1  0
  2  3  1  0
  2 40  1  0
  3  4  2  0
  3  7  1  0
  4  5  1  0
  4 24  1  0
  5  6  2  0
  5 36  1  0
  6 44  1  0
  7  8  1  0
  7 26  1  0
  7 27  1  0
  8  9  1  0
  8 11  2  0
  9 10  1  0
  9 28  1  0
 10 12  2  0
 10 16  1  0
 12 13  1  0
 13 14  2  0
 13 19  1  0
 14 15  1  0
 14 18  1  0
 15 16  2  0
 15 17  1  0
 16 25  1  0
 17 29  1  0
 17 30  1  0
 18 22  3  0
 19 20  1  0
 20 21  1  0
 20 31  1  0
 20 32  1  0
 21 33  1  0
 21 34  1  0
 21 35  1  0
 36 37  1  0
 36 38  1  0
 36 39  1  0
 40 41  1  0
 40 42  1  0
 40 43  1  0
M  END
>  <r_exp_dg>  (16) 
-7.29

>  <mol_id>  (16) 
15

>  <source_index>  (16) 
8

>  <paff>  (16) 
5.3445747520916616

>  <source_r_exp_dg>  (16) 
-7.29

>  <smiles>  (16) 
CCOc1nc(NC(=O)Cc2cc(C)ccc2C)cc(N)c1C#N

>  <aimnet_interaction_kcal_mol>  (16) 
-59.193864773571534

$$$$
jnk1_016
     RDKit          3D

 42 43  0  0  1  0  0  0  0  0999 V2000
   25.0697    3.7986   31.1140 C   0  0  0  0  0  0  0  0  0  0  0  0
   23.6748    3.7572   31.1086 C   0  0  0  0  0  0  0  0  0  0  0  0
   22.9465    4.6499   30.2971 C   0  0  0  0  0  0  0  0  0  0  0  0
   23.6478    5.5011   29.4557 C   0  0  0  0  0  0  0  0  0  0  0  0
   25.0336    5.5437   29.4506 C   0  0  0  0  0  0  0  0  0  0  0  0
   25.7347    4.6941   30.2938 C   0  0  0  0  0  0  0  0  0  0  0  0
   21.4562    4.6266   30.3273 C   0  0  0  0  0  0  0  0  0  0  0  0
   20.7580    5.7939   30.9934 C   0  0  0  0  0  0  0  0  0  0  0  0
   21.5204    6.9349   31.1016 N   0  0  0  0  0  0  0  0  0  0  0  0
   21.1209    8.1792   31.5666 C   0  0  0  0  0  0  0  0  0  0  0  0
   19.5891    5.7314   31.3512 O   0  0  0  0  0  0  0  0  0  0  0  0
   21.9691    9.1783   31.2371 N   0  0  0  0  0  0  0  0  0  0  0  0
   21.6400   10.4051   31.5719 C   0  0  0  0  0  0  0  0  0  0  0  0
   20.5152   10.7479   32.3535 C   0  0  0  0  0  0  0  0  0  0  0  0
   19.6899    9.6625   32.7723 C   0  0  0  0  0  0  0  0  0  0  0  0
   19.9859    8.3731   32.3134 C   0  0  0  0  0  0  0  0  0  0  0  0
   22.9360    2.8891   31.8241 O   0  0  0  0  0  0  0  0  0  0  0  0
   23.5970    1.8177   32.4974 C   0  0  0  0  0  0  0  0  0  0  0  0
   18.6523    9.8302   33.5930 N   0  0  0  0  0  0  0  0  0  0  0  0
   20.2468   12.0876   32.6948 C   0  0  0  0  0  0  0  0  0  0  0  0
   22.4154   11.4249   31.1596 O   0  0  0  0  0  0  0  0  0  0  0  0
   23.6544   11.0694   30.5030 C   0  0  0  0  0  0  0  0  0  0  0  0
   23.4565   10.7390   29.0506 C   0  0  0  0  0  0  0  0  0  0  0  0
   20.0189   13.1938   32.9907 N   0  0  0  0  0  0  0  0  0  0  0  0
   25.6379    3.1296   31.7411 H   0  0  0  0  0  0  0  0  0  0  0  0
   23.0845    6.1317   28.7779 H   0  0  0  0  0  0  0  0  0  0  0  0
   19.3340    7.5499   32.5408 H   0  0  0  0  0  0  0  0  0  0  0  0
   21.1325    3.7170   30.8241 H   0  0  0  0  0  0  0  0  0  0  0  0
   21.0623    4.5839   29.3087 H   0  0  0  0  0  0  0  0  0  0  0  0
   22.4804    6.8716   30.7961 H   0  0  0  0  0  0  0  0  0  0  0  0
   24.2168    2.2040   33.3087 H   0  0  0  0  0  0  0  0  0  0  0  0
   24.1952    1.2451   31.7968 H   0  0  0  0  0  0  0  0  0  0  0  0
   22.8091    1.1926   32.8997 H   0  0  0  0  0  0  0  0  0  0  0  0
   18.3210   10.7313   33.8962 H   0  0  0  0  0  0  0  0  0  0  0  0
   18.0744    9.0420   33.8287 H   0  0  0  0  0  0  0  0  0  0  0  0
   24.0978   10.2354   31.0394 H   0  0  0  0  0  0  0  0  0  0  0  0
   24.2772   11.9534   30.6314 H   0  0  0  0  0  0  0  0  0  0  0  0
   24.4238   10.5596   28.5772 H   0  0  0  0  0  0  0  0  0  0  0  0
   22.8458    9.8483   28.9438 H   0  0  0  0  0  0  0  0  0  0  0  0
   22.9720   11.5542   28.5243 H   0  0  0  0  0  0  0  0  0  0  0  0
   26.8150    4.7180   30.3024 H   0  0  0  0  0  0  0  0  0  0  0  0
   25.5680    6.2224   28.8023 H   0  0  0  0  0  0  0  0  0  0  0  0
  1  2  2  0
  1  6  1  0
  1 25  1  0
  2  3  1  0
  2 17  1  0
  3  4  2  0
  3  7  1  0
  4  5  1  0
  4 26  1  0
  5  6  2  0
  5 42  1  0
  6 41  1  0
  7  8  1  0
  7 28  1  0
  7 29  1  0
  8  9  1  0
  8 11  2  0
  9 10  1  0
  9 30  1  0
 10 12  2  0
 10 16  1  0
 12 13  1  0
 13 14  2  0
 13 21  1  0
 14 15  1  0
 14 20  1  0
 15 16  2  0
 15 19  1  0
 16 27  1  0
 17 18  1  0
 18 31  1  0
 18 32  1  0
 18 33  1  0
 19 34  1  0
 19 35  1  0
 20 24  3  0
 21 22  1  0
 22 23  1  0
 22 36  1  0
 22 37  1  0
 23 38  1  0
 23 39  1  0
 23 40  1  0
M  END
>  <r_exp_dg>  (17) 
-9.41

>  <mol_id>  (17) 
16

>  <source_index>  (17) 
11

>  <paff>  (17) 
6.8988268676041855

>  <source_r_exp_dg>  (17) 
-9.4100000000000001

>  <smiles>  (17) 
CCOc1nc(NC(=O)Cc2ccccc2OC)cc(N)c1C#N

>  <aimnet_interaction_kcal_mol>  (17) 
-62.456834608066295

$$$$
jnk1_017
     RDKit          3D

 52 53  0  0  1  0  0  0  0  0999 V2000
   25.0596    3.4784   31.5167 C   0  0  0  0  0  0  0  0  0  0  0  0
   23.6723    3.5569   31.3653 C   0  0  0  0  0  0  0  0  0  0  0  0
   23.1190    4.5674   30.5556 C   0  0  0  0  0  0  0  0  0  0  0  0
   23.9799    5.4273   29.8782 C   0  0  0  0  0  0  0  0  0  0  0  0
   25.3596    5.3624   30.0485 C   0  0  0  0  0  0  0  0  0  0  0  0
   25.8875    4.3729   30.8692 C   0  0  0  0  0  0  0  0  0  0  0  0
   21.6404    4.6009   30.3467 C   0  0  0  0  0  0  0  0  0  0  0  0
   20.8623    5.7308   30.9777 C   0  0  0  0  0  0  0  0  0  0  0  0
   21.5583    6.9177   31.1060 N   0  0  0  0  0  0  0  0  0  0  0  0
   21.0703    8.1253   31.5796 C   0  0  0  0  0  0  0  0  0  0  0  0
   19.6860    5.6197   31.2938 O   0  0  0  0  0  0  0  0  0  0  0  0
   21.8306    9.1980   31.2430 N   0  0  0  0  0  0  0  0  0  0  0  0
   21.4288   10.3737   31.6547 C   0  0  0  0  0  0  0  0  0  0  0  0
   20.3136   10.6086   32.4877 C   0  0  0  0  0  0  0  0  0  0  0  0
   19.5377    9.4616   32.8483 C   0  0  0  0  0  0  0  0  0  0  0  0
   19.9338    8.2162   32.3460 C   0  0  0  0  0  0  0  0  0  0  0  0
   26.2591    6.1935   29.4461 O   0  0  0  0  0  0  0  0  0  0  0  0
   25.7688    7.4135   28.9244 C   0  0  0  0  0  0  0  0  0  0  0  0
   22.8021    2.6925   31.9234 O   0  0  0  0  0  0  0  0  0  0  0  0
   23.3168    1.5349   32.5851 C   0  0  0  0  0  0  0  0  0  0  0  0
   18.4626    9.5419   33.6286 N   0  0  0  0  0  0  0  0  0  0  0  0
   20.0056   11.9118   32.9135 C   0  0  0  0  0  0  0  0  0  0  0  0
   22.1200   11.4729   31.2647 O   0  0  0  0  0  0  0  0  0  0  0  0
   23.0521   11.2508   30.2002 C   0  0  0  0  0  0  0  0  0  0  0  0
   23.6253   12.5793   29.8018 C   0  0  0  0  0  0  0  0  0  0  0  0
   19.7844   13.0076   33.2478 N   0  0  0  0  0  0  0  0  0  0  0  0
   25.5020    2.7095   32.1305 H   0  0  0  0  0  0  0  0  0  0  0  0
   23.5706    6.1241   29.1598 H   0  0  0  0  0  0  0  0  0  0  0  0
   19.3490    7.3370   32.5487 H   0  0  0  0  0  0  0  0  0  0  0  0
   21.2288    3.6703   30.7255 H   0  0  0  0  0  0  0  0  0  0  0  0
   21.4033    4.6209   29.2786 H   0  0  0  0  0  0  0  0  0  0  0  0
   22.5302    6.9094   30.8323 H   0  0  0  0  0  0  0  0  0  0  0  0
   25.1683    7.2500   28.0272 H   0  0  0  0  0  0  0  0  0  0  0  0
   26.6371    8.0098   28.6607 H   0  0  0  0  0  0  0  0  0  0  0  0
   25.1729    7.9570   29.6640 H   0  0  0  0  0  0  0  0  0  0  0  0
   23.9318    0.9538   31.9060 H   0  0  0  0  0  0  0  0  0  0  0  0
   23.8885    1.8213   33.4698 H   0  0  0  0  0  0  0  0  0  0  0  0
   22.4441    0.9653   32.8772 H   0  0  0  0  0  0  0  0  0  0  0  0
   17.9480    8.7085   33.8754 H   0  0  0  0  0  0  0  0  0  0  0  0
   18.0658   10.4236   33.9171 H   0  0  0  0  0  0  0  0  0  0  0  0
   22.5387   10.7881   29.3641 H   0  0  0  0  0  0  0  0  0  0  0  0
   23.8369   10.5796   30.5385 H   0  0  0  0  0  0  0  0  0  0  0  0
   24.1839   13.0677   30.5972 H   0  0  0  0  0  0  0  0  0  0  0  0
   24.2581   12.4862   28.9238 H   0  0  0  0  0  0  0  0  0  0  0  0
   26.9603    4.3068   30.9789 H   0  0  0  0  0  0  0  0  0  0  0  0
   22.3253   13.7436   29.2473 S   0  0  0  0  0  0  0  0  0  0  0  0
   21.2813   12.9430   28.5843 O   0  0  0  0  0  0  0  0  0  0  0  0
   23.0256   14.8345   28.5150 O   0  0  0  0  0  0  0  0  0  0  0  0
   21.5770   14.4455   30.7389 C   0  0  0  0  0  0  0  0  0  0  0  0
   21.2875   15.4561   30.4767 H   0  0  0  0  0  0  0  0  0  0  0  0
   20.7153   13.8329   30.9727 H   0  0  0  0  0  0  0  0  0  0  0  0
   22.2742   14.4183   31.5678 H   0  0  0  0  0  0  0  0  0  0  0  0
  1  2  2  0
  1  6  1  0
  1 27  1  0
  2  3  1  0
  2 19  1  0
  3  4  2  0
  3  7  1  0
  4  5  1  0
  4 28  1  0
  5  6  2  0
  5 17  1  0
  6 45  1  0
  7  8  1  0
  7 30  1  0
  7 31  1  0
  8  9  1  0
  8 11  2  0
  9 10  1  0
  9 32  1  0
 10 12  2  0
 10 16  1  0
 12 13  1  0
 13 14  2  0
 13 23  1  0
 14 15  1  0
 14 22  1  0
 15 16  2  0
 15 21  1  0
 16 29  1  0
 17 18  1  0
 18 33  1  0
 18 34  1  0
 18 35  1  0
 19 20  1  0
 20 36  1  0
 20 37  1  0
 20 38  1  0
 21 39  1  0
 21 40  1  0
 22 26  3  0
 23 24  1  0
 24 25  1  0
 24 41  1  0
 24 42  1  0
 25 43  1  0
 25 44  1  0
 25 46  1  0
 46 47  2  0
 46 48  2  0
 46 49  1  0
 49 50  1  0
 49 51  1  0
 49 52  1  0
M  END
>  <r_exp_dg>  (18) 
-8.7

>  <mol_id>  (18) 
17

>  <source_index>  (18) 
16

>  <paff>  (18) 
6.3782989803996601

>  <source_r_exp_dg>  (18) 
-8.6999999999999993

>  <smiles>  (18) 
COc1ccc(OC)c(CC(=O)Nc2cc(N)c(C#N)c(OCCS(C)(=O)=O)n2)c1

>  <aimnet_interaction_kcal_mol>  (18) 
-70.311730516234235

$$$$
jnk1_018
     RDKit          3D

 38 39  0  0  1  0  0  0  0  0999 V2000
   25.3927    4.4401   30.8025 C   0  0  0  0  0  0  0  0  0  0  0  0
   24.0314    4.1876   30.9245 C   0  0  0  0  0  0  0  0  0  0  0  0
   23.0966    4.8886   30.1580 C   0  0  0  0  0  0  0  0  0  0  0  0
   23.5878    5.8174   29.2414 C   0  0  0  0  0  0  0  0  0  0  0  0
   24.9366    6.0941   29.1261 C   0  0  0  0  0  0  0  0  0  0  0  0
   25.8418    5.4047   29.9188 C   0  0  0  0  0  0  0  0  0  0  0  0
   21.6179    4.7143   30.2944 C   0  0  0  0  0  0  0  0  0  0  0  0
   20.8772    5.8592   30.9654 C   0  0  0  0  0  0  0  0  0  0  0  0
   21.5933    7.0313   31.0718 N   0  0  0  0  0  0  0  0  0  0  0  0
   21.1529    8.2655   31.5275 C   0  0  0  0  0  0  0  0  0  0  0  0
   19.7148    5.7474   31.3275 O   0  0  0  0  0  0  0  0  0  0  0  0
   21.9809    9.2855   31.2075 N   0  0  0  0  0  0  0  0  0  0  0  0
   21.6260   10.5019   31.5540 C   0  0  0  0  0  0  0  0  0  0  0  0
   20.4893   10.8130   32.3318 C   0  0  0  0  0  0  0  0  0  0  0  0
   19.6879    9.7065   32.7425 C   0  0  0  0  0  0  0  0  0  0  0  0
   20.0073    8.4288   32.2648 C   0  0  0  0  0  0  0  0  0  0  0  0
   18.6559    9.8419   33.5754 N   0  0  0  0  0  0  0  0  0  0  0  0
   20.1975   12.1476   32.6766 C   0  0  0  0  0  0  0  0  0  0  0  0
   22.3848   11.5444   31.1607 O   0  0  0  0  0  0  0  0  0  0  0  0
   23.7193   11.2401   30.6969 C   0  0  0  0  0  0  0  0  0  0  0  0
   23.7656   10.9207   29.2285 C   0  0  0  0  0  0  0  0  0  0  0  0
   19.9564   13.2516   32.9701 N   0  0  0  0  0  0  0  0  0  0  0  0
   26.0964    3.8768   31.3972 H   0  0  0  0  0  0  0  0  0  0  0  0
   22.8689    6.3414   28.6237 H   0  0  0  0  0  0  0  0  0  0  0  0
   19.3724    7.5882   32.4782 H   0  0  0  0  0  0  0  0  0  0  0  0
   21.3668    3.7957   30.8125 H   0  0  0  0  0  0  0  0  0  0  0  0
   21.1686    4.6117   29.3036 H   0  0  0  0  0  0  0  0  0  0  0  0
   22.5551    7.0120   30.7655 H   0  0  0  0  0  0  0  0  0  0  0  0
   18.0979    9.0395   33.8119 H   0  0  0  0  0  0  0  0  0  0  0  0
   18.3086   10.7326   33.8920 H   0  0  0  0  0  0  0  0  0  0  0  0
   24.1005   10.4102   31.2840 H   0  0  0  0  0  0  0  0  0  0  0  0
   24.2936   12.1359   30.9333 H   0  0  0  0  0  0  0  0  0  0  0  0
   24.8011   10.7465   28.9302 H   0  0  0  0  0  0  0  0  0  0  0  0
   23.1924   10.0227   29.0207 H   0  0  0  0  0  0  0  0  0  0  0  0
   23.3649   11.7331   28.6299 H   0  0  0  0  0  0  0  0  0  0  0  0
   26.8986    5.6175   29.8513 H   0  0  0  0  0  0  0  0  0  0  0  0
   25.2953    6.8474   28.4389 H   0  0  0  0  0  0  0  0  0  0  0  0
   23.5398    2.9521   32.0433 Cl  0  0  0  0  0  0  0  0  0  0  0  0
  1  2  2  0
  1  6  1  0
  1 23  1  0
  2  3  1  0
  2 38  1  0
  3  4  2  0
  3  7  1  0
  4  5  1  0
  4 24  1  0
  5  6  2  0
  5 37  1  0
  6 36  1  0
  7  8  1  0
  7 26  1  0
  7 27  1  0
  8  9  1  0
  8 11  2  0
  9 10  1  0
  9 28  1  0
 10 12  2  0
 10 16  1  0
 12 13  1  0
 13 14  2  0
 13 19  1  0
 14 15  1  0
 14 18  1  0
 15 16  2  0
 15 17  1  0
 16 25  1  0
 17 29  1  0
 17 30  1  0
 18 22  3  0
 19 20  1  0
 20 21  1  0
 20 31  1  0
 20 32  1  0
 21 33  1  0
 21 34  1  0
 21 35  1  0
M  END
>  <r_exp_dg>  (19) 
-8.11

>  <mol_id>  (19) 
18

>  <source_index>  (19) 
12

>  <paff>  (19) 
5.9457475488836113

>  <source_r_exp_dg>  (19) 
-8.1099999999999994

>  <smiles>  (19) 
CCOc1nc(NC(=O)Cc2ccccc2Cl)cc(N)c1C#N

>  <aimnet_interaction_kcal_mol>  (19) 
-57.897414107386659

$$$$
jnk1_019
     RDKit          3D

 38 39  0  0  1  0  0  0  0  0999 V2000
   25.2229    5.1439   29.9787 C   0  0  0  0  0  0  0  0  0  0  0  0
   23.8505    5.2461   29.8144 C   0  0  0  0  0  0  0  0  0  0  0  0
   22.9711    4.5029   30.5993 C   0  0  0  0  0  0  0  0  0  0  0  0
   23.5005    3.6374   31.5505 C   0  0  0  0  0  0  0  0  0  0  0  0
   24.8712    3.5204   31.7136 C   0  0  0  0  0  0  0  0  0  0  0  0
   25.7343    4.2771   30.9342 C   0  0  0  0  0  0  0  0  0  0  0  0
   21.4919    4.5730   30.3925 C   0  0  0  0  0  0  0  0  0  0  0  0
   20.7699    5.7485   31.0144 C   0  0  0  0  0  0  0  0  0  0  0  0
   21.5300    6.8899   31.1230 N   0  0  0  0  0  0  0  0  0  0  0  0
   21.1299    8.1391   31.5771 C   0  0  0  0  0  0  0  0  0  0  0  0
   19.5903    5.6963   31.3374 O   0  0  0  0  0  0  0  0  0  0  0  0
   21.9791    9.1342   31.2410 N   0  0  0  0  0  0  0  0  0  0  0  0
   21.6502   10.3631   31.5696 C   0  0  0  0  0  0  0  0  0  0  0  0
   20.5259   10.7107   32.3498 C   0  0  0  0  0  0  0  0  0  0  0  0
   19.6942    9.6306   32.7687 C   0  0  0  0  0  0  0  0  0  0  0  0
   19.9916    8.3379   32.3193 C   0  0  0  0  0  0  0  0  0  0  0  0
   18.6497    9.8093   33.5788 N   0  0  0  0  0  0  0  0  0  0  0  0
   20.2622   12.0508   32.6919 C   0  0  0  0  0  0  0  0  0  0  0  0
   22.4248   11.3801   31.1510 O   0  0  0  0  0  0  0  0  0  0  0  0
   23.6532   11.0219   30.4757 C   0  0  0  0  0  0  0  0  0  0  0  0
   23.4334   10.6823   29.0285 C   0  0  0  0  0  0  0  0  0  0  0  0
   20.0374   13.1569   32.9906 N   0  0  0  0  0  0  0  0  0  0  0  0
   25.8933    5.7221   29.3571 H   0  0  0  0  0  0  0  0  0  0  0  0
   22.8366    3.0169   32.1359 H   0  0  0  0  0  0  0  0  0  0  0  0
   19.3376    7.5166   32.5480 H   0  0  0  0  0  0  0  0  0  0  0  0
   21.0257    3.6749   30.7765 H   0  0  0  0  0  0  0  0  0  0  0  0
   21.2491    4.5923   29.3283 H   0  0  0  0  0  0  0  0  0  0  0  0
   22.4893    6.8295   30.8172 H   0  0  0  0  0  0  0  0  0  0  0  0
   18.0701    9.0244   33.8210 H   0  0  0  0  0  0  0  0  0  0  0  0
   18.3165   10.7139   33.8705 H   0  0  0  0  0  0  0  0  0  0  0  0
   24.1091   10.1934   31.0103 H   0  0  0  0  0  0  0  0  0  0  0  0
   24.2749   11.9087   30.5878 H   0  0  0  0  0  0  0  0  0  0  0  0
   24.3946   10.5056   28.5421 H   0  0  0  0  0  0  0  0  0  0  0  0
   22.8263    9.7878   28.9334 H   0  0  0  0  0  0  0  0  0  0  0  0
   22.9382   11.4933   28.5058 H   0  0  0  0  0  0  0  0  0  0  0  0
   26.8044    4.1823   31.0573 H   0  0  0  0  0  0  0  0  0  0  0  0
   25.2711    2.8242   32.4377 H   0  0  0  0  0  0  0  0  0  0  0  0
   23.4595    5.8889   29.0359 H   0  0  0  0  0  0  0  0  0  0  0  0
  1  2  2  0
  1  6  1  0
  1 23  1  0
  2  3  1  0
  2 38  1  0
  3  4  2  0
  3  7  1  0
  4  5  1  0
  4 24  1  0
  5  6  2  0
  5 37  1  0
  6 36  1  0
  7  8  1  0
  7 26  1  0
  7 27  1  0
  8  9  1  0
  8 11  2  0
  9 10  1  0
  9 28  1  0
 10 12  2  0
 10 16  1  0
 12 13  1  0
 13 14  2  0
 13 19  1  0
 14 15  1  0
 14 18  1  0
 15 16  2  0
 15 17  1  0
 16 25  1  0
 17 29  1  0
 17 30  1  0
 18 22  3  0
 19 20  1  0
 20 21  1  0
 20 31  1  0
 20 32  1  0
 21 33  1  0
 21 34  1  0
 21 35  1  0
M  END
>  <r_exp_dg>  (20) 
-8.49

>  <mol_id>  (20) 
19

>  <source_index>  (20) 
36

>  <paff>  (20) 
6.2243400081511462

>  <source_r_exp_dg>  (20) 
-8.4900000000000002

>  <smiles>  (20) 
CCOc1nc(NC(=O)Cc2ccccc2)cc(N)c1C#N

>  <aimnet_interaction_kcal_mol>  (20) 
-58.13805537750401

$$$$
jnk1_020
     RDKit          3D

 55 56  0  0  1  0  0  0  0  0999 V2000
   24.9971    3.3231   31.6693 C   0  0  0  0  0  0  0  0  0  0  0  0
   23.6228    3.4387   31.4587 C   0  0  0  0  0  0  0  0  0  0  0  0
   23.1281    4.4690   30.6359 C   0  0  0  0  0  0  0  0  0  0  0  0
   24.0444    5.2934   29.9913 C   0  0  0  0  0  0  0  0  0  0  0  0
   25.4200    5.1950   30.2048 C   0  0  0  0  0  0  0  0  0  0  0  0
   25.8792    4.1719   31.0370 C   0  0  0  0  0  0  0  0  0  0  0  0
   21.6612    4.5556   30.3788 C   0  0  0  0  0  0  0  0  0  0  0  0
   20.8906    5.6978   31.0103 C   0  0  0  0  0  0  0  0  0  0  0  0
   21.6060    6.8607   31.1666 N   0  0  0  0  0  0  0  0  0  0  0  0
   21.1408    8.0909   31.6221 C   0  0  0  0  0  0  0  0  0  0  0  0
   19.7056    5.6005   31.3006 O   0  0  0  0  0  0  0  0  0  0  0  0
   21.9531    9.1209   31.3036 N   0  0  0  0  0  0  0  0  0  0  0  0
   21.5534   10.3365   31.6104 C   0  0  0  0  0  0  0  0  0  0  0  0
   20.4150   10.6280   32.3933 C   0  0  0  0  0  0  0  0  0  0  0  0
   19.6157    9.5139   32.7903 C   0  0  0  0  0  0  0  0  0  0  0  0
   19.9806    8.2360   32.3420 C   0  0  0  0  0  0  0  0  0  0  0  0
   26.3467    6.0118   29.6646 O   0  0  0  0  0  0  0  0  0  0  0  0
   25.9288    7.2637   29.1432 C   0  0  0  0  0  0  0  0  0  0  0  0
   22.7261    2.5792   31.9684 O   0  0  0  0  0  0  0  0  0  0  0  0
   23.2062    1.4033   32.6295 C   0  0  0  0  0  0  0  0  0  0  0  0
   18.5415    9.6518   33.5690 N   0  0  0  0  0  0  0  0  0  0  0  0
   20.1124   11.9560   32.7486 C   0  0  0  0  0  0  0  0  0  0  0  0
   22.2438   11.3986   31.1647 O   0  0  0  0  0  0  0  0  0  0  0  0
   23.4691   11.1422   30.4142 C   0  0  0  0  0  0  0  0  0  0  0  0
   24.2264   12.4497   30.4243 C   0  0  0  0  0  0  0  0  0  0  0  0
   19.8738   13.0575   33.0517 N   0  0  0  0  0  0  0  0  0  0  0  0
   25.3605    2.5537   32.3246 H   0  0  0  0  0  0  0  0  0  0  0  0
   23.6876    6.0005   29.2561 H   0  0  0  0  0  0  0  0  0  0  0  0
   19.3574    7.3869   32.5557 H   0  0  0  0  0  0  0  0  0  0  0  0
   21.2072    3.6325   30.7242 H   0  0  0  0  0  0  0  0  0  0  0  0
   21.4639    4.6027   29.3045 H   0  0  0  0  0  0  0  0  0  0  0  0
   22.5827    6.8376   30.9160 H   0  0  0  0  0  0  0  0  0  0  0  0
   26.8329    7.8393   28.9868 H   0  0  0  0  0  0  0  0  0  0  0  0
   25.3964    7.1378   28.2003 H   0  0  0  0  0  0  0  0  0  0  0  0
   25.2945    7.7924   29.8561 H   0  0  0  0  0  0  0  0  0  0  0  0
   22.3146    0.8535   32.8956 H   0  0  0  0  0  0  0  0  0  0  0  0
   23.8244    0.8171   31.9570 H   0  0  0  0  0  0  0  0  0  0  0  0
   23.7596    1.6695   33.5308 H   0  0  0  0  0  0  0  0  0  0  0  0
   17.9999    8.8431   33.8269 H   0  0  0  0  0  0  0  0  0  0  0  0
   18.1737   10.5486   33.8461 H   0  0  0  0  0  0  0  0  0  0  0  0
   24.0215   10.3793   30.9611 H   0  0  0  0  0  0  0  0  0  0  0  0
   23.6310   13.2295   29.9585 H   0  0  0  0  0  0  0  0  0  0  0  0
   24.4606   12.7653   31.4351 H   0  0  0  0  0  0  0  0  0  0  0  0
   25.1594   12.3563   29.8737 H   0  0  0  0  0  0  0  0  0  0  0  0
   27.6815    4.0175   31.2534 S   0  0  0  0  0  0  0  0  0  0  0  0
   28.1297    5.1484   32.0972 O   0  0  0  0  0  0  0  0  0  0  0  0
   28.3139    3.7780   29.9425 O   0  0  0  0  0  0  0  0  0  0  0  0
   27.8722    2.5111   32.2359 C   0  0  0  0  0  0  0  0  0  0  0  0
   27.4396    2.6635   33.2182 H   0  0  0  0  0  0  0  0  0  0  0  0
   27.4234    1.6761   31.7094 H   0  0  0  0  0  0  0  0  0  0  0  0
   28.9447    2.3739   32.3129 H   0  0  0  0  0  0  0  0  0  0  0  0
   23.1444   10.6574   29.0243 C   0  0  0  0  0  0  0  0  0  0  0  0
   22.5733    9.7372   29.0624 H   0  0  0  0  0  0  0  0  0  0  0  0
   22.5716   11.4005   28.4812 H   0  0  0  0  0  0  0  0  0  0  0  0
   24.0706   10.4876   28.4738 H   0  0  0  0  0  0  0  0  0  0  0  0
  1  2  2  0
  1  6  1  0
  1 27  1  0
  2  3  1  0
  2 19  1  0
  3  4  2  0
  3  7  1  0
  4  5  1  0
  4 28  1  0
  5  6  2  0
  5 17  1  0
  6 45  1  0
  7  8  1  0
  7 30  1  0
  7 31  1  0
  8  9  1  0
  8 11  2  0
  9 10  1  0
  9 32  1  0
 10 12  2  0
 10 16  1  0
 12 13  1  0
 13 14  2  0
 13 23  1  0
 14 15  1  0
 14 22  1  0
 15 16  2  0
 15 21  1  0
 16 29  1  0
 17 18  1  0
 18 33  1  0
 18 34  1  0
 18 35  1  0
 19 20  1  0
 20 36  1  0
 20 37  1  0
 20 38  1  0
 21 39  1  0
 21 40  1  0
 22 26  3  0
 23 24  1  0
 24 25  1  0
 24 41  1  0
 24 52  1  0
 25 42  1  0
 25 43  1  0
 25 44  1  0
 45 46  2  0
 45 47  2  0
 45 48  1  0
 48 49  1  0
 48 50  1  0
 48 51  1  0
 52 53  1  0
 52 54  1  0
 52 55  1  0
M  END
>  <r_exp_dg>  (21) 
-10.68

>  <mol_id>  (21) 
20

>  <source_index>  (21) 
3

>  <paff>  (21) 
7.8299122471963196

>  <source_r_exp_dg>  (21) 
-10.68

>  <smiles>  (21) 
COc1cc(S(C)(=O)=O)c(OC)cc1CC(=O)Nc1cc(N)c(C#N)c(OC(C)C)n1

>  <aimnet_interaction_kcal_mol>  (21) 
-70.332110881574067

$$$$
