L3:Q15878:4124
     RDKit          3D

 47 48  0  0  0  0  0  0  0  0999 V2000
  146.2861  174.5191  160.7290 C   0  0  1  0  0  0  0  0  0  0  0  0
  145.4752  175.6201  160.0340 C   0  0  0  0  0  0  0  0  0  0  0  0
  145.8777  176.2475  158.8482 C   0  0  0  0  0  0  0  0  0  0  0  0
  145.0947  177.2571  158.2784 C   0  0  0  0  0  0  0  0  0  0  0  0
  143.8990  177.6623  158.8733 C   0  0  0  0  0  0  0  0  0  0  0  0
  143.4888  177.0490  160.0539 C   0  0  0  0  0  0  0  0  0  0  0  0
  144.2700  176.0397  160.6280 C   0  0  0  0  0  0  0  0  0  0  0  0
  143.2380  178.6579  158.2096 O   0  0  0  0  0  0  0  0  0  0  0  0
  143.9682  179.3599  157.2113 C   0  0  0  0  0  0  0  0  0  0  0  0
  147.8287  174.6098  160.5921 C   0  0  0  0  0  0  0  0  0  0  0  0
  148.2296  174.2879  159.3370 F   0  0  0  0  0  0  0  0  0  0  0  0
  148.2943  175.8559  160.8483 F   0  0  0  0  0  0  0  0  0  0  0  0
  148.4631  173.7609  161.4292 F   0  0  0  0  0  0  0  0  0  0  0  0
  145.7834  174.3268  162.1603 N   0  0  0  0  0  0  0  0  0  0  0  0
  145.0336  172.8425  162.4550 S   0  0  0  0  0  0  0  0  0  0  0  0
  145.8802  172.1160  163.3779 O   0  0  0  0  0  0  0  0  0  0  0  0
  143.6471  173.0911  162.7726 O   0  0  0  0  0  0  0  0  0  0  0  0
  145.1225  172.0117  160.8532 C   0  0  0  0  0  0  0  0  0  0  0  0
  143.7366  172.0295  160.1937 C   0  0  0  0  0  0  0  0  0  0  0  0
  143.6155  170.8949  159.1926 C   0  0  0  0  0  0  0  0  0  0  0  0
  143.7823  169.6071  159.7830 O   0  0  0  0  0  0  0  0  0  0  0  0
  144.5424  169.5734  160.9900 C   0  0  0  0  0  0  0  0  0  0  0  0
  145.6753  170.5873  160.9765 C   0  0  0  0  0  0  0  0  0  0  0  0
  145.8291  176.0887  163.9935 C   0  0  0  0  0  0  0  0  0  0  0  0
  146.5746  175.0206  163.2138 C   0  0  0  0  0  0  0  0  0  0  0  0
  146.0965  173.6188  160.1828 H   0  0  0  0  0  0  0  0  0  0  0  0
  146.7583  175.9629  158.3915 H   0  0  0  0  0  0  0  0  0  0  0  0
  145.4061  177.7093  157.4046 H   0  0  0  0  0  0  0  0  0  0  0  0
  142.6077  177.3390  160.5062 H   0  0  0  0  0  0  0  0  0  0  0  0
  143.9562  175.5941  161.5044 H   0  0  0  0  0  0  0  0  0  0  0  0
  143.3420  180.1073  156.7707 H   0  0  0  0  0  0  0  0  0  0  0  0
  144.2900  178.6737  156.4560 H   0  0  0  0  0  0  0  0  0  0  0  0
  144.8220  179.8269  157.6561 H   0  0  0  0  0  0  0  0  0  0  0  0
  145.8097  172.5435  160.2289 H   0  0  0  0  0  0  0  0  0  0  0  0
  143.5980  172.9625  159.6884 H   0  0  0  0  0  0  0  0  0  0  0  0
  142.9895  171.9079  160.9499 H   0  0  0  0  0  0  0  0  0  0  0  0
  144.3647  171.0238  158.4396 H   0  0  0  0  0  0  0  0  0  0  0  0
  142.6269  170.9333  158.7851 H   0  0  0  0  0  0  0  0  0  0  0  0
  144.9563  168.5941  161.1106 H   0  0  0  0  0  0  0  0  0  0  0  0
  143.8881  169.8188  161.8003 H   0  0  0  0  0  0  0  0  0  0  0  0
  146.3175  170.3860  160.1447 H   0  0  0  0  0  0  0  0  0  0  0  0
  146.2212  170.5071  161.8933 H   0  0  0  0  0  0  0  0  0  0  0  0
  146.4839  176.5220  164.7204 H   0  0  0  0  0  0  0  0  0  0  0  0
  144.9888  175.6481  164.4881 H   0  0  0  0  0  0  0  0  0  0  0  0
  145.4891  176.8488  163.3216 H   0  0  0  0  0  0  0  0  0  0  0  0
  146.9161  174.2827  163.9093 H   0  0  0  0  0  0  0  0  0  0  0  0
  147.3648  175.5285  162.7013 H   0  0  0  0  0  0  0  0  0  0  0  0
  1  2  1  0
  1 10  1  0
  1 26  1  6
  2  3  2  0
  3  4  1  0
  3 27  1  0
  4  5  2  0
  4 28  1  0
  5  8  1  0
  5  6  1  0
  6  7  2  0
  6 29  1  0
  7  2  1  0
  7 30  1  0
  8  9  1  0
  9 31  1  0
  9 32  1  0
  9 33  1  0
 10 11  1  0
 10 12  1  0
 10 13  1  0
 14  1  1  0
 14 15  1  0
 15 16  2  0
 15 17  2  0
 15 18  1  0
 18 19  1  0
 18 34  1  0
 19 20  1  0
 19 35  1  0
 19 36  1  0
 20 21  1  0
 20 37  1  0
 20 38  1  0
 21 22  1  0
 22 23  1  0
 22 39  1  0
 22 40  1  0
 23 18  1  0
 23 41  1  0
 23 42  1  0
 24 25  1  0
 24 43  1  0
 24 44  1  0
 24 45  1  0
 25 14  1  0
 25 46  1  0
 25 47  1  0
M  END
>  <minimizedAffinity>  (1) 
-6.28615

>  <mol_id>  (1) 
4124

>  <source_index>  (1) 
0

>  <layer>  (1) 
L3

>  <uniprot>  (1) 
Q15878

>  <paff>  (1) 
6.1101000000000001

>  <smiles>  (1) 
CCN(C(c1ccc(OC)cc1)C(F)(F)F)S(=O)(=O)C1CCOCC1

$$$$
L3:Q15878:12360
     RDKit          3D

 41 43  0  0  0  0  0  0  0  0999 V2000
  144.5616  174.7347  162.9409 S   0  0  0  0  0  0  0  0  0  0  0  0
  145.5963  174.6436  163.9488 O   0  0  0  0  0  0  0  0  0  0  0  0
  143.4301  175.6213  163.1116 O   0  0  0  0  0  0  0  0  0  0  0  0
  145.3312  175.1889  161.4033 C   0  0  0  0  0  0  0  0  0  0  0  0
  144.6113  175.9219  160.4496 C   0  0  0  0  0  0  0  0  0  0  0  0
  145.1975  176.2789  159.2298 C   0  0  0  0  0  0  0  0  0  0  0  0
  146.5148  175.8609  159.0304 C   0  0  0  0  0  0  0  0  0  0  0  0
  147.3985  176.0093  157.9975 N   0  0  0  0  0  0  0  0  0  0  0  0
  148.5801  175.4293  158.2611 N   0  0  0  0  0  0  0  0  0  0  0  0
  148.4938  174.8782  159.4655 N   0  0  0  0  0  0  0  0  0  0  0  0
  147.2414  175.1257  159.9588 C   0  0  0  0  0  0  0  0  0  0  0  0
  146.6501  174.7662  161.1744 C   0  0  0  0  0  0  0  0  0  0  0  0
  147.2738  176.4792  157.1094 H   0  0  0  0  0  0  0  0  0  0  0  0
  143.9854  173.1595  162.6176 N   0  0  0  0  0  0  0  0  0  0  0  0
  141.6715  172.8681  161.8171 C   0  0  0  0  0  0  0  0  0  0  0  0
  143.1299  173.0075  161.4093 C   0  0  0  0  0  0  0  0  0  0  0  0
  144.9847  172.0643  162.8611 C   0  0  1  0  0  0  0  0  0  0  0  0
  144.8766  171.5952  164.3200 C   0  0  0  0  0  0  0  0  0  0  0  0
  144.9763  170.9310  161.8381 C   0  0  0  0  0  0  0  0  0  0  0  0
  143.9860  169.9323  161.8115 C   0  0  0  0  0  0  0  0  0  0  0  0
  144.0187  168.9150  160.8537 C   0  0  0  0  0  0  0  0  0  0  0  0
  145.0409  168.8862  159.9152 C   0  0  0  0  0  0  0  0  0  0  0  0
  145.0685  167.9101  158.9985 F   0  0  0  0  0  0  0  0  0  0  0  0
  146.0337  169.8544  159.9172 C   0  0  0  0  0  0  0  0  0  0  0  0
  146.0026  170.8701  160.8752 C   0  0  0  0  0  0  0  0  0  0  0  0
  143.6381  176.2014  160.6491 H   0  0  0  0  0  0  0  0  0  0  0  0
  144.6845  176.8211  158.5172 H   0  0  0  0  0  0  0  0  0  0  0  0
  147.1640  174.2112  161.8764 H   0  0  0  0  0  0  0  0  0  0  0  0
  141.0653  172.7595  160.9421 H   0  0  0  0  0  0  0  0  0  0  0  0
  141.3668  173.7409  162.3560 H   0  0  0  0  0  0  0  0  0  0  0  0
  141.5562  172.0059  162.4402 H   0  0  0  0  0  0  0  0  0  0  0  0
  143.2422  173.8693  160.7852 H   0  0  0  0  0  0  0  0  0  0  0  0
  143.4301  172.1303  160.8752 H   0  0  0  0  0  0  0  0  0  0  0  0
  145.9574  172.4827  162.7068 H   0  0  0  0  0  0  0  0  0  0  0  0
  143.9075  171.1741  164.4884 H   0  0  0  0  0  0  0  0  0  0  0  0
  145.0217  172.4292  164.9745 H   0  0  0  0  0  0  0  0  0  0  0  0
  145.6253  170.8556  164.5133 H   0  0  0  0  0  0  0  0  0  0  0  0
  143.2252  169.9510  162.5085 H   0  0  0  0  0  0  0  0  0  0  0  0
  143.2860  168.1884  160.8443 H   0  0  0  0  0  0  0  0  0  0  0  0
  146.7901  169.8246  159.2158 H   0  0  0  0  0  0  0  0  0  0  0  0
  146.7439  171.5881  160.8777 H   0  0  0  0  0  0  0  0  0  0  0  0
  1  2  2  0
  1  3  2  0
  1  4  1  0
  4  5  2  0
  5  6  1  0
  5 26  1  0
  6  7  2  0
  6 27  1  0
  7  8  1  0
  8  9  1  0
  8 13  1  0
  9 10  2  0
 10 11  1  0
 11 12  2  0
 11  7  1  0
 12  4  1  0
 12 28  1  0
 14 17  1  0
 14  1  1  0
 15 16  1  0
 15 29  1  0
 15 30  1  0
 15 31  1  0
 16 14  1  0
 16 32  1  0
 16 33  1  0
 17 18  1  0
 17 19  1  0
 17 34  1  1
 18 35  1  0
 18 36  1  0
 18 37  1  0
 19 20  2  0
 20 21  1  0
 20 38  1  0
 21 22  2  0
 21 39  1  0
 22 23  1  0
 22 24  1  0
 24 25  2  0
 24 40  1  0
 25 19  1  0
 25 41  1  0
M  END
>  <minimizedAffinity>  (2) 
-7.21927

>  <mol_id>  (2) 
12360

>  <source_index>  (2) 
1

>  <layer>  (2) 
L3

>  <uniprot>  (2) 
Q15878

>  <paff>  (2) 
6.7798999999999996

>  <smiles>  (2) 
CCN([C@@H](C)c1ccc(F)cc1)S(=O)(=O)c1ccc2[nH]nnc2c1

$$$$
L3:Q15878:19284
     RDKit          3D

 37 38  0  0  0  0  0  0  0  0999 V2000
  144.5191  173.1483  162.7062 N   0  0  0  0  0  0  0  0  0  0  0  0
  145.3928  174.6110  162.6302 S   0  0  0  0  0  0  0  0  0  0  0  0
  146.6686  174.3397  162.0102 O   0  0  0  0  0  0  0  0  0  0  0  0
  145.2642  175.3125  163.8840 O   0  0  0  0  0  0  0  0  0  0  0  0
  144.5602  175.6460  161.5158 C   0  0  0  0  0  0  0  0  0  0  0  0
  143.5602  176.5260  161.8658 C   0  0  0  0  0  0  0  0  0  0  0  0
  142.9781  177.3890  160.5069 S   0  0  0  0  0  0  0  0  0  0  0  0
  144.0486  176.5774  159.4454 C   0  0  0  0  0  0  0  0  0  0  0  0
  144.8410  175.6675  160.1151 C   0  0  0  0  0  0  0  0  0  0  0  0
  144.1002  176.8322  158.0405 C   0  0  0  0  0  0  0  0  0  0  0  0
  144.1191  177.0419  156.8993 N   0  0  0  0  0  0  0  0  0  0  0  0
  142.1578  173.0463  162.0112 C   0  0  0  0  0  0  0  0  0  0  0  0
  143.6011  172.9150  161.5529 C   0  0  0  0  0  0  0  0  0  0  0  0
  145.3691  171.9236  163.0524 C   0  0  2  0  0  0  0  0  0  0  0  0
  145.1777  170.8306  161.9973 C   0  0  0  0  0  0  0  0  0  0  0  0
  144.1231  169.9030  162.0386 C   0  0  0  0  0  0  0  0  0  0  0  0
  143.9887  168.9299  161.0440 C   0  0  0  0  0  0  0  0  0  0  0  0
  144.9020  168.8791  160.0005 C   0  0  0  0  0  0  0  0  0  0  0  0
  144.7697  167.9460  159.0492 F   0  0  0  0  0  0  0  0  0  0  0  0
  145.9479  169.7875  159.9275 C   0  0  0  0  0  0  0  0  0  0  0  0
  146.0837  170.7611  160.9191 C   0  0  0  0  0  0  0  0  0  0  0  0
  145.3259  171.4711  164.5441 C   0  0  0  0  0  0  0  0  0  0  0  0
  144.1186  171.0434  164.9575 F   0  0  0  0  0  0  0  0  0  0  0  0
  145.7018  172.4897  165.3571 F   0  0  0  0  0  0  0  0  0  0  0  0
  146.2092  170.4648  164.7636 F   0  0  0  0  0  0  0  0  0  0  0  0
  143.2061  176.6497  162.8272 H   0  0  0  0  0  0  0  0  0  0  0  0
  145.5512  175.0738  159.6589 H   0  0  0  0  0  0  0  0  0  0  0  0
  141.5034  172.8783  161.1815 H   0  0  0  0  0  0  0  0  0  0  0  0
  141.9952  174.0297  162.4003 H   0  0  0  0  0  0  0  0  0  0  0  0
  141.9588  172.3233  162.7745 H   0  0  0  0  0  0  0  0  0  0  0  0
  143.7988  173.6379  160.7892 H   0  0  0  0  0  0  0  0  0  0  0  0
  143.7616  171.9303  161.1663 H   0  0  0  0  0  0  0  0  0  0  0  0
  146.3958  172.2190  162.9925 H   0  0  0  0  0  0  0  0  0  0  0  0
  143.4403  169.9405  162.8116 H   0  0  0  0  0  0  0  0  0  0  0  0
  143.2124  168.2512  161.0857 H   0  0  0  0  0  0  0  0  0  0  0  0
  146.6206  169.7440  159.1461 H   0  0  0  0  0  0  0  0  0  0  0  0
  146.8588  171.4400  160.8620 H   0  0  0  0  0  0  0  0  0  0  0  0
  1 14  1  0
  1  2  1  0
  2  3  2  0
  2  4  2  0
  2  5  1  0
  5  6  2  0
  6  7  1  0
  6 26  1  0
  7  8  1  0
  8 10  1  0
  8  9  2  0
  9  5  1  0
  9 27  1  0
 10 11  3  0
 12 13  1  0
 12 28  1  0
 12 29  1  0
 12 30  1  0
 13  1  1  0
 13 31  1  0
 13 32  1  0
 14 15  1  0
 14 22  1  0
 14 33  1  6
 15 16  2  0
 16 17  1  0
 16 34  1  0
 17 18  2  0
 17 35  1  0
 18 19  1  0
 18 20  1  0
 20 21  2  0
 20 36  1  0
 21 15  1  0
 21 37  1  0
 22 23  1  0
 22 24  1  0
 22 25  1  0
M  END
>  <minimizedAffinity>  (3) 
-6.46097

>  <mol_id>  (3) 
19284

>  <source_index>  (3) 
2

>  <layer>  (3) 
L3

>  <uniprot>  (3) 
Q15878

>  <paff>  (3) 
6.6904000000000003

>  <smiles>  (3) 
CCN([C@H](c1ccc(F)cc1)C(F)(F)F)S(=O)(=O)c1csc(C#N)c1

$$$$
L3:Q15878:45224
     RDKit          3D

 42 44  0  0  0  0  0  0  0  0999 V2000
  144.9652  173.2469  162.3581 N   0  0  0  0  0  0  0  0  0  0  0  0
  143.7806  174.4544  162.2621 S   0  0  0  0  0  0  0  0  0  0  0  0
  144.1994  175.5265  163.1404 O   0  0  0  0  0  0  0  0  0  0  0  0
  142.4880  173.8278  162.4253 O   0  0  0  0  0  0  0  0  0  0  0  0
  143.8492  175.1006  160.6189 C   0  0  0  0  0  0  0  0  0  0  0  0
  144.4258  176.3441  160.4051 C   0  0  0  0  0  0  0  0  0  0  0  0
  144.5239  176.9678  159.2071 N   0  0  0  0  0  0  0  0  0  0  0  0
  143.9499  176.3041  158.1744 C   0  0  0  0  0  0  0  0  0  0  0  0
  143.8689  176.6715  156.8116 C   0  0  0  0  0  0  0  0  0  0  0  0
  143.1691  175.6805  156.1572 C   0  0  0  0  0  0  0  0  0  0  0  0
  142.8217  174.7276  157.0822 N   0  0  0  0  0  0  0  0  0  0  0  0
  143.2982  175.0822  158.3227 C   0  0  0  0  0  0  0  0  0  0  0  0
  143.2111  174.4484  159.5630 C   0  0  0  0  0  0  0  0  0  0  0  0
  142.2978  173.8856  156.8835 H   0  0  0  0  0  0  0  0  0  0  0  0
  147.3051  173.9916  162.1351 C   0  0  0  0  0  0  0  0  0  0  0  0
  146.1314  173.3131  161.4478 C   0  0  0  0  0  0  0  0  0  0  0  0
  144.5972  171.8532  162.8413 C   0  0  1  0  0  0  0  0  0  0  0  0
  144.7574  170.7904  161.7432 C   0  0  0  0  0  0  0  0  0  0  0  0
  143.6145  170.1334  161.2407 C   0  0  0  0  0  0  0  0  0  0  0  0
  143.7200  169.1406  160.2637 C   0  0  0  0  0  0  0  0  0  0  0  0
  144.9708  168.7851  159.7836 C   0  0  0  0  0  0  0  0  0  0  0  0
  145.0758  167.8309  158.8498 F   0  0  0  0  0  0  0  0  0  0  0  0
  146.1161  169.4032  160.2643 C   0  0  0  0  0  0  0  0  0  0  0  0
  146.0122  170.3982  161.2417 C   0  0  0  0  0  0  0  0  0  0  0  0
  145.1597  171.4933  164.2395 C   0  0  0  0  0  0  0  0  0  0  0  0
  146.0844  170.5138  164.2173 F   0  0  0  0  0  0  0  0  0  0  0  0
  145.7287  172.5787  164.8209 F   0  0  0  0  0  0  0  0  0  0  0  0
  144.1687  171.0917  165.0743 F   0  0  0  0  0  0  0  0  0  0  0  0
  144.8119  176.8344  161.2270 H   0  0  0  0  0  0  0  0  0  0  0  0
  144.2617  177.5251  156.3850 H   0  0  0  0  0  0  0  0  0  0  0  0
  142.9458  175.6588  155.1499 H   0  0  0  0  0  0  0  0  0  0  0  0
  142.7081  173.5564  159.6909 H   0  0  0  0  0  0  0  0  0  0  0  0
  148.1375  174.0306  161.4639 H   0  0  0  0  0  0  0  0  0  0  0  0
  147.5768  173.4361  163.0083 H   0  0  0  0  0  0  0  0  0  0  0  0
  147.0273  174.9857  162.4170 H   0  0  0  0  0  0  0  0  0  0  0  0
  146.4145  172.3206  161.1654 H   0  0  0  0  0  0  0  0  0  0  0  0
  145.8625  173.8805  160.5814 H   0  0  0  0  0  0  0  0  0  0  0  0
  143.5448  171.8639  163.0343 H   0  0  0  0  0  0  0  0  0  0  0  0
  142.6827  170.3912  161.6018 H   0  0  0  0  0  0  0  0  0  0  0  0
  142.8729  168.6752  159.9020 H   0  0  0  0  0  0  0  0  0  0  0  0
  147.0426  169.1294  159.9015 H   0  0  0  0  0  0  0  0  0  0  0  0
  146.8676  170.8509  161.6000 H   0  0  0  0  0  0  0  0  0  0  0  0
  1 17  1  0
  1  2  1  0
  2  3  2  0
  2  4  2  0
  2  5  1  0
  5  6  2  0
  6  7  1  0
  6 29  1  0
  7  8  2  0
  8  9  1  0
  9 10  2  0
  9 30  1  0
 10 11  1  0
 10 31  1  0
 11 12  1  0
 11 14  1  0
 12 13  2  0
 12  8  1  0
 13  5  1  0
 13 32  1  0
 15 16  1  0
 15 33  1  0
 15 34  1  0
 15 35  1  0
 16  1  1  0
 16 36  1  0
 16 37  1  0
 17 18  1  0
 17 25  1  0
 17 38  1  1
 18 19  2  0
 19 20  1  0
 19 39  1  0
 20 21  2  0
 20 40  1  0
 21 22  1  0
 21 23  1  0
 23 24  2  0
 23 41  1  0
 24 18  1  0
 24 42  1  0
 25 26  1  0
 25 27  1  0
 25 28  1  0
M  END
>  <minimizedAffinity>  (4) 
-7.51278

>  <mol_id>  (4) 
45224

>  <source_index>  (4) 
3

>  <layer>  (4) 
L3

>  <uniprot>  (4) 
Q15878

>  <paff>  (4) 
6.6108000000000002

>  <smiles>  (4) 
CCN(C(c1ccc(F)cc1)C(F)(F)F)S(=O)(=O)c1cnc2cc[nH]c2c1

$$$$
L3:Q15878:57801
     RDKit          3D

 38 40  0  0  0  0  0  0  0  0999 V2000
  144.7041  174.6189  162.6732 S   0  0  0  0  0  0  0  0  0  0  0  0
  144.4206  175.9650  163.1313 O   0  0  0  0  0  0  0  0  0  0  0  0
  144.9910  173.5759  163.6383 O   0  0  0  0  0  0  0  0  0  0  0  0
  146.0099  174.7103  161.5011 C   0  0  0  0  0  0  0  0  0  0  0  0
  147.0765  173.7102  161.4760 C   0  0  0  0  0  0  0  0  0  0  0  0
  148.0411  173.8104  160.5442 C   0  0  0  0  0  0  0  0  0  0  0  0
  148.0141  174.8590  159.6250 N   0  0  0  0  0  0  0  0  0  0  0  0
  148.8709  175.1272  158.6111 N   0  0  0  0  0  0  0  0  0  0  0  0
  148.4600  176.2238  157.9854 N   0  0  0  0  0  0  0  0  0  0  0  0
  147.3261  176.6684  158.5992 C   0  0  0  0  0  0  0  0  0  0  0  0
  147.0096  175.8280  159.6365 C   0  0  0  0  0  0  0  0  0  0  0  0
  145.9849  175.7355  160.6197 C   0  0  0  0  0  0  0  0  0  0  0  0
  143.3359  174.0962  161.7857 N   0  0  0  0  0  0  0  0  0  0  0  0
  142.3312  175.1538  161.5532 C   0  0  0  0  0  0  0  0  0  0  0  0
  141.2677  172.6695  162.0594 C   0  0  0  0  0  0  0  0  0  0  0  0
  142.7973  172.7469  162.1480 C   0  0  1  0  0  0  0  0  0  0  0  0
  143.5217  171.6484  161.3729 C   0  0  0  0  0  0  0  0  0  0  0  0
  143.3646  171.5786  159.9760 C   0  0  0  0  0  0  0  0  0  0  0  0
  143.9913  170.5776  159.2289 C   0  0  0  0  0  0  0  0  0  0  0  0
  144.7808  169.6292  159.8709 C   0  0  0  0  0  0  0  0  0  0  0  0
  145.5523  168.3946  158.9553 Cl  0  0  0  0  0  0  0  0  0  0  0  0
  144.9470  169.6741  161.2520 C   0  0  0  0  0  0  0  0  0  0  0  0
  144.3191  170.6764  161.9989 C   0  0  0  0  0  0  0  0  0  0  0  0
  147.0888  172.9397  162.1624 H   0  0  0  0  0  0  0  0  0  0  0  0
  148.8003  173.1123  160.5094 H   0  0  0  0  0  0  0  0  0  0  0  0
  146.7896  177.5066  158.3259 H   0  0  0  0  0  0  0  0  0  0  0  0
  145.2330  176.4412  160.6595 H   0  0  0  0  0  0  0  0  0  0  0  0
  141.5117  174.7509  160.9955 H   0  0  0  0  0  0  0  0  0  0  0  0
  142.7778  175.9551  161.0024 H   0  0  0  0  0  0  0  0  0  0  0  0
  141.9763  175.5215  162.4933 H   0  0  0  0  0  0  0  0  0  0  0  0
  140.9442  171.6858  162.3286 H   0  0  0  0  0  0  0  0  0  0  0  0
  140.9570  172.8858  161.0586 H   0  0  0  0  0  0  0  0  0  0  0  0
  140.8351  173.3830  162.7292 H   0  0  0  0  0  0  0  0  0  0  0  0
  143.0064  172.5783  163.1837 H   0  0  0  0  0  0  0  0  0  0  0  0
  142.7771  172.2780  159.4957 H   0  0  0  0  0  0  0  0  0  0  0  0
  143.8688  170.5421  158.2048 H   0  0  0  0  0  0  0  0  0  0  0  0
  145.5331  168.9684  161.7247 H   0  0  0  0  0  0  0  0  0  0  0  0
  144.4434  170.7020  163.0231 H   0  0  0  0  0  0  0  0  0  0  0  0
  1  2  2  0
  1  3  2  0
  1  4  1  0
  4  5  1  0
  5  6  2  0
  5 24  1  0
  6  7  1  0
  6 25  1  0
  7  8  1  0
  8  9  2  0
  9 10  1  0
 10 11  2  0
 10 26  1  0
 11 12  1  0
 11  7  1  0
 12  4  2  0
 12 27  1  0
 13 14  1  0
 13  1  1  0
 14 28  1  0
 14 29  1  0
 14 30  1  0
 15 16  1  0
 15 31  1  0
 15 32  1  0
 15 33  1  0
 16 17  1  0
 16 13  1  0
 16 34  1  1
 17 18  2  0
 18 19  1  0
 18 35  1  0
 19 20  2  0
 19 36  1  0
 20 21  1  0
 20 22  1  0
 22 23  2  0
 22 37  1  0
 23 17  1  0
 23 38  1  0
M  END
>  <minimizedAffinity>  (5) 
-7.18201

>  <mol_id>  (5) 
57801

>  <source_index>  (5) 
4

>  <layer>  (5) 
L3

>  <uniprot>  (5) 
Q15878

>  <paff>  (5) 
6.5406000000000004

>  <smiles>  (5) 
C[C@@H](c1ccc(Cl)cc1)N(C)S(=O)(=O)c1ccn2nncc2c1

$$$$
L3:Q15878:67332
     RDKit          3D

 39 41  0  0  0  0  0  0  0  0999 V2000
  144.1018  171.2610  161.5385 N   0  0  0  0  0  0  0  0  0  0  0  0
  142.9144  171.9530  160.5617 S   0  0  0  0  0  0  0  0  0  0  0  0
  143.4679  172.1469  159.2388 O   0  0  0  0  0  0  0  0  0  0  0  0
  141.6713  171.2388  160.7518 O   0  0  0  0  0  0  0  0  0  0  0  0
  142.6859  173.5609  161.2642 C   0  0  0  0  0  0  0  0  0  0  0  0
  141.7672  173.7072  162.3128 C   0  0  0  0  0  0  0  0  0  0  0  0
  141.4506  174.8574  162.9719 N   0  0  0  0  0  0  0  0  0  0  0  0
  142.1026  175.9607  162.4970 C   0  0  0  0  0  0  0  0  0  0  0  0
  141.9337  177.1805  163.0073 N   0  0  0  0  0  0  0  0  0  0  0  0
  142.9162  178.1729  162.1029 S   0  0  0  0  0  0  0  0  0  0  0  0
  143.5983  177.0743  161.0487 N   0  0  0  0  0  0  0  0  0  0  0  0
  143.0691  175.8793  161.3588 C   0  0  0  0  0  0  0  0  0  0  0  0
  143.3625  174.6571  160.7199 C   0  0  0  0  0  0  0  0  0  0  0  0
  145.2064  169.3658  160.4201 C   0  0  0  0  0  0  0  0  0  0  0  0
  144.2795  169.7953  161.5461 C   0  0  0  0  0  0  0  0  0  0  0  0
  144.6842  172.0543  162.6539 C   0  0  1  0  0  0  0  0  0  0  0  0
  145.0503  171.1632  163.8485 C   0  0  0  0  0  0  0  0  0  0  0  0
  145.8015  172.9654  162.1562 C   0  0  0  0  0  0  0  0  0  0  0  0
  146.5126  172.7404  160.9657 C   0  0  0  0  0  0  0  0  0  0  0  0
  147.5159  173.6245  160.5586 C   0  0  0  0  0  0  0  0  0  0  0  0
  147.8104  174.7387  161.3339 C   0  0  0  0  0  0  0  0  0  0  0  0
  148.7715  175.5829  160.9375 F   0  0  0  0  0  0  0  0  0  0  0  0
  147.1197  174.9898  162.5105 C   0  0  0  0  0  0  0  0  0  0  0  0
  146.1181  174.1080  162.9192 C   0  0  0  0  0  0  0  0  0  0  0  0
  141.2778  172.8517  162.6187 H   0  0  0  0  0  0  0  0  0  0  0  0
  144.0157  174.5788  159.9247 H   0  0  0  0  0  0  0  0  0  0  0  0
  145.3237  168.3024  160.4407 H   0  0  0  0  0  0  0  0  0  0  0  0
  146.1610  169.8324  160.5463 H   0  0  0  0  0  0  0  0  0  0  0  0
  144.7869  169.6603  159.4809 H   0  0  0  0  0  0  0  0  0  0  0  0
  144.7014  169.4966  162.4829 H   0  0  0  0  0  0  0  0  0  0  0  0
  143.3261  169.3302  161.4061 H   0  0  0  0  0  0  0  0  0  0  0  0
  143.9384  172.7190  163.0370 H   0  0  0  0  0  0  0  0  0  0  0  0
  145.7996  170.4593  163.5520 H   0  0  0  0  0  0  0  0  0  0  0  0
  144.1796  170.6381  164.1819 H   0  0  0  0  0  0  0  0  0  0  0  0
  145.4270  171.7709  164.6446 H   0  0  0  0  0  0  0  0  0  0  0  0
  146.2923  171.9151  160.3866 H   0  0  0  0  0  0  0  0  0  0  0  0
  148.0362  173.4499  159.6846 H   0  0  0  0  0  0  0  0  0  0  0  0
  147.3446  175.8215  163.0787 H   0  0  0  0  0  0  0  0  0  0  0  0
  145.6016  174.2950  163.7928 H   0  0  0  0  0  0  0  0  0  0  0  0
  1 16  1  0
  1  2  1  0
  2  3  2  0
  2  4  2  0
  2  5  1  0
  5  6  1  0
  6  7  2  0
  6 25  1  0
  7  8  1  0
  8  9  2  0
  9 10  1  0
 10 11  1  0
 11 12  2  0
 12 13  1  0
 12  8  1  0
 13  5  2  0
 13 26  1  0
 14 15  1  0
 14 27  1  0
 14 28  1  0
 14 29  1  0
 15  1  1  0
 15 30  1  0
 15 31  1  0
 16 17  1  0
 16 18  1  0
 16 32  1  1
 17 33  1  0
 17 34  1  0
 17 35  1  0
 18 19  2  0
 19 20  1  0
 19 36  1  0
 20 21  2  0
 20 37  1  0
 21 22  1  0
 21 23  1  0
 23 24  2  0
 23 38  1  0
 24 18  1  0
 24 39  1  0
M  END
>  <minimizedAffinity>  (6) 
-6.86704

>  <mol_id>  (6) 
67332

>  <source_index>  (6) 
5

>  <layer>  (6) 
L3

>  <uniprot>  (6) 
Q15878

>  <paff>  (6) 
6.8013000000000003

>  <smiles>  (6) 
CCN([C@@H](C)c1ccc(F)cc1)S(=O)(=O)c1cnc2nsnc2c1

$$$$
L3:Q15878:76146
     RDKit          3D

 42 44  0  0  0  0  0  0  0  0999 V2000
  144.2453  172.7733  162.6327 N   0  0  0  0  0  0  0  0  0  0  0  0
  144.8422  174.3136  163.0116 S   0  0  0  0  0  0  0  0  0  0  0  0
  145.4678  174.2445  164.3132 O   0  0  0  0  0  0  0  0  0  0  0  0
  143.7784  175.2603  162.7481 O   0  0  0  0  0  0  0  0  0  0  0  0
  146.1284  174.6641  161.8197 C   0  0  0  0  0  0  0  0  0  0  0  0
  147.4189  174.1634  162.0318 C   0  0  0  0  0  0  0  0  0  0  0  0
  148.4370  174.3853  161.0935 C   0  0  0  0  0  0  0  0  0  0  0  0
  148.1323  175.0951  159.9197 C   0  0  0  0  0  0  0  0  0  0  0  0
  148.8359  175.5127  158.7684 C   0  0  0  0  0  0  0  0  0  0  0  0
  148.0616  176.1666  157.8988 N   0  0  0  0  0  0  0  0  0  0  0  0
  146.8529  176.1594  158.4891 N   0  0  0  0  0  0  0  0  0  0  0  0
  146.8317  175.5382  159.7109 C   0  0  0  0  0  0  0  0  0  0  0  0
  145.7960  175.3247  160.6270 C   0  0  0  0  0  0  0  0  0  0  0  0
  146.0787  176.6010  158.0058 H   0  0  0  0  0  0  0  0  0  0  0  0
  141.8513  172.7733  162.0412 C   0  0  0  0  0  0  0  0  0  0  0  0
  143.2746  172.6390  161.5235 C   0  0  0  0  0  0  0  0  0  0  0  0
  145.0918  171.5413  162.9078 C   0  0  2  0  0  0  0  0  0  0  0  0
  145.0394  170.5255  161.7561 C   0  0  0  0  0  0  0  0  0  0  0  0
  143.9133  169.7215  161.5006 C   0  0  0  0  0  0  0  0  0  0  0  0
  143.9195  168.7860  160.4608 C   0  0  0  0  0  0  0  0  0  0  0  0
  145.0509  168.6386  159.6714 C   0  0  0  0  0  0  0  0  0  0  0  0
  145.0528  167.7394  158.6790 F   0  0  0  0  0  0  0  0  0  0  0  0
  146.1805  169.4079  159.9025 C   0  0  0  0  0  0  0  0  0  0  0  0
  146.1765  170.3419  160.9411 C   0  0  0  0  0  0  0  0  0  0  0  0
  144.9478  170.9703  164.3411 C   0  0  0  0  0  0  0  0  0  0  0  0
  146.1068  171.1074  165.0324 F   0  0  0  0  0  0  0  0  0  0  0  0
  143.9710  171.5532  165.0629 F   0  0  0  0  0  0  0  0  0  0  0  0
  144.6826  169.6398  164.3085 F   0  0  0  0  0  0  0  0  0  0  0  0
  147.6229  173.6251  162.8883 H   0  0  0  0  0  0  0  0  0  0  0  0
  149.3926  174.0338  161.2619 H   0  0  0  0  0  0  0  0  0  0  0  0
  149.8404  175.3319  158.6156 H   0  0  0  0  0  0  0  0  0  0  0  0
  144.8319  175.6386  160.4345 H   0  0  0  0  0  0  0  0  0  0  0  0
  141.1646  172.6737  161.2267 H   0  0  0  0  0  0  0  0  0  0  0  0
  141.7268  173.7332  162.4973 H   0  0  0  0  0  0  0  0  0  0  0  0
  141.6609  172.0076  162.7639 H   0  0  0  0  0  0  0  0  0  0  0  0
  143.4595  173.4047  160.7993 H   0  0  0  0  0  0  0  0  0  0  0  0
  143.3906  171.6733  161.0776 H   0  0  0  0  0  0  0  0  0  0  0  0
  146.1108  171.8676  162.9161 H   0  0  0  0  0  0  0  0  0  0  0  0
  143.0712  169.8234  162.0885 H   0  0  0  0  0  0  0  0  0  0  0  0
  143.0845  168.2068  160.2812 H   0  0  0  0  0  0  0  0  0  0  0  0
  147.0184  169.2915  159.3115 H   0  0  0  0  0  0  0  0  0  0  0  0
  147.0212  170.9084  161.1157 H   0  0  0  0  0  0  0  0  0  0  0  0
  1 17  1  0
  1  2  1  0
  2  3  2  0
  2  4  2  0
  2  5  1  0
  5  6  2  0
  6  7  1  0
  6 29  1  0
  7  8  2  0
  7 30  1  0
  8  9  1  0
  9 10  2  0
  9 31  1  0
 10 11  1  0
 11 12  1  0
 11 14  1  0
 12 13  2  0
 12  8  1  0
 13  5  1  0
 13 32  1  0
 15 16  1  0
 15 33  1  0
 15 34  1  0
 15 35  1  0
 16  1  1  0
 16 36  1  0
 16 37  1  0
 17 18  1  0
 17 25  1  0
 17 38  1  1
 18 19  2  0
 19 20  1  0
 19 39  1  0
 20 21  2  0
 20 40  1  0
 21 22  1  0
 21 23  1  0
 23 24  2  0
 23 41  1  0
 24 18  1  0
 24 42  1  0
 25 26  1  0
 25 27  1  0
 25 28  1  0
M  END
>  <minimizedAffinity>  (7) 
-8.20543

>  <mol_id>  (7) 
76146

>  <source_index>  (7) 
6

>  <layer>  (7) 
L3

>  <uniprot>  (7) 
Q15878

>  <paff>  (7) 
6.3297999999999996

>  <smiles>  (7) 
CCN(C(c1ccc(F)cc1)C(F)(F)F)S(=O)(=O)c1ccc2cn[nH]c2c1

$$$$
L3:Q15878:84015
     RDKit          3D

 40 41  0  0  0  0  0  0  0  0999 V2000
  144.3093  173.0700  162.4416 N   0  0  0  0  0  0  0  0  0  0  0  0
  143.2105  173.5698  161.2480 S   0  0  0  0  0  0  0  0  0  0  0  0
  141.8778  173.2121  161.6863 O   0  0  0  0  0  0  0  0  0  0  0  0
  143.7068  173.1292  159.9607 O   0  0  0  0  0  0  0  0  0  0  0  0
  143.2846  175.3268  161.2615 C   0  0  0  0  0  0  0  0  0  0  0  0
  143.7841  175.9855  160.1609 C   0  0  0  0  0  0  0  0  0  0  0  0
  143.8856  177.3274  160.1256 N   0  0  0  0  0  0  0  0  0  0  0  0
  143.5192  178.0560  161.2221 N   0  0  0  0  0  0  0  0  0  0  0  0
  143.0781  177.4349  162.3391 C   0  0  0  0  0  0  0  0  0  0  0  0
  142.7361  178.2894  163.5183 C   0  0  0  0  0  0  0  0  0  0  0  0
  142.9585  176.0571  162.3977 C   0  0  0  0  0  0  0  0  0  0  0  0
  146.4971  173.7645  161.5559 C   0  0  0  0  0  0  0  0  0  0  0  0
  145.5029  173.9000  162.6980 C   0  0  0  0  0  0  0  0  0  0  0  0
  144.2899  171.6445  162.8732 C   0  0  2  0  0  0  0  0  0  0  0  0
  145.2012  171.3793  164.0773 C   0  0  0  0  0  0  0  0  0  0  0  0
  144.5429  170.6153  161.7813 C   0  0  0  0  0  0  0  0  0  0  0  0
  143.5108  169.8689  161.1891 C   0  0  0  0  0  0  0  0  0  0  0  0
  143.7896  168.9398  160.1831 C   0  0  0  0  0  0  0  0  0  0  0  0
  145.0974  168.7633  159.7523 C   0  0  0  0  0  0  0  0  0  0  0  0
  145.3628  167.8705  158.7904 F   0  0  0  0  0  0  0  0  0  0  0  0
  146.1351  169.4978  160.3085 C   0  0  0  0  0  0  0  0  0  0  0  0
  145.8595  170.4210  161.3186 C   0  0  0  0  0  0  0  0  0  0  0  0
  144.0886  175.4366  159.3418 H   0  0  0  0  0  0  0  0  0  0  0  0
  142.8950  179.3183  163.2713 H   0  0  0  0  0  0  0  0  0  0  0  0
  143.3590  178.0210  164.3459 H   0  0  0  0  0  0  0  0  0  0  0  0
  141.7097  178.1401  163.7812 H   0  0  0  0  0  0  0  0  0  0  0  0
  142.6372  175.5870  163.2584 H   0  0  0  0  0  0  0  0  0  0  0  0
  147.3554  174.3711  161.7563 H   0  0  0  0  0  0  0  0  0  0  0  0
  146.0386  174.0854  160.6439 H   0  0  0  0  0  0  0  0  0  0  0  0
  146.7970  172.7416  161.4636 H   0  0  0  0  0  0  0  0  0  0  0  0
  145.2073  174.9244  162.7886 H   0  0  0  0  0  0  0  0  0  0  0  0
  145.9673  173.5702  163.6038 H   0  0  0  0  0  0  0  0  0  0  0  0
  143.2705  171.5026  163.1657 H   0  0  0  0  0  0  0  0  0  0  0  0
  146.2222  171.5200  163.7897 H   0  0  0  0  0  0  0  0  0  0  0  0
  145.0613  170.3740  164.4159 H   0  0  0  0  0  0  0  0  0  0  0  0
  144.9561  172.0589  164.8666 H   0  0  0  0  0  0  0  0  0  0  0  0
  142.5367  170.0080  161.5001 H   0  0  0  0  0  0  0  0  0  0  0  0
  143.0264  168.3872  159.7622 H   0  0  0  0  0  0  0  0  0  0  0  0
  147.1033  169.3625  159.9779 H   0  0  0  0  0  0  0  0  0  0  0  0
  146.6304  170.9686  161.7320 H   0  0  0  0  0  0  0  0  0  0  0  0
  1 14  1  0
  1  2  1  0
  2  3  2  0
  2  4  2  0
  2  5  1  0
  5  6  2  0
  6  7  1  0
  6 23  1  0
  7  8  2  0
  8  9  1  0
  9 10  1  0
  9 11  2  0
 10 24  1  0
 10 25  1  0
 10 26  1  0
 11  5  1  0
 11 27  1  0
 12 13  1  0
 12 28  1  0
 12 29  1  0
 12 30  1  0
 13  1  1  0
 13 31  1  0
 13 32  1  0
 14 15  1  0
 14 16  1  0
 14 33  1  1
 15 34  1  0
 15 35  1  0
 15 36  1  0
 16 17  2  0
 17 18  1  0
 17 37  1  0
 18 19  2  0
 18 38  1  0
 19 20  1  0
 19 21  1  0
 21 22  2  0
 21 39  1  0
 22 16  1  0
 22 40  1  0
M  END
>  <minimizedAffinity>  (8) 
-6.92379

>  <mol_id>  (8) 
84015

>  <source_index>  (8) 
7

>  <layer>  (8) 
L3

>  <uniprot>  (8) 
Q15878

>  <paff>  (8) 
6.7190000000000003

>  <smiles>  (8) 
CCN(C(C)c1ccc(F)cc1)S(=O)(=O)c1cnnc(C)c1

$$$$
L3:Q15878:107192
     RDKit          3D

 36 37  0  0  0  0  0  0  0  0999 V2000
  142.7405  175.1082  161.4779 N   0  0  0  0  0  0  0  0  0  0  0  0
  141.6880  175.5706  160.5626 C   0  0  0  0  0  0  0  0  0  0  0  0
  143.8004  176.2475  162.1288 S   0  0  0  0  0  0  0  0  0  0  0  0
  143.8158  177.4047  161.2593 O   0  0  0  0  0  0  0  0  0  0  0  0
  143.5247  176.3826  163.5424 O   0  0  0  0  0  0  0  0  0  0  0  0
  145.3784  175.4771  161.9849 C   0  0  0  0  0  0  0  0  0  0  0  0
  145.9884  174.9664  163.1164 C   0  0  0  0  0  0  0  0  0  0  0  0
  147.2066  174.3736  163.0918 N   0  0  0  0  0  0  0  0  0  0  0  0
  147.8465  174.3296  161.8964 C   0  0  0  0  0  0  0  0  0  0  0  0
  147.3215  174.8487  160.7201 C   0  0  0  0  0  0  0  0  0  0  0  0
  146.0596  175.4415  160.7664 C   0  0  0  0  0  0  0  0  0  0  0  0
  148.0602  174.7668  159.5005 C   0  0  0  0  0  0  0  0  0  0  0  0
  148.6658  174.7114  158.5128 N   0  0  0  0  0  0  0  0  0  0  0  0
  140.9959  173.5205  162.2959 C   0  0  0  0  0  0  0  0  0  0  0  0
  142.4947  173.8402  162.2168 C   0  0  1  0  0  0  0  0  0  0  0  0
  143.3702  172.7194  161.6618 C   0  0  0  0  0  0  0  0  0  0  0  0
  143.4477  172.3960  160.2980 C   0  0  0  0  0  0  0  0  0  0  0  0
  144.2768  171.3597  159.8548 C   0  0  0  0  0  0  0  0  0  0  0  0
  145.0399  170.6378  160.7688 C   0  0  0  0  0  0  0  0  0  0  0  0
  146.0581  169.3660  160.2174 Cl  0  0  0  0  0  0  0  0  0  0  0  0
  144.9833  170.9429  162.1243 C   0  0  0  0  0  0  0  0  0  0  0  0
  144.1548  171.9772  162.5664 C   0  0  0  0  0  0  0  0  0  0  0  0
  141.1040  174.7344  160.2391 H   0  0  0  0  0  0  0  0  0  0  0  0
  142.1360  176.0427  159.7133 H   0  0  0  0  0  0  0  0  0  0  0  0
  141.0576  176.2714  161.0689 H   0  0  0  0  0  0  0  0  0  0  0  0
  145.4939  175.0401  164.0192 H   0  0  0  0  0  0  0  0  0  0  0  0
  148.7770  173.8848  161.8590 H   0  0  0  0  0  0  0  0  0  0  0  0
  145.6374  175.8462  159.9161 H   0  0  0  0  0  0  0  0  0  0  0  0
  140.8542  172.6053  162.8319 H   0  0  0  0  0  0  0  0  0  0  0  0
  140.6001  173.4196  161.3069 H   0  0  0  0  0  0  0  0  0  0  0  0
  140.4884  174.3137  162.8040 H   0  0  0  0  0  0  0  0  0  0  0  0
  142.7952  173.9542  163.2374 H   0  0  0  0  0  0  0  0  0  0  0  0
  142.8869  172.9285  159.6147 H   0  0  0  0  0  0  0  0  0  0  0  0
  144.3228  171.1302  158.8497 H   0  0  0  0  0  0  0  0  0  0  0  0
  145.5505  170.4079  162.8004 H   0  0  0  0  0  0  0  0  0  0  0  0
  144.1169  172.2014  163.5730 H   0  0  0  0  0  0  0  0  0  0  0  0
  1  2  1  0
  1  3  1  0
  2 23  1  0
  2 24  1  0
  2 25  1  0
  3  4  2  0
  3  5  2  0
  3  6  1  0
  6  7  2  0
  7  8  1  0
  7 26  1  0
  8  9  2  0
  9 10  1  0
  9 27  1  0
 10 12  1  0
 10 11  2  0
 11  6  1  0
 11 28  1  0
 12 13  3  0
 14 15  1  0
 14 29  1  0
 14 30  1  0
 14 31  1  0
 15 16  1  0
 15  1  1  0
 15 32  1  1
 16 17  2  0
 17 18  1  0
 17 33  1  0
 18 19  2  0
 18 34  1  0
 19 20  1  0
 19 21  1  0
 21 22  2  0
 21 35  1  0
 22 16  1  0
 22 36  1  0
M  END
>  <minimizedAffinity>  (9) 
-6.01066

>  <mol_id>  (9) 
107192

>  <source_index>  (9) 
8

>  <layer>  (9) 
L3

>  <uniprot>  (9) 
Q15878

>  <paff>  (9) 
7.5900999999999996

>  <smiles>  (9) 
C[C@@H](c1ccc(Cl)cc1)N(C)S(=O)(=O)c1cncc(C#N)c1

$$$$
L3:Q15878:123336
     RDKit          3D

 37 38  0  0  0  0  0  0  0  0999 V2000
  145.8733  174.5347  160.5682 C   0  0  2  0  0  0  0  0  0  0  0  0
  145.4355  173.0695  160.5639 C   0  0  0  0  0  0  0  0  0  0  0  0
  146.2780  172.0164  160.9446 C   0  0  0  0  0  0  0  0  0  0  0  0
  145.8217  170.6939  160.9316 C   0  0  0  0  0  0  0  0  0  0  0  0
  144.5086  170.3911  160.5488 C   0  0  0  0  0  0  0  0  0  0  0  0
  143.6613  171.4394  160.1683 C   0  0  0  0  0  0  0  0  0  0  0  0
  144.1168  172.7601  160.1823 C   0  0  0  0  0  0  0  0  0  0  0  0
  144.0243  168.9624  160.5156 C   0  0  0  0  0  0  0  0  0  0  0  0
  144.8573  168.1519  159.8061 F   0  0  0  0  0  0  0  0  0  0  0  0
  142.7962  168.8304  159.9398 F   0  0  0  0  0  0  0  0  0  0  0  0
  143.9170  168.3998  161.7513 F   0  0  0  0  0  0  0  0  0  0  0  0
  147.1389  174.8931  161.4036 C   0  0  0  0  0  0  0  0  0  0  0  0
  148.2452  174.3262  160.8583 F   0  0  0  0  0  0  0  0  0  0  0  0
  147.0840  174.5059  162.6910 F   0  0  0  0  0  0  0  0  0  0  0  0
  147.3525  176.2327  161.3835 F   0  0  0  0  0  0  0  0  0  0  0  0
  144.6995  176.6347  159.8921 C   0  0  0  0  0  0  0  0  0  0  0  0
  144.6585  175.4418  160.7727 N   0  0  0  0  0  0  0  0  0  0  0  0
  144.2611  175.7538  162.4028 S   0  0  0  0  0  0  0  0  0  0  0  0
  144.8632  177.0223  162.7461 O   0  0  0  0  0  0  0  0  0  0  0  0
  144.5105  174.5616  163.1779 O   0  0  0  0  0  0  0  0  0  0  0  0
  142.5363  175.9623  162.3479 C   0  0  0  0  0  0  0  0  0  0  0  0
  141.9024  176.9791  163.0151 C   0  0  0  0  0  0  0  0  0  0  0  0
  140.5637  177.1538  162.9704 N   0  0  0  0  0  0  0  0  0  0  0  0
  139.8768  176.2551  162.2425 C   0  0  0  0  0  0  0  0  0  0  0  0
  140.4048  175.2216  161.5635 N   0  0  0  0  0  0  0  0  0  0  0  0
  141.7467  175.0903  161.6407 C   0  0  0  0  0  0  0  0  0  0  0  0
  146.2656  174.7325  159.5925 H   0  0  0  0  0  0  0  0  0  0  0  0
  147.2465  172.2188  161.2380 H   0  0  0  0  0  0  0  0  0  0  0  0
  146.4605  169.9318  161.2075 H   0  0  0  0  0  0  0  0  0  0  0  0
  142.6931  171.2347  159.8754 H   0  0  0  0  0  0  0  0  0  0  0  0
  143.4758  173.5211  159.9084 H   0  0  0  0  0  0  0  0  0  0  0  0
  144.9559  176.3351  158.8974 H   0  0  0  0  0  0  0  0  0  0  0  0
  145.4329  177.3228  160.2576 H   0  0  0  0  0  0  0  0  0  0  0  0
  143.7393  177.1067  159.8861 H   0  0  0  0  0  0  0  0  0  0  0  0
  142.4701  177.6361  163.5728 H   0  0  0  0  0  0  0  0  0  0  0  0
  138.8519  176.3691  162.2015 H   0  0  0  0  0  0  0  0  0  0  0  0
  142.1965  174.3028  161.1482 H   0  0  0  0  0  0  0  0  0  0  0  0
  1  2  1  0
  1 12  1  0
  1 27  1  6
  2  3  2  0
  3  4  1  0
  3 28  1  0
  4  5  2  0
  4 29  1  0
  5  8  1  0
  5  6  1  0
  6  7  2  0
  6 30  1  0
  7  2  1  0
  7 31  1  0
  8  9  1  0
  8 10  1  0
  8 11  1  0
 12 13  1  0
 12 14  1  0
 12 15  1  0
 16 17  1  0
 16 32  1  0
 16 33  1  0
 16 34  1  0
 17  1  1  0
 17 18  1  0
 18 19  2  0
 18 20  2  0
 18 21  1  0
 21 22  2  0
 22 23  1  0
 22 35  1  0
 23 24  2  0
 24 25  1  0
 24 36  1  0
 25 26  2  0
 26 21  1  0
 26 37  1  0
M  END
>  <minimizedAffinity>  (10) 
-6.68456

>  <mol_id>  (10) 
123336

>  <source_index>  (10) 
9

>  <layer>  (10) 
L3

>  <uniprot>  (10) 
Q15878

>  <paff>  (10) 
7.2298999999999998

>  <smiles>  (10) 
CN(C(c1ccc(C(F)(F)F)cc1)C(F)(F)F)S(=O)(=O)c1cncnc1

$$$$
