L1:P00338:37515


 44 49  0  0  0  0  0  0  0  0999 V2000
  -13.5681  -14.7422  -57.9606 C   0  0  0  0  0  0  0  0  0  0  0  0
  -14.3729  -13.9311  -57.1106 C   0  0  0  0  0  0  0  0  0  0  0  0
  -15.6513  -13.9396  -57.4923 N   0  0  0  0  0  0  0  0  0  0  0  0
  -15.7178  -14.7733  -58.5618 N   0  0  0  0  0  0  0  0  0  0  0  0
  -14.4681  -15.3025  -58.8636 C   0  0  0  0  0  0  0  0  0  0  0  0
  -13.9616  -13.1367  -55.9598 C   0  0  0  0  0  0  0  0  0  0  0  0
  -13.4731  -11.8372  -56.1473 C   0  0  0  0  0  0  0  0  0  0  0  0
  -13.0565  -11.0770  -55.0536 C   0  0  0  0  0  0  0  0  0  0  0  0
  -13.1326  -11.6099  -53.7661 C   0  0  0  0  0  0  0  0  0  0  0  0
  -13.6320  -12.8999  -53.5706 C   0  0  0  0  0  0  0  0  0  0  0  0
  -14.0498  -13.6620  -54.6646 C   0  0  0  0  0  0  0  0  0  0  0  0
  -13.7156  -13.4413  -52.2495 C   0  0  0  0  0  0  0  0  0  0  0  0
  -13.7856  -13.8920  -51.1383 C   0  0  0  0  0  0  0  0  0  0  0  0
  -13.8737  -14.4287  -49.7986 C   0  0  0  0  0  0  0  0  0  0  0  0
  -12.9466  -15.6065  -49.4710 C   0  0  0  0  0  0  0  0  0  0  0  0
  -12.4787  -14.9489  -48.2649 O   0  0  0  0  0  0  0  0  0  0  0  0
  -13.0671  -13.7008  -48.7152 C   0  0  0  0  0  0  0  0  0  0  0  0
  -16.9661  -14.9695  -59.1851 C   0  0  0  0  0  0  0  0  0  0  0  0
  -17.9675  -15.6287  -58.6430 N   0  0  0  0  0  0  0  0  0  0  0  0
  -19.0608  -15.6485  -59.5120 C   0  0  0  0  0  0  0  0  0  0  0  0
  -18.8364  -14.9894  -60.7095 C   0  0  0  0  0  0  0  0  0  0  0  0
  -17.2512  -14.3395  -60.7491 S   0  0  0  0  0  0  0  0  0  0  0  0
  -20.3081  -16.3151  -59.1471 C   0  0  0  0  0  0  0  0  0  0  0  0
  -21.4082  -15.7866  -59.0649 O   0  0  0  0  0  0  0  0  0  0  0  0
  -20.1866  -17.6399  -58.8871 O   0  0  0  0  0  0  0  0  0  0  0  0
  -21.1055  -17.8989  -58.6658 H   0  0  0  0  0  0  0  0  0  0  0  0
  -12.0906  -14.9676  -57.8905 C   0  0  0  0  0  0  0  0  0  0  0  0
  -11.3726  -17.5657  -54.5155 C   0  0  0  0  0  0  0  0  0  0  0  0
  -11.2490  -16.1835  -54.3654 C   0  0  0  0  0  0  0  0  0  0  0  0
  -11.4892  -15.3481  -55.4607 C   0  0  0  0  0  0  0  0  0  0  0  0
  -11.8440  -15.8818  -56.7116 C   0  0  0  0  0  0  0  0  0  0  0  0
  -11.9733  -17.2746  -56.8345 C   0  0  0  0  0  0  0  0  0  0  0  0
  -11.7353  -18.1050  -55.7413 C   0  0  0  0  0  0  0  0  0  0  0  0
  -11.8653  -19.4285  -55.9029 F   0  0  0  0  0  0  0  0  0  0  0  0
  -10.7711  -17.6936  -51.8633 N   0  0  0  0  0  0  0  0  0  0  0  0
  -11.0881  -18.6802  -53.1951 S   0  0  0  0  0  0  0  0  0  0  0  0
  -12.3273  -19.3441  -52.8654 O   0  0  0  0  0  0  0  0  0  0  0  0
   -9.8473  -19.3808  -53.4279 O   0  0  0  0  0  0  0  0  0  0  0  0
  -11.4857  -17.8648  -51.1534 H   0  0  0  0  0  0  0  0  0  0  0  0
   -9.8230  -17.8861  -51.5347 H   0  0  0  0  0  0  0  0  0  0  0  0
  -14.2117  -16.2888  -59.9629 C   0  0  0  0  0  0  0  0  0  0  0  0
  -14.4185  -17.7197  -59.5473 C   0  0  0  0  0  0  0  0  0  0  0  0
  -15.6708  -18.4724  -59.9168 C   0  0  0  0  0  0  0  0  0  0  0  0
  -14.3657  -18.8173  -60.5791 C   0  0  0  0  0  0  0  0  0  0  0  0
 35 36  1  0  0  0
 36 37  2  0  0  0
 36 38  2  0  0  0
 36 28  1  0  0  0
 28 29  2  0  0  0
 29 30  1  0  0  0
 30 31  2  0  0  0
 31 27  1  0  0  0
 27  1  1  0  0  0
  1  2  1  0  0  0
  2  6  1  0  0  0
  6  7  2  0  0  0
  7  8  1  0  0  0
  8  9  2  0  0  0
  9 10  1  0  0  0
 10 12  1  0  0  0
 12 13  3  0  0  0
 13 14  1  0  0  0
 14 15  1  0  0  0
 15 16  1  0  0  0
 16 17  1  0  0  0
 10 11  2  0  0  0
  2  3  2  0  0  0
  3  4  1  0  0  0
  4 18  1  0  0  0
 18 19  2  0  0  0
 19 20  1  0  0  0
 20 23  1  0  0  0
 23 24  2  0  0  0
 23 25  1  0  0  0
 20 21  2  0  0  0
 21 22  1  0  0  0
  4  5  1  0  0  0
  5 41  1  0  0  0
 41 42  1  0  0  0
 42 43  1  0  0  0
 43 44  1  0  0  0
 31 32  1  0  0  0
 32 33  2  0  0  0
 33 34  1  0  0  0
 33 28  1  0  0  0
  5  1  2  0  0  0
 44 42  1  0  0  0
 11  6  1  0  0  0
 22 18  1  0  0  0
 17 14  1  0  0  0
 35 39  1  0  0  0
 35 40  1  0  0  0
 25 26  1  0  0  0
M  END
> <minimizedAffinity>
-7.06622

$$$$
