L1:P00338:43836
     RDKit          3D

 65 70  0  0  0  0  0  0  0  0999 V2000
    2.2539   -4.1548    3.4267 N   0  0  0  0  0  0  0  0  0  0  0  0
    0.6540   -4.3241    2.9245 S   0  0  0  0  0  6  0  0  0  0  0  0
    0.4770   -5.7411    2.7106 O   0  0  0  0  0  0  0  0  0  0  0  0
   -0.1066   -3.5687    3.8922 O   0  0  0  0  0  0  0  0  0  0  0  0
    0.6001   -3.5135    1.3723 C   0  0  0  0  0  0  0  0  0  0  0  0
    1.7631   -3.1492    0.6914 C   0  0  0  0  0  0  0  0  0  0  0  0
    1.6646   -2.4489   -0.5138 C   0  0  0  0  0  0  0  0  0  0  0  0
    0.4105   -2.0920   -1.0399 C   0  0  0  0  0  0  0  0  0  0  0  0
    0.3345   -1.2763   -2.3103 C   0  0  0  0  0  0  0  0  0  0  0  0
   -0.3532    0.0171   -1.9847 C   0  0  0  0  0  0  0  0  0  0  0  0
    0.0742    1.0227   -1.0764 C   0  0  0  0  0  0  0  0  0  0  0  0
    1.2413    1.0121   -0.2087 C   0  0  0  0  0  0  0  0  0  0  0  0
    2.5004    1.3691   -0.7048 C   0  0  0  0  0  0  0  0  0  0  0  0
    3.6204    1.2888    0.1250 C   0  0  0  0  0  0  0  0  0  0  0  0
    3.4791    0.8429    1.4385 C   0  0  0  0  0  0  0  0  0  0  0  0
    4.5770    0.7444    2.2035 F   0  0  0  0  0  0  0  0  0  0  0  0
    2.2278    0.4912    1.9454 C   0  0  0  0  0  0  0  0  0  0  0  0
    2.0824   -0.0128    3.2757 C   0  0  0  0  0  0  0  0  0  0  0  0
    1.9298   -0.4615    4.3792 C   0  0  0  0  0  0  0  0  0  0  0  0
    1.7185   -1.0084    5.6865 C   0  0  0  0  0  0  0  0  0  0  0  0
    2.3761   -0.3403    6.8647 C   0  0  0  0  0  0  0  0  0  0  0  0
    2.8730   -1.6746    6.3886 C   0  0  0  0  0  0  0  0  0  0  0  0
    1.1035    0.5957    1.1233 C   0  0  0  0  0  0  0  0  0  0  0  0
   -0.7683    2.0499   -1.0476 N   0  0  0  0  0  0  0  0  0  0  0  0
   -1.7609    1.7625   -1.9316 N   0  0  0  0  0  0  0  0  0  0  0  0
   -2.7538    2.7644   -2.0538 C   0  0  0  0  0  0  0  0  0  0  0  0
   -2.7326    3.8872   -1.3587 N   0  0  0  0  0  0  0  0  0  0  0  0
   -3.8269    4.6883   -1.6816 C   0  0  0  0  0  0  0  0  0  0  0  0
   -4.0660    5.9903   -1.0669 C   0  0  0  0  0  0  0  0  0  0  0  0
   -5.0118    6.7253   -1.3211 O   0  0  0  0  0  0  0  0  0  0  0  0
   -3.1433    6.3681   -0.1540 O   0  0  0  0  0  0  0  0  0  0  0  0
   -4.6607    4.1340   -2.6363 C   0  0  0  0  0  0  0  0  0  0  0  0
   -4.0672    2.6067   -3.1253 S   0  0  0  0  0  0  0  0  0  0  0  0
   -1.5414    0.5128   -2.5234 C   0  0  0  0  0  0  0  0  0  0  0  0
   -2.4344   -0.1436   -3.5303 C   0  0  0  0  0  0  0  0  0  0  0  0
   -2.2974    0.2683   -4.9723 C   0  0  0  0  0  0  0  0  0  0  0  0
   -1.0186    0.0023   -5.7306 C   0  0  0  0  0  0  0  0  0  0  0  0
   -1.4380    1.4170   -5.4522 C   0  0  0  0  0  0  0  0  0  0  0  0
   -0.7460   -2.5091   -0.3615 C   0  0  0  0  0  0  0  0  0  0  0  0
   -0.6445   -3.2074    0.8408 C   0  0  0  0  0  0  0  0  0  0  0  0
   -1.7727   -3.5716    1.4642 F   0  0  0  0  0  0  0  0  0  0  0  0
    2.6614   -5.0793    3.5706 H   0  0  0  0  0  0  0  0  0  0  0  0
    2.2830   -3.5568    4.2547 H   0  0  0  0  0  0  0  0  0  0  0  0
    2.7467   -3.3838    1.0896 H   0  0  0  0  0  0  0  0  0  0  0  0
    2.5804   -2.1516   -1.0230 H   0  0  0  0  0  0  0  0  0  0  0  0
    1.3345   -1.0644   -2.7070 H   0  0  0  0  0  0  0  0  0  0  0  0
   -0.1932   -1.8550   -3.0742 H   0  0  0  0  0  0  0  0  0  0  0  0
    2.6099    1.7122   -1.7308 H   0  0  0  0  0  0  0  0  0  0  0  0
    4.6036    1.5644   -0.2433 H   0  0  0  0  0  0  0  0  0  0  0  0
    0.7327   -1.4341    5.8569 H   0  0  0  0  0  0  0  0  0  0  0  0
    3.0020    0.5279    6.6897 H   0  0  0  0  0  0  0  0  0  0  0  0
    1.8222   -0.3037    7.7958 H   0  0  0  0  0  0  0  0  0  0  0  0
    3.8403   -1.7031    5.8993 H   0  0  0  0  0  0  0  0  0  0  0  0
    2.6599   -2.5403    7.0050 H   0  0  0  0  0  0  0  0  0  0  0  0
    0.1206    0.3256    1.5056 H   0  0  0  0  0  0  0  0  0  0  0  0
   -3.4522    7.2419    0.1532 H   0  0  0  0  0  0  0  0  0  0  0  0
   -5.5668    4.5525   -3.0530 H   0  0  0  0  0  0  0  0  0  0  0  0
   -3.4791   -0.0471   -3.2170 H   0  0  0  0  0  0  0  0  0  0  0  0
   -2.2725   -1.2286   -3.4934 H   0  0  0  0  0  0  0  0  0  0  0  0
   -3.2197    0.0737   -5.5133 H   0  0  0  0  0  0  0  0  0  0  0  0
   -1.0996   -0.3582   -6.7505 H   0  0  0  0  0  0  0  0  0  0  0  0
   -0.1541   -0.3776   -5.2003 H   0  0  0  0  0  0  0  0  0  0  0  0
   -1.8068    2.0094   -6.2832 H   0  0  0  0  0  0  0  0  0  0  0  0
   -0.8343    1.9851   -4.7546 H   0  0  0  0  0  0  0  0  0  0  0  0
   -1.7355   -2.2726   -0.7438 H   0  0  0  0  0  0  0  0  0  0  0  0
  1  2  1  0
  2  3  2  0
  2  4  2  0
  2  5  1  0
  5  6  2  0
  6  7  1  0
  7  8  2  0
  8  9  1  0
  9 10  1  0
 10 11  1  0
 11 12  1  0
 12 13  2  0
 13 14  1  0
 14 15  2  0
 15 16  1  0
 15 17  1  0
 17 18  1  0
 18 19  3  0
 19 20  1  0
 20 21  1  0
 21 22  1  0
 17 23  2  0
 11 24  2  0
 24 25  1  0
 25 26  1  0
 26 27  2  0
 27 28  1  0
 28 29  1  0
 29 30  2  0
 29 31  1  0
 28 32  2  0
 32 33  1  0
 25 34  1  0
 34 35  1  0
 35 36  1  0
 36 37  1  0
 37 38  1  0
  8 39  1  0
 39 40  2  0
 40 41  1  0
 40  5  1  0
 34 10  2  0
 38 36  1  0
 23 12  1  0
 33 26  1  0
 22 20  1  0
  1 42  1  0
  1 43  1  0
  6 44  1  0
  7 45  1  0
  9 46  1  0
  9 47  1  0
 13 48  1  0
 14 49  1  0
 20 50  1  0
 21 51  1  0
 21 52  1  0
 22 53  1  0
 22 54  1  0
 23 55  1  0
 31 56  1  0
 32 57  1  0
 35 58  1  0
 35 59  1  0
 36 60  1  0
 37 61  1  0
 37 62  1  0
 38 63  1  0
 38 64  1  0
 39 65  1  0
M  END
>  <mol_id>  (1) 
43836

>  <source_index>  (1) 
2

>  <layer>  (1) 
L1

>  <uniprot>  (1) 
P00338

>  <paff>  (1) 
9

>  <smiles>  (1) 
NS(=O)(=O)c1ccc(Cc2c(CC3CC3)n(nc2-c2ccc(F)c(c2)C#CC2CC2)-c2nc(cs2)C(O)=O)cc1F

$$$$
