L1:P00338:43836


 44 49  0  0  0  0  0  0  0  0999 V2000
  -14.5144  -10.9447  -54.5988 C   0  0  0  0  0  0  0  0  0  0  0  0
  -13.7524  -10.2586  -53.6152 C   0  0  0  0  0  0  0  0  0  0  0  0
  -13.1664  -11.1009  -52.7709 N   0  0  0  0  0  0  0  0  0  0  0  0
  -13.5260  -12.3533  -53.1601 N   0  0  0  0  0  0  0  0  0  0  0  0
  -14.3519  -12.2958  -54.2892 C   0  0  0  0  0  0  0  0  0  0  0  0
  -13.5374   -8.8263  -53.4834 C   0  0  0  0  0  0  0  0  0  0  0  0
  -14.1692   -8.1024  -52.4657 C   0  0  0  0  0  0  0  0  0  0  0  0
  -14.0040   -6.7177  -52.3951 C   0  0  0  0  0  0  0  0  0  0  0  0
  -13.2204   -6.0640  -53.3451 C   0  0  0  0  0  0  0  0  0  0  0  0
  -13.1056   -4.7292  -53.2726 F   0  0  0  0  0  0  0  0  0  0  0  0
  -12.5804   -6.7766  -54.3596 C   0  0  0  0  0  0  0  0  0  0  0  0
  -12.7248   -8.1647  -54.4154 C   0  0  0  0  0  0  0  0  0  0  0  0
  -11.8151   -6.1078  -55.3654 C   0  0  0  0  0  0  0  0  0  0  0  0
  -11.2069   -5.5436  -56.2338 C   0  0  0  0  0  0  0  0  0  0  0  0
  -10.5054   -4.8778  -57.2909 C   0  0  0  0  0  0  0  0  0  0  0  0
  -10.1699   -5.6536  -58.5369 C   0  0  0  0  0  0  0  0  0  0  0  0
   -9.0802   -5.2738  -57.5767 C   0  0  0  0  0  0  0  0  0  0  0  0
  -13.0062  -13.3959  -52.3555 C   0  0  0  0  0  0  0  0  0  0  0  0
  -12.9649  -13.3349  -51.0368 N   0  0  0  0  0  0  0  0  0  0  0  0
  -12.4083  -14.4977  -50.5062 C   0  0  0  0  0  0  0  0  0  0  0  0
  -12.0394  -15.4259  -51.4634 C   0  0  0  0  0  0  0  0  0  0  0  0
  -12.3926  -14.8342  -53.0284 S   0  0  0  0  0  0  0  0  0  0  0  0
  -12.2335  -14.7113  -49.0730 C   0  0  0  0  0  0  0  0  0  0  0  0
  -12.9425  -14.2299  -48.1983 O   0  0  0  0  0  0  0  0  0  0  0  0
  -11.1947  -15.5087  -48.7377 O   0  0  0  0  0  0  0  0  0  0  0  0
  -11.2250  -15.5464  -47.7625 H   0  0  0  0  0  0  0  0  0  0  0  0
  -15.3320  -10.3474  -55.7063 C   0  0  0  0  0  0  0  0  0  0  0  0
  -12.7986   -9.7567  -59.1515 C   0  0  0  0  0  0  0  0  0  0  0  0
  -13.0785  -11.0492  -58.7043 C   0  0  0  0  0  0  0  0  0  0  0  0
  -13.8774  -11.2279  -57.5719 C   0  0  0  0  0  0  0  0  0  0  0  0
  -14.4163  -10.1239  -56.8881 C   0  0  0  0  0  0  0  0  0  0  0  0
  -14.0835   -8.8329  -57.3288 C   0  0  0  0  0  0  0  0  0  0  0  0
  -13.2865   -8.6578  -58.4591 C   0  0  0  0  0  0  0  0  0  0  0  0
  -13.0071   -7.4092  -58.8555 F   0  0  0  0  0  0  0  0  0  0  0  0
  -11.3995  -11.0006  -61.1167 N   0  0  0  0  0  0  0  0  0  0  0  0
  -11.8685   -9.4641  -60.6071 S   0  0  0  0  0  0  0  0  0  0  0  0
  -10.6395   -8.7995  -60.2427 O   0  0  0  0  0  0  0  0  0  0  0  0
  -12.7434   -8.9914  -61.6543 O   0  0  0  0  0  0  0  0  0  0  0  0
  -10.3808  -11.0454  -61.1582 H   0  0  0  0  0  0  0  0  0  0  0  0
  -11.8590  -11.2134  -62.0042 H   0  0  0  0  0  0  0  0  0  0  0  0
  -14.9264  -13.4760  -55.0098 C   0  0  0  0  0  0  0  0  0  0  0  0
  -16.4217  -13.6535  -54.9971 C   0  0  0  0  0  0  0  0  0  0  0  0
  -17.0740  -14.7472  -55.8091 C   0  0  0  0  0  0  0  0  0  0  0  0
  -17.3303  -13.3090  -56.1565 C   0  0  0  0  0  0  0  0  0  0  0  0
 35 36  1  0  0  0
 36 37  2  0  0  0
 36 38  2  0  0  0
 36 28  1  0  0  0
 28 29  2  0  0  0
 29 30  1  0  0  0
 30 31  2  0  0  0
 31 27  1  0  0  0
 27  1  1  0  0  0
  1  2  1  0  0  0
  2  6  1  0  0  0
  6  7  2  0  0  0
  7  8  1  0  0  0
  8  9  2  0  0  0
  9 10  1  0  0  0
  9 11  1  0  0  0
 11 13  1  0  0  0
 13 14  3  0  0  0
 14 15  1  0  0  0
 15 16  1  0  0  0
 16 17  1  0  0  0
 11 12  2  0  0  0
  2  3  2  0  0  0
  3  4  1  0  0  0
  4 18  1  0  0  0
 18 19  2  0  0  0
 19 20  1  0  0  0
 20 23  1  0  0  0
 23 24  2  0  0  0
 23 25  1  0  0  0
 20 21  2  0  0  0
 21 22  1  0  0  0
  4  5  1  0  0  0
  5 41  1  0  0  0
 41 42  1  0  0  0
 42 43  1  0  0  0
 43 44  1  0  0  0
 31 32  1  0  0  0
 32 33  2  0  0  0
 33 34  1  0  0  0
 33 28  1  0  0  0
  5  1  2  0  0  0
 44 42  1  0  0  0
 12  6  1  0  0  0
 22 18  1  0  0  0
 17 15  1  0  0  0
 35 39  1  0  0  0
 35 40  1  0  0  0
 25 26  1  0  0  0
M  END
> <minimizedAffinity>
-7.21428

$$$$
