L1:P00338:47131


 47 52  0  0  0  0  0  0  0  0999 V2000
  -13.3261  -15.3512  -58.0856 C   0  0  0  0  0  0  0  0  0  0  0  0
  -14.1927  -14.4945  -57.3467 C   0  0  0  0  0  0  0  0  0  0  0  0
  -15.4499  -14.5718  -57.7863 N   0  0  0  0  0  0  0  0  0  0  0  0
  -15.4529  -15.5307  -58.7472 N   0  0  0  0  0  0  0  0  0  0  0  0
  -14.1687  -16.0063  -58.9815 C   0  0  0  0  0  0  0  0  0  0  0  0
  -13.8679  -13.5814  -56.2558 C   0  0  0  0  0  0  0  0  0  0  0  0
  -13.4764  -12.2614  -56.5182 C   0  0  0  0  0  0  0  0  0  0  0  0
  -13.1738  -11.3978  -55.4637 C   0  0  0  0  0  0  0  0  0  0  0  0
  -13.2559  -11.8553  -54.1510 C   0  0  0  0  0  0  0  0  0  0  0  0
  -12.9647  -11.0044  -53.1556 F   0  0  0  0  0  0  0  0  0  0  0  0
  -13.6305  -13.1702  -53.8729 C   0  0  0  0  0  0  0  0  0  0  0  0
  -13.9311  -14.0351  -54.9288 C   0  0  0  0  0  0  0  0  0  0  0  0
  -13.7115  -13.6373  -52.5236 C   0  0  0  0  0  0  0  0  0  0  0  0
  -13.7843  -14.0295  -51.3903 C   0  0  0  0  0  0  0  0  0  0  0  0
  -13.8799  -14.5023  -50.0228 C   0  0  0  0  0  0  0  0  0  0  0  0
  -15.2747  -14.7457  -49.7169 O   0  0  0  0  0  0  0  0  0  0  0  0
  -12.8891  -15.6202  -49.6378 C   0  0  0  0  0  0  0  0  0  0  0  0
  -12.1592  -14.7520  -48.7407 O   0  0  0  0  0  0  0  0  0  0  0  0
  -13.0964  -13.6749  -48.9831 C   0  0  0  0  0  0  0  0  0  0  0  0
  -15.5590  -15.4110  -50.3667 H   0  0  0  0  0  0  0  0  0  0  0  0
  -16.6820  -15.9056  -59.3240 C   0  0  0  0  0  0  0  0  0  0  0  0
  -17.4247  -16.9058  -58.8989 N   0  0  0  0  0  0  0  0  0  0  0  0
  -18.5861  -16.9997  -59.6717 C   0  0  0  0  0  0  0  0  0  0  0  0
  -18.6743  -16.0508  -60.6762 C   0  0  0  0  0  0  0  0  0  0  0  0
  -17.3047  -15.0232  -60.6505 S   0  0  0  0  0  0  0  0  0  0  0  0
  -19.6143  -18.0085  -59.4351 C   0  0  0  0  0  0  0  0  0  0  0  0
  -20.8195  -17.8310  -59.5514 O   0  0  0  0  0  0  0  0  0  0  0  0
  -19.1450  -19.2190  -59.0538 O   0  0  0  0  0  0  0  0  0  0  0  0
  -19.9547  -19.7558  -58.9432 H   0  0  0  0  0  0  0  0  0  0  0  0
  -11.8466  -15.5137  -57.9231 C   0  0  0  0  0  0  0  0  0  0  0  0
  -11.2148  -17.8628  -54.3553 C   0  0  0  0  0  0  0  0  0  0  0  0
  -11.0478  -16.4775  -54.3129 C   0  0  0  0  0  0  0  0  0  0  0  0
  -11.2477  -15.7240  -55.4728 C   0  0  0  0  0  0  0  0  0  0  0  0
  -11.6245  -16.3419  -56.6777 C   0  0  0  0  0  0  0  0  0  0  0  0
  -11.7647  -17.7395  -56.7000 C   0  0  0  0  0  0  0  0  0  0  0  0
  -11.5667  -18.4880  -55.5418 C   0  0  0  0  0  0  0  0  0  0  0  0
  -11.6905  -19.8204  -55.6105 F   0  0  0  0  0  0  0  0  0  0  0  0
  -10.7665  -17.6876  -51.6881 N   0  0  0  0  0  0  0  0  0  0  0  0
  -10.9964  -18.8307  -52.9041 S   0  0  0  0  0  0  0  0  0  0  0  0
   -9.7543  -19.5559  -53.0292 O   0  0  0  0  0  0  0  0  0  0  0  0
  -12.2473  -19.4948  -52.6163 O   0  0  0  0  0  0  0  0  0  0  0  0
  -10.9508  -16.7305  -51.9842 H   0  0  0  0  0  0  0  0  0  0  0  0
   -9.8130  -17.7857  -51.3310 H   0  0  0  0  0  0  0  0  0  0  0  0
  -13.8375  -17.0105  -60.0432 C   0  0  0  0  0  0  0  0  0  0  0  0
  -13.9524  -18.4417  -59.5877 C   0  0  0  0  0  0  0  0  0  0  0  0
  -14.3154  -19.5119  -60.5880 C   0  0  0  0  0  0  0  0  0  0  0  0
  -12.9352  -19.4753  -59.9995 C   0  0  0  0  0  0  0  0  0  0  0  0
 38 39  1  0  0  0
 39 40  2  0  0  0
 39 41  2  0  0  0
 39 31  1  0  0  0
 31 32  2  0  0  0
 32 33  1  0  0  0
 33 34  2  0  0  0
 34 30  1  0  0  0
 30  1  1  0  0  0
  1  2  1  0  0  0
  2  6  1  0  0  0
  6  7  2  0  0  0
  7  8  1  0  0  0
  8  9  2  0  0  0
  9 10  1  0  0  0
  9 11  1  0  0  0
 11 13  1  0  0  0
 13 14  3  0  0  0
 14 15  1  0  0  0
 15 16  1  0  0  0
 15 17  1  0  0  0
 17 18  1  0  0  0
 18 19  1  0  0  0
 11 12  2  0  0  0
  2  3  2  0  0  0
  3  4  1  0  0  0
  4 21  1  0  0  0
 21 22  2  0  0  0
 22 23  1  0  0  0
 23 26  1  0  0  0
 26 27  2  0  0  0
 26 28  1  0  0  0
 23 24  2  0  0  0
 24 25  1  0  0  0
  4  5  1  0  0  0
  5 44  1  0  0  0
 44 45  1  0  0  0
 45 46  1  0  0  0
 46 47  1  0  0  0
 34 35  1  0  0  0
 35 36  2  0  0  0
 36 37  1  0  0  0
 36 31  1  0  0  0
  5  1  2  0  0  0
 47 45  1  0  0  0
 12  6  1  0  0  0
 25 21  1  0  0  0
 19 15  1  0  0  0
 38 42  1  0  0  0
 38 43  1  0  0  0
 16 20  1  0  0  0
 28 29  1  0  0  0
M  END
> <minimizedAffinity>
-7.67474

$$$$
