L1:P00338:47131
     RDKit          3D

 67 72  0  0  0  0  0  0  0  0999 V2000
   -4.6407    0.7201   -4.7048 N   0  0  0  0  0  0  0  0  0  0  0  0
   -4.2848    1.8834   -3.5394 S   0  0  0  0  0  6  0  0  0  0  0  0
   -3.1857    2.6635   -4.0570 O   0  0  0  0  0  0  0  0  0  0  0  0
   -5.5421    2.4864   -3.1595 O   0  0  0  0  0  0  0  0  0  0  0  0
   -3.6963    0.9450   -2.1744 C   0  0  0  0  0  0  0  0  0  0  0  0
   -4.2852    1.0817   -0.9161 C   0  0  0  0  0  0  0  0  0  0  0  0
   -3.7880    0.3427    0.1609 C   0  0  0  0  0  0  0  0  0  0  0  0
   -2.6969   -0.5277   -0.0048 C   0  0  0  0  0  0  0  0  0  0  0  0
   -2.1629   -1.3143    1.1710 C   0  0  0  0  0  0  0  0  0  0  0  0
   -0.8568   -0.6937    1.5590 C   0  0  0  0  0  0  0  0  0  0  0  0
    0.4528   -1.1386    1.2157 C   0  0  0  0  0  0  0  0  0  0  0  0
    0.8491   -2.2974    0.4223 C   0  0  0  0  0  0  0  0  0  0  0  0
    0.4588   -3.5903    0.7973 C   0  0  0  0  0  0  0  0  0  0  0  0
    0.8413   -4.6890    0.0253 C   0  0  0  0  0  0  0  0  0  0  0  0
    1.6176   -4.4955   -1.1145 C   0  0  0  0  0  0  0  0  0  0  0  0
    1.9678   -5.5670   -1.8418 F   0  0  0  0  0  0  0  0  0  0  0  0
    2.0263   -3.2166   -1.4941 C   0  0  0  0  0  0  0  0  0  0  0  0
    2.8255   -3.0219   -2.6641 C   0  0  0  0  0  0  0  0  0  0  0  0
    3.4951   -2.8623   -3.6488 C   0  0  0  0  0  0  0  0  0  0  0  0
    4.3007   -2.6765   -4.8401 C   0  0  0  0  0  0  0  0  0  0  0  0
    3.6075   -1.7641   -5.7262 O   0  0  0  0  0  0  0  0  0  0  0  0
    5.7950   -2.3859   -4.5903 C   0  0  0  0  0  0  0  0  0  0  0  0
    6.2004   -3.6599   -5.1415 O   0  0  0  0  0  0  0  0  0  0  0  0
    4.8294   -3.9731   -5.4871 C   0  0  0  0  0  0  0  0  0  0  0  0
    1.6452   -2.1173   -0.7198 C   0  0  0  0  0  0  0  0  0  0  0  0
    1.3902   -0.3204    1.6969 N   0  0  0  0  0  0  0  0  0  0  0  0
    0.7323    0.6139    2.4297 N   0  0  0  0  0  0  0  0  0  0  0  0
    1.4856    1.5603    3.1514 C   0  0  0  0  0  0  0  0  0  0  0  0
    0.9668    2.4487    3.9726 N   0  0  0  0  0  0  0  0  0  0  0  0
    1.9826    3.2222    4.5423 C   0  0  0  0  0  0  0  0  0  0  0  0
    1.7203    4.2878    5.5048 C   0  0  0  0  0  0  0  0  0  0  0  0
    2.5706    5.0033    6.0173 O   0  0  0  0  0  0  0  0  0  0  0  0
    0.4165    4.4538    5.8267 O   0  0  0  0  0  0  0  0  0  0  0  0
    3.2559    2.8854    4.1151 C   0  0  0  0  0  0  0  0  0  0  0  0
    3.1895    1.5845    3.0035 S   0  0  0  0  0  0  0  0  0  0  0  0
   -0.6432    0.4388    2.3422 C   0  0  0  0  0  0  0  0  0  0  0  0
   -1.6384    1.3634    2.9747 C   0  0  0  0  0  0  0  0  0  0  0  0
   -1.9413    2.5894    2.1536 C   0  0  0  0  0  0  0  0  0  0  0  0
   -3.0654    3.5047    2.5736 C   0  0  0  0  0  0  0  0  0  0  0  0
   -1.6427    3.9715    2.6763 C   0  0  0  0  0  0  0  0  0  0  0  0
   -2.1358   -0.6643   -1.2854 C   0  0  0  0  0  0  0  0  0  0  0  0
   -2.6322    0.0750   -2.3568 C   0  0  0  0  0  0  0  0  0  0  0  0
   -2.0821   -0.0998   -3.5660 F   0  0  0  0  0  0  0  0  0  0  0  0
   -4.6036   -0.2360   -4.3552 H   0  0  0  0  0  0  0  0  0  0  0  0
   -4.0020    0.8492   -5.4932 H   0  0  0  0  0  0  0  0  0  0  0  0
   -5.1204    1.7629   -0.7616 H   0  0  0  0  0  0  0  0  0  0  0  0
   -4.2521    0.4646    1.1388 H   0  0  0  0  0  0  0  0  0  0  0  0
   -2.0612   -2.3661    0.8878 H   0  0  0  0  0  0  0  0  0  0  0  0
   -2.8645   -1.2900    2.0128 H   0  0  0  0  0  0  0  0  0  0  0  0
   -0.1280   -3.7522    1.6987 H   0  0  0  0  0  0  0  0  0  0  0  0
    0.5475   -5.6955    0.3074 H   0  0  0  0  0  0  0  0  0  0  0  0
    3.5040   -0.9467   -5.2097 H   0  0  0  0  0  0  0  0  0  0  0  0
    6.1057   -2.2858   -3.5452 H   0  0  0  0  0  0  0  0  0  0  0  0
    6.2119   -1.5542   -5.1677 H   0  0  0  0  0  0  0  0  0  0  0  0
    4.5082   -4.9147   -5.0301 H   0  0  0  0  0  0  0  0  0  0  0  0
    4.7008   -4.0405   -6.5724 H   0  0  0  0  0  0  0  0  0  0  0  0
    1.9664   -1.1151   -0.9991 H   0  0  0  0  0  0  0  0  0  0  0  0
    0.4294    5.1925    6.4671 H   0  0  0  0  0  0  0  0  0  0  0  0
    4.1976    3.3318    4.4049 H   0  0  0  0  0  0  0  0  0  0  0  0
   -2.5790    0.8138    3.1072 H   0  0  0  0  0  0  0  0  0  0  0  0
   -1.3353    1.6288    3.9931 H   0  0  0  0  0  0  0  0  0  0  0  0
   -1.8282    2.4213    1.0877 H   0  0  0  0  0  0  0  0  0  0  0  0
   -3.6850    3.9379    1.7962 H   0  0  0  0  0  0  0  0  0  0  0  0
   -3.5932    3.2967    3.4975 H   0  0  0  0  0  0  0  0  0  0  0  0
   -1.2950    4.7148    1.9680 H   0  0  0  0  0  0  0  0  0  0  0  0
   -1.2187    4.0765    3.6681 H   0  0  0  0  0  0  0  0  0  0  0  0
   -1.3077   -1.3440   -1.4648 H   0  0  0  0  0  0  0  0  0  0  0  0
  1  2  1  0
  2  3  2  0
  2  4  2  0
  2  5  1  0
  5  6  2  0
  6  7  1  0
  7  8  2  0
  8  9  1  0
  9 10  1  0
 10 11  1  0
 11 12  1  0
 12 13  2  0
 13 14  1  0
 14 15  2  0
 15 16  1  0
 15 17  1  0
 17 18  1  0
 18 19  3  0
 19 20  1  0
 20 21  1  0
 20 22  1  0
 22 23  1  0
 23 24  1  0
 17 25  2  0
 11 26  2  0
 26 27  1  0
 27 28  1  0
 28 29  2  0
 29 30  1  0
 30 31  1  0
 31 32  2  0
 31 33  1  0
 30 34  2  0
 34 35  1  0
 27 36  1  0
 36 37  1  0
 37 38  1  0
 38 39  1  0
 39 40  1  0
  8 41  1  0
 41 42  2  0
 42 43  1  0
 42  5  1  0
 36 10  2  0
 40 38  1  0
 25 12  1  0
 35 28  1  0
 24 20  1  0
  1 44  1  0
  1 45  1  0
  6 46  1  0
  7 47  1  0
  9 48  1  0
  9 49  1  0
 13 50  1  0
 14 51  1  0
 21 52  1  0
 22 53  1  0
 22 54  1  0
 24 55  1  0
 24 56  1  0
 25 57  1  0
 33 58  1  0
 34 59  1  0
 37 60  1  0
 37 61  1  0
 38 62  1  0
 39 63  1  0
 39 64  1  0
 40 65  1  0
 40 66  1  0
 41 67  1  0
M  END
>  <mol_id>  (1) 
47131

>  <source_index>  (1) 
3

>  <layer>  (1) 
L1

>  <uniprot>  (1) 
P00338

>  <paff>  (1) 
9

>  <smiles>  (1) 
NS(=O)(=O)c1ccc(Cc2c(-c3ccc(F)c(C#CC4(O)COC4)c3)nn(-c3nc(C(=O)O)cs3)c2CC2CC2)cc1F

$$$$
