L1:P00338:6096
     RDKit          3D

 69 74  0  0  0  0  0  0  0  0999 V2000
    7.4530   -2.3168    0.5432 C   0  0  0  0  0  0  0  0  0  0  0  0
    6.3992   -1.7396   -0.3959 C   0  0  0  0  0  0  0  0  0  0  0  0
    5.0850   -1.6957    0.2204 C   0  0  0  0  0  0  0  0  0  0  0  0
    3.9988   -1.6598    0.7323 C   0  0  0  0  0  0  0  0  0  0  0  0
    2.7038   -1.6127    1.3378 C   0  0  0  0  0  0  0  0  0  0  0  0
    1.8190   -0.5834    1.0019 C   0  0  0  0  0  0  0  0  0  0  0  0
    0.5434   -0.5366    1.5812 C   0  0  0  0  0  0  0  0  0  0  0  0
   -0.3929    0.5197    1.2183 C   0  0  0  0  0  0  0  0  0  0  0  0
   -0.8461    1.3571    2.1526 N   0  0  0  0  0  0  0  0  0  0  0  0
   -1.6661    2.2246    1.5084 N   0  0  0  0  0  0  0  0  0  0  0  0
   -2.2899    3.2484    2.2477 C   0  0  0  0  0  0  0  0  0  0  0  0
   -3.1061    4.1391    1.7241 N   0  0  0  0  0  0  0  0  0  0  0  0
   -3.5530    5.0170    2.7149 C   0  0  0  0  0  0  0  0  0  0  0  0
   -4.4701    6.1173    2.4349 C   0  0  0  0  0  0  0  0  0  0  0  0
   -4.8914    6.9159    3.2611 O   0  0  0  0  0  0  0  0  0  0  0  0
   -4.8542    6.2178    1.1404 O   0  0  0  0  0  0  0  0  0  0  0  0
   -3.0481    4.7487    3.9765 C   0  0  0  0  0  0  0  0  0  0  0  0
   -2.0053    3.3897    3.9271 S   0  0  0  0  0  0  0  0  0  0  0  0
   -1.7482    1.9285    0.1527 C   0  0  0  0  0  0  0  0  0  0  0  0
   -2.5662    2.7234   -0.8199 C   0  0  0  0  0  0  0  0  0  0  0  0
   -1.8873    3.9703   -1.3143 C   0  0  0  0  0  0  0  0  0  0  0  0
   -0.8633    3.9154   -2.4197 C   0  0  0  0  0  0  0  0  0  0  0  0
   -2.2146    4.5227   -2.6783 C   0  0  0  0  0  0  0  0  0  0  0  0
   -0.9529    0.8064   -0.0603 C   0  0  0  0  0  0  0  0  0  0  0  0
   -0.7275    0.0764   -1.3465 C   0  0  0  0  0  0  0  0  0  0  0  0
   -1.4572   -1.2432   -1.2292 C   0  0  0  0  0  0  0  0  0  0  0  0
   -2.8615   -1.3010   -1.2503 C   0  0  0  0  0  0  0  0  0  0  0  0
   -3.5281   -2.5224   -1.1222 C   0  0  0  0  0  0  0  0  0  0  0  0
   -2.7906   -3.6998   -0.9743 C   0  0  0  0  0  0  0  0  0  0  0  0
   -3.6262   -5.2369   -0.7940 S   0  0  0  0  0  6  0  0  0  0  0  0
   -2.7968   -6.3005   -1.7929 N   0  0  0  0  0  0  0  0  0  0  0  0
   -4.9294   -5.1022   -1.4074 O   0  0  0  0  0  0  0  0  0  0  0  0
   -3.4581   -5.6690    0.5721 O   0  0  0  0  0  0  0  0  0  0  0  0
   -1.4054   -3.6575   -0.9731 C   0  0  0  0  0  0  0  0  0  0  0  0
   -0.6792   -4.7796   -0.8793 F   0  0  0  0  0  0  0  0  0  0  0  0
   -0.7370   -2.4422   -1.1045 C   0  0  0  0  0  0  0  0  0  0  0  0
    0.1669   -1.5138    2.5137 C   0  0  0  0  0  0  0  0  0  0  0  0
    1.0499   -2.5416    2.8484 C   0  0  0  0  0  0  0  0  0  0  0  0
    2.3096   -2.5859    2.2577 C   0  0  0  0  0  0  0  0  0  0  0  0
    3.1414   -3.5851    2.5893 F   0  0  0  0  0  0  0  0  0  0  0  0
    6.8341   -0.4414   -1.1059 C   0  0  0  0  0  0  0  0  0  0  0  0
    7.1163   -1.1592   -2.3345 O   0  0  0  0  0  0  0  0  0  0  0  0
    6.4385   -2.3333   -1.8189 C   0  0  0  0  0  0  0  0  0  0  0  0
    8.4421   -2.3413    0.0715 H   0  0  0  0  0  0  0  0  0  0  0  0
    7.2026   -3.3439    0.8337 H   0  0  0  0  0  0  0  0  0  0  0  0
    7.5401   -1.7175    1.4573 H   0  0  0  0  0  0  0  0  0  0  0  0
    2.1266    0.1870    0.2982 H   0  0  0  0  0  0  0  0  0  0  0  0
   -5.4531    6.9905    1.1359 H   0  0  0  0  0  0  0  0  0  0  0  0
   -3.2407    5.2780    4.9001 H   0  0  0  0  0  0  0  0  0  0  0  0
   -3.5383    2.9825   -0.3871 H   0  0  0  0  0  0  0  0  0  0  0  0
   -2.8147    2.0829   -1.6755 H   0  0  0  0  0  0  0  0  0  0  0  0
   -1.7368    4.6952   -0.5210 H   0  0  0  0  0  0  0  0  0  0  0  0
   -0.6415    2.9647   -2.8883 H   0  0  0  0  0  0  0  0  0  0  0  0
   -0.0112    4.5823   -2.3496 H   0  0  0  0  0  0  0  0  0  0  0  0
   -2.9048    3.9780   -3.3121 H   0  0  0  0  0  0  0  0  0  0  0  0
   -2.2766    5.6003   -2.7838 H   0  0  0  0  0  0  0  0  0  0  0  0
   -1.1113    0.6276   -2.2108 H   0  0  0  0  0  0  0  0  0  0  0  0
    0.3426   -0.0746   -1.5249 H   0  0  0  0  0  0  0  0  0  0  0  0
   -3.4479   -0.3893   -1.3535 H   0  0  0  0  0  0  0  0  0  0  0  0
   -4.6166   -2.5446   -1.1265 H   0  0  0  0  0  0  0  0  0  0  0  0
   -3.3449   -6.5137   -2.6257 H   0  0  0  0  0  0  0  0  0  0  0  0
   -1.8268   -6.0443   -1.9734 H   0  0  0  0  0  0  0  0  0  0  0  0
    0.3501   -2.4447   -1.0995 H   0  0  0  0  0  0  0  0  0  0  0  0
   -0.8169   -1.4765    2.9782 H   0  0  0  0  0  0  0  0  0  0  0  0
    0.7640   -3.3053    3.5653 H   0  0  0  0  0  0  0  0  0  0  0  0
    6.0578    0.3142   -1.2680 H   0  0  0  0  0  0  0  0  0  0  0  0
    7.7304    0.0456   -0.7096 H   0  0  0  0  0  0  0  0  0  0  0  0
    7.0445   -3.2359   -1.9473 H   0  0  0  0  0  0  0  0  0  0  0  0
    5.4748   -2.4762   -2.3193 H   0  0  0  0  0  0  0  0  0  0  0  0
  1  2  1  0
  2  3  1  0
  3  4  3  0
  4  5  1  0
  5  6  2  0
  6  7  1  0
  7  8  1  0
  8  9  2  0
  9 10  1  0
 10 11  1  0
 11 12  2  0
 12 13  1  0
 13 14  1  0
 14 15  2  0
 14 16  1  0
 13 17  2  0
 17 18  1  0
 10 19  1  0
 19 20  1  0
 20 21  1  0
 21 22  1  0
 22 23  1  0
 19 24  2  0
 24 25  1  0
 25 26  1  0
 26 27  2  0
 27 28  1  0
 28 29  2  0
 29 30  1  0
 30 31  1  0
 30 32  2  0
 30 33  2  0
 29 34  1  0
 34 35  1  0
 34 36  2  0
  7 37  2  0
 37 38  1  0
 38 39  2  0
 39 40  1  0
  2 41  1  0
 41 42  1  0
 42 43  1  0
 43  2  1  0
 39  5  1  0
 24  8  1  0
 36 26  1  0
 18 11  1  0
 23 21  1  0
  1 44  1  0
  1 45  1  0
  1 46  1  0
  6 47  1  0
 16 48  1  0
 17 49  1  0
 20 50  1  0
 20 51  1  0
 21 52  1  0
 22 53  1  0
 22 54  1  0
 23 55  1  0
 23 56  1  0
 25 57  1  0
 25 58  1  0
 27 59  1  0
 28 60  1  0
 31 61  1  0
 31 62  1  0
 36 63  1  0
 37 64  1  0
 38 65  1  0
 41 66  1  0
 41 67  1  0
 43 68  1  0
 43 69  1  0
M  END
>  <mol_id>  (1) 
6096

>  <source_index>  (1) 
0

>  <layer>  (1) 
L1

>  <uniprot>  (1) 
P00338

>  <paff>  (1) 
9

>  <smiles>  (1) 
CC1(C#Cc2cc(-c3nn(-c4nc(C(=O)O)cs4)c(CC4CC4)c3Cc3ccc(S(N)(=O)=O)c(F)c3)ccc2F)COC1

$$$$
