L1:P00338:69006


 46 51  0  0  0  0  0  0  0  0999 V2000
  -11.9477  -15.4554  -57.6476 C   0  0  0  0  0  0  0  0  0  0  0  0
  -11.0410  -16.2196  -56.8634 C   0  0  0  0  0  0  0  0  0  0  0  0
   -9.8211  -16.2132  -57.3935 N   0  0  0  0  0  0  0  0  0  0  0  0
   -9.8945  -15.4957  -58.5452 N   0  0  0  0  0  0  0  0  0  0  0  0
  -11.1980  -15.0325  -58.7485 C   0  0  0  0  0  0  0  0  0  0  0  0
  -11.2786  -16.9397  -55.6153 C   0  0  0  0  0  0  0  0  0  0  0  0
  -11.3842  -18.3390  -55.6281 C   0  0  0  0  0  0  0  0  0  0  0  0
  -11.6062  -19.0410  -54.4423 C   0  0  0  0  0  0  0  0  0  0  0  0
  -11.7326  -18.3439  -53.2446 C   0  0  0  0  0  0  0  0  0  0  0  0
  -11.9410  -19.0374  -52.1149 F   0  0  0  0  0  0  0  0  0  0  0  0
  -11.6484  -16.9512  -53.2153 C   0  0  0  0  0  0  0  0  0  0  0  0
  -11.4266  -16.2486  -54.4044 C   0  0  0  0  0  0  0  0  0  0  0  0
  -11.7873  -16.2367  -51.9843 C   0  0  0  0  0  0  0  0  0  0  0  0
  -11.9008  -15.6377  -50.9495 C   0  0  0  0  0  0  0  0  0  0  0  0
  -12.0417  -14.9336  -49.7158 C   0  0  0  0  0  0  0  0  0  0  0  0
  -11.2623  -15.4696  -48.6439 O   0  0  0  0  0  0  0  0  0  0  0  0
  -12.2140  -13.4453  -49.7159 C   0  0  0  0  0  0  0  0  0  0  0  0
  -13.3619  -14.3374  -49.3329 C   0  0  0  0  0  0  0  0  0  0  0  0
  -11.4376  -16.4207  -48.5419 H   0  0  0  0  0  0  0  0  0  0  0  0
   -8.6716  -15.3890  -59.2487 C   0  0  0  0  0  0  0  0  0  0  0  0
   -7.6288  -14.7259  -58.7819 N   0  0  0  0  0  0  0  0  0  0  0  0
   -6.5652  -14.7832  -59.6815 C   0  0  0  0  0  0  0  0  0  0  0  0
   -6.8427  -15.5082  -60.8263 C   0  0  0  0  0  0  0  0  0  0  0  0
   -8.4402  -16.1151  -60.7684 S   0  0  0  0  0  0  0  0  0  0  0  0
   -5.2803  -14.1370  -59.4333 C   0  0  0  0  0  0  0  0  0  0  0  0
   -4.2434  -14.3763  -60.0391 O   0  0  0  0  0  0  0  0  0  0  0  0
   -5.2883  -13.2105  -58.4487 O   0  0  0  0  0  0  0  0  0  0  0  0
   -4.3677  -12.8860  -58.4182 H   0  0  0  0  0  0  0  0  0  0  0  0
  -13.3924  -15.1883  -57.3530 C   0  0  0  0  0  0  0  0  0  0  0  0
  -13.5596  -11.8932  -54.5662 C   0  0  0  0  0  0  0  0  0  0  0  0
  -13.2139  -11.6612  -55.8990 C   0  0  0  0  0  0  0  0  0  0  0  0
  -13.1629  -12.7330  -56.7944 C   0  0  0  0  0  0  0  0  0  0  0  0
  -13.4431  -14.0420  -56.3677 C   0  0  0  0  0  0  0  0  0  0  0  0
  -13.8071  -14.2465  -55.0259 C   0  0  0  0  0  0  0  0  0  0  0  0
  -13.8553  -13.1770  -54.1338 C   0  0  0  0  0  0  0  0  0  0  0  0
  -14.2058  -13.4199  -52.8634 F   0  0  0  0  0  0  0  0  0  0  0  0
  -15.2439  -10.2368  -53.2801 N   0  0  0  0  0  0  0  0  0  0  0  0
  -13.6049  -10.5725  -53.4149 S   0  0  0  0  0  0  0  0  0  0  0  0
  -13.1616  -11.0439  -52.1253 O   0  0  0  0  0  0  0  0  0  0  0  0
  -13.0350   -9.3961  -54.0341 O   0  0  0  0  0  0  0  0  0  0  0  0
  -15.4285   -9.2762  -53.5694 H   0  0  0  0  0  0  0  0  0  0  0  0
  -15.5647  -10.4575  -52.3362 H   0  0  0  0  0  0  0  0  0  0  0  0
  -11.6726  -14.2238  -59.9187 C   0  0  0  0  0  0  0  0  0  0  0  0
  -11.5745  -12.7305  -59.7392 C   0  0  0  0  0  0  0  0  0  0  0  0
  -10.2280  -12.0569  -59.6110 C   0  0  0  0  0  0  0  0  0  0  0  0
  -11.0312  -11.8759  -60.8618 C   0  0  0  0  0  0  0  0  0  0  0  0
 37 38  1  0  0  0
 38 39  2  0  0  0
 38 40  2  0  0  0
 38 30  1  0  0  0
 30 31  2  0  0  0
 31 32  1  0  0  0
 32 33  2  0  0  0
 33 29  1  0  0  0
 29  1  1  0  0  0
  1  2  1  0  0  0
  2  6  1  0  0  0
  6  7  2  0  0  0
  7  8  1  0  0  0
  8  9  2  0  0  0
  9 10  1  0  0  0
  9 11  1  0  0  0
 11 13  1  0  0  0
 13 14  3  0  0  0
 14 15  1  0  0  0
 15 16  1  0  0  0
 15 17  1  0  0  0
 17 18  1  0  0  0
 11 12  2  0  0  0
  2  3  2  0  0  0
  3  4  1  0  0  0
  4 20  1  0  0  0
 20 21  2  0  0  0
 21 22  1  0  0  0
 22 25  1  0  0  0
 25 26  2  0  0  0
 25 27  1  0  0  0
 22 23  2  0  0  0
 23 24  1  0  0  0
  4  5  1  0  0  0
  5 43  1  0  0  0
 43 44  1  0  0  0
 44 45  1  0  0  0
 45 46  1  0  0  0
 33 34  1  0  0  0
 34 35  2  0  0  0
 35 36  1  0  0  0
 35 30  1  0  0  0
  5  1  2  0  0  0
 46 44  1  0  0  0
 12  6  1  0  0  0
 24 20  1  0  0  0
 18 15  1  0  0  0
 37 41  1  0  0  0
 37 42  1  0  0  0
 16 19  1  0  0  0
 27 28  1  0  0  0
M  END
> <minimizedAffinity>
-7.44617

$$$$
