L1:P00338:69006
     RDKit          3D

 66 71  0  0  0  0  0  0  0  0999 V2000
   -3.5475    5.5253   -2.4560 N   0  0  0  0  0  0  0  0  0  0  0  0
   -4.3838    4.3092   -1.6567 S   0  0  0  0  0  6  0  0  0  0  0  0
   -5.0021    3.4856   -2.6673 O   0  0  0  0  0  0  0  0  0  0  0  0
   -5.1634    4.9951   -0.6498 O   0  0  0  0  0  0  0  0  0  0  0  0
   -3.1111    3.4024   -0.8631 C   0  0  0  0  0  0  0  0  0  0  0  0
   -3.0688    3.3090    0.5295 C   0  0  0  0  0  0  0  0  0  0  0  0
   -2.0574    2.5622    1.1398 C   0  0  0  0  0  0  0  0  0  0  0  0
   -1.0904    1.8946    0.3696 C   0  0  0  0  0  0  0  0  0  0  0  0
    0.0026    1.0990    1.0476 C   0  0  0  0  0  0  0  0  0  0  0  0
   -0.2061   -0.3396    0.6837 C   0  0  0  0  0  0  0  0  0  0  0  0
    0.5337   -1.0992   -0.2633 C   0  0  0  0  0  0  0  0  0  0  0  0
    1.6692   -0.6948   -1.0878 C   0  0  0  0  0  0  0  0  0  0  0  0
    1.6174   -0.8715   -2.4790 C   0  0  0  0  0  0  0  0  0  0  0  0
    2.6931   -0.4851   -3.2801 C   0  0  0  0  0  0  0  0  0  0  0  0
    3.8250    0.0691   -2.6901 C   0  0  0  0  0  0  0  0  0  0  0  0
    4.8464    0.4384   -3.4780 F   0  0  0  0  0  0  0  0  0  0  0  0
    3.9015    0.2357   -1.3066 C   0  0  0  0  0  0  0  0  0  0  0  0
    5.0694    0.7974   -0.7020 C   0  0  0  0  0  0  0  0  0  0  0  0
    6.0483    1.2712   -0.1922 C   0  0  0  0  0  0  0  0  0  0  0  0
    7.2130    1.8405    0.4052 C   0  0  0  0  0  0  0  0  0  0  0  0
    7.3615    3.2438    0.1764 O   0  0  0  0  0  0  0  0  0  0  0  0
    7.6964    1.3416    1.7327 C   0  0  0  0  0  0  0  0  0  0  0  0
    8.4837    1.0506    0.4854 C   0  0  0  0  0  0  0  0  0  0  0  0
    2.8232   -0.1526   -0.5046 C   0  0  0  0  0  0  0  0  0  0  0  0
    0.0513   -2.3338   -0.3736 N   0  0  0  0  0  0  0  0  0  0  0  0
   -0.9734   -2.4383    0.5127 N   0  0  0  0  0  0  0  0  0  0  0  0
   -1.6066   -3.7035    0.5308 C   0  0  0  0  0  0  0  0  0  0  0  0
   -1.2425   -4.7013   -0.2546 N   0  0  0  0  0  0  0  0  0  0  0  0
   -2.0380   -5.8234   -0.0269 C   0  0  0  0  0  0  0  0  0  0  0  0
   -1.8676   -7.0776   -0.7535 C   0  0  0  0  0  0  0  0  0  0  0  0
   -2.5388   -8.0873   -0.5820 O   0  0  0  0  0  0  0  0  0  0  0  0
   -0.8793   -7.0728   -1.6761 O   0  0  0  0  0  0  0  0  0  0  0  0
   -2.9995   -5.6354    0.9496 C   0  0  0  0  0  0  0  0  0  0  0  0
   -2.9008   -4.0482    1.5779 S   0  0  0  0  0  0  0  0  0  0  0  0
   -1.1462   -1.2342    1.2021 C   0  0  0  0  0  0  0  0  0  0  0  0
   -2.1625   -0.9705    2.2727 C   0  0  0  0  0  0  0  0  0  0  0  0
   -3.5378   -0.6161    1.7681 C   0  0  0  0  0  0  0  0  0  0  0  0
   -4.7720   -1.1607    2.4488 C   0  0  0  0  0  0  0  0  0  0  0  0
   -4.4263    0.2894    2.5906 C   0  0  0  0  0  0  0  0  0  0  0  0
   -1.1434    2.0199   -1.0291 C   0  0  0  0  0  0  0  0  0  0  0  0
   -2.1539    2.7631   -1.6362 C   0  0  0  0  0  0  0  0  0  0  0  0
   -2.1656    2.8532   -2.9731 F   0  0  0  0  0  0  0  0  0  0  0  0
   -3.8502    6.4384   -2.1166 H   0  0  0  0  0  0  0  0  0  0  0  0
   -3.6416    5.4028   -3.4653 H   0  0  0  0  0  0  0  0  0  0  0  0
   -3.8155    3.8067    1.1450 H   0  0  0  0  0  0  0  0  0  0  0  0
   -2.0360    2.4972    2.2266 H   0  0  0  0  0  0  0  0  0  0  0  0
    0.9733    1.4840    0.7230 H   0  0  0  0  0  0  0  0  0  0  0  0
   -0.0307    1.2231    2.1360 H   0  0  0  0  0  0  0  0  0  0  0  0
    0.7376   -1.3196   -2.9390 H   0  0  0  0  0  0  0  0  0  0  0  0
    2.6572   -0.6194   -4.3566 H   0  0  0  0  0  0  0  0  0  0  0  0
    7.3089    3.4381   -0.7750 H   0  0  0  0  0  0  0  0  0  0  0  0
    8.0955    2.0698    2.4289 H   0  0  0  0  0  0  0  0  0  0  0  0
    7.1698    0.5202    2.2033 H   0  0  0  0  0  0  0  0  0  0  0  0
    9.4204    1.5769    0.3453 H   0  0  0  0  0  0  0  0  0  0  0  0
    8.4877    0.0320    0.1156 H   0  0  0  0  0  0  0  0  0  0  0  0
    2.8919   -0.0469    0.5758 H   0  0  0  0  0  0  0  0  0  0  0  0
   -0.9049   -7.9709   -2.0587 H   0  0  0  0  0  0  0  0  0  0  0  0
   -3.7335   -6.3446    1.3075 H   0  0  0  0  0  0  0  0  0  0  0  0
   -2.1972   -1.8009    2.9847 H   0  0  0  0  0  0  0  0  0  0  0  0
   -1.8027   -0.1295    2.8797 H   0  0  0  0  0  0  0  0  0  0  0  0
   -3.5746   -0.4773    0.6920 H   0  0  0  0  0  0  0  0  0  0  0  0
   -4.6615   -1.7898    3.3248 H   0  0  0  0  0  0  0  0  0  0  0  0
   -5.6193   -1.4224    1.8241 H   0  0  0  0  0  0  0  0  0  0  0  0
   -4.0785    0.6325    3.5582 H   0  0  0  0  0  0  0  0  0  0  0  0
   -5.0435    1.0091    2.0634 H   0  0  0  0  0  0  0  0  0  0  0  0
   -0.4037    1.5400   -1.6641 H   0  0  0  0  0  0  0  0  0  0  0  0
  1  2  1  0
  2  3  2  0
  2  4  2  0
  2  5  1  0
  5  6  2  0
  6  7  1  0
  7  8  2  0
  8  9  1  0
  9 10  1  0
 10 11  1  0
 11 12  1  0
 12 13  2  0
 13 14  1  0
 14 15  2  0
 15 16  1  0
 15 17  1  0
 17 18  1  0
 18 19  3  0
 19 20  1  0
 20 21  1  0
 20 22  1  0
 22 23  1  0
 17 24  2  0
 11 25  2  0
 25 26  1  0
 26 27  1  0
 27 28  2  0
 28 29  1  0
 29 30  1  0
 30 31  2  0
 30 32  1  0
 29 33  2  0
 33 34  1  0
 26 35  1  0
 35 36  1  0
 36 37  1  0
 37 38  1  0
 38 39  1  0
  8 40  1  0
 40 41  2  0
 41 42  1  0
 41  5  1  0
 35 10  2  0
 39 37  1  0
 24 12  1  0
 34 27  1  0
 23 20  1  0
  1 43  1  0
  1 44  1  0
  6 45  1  0
  7 46  1  0
  9 47  1  0
  9 48  1  0
 13 49  1  0
 14 50  1  0
 21 51  1  0
 22 52  1  0
 22 53  1  0
 23 54  1  0
 23 55  1  0
 24 56  1  0
 32 57  1  0
 33 58  1  0
 36 59  1  0
 36 60  1  0
 37 61  1  0
 38 62  1  0
 38 63  1  0
 39 64  1  0
 39 65  1  0
 40 66  1  0
M  END
>  <mol_id>  (1) 
69006

>  <source_index>  (1) 
4

>  <layer>  (1) 
L1

>  <uniprot>  (1) 
P00338

>  <paff>  (1) 
9

>  <smiles>  (1) 
NS(=O)(=O)c1ccc(Cc2c(-c3ccc(F)c(C#CC4(O)CC4)c3)nn(-c3nc(C(=O)O)cs3)c2CC2CC2)cc1F

$$$$
