L1:P00338:69526
     RDKit          3D

 67 72  0  0  0  0  0  0  0  0999 V2000
   -6.8648    3.4589    0.7769 N   0  0  0  0  0  0  0  0  0  0  0  0
   -6.0151    4.4868   -0.2428 S   0  0  0  0  0  6  0  0  0  0  0  0
   -5.6337    5.6384    0.5381 O   0  0  0  0  0  0  0  0  0  0  0  0
   -6.8425    4.6038   -1.4232 O   0  0  0  0  0  0  0  0  0  0  0  0
   -4.5850    3.5577   -0.6473 C   0  0  0  0  0  0  0  0  0  0  0  0
   -4.3164    3.2073   -1.9714 C   0  0  0  0  0  0  0  0  0  0  0  0
   -3.1608    2.4794   -2.2702 C   0  0  0  0  0  0  0  0  0  0  0  0
   -2.2690    2.0827   -1.2558 C   0  0  0  0  0  0  0  0  0  0  0  0
   -1.0124    1.3294   -1.6476 C   0  0  0  0  0  0  0  0  0  0  0  0
   -0.7726    0.2302   -0.6597 C   0  0  0  0  0  0  0  0  0  0  0  0
    0.3474    0.0906    0.2084 C   0  0  0  0  0  0  0  0  0  0  0  0
    1.5155    0.9579    0.3761 C   0  0  0  0  0  0  0  0  0  0  0  0
    1.3852    2.3395    0.5651 C   0  0  0  0  0  0  0  0  0  0  0  0
    2.5168    3.1441    0.7232 C   0  0  0  0  0  0  0  0  0  0  0  0
    3.7892    2.5732    0.7008 C   0  0  0  0  0  0  0  0  0  0  0  0
    3.9320    1.1958    0.5276 C   0  0  0  0  0  0  0  0  0  0  0  0
    5.2353    0.6071    0.5150 C   0  0  0  0  0  0  0  0  0  0  0  0
    6.3286    0.1091    0.5072 C   0  0  0  0  0  0  0  0  0  0  0  0
    7.6471   -0.4943    0.4962 C   0  0  0  0  0  0  0  0  0  0  0  0
    7.6920   -1.4904   -0.5546 O   0  0  0  0  0  0  0  0  0  0  0  0
    8.1809   -0.9401    1.8729 C   0  0  0  0  0  0  0  0  0  0  0  0
    9.2005    0.0892    1.8794 O   0  0  0  0  0  0  0  0  0  0  0  0
    8.8267    0.4988    0.5438 C   0  0  0  0  0  0  0  0  0  0  0  0
    2.8002    0.3920    0.3700 C   0  0  0  0  0  0  0  0  0  0  0  0
    0.2690   -1.0410    0.9063 N   0  0  0  0  0  0  0  0  0  0  0  0
   -0.8857   -1.6549    0.5440 N   0  0  0  0  0  0  0  0  0  0  0  0
   -1.1545   -2.8602    1.2367 C   0  0  0  0  0  0  0  0  0  0  0  0
   -0.3273   -3.3790    2.1260 N   0  0  0  0  0  0  0  0  0  0  0  0
   -0.8453   -4.5584    2.6592 C   0  0  0  0  0  0  0  0  0  0  0  0
   -0.1192   -5.3310    3.6638 C   0  0  0  0  0  0  0  0  0  0  0  0
    0.9765   -5.0637    4.1364 O   0  0  0  0  0  0  0  0  0  0  0  0
   -0.7614   -6.4498    4.0850 O   0  0  0  0  0  0  0  0  0  0  0  0
   -2.0840   -4.8999    2.1447 C   0  0  0  0  0  0  0  0  0  0  0  0
   -2.5916   -3.7390    0.9958 S   0  0  0  0  0  0  0  0  0  0  0  0
   -1.5294   -0.9277   -0.4605 C   0  0  0  0  0  0  0  0  0  0  0  0
   -2.7674   -1.3500   -1.1916 C   0  0  0  0  0  0  0  0  0  0  0  0
   -2.5206   -2.3417   -2.2968 C   0  0  0  0  0  0  0  0  0  0  0  0
   -3.5895   -2.5942   -3.3295 C   0  0  0  0  0  0  0  0  0  0  0  0
   -2.3256   -1.8795   -3.7191 C   0  0  0  0  0  0  0  0  0  0  0  0
   -2.5549    2.4674    0.0656 C   0  0  0  0  0  0  0  0  0  0  0  0
   -3.7076    3.1941    0.3624 C   0  0  0  0  0  0  0  0  0  0  0  0
   -3.9445    3.5207    1.6401 F   0  0  0  0  0  0  0  0  0  0  0  0
   -7.7793    3.2495    0.3764 H   0  0  0  0  0  0  0  0  0  0  0  0
   -6.9033    3.8598    1.7154 H   0  0  0  0  0  0  0  0  0  0  0  0
   -4.9912    3.4992   -2.7737 H   0  0  0  0  0  0  0  0  0  0  0  0
   -2.9603    2.2206   -3.3095 H   0  0  0  0  0  0  0  0  0  0  0  0
   -0.1782    2.0340   -1.7082 H   0  0  0  0  0  0  0  0  0  0  0  0
   -1.1237    0.8856   -2.6441 H   0  0  0  0  0  0  0  0  0  0  0  0
    0.4067    2.8067    0.6117 H   0  0  0  0  0  0  0  0  0  0  0  0
    2.4054    4.2150    0.8750 H   0  0  0  0  0  0  0  0  0  0  0  0
    4.6638    3.2059    0.8316 H   0  0  0  0  0  0  0  0  0  0  0  0
    7.4253   -1.0148   -1.3595 H   0  0  0  0  0  0  0  0  0  0  0  0
    8.6282   -1.9391    1.9002 H   0  0  0  0  0  0  0  0  0  0  0  0
    7.4982   -0.8305    2.7216 H   0  0  0  0  0  0  0  0  0  0  0  0
    9.6327    0.3013   -0.1706 H   0  0  0  0  0  0  0  0  0  0  0  0
    8.5719    1.5629    0.5089 H   0  0  0  0  0  0  0  0  0  0  0  0
    2.9127   -0.6849    0.2505 H   0  0  0  0  0  0  0  0  0  0  0  0
   -0.1278   -6.8147    4.7380 H   0  0  0  0  0  0  0  0  0  0  0  0
   -2.6960   -5.7572    2.3889 H   0  0  0  0  0  0  0  0  0  0  0  0
   -3.5239   -1.7296   -0.5009 H   0  0  0  0  0  0  0  0  0  0  0  0
   -3.2470   -0.4643   -1.6233 H   0  0  0  0  0  0  0  0  0  0  0  0
   -1.9451   -3.2014   -1.9719 H   0  0  0  0  0  0  0  0  0  0  0  0
   -3.7259   -3.6113   -3.6804 H   0  0  0  0  0  0  0  0  0  0  0  0
   -4.5060   -2.0164   -3.2861 H   0  0  0  0  0  0  0  0  0  0  0  0
   -2.3956   -0.8224   -3.9459 H   0  0  0  0  0  0  0  0  0  0  0  0
   -1.6062   -2.4144   -4.3295 H   0  0  0  0  0  0  0  0  0  0  0  0
   -1.8975    2.2010    0.8890 H   0  0  0  0  0  0  0  0  0  0  0  0
  1  2  1  0
  2  3  2  0
  2  4  2  0
  2  5  1  0
  5  6  2  0
  6  7  1  0
  7  8  2  0
  8  9  1  0
  9 10  1  0
 10 11  1  0
 11 12  1  0
 12 13  2  0
 13 14  1  0
 14 15  2  0
 15 16  1  0
 16 17  1  0
 17 18  3  0
 18 19  1  0
 19 20  1  0
 19 21  1  0
 21 22  1  0
 22 23  1  0
 16 24  2  0
 11 25  2  0
 25 26  1  0
 26 27  1  0
 27 28  2  0
 28 29  1  0
 29 30  1  0
 30 31  2  0
 30 32  1  0
 29 33  2  0
 33 34  1  0
 26 35  1  0
 35 36  1  0
 36 37  1  0
 37 38  1  0
 38 39  1  0
  8 40  1  0
 40 41  2  0
 41 42  1  0
 41  5  1  0
 35 10  2  0
 39 37  1  0
 24 12  1  0
 34 27  1  0
 23 19  1  0
  1 43  1  0
  1 44  1  0
  6 45  1  0
  7 46  1  0
  9 47  1  0
  9 48  1  0
 13 49  1  0
 14 50  1  0
 15 51  1  0
 20 52  1  0
 21 53  1  0
 21 54  1  0
 23 55  1  0
 23 56  1  0
 24 57  1  0
 32 58  1  0
 33 59  1  0
 36 60  1  0
 36 61  1  0
 37 62  1  0
 38 63  1  0
 38 64  1  0
 39 65  1  0
 39 66  1  0
 40 67  1  0
M  END
>  <mol_id>  (1) 
69526

>  <source_index>  (1) 
8

>  <layer>  (1) 
L1

>  <uniprot>  (1) 
P00338

>  <paff>  (1) 
9

>  <smiles>  (1) 
NS(=O)(=O)c1ccc(Cc2c(-c3cccc(C#CC4(O)COC4)c3)nn(-c3nc(C(=O)O)cs3)c2CC2CC2)cc1F

$$$$
