L1:P00338:69523
 OpenBabel09212617433D

 68 72  0  0  0  0  0  0  0  0999 V2000
  -11.4507  -14.7973  -56.9519 C   0  0  0  0  0  0  0  0  0  0  0  0
  -10.3540  -14.3955  -57.5939 N   0  0  0  0  0  0  0  0  0  0  0  0
   -9.4075  -15.3356  -57.3371 N   0  0  0  0  0  0  0  0  0  0  0  0
   -9.9066  -16.3364  -56.5094 C   0  0  0  0  0  0  0  0  0  0  0  0
  -11.2437  -16.0293  -56.2729 C   0  0  0  0  0  0  0  0  0  0  0  0
  -14.0516  -12.2280  -56.1075 C   0  0  0  0  0  0  0  0  0  0  0  0
  -12.9075  -13.0265  -56.0308 C   0  0  0  0  0  0  0  0  0  0  0  0
  -12.6651  -13.9996  -57.0103 C   0  0  0  0  0  0  0  0  0  0  0  0
  -13.5814  -14.1890  -58.0530 C   0  0  0  0  0  0  0  0  0  0  0  0
  -14.7310  -13.4010  -58.1204 C   0  0  0  0  0  0  0  0  0  0  0  0
  -14.9568  -12.4255  -57.1517 C   0  0  0  0  0  0  0  0  0  0  0  0
  -16.0652  -11.6753  -57.2450 F   0  0  0  0  0  0  0  0  0  0  0  0
  -14.4419  -10.3405  -54.3165 C   0  0  0  0  0  0  0  0  0  0  0  0
  -14.2722  -11.2068  -55.1315 C   0  0  0  0  0  0  0  0  0  0  0  0
  -15.4677   -8.1316  -53.9297 C   0  0  0  0  0  0  0  0  0  0  0  0
  -14.6513   -9.2710  -53.3266 C   0  0  0  0  0  0  0  0  0  0  0  0
  -13.3117   -8.7565  -52.8026 C   0  0  0  0  0  0  0  0  0  0  0  0
  -15.3871   -9.7955  -52.2213 O   0  0  0  0  0  0  0  0  0  0  0  0
  -14.9803  -10.6481  -51.9907 H   0  0  0  0  0  0  0  0  0  0  0  0
   -8.1313  -15.1816  -57.9137 C   0  0  0  0  0  0  0  0  0  0  0  0
   -7.5427  -16.0925  -58.6590 N   0  0  0  0  0  0  0  0  0  0  0  0
   -6.2903  -15.6355  -59.0760 C   0  0  0  0  0  0  0  0  0  0  0  0
   -5.9747  -14.3651  -58.6253 C   0  0  0  0  0  0  0  0  0  0  0  0
   -7.2501  -13.7362  -57.6697 S   0  0  0  0  0  0  0  0  0  0  0  0
   -5.4006  -16.4352  -59.9115 C   0  0  0  0  0  0  0  0  0  0  0  0
   -4.8130  -17.4475  -59.5543 O   0  0  0  0  0  0  0  0  0  0  0  0
   -5.2499  -15.9773  -61.1762 O   0  0  0  0  0  0  0  0  0  0  0  0
   -4.6358  -16.6201  -61.5828 H   0  0  0  0  0  0  0  0  0  0  0  0
   -9.0992  -17.4908  -55.9982 C   0  0  0  0  0  0  0  0  0  0  0  0
   -9.6539  -18.8334  -56.3889 C   0  0  0  0  0  0  0  0  0  0  0  0
   -9.9150  -19.9045  -55.3616 C   0  0  0  0  0  0  0  0  0  0  0  0
   -8.7741  -20.0560  -56.3292 C   0  0  0  0  0  0  0  0  0  0  0  0
  -12.2319  -16.8012  -55.4563 C   0  0  0  0  0  0  0  0  0  0  0  0
  -12.2203  -16.1950  -54.0707 C   0  0  0  0  0  0  0  0  0  0  0  0
  -11.4489  -16.7538  -53.0369 C   0  0  0  0  0  0  0  0  0  0  0  0
  -11.4630  -16.1989  -51.7543 C   0  0  0  0  0  0  0  0  0  0  0  0
  -12.2481  -15.0722  -51.4995 C   0  0  0  0  0  0  0  0  0  0  0  0
  -13.0026  -14.5015  -52.5132 C   0  0  0  0  0  0  0  0  0  0  0  0
  -13.7567  -13.4161  -52.2932 F   0  0  0  0  0  0  0  0  0  0  0  0
  -12.9851  -15.0495  -53.7944 C   0  0  0  0  0  0  0  0  0  0  0  0
  -12.3111  -14.3763  -49.8924 S   0  0  0  0  0  0  0  0  0  0  0  0
  -11.1670  -15.2606  -49.0402 N   0  0  0  0  0  0  0  0  0  0  0  0
  -13.5758  -14.7261  -49.2838 O   0  0  0  0  0  0  0  0  0  0  0  0
  -11.8425  -13.0128  -49.9436 O   0  0  0  0  0  0  0  0  0  0  0  0
  -11.6096  -15.7399  -48.2563 H   0  0  0  0  0  0  0  0  0  0  0  0
  -10.3902  -14.6532  -48.7744 H   0  0  0  0  0  0  0  0  0  0  0  0
  -12.2410  -12.8999  -55.2531 H   0  0  0  0  0  0  0  0  0  0  0  0
  -13.4064  -14.9102  -58.7701 H   0  0  0  0  0  0  0  0  0  0  0  0
  -15.4108  -13.5402  -58.8843 H   0  0  0  0  0  0  0  0  0  0  0  0
  -15.6084   -7.3661  -53.1955 H   0  0  0  0  0  0  0  0  0  0  0  0
  -16.4204   -8.5032  -54.2446 H   0  0  0  0  0  0  0  0  0  0  0  0
  -14.9468   -7.7265  -54.7720 H   0  0  0  0  0  0  0  0  0  0  0  0
  -13.4833   -7.9811  -52.0855 H   0  0  0  0  0  0  0  0  0  0  0  0
  -12.7356   -8.3685  -53.6165 H   0  0  0  0  0  0  0  0  0  0  0  0
  -12.7780   -9.5595  -52.3387 H   0  0  0  0  0  0  0  0  0  0  0  0
   -5.0954  -13.8673  -58.8353 H   0  0  0  0  0  0  0  0  0  0  0  0
   -9.0683  -17.4354  -54.9301 H   0  0  0  0  0  0  0  0  0  0  0  0
   -8.1269  -17.4129  -56.4380 H   0  0  0  0  0  0  0  0  0  0  0  0
  -10.2485  -18.3531  -57.1376 H   0  0  0  0  0  0  0  0  0  0  0  0
  -10.7778  -20.5311  -55.4499 H   0  0  0  0  0  0  0  0  0  0  0  0
  -10.0101  -19.9230  -54.2960 H   0  0  0  0  0  0  0  0  0  0  0  0
   -8.8254  -20.7903  -57.1058 H   0  0  0  0  0  0  0  0  0  0  0  0
   -7.7218  -20.2267  -56.2369 H   0  0  0  0  0  0  0  0  0  0  0  0
  -11.9471  -17.8316  -55.4102 H   0  0  0  0  0  0  0  0  0  0  0  0
  -13.2093  -16.7527  -55.8889 H   0  0  0  0  0  0  0  0  0  0  0  0
  -10.8654  -17.5834  -53.2273 H   0  0  0  0  0  0  0  0  0  0  0  0
  -10.8970  -16.6189  -51.0004 H   0  0  0  0  0  0  0  0  0  0  0  0
  -13.5386  -14.6101  -54.5465 H   0  0  0  0  0  0  0  0  0  0  0  0
  1  2  2  0  0  0  0
  2  3  1  0  0  0  0
  3 20  1  0  0  0  0
  3  4  1  0  0  0  0
  4 29  1  0  0  0  0
  4  5  2  0  0  0  0
  5 33  1  0  0  0  0
  5  1  1  0  0  0  0
  6  7  2  0  0  0  0
  7  8  1  0  0  0  0
  7 47  1  0  0  0  0
  8  1  1  0  0  0  0
  8  9  2  0  0  0  0
  9 10  1  0  0  0  0
  9 48  1  0  0  0  0
 10 11  2  0  0  0  0
 10 49  1  0  0  0  0
 11 12  1  0  0  0  0
 11  6  1  0  0  0  0
 13 14  3  0  0  0  0
 14  6  1  0  0  0  0
 15 16  1  0  0  0  0
 15 50  1  0  0  0  0
 15 51  1  0  0  0  0
 15 52  1  0  0  0  0
 16 17  1  0  0  0  0
 16 18  1  0  0  0  0
 16 13  1  0  0  0  0
 17 53  1  0  0  0  0
 17 54  1  0  0  0  0
 17 55  1  0  0  0  0
 18 19  1  0  0  0  0
 20 21  2  0  0  0  0
 21 22  1  0  0  0  0
 22 25  1  0  0  0  0
 22 23  2  0  0  0  0
 23 24  1  0  0  0  0
 23 56  1  0  0  0  0
 24 20  1  0  0  0  0
 25 26  2  0  0  0  0
 25 27  1  0  0  0  0
 27 28  1  0  0  0  0
 29 30  1  0  0  0  0
 29 57  1  0  0  0  0
 29 58  1  0  0  0  0
 30 31  1  0  0  0  0
 30 59  1  0  0  0  0
 31 32  1  0  0  0  0
 31 60  1  0  0  0  0
 31 61  1  0  0  0  0
 32 30  1  0  0  0  0
 32 62  1  0  0  0  0
 32 63  1  0  0  0  0
 33 34  1  0  0  0  0
 33 64  1  0  0  0  0
 33 65  1  0  0  0  0
 34 35  2  0  0  0  0
 35 36  1  0  0  0  0
 35 66  1  0  0  0  0
 36 37  2  0  0  0  0
 36 67  1  0  0  0  0
 37 41  1  0  0  0  0
 37 38  1  0  0  0  0
 38 39  1  0  0  0  0
 38 40  2  0  0  0  0
 40 34  1  0  0  0  0
 40 68  1  0  0  0  0
 41 42  1  0  0  0  0
 41 43  2  0  0  0  0
 41 44  2  0  0  0  0
 42 45  1  0  0  0  0
 42 46  1  0  0  0  0
M  END
>  <minimizedAffinity>
-7.44585

$$$$
