L1:P00338:69527
 OpenBabel09212617453D

 45 46  0  0  0  0  0  0  0  0999 V2000
  -12.7428  -14.0151  -53.6075 C   0  0  0  0  0  0  0  0  0  0  0  0
  -13.2610  -12.7131  -53.6067 C   0  0  0  0  0  0  0  0  0  0  0  0
  -13.5616  -12.4208  -52.3037 N   0  0  0  0  0  0  0  0  0  0  0  0
  -14.1881  -11.2591  -51.8521 O   0  0  0  0  0  0  0  0  0  0  0  0
  -13.2240  -13.4384  -51.4543 C   0  0  0  0  0  0  0  0  0  0  0  0
  -13.3577  -13.5178  -50.0581 C   0  0  0  0  0  0  0  0  0  0  0  0
  -12.9330  -14.6799  -49.4194 C   0  0  0  0  0  0  0  0  0  0  0  0
  -12.3938  -15.7287  -50.1537 C   0  0  0  0  0  0  0  0  0  0  0  0
  -12.2694  -15.6424  -51.5502 C   0  0  0  0  0  0  0  0  0  0  0  0
  -11.5163  -17.1450  -52.4284 Br  0  0  0  0  0  0  0  0  0  0  0  0
  -12.6950  -14.4723  -52.2333 C   0  0  0  0  0  0  0  0  0  0  0  0
  -13.6971  -10.5939  -52.3658 H   0  0  0  0  0  0  0  0  0  0  0  0
  -13.4610  -11.8260  -54.7301 C   0  0  0  0  0  0  0  0  0  0  0  0
  -12.5859  -11.4051  -55.4747 O   0  0  0  0  0  0  0  0  0  0  0  0
  -14.7758  -11.4674  -54.8219 O   0  0  0  0  0  0  0  0  0  0  0  0
  -15.6380  -12.5282  -55.2411 C   0  0  0  0  0  0  0  0  0  0  0  0
  -12.2977  -14.7844  -54.8195 C   0  0  0  0  0  0  0  0  0  0  0  0
  -10.9908  -14.3995  -55.2474 O   0  0  0  0  0  0  0  0  0  0  0  0
  -10.1827  -15.4720  -55.7211 C   0  0  0  0  0  0  0  0  0  0  0  0
   -8.7476  -15.4030  -55.1956 C   0  0  0  0  0  0  0  0  0  0  0  0
   -7.7549  -16.0999  -56.1309 C   0  0  0  0  0  0  0  0  0  0  0  0
   -7.6093  -15.4067  -57.4896 C   0  0  0  0  0  0  0  0  0  0  0  0
   -6.1772  -13.5790  -58.5505 C   0  0  0  0  0  0  0  0  0  0  0  0
   -7.1571  -13.9452  -57.4470 C   0  0  0  0  0  0  0  0  0  0  0  0
  -13.7604  -12.7349  -49.5196 H   0  0  0  0  0  0  0  0  0  0  0  0
  -13.0193  -14.7626  -48.3943 H   0  0  0  0  0  0  0  0  0  0  0  0
  -12.0804  -16.5828  -49.6666 H   0  0  0  0  0  0  0  0  0  0  0  0
  -16.6456  -12.1712  -55.2887 H   0  0  0  0  0  0  0  0  0  0  0  0
  -15.5780  -13.3346  -54.5404 H   0  0  0  0  0  0  0  0  0  0  0  0
  -15.3356  -12.8726  -56.2080 H   0  0  0  0  0  0  0  0  0  0  0  0
  -12.2903  -15.8279  -54.5828 H   0  0  0  0  0  0  0  0  0  0  0  0
  -12.9815  -14.5727  -55.6148 H   0  0  0  0  0  0  0  0  0  0  0  0
  -10.6196  -16.3961  -55.4047 H   0  0  0  0  0  0  0  0  0  0  0  0
  -10.1413  -15.4003  -56.7879 H   0  0  0  0  0  0  0  0  0  0  0  0
   -8.4656  -14.3755  -55.0976 H   0  0  0  0  0  0  0  0  0  0  0  0
   -8.7188  -15.9065  -54.2519 H   0  0  0  0  0  0  0  0  0  0  0  0
   -6.7966  -16.1186  -55.6553 H   0  0  0  0  0  0  0  0  0  0  0  0
   -8.1333  -17.0833  -56.3170 H   0  0  0  0  0  0  0  0  0  0  0  0
   -6.8918  -15.9557  -58.0630 H   0  0  0  0  0  0  0  0  0  0  0  0
   -8.5905  -15.3948  -57.9162 H   0  0  0  0  0  0  0  0  0  0  0  0
   -5.9060  -12.5480  -58.4590 H   0  0  0  0  0  0  0  0  0  0  0  0
   -6.6351  -13.7441  -59.5034 H   0  0  0  0  0  0  0  0  0  0  0  0
   -5.3009  -14.1872  -58.4657 H   0  0  0  0  0  0  0  0  0  0  0  0
   -8.0210  -13.3209  -57.5408 H   0  0  0  0  0  0  0  0  0  0  0  0
   -6.6498  -13.8006  -56.5161 H   0  0  0  0  0  0  0  0  0  0  0  0
  1  2  2  0  0  0  0
  2 13  1  0  0  0  0
  2  3  1  0  0  0  0
  3  4  1  0  0  0  0
  3  5  1  0  0  0  0
  4 12  1  0  0  0  0
  5  6  2  0  0  0  0
  6  7  1  0  0  0  0
  6 25  1  0  0  0  0
  7  8  2  0  0  0  0
  7 26  1  0  0  0  0
  8  9  1  0  0  0  0
  8 27  1  0  0  0  0
  9 10  1  0  0  0  0
  9 11  2  0  0  0  0
 11  1  1  0  0  0  0
 11  5  1  0  0  0  0
 13 14  2  0  0  0  0
 13 15  1  0  0  0  0
 15 16  1  0  0  0  0
 16 28  1  0  0  0  0
 16 29  1  0  0  0  0
 16 30  1  0  0  0  0
 17  1  1  0  0  0  0
 17 31  1  0  0  0  0
 17 32  1  0  0  0  0
 18 17  1  0  0  0  0
 19 18  1  0  0  0  0
 19 33  1  0  0  0  0
 19 34  1  0  0  0  0
 20 19  1  0  0  0  0
 20 35  1  0  0  0  0
 20 36  1  0  0  0  0
 21 20  1  0  0  0  0
 21 37  1  0  0  0  0
 21 38  1  0  0  0  0
 22 21  1  0  0  0  0
 22 39  1  0  0  0  0
 22 40  1  0  0  0  0
 23 24  1  0  0  0  0
 23 41  1  0  0  0  0
 23 42  1  0  0  0  0
 23 43  1  0  0  0  0
 24 22  1  0  0  0  0
 24 44  1  0  0  0  0
 24 45  1  0  0  0  0
M  END
>  <minimizedAffinity>
-5.93535

$$$$
