L1:P00338:69526


 46 51  0  0  0  0  0  0  0  0999 V2000
  -13.4350  -14.5202  -57.9503 C   0  0  0  0  0  0  0  0  0  0  0  0
  -14.2408  -13.6790  -57.1314 C   0  0  0  0  0  0  0  0  0  0  0  0
  -15.5103  -13.7002  -57.5333 N   0  0  0  0  0  0  0  0  0  0  0  0
  -15.5738  -14.5182  -58.6142 N   0  0  0  0  0  0  0  0  0  0  0  0
  -14.3230  -15.0862  -58.8692 C   0  0  0  0  0  0  0  0  0  0  0  0
  -13.8736  -12.8890  -55.9542 C   0  0  0  0  0  0  0  0  0  0  0  0
  -13.4711  -11.5518  -56.0616 C   0  0  0  0  0  0  0  0  0  0  0  0
  -13.1267  -10.8205  -54.9217 C   0  0  0  0  0  0  0  0  0  0  0  0
  -13.1884  -11.4179  -53.6628 C   0  0  0  0  0  0  0  0  0  0  0  0
  -13.6016  -12.7453  -53.5408 C   0  0  0  0  0  0  0  0  0  0  0  0
  -13.9462  -13.4756  -54.6809 C   0  0  0  0  0  0  0  0  0  0  0  0
  -13.6758  -13.3563  -52.2499 C   0  0  0  0  0  0  0  0  0  0  0  0
  -13.7359  -13.8659  -51.1636 C   0  0  0  0  0  0  0  0  0  0  0  0
  -13.8104  -14.4788  -49.8516 C   0  0  0  0  0  0  0  0  0  0  0  0
  -15.1982  -14.7678  -49.5534 O   0  0  0  0  0  0  0  0  0  0  0  0
  -13.0162  -13.7610  -48.7412 C   0  0  0  0  0  0  0  0  0  0  0  0
  -12.0585  -14.8437  -48.6414 O   0  0  0  0  0  0  0  0  0  0  0  0
  -12.8075  -15.6240  -49.6013 C   0  0  0  0  0  0  0  0  0  0  0  0
  -15.5066  -15.3058  -50.3022 H   0  0  0  0  0  0  0  0  0  0  0  0
  -16.8567  -14.6143  -59.2056 C   0  0  0  0  0  0  0  0  0  0  0  0
  -17.8060  -15.4062  -58.7407 N   0  0  0  0  0  0  0  0  0  0  0  0
  -18.9663  -15.2946  -59.5054 C   0  0  0  0  0  0  0  0  0  0  0  0
  -18.8549  -14.3933  -60.5499 C   0  0  0  0  0  0  0  0  0  0  0  0
  -17.2955  -13.6908  -60.5658 S   0  0  0  0  0  0  0  0  0  0  0  0
  -20.1648  -16.0717  -59.2006 C   0  0  0  0  0  0  0  0  0  0  0  0
  -21.3172  -15.6625  -59.1979 O   0  0  0  0  0  0  0  0  0  0  0  0
  -19.9286  -17.3724  -58.8938 O   0  0  0  0  0  0  0  0  0  0  0  0
  -20.8338  -17.7100  -58.7273 H   0  0  0  0  0  0  0  0  0  0  0  0
  -11.9766  -14.8120  -57.7783 C   0  0  0  0  0  0  0  0  0  0  0  0
  -11.3677  -17.5695  -54.4988 C   0  0  0  0  0  0  0  0  0  0  0  0
  -11.2735  -16.1922  -54.2928 C   0  0  0  0  0  0  0  0  0  0  0  0
  -11.4830  -15.3197  -55.3649 C   0  0  0  0  0  0  0  0  0  0  0  0
  -11.8000  -15.8066  -56.6471 C   0  0  0  0  0  0  0  0  0  0  0  0
  -11.8680  -17.1988  -56.8292 C   0  0  0  0  0  0  0  0  0  0  0  0
  -11.6581  -18.0682  -55.7592 C   0  0  0  0  0  0  0  0  0  0  0  0
  -11.7522  -19.3863  -55.9804 F   0  0  0  0  0  0  0  0  0  0  0  0
  -10.7789  -17.6787  -51.8764 N   0  0  0  0  0  0  0  0  0  0  0  0
  -11.0911  -18.6899  -53.1796 S   0  0  0  0  0  0  0  0  0  0  0  0
  -12.3147  -19.3952  -52.8852 O   0  0  0  0  0  0  0  0  0  0  0  0
   -9.8453  -19.3858  -53.4145 O   0  0  0  0  0  0  0  0  0  0  0  0
   -9.8458  -17.8639  -51.5082 H   0  0  0  0  0  0  0  0  0  0  0  0
  -11.5248  -17.7687  -51.1847 H   0  0  0  0  0  0  0  0  0  0  0  0
  -14.0282  -16.1264  -59.9068 C   0  0  0  0  0  0  0  0  0  0  0  0
  -14.3412  -17.5334  -59.4730 C   0  0  0  0  0  0  0  0  0  0  0  0
  -15.6600  -18.1583  -59.8513 C   0  0  0  0  0  0  0  0  0  0  0  0
  -14.3876  -18.6581  -60.4768 C   0  0  0  0  0  0  0  0  0  0  0  0
 37 38  1  0  0  0
 38 39  2  0  0  0
 38 40  2  0  0  0
 38 30  1  0  0  0
 30 31  2  0  0  0
 31 32  1  0  0  0
 32 33  2  0  0  0
 33 29  1  0  0  0
 29  1  1  0  0  0
  1  2  1  0  0  0
  2  6  1  0  0  0
  6  7  2  0  0  0
  7  8  1  0  0  0
  8  9  2  0  0  0
  9 10  1  0  0  0
 10 12  1  0  0  0
 12 13  3  0  0  0
 13 14  1  0  0  0
 14 15  1  0  0  0
 14 16  1  0  0  0
 16 17  1  0  0  0
 17 18  1  0  0  0
 10 11  2  0  0  0
  2  3  2  0  0  0
  3  4  1  0  0  0
  4 20  1  0  0  0
 20 21  2  0  0  0
 21 22  1  0  0  0
 22 25  1  0  0  0
 25 26  2  0  0  0
 25 27  1  0  0  0
 22 23  2  0  0  0
 23 24  1  0  0  0
  4  5  1  0  0  0
  5 43  1  0  0  0
 43 44  1  0  0  0
 44 45  1  0  0  0
 45 46  1  0  0  0
 33 34  1  0  0  0
 34 35  2  0  0  0
 35 36  1  0  0  0
 35 30  1  0  0  0
  5  1  2  0  0  0
 46 44  1  0  0  0
 11  6  1  0  0  0
 24 20  1  0  0  0
 18 14  1  0  0  0
 37 41  1  0  0  0
 37 42  1  0  0  0
 15 19  1  0  0  0
 27 28  1  0  0  0
M  END
> <minimizedAffinity>
-7.55110

$$$$
