L1:P00338:69525
     RDKit          3D

 68 72  0  0  0  0  0  0  0  0999 V2000
    6.6386    2.4530    0.6050 C   0  0  0  0  0  0  0  0  0  0  0  0
    6.1613    1.0833    1.0810 C   0  0  0  0  0  0  0  0  0  0  0  0
    5.6927    1.1505    2.5335 C   0  0  0  0  0  0  0  0  0  0  0  0
    7.2711    0.1901    1.0104 O   0  0  0  0  0  0  0  0  0  0  0  0
    5.0840    0.5820    0.2136 C   0  0  0  0  0  0  0  0  0  0  0  0
    4.1985    0.1749   -0.4888 C   0  0  0  0  0  0  0  0  0  0  0  0
    3.1337   -0.2949   -1.3187 C   0  0  0  0  0  0  0  0  0  0  0  0
    3.3214   -0.4178   -2.6976 C   0  0  0  0  0  0  0  0  0  0  0  0
    2.2752   -0.8576   -3.5112 C   0  0  0  0  0  0  0  0  0  0  0  0
    1.0357   -1.1646   -2.9479 C   0  0  0  0  0  0  0  0  0  0  0  0
    0.8429   -1.0366   -1.5674 C   0  0  0  0  0  0  0  0  0  0  0  0
   -0.4595   -1.3053   -0.9779 C   0  0  0  0  0  0  0  0  0  0  0  0
   -0.6484   -2.3907   -0.2260 N   0  0  0  0  0  0  0  0  0  0  0  0
   -1.9496   -2.3511    0.1575 N   0  0  0  0  0  0  0  0  0  0  0  0
   -2.4536   -3.3916    0.9618 C   0  0  0  0  0  0  0  0  0  0  0  0
   -3.6957   -3.4505    1.3936 N   0  0  0  0  0  0  0  0  0  0  0  0
   -3.8837   -4.6020    2.1619 C   0  0  0  0  0  0  0  0  0  0  0  0
   -5.1789   -4.9120    2.7619 C   0  0  0  0  0  0  0  0  0  0  0  0
   -6.1951   -4.2378    2.6670 O   0  0  0  0  0  0  0  0  0  0  0  0
   -5.2090   -6.0614    3.4799 O   0  0  0  0  0  0  0  0  0  0  0  0
   -2.7475   -5.3851    2.2851 C   0  0  0  0  0  0  0  0  0  0  0  0
   -1.4364   -4.6801    1.4355 S   0  0  0  0  0  0  0  0  0  0  0  0
   -2.5895   -1.2217   -0.3409 C   0  0  0  0  0  0  0  0  0  0  0  0
   -4.0336   -0.9082   -0.0909 C   0  0  0  0  0  0  0  0  0  0  0  0
   -4.9841   -1.6242   -1.0094 C   0  0  0  0  0  0  0  0  0  0  0  0
   -6.3236   -1.0147   -1.3365 C   0  0  0  0  0  0  0  0  0  0  0  0
   -5.2642   -1.1113   -2.3994 C   0  0  0  0  0  0  0  0  0  0  0  0
   -1.6382   -0.5118   -1.0663 C   0  0  0  0  0  0  0  0  0  0  0  0
   -1.8136    0.7842   -1.7930 C   0  0  0  0  0  0  0  0  0  0  0  0
   -1.0337    1.8270   -1.0235 C   0  0  0  0  0  0  0  0  0  0  0  0
   -1.4473    2.2553    0.2499 C   0  0  0  0  0  0  0  0  0  0  0  0
   -0.7072    3.2055    0.9590 C   0  0  0  0  0  0  0  0  0  0  0  0
    0.4530    3.7387    0.3921 C   0  0  0  0  0  0  0  0  0  0  0  0
    1.3958    4.9389    1.2527 S   0  0  0  0  0  6  0  0  0  0  0  0
    2.8805    4.1836    1.4678 N   0  0  0  0  0  0  0  0  0  0  0  0
    0.8603    5.0844    2.5883 O   0  0  0  0  0  0  0  0  0  0  0  0
    1.6231    6.0779    0.3963 O   0  0  0  0  0  0  0  0  0  0  0  0
    0.8619    3.3398   -0.8713 C   0  0  0  0  0  0  0  0  0  0  0  0
    1.9713    3.8385   -1.4337 F   0  0  0  0  0  0  0  0  0  0  0  0
    0.1245    2.3943   -1.5807 C   0  0  0  0  0  0  0  0  0  0  0  0
    1.8989   -0.6135   -0.7515 C   0  0  0  0  0  0  0  0  0  0  0  0
    5.8351    3.1972    0.6324 H   0  0  0  0  0  0  0  0  0  0  0  0
    7.4684    2.8149    1.2230 H   0  0  0  0  0  0  0  0  0  0  0  0
    7.0173    2.4015   -0.4231 H   0  0  0  0  0  0  0  0  0  0  0  0
    6.5045    1.4823    3.1910 H   0  0  0  0  0  0  0  0  0  0  0  0
    4.8445    1.8330    2.6566 H   0  0  0  0  0  0  0  0  0  0  0  0
    5.3859    0.1612    2.8942 H   0  0  0  0  0  0  0  0  0  0  0  0
    6.9211   -0.7074    1.1453 H   0  0  0  0  0  0  0  0  0  0  0  0
    4.2827   -0.1731   -3.1441 H   0  0  0  0  0  0  0  0  0  0  0  0
    2.4273   -0.9599   -4.5827 H   0  0  0  0  0  0  0  0  0  0  0  0
    0.2255   -1.5081   -3.5867 H   0  0  0  0  0  0  0  0  0  0  0  0
   -6.1372   -6.0934    3.7926 H   0  0  0  0  0  0  0  0  0  0  0  0
   -2.6297   -6.3165    2.8216 H   0  0  0  0  0  0  0  0  0  0  0  0
   -4.3006   -1.1201    0.9500 H   0  0  0  0  0  0  0  0  0  0  0  0
   -4.1789    0.1752   -0.1905 H   0  0  0  0  0  0  0  0  0  0  0  0
   -4.9638   -2.6990   -0.8613 H   0  0  0  0  0  0  0  0  0  0  0  0
   -6.5619   -0.0335   -0.9421 H   0  0  0  0  0  0  0  0  0  0  0  0
   -7.1766   -1.6810   -1.4039 H   0  0  0  0  0  0  0  0  0  0  0  0
   -5.4017   -1.8427   -3.1880 H   0  0  0  0  0  0  0  0  0  0  0  0
   -4.7956   -0.1917   -2.7274 H   0  0  0  0  0  0  0  0  0  0  0  0
   -1.4513    0.6953   -2.8235 H   0  0  0  0  0  0  0  0  0  0  0  0
   -2.8630    1.0892   -1.8544 H   0  0  0  0  0  0  0  0  0  0  0  0
   -2.3469    1.8418    0.7030 H   0  0  0  0  0  0  0  0  0  0  0  0
   -1.0412    3.5194    1.9459 H   0  0  0  0  0  0  0  0  0  0  0  0
    3.0843    4.1036    2.4637 H   0  0  0  0  0  0  0  0  0  0  0  0
    3.5946    4.6769    0.9302 H   0  0  0  0  0  0  0  0  0  0  0  0
    0.4776    2.0947   -2.5645 H   0  0  0  0  0  0  0  0  0  0  0  0
    1.7474   -0.5172    0.3214 H   0  0  0  0  0  0  0  0  0  0  0  0
  1  2  1  0
  2  3  1  0
  2  4  1  0
  2  5  1  0
  5  6  3  0
  6  7  1  0
  7  8  2  0
  8  9  1  0
  9 10  2  0
 10 11  1  0
 11 12  1  0
 12 13  2  0
 13 14  1  0
 14 15  1  0
 15 16  2  0
 16 17  1  0
 17 18  1  0
 18 19  2  0
 18 20  1  0
 17 21  2  0
 21 22  1  0
 14 23  1  0
 23 24  1  0
 24 25  1  0
 25 26  1  0
 26 27  1  0
 23 28  2  0
 28 29  1  0
 29 30  1  0
 30 31  2  0
 31 32  1  0
 32 33  2  0
 33 34  1  0
 34 35  1  0
 34 36  2  0
 34 37  2  0
 33 38  1  0
 38 39  1  0
 38 40  2  0
 11 41  2  0
 41  7  1  0
 28 12  1  0
 40 30  1  0
 22 15  1  0
 27 25  1  0
  1 42  1  0
  1 43  1  0
  1 44  1  0
  3 45  1  0
  3 46  1  0
  3 47  1  0
  4 48  1  0
  8 49  1  0
  9 50  1  0
 10 51  1  0
 20 52  1  0
 21 53  1  0
 24 54  1  0
 24 55  1  0
 25 56  1  0
 26 57  1  0
 26 58  1  0
 27 59  1  0
 27 60  1  0
 29 61  1  0
 29 62  1  0
 31 63  1  0
 32 64  1  0
 35 65  1  0
 35 66  1  0
 40 67  1  0
 41 68  1  0
M  END
>  <mol_id>  (1) 
69525

>  <source_index>  (1) 
7

>  <layer>  (1) 
L1

>  <uniprot>  (1) 
P00338

>  <paff>  (1) 
9

>  <smiles>  (1) 
CC(C)(O)C#Cc1cccc(-c2nn(-c3nc(C(=O)O)cs3)c(CC3CC3)c2Cc2ccc(S(N)(=O)=O)c(F)c2)c1

$$$$
