L1:P00338:69524


 47 52  0  0  0  0  0  0  0  0999 V2000
  -11.0351  -15.1627  -57.7783 C   0  0  0  0  0  0  0  0  0  0  0  0
  -10.2790  -15.9869  -56.8889 C   0  0  0  0  0  0  0  0  0  0  0  0
   -8.9790  -15.9617  -57.1966 N   0  0  0  0  0  0  0  0  0  0  0  0
   -8.8598  -15.1488  -58.2738 N   0  0  0  0  0  0  0  0  0  0  0  0
  -10.0887  -14.6180  -58.6426 C   0  0  0  0  0  0  0  0  0  0  0  0
  -10.7273  -16.7729  -55.7366 C   0  0  0  0  0  0  0  0  0  0  0  0
  -10.9342  -18.1554  -55.8781 C   0  0  0  0  0  0  0  0  0  0  0  0
  -11.3630  -18.9257  -54.7947 C   0  0  0  0  0  0  0  0  0  0  0  0
  -11.5928  -18.3162  -53.5658 C   0  0  0  0  0  0  0  0  0  0  0  0
  -12.0013  -19.0741  -52.5369 F   0  0  0  0  0  0  0  0  0  0  0  0
  -11.4055  -16.9440  -53.4068 C   0  0  0  0  0  0  0  0  0  0  0  0
  -10.9782  -16.1736  -54.4947 C   0  0  0  0  0  0  0  0  0  0  0  0
  -11.6431  -16.3095  -52.1478 C   0  0  0  0  0  0  0  0  0  0  0  0
  -11.8494  -15.7517  -51.1041 C   0  0  0  0  0  0  0  0  0  0  0  0
  -12.1015  -15.0661  -49.8558 C   0  0  0  0  0  0  0  0  0  0  0  0
  -11.1330  -15.5358  -48.8939 O   0  0  0  0  0  0  0  0  0  0  0  0
  -13.5829  -15.0857  -49.3869 C   0  0  0  0  0  0  0  0  0  0  0  0
  -13.4255  -13.6051  -48.9935 C   0  0  0  0  0  0  0  0  0  0  0  0
  -12.2416  -13.5229  -49.9751 C   0  0  0  0  0  0  0  0  0  0  0  0
  -11.3197  -15.0456  -48.0768 H   0  0  0  0  0  0  0  0  0  0  0  0
   -7.5850  -14.9481  -58.8385 C   0  0  0  0  0  0  0  0  0  0  0  0
   -7.0939  -15.6768  -59.8186 N   0  0  0  0  0  0  0  0  0  0  0  0
   -5.8094  -15.2356  -60.1444 C   0  0  0  0  0  0  0  0  0  0  0  0
   -5.3719  -14.1634  -59.3849 C   0  0  0  0  0  0  0  0  0  0  0  0
   -6.5724  -13.7028  -58.2518 S   0  0  0  0  0  0  0  0  0  0  0  0
   -5.0070  -15.8559  -61.1937 C   0  0  0  0  0  0  0  0  0  0  0  0
   -4.3116  -16.8536  -61.0565 O   0  0  0  0  0  0  0  0  0  0  0  0
   -5.0716  -15.2384  -62.3962 O   0  0  0  0  0  0  0  0  0  0  0  0
   -4.4886  -15.7789  -62.9648 H   0  0  0  0  0  0  0  0  0  0  0  0
  -12.5021  -14.8750  -57.7271 C   0  0  0  0  0  0  0  0  0  0  0  0
  -13.2725  -11.3818  -55.2908 C   0  0  0  0  0  0  0  0  0  0  0  0
  -13.2949  -11.2506  -56.6793 C   0  0  0  0  0  0  0  0  0  0  0  0
  -13.0381  -12.3663  -57.4829 C   0  0  0  0  0  0  0  0  0  0  0  0
  -12.7422  -13.6184  -56.9135 C   0  0  0  0  0  0  0  0  0  0  0  0
  -12.7507  -13.7254  -55.5112 C   0  0  0  0  0  0  0  0  0  0  0  0
  -13.0073  -12.6127  -54.7122 C   0  0  0  0  0  0  0  0  0  0  0  0
  -12.9521  -12.7541  -53.3809 F   0  0  0  0  0  0  0  0  0  0  0  0
  -15.0040  -10.4213  -53.4494 N   0  0  0  0  0  0  0  0  0  0  0  0
  -13.5868   -9.9962  -54.2572 S   0  0  0  0  0  0  0  0  0  0  0  0
  -12.5460   -9.9332  -53.2566 O   0  0  0  0  0  0  0  0  0  0  0  0
  -13.9150   -8.8673  -55.0952 O   0  0  0  0  0  0  0  0  0  0  0  0
  -15.7474   -9.7872  -53.7508 H   0  0  0  0  0  0  0  0  0  0  0  0
  -15.2716  -11.3958  -53.5776 H   0  0  0  0  0  0  0  0  0  0  0  0
  -10.2534  -13.6332  -59.7621 C   0  0  0  0  0  0  0  0  0  0  0  0
  -10.0213  -12.1951  -59.3795 C   0  0  0  0  0  0  0  0  0  0  0  0
  -10.4283  -11.1056  -60.3416 C   0  0  0  0  0  0  0  0  0  0  0  0
   -8.9742  -11.3560  -60.0706 C   0  0  0  0  0  0  0  0  0  0  0  0
 38 39  1  0  0  0
 39 40  2  0  0  0
 39 41  2  0  0  0
 39 31  1  0  0  0
 31 32  2  0  0  0
 32 33  1  0  0  0
 33 34  2  0  0  0
 34 30  1  0  0  0
 30  1  1  0  0  0
  1  2  1  0  0  0
  2  6  1  0  0  0
  6  7  2  0  0  0
  7  8  1  0  0  0
  8  9  2  0  0  0
  9 10  1  0  0  0
  9 11  1  0  0  0
 11 13  1  0  0  0
 13 14  3  0  0  0
 14 15  1  0  0  0
 15 16  1  0  0  0
 15 17  1  0  0  0
 17 18  1  0  0  0
 18 19  1  0  0  0
 11 12  2  0  0  0
  2  3  2  0  0  0
  3  4  1  0  0  0
  4 21  1  0  0  0
 21 22  2  0  0  0
 22 23  1  0  0  0
 23 26  1  0  0  0
 26 27  2  0  0  0
 26 28  1  0  0  0
 23 24  2  0  0  0
 24 25  1  0  0  0
  4  5  1  0  0  0
  5 44  1  0  0  0
 44 45  1  0  0  0
 45 46  1  0  0  0
 46 47  1  0  0  0
 34 35  1  0  0  0
 35 36  2  0  0  0
 36 37  1  0  0  0
 36 31  1  0  0  0
  5  1  2  0  0  0
 47 45  1  0  0  0
 12  6  1  0  0  0
 25 21  1  0  0  0
 19 15  1  0  0  0
 38 42  1  0  0  0
 38 43  1  0  0  0
 16 20  1  0  0  0
 28 29  1  0  0  0
M  END
> <minimizedAffinity>
-7.53697

$$$$
