L1:P00338:69525


 45 49  0  0  0  0  0  0  0  0999 V2000
  -10.4510  -16.0443  -56.3943 C   0  0  0  0  0  0  0  0  0  0  0  0
   -9.1644  -16.0058  -56.7441 N   0  0  0  0  0  0  0  0  0  0  0  0
   -9.1105  -15.2450  -57.8666 N   0  0  0  0  0  0  0  0  0  0  0  0
  -10.3762  -14.8099  -58.2437 C   0  0  0  0  0  0  0  0  0  0  0  0
  -11.2707  -15.3325  -57.3153 C   0  0  0  0  0  0  0  0  0  0  0  0
  -11.6108  -16.7807  -52.9071 C   0  0  0  0  0  0  0  0  0  0  0  0
  -11.5789  -18.1774  -52.8989 C   0  0  0  0  0  0  0  0  0  0  0  0
  -11.2015  -18.8769  -54.0470 C   0  0  0  0  0  0  0  0  0  0  0  0
  -10.8446  -18.1798  -55.2023 C   0  0  0  0  0  0  0  0  0  0  0  0
  -10.8698  -16.7803  -55.2116 C   0  0  0  0  0  0  0  0  0  0  0  0
  -11.2666  -16.0818  -54.0651 C   0  0  0  0  0  0  0  0  0  0  0  0
  -12.2774  -15.4496  -50.7381 C   0  0  0  0  0  0  0  0  0  0  0  0
  -11.9773  -16.0645  -51.7255 C   0  0  0  0  0  0  0  0  0  0  0  0
  -12.0728  -13.2745  -49.5989 C   0  0  0  0  0  0  0  0  0  0  0  0
  -12.6463  -14.6879  -49.5348 C   0  0  0  0  0  0  0  0  0  0  0  0
  -14.1646  -14.6467  -49.3707 C   0  0  0  0  0  0  0  0  0  0  0  0
  -12.0901  -15.3286  -48.3882 O   0  0  0  0  0  0  0  0  0  0  0  0
  -12.3199  -16.2716  -48.4517 H   0  0  0  0  0  0  0  0  0  0  0  0
   -7.8596  -15.0097  -58.4694 C   0  0  0  0  0  0  0  0  0  0  0  0
   -7.3159  -15.8038  -59.3675 N   0  0  0  0  0  0  0  0  0  0  0  0
   -6.0792  -15.2960  -59.7728 C   0  0  0  0  0  0  0  0  0  0  0  0
   -5.7281  -14.1106  -59.1475 C   0  0  0  0  0  0  0  0  0  0  0  0
   -6.9500  -13.6263  -58.0474 S   0  0  0  0  0  0  0  0  0  0  0  0
   -5.2639  -15.9863  -60.7689 C   0  0  0  0  0  0  0  0  0  0  0  0
   -5.6159  -16.2912  -61.9000 O   0  0  0  0  0  0  0  0  0  0  0  0
   -4.0104  -16.2970  -60.3570 O   0  0  0  0  0  0  0  0  0  0  0  0
   -3.6317  -16.7427  -61.1433 H   0  0  0  0  0  0  0  0  0  0  0  0
  -10.6338  -13.9457  -59.4408 C   0  0  0  0  0  0  0  0  0  0  0  0
  -10.4564  -12.4751  -59.1847 C   0  0  0  0  0  0  0  0  0  0  0  0
   -9.7334  -11.6142  -60.1891 C   0  0  0  0  0  0  0  0  0  0  0  0
  -11.2135  -11.4451  -59.9843 C   0  0  0  0  0  0  0  0  0  0  0  0
  -12.7576  -15.1707  -57.2777 C   0  0  0  0  0  0  0  0  0  0  0  0
  -13.0519  -14.0503  -56.3052 C   0  0  0  0  0  0  0  0  0  0  0  0
  -13.4412  -14.3167  -54.9810 C   0  0  0  0  0  0  0  0  0  0  0  0
  -13.6917  -13.2724  -54.0864 C   0  0  0  0  0  0  0  0  0  0  0  0
  -13.5588  -11.9498  -54.5164 C   0  0  0  0  0  0  0  0  0  0  0  0
  -13.1946  -11.6724  -55.8251 C   0  0  0  0  0  0  0  0  0  0  0  0
  -13.0615  -10.4113  -56.2583 F   0  0  0  0  0  0  0  0  0  0  0  0
  -12.9464  -12.7118  -56.7190 C   0  0  0  0  0  0  0  0  0  0  0  0
  -13.8759  -10.6198  -53.4207 S   0  0  0  0  0  0  0  0  0  0  0  0
  -14.1901  -11.3876  -51.9603 N   0  0  0  0  0  0  0  0  0  0  0  0
  -15.1303  -10.0005  -53.7879 O   0  0  0  0  0  0  0  0  0  0  0  0
  -12.6708   -9.8470  -53.2393 O   0  0  0  0  0  0  0  0  0  0  0  0
  -15.1315  -11.1550  -51.6453 H   0  0  0  0  0  0  0  0  0  0  0  0
  -13.4538  -11.1602  -51.2907 H   0  0  0  0  0  0  0  0  0  0  0  0
 14 15  1  0  0  0
 15 16  1  0  0  0
 15 17  1  0  0  0
 15 12  1  0  0  0
 12 13  3  0  0  0
 13  6  1  0  0  0
  6  7  2  0  0  0
  7  8  1  0  0  0
  8  9  2  0  0  0
  9 10  1  0  0  0
 10  1  1  0  0  0
  1  2  2  0  0  0
  2  3  1  0  0  0
  3 19  1  0  0  0
 19 20  2  0  0  0
 20 21  1  0  0  0
 21 24  1  0  0  0
 24 25  2  0  0  0
 24 26  1  0  0  0
 21 22  2  0  0  0
 22 23  1  0  0  0
  3  4  1  0  0  0
  4 28  1  0  0  0
 28 29  1  0  0  0
 29 30  1  0  0  0
 30 31  1  0  0  0
  4  5  2  0  0  0
  5 32  1  0  0  0
 32 33  1  0  0  0
 33 34  2  0  0  0
 34 35  1  0  0  0
 35 36  2  0  0  0
 36 40  1  0  0  0
 40 41  1  0  0  0
 40 42  2  0  0  0
 40 43  2  0  0  0
 36 37  1  0  0  0
 37 38  1  0  0  0
 37 39  2  0  0  0
 10 11  2  0  0  0
 11  6  1  0  0  0
  5  1  1  0  0  0
 39 33  1  0  0  0
 23 19  1  0  0  0
 31 29  1  0  0  0
 17 18  1  0  0  0
 26 27  1  0  0  0
 41 44  1  0  0  0
 41 45  1  0  0  0
M  END
> <minimizedAffinity>
-7.09597

$$$$
