L1:P00338:69527
     RDKit          3D

 45 46  0  0  0  0  0  0  0  0999 V2000
    5.6584    1.8258    0.5032 C   0  0  0  0  0  0  0  0  0  0  0  0
    5.0316    1.6512   -0.8711 C   0  0  0  0  0  0  0  0  0  0  0  0
    4.4580    0.2524   -1.1094 C   0  0  0  0  0  0  0  0  0  0  0  0
    3.3631   -0.1946   -0.1352 C   0  0  0  0  0  0  0  0  0  0  0  0
    2.1261    0.7084   -0.1542 C   0  0  0  0  0  0  0  0  0  0  0  0
    1.0247    0.1991    0.7775 C   0  0  0  0  0  0  0  0  0  0  0  0
    0.6179   -1.1300    0.4681 O   0  0  0  0  0  0  0  0  0  0  0  0
   -0.2867   -1.2335   -0.6321 C   0  0  0  0  0  0  0  0  0  0  0  0
   -1.7188   -1.0911   -0.1990 C   0  0  0  0  0  0  0  0  0  0  0  0
   -2.5258    0.0383   -0.3913 C   0  0  0  0  0  0  0  0  0  0  0  0
   -2.1757    1.2968   -1.0098 C   0  0  0  0  0  0  0  0  0  0  0  0
   -1.1915    1.5026   -1.7071 O   0  0  0  0  0  0  0  0  0  0  0  0
   -3.0777    2.2620   -0.6625 O   0  0  0  0  0  0  0  0  0  0  0  0
   -2.7974    3.5465   -1.2245 C   0  0  0  0  0  0  0  0  0  0  0  0
   -3.7541   -0.2756    0.1250 N   0  0  0  0  0  0  0  0  0  0  0  0
   -4.8934    0.5270    0.0648 O   0  0  0  0  0  0  0  0  0  0  0  0
   -3.7765   -1.5240    0.6836 C   0  0  0  0  0  0  0  0  0  0  0  0
   -4.8312   -2.1983    1.3212 C   0  0  0  0  0  0  0  0  0  0  0  0
   -4.5949   -3.4802    1.8106 C   0  0  0  0  0  0  0  0  0  0  0  0
   -3.3450   -4.0689    1.6652 C   0  0  0  0  0  0  0  0  0  0  0  0
   -2.2981   -3.3891    1.0210 C   0  0  0  0  0  0  0  0  0  0  0  0
   -0.6441   -4.3076    0.8917 Br  0  0  0  0  0  0  0  0  0  0  0  0
   -2.5059   -2.0811    0.5081 C   0  0  0  0  0  0  0  0  0  0  0  0
    6.4195    1.0611    0.6882 H   0  0  0  0  0  0  0  0  0  0  0  0
    6.1395    2.8066    0.5746 H   0  0  0  0  0  0  0  0  0  0  0  0
    4.9076    1.7674    1.2966 H   0  0  0  0  0  0  0  0  0  0  0  0
    5.7999    1.8410   -1.6306 H   0  0  0  0  0  0  0  0  0  0  0  0
    4.2580    2.4122   -1.0204 H   0  0  0  0  0  0  0  0  0  0  0  0
    5.2765   -0.4770   -1.0659 H   0  0  0  0  0  0  0  0  0  0  0  0
    4.0625    0.2092   -2.1320 H   0  0  0  0  0  0  0  0  0  0  0  0
    3.7657   -0.2514    0.8826 H   0  0  0  0  0  0  0  0  0  0  0  0
    3.0719   -1.2164   -0.4080 H   0  0  0  0  0  0  0  0  0  0  0  0
    2.3940    1.7236    0.1579 H   0  0  0  0  0  0  0  0  0  0  0  0
    1.7515    0.7741   -1.1812 H   0  0  0  0  0  0  0  0  0  0  0  0
    0.1672    0.8797    0.7754 H   0  0  0  0  0  0  0  0  0  0  0  0
    1.4083    0.1809    1.8037 H   0  0  0  0  0  0  0  0  0  0  0  0
   -0.0156   -0.5392   -1.4301 H   0  0  0  0  0  0  0  0  0  0  0  0
   -0.1490   -2.2241   -1.0770 H   0  0  0  0  0  0  0  0  0  0  0  0
   -3.5834    4.2347   -0.9017 H   0  0  0  0  0  0  0  0  0  0  0  0
   -1.8365    3.9222   -0.8593 H   0  0  0  0  0  0  0  0  0  0  0  0
   -2.8075    3.4979   -2.3179 H   0  0  0  0  0  0  0  0  0  0  0  0
   -4.5052    1.3866    0.3052 H   0  0  0  0  0  0  0  0  0  0  0  0
   -5.8069   -1.7315    1.4283 H   0  0  0  0  0  0  0  0  0  0  0  0
   -5.3947   -4.0227    2.3093 H   0  0  0  0  0  0  0  0  0  0  0  0
   -3.1862   -5.0707    2.0586 H   0  0  0  0  0  0  0  0  0  0  0  0
  1  2  1  0
  2  3  1  0
  3  4  1  0
  4  5  1  0
  5  6  1  0
  6  7  1  0
  7  8  1  0
  8  9  1  0
  9 10  2  0
 10 11  1  0
 11 12  2  0
 11 13  1  0
 13 14  1  0
 10 15  1  0
 15 16  1  0
 15 17  1  0
 17 18  2  0
 18 19  1  0
 19 20  2  0
 20 21  1  0
 21 22  1  0
 21 23  2  0
 23  9  1  0
 23 17  1  0
  1 24  1  0
  1 25  1  0
  1 26  1  0
  2 27  1  0
  2 28  1  0
  3 29  1  0
  3 30  1  0
  4 31  1  0
  4 32  1  0
  5 33  1  0
  5 34  1  0
  6 35  1  0
  6 36  1  0
  8 37  1  0
  8 38  1  0
 14 39  1  0
 14 40  1  0
 14 41  1  0
 16 42  1  0
 18 43  1  0
 19 44  1  0
 20 45  1  0
M  END
>  <mol_id>  (1) 
69527

>  <source_index>  (1) 
9

>  <layer>  (1) 
L1

>  <uniprot>  (1) 
P00338

>  <paff>  (1) 
7.6021000000000001

>  <smiles>  (1) 
CCCCCCOCc1c(C(=O)OC)n(O)c2cccc(Br)c12

$$$$
