L1:P00338:69527


 24 25  0  0  0  0  0  0  0  0999 V2000
  -12.7428  -14.0151  -53.6075 C   0  0  0  0  0  0  0  0  0  0  0  0
  -13.2610  -12.7131  -53.6067 C   0  0  0  0  0  0  0  0  0  0  0  0
  -13.5616  -12.4208  -52.3037 N   0  0  0  0  0  0  0  0  0  0  0  0
  -14.1881  -11.2591  -51.8521 O   0  0  0  0  0  0  0  0  0  0  0  0
  -13.2240  -13.4384  -51.4543 C   0  0  0  0  0  0  0  0  0  0  0  0
  -13.3577  -13.5178  -50.0581 C   0  0  0  0  0  0  0  0  0  0  0  0
  -12.9330  -14.6799  -49.4194 C   0  0  0  0  0  0  0  0  0  0  0  0
  -12.3938  -15.7287  -50.1537 C   0  0  0  0  0  0  0  0  0  0  0  0
  -12.2694  -15.6424  -51.5502 C   0  0  0  0  0  0  0  0  0  0  0  0
  -11.5163  -17.1450  -52.4284 Br  0  0  0  0  0  0  0  0  0  0  0  0
  -12.6950  -14.4723  -52.2333 C   0  0  0  0  0  0  0  0  0  0  0  0
  -13.6971  -10.5939  -52.3658 H   0  0  0  0  0  0  0  0  0  0  0  0
  -13.4610  -11.8260  -54.7301 C   0  0  0  0  0  0  0  0  0  0  0  0
  -12.5859  -11.4051  -55.4747 O   0  0  0  0  0  0  0  0  0  0  0  0
  -14.7758  -11.4674  -54.8219 O   0  0  0  0  0  0  0  0  0  0  0  0
  -15.6380  -12.5282  -55.2411 C   0  0  0  0  0  0  0  0  0  0  0  0
  -12.2977  -14.7844  -54.8195 C   0  0  0  0  0  0  0  0  0  0  0  0
  -10.9908  -14.3995  -55.2474 O   0  0  0  0  0  0  0  0  0  0  0  0
  -10.1827  -15.4720  -55.7211 C   0  0  0  0  0  0  0  0  0  0  0  0
   -8.7476  -15.4030  -55.1956 C   0  0  0  0  0  0  0  0  0  0  0  0
   -7.7549  -16.0999  -56.1309 C   0  0  0  0  0  0  0  0  0  0  0  0
   -7.6093  -15.4067  -57.4896 C   0  0  0  0  0  0  0  0  0  0  0  0
   -6.1772  -13.5790  -58.5505 C   0  0  0  0  0  0  0  0  0  0  0  0
   -7.1571  -13.9452  -57.4470 C   0  0  0  0  0  0  0  0  0  0  0  0
 23 24  1  0  0  0
 24 22  1  0  0  0
 22 21  1  0  0  0
 21 20  1  0  0  0
 20 19  1  0  0  0
 19 18  1  0  0  0
 18 17  1  0  0  0
 17  1  1  0  0  0
  1  2  2  0  0  0
  2 13  1  0  0  0
 13 14  2  0  0  0
 13 15  1  0  0  0
 15 16  1  0  0  0
  2  3  1  0  0  0
  3  4  1  0  0  0
  3  5  1  0  0  0
  5  6  2  0  0  0
  6  7  1  0  0  0
  7  8  2  0  0  0
  8  9  1  0  0  0
  9 10  1  0  0  0
  9 11  2  0  0  0
 11  1  1  0  0  0
 11  5  1  0  0  0
  4 12  1  0  0  0
M  END
> <minimizedAffinity>
-5.93535

$$$$
