L1:P00338:69524
     RDKit          3D

 69 74  0  0  0  0  0  0  0  0999 V2000
   -2.1010    5.8003   -1.3093 N   0  0  0  0  0  0  0  0  0  0  0  0
   -0.5128    5.3554   -0.9608 S   0  0  0  0  0  6  0  0  0  0  0  0
   -0.2927    5.6730    0.4317 O   0  0  0  0  0  0  0  0  0  0  0  0
    0.3081    5.9069   -2.0127 O   0  0  0  0  0  0  0  0  0  0  0  0
   -0.5303    3.6066   -1.1296 C   0  0  0  0  0  0  0  0  0  0  0  0
   -0.1456    2.7877   -0.0680 C   0  0  0  0  0  0  0  0  0  0  0  0
   -0.1707    1.3978   -0.2234 C   0  0  0  0  0  0  0  0  0  0  0  0
   -0.5926    0.8097   -1.4299 C   0  0  0  0  0  0  0  0  0  0  0  0
   -0.5976   -0.6859   -1.6782 C   0  0  0  0  0  0  0  0  0  0  0  0
   -1.0686   -1.3938   -0.4475 C   0  0  0  0  0  0  0  0  0  0  0  0
   -0.3241   -2.2919    0.3777 C   0  0  0  0  0  0  0  0  0  0  0  0
    1.0698   -2.7280    0.2617 C   0  0  0  0  0  0  0  0  0  0  0  0
    1.3829   -4.0918    0.3890 C   0  0  0  0  0  0  0  0  0  0  0  0
    2.7044   -4.5318    0.2840 C   0  0  0  0  0  0  0  0  0  0  0  0
    3.7202   -3.6093    0.0569 C   0  0  0  0  0  0  0  0  0  0  0  0
    4.9825   -4.0524   -0.0439 F   0  0  0  0  0  0  0  0  0  0  0  0
    3.4331   -2.2502   -0.0603 C   0  0  0  0  0  0  0  0  0  0  0  0
    4.4721   -1.2953   -0.2901 C   0  0  0  0  0  0  0  0  0  0  0  0
    5.3248   -0.4726   -0.4879 C   0  0  0  0  0  0  0  0  0  0  0  0
    6.3395    0.5294   -0.7288 C   0  0  0  0  0  0  0  0  0  0  0  0
    5.6772    1.7167   -1.2140 O   0  0  0  0  0  0  0  0  0  0  0  0
    7.5528    0.0423   -1.5687 C   0  0  0  0  0  0  0  0  0  0  0  0
    8.4690    0.8112   -0.5986 C   0  0  0  0  0  0  0  0  0  0  0  0
    7.3371    0.7435    0.4435 C   0  0  0  0  0  0  0  0  0  0  0  0
    2.1082   -1.8113    0.0479 C   0  0  0  0  0  0  0  0  0  0  0  0
   -1.0851   -2.7899    1.3566 N   0  0  0  0  0  0  0  0  0  0  0  0
   -2.3113   -2.2345    1.2037 N   0  0  0  0  0  0  0  0  0  0  0  0
   -3.3283   -2.5647    2.1207 C   0  0  0  0  0  0  0  0  0  0  0  0
   -4.5540   -2.0886    2.0596 N   0  0  0  0  0  0  0  0  0  0  0  0
   -5.3166   -2.5962    3.1139 C   0  0  0  0  0  0  0  0  0  0  0  0
   -6.7183   -2.2423    3.3127 C   0  0  0  0  0  0  0  0  0  0  0  0
   -7.4319   -2.6575    4.2161 O   0  0  0  0  0  0  0  0  0  0  0  0
   -7.2213   -1.3832    2.3960 O   0  0  0  0  0  0  0  0  0  0  0  0
   -4.6240   -3.4595    3.9463 C   0  0  0  0  0  0  0  0  0  0  0  0
   -3.0057   -3.6379    3.4109 S   0  0  0  0  0  0  0  0  0  0  0  0
   -2.3507   -1.3979    0.0962 C   0  0  0  0  0  0  0  0  0  0  0  0
   -3.5966   -0.6961   -0.3569 C   0  0  0  0  0  0  0  0  0  0  0  0
   -3.9343    0.5541    0.4121 C   0  0  0  0  0  0  0  0  0  0  0  0
   -5.2566    1.2363    0.1585 C   0  0  0  0  0  0  0  0  0  0  0  0
   -3.9806    1.9040   -0.2614 C   0  0  0  0  0  0  0  0  0  0  0  0
   -0.9514    1.6612   -2.4902 C   0  0  0  0  0  0  0  0  0  0  0  0
   -0.9252    3.0458   -2.3336 C   0  0  0  0  0  0  0  0  0  0  0  0
   -1.3264    3.8134   -3.3560 F   0  0  0  0  0  0  0  0  0  0  0  0
   -2.0993    6.3419   -2.1766 H   0  0  0  0  0  0  0  0  0  0  0  0
   -2.7441    5.0122   -1.3642 H   0  0  0  0  0  0  0  0  0  0  0  0
    0.1772    3.2160    0.8795 H   0  0  0  0  0  0  0  0  0  0  0  0
    0.1365    0.7839    0.6216 H   0  0  0  0  0  0  0  0  0  0  0  0
    0.4024   -1.0017   -1.9887 H   0  0  0  0  0  0  0  0  0  0  0  0
   -1.2786   -0.9334   -2.5023 H   0  0  0  0  0  0  0  0  0  0  0  0
    0.5928   -4.8177    0.5752 H   0  0  0  0  0  0  0  0  0  0  0  0
    2.9463   -5.5854    0.3816 H   0  0  0  0  0  0  0  0  0  0  0  0
    6.3822    2.3706   -1.3489 H   0  0  0  0  0  0  0  0  0  0  0  0
    7.7163   -1.0423   -1.5610 H   0  0  0  0  0  0  0  0  0  0  0  0
    7.5869    0.3924   -2.6047 H   0  0  0  0  0  0  0  0  0  0  0  0
    9.3979    0.3057   -0.3228 H   0  0  0  0  0  0  0  0  0  0  0  0
    8.7029    1.8298   -0.9285 H   0  0  0  0  0  0  0  0  0  0  0  0
    7.1975    1.6581    1.0275 H   0  0  0  0  0  0  0  0  0  0  0  0
    7.4273   -0.1026    1.1357 H   0  0  0  0  0  0  0  0  0  0  0  0
    1.9025   -0.7472   -0.0237 H   0  0  0  0  0  0  0  0  0  0  0  0
   -8.1482   -1.2591    2.6802 H   0  0  0  0  0  0  0  0  0  0  0  0
   -4.9881   -3.9782    4.8228 H   0  0  0  0  0  0  0  0  0  0  0  0
   -4.4441   -1.3907   -0.3179 H   0  0  0  0  0  0  0  0  0  0  0  0
   -3.4947   -0.4504   -1.4218 H   0  0  0  0  0  0  0  0  0  0  0  0
   -3.6178    0.5104    1.4488 H   0  0  0  0  0  0  0  0  0  0  0  0
   -5.7872    1.6334    1.0169 H   0  0  0  0  0  0  0  0  0  0  0  0
   -5.9054    0.8376   -0.6131 H   0  0  0  0  0  0  0  0  0  0  0  0
   -3.6441    2.7600    0.3122 H   0  0  0  0  0  0  0  0  0  0  0  0
   -3.7822    1.9689   -1.3237 H   0  0  0  0  0  0  0  0  0  0  0  0
   -1.2621    1.2549   -3.4501 H   0  0  0  0  0  0  0  0  0  0  0  0
  1  2  1  0
  2  3  2  0
  2  4  2  0
  2  5  1  0
  5  6  2  0
  6  7  1  0
  7  8  2  0
  8  9  1  0
  9 10  1  0
 10 11  1  0
 11 12  1  0
 12 13  2  0
 13 14  1  0
 14 15  2  0
 15 16  1  0
 15 17  1  0
 17 18  1  0
 18 19  3  0
 19 20  1  0
 20 21  1  0
 20 22  1  0
 22 23  1  0
 23 24  1  0
 17 25  2  0
 11 26  2  0
 26 27  1  0
 27 28  1  0
 28 29  2  0
 29 30  1  0
 30 31  1  0
 31 32  2  0
 31 33  1  0
 30 34  2  0
 34 35  1  0
 27 36  1  0
 36 37  1  0
 37 38  1  0
 38 39  1  0
 39 40  1  0
  8 41  1  0
 41 42  2  0
 42 43  1  0
 42  5  1  0
 36 10  2  0
 40 38  1  0
 25 12  1  0
 35 28  1  0
 24 20  1  0
  1 44  1  0
  1 45  1  0
  6 46  1  0
  7 47  1  0
  9 48  1  0
  9 49  1  0
 13 50  1  0
 14 51  1  0
 21 52  1  0
 22 53  1  0
 22 54  1  0
 23 55  1  0
 23 56  1  0
 24 57  1  0
 24 58  1  0
 25 59  1  0
 33 60  1  0
 34 61  1  0
 37 62  1  0
 37 63  1  0
 38 64  1  0
 39 65  1  0
 39 66  1  0
 40 67  1  0
 40 68  1  0
 41 69  1  0
M  END
>  <mol_id>  (1) 
69524

>  <source_index>  (1) 
6

>  <layer>  (1) 
L1

>  <uniprot>  (1) 
P00338

>  <paff>  (1) 
9

>  <smiles>  (1) 
NS(=O)(=O)c1ccc(Cc2c(-c3ccc(F)c(C#CC4(O)CCC4)c3)nn(-c3nc(C(=O)O)cs3)c2CC2CC2)cc1F

$$$$
