L4:P09871:102062


 46 50  0  0  0  0  0  0  0  0999 V2000
   13.8389   -2.5899   -4.1913 C   0  0  0  0  0  0  0  0  0  0  0  0
   15.1564   -2.5289   -3.4049 C   0  0  0  0  0  0  0  0  0  0  0  0
   16.2128   -3.0286   -4.3872 C   0  0  0  0  0  0  0  0  0  0  0  0
   15.7013   -2.4874   -5.7255 C   0  0  0  0  0  0  0  0  0  0  0  0
   14.2509   -2.5685   -5.6060 N   0  0  0  0  0  0  0  0  0  0  0  0
   13.4567   -2.8206   -6.7043 C   0  0  0  0  0  0  0  0  0  0  0  0
   13.9037   -2.7536   -7.8536 O   0  0  0  0  0  0  0  0  0  0  0  0
   11.6322   -1.6401   -3.7025 N   0  0  0  0  0  0  0  0  0  0  0  0
   12.9785   -1.3748   -3.7957 C   0  0  0  0  0  0  0  0  0  0  0  0
   13.4542   -0.2507   -3.6738 O   0  0  0  0  0  0  0  0  0  0  0  0
   11.3201   -2.5847   -3.8945 H   0  0  0  0  0  0  0  0  0  0  0  0
   10.3322   -0.6035   -1.8823 C   0  0  0  0  0  0  0  0  0  0  0  0
   10.6460   -0.6259   -3.3784 C   0  0  0  0  0  0  0  0  0  0  0  0
    9.4142   -0.9375   -4.1922 C   0  0  0  0  0  0  0  0  0  0  0  0
    8.0948   -1.0108   -3.7793 C   0  0  0  0  0  0  0  0  0  0  0  0
    7.1785   -1.3523   -4.8345 C   0  0  0  0  0  0  0  0  0  0  0  0
    7.8699   -1.5199   -6.0213 C   0  0  0  0  0  0  0  0  0  0  0  0
    9.5537   -1.2814   -5.8623 S   0  0  0  0  0  0  0  0  0  0  0  0
    5.7370   -1.5108   -4.7117 C   0  0  0  0  0  0  0  0  0  0  0  0
    4.9953   -1.8946   -5.6906 N   0  0  0  0  0  0  0  0  0  0  0  0
    5.2236   -1.2364   -3.4963 N   0  0  0  0  0  0  0  0  0  0  0  0
    5.5497   -2.0246   -6.5398 H   0  0  0  0  0  0  0  0  0  0  0  0
    4.2254   -1.3500   -3.3823 H   0  0  0  0  0  0  0  0  0  0  0  0
    5.7839   -1.0428   -2.6810 H   0  0  0  0  0  0  0  0  0  0  0  0
   16.1891   -4.4582   -4.3638 O   0  0  0  0  0  0  0  0  0  0  0  0
   17.3819   -5.0059   -3.8262 C   0  0  0  0  0  0  0  0  0  0  0  0
   17.1548   -5.3285   -2.5321 F   0  0  0  0  0  0  0  0  0  0  0  0
   18.3541   -4.0669   -3.8490 F   0  0  0  0  0  0  0  0  0  0  0  0
   11.9822   -3.1554   -6.4546 C   0  0  0  0  0  0  0  0  0  0  0  0
   11.7844   -4.5861   -6.5802 N   0  0  0  0  0  0  0  0  0  0  0  0
   11.3707   -5.1441   -7.7651 C   0  0  0  0  0  0  0  0  0  0  0  0
   11.1793   -4.4788   -8.7766 O   0  0  0  0  0  0  0  0  0  0  0  0
   12.0247   -5.1506   -5.7725 H   0  0  0  0  0  0  0  0  0  0  0  0
   11.1919   -6.6228   -7.7865 C   0  0  0  0  0  0  0  0  0  0  0  0
   11.9974   -7.4786   -7.0387 C   0  0  0  0  0  0  0  0  0  0  0  0
   11.7926   -8.8630   -7.0898 C   0  0  0  0  0  0  0  0  0  0  0  0
   10.7631   -9.4193   -7.8933 C   0  0  0  0  0  0  0  0  0  0  0  0
    9.9610   -8.5394   -8.6200 C   0  0  0  0  0  0  0  0  0  0  0  0
   10.1567   -7.1442   -8.5741 C   0  0  0  0  0  0  0  0  0  0  0  0
    8.7689   -9.3770   -9.5249 S   0  0  0  0  0  0  0  0  0  0  0  0
    9.2921  -10.9141   -8.9736 C   0  0  0  0  0  0  0  0  0  0  0  0
    8.7439  -12.1656   -9.3203 C   0  0  0  0  0  0  0  0  0  0  0  0
    9.2974  -13.3245   -8.7734 C   0  0  0  0  0  0  0  0  0  0  0  0
   10.3718  -13.2455   -7.9006 C   0  0  0  0  0  0  0  0  0  0  0  0
   10.9118  -12.0015   -7.5602 C   0  0  0  0  0  0  0  0  0  0  0  0
   10.3734  -10.8029   -8.0987 C   0  0  0  0  0  0  0  0  0  0  0  0
 12 13  1  0  0  0
 13  8  1  0  0  0
  8  9  1  0  0  0
  9 10  2  0  0  0
  9  1  1  0  0  0
  1  2  1  0  0  0
  2  3  1  0  0  0
  3 25  1  0  0  0
 25 26  1  0  0  0
 26 27  1  0  0  0
 26 28  1  0  0  0
  3  4  1  0  0  0
  4  5  1  0  0  0
  5  6  1  0  0  0
  6  7  2  0  0  0
  6 29  1  0  0  0
 29 30  1  0  0  0
 30 31  1  0  0  0
 31 32  2  0  0  0
 31 34  1  0  0  0
 34 35  2  0  0  0
 35 36  1  0  0  0
 36 37  2  0  0  0
 37 38  1  0  0  0
 38 39  2  0  0  0
 38 40  1  0  0  0
 40 41  1  0  0  0
 41 42  2  0  0  0
 42 43  1  0  0  0
 43 44  2  0  0  0
 44 45  1  0  0  0
 45 46  2  0  0  0
 13 14  1  0  0  0
 14 15  2  0  0  0
 15 16  1  0  0  0
 16 19  1  0  0  0
 19 20  2  0  0  0
 19 21  1  0  0  0
 16 17  2  0  0  0
 17 18  1  0  0  0
  5  1  1  0  0  0
 39 34  1  0  0  0
 46 41  1  0  0  0
 18 14  1  0  0  0
 46 37  1  0  0  0
  8 11  1  0  0  0
 30 33  1  0  0  0
 20 22  1  0  0  0
 21 23  1  0  0  0
 21 24  1  0  0  0
M  END
> <minimizedAffinity>
-9.52523

$$$$
