L4:P09871:116768
     RDKit          3D

107110  0  0  0  0  0  0  0  0999 V2000
    9.6179   -3.0767    3.3114 C   0  0  0  0  0  0  0  0  0  0  0  0
    9.6253   -1.7100    2.6354 C   0  0  2  0  0  0  0  0  0  0  0  0
    9.0085   -0.7818    3.5503 O   0  0  0  0  0  0  0  0  0  0  0  0
    8.8230   -1.5983    1.3196 C   0  0  2  0  0  0  0  0  0  0  0  0
    7.4564   -1.9879    1.5565 O   0  0  0  0  0  0  0  0  0  0  0  0
    9.4032   -2.3671    0.1121 C   0  0  1  0  0  0  0  0  0  0  0  0
    9.5949   -3.7500    0.4426 O   0  0  0  0  0  0  0  0  0  0  0  0
    8.5013   -2.3285   -1.1465 C   0  0  1  0  0  0  0  0  0  0  0  0
    7.2940   -3.0751   -0.8798 O   0  0  0  0  0  0  0  0  0  0  0  0
    8.1425   -0.9043   -1.6140 C   0  0  0  0  0  0  0  0  0  0  0  0
    7.4028   -0.9663   -2.8840 N   0  0  0  0  0  0  0  0  0  0  0  0
    6.8692    0.3395   -3.2956 C   0  0  0  0  0  0  0  0  0  0  0  0
    5.7155    0.7964   -2.3925 C   0  0  0  0  0  0  0  0  0  0  0  0
    4.8864    0.0236   -1.9165 O   0  0  0  0  0  0  0  0  0  0  0  0
    5.6870    2.1552   -2.1548 N   0  0  0  0  0  0  0  0  0  0  0  0
    4.6864    2.7416   -1.2862 C   0  0  0  0  0  0  0  0  0  0  0  0
    3.3080    2.8547   -1.9471 C   0  0  0  0  0  0  0  0  0  0  0  0
    2.3588    3.4525   -1.0611 O   0  0  0  0  0  0  0  0  0  0  0  0
    1.7588    2.5178   -0.1617 C   0  0  0  0  0  0  0  0  0  0  0  0
    0.5589    1.8836   -0.8063 C   0  0  1  0  0  0  0  0  0  0  0  0
    0.6637    0.4724   -1.3468 C   0  0  0  0  0  0  0  0  0  0  0  0
   -0.1442    0.7415   -0.1116 C   0  0  2  0  0  0  0  0  0  0  0  0
   -1.5580    0.9735   -0.1700 N   0  0  0  0  0  0  0  0  0  0  0  0
   -2.5525    0.2707    0.4764 C   0  0  0  0  0  0  0  0  0  0  0  0
   -3.7360    0.6232    0.4404 O   0  0  0  0  0  0  0  0  0  0  0  0
   -2.1120   -0.9702    1.2524 C   0  0  0  0  0  0  0  0  0  0  0  0
   -3.2668   -1.6293    1.8315 N   0  0  0  0  0  0  0  0  0  0  0  0
   -3.1357   -2.7398    2.6232 C   0  0  0  0  0  0  0  0  0  0  0  0
   -2.0503   -3.2315    2.9135 O   0  0  0  0  0  0  0  0  0  0  0  0
   -4.4438   -3.2799    3.1549 C   0  0  0  0  0  0  0  0  0  0  0  0
   -4.7513   -2.6520    4.5141 C   0  0  0  0  0  0  0  0  0  0  0  0
   -6.1146   -3.0772    5.0536 C   0  0  0  0  0  0  0  0  0  0  0  0
   -6.1301   -4.5015    5.1998 O   0  0  0  0  0  0  0  0  0  0  0  0
   -7.3843   -4.9657    5.4872 C   0  0  0  0  0  0  0  0  0  0  0  0
   -7.9746   -5.8362    4.5733 C   0  0  0  0  0  0  0  0  0  0  0  0
   -9.2408   -6.3620    4.8338 C   0  0  0  0  0  0  0  0  0  0  0  0
   -9.9044   -6.0269    6.0148 C   0  0  0  0  0  0  0  0  0  0  0  0
   -9.2987   -5.1758    6.9414 C   0  0  0  0  0  0  0  0  0  0  0  0
   -8.0326   -4.6485    6.6811 C   0  0  0  0  0  0  0  0  0  0  0  0
   -1.8722    2.1425   -1.0010 C   0  0  2  0  0  0  0  0  0  0  0  0
   -2.5663    1.7270   -2.3126 C   0  0  0  0  0  0  0  0  0  0  0  0
   -2.4048    0.6349   -2.8519 O   0  0  0  0  0  0  0  0  0  0  0  0
   -3.3398    2.7240   -2.8760 N   0  0  0  0  0  0  0  0  0  0  0  0
   -4.0623    2.5112   -4.1187 C   0  0  2  0  0  0  0  0  0  0  0  0
   -3.1268    2.5667   -5.3283 C   0  0  0  0  0  0  0  0  0  0  0  0
   -5.1370    3.5684   -4.2062 C   0  0  0  0  0  0  0  0  0  0  0  0
   -5.0100    4.9294   -4.4248 C   0  0  0  0  0  0  0  0  0  0  0  0
   -6.2674    5.6285   -4.4571 C   0  0  0  0  0  0  0  0  0  0  0  0
   -6.4420    7.0572   -4.6742 C   0  0  0  0  0  0  0  0  0  0  0  0
   -5.5542    7.9140   -4.3074 N   0  0  0  0  0  0  0  0  0  0  0  0
   -7.5776    7.4284   -5.2976 N   0  0  0  0  0  0  0  0  0  0  0  0
   -7.3058    4.7408   -4.2387 C   0  0  0  0  0  0  0  0  0  0  0  0
   -6.7811    3.1318   -4.0122 S   0  0  0  0  0  0  0  0  0  0  0  0
   -0.5215    2.8222   -1.3166 C   0  0  0  0  0  0  0  0  0  0  0  0
   10.2106   -3.8107    2.7621 H   0  0  0  0  0  0  0  0  0  0  0  0
   10.0403   -3.0059    4.3200 H   0  0  0  0  0  0  0  0  0  0  0  0
    8.5989   -3.4594    3.4303 H   0  0  0  0  0  0  0  0  0  0  0  0
   10.6556   -1.3750    2.4723 H   0  0  0  0  0  0  0  0  0  0  0  0
    9.5214   -0.8095    4.3777 H   0  0  0  0  0  0  0  0  0  0  0  0
    8.7767   -0.5338    1.0581 H   0  0  0  0  0  0  0  0  0  0  0  0
    7.2302   -1.5739    2.4163 H   0  0  0  0  0  0  0  0  0  0  0  0
   10.3895   -1.9536   -0.1292 H   0  0  0  0  0  0  0  0  0  0  0  0
    8.7211   -4.1712    0.2985 H   0  0  0  0  0  0  0  0  0  0  0  0
    9.0131   -2.8674   -1.9539 H   0  0  0  0  0  0  0  0  0  0  0  0
    6.9071   -2.6874   -0.0628 H   0  0  0  0  0  0  0  0  0  0  0  0
    9.0559   -0.3138   -1.7446 H   0  0  0  0  0  0  0  0  0  0  0  0
    7.5173   -0.4225   -0.8550 H   0  0  0  0  0  0  0  0  0  0  0  0
    6.6127   -1.6115   -2.7477 H   0  0  0  0  0  0  0  0  0  0  0  0
    7.6689    1.0885   -3.3228 H   0  0  0  0  0  0  0  0  0  0  0  0
    6.4669    0.2547   -4.3115 H   0  0  0  0  0  0  0  0  0  0  0  0
    6.3823    2.7577   -2.5762 H   0  0  0  0  0  0  0  0  0  0  0  0
    5.0412    3.7351   -0.9912 H   0  0  0  0  0  0  0  0  0  0  0  0
    4.6308    2.1445   -0.3700 H   0  0  0  0  0  0  0  0  0  0  0  0
    3.3883    3.5121   -2.8208 H   0  0  0  0  0  0  0  0  0  0  0  0
    2.9478    1.8892   -2.3170 H   0  0  0  0  0  0  0  0  0  0  0  0
    2.4852    1.7766    0.1911 H   0  0  0  0  0  0  0  0  0  0  0  0
    1.4315    3.0863    0.7161 H   0  0  0  0  0  0  0  0  0  0  0  0
    0.1471    0.2213   -2.2669 H   0  0  0  0  0  0  0  0  0  0  0  0
    1.5997   -0.0648   -1.2301 H   0  0  0  0  0  0  0  0  0  0  0  0
    0.2496    0.4167    0.8455 H   0  0  0  0  0  0  0  0  0  0  0  0
   -1.4357   -0.6841    2.0634 H   0  0  0  0  0  0  0  0  0  0  0  0
   -1.6092   -1.6733    0.5811 H   0  0  0  0  0  0  0  0  0  0  0  0
   -4.1788   -1.2428    1.6066 H   0  0  0  0  0  0  0  0  0  0  0  0
   -5.2486   -3.0669    2.4413 H   0  0  0  0  0  0  0  0  0  0  0  0
   -4.3560   -4.3695    3.2293 H   0  0  0  0  0  0  0  0  0  0  0  0
   -4.7169   -1.5577    4.4443 H   0  0  0  0  0  0  0  0  0  0  0  0
   -3.9691   -2.9522    5.2237 H   0  0  0  0  0  0  0  0  0  0  0  0
   -6.2744   -2.5934    6.0255 H   0  0  0  0  0  0  0  0  0  0  0  0
   -6.9035   -2.7545    4.3598 H   0  0  0  0  0  0  0  0  0  0  0  0
   -7.4510   -6.1004    3.6585 H   0  0  0  0  0  0  0  0  0  0  0  0
   -9.7054   -7.0348    4.1175 H   0  0  0  0  0  0  0  0  0  0  0  0
  -10.8900   -6.4372    6.2198 H   0  0  0  0  0  0  0  0  0  0  0  0
   -9.8081   -4.9332    7.8710 H   0  0  0  0  0  0  0  0  0  0  0  0
   -7.5529   -4.0129    7.4192 H   0  0  0  0  0  0  0  0  0  0  0  0
   -2.5365    2.8122   -0.4419 H   0  0  0  0  0  0  0  0  0  0  0  0
   -3.4882    3.5874   -2.3701 H   0  0  0  0  0  0  0  0  0  0  0  0
   -4.5094    1.5098   -4.0793 H   0  0  0  0  0  0  0  0  0  0  0  0
   -3.6854    2.4424   -6.2626 H   0  0  0  0  0  0  0  0  0  0  0  0
   -2.3741    1.7730   -5.2813 H   0  0  0  0  0  0  0  0  0  0  0  0
   -2.5862    3.5190   -5.3816 H   0  0  0  0  0  0  0  0  0  0  0  0
   -4.0510    5.4092   -4.5844 H   0  0  0  0  0  0  0  0  0  0  0  0
   -4.7775    7.4497   -3.8322 H   0  0  0  0  0  0  0  0  0  0  0  0
   -7.7050    8.4158   -5.4739 H   0  0  0  0  0  0  0  0  0  0  0  0
   -8.2217    6.7746   -5.7162 H   0  0  0  0  0  0  0  0  0  0  0  0
   -8.3634    4.9582   -4.1816 H   0  0  0  0  0  0  0  0  0  0  0  0
   -0.4718    3.7795   -0.7831 H   0  0  0  0  0  0  0  0  0  0  0  0
   -0.3831    3.0296   -2.3832 H   0  0  0  0  0  0  0  0  0  0  0  0
  1  2  1  0
  2  3  1  0
  2  4  1  0
  4  5  1  0
  4  6  1  0
  6  7  1  0
  6  8  1  0
  8  9  1  0
  8 10  1  0
 10 11  1  0
 11 12  1  0
 12 13  1  0
 13 14  2  0
 13 15  1  0
 15 16  1  0
 16 17  1  0
 17 18  1  0
 18 19  1  0
 20 19  1  1
 20 21  1  0
 21 22  1  0
 22 23  1  0
 23 24  1  0
 24 25  2  0
 24 26  1  0
 26 27  1  0
 27 28  1  0
 28 29  2  0
 28 30  1  0
 30 31  1  0
 31 32  1  0
 32 33  1  0
 33 34  1  0
 34 35  2  0
 35 36  1  0
 36 37  2  0
 37 38  1  0
 38 39  2  0
 23 40  1  0
 40 41  1  0
 41 42  2  0
 41 43  1  0
 43 44  1  0
 44 45  1  0
 44 46  1  0
 46 47  2  0
 47 48  1  0
 48 49  1  0
 49 50  2  3
 49 51  1  0
 48 52  2  0
 52 53  1  0
 40 54  1  0
 22 20  1  0
 39 34  1  0
 53 46  1  0
 54 20  1  0
  1 55  1  0
  1 56  1  0
  1 57  1  0
  2 58  1  6
  3 59  1  0
  4 60  1  6
  5 61  1  0
  6 62  1  6
  7 63  1  0
  8 64  1  6
  9 65  1  0
 10 66  1  0
 10 67  1  0
 11 68  1  0
 12 69  1  0
 12 70  1  0
 15 71  1  0
 16 72  1  0
 16 73  1  0
 17 74  1  0
 17 75  1  0
 19 76  1  0
 19 77  1  0
 21 78  1  0
 21 79  1  0
 22 80  1  1
 26 81  1  0
 26 82  1  0
 27 83  1  0
 30 84  1  0
 30 85  1  0
 31 86  1  0
 31 87  1  0
 32 88  1  0
 32 89  1  0
 35 90  1  0
 36 91  1  0
 37 92  1  0
 38 93  1  0
 39 94  1  0
 40 95  1  1
 43 96  1  0
 44 97  1  1
 45 98  1  0
 45 99  1  0
 45100  1  0
 47101  1  0
 50102  1  0
 51103  1  0
 51104  1  0
 52105  1  0
 54106  1  0
 54107  1  0
M  END
>  <mol_id>  (1) 
116768

>  <source_index>  (1) 
9

>  <layer>  (1) 
L4

>  <uniprot>  (1) 
P09871

>  <paff>  (1) 
7

>  <smiles>  (1) 
C[C@H](O)[C@H](O)[C@@H](O)[C@@H](O)CNCC(=O)NCCOC[C@@]12C[C@@H]1N(C(=O)CNC(=O)CCCOc1ccccc1)[C@H](C(=O)N[C@H](C)c1cc(C(=N)N)cs1)C2

$$$$
