L4:P09871:18813
     RDKit          3D

 69 72  0  0  0  0  0  0  0  0999 V2000
    2.1628    2.6469   -1.3414 C   0  0  0  0  0  0  0  0  0  0  0  0
    2.7618    1.6908   -2.3718 C   0  0  1  0  0  0  0  0  0  0  0  0
    2.8330    0.3364   -1.8620 N   0  0  0  0  0  0  0  0  0  0  0  0
    3.8209   -0.0812   -1.0033 C   0  0  0  0  0  0  0  0  0  0  0  0
    4.7835    0.6153   -0.6956 O   0  0  0  0  0  0  0  0  0  0  0  0
    3.7019   -1.5492   -0.5486 C   0  0  2  0  0  0  0  0  0  0  0  0
    4.6295   -2.4072   -1.4247 C   0  0  0  0  0  0  0  0  0  0  0  0
    3.8504   -3.6969   -1.6943 C   0  0  1  0  0  0  0  0  0  0  0  0
    4.0770   -4.7463   -0.6247 C   0  0  0  0  0  0  0  0  0  0  0  0
    5.3739   -5.1287   -0.6093 F   0  0  0  0  0  0  0  0  0  0  0  0
    3.7706   -4.2964    0.6094 F   0  0  0  0  0  0  0  0  0  0  0  0
    3.3348   -5.8479   -0.8651 F   0  0  0  0  0  0  0  0  0  0  0  0
    2.4057   -3.2303   -1.7082 C   0  0  0  0  0  0  0  0  0  0  0  0
    2.3659   -2.1321   -0.7573 N   0  0  0  0  0  0  0  0  0  0  0  0
    1.2268   -1.8756   -0.0184 C   0  0  0  0  0  0  0  0  0  0  0  0
    0.1638   -2.4575   -0.2544 O   0  0  0  0  0  0  0  0  0  0  0  0
    1.3255   -0.8498    1.1160 C   0  0  0  0  0  0  0  0  0  0  0  0
   -0.0048   -0.5378    1.5996 N   0  0  0  0  0  0  0  0  0  0  0  0
   -0.2219    0.5103    2.4601 C   0  0  0  0  0  0  0  0  0  0  0  0
    0.6786    1.2429    2.8540 O   0  0  0  0  0  0  0  0  0  0  0  0
   -1.6292    0.7534    2.8819 C   0  0  0  0  0  0  0  0  0  0  0  0
   -1.9897    2.0569    3.2527 C   0  0  0  0  0  0  0  0  0  0  0  0
   -3.2969    2.3393    3.6532 C   0  0  0  0  0  0  0  0  0  0  0  0
   -4.2381    1.3134    3.7117 C   0  0  0  0  0  0  0  0  0  0  0  0
   -5.5200    1.6469    4.0805 O   0  0  0  0  0  0  0  0  0  0  0  0
   -6.0684    0.9547    5.1372 C   0  0  0  0  0  0  0  0  0  0  0  0
   -5.3648    0.6722    6.3138 C   0  0  0  0  0  0  0  0  0  0  0  0
   -6.0038    0.0020    7.3584 C   0  0  0  0  0  0  0  0  0  0  0  0
   -7.3393   -0.3646    7.2231 C   0  0  0  0  0  0  0  0  0  0  0  0
   -7.9516   -1.0040    8.2282 F   0  0  0  0  0  0  0  0  0  0  0  0
   -8.0513   -0.0701    6.0651 C   0  0  0  0  0  0  0  0  0  0  0  0
   -7.4152    0.6002    5.0200 C   0  0  0  0  0  0  0  0  0  0  0  0
   -3.8923    0.0123    3.3391 C   0  0  0  0  0  0  0  0  0  0  0  0
   -2.5845   -0.2709    2.9335 C   0  0  0  0  0  0  0  0  0  0  0  0
    1.9728    1.6731   -3.6588 C   0  0  0  0  0  0  0  0  0  0  0  0
    2.3756    2.1344   -4.8988 C   0  0  0  0  0  0  0  0  0  0  0  0
    1.3749    1.9887   -5.9232 C   0  0  0  0  0  0  0  0  0  0  0  0
    1.4999    2.3869   -7.3172 C   0  0  0  0  0  0  0  0  0  0  0  0
    0.4957    2.7844   -8.0173 N   0  0  0  0  0  0  0  0  0  0  0  0
    2.7432    2.3089   -7.8315 N   0  0  0  0  0  0  0  0  0  0  0  0
    0.2405    1.3999   -5.3939 C   0  0  0  0  0  0  0  0  0  0  0  0
    0.3818    1.0362   -3.7312 S   0  0  0  0  0  0  0  0  0  0  0  0
    1.1657    2.3266   -1.0176 H   0  0  0  0  0  0  0  0  0  0  0  0
    2.0756    3.6596   -1.7498 H   0  0  0  0  0  0  0  0  0  0  0  0
    2.7909    2.6967   -0.4450 H   0  0  0  0  0  0  0  0  0  0  0  0
    3.7861    2.0209   -2.5876 H   0  0  0  0  0  0  0  0  0  0  0  0
    2.0775   -0.3006   -2.0877 H   0  0  0  0  0  0  0  0  0  0  0  0
    3.9521   -1.6160    0.5154 H   0  0  0  0  0  0  0  0  0  0  0  0
    5.5956   -2.5811   -0.9398 H   0  0  0  0  0  0  0  0  0  0  0  0
    4.8363   -1.9089   -2.3812 H   0  0  0  0  0  0  0  0  0  0  0  0
    4.1296   -4.1285   -2.6618 H   0  0  0  0  0  0  0  0  0  0  0  0
    2.1424   -2.8137   -2.6871 H   0  0  0  0  0  0  0  0  0  0  0  0
    1.6833   -4.0147   -1.4614 H   0  0  0  0  0  0  0  0  0  0  0  0
    1.9056   -1.2717    1.9424 H   0  0  0  0  0  0  0  0  0  0  0  0
    1.7933    0.0746    0.7711 H   0  0  0  0  0  0  0  0  0  0  0  0
   -0.7666   -1.0913    1.2221 H   0  0  0  0  0  0  0  0  0  0  0  0
   -1.2522    2.8568    3.2229 H   0  0  0  0  0  0  0  0  0  0  0  0
   -3.5748    3.3525    3.9287 H   0  0  0  0  0  0  0  0  0  0  0  0
   -4.3279    0.9753    6.4300 H   0  0  0  0  0  0  0  0  0  0  0  0
   -5.4731   -0.2286    8.2769 H   0  0  0  0  0  0  0  0  0  0  0  0
   -9.0941   -0.3593    5.9850 H   0  0  0  0  0  0  0  0  0  0  0  0
   -7.9652    0.8439    4.1150 H   0  0  0  0  0  0  0  0  0  0  0  0
   -4.6337   -0.7819    3.3640 H   0  0  0  0  0  0  0  0  0  0  0  0
   -2.3284   -1.2959    2.6821 H   0  0  0  0  0  0  0  0  0  0  0  0
    3.3469    2.5867   -5.0643 H   0  0  0  0  0  0  0  0  0  0  0  0
   -0.3552    2.8113   -7.4509 H   0  0  0  0  0  0  0  0  0  0  0  0
    3.5242    1.8997   -7.3430 H   0  0  0  0  0  0  0  0  0  0  0  0
    2.8613    2.5853   -8.7969 H   0  0  0  0  0  0  0  0  0  0  0  0
   -0.6741    1.1422   -5.9111 H   0  0  0  0  0  0  0  0  0  0  0  0
  1  2  1  0
  2  3  1  0
  3  4  1  0
  4  5  2  0
  4  6  1  0
  6  7  1  0
  7  8  1  0
  8  9  1  0
  9 10  1  0
  9 11  1  0
  9 12  1  0
  8 13  1  0
 13 14  1  0
 14 15  1  0
 15 16  2  0
 15 17  1  0
 17 18  1  0
 18 19  1  0
 19 20  2  0
 19 21  1  0
 21 22  2  0
 22 23  1  0
 23 24  2  0
 24 25  1  0
 25 26  1  0
 26 27  2  0
 27 28  1  0
 28 29  2  0
 29 30  1  0
 29 31  1  0
 31 32  2  0
 24 33  1  0
 33 34  2  0
  2 35  1  0
 35 36  2  0
 36 37  1  0
 37 38  1  0
 38 39  2  3
 38 40  1  0
 37 41  2  0
 41 42  1  0
 14  6  1  0
 34 21  1  0
 42 35  1  0
 32 26  1  0
  1 43  1  0
  1 44  1  0
  1 45  1  0
  2 46  1  6
  3 47  1  0
  6 48  1  1
  7 49  1  0
  7 50  1  0
  8 51  1  6
 13 52  1  0
 13 53  1  0
 17 54  1  0
 17 55  1  0
 18 56  1  0
 22 57  1  0
 23 58  1  0
 27 59  1  0
 28 60  1  0
 31 61  1  0
 32 62  1  0
 33 63  1  0
 34 64  1  0
 36 65  1  0
 39 66  1  0
 40 67  1  0
 40 68  1  0
 41 69  1  0
M  END
>  <mol_id>  (1) 
18813

>  <source_index>  (1) 
0

>  <layer>  (1) 
L4

>  <uniprot>  (1) 
P09871

>  <paff>  (1) 
7

>  <smiles>  (1) 
C[C@@H](NC(=O)[C@@H]1C[C@@H](C(F)(F)F)CN1C(=O)CNC(=O)c1ccc(Oc2ccc(F)cc2)cc1)c1cc(C(=N)N)cs1

$$$$
