L4:P09871:18813
 OpenBabel09212617533D

 69 72  0  0  0  0  0  0  0  0999 V2000
   10.5154   -2.2308   -5.1343 C   0  0  2  0  0  0  0  0  0  0  0  0
    9.2001   -1.4705   -5.3707 C   0  0  0  0  0  0  0  0  0  0  0  0
    9.1302   -0.4281   -4.2521 C   0  0  2  0  0  0  0  0  0  0  0  0
   10.5899   -0.0968   -3.9979 C   0  0  0  0  0  0  0  0  0  0  0  0
   11.2992   -1.3365   -4.2659 N   0  0  0  0  0  0  0  0  0  0  0  0
   12.4540   -1.6552   -3.5773 C   0  0  0  0  0  0  0  0  0  0  0  0
   13.0077   -0.8358   -2.8382 O   0  0  0  0  0  0  0  0  0  0  0  0
   10.5696   -3.4983   -7.2381 N   0  0  0  0  0  0  0  0  0  0  0  0
   11.1720   -2.5075   -6.5012 C   0  0  0  0  0  0  0  0  0  0  0  0
   12.2102   -1.9503   -6.8448 O   0  0  0  0  0  0  0  0  0  0  0  0
    9.7238   -3.9291   -6.8824 H   0  0  0  0  0  0  0  0  0  0  0  0
    9.8980   -3.8029   -9.5865 C   0  0  0  0  0  0  0  0  0  0  0  0
   11.0271   -3.8772   -8.5597 C   0  0  2  0  0  0  0  0  0  0  0  0
   11.6306   -5.2585   -8.4756 C   0  0  0  0  0  0  0  0  0  0  0  0
   11.0387   -6.4063   -7.9808 C   0  0  0  0  0  0  0  0  0  0  0  0
   11.8941   -7.5633   -8.0249 C   0  0  0  0  0  0  0  0  0  0  0  0
   13.1175   -7.2245   -8.5745 C   0  0  0  0  0  0  0  0  0  0  0  0
   13.2249   -5.5795   -9.0208 S   0  0  0  0  0  0  0  0  0  0  0  0
   11.5588   -8.9045   -7.5709 C   0  0  0  0  0  0  0  0  0  0  0  0
   12.1523   -9.4689   -6.5781 N   0  0  0  0  0  0  0  0  0  0  0  0
   10.5820   -9.5222   -8.2642 N   0  0  0  0  0  0  0  0  0  0  0  0
   12.8367   -8.8372   -6.1561 H   0  0  0  0  0  0  0  0  0  0  0  0
   10.1774   -9.1508   -9.1094 H   0  0  0  0  0  0  0  0  0  0  0  0
   10.3236  -10.4535   -7.9672 H   0  0  0  0  0  0  0  0  0  0  0  0
    8.4639   -0.9634   -3.0006 C   0  0  0  0  0  0  0  0  0  0  0  0
    7.8910    0.0451   -2.3056 F   0  0  0  0  0  0  0  0  0  0  0  0
    7.5003   -1.8656   -3.2776 F   0  0  0  0  0  0  0  0  0  0  0  0
    9.3668   -1.5513   -2.1875 F   0  0  0  0  0  0  0  0  0  0  0  0
   13.0240   -3.0673   -3.7506 C   0  0  0  0  0  0  0  0  0  0  0  0
   14.4710   -3.0133   -3.6861 N   0  0  0  0  0  0  0  0  0  0  0  0
   15.2435   -3.2898   -4.7874 C   0  0  0  0  0  0  0  0  0  0  0  0
   14.7647   -3.5801   -5.8779 O   0  0  0  0  0  0  0  0  0  0  0  0
   14.8752   -2.7023   -2.8091 H   0  0  0  0  0  0  0  0  0  0  0  0
   16.7193   -3.1888   -4.6159 C   0  0  0  0  0  0  0  0  0  0  0  0
   17.4623   -2.5900   -5.6435 C   0  0  0  0  0  0  0  0  0  0  0  0
   18.8484   -2.4676   -5.5313 C   0  0  0  0  0  0  0  0  0  0  0  0
   19.4971   -2.9699   -4.4050 C   0  0  0  0  0  0  0  0  0  0  0  0
   18.7671   -3.5630   -3.3723 C   0  0  0  0  0  0  0  0  0  0  0  0
   17.3782   -3.6821   -3.4815 C   0  0  0  0  0  0  0  0  0  0  0  0
   20.8588   -2.7964   -4.3253 O   0  0  0  0  0  0  0  0  0  0  0  0
   21.3303   -1.9962   -3.3086 C   0  0  0  0  0  0  0  0  0  0  0  0
   20.7761   -0.7491   -2.9975 C   0  0  0  0  0  0  0  0  0  0  0  0
   21.2830   -0.0148   -1.9239 C   0  0  0  0  0  0  0  0  0  0  0  0
   22.3250   -0.5391   -1.1652 C   0  0  0  0  0  0  0  0  0  0  0  0
   22.8071    0.1653   -0.1331 F   0  0  0  0  0  0  0  0  0  0  0  0
   22.8681   -1.7863   -1.4554 C   0  0  0  0  0  0  0  0  0  0  0  0
   22.3628   -2.5223   -2.5274 C   0  0  0  0  0  0  0  0  0  0  0  0
   10.4088   -3.1874   -4.6668 H   0  0  0  0  0  0  0  0  0  0  0  0
    8.3658   -2.1380   -5.3138 H   0  0  0  0  0  0  0  0  0  0  0  0
    9.1690   -1.0185   -6.3400 H   0  0  0  0  0  0  0  0  0  0  0  0
    8.5396    0.4213   -4.5252 H   0  0  0  0  0  0  0  0  0  0  0  0
   10.7364    0.2105   -2.9835 H   0  0  0  0  0  0  0  0  0  0  0  0
   10.9357    0.7092   -4.6108 H   0  0  0  0  0  0  0  0  0  0  0  0
    9.5027   -2.8089   -9.6107 H   0  0  0  0  0  0  0  0  0  0  0  0
    9.1228   -4.4885   -9.3145 H   0  0  0  0  0  0  0  0  0  0  0  0
   10.2778   -4.0593  -10.5534 H   0  0  0  0  0  0  0  0  0  0  0  0
   11.7732   -3.1882   -8.8967 H   0  0  0  0  0  0  0  0  0  0  0  0
   10.0743   -6.4310   -7.6143 H   0  0  0  0  0  0  0  0  0  0  0  0
   13.8885   -7.8986   -8.7021 H   0  0  0  0  0  0  0  0  0  0  0  0
   12.7233   -3.4597   -4.6995 H   0  0  0  0  0  0  0  0  0  0  0  0
   12.6547   -3.7001   -2.9708 H   0  0  0  0  0  0  0  0  0  0  0  0
   16.9822   -2.2382   -6.4866 H   0  0  0  0  0  0  0  0  0  0  0  0
   19.3903   -2.0071   -6.2792 H   0  0  0  0  0  0  0  0  0  0  0  0
   19.2517   -3.9124   -2.5308 H   0  0  0  0  0  0  0  0  0  0  0  0
   16.8382   -4.1333   -2.7267 H   0  0  0  0  0  0  0  0  0  0  0  0
   19.9960   -0.3740   -3.5595 H   0  0  0  0  0  0  0  0  0  0  0  0
   20.8877    0.9105   -1.6945 H   0  0  0  0  0  0  0  0  0  0  0  0
   23.6387   -2.1642   -0.8823 H   0  0  0  0  0  0  0  0  0  0  0  0
   22.7509   -3.4539   -2.7432 H   0  0  0  0  0  0  0  0  0  0  0  0
  1  2  1  0  0  0  0
  1 48  1  1  0  0  0
  2  3  1  0  0  0  0
  2 49  1  0  0  0  0
  2 50  1  0  0  0  0
  3 25  1  0  0  0  0
  3  4  1  0  0  0  0
  3 51  1  6  0  0  0
  4  5  1  0  0  0  0
  4 52  1  0  0  0  0
  4 53  1  0  0  0  0
  5  6  1  0  0  0  0
  5  1  1  0  0  0  0
  6  7  2  0  0  0  0
  6 29  1  0  0  0  0
  8  9  1  0  0  0  0
  8 11  1  0  0  0  0
  9 10  2  0  0  0  0
  9  1  1  0  0  0  0
 12 13  1  0  0  0  0
 12 54  1  0  0  0  0
 12 55  1  0  0  0  0
 12 56  1  0  0  0  0
 13  8  1  0  0  0  0
 13 14  1  0  0  0  0
 13 57  1  6  0  0  0
 14 15  2  0  0  0  0
 15 16  1  0  0  0  0
 15 58  1  0  0  0  0
 16 19  1  0  0  0  0
 16 17  2  0  0  0  0
 17 18  1  0  0  0  0
 17 59  1  0  0  0  0
 18 14  1  0  0  0  0
 19 20  2  0  0  0  0
 19 21  1  0  0  0  0
 20 22  1  0  0  0  0
 21 23  1  0  0  0  0
 21 24  1  0  0  0  0
 25 26  1  0  0  0  0
 25 27  1  0  0  0  0
 25 28  1  0  0  0  0
 29 30  1  0  0  0  0
 29 60  1  0  0  0  0
 29 61  1  0  0  0  0
 30 31  1  0  0  0  0
 30 33  1  0  0  0  0
 31 32  2  0  0  0  0
 31 34  1  0  0  0  0
 34 35  2  0  0  0  0
 35 36  1  0  0  0  0
 35 62  1  0  0  0  0
 36 37  2  0  0  0  0
 36 63  1  0  0  0  0
 37 40  1  0  0  0  0
 37 38  1  0  0  0  0
 38 39  2  0  0  0  0
 38 64  1  0  0  0  0
 39 34  1  0  0  0  0
 39 65  1  0  0  0  0
 40 41  1  0  0  0  0
 41 42  2  0  0  0  0
 42 43  1  0  0  0  0
 42 66  1  0  0  0  0
 43 44  2  0  0  0  0
 43 67  1  0  0  0  0
 44 45  1  0  0  0  0
 44 46  1  0  0  0  0
 46 47  2  0  0  0  0
 46 68  1  0  0  0  0
 47 41  1  0  0  0  0
 47 69  1  0  0  0  0
M  END
>  <minimizedAffinity>
-9.10584

$$$$
