L4:P09871:27252


 49 52  0  0  0  0  0  0  0  0999 V2000
   12.7135   -3.7854   -5.7280 C   0  0  0  0  0  0  0  0  0  0  0  0
   11.6685   -3.9384   -5.0806 O   0  0  0  0  0  0  0  0  0  0  0  0
   13.7646   -3.0639   -5.2087 N   0  0  0  0  0  0  0  0  0  0  0  0
   15.0911   -2.9347   -5.7989 C   0  0  0  0  0  0  0  0  0  0  0  0
   16.0362   -2.8845   -4.5965 C   0  0  0  0  0  0  0  0  0  0  0  0
   15.2190   -2.1055   -3.5731 C   0  0  0  0  0  0  0  0  0  0  0  0
   13.7604   -2.5215   -3.8371 C   0  0  0  0  0  0  0  0  0  0  0  0
   12.8228   -1.3050   -3.6052 C   0  0  0  0  0  0  0  0  0  0  0  0
   13.2422   -0.1539   -3.4921 O   0  0  0  0  0  0  0  0  0  0  0  0
   11.5075   -1.6199   -3.3765 N   0  0  0  0  0  0  0  0  0  0  0  0
   11.2753   -2.6072   -3.2999 H   0  0  0  0  0  0  0  0  0  0  0  0
   10.4840   -0.6333   -3.1027 C   0  0  0  0  0  0  0  0  0  0  0  0
   10.1185   -0.6273   -1.6194 C   0  0  0  0  0  0  0  0  0  0  0  0
    9.2789   -0.9527   -3.9556 C   0  0  0  0  0  0  0  0  0  0  0  0
    7.9398   -0.9985   -3.6044 C   0  0  0  0  0  0  0  0  0  0  0  0
    7.0604   -1.3397   -4.6935 C   0  0  0  0  0  0  0  0  0  0  0  0
    7.8056   -1.5117   -5.8462 C   0  0  0  0  0  0  0  0  0  0  0  0
    9.4844   -1.3127   -5.6158 S   0  0  0  0  0  0  0  0  0  0  0  0
    5.6108   -1.4883   -4.6339 C   0  0  0  0  0  0  0  0  0  0  0  0
    4.9000   -1.8882   -5.6312 N   0  0  0  0  0  0  0  0  0  0  0  0
    5.0345   -1.1863   -3.4529 N   0  0  0  0  0  0  0  0  0  0  0  0
    5.4878   -2.0804   -6.4466 H   0  0  0  0  0  0  0  0  0  0  0  0
    5.5197   -0.7325   -2.6947 H   0  0  0  0  0  0  0  0  0  0  0  0
    4.0263   -1.2472   -3.4079 H   0  0  0  0  0  0  0  0  0  0  0  0
   12.7640   -4.2540   -7.1852 C   0  0  0  0  0  0  0  0  0  0  0  0
   12.0882   -6.3210   -8.3422 C   0  0  0  0  0  0  0  0  0  0  0  0
   11.8506   -5.7264   -9.3883 O   0  0  0  0  0  0  0  0  0  0  0  0
   12.5489   -5.6893   -7.2090 N   0  0  0  0  0  0  0  0  0  0  0  0
   12.5820   -6.1851   -6.3272 H   0  0  0  0  0  0  0  0  0  0  0  0
   11.4192  -10.5433   -8.1424 C   0  0  0  0  0  0  0  0  0  0  0  0
   11.4664   -9.8965   -9.3762 C   0  0  0  0  0  0  0  0  0  0  0  0
   11.6792   -8.5173   -9.4244 C   0  0  0  0  0  0  0  0  0  0  0  0
   11.8538   -7.7872   -8.2401 C   0  0  0  0  0  0  0  0  0  0  0  0
   11.8463   -8.4527   -7.0073 C   0  0  0  0  0  0  0  0  0  0  0  0
   11.6351   -9.8328   -6.9608 C   0  0  0  0  0  0  0  0  0  0  0  0
   11.2283  -11.9064   -8.1140 O   0  0  0  0  0  0  0  0  0  0  0  0
    7.5100  -13.0892   -6.6176 C   0  0  0  0  0  0  0  0  0  0  0  0
    7.5901  -12.2291   -7.7246 C   0  0  0  0  0  0  0  0  0  0  0  0
    8.8297  -11.8304   -8.2288 C   0  0  0  0  0  0  0  0  0  0  0  0
    9.9997  -12.2848   -7.6234 C   0  0  0  0  0  0  0  0  0  0  0  0
    9.9418  -13.1709   -6.5507 C   0  0  0  0  0  0  0  0  0  0  0  0
    8.7015  -13.5611   -6.0425 C   0  0  0  0  0  0  0  0  0  0  0  0
    6.2240  -13.8504   -4.5855 C   0  0  0  0  0  0  0  0  0  0  0  0
    6.1500  -13.4862   -6.0700 C   0  0  0  0  0  0  0  0  0  0  0  0
    5.1084  -12.3908   -6.3138 C   0  0  0  0  0  0  0  0  0  0  0  0
   16.2733   -4.2194   -4.1447 O   0  0  0  0  0  0  0  0  0  0  0  0
   17.3683   -4.2970   -3.2494 C   0  0  0  0  0  0  0  0  0  0  0  0
   17.6805   -5.5954   -3.0400 F   0  0  0  0  0  0  0  0  0  0  0  0
   18.4302   -3.7216   -3.8581 F   0  0  0  0  0  0  0  0  0  0  0  0
 43 44  1  0  0  0
 44 45  1  0  0  0
 44 37  1  0  0  0
 37 38  2  0  0  0
 38 39  1  0  0  0
 39 40  2  0  0  0
 40 36  1  0  0  0
 36 30  1  0  0  0
 30 31  2  0  0  0
 31 32  1  0  0  0
 32 33  2  0  0  0
 33 26  1  0  0  0
 26 27  2  0  0  0
 26 28  1  0  0  0
 28 25  1  0  0  0
 25  1  1  0  0  0
  1  2  2  0  0  0
  1  3  1  0  0  0
  3  4  1  0  0  0
  4  5  1  0  0  0
  5 46  1  0  0  0
 46 47  1  0  0  0
 47 48  1  0  0  0
 47 49  1  0  0  0
  5  6  1  0  0  0
  6  7  1  0  0  0
  7  8  1  0  0  0
  8  9  2  0  0  0
  8 10  1  0  0  0
 10 12  1  0  0  0
 12 13  1  0  0  0
 12 14  1  0  0  0
 14 15  2  0  0  0
 15 16  1  0  0  0
 16 19  1  0  0  0
 19 20  2  0  0  0
 19 21  1  0  0  0
 16 17  2  0  0  0
 17 18  1  0  0  0
 33 34  1  0  0  0
 34 35  2  0  0  0
 40 41  1  0  0  0
 41 42  2  0  0  0
 42 37  1  0  0  0
 35 30  1  0  0  0
  7  3  1  0  0  0
 18 14  1  0  0  0
 28 29  1  0  0  0
 10 11  1  0  0  0
 20 22  1  0  0  0
 21 23  1  0  0  0
 21 24  1  0  0  0
M  END
> <minimizedAffinity>
-9.60902

$$$$
