L4:P09871:27252
     RDKit          3D

 79 82  0  0  0  0  0  0  0  0999 V2000
    5.5749   -3.1272    5.4165 C   0  0  0  0  0  0  0  0  0  0  0  0
    4.3753   -3.0353    4.4707 C   0  0  0  0  0  0  0  0  0  0  0  0
    3.0605   -3.0102    5.2548 C   0  0  0  0  0  0  0  0  0  0  0  0
    4.4874   -1.8413    3.5386 C   0  0  0  0  0  0  0  0  0  0  0  0
    4.5674   -2.0465    2.1518 C   0  0  0  0  0  0  0  0  0  0  0  0
    4.6452   -0.9629    1.2746 C   0  0  0  0  0  0  0  0  0  0  0  0
    4.6363    0.3360    1.7794 C   0  0  0  0  0  0  0  0  0  0  0  0
    4.7200    1.4133    0.9275 O   0  0  0  0  0  0  0  0  0  0  0  0
    3.5291    1.7298    0.3136 C   0  0  0  0  0  0  0  0  0  0  0  0
    3.3728    1.4396   -1.0407 C   0  0  0  0  0  0  0  0  0  0  0  0
    2.1789    1.7719   -1.6842 C   0  0  0  0  0  0  0  0  0  0  0  0
    1.1459    2.4022   -0.9759 C   0  0  0  0  0  0  0  0  0  0  0  0
   -0.1040    2.7465   -1.7068 C   0  0  0  0  0  0  0  0  0  0  0  0
   -0.0834    2.9264   -2.9199 O   0  0  0  0  0  0  0  0  0  0  0  0
   -1.2568    2.8194   -0.9577 N   0  0  0  0  0  0  0  0  0  0  0  0
   -2.5385    3.0998   -1.5788 C   0  0  0  0  0  0  0  0  0  0  0  0
   -3.2285    1.7657   -1.8783 C   0  0  0  0  0  0  0  0  0  0  0  0
   -3.6871    1.0993   -0.9402 O   0  0  0  0  0  0  0  0  0  0  0  0
   -3.1908    1.2520   -3.1549 N   0  0  0  0  0  0  0  0  0  0  0  0
   -2.8173    1.9792   -4.3617 C   0  0  0  0  0  0  0  0  0  0  0  0
   -3.7220    1.3961   -5.4493 C   0  0  2  0  0  0  0  0  0  0  0  0
   -5.0030    2.0239   -5.3643 O   0  0  0  0  0  0  0  0  0  0  0  0
   -5.6875    2.0179   -6.6044 C   0  0  0  0  0  0  0  0  0  0  0  0
   -5.7947    0.7452   -7.0472 F   0  0  0  0  0  0  0  0  0  0  0  0
   -6.9414    2.4709   -6.3767 F   0  0  0  0  0  0  0  0  0  0  0  0
   -3.8118   -0.0705   -5.0456 C   0  0  0  0  0  0  0  0  0  0  0  0
   -3.7733   -0.0567   -3.5065 C   0  0  1  0  0  0  0  0  0  0  0  0
   -2.9865   -1.2945   -2.9951 C   0  0  0  0  0  0  0  0  0  0  0  0
   -2.8427   -2.3153   -3.6667 O   0  0  0  0  0  0  0  0  0  0  0  0
   -2.5968   -1.2337   -1.6814 N   0  0  0  0  0  0  0  0  0  0  0  0
   -1.8866   -2.2998   -1.0068 C   0  0  2  0  0  0  0  0  0  0  0  0
   -2.8621   -3.3377   -0.4547 C   0  0  0  0  0  0  0  0  0  0  0  0
   -1.0604   -1.6905    0.1013 C   0  0  0  0  0  0  0  0  0  0  0  0
   -1.4283   -0.7699    1.0686 C   0  0  0  0  0  0  0  0  0  0  0  0
   -0.3647   -0.4150    1.9735 C   0  0  0  0  0  0  0  0  0  0  0  0
   -0.4348    0.5383    3.0750 C   0  0  0  0  0  0  0  0  0  0  0  0
    0.6072    1.0496    3.6341 N   0  0  0  0  0  0  0  0  0  0  0  0
   -1.6739    0.8739    3.4873 N   0  0  0  0  0  0  0  0  0  0  0  0
    0.7733   -1.1292    1.6441 C   0  0  0  0  0  0  0  0  0  0  0  0
    0.5791   -2.1442    0.2865 S   0  0  0  0  0  0  0  0  0  0  0  0
    1.3285    2.7273    0.3746 C   0  0  0  0  0  0  0  0  0  0  0  0
    2.5241    2.3959    1.0164 C   0  0  0  0  0  0  0  0  0  0  0  0
    4.5993    0.5595    3.1534 C   0  0  0  0  0  0  0  0  0  0  0  0
    4.5125   -0.5249    4.0282 C   0  0  0  0  0  0  0  0  0  0  0  0
    6.5147   -3.1608    4.8540 H   0  0  0  0  0  0  0  0  0  0  0  0
    5.6256   -2.2723    6.0996 H   0  0  0  0  0  0  0  0  0  0  0  0
    5.5159   -4.0360    6.0253 H   0  0  0  0  0  0  0  0  0  0  0  0
    4.3708   -3.9516    3.8654 H   0  0  0  0  0  0  0  0  0  0  0  0
    2.2010   -2.9553    4.5770 H   0  0  0  0  0  0  0  0  0  0  0  0
    2.9546   -3.9187    5.8576 H   0  0  0  0  0  0  0  0  0  0  0  0
    3.0048   -2.1524    5.9340 H   0  0  0  0  0  0  0  0  0  0  0  0
    4.5628   -3.0545    1.7419 H   0  0  0  0  0  0  0  0  0  0  0  0
    4.7063   -1.1370    0.2046 H   0  0  0  0  0  0  0  0  0  0  0  0
    4.1727    0.9546   -1.5928 H   0  0  0  0  0  0  0  0  0  0  0  0
    2.0544    1.5382   -2.7397 H   0  0  0  0  0  0  0  0  0  0  0  0
   -1.2581    2.5118    0.0065 H   0  0  0  0  0  0  0  0  0  0  0  0
   -2.4054    3.7355   -2.4521 H   0  0  0  0  0  0  0  0  0  0  0  0
   -3.1490    3.6444   -0.8516 H   0  0  0  0  0  0  0  0  0  0  0  0
   -2.9646    3.0547   -4.2567 H   0  0  0  0  0  0  0  0  0  0  0  0
   -1.7662    1.7549   -4.5676 H   0  0  0  0  0  0  0  0  0  0  0  0
   -3.2840    1.5449   -6.4428 H   0  0  0  0  0  0  0  0  0  0  0  0
   -5.1957    2.6468   -7.3530 H   0  0  0  0  0  0  0  0  0  0  0  0
   -2.9459   -0.6008   -5.4603 H   0  0  0  0  0  0  0  0  0  0  0  0
   -4.7168   -0.5716   -5.4011 H   0  0  0  0  0  0  0  0  0  0  0  0
   -4.7843   -0.1014   -3.0837 H   0  0  0  0  0  0  0  0  0  0  0  0
   -2.9185   -0.4346   -1.1405 H   0  0  0  0  0  0  0  0  0  0  0  0
   -1.2374   -2.7896   -1.7433 H   0  0  0  0  0  0  0  0  0  0  0  0
   -3.4480   -3.7913   -1.2614 H   0  0  0  0  0  0  0  0  0  0  0  0
   -3.5707   -2.8889    0.2514 H   0  0  0  0  0  0  0  0  0  0  0  0
   -2.3299   -4.1396    0.0686 H   0  0  0  0  0  0  0  0  0  0  0  0
   -2.4272   -0.3528    1.1123 H   0  0  0  0  0  0  0  0  0  0  0  0
    1.4653    0.6971    3.2020 H   0  0  0  0  0  0  0  0  0  0  0  0
   -2.5102    0.3973    3.1879 H   0  0  0  0  0  0  0  0  0  0  0  0
   -1.7379    1.5039    4.2755 H   0  0  0  0  0  0  0  0  0  0  0  0
    1.7323   -1.1155    2.1396 H   0  0  0  0  0  0  0  0  0  0  0  0
    0.5685    3.2596    0.9390 H   0  0  0  0  0  0  0  0  0  0  0  0
    2.6663    2.6666    2.0592 H   0  0  0  0  0  0  0  0  0  0  0  0
    4.6276    1.5725    3.5446 H   0  0  0  0  0  0  0  0  0  0  0  0
    4.4657   -0.3321    5.0980 H   0  0  0  0  0  0  0  0  0  0  0  0
  1  2  1  0
  2  3  1  0
  2  4  1  0
  4  5  2  0
  5  6  1  0
  6  7  2  0
  7  8  1  0
  8  9  1  0
  9 10  2  0
 10 11  1  0
 11 12  2  0
 12 13  1  0
 13 14  2  0
 13 15  1  0
 15 16  1  0
 16 17  1  0
 17 18  2  0
 17 19  1  0
 19 20  1  0
 20 21  1  0
 21 22  1  0
 22 23  1  0
 23 24  1  0
 23 25  1  0
 21 26  1  0
 26 27  1  0
 27 28  1  0
 28 29  2  0
 28 30  1  0
 30 31  1  0
 31 32  1  0
 31 33  1  0
 33 34  2  0
 34 35  1  0
 35 36  1  0
 36 37  2  3
 36 38  1  0
 35 39  2  0
 39 40  1  0
 12 41  1  0
 41 42  2  0
  7 43  1  0
 43 44  2  0
 44  4  1  0
 42  9  1  0
 27 19  1  0
 40 33  1  0
  1 45  1  0
  1 46  1  0
  1 47  1  0
  2 48  1  0
  3 49  1  0
  3 50  1  0
  3 51  1  0
  5 52  1  0
  6 53  1  0
 10 54  1  0
 11 55  1  0
 15 56  1  0
 16 57  1  0
 16 58  1  0
 20 59  1  0
 20 60  1  0
 21 61  1  6
 23 62  1  0
 26 63  1  0
 26 64  1  0
 27 65  1  1
 30 66  1  0
 31 67  1  6
 32 68  1  0
 32 69  1  0
 32 70  1  0
 34 71  1  0
 37 72  1  0
 38 73  1  0
 38 74  1  0
 39 75  1  0
 41 76  1  0
 42 77  1  0
 43 78  1  0
 44 79  1  0
M  END
>  <mol_id>  (1) 
27252

>  <source_index>  (1) 
1

>  <layer>  (1) 
L4

>  <uniprot>  (1) 
P09871

>  <paff>  (1) 
7

>  <smiles>  (1) 
CC(C)c1ccc(Oc2ccc(C(=O)NCC(=O)N3C[C@H](OC(F)F)C[C@H]3C(=O)N[C@H](C)c3cc(C(=N)N)cs3)cc2)cc1

$$$$
