L4:P09871:31406
     RDKit          3D

 72 77  0  0  0  0  0  0  0  0999 V2000
   -5.5336    0.8096    0.2644 C   0  0  0  0  0  0  0  0  0  0  0  0
   -4.4610    0.5690   -0.7996 C   0  0  1  0  0  0  0  0  0  0  0  0
   -3.5278   -0.4660   -0.3899 N   0  0  0  0  0  0  0  0  0  0  0  0
   -2.5524   -0.2231    0.5558 C   0  0  0  0  0  0  0  0  0  0  0  0
   -2.4140    0.8696    1.1004 O   0  0  0  0  0  0  0  0  0  0  0  0
   -1.6669   -1.4517    0.8685 C   0  0  2  0  0  0  0  0  0  0  0  0
   -2.4312   -2.5185    1.6470 C   0  0  0  0  0  0  0  0  0  0  0  0
   -2.2827   -2.0687    3.1030 C   0  0  0  0  0  0  0  0  0  0  0  0
   -0.8945   -1.3985    3.1420 C   0  0  0  0  0  0  0  0  0  0  0  0
   -0.5682   -1.0951    1.7525 N   0  0  0  0  0  0  0  0  0  0  0  0
    0.5716   -0.4937    1.2791 C   0  0  0  0  0  0  0  0  0  0  0  0
    0.7624   -0.3118    0.0729 O   0  0  0  0  0  0  0  0  0  0  0  0
    1.6080   -0.0689    2.3220 C   0  0  0  0  0  0  0  0  0  0  0  0
    2.7445    0.5410    1.6608 N   0  0  0  0  0  0  0  0  0  0  0  0
    3.8743    0.8903    2.3571 C   0  0  0  0  0  0  0  0  0  0  0  0
    3.9831    0.7323    3.5683 O   0  0  0  0  0  0  0  0  0  0  0  0
    4.9831    1.5059    1.5737 C   0  0  0  0  0  0  0  0  0  0  0  0
    5.8932    2.3373    2.2634 C   0  0  0  0  0  0  0  0  0  0  0  0
    6.9601    2.9465    1.5982 C   0  0  0  0  0  0  0  0  0  0  0  0
    7.1028    2.7036    0.2414 C   0  0  0  0  0  0  0  0  0  0  0  0
    6.2076    1.8641   -0.4569 C   0  0  0  0  0  0  0  0  0  0  0  0
    5.1482    1.2572    0.2011 C   0  0  0  0  0  0  0  0  0  0  0  0
    6.6185    1.7943   -1.8439 C   0  0  0  0  0  0  0  0  0  0  0  0
    6.0695    1.1079   -2.9162 C   0  0  0  0  0  0  0  0  0  0  0  0
    6.6874    1.2272   -4.1657 C   0  0  0  0  0  0  0  0  0  0  0  0
    7.8309    2.0221   -4.3213 C   0  0  0  0  0  0  0  0  0  0  0  0
    8.3991    2.1157   -5.5308 F   0  0  0  0  0  0  0  0  0  0  0  0
    8.3896    2.7153   -3.2528 C   0  0  0  0  0  0  0  0  0  0  0  0
    7.7723    2.5926   -2.0176 C   0  0  0  0  0  0  0  0  0  0  0  0
    8.1716    3.2365   -0.7009 C   0  0  0  0  0  0  0  0  0  0  0  0
    8.1703    4.5971   -0.7695 F   0  0  0  0  0  0  0  0  0  0  0  0
    9.4286    2.8823   -0.3129 F   0  0  0  0  0  0  0  0  0  0  0  0
   -2.3516   -3.2040    3.9729 O   0  0  0  0  0  0  0  0  0  0  0  0
   -3.1921   -2.7775    5.0454 C   0  0  0  0  0  0  0  0  0  0  0  0
   -4.1449   -1.8267    4.3740 C   0  0  0  0  0  0  0  0  0  0  0  0
   -3.3186   -1.1372    3.4370 O   0  0  0  0  0  0  0  0  0  0  0  0
   -5.0751    0.1311   -2.1072 C   0  0  0  0  0  0  0  0  0  0  0  0
   -5.9424   -0.9184   -2.3564 C   0  0  0  0  0  0  0  0  0  0  0  0
   -6.3082   -1.0483   -3.7419 C   0  0  0  0  0  0  0  0  0  0  0  0
   -7.2016   -2.0556   -4.2943 C   0  0  0  0  0  0  0  0  0  0  0  0
   -8.1622   -2.5636   -3.6052 N   0  0  0  0  0  0  0  0  0  0  0  0
   -6.9537   -2.4404   -5.5617 N   0  0  0  0  0  0  0  0  0  0  0  0
   -5.6911   -0.0587   -4.4864 C   0  0  0  0  0  0  0  0  0  0  0  0
   -4.7030    0.9729   -3.5504 S   0  0  0  0  0  0  0  0  0  0  0  0
   -6.0763   -0.1108    0.5089 H   0  0  0  0  0  0  0  0  0  0  0  0
   -5.0901    1.1781    1.1953 H   0  0  0  0  0  0  0  0  0  0  0  0
   -6.2640    1.5518   -0.0759 H   0  0  0  0  0  0  0  0  0  0  0  0
   -3.8943    1.4993   -0.9314 H   0  0  0  0  0  0  0  0  0  0  0  0
   -3.5544   -1.3581   -0.8648 H   0  0  0  0  0  0  0  0  0  0  0  0
   -1.2810   -1.8409   -0.0807 H   0  0  0  0  0  0  0  0  0  0  0  0
   -1.9537   -3.4963    1.5055 H   0  0  0  0  0  0  0  0  0  0  0  0
   -3.4793   -2.6076    1.3435 H   0  0  0  0  0  0  0  0  0  0  0  0
   -0.1220   -2.0664    3.5369 H   0  0  0  0  0  0  0  0  0  0  0  0
   -0.8950   -0.4683    3.7187 H   0  0  0  0  0  0  0  0  0  0  0  0
    1.9526   -0.9403    2.8869 H   0  0  0  0  0  0  0  0  0  0  0  0
    1.1713    0.6668    3.0040 H   0  0  0  0  0  0  0  0  0  0  0  0
    2.6246    0.7539    0.6768 H   0  0  0  0  0  0  0  0  0  0  0  0
    5.7622    2.5100    3.3313 H   0  0  0  0  0  0  0  0  0  0  0  0
    7.6563    3.5875    2.1313 H   0  0  0  0  0  0  0  0  0  0  0  0
    4.4853    0.5893   -0.3373 H   0  0  0  0  0  0  0  0  0  0  0  0
    5.1835    0.4911   -2.8035 H   0  0  0  0  0  0  0  0  0  0  0  0
    6.2859    0.7045   -5.0293 H   0  0  0  0  0  0  0  0  0  0  0  0
    9.2745    3.3260   -3.3918 H   0  0  0  0  0  0  0  0  0  0  0  0
   -3.6874   -3.6316    5.5134 H   0  0  0  0  0  0  0  0  0  0  0  0
   -2.5671   -2.2675    5.7865 H   0  0  0  0  0  0  0  0  0  0  0  0
   -4.6181   -1.1244    5.0645 H   0  0  0  0  0  0  0  0  0  0  0  0
   -4.9185   -2.3618    3.8128 H   0  0  0  0  0  0  0  0  0  0  0  0
   -6.2929   -1.5840   -1.5759 H   0  0  0  0  0  0  0  0  0  0  0  0
   -8.2141   -2.1280   -2.6815 H   0  0  0  0  0  0  0  0  0  0  0  0
   -6.1457   -2.1467   -6.0881 H   0  0  0  0  0  0  0  0  0  0  0  0
   -7.5587   -3.1485   -5.9554 H   0  0  0  0  0  0  0  0  0  0  0  0
   -5.7834    0.1282   -5.5474 H   0  0  0  0  0  0  0  0  0  0  0  0
  1  2  1  0
  2  3  1  0
  3  4  1  0
  4  5  2  0
  4  6  1  0
  6  7  1  0
  7  8  1  0
  8  9  1  0
  9 10  1  0
 10 11  1  0
 11 12  2  0
 11 13  1  0
 13 14  1  0
 14 15  1  0
 15 16  2  0
 15 17  1  0
 17 18  2  0
 18 19  1  0
 19 20  2  0
 20 21  1  0
 21 22  2  0
 21 23  1  0
 23 24  2  0
 24 25  1  0
 25 26  2  0
 26 27  1  0
 26 28  1  0
 28 29  2  0
 29 30  1  0
 30 31  1  0
 30 32  1  0
  8 33  1  0
 33 34  1  0
 34 35  1  0
 35 36  1  0
  2 37  1  0
 37 38  2  0
 38 39  1  0
 39 40  1  0
 40 41  2  3
 40 42  1  0
 39 43  2  0
 43 44  1  0
 10  6  1  0
 22 17  1  0
 29 23  1  0
 44 37  1  0
 36  8  1  0
 30 20  1  0
  1 45  1  0
  1 46  1  0
  1 47  1  0
  2 48  1  6
  3 49  1  0
  6 50  1  6
  7 51  1  0
  7 52  1  0
  9 53  1  0
  9 54  1  0
 13 55  1  0
 13 56  1  0
 14 57  1  0
 18 58  1  0
 19 59  1  0
 22 60  1  0
 24 61  1  0
 25 62  1  0
 28 63  1  0
 34 64  1  0
 34 65  1  0
 35 66  1  0
 35 67  1  0
 38 68  1  0
 41 69  1  0
 42 70  1  0
 42 71  1  0
 43 72  1  0
M  END
>  <mol_id>  (1) 
31406

>  <source_index>  (1) 
2

>  <layer>  (1) 
L4

>  <uniprot>  (1) 
P09871

>  <paff>  (1) 
7

>  <smiles>  (1) 
C[C@@H](NC(=O)[C@@H]1CC2(CN1C(=O)CNC(=O)c1ccc3c(c1)-c1ccc(F)cc1C3(F)F)OCCO2)c1cc(C(=N)N)cs1

$$$$
