L4:P09871:31406


 49 54  0  0  0  0  0  0  0  0999 V2000
   12.6284   -3.6283   -8.2660 C   0  0  0  0  0  0  0  0  0  0  0  0
   12.7488   -5.0449   -8.8201 C   0  0  0  0  0  0  0  0  0  0  0  0
   12.2473   -5.9195   -7.6677 C   0  0  0  0  0  0  0  0  0  0  0  0
   12.6741   -5.1451   -6.4044 C   0  0  0  0  0  0  0  0  0  0  0  0
   12.9317   -3.7802   -6.8516 N   0  0  0  0  0  0  0  0  0  0  0  0
   13.3402   -2.7177   -6.0840 C   0  0  0  0  0  0  0  0  0  0  0  0
   13.5616   -1.6053   -6.5718 O   0  0  0  0  0  0  0  0  0  0  0  0
   12.8610   -7.2116   -7.7341 O   0  0  0  0  0  0  0  0  0  0  0  0
   11.7931   -8.1241   -7.4782 C   0  0  0  0  0  0  0  0  0  0  0  0
   10.5987   -7.4244   -8.0669 C   0  0  0  0  0  0  0  0  0  0  0  0
   10.8227   -6.0542   -7.7377 O   0  0  0  0  0  0  0  0  0  0  0  0
   10.8588   -2.0905   -7.5438 N   0  0  0  0  0  0  0  0  0  0  0  0
   11.2098   -3.0486   -8.4731 C   0  0  0  0  0  0  0  0  0  0  0  0
   10.4608   -3.3958   -9.3831 O   0  0  0  0  0  0  0  0  0  0  0  0
   11.4779   -1.8927   -6.7695 H   0  0  0  0  0  0  0  0  0  0  0  0
    9.6610   -0.0670   -8.2851 C   0  0  0  0  0  0  0  0  0  0  0  0
    9.5676   -1.4267   -7.5900 C   0  0  0  0  0  0  0  0  0  0  0  0
    9.0830   -1.2826   -6.1677 C   0  0  0  0  0  0  0  0  0  0  0  0
    7.8185   -1.5024   -5.6495 C   0  0  0  0  0  0  0  0  0  0  0  0
    7.7202   -1.2428   -4.2377 C   0  0  0  0  0  0  0  0  0  0  0  0
    8.9493   -0.8398   -3.7465 C   0  0  0  0  0  0  0  0  0  0  0  0
   10.1640   -0.7668   -4.9447 S   0  0  0  0  0  0  0  0  0  0  0  0
    6.5195   -1.3886   -3.4283 C   0  0  0  0  0  0  0  0  0  0  0  0
    5.3519   -1.1013   -3.8864 N   0  0  0  0  0  0  0  0  0  0  0  0
    6.7019   -1.8226   -2.1657 N   0  0  0  0  0  0  0  0  0  0  0  0
    5.4079   -0.8197   -4.8678 H   0  0  0  0  0  0  0  0  0  0  0  0
    7.6080   -1.9483   -1.7422 H   0  0  0  0  0  0  0  0  0  0  0  0
    5.8781   -1.9175   -1.5871 H   0  0  0  0  0  0  0  0  0  0  0  0
   13.5229   -2.9815   -4.5876 C   0  0  0  0  0  0  0  0  0  0  0  0
   14.8561   -2.5841   -4.1809 N   0  0  0  0  0  0  0  0  0  0  0  0
   15.9684   -3.2569   -4.6209 C   0  0  0  0  0  0  0  0  0  0  0  0
   15.9043   -4.2361   -5.3562 O   0  0  0  0  0  0  0  0  0  0  0  0
   14.9084   -1.8311   -3.5040 H   0  0  0  0  0  0  0  0  0  0  0  0
   17.2889   -2.7574   -4.1425 C   0  0  0  0  0  0  0  0  0  0  0  0
   18.4507   -3.3840   -4.6454 C   0  0  0  0  0  0  0  0  0  0  0  0
   19.7238   -2.9691   -4.2468 C   0  0  0  0  0  0  0  0  0  0  0  0
   19.8122   -1.9178   -3.3483 C   0  0  0  0  0  0  0  0  0  0  0  0
   18.6590   -1.2745   -2.8483 C   0  0  0  0  0  0  0  0  0  0  0  0
   17.3939   -1.6837   -3.2430 C   0  0  0  0  0  0  0  0  0  0  0  0
   19.0679   -0.2163   -1.9481 C   0  0  0  0  0  0  0  0  0  0  0  0
   18.3154    0.6887   -1.2153 C   0  0  0  0  0  0  0  0  0  0  0  0
   18.9900    1.6163   -0.4142 C   0  0  0  0  0  0  0  0  0  0  0  0
   20.3902    1.6237   -0.3590 C   0  0  0  0  0  0  0  0  0  0  0  0
   21.0064    2.5246    0.4177 F   0  0  0  0  0  0  0  0  0  0  0  0
   21.1549    0.7203   -1.0893 C   0  0  0  0  0  0  0  0  0  0  0  0
   20.4800   -0.1960   -1.8810 C   0  0  0  0  0  0  0  0  0  0  0  0
   21.0660   -1.2808   -2.7683 C   0  0  0  0  0  0  0  0  0  0  0  0
   21.8220   -2.1705   -2.0663 F   0  0  0  0  0  0  0  0  0  0  0  0
   21.8838   -0.7736   -3.7327 F   0  0  0  0  0  0  0  0  0  0  0  0
 16 17  1  0  0  0
 17 12  1  0  0  0
 12 13  1  0  0  0
 13 14  2  0  0  0
 13  1  1  0  0  0
  1  2  1  0  0  0
  2  3  1  0  0  0
  3  4  1  0  0  0
  4  5  1  0  0  0
  5  6  1  0  0  0
  6  7  2  0  0  0
  6 29  1  0  0  0
 29 30  1  0  0  0
 30 31  1  0  0  0
 31 32  2  0  0  0
 31 34  1  0  0  0
 34 35  2  0  0  0
 35 36  1  0  0  0
 36 37  2  0  0  0
 37 38  1  0  0  0
 38 39  2  0  0  0
 38 40  1  0  0  0
 40 41  2  0  0  0
 41 42  1  0  0  0
 42 43  2  0  0  0
 43 44  1  0  0  0
 43 45  1  0  0  0
 45 46  2  0  0  0
 46 47  1  0  0  0
 47 48  1  0  0  0
 47 49  1  0  0  0
  3  8  1  0  0  0
  8  9  1  0  0  0
  9 10  1  0  0  0
 10 11  1  0  0  0
 17 18  1  0  0  0
 18 19  2  0  0  0
 19 20  1  0  0  0
 20 23  1  0  0  0
 23 24  2  0  0  0
 23 25  1  0  0  0
 20 21  2  0  0  0
 21 22  1  0  0  0
  5  1  1  0  0  0
 39 34  1  0  0  0
 46 40  1  0  0  0
 22 18  1  0  0  0
 11  3  1  0  0  0
 47 37  1  0  0  0
 12 15  1  0  0  0
 30 33  1  0  0  0
 24 26  1  0  0  0
 25 27  1  0  0  0
 25 28  1  0  0  0
M  END
> <minimizedAffinity>
-10.24486

$$$$
