L4:P09871:58779
     RDKit          3D

 70 74  0  0  0  0  0  0  0  0999 V2000
    1.4987    1.9449    2.4195 C   0  0  0  0  0  0  0  0  0  0  0  0
    2.6807    1.2570    1.7386 C   0  0  1  0  0  0  0  0  0  0  0  0
    2.4651   -0.1737    1.6280 N   0  0  0  0  0  0  0  0  0  0  0  0
    2.6540   -1.0388    2.6782 C   0  0  0  0  0  0  0  0  0  0  0  0
    3.0678   -0.6794    3.7777 O   0  0  0  0  0  0  0  0  0  0  0  0
    2.4779   -2.5325    2.3300 C   0  0  2  0  0  0  0  0  0  0  0  0
    3.8607   -3.1516    2.0781 C   0  0  0  0  0  0  0  0  0  0  0  0
    3.7061   -4.0242    0.8360 C   0  0  1  0  0  0  0  0  0  0  0  0
    3.4481   -5.7572    1.1869 S   0  0  0  0  0  6  0  0  0  0  0  0
    2.0566   -5.8721    2.2895 C   0  0  0  0  0  0  0  0  0  0  0  0
    3.0608   -6.3936   -0.0587 O   0  0  0  0  0  0  0  0  0  0  0  0
    4.6123   -6.2281    1.9124 O   0  0  0  0  0  0  0  0  0  0  0  0
    2.5482   -3.4112    0.0730 C   0  0  0  0  0  0  0  0  0  0  0  0
    1.7249   -2.7818    1.0928 N   0  0  0  0  0  0  0  0  0  0  0  0
    0.3638   -2.5615    1.0370 C   0  0  0  0  0  0  0  0  0  0  0  0
   -0.2623   -2.2037    2.0375 O   0  0  0  0  0  0  0  0  0  0  0  0
   -0.3458   -2.7912   -0.3042 C   0  0  0  0  0  0  0  0  0  0  0  0
   -1.4327   -1.8370   -0.4074 N   0  0  0  0  0  0  0  0  0  0  0  0
   -1.2777   -0.6357   -1.0558 C   0  0  0  0  0  0  0  0  0  0  0  0
   -0.2970   -0.3514   -1.7356 O   0  0  0  0  0  0  0  0  0  0  0  0
   -2.3809    0.3432   -0.8884 C   0  0  0  0  0  0  0  0  0  0  0  0
   -3.0238    0.4964    0.3498 C   0  0  0  0  0  0  0  0  0  0  0  0
   -4.0545    1.4346    0.5127 C   0  0  0  0  0  0  0  0  0  0  0  0
   -4.4300    2.2281   -0.5879 C   0  0  0  0  0  0  0  0  0  0  0  0
   -3.7554    2.0539   -1.7919 C   0  0  0  0  0  0  0  0  0  0  0  0
   -2.7262    1.1372   -1.9899 C   0  0  0  0  0  0  0  0  0  0  0  0
   -4.2418    2.9004   -2.7396 O   0  0  0  0  0  0  0  0  0  0  0  0
   -5.2307    3.6293   -2.1534 C   0  0  0  0  0  0  0  0  0  0  0  0
   -5.9857    4.6154   -2.7844 C   0  0  0  0  0  0  0  0  0  0  0  0
   -6.9575    5.2526   -2.0061 C   0  0  0  0  0  0  0  0  0  0  0  0
   -7.1501    4.9076   -0.6660 C   0  0  0  0  0  0  0  0  0  0  0  0
   -6.3741    3.9102   -0.0577 C   0  0  0  0  0  0  0  0  0  0  0  0
   -5.3903    3.2556   -0.8230 C   0  0  0  0  0  0  0  0  0  0  0  0
    2.8988    1.7686    0.3379 C   0  0  0  0  0  0  0  0  0  0  0  0
    1.9907    1.8633   -0.7007 C   0  0  0  0  0  0  0  0  0  0  0  0
    2.5658    2.3246   -1.9342 C   0  0  0  0  0  0  0  0  0  0  0  0
    1.8739    2.4743   -3.2063 C   0  0  0  0  0  0  0  0  0  0  0  0
    2.2342    3.3354   -4.0935 N   0  0  0  0  0  0  0  0  0  0  0  0
    0.8338    1.6420   -3.4056 N   0  0  0  0  0  0  0  0  0  0  0  0
    3.9084    2.6040   -1.7485 C   0  0  0  0  0  0  0  0  0  0  0  0
    4.4503    2.2915   -0.1580 S   0  0  0  0  0  0  0  0  0  0  0  0
    1.6411    3.0306    2.4510 H   0  0  0  0  0  0  0  0  0  0  0  0
    1.3813    1.5899    3.4491 H   0  0  0  0  0  0  0  0  0  0  0  0
    0.5549    1.7429    1.8997 H   0  0  0  0  0  0  0  0  0  0  0  0
    3.5735    1.4196    2.3551 H   0  0  0  0  0  0  0  0  0  0  0  0
    2.0977   -0.5410    0.7602 H   0  0  0  0  0  0  0  0  0  0  0  0
    1.9531   -3.0135    3.1624 H   0  0  0  0  0  0  0  0  0  0  0  0
    4.6018   -2.3687    1.8709 H   0  0  0  0  0  0  0  0  0  0  0  0
    4.2182   -3.6988    2.9563 H   0  0  0  0  0  0  0  0  0  0  0  0
    4.6191   -4.0060    0.2291 H   0  0  0  0  0  0  0  0  0  0  0  0
    1.8808   -6.9318    2.4903 H   0  0  0  0  0  0  0  0  0  0  0  0
    1.1759   -5.4453    1.8096 H   0  0  0  0  0  0  0  0  0  0  0  0
    2.2912   -5.3630    3.2243 H   0  0  0  0  0  0  0  0  0  0  0  0
    1.9682   -4.1184   -0.5243 H   0  0  0  0  0  0  0  0  0  0  0  0
    2.9011   -2.6073   -0.5831 H   0  0  0  0  0  0  0  0  0  0  0  0
    0.3368   -2.6646   -1.1472 H   0  0  0  0  0  0  0  0  0  0  0  0
   -0.7678   -3.7997   -0.3119 H   0  0  0  0  0  0  0  0  0  0  0  0
   -2.2599   -2.0145    0.1488 H   0  0  0  0  0  0  0  0  0  0  0  0
   -2.7130   -0.0877    1.2144 H   0  0  0  0  0  0  0  0  0  0  0  0
   -4.5447    1.5527    1.4751 H   0  0  0  0  0  0  0  0  0  0  0  0
   -2.2322    1.0486   -2.9500 H   0  0  0  0  0  0  0  0  0  0  0  0
   -5.8219    4.8718   -3.8240 H   0  0  0  0  0  0  0  0  0  0  0  0
   -7.5722    6.0312   -2.4537 H   0  0  0  0  0  0  0  0  0  0  0  0
   -7.9129    5.4211   -0.0840 H   0  0  0  0  0  0  0  0  0  0  0  0
   -6.5327    3.6523    0.9850 H   0  0  0  0  0  0  0  0  0  0  0  0
    0.9464    1.5988   -0.5885 H   0  0  0  0  0  0  0  0  0  0  0  0
    3.0182    3.8975   -3.7563 H   0  0  0  0  0  0  0  0  0  0  0  0
    0.3471    1.7067   -4.2872 H   0  0  0  0  0  0  0  0  0  0  0  0
    0.5661    0.8953   -2.7659 H   0  0  0  0  0  0  0  0  0  0  0  0
    4.6199    2.9561   -2.4830 H   0  0  0  0  0  0  0  0  0  0  0  0
  1  2  1  0
  2  3  1  0
  3  4  1  0
  4  5  2  0
  4  6  1  0
  6  7  1  0
  7  8  1  0
  8  9  1  0
  9 10  1  0
  9 11  2  0
  9 12  2  0
  8 13  1  0
 13 14  1  0
 14 15  1  0
 15 16  2  0
 15 17  1  0
 17 18  1  0
 18 19  1  0
 19 20  2  0
 19 21  1  0
 21 22  2  0
 22 23  1  0
 23 24  2  0
 24 25  1  0
 25 26  2  0
 25 27  1  0
 27 28  1  0
 28 29  2  0
 29 30  1  0
 30 31  2  0
 31 32  1  0
 32 33  2  0
  2 34  1  0
 34 35  2  0
 35 36  1  0
 36 37  1  0
 37 38  2  3
 37 39  1  0
 36 40  2  0
 40 41  1  0
 14  6  1  0
 26 21  1  0
 33 28  1  0
 41 34  1  0
 33 24  1  0
  1 42  1  0
  1 43  1  0
  1 44  1  0
  2 45  1  1
  3 46  1  0
  6 47  1  1
  7 48  1  0
  7 49  1  0
  8 50  1  6
 10 51  1  0
 10 52  1  0
 10 53  1  0
 13 54  1  0
 13 55  1  0
 17 56  1  0
 17 57  1  0
 18 58  1  0
 22 59  1  0
 23 60  1  0
 26 61  1  0
 29 62  1  0
 30 63  1  0
 31 64  1  0
 32 65  1  0
 35 66  1  0
 38 67  1  0
 39 68  1  0
 39 69  1  0
 40 70  1  0
M  END
>  <mol_id>  (1) 
58779

>  <source_index>  (1) 
3

>  <layer>  (1) 
L4

>  <uniprot>  (1) 
P09871

>  <paff>  (1) 
7

>  <smiles>  (1) 
C[C@@H](NC(=O)[C@@H]1C[C@@H](S(C)(=O)=O)CN1C(=O)CNC(=O)c1ccc2c(c1)oc1ccccc12)c1cc(C(=N)N)cs1

$$$$
