L4:P09871:58779
 OpenBabel09212617543D

 70 74  0  0  0  0  0  0  0  0999 V2000
   13.8300   -2.4011   -3.9408 C   0  0  2  0  0  0  0  0  0  0  0  0
   15.3004   -1.9719   -3.8285 C   0  0  0  0  0  0  0  0  0  0  0  0
   15.9854   -2.5001   -5.0854 C   0  0  2  0  0  0  0  0  0  0  0  0
   14.8782   -2.6043   -6.1159 C   0  0  0  0  0  0  0  0  0  0  0  0
   13.6691   -2.8242   -5.3389 N   0  0  0  0  0  0  0  0  0  0  0  0
   12.5307   -3.4867   -5.7505 C   0  0  0  0  0  0  0  0  0  0  0  0
   11.6464   -3.7884   -4.9455 O   0  0  0  0  0  0  0  0  0  0  0  0
   11.6025   -1.5300   -3.3612 N   0  0  0  0  0  0  0  0  0  0  0  0
   12.9299   -1.2174   -3.5261 C   0  0  0  0  0  0  0  0  0  0  0  0
   13.3581   -0.0665   -3.4881 O   0  0  0  0  0  0  0  0  0  0  0  0
   11.3298   -2.5038   -3.3810 H   0  0  0  0  0  0  0  0  0  0  0  0
   10.2099   -0.5486   -1.5874 C   0  0  0  0  0  0  0  0  0  0  0  0
   10.5900   -0.5330   -3.0670 C   0  0  2  0  0  0  0  0  0  0  0  0
    9.4115   -0.8421   -3.9540 C   0  0  0  0  0  0  0  0  0  0  0  0
    8.0689   -0.8879   -3.6257 C   0  0  0  0  0  0  0  0  0  0  0  0
    7.2200   -1.2990   -4.7099 C   0  0  0  0  0  0  0  0  0  0  0  0
    7.9813   -1.5074   -5.8466 C   0  0  0  0  0  0  0  0  0  0  0  0
    9.6518   -1.2449   -5.5991 S   0  0  0  0  0  0  0  0  0  0  0  0
    5.7780   -1.4899   -4.6524 C   0  0  0  0  0  0  0  0  0  0  0  0
    5.0865   -1.8562   -5.6752 N   0  0  0  0  0  0  0  0  0  0  0  0
    5.2084   -1.2707   -3.4516 N   0  0  0  0  0  0  0  0  0  0  0  0
    5.6803   -1.9435   -6.5022 H   0  0  0  0  0  0  0  0  0  0  0  0
    4.2128   -1.4157   -3.3743 H   0  0  0  0  0  0  0  0  0  0  0  0
    5.7275   -1.0580   -2.6009 H   0  0  0  0  0  0  0  0  0  0  0  0
   16.8466   -4.0485   -4.8534 S   0  0  0  0  0  0  0  0  0  0  0  0
   16.9387   -4.3451   -3.1017 C   0  0  0  0  0  0  0  0  0  0  0  0
   16.0125   -5.0920   -5.4209 O   0  0  0  0  0  0  0  0  0  0  0  0
   18.2036   -3.8627   -5.3306 O   0  0  0  0  0  0  0  0  0  0  0  0
   12.4089   -3.8485   -7.2369 C   0  0  0  0  0  0  0  0  0  0  0  0
   11.7030   -5.1111   -7.3363 N   0  0  0  0  0  0  0  0  0  0  0  0
   12.3734   -6.3093   -7.3864 C   0  0  0  0  0  0  0  0  0  0  0  0
   13.5766   -6.4247   -7.1775 O   0  0  0  0  0  0  0  0  0  0  0  0
   10.7094   -5.0731   -7.5271 H   0  0  0  0  0  0  0  0  0  0  0  0
   11.5552   -7.5011   -7.7234 C   0  0  0  0  0  0  0  0  0  0  0  0
   10.4613   -7.3980   -8.5967 C   0  0  0  0  0  0  0  0  0  0  0  0
    9.6989   -8.5281   -8.9294 C   0  0  0  0  0  0  0  0  0  0  0  0
   10.0545   -9.7733   -8.3770 C   0  0  0  0  0  0  0  0  0  0  0  0
   11.1555   -9.8323   -7.5288 C   0  0  0  0  0  0  0  0  0  0  0  0
   11.9374   -8.7344   -7.1795 C   0  0  0  0  0  0  0  0  0  0  0  0
   11.3562  -11.1056   -7.0934 O   0  0  0  0  0  0  0  0  0  0  0  0
   10.3892  -11.8779   -7.6602 C   0  0  0  0  0  0  0  0  0  0  0  0
   10.2419  -13.2503   -7.4718 C   0  0  0  0  0  0  0  0  0  0  0  0
    9.1810  -13.8636   -8.1461 C   0  0  0  0  0  0  0  0  0  0  0  0
    8.3212  -13.1254   -8.9632 C   0  0  0  0  0  0  0  0  0  0  0  0
    8.4946  -11.7441   -9.1337 C   0  0  0  0  0  0  0  0  0  0  0  0
    9.5561  -11.1064   -8.4638 C   0  0  0  0  0  0  0  0  0  0  0  0
   13.5490   -3.2057   -3.2939 H   0  0  0  0  0  0  0  0  0  0  0  0
   15.7469   -2.3974   -2.9542 H   0  0  0  0  0  0  0  0  0  0  0  0
   15.3950   -0.9093   -3.7457 H   0  0  0  0  0  0  0  0  0  0  0  0
   16.7683   -1.8387   -5.3929 H   0  0  0  0  0  0  0  0  0  0  0  0
   15.0555   -3.4257   -6.7783 H   0  0  0  0  0  0  0  0  0  0  0  0
   14.8119   -1.7294   -6.7283 H   0  0  0  0  0  0  0  0  0  0  0  0
   11.0726   -0.3251   -0.9952 H   0  0  0  0  0  0  0  0  0  0  0  0
    9.8382   -1.5170   -1.3248 H   0  0  0  0  0  0  0  0  0  0  0  0
    9.4527    0.1853   -1.4059 H   0  0  0  0  0  0  0  0  0  0  0  0
   10.9544    0.4542   -3.2608 H   0  0  0  0  0  0  0  0  0  0  0  0
    7.7096   -0.6488   -2.6883 H   0  0  0  0  0  0  0  0  0  0  0  0
    7.5802   -1.7929   -6.7536 H   0  0  0  0  0  0  0  0  0  0  0  0
   15.9525   -4.4876   -2.7118 H   0  0  0  0  0  0  0  0  0  0  0  0
   17.3943   -3.5046   -2.6211 H   0  0  0  0  0  0  0  0  0  0  0  0
   17.5247   -5.2215   -2.9187 H   0  0  0  0  0  0  0  0  0  0  0  0
   13.3835   -3.9428   -7.6683 H   0  0  0  0  0  0  0  0  0  0  0  0
   11.8764   -3.0835   -7.7624 H   0  0  0  0  0  0  0  0  0  0  0  0
   10.2147   -6.4802   -8.9989 H   0  0  0  0  0  0  0  0  0  0  0  0
    8.8919   -8.4479   -9.5676 H   0  0  0  0  0  0  0  0  0  0  0  0
   12.7536   -8.8242   -6.5543 H   0  0  0  0  0  0  0  0  0  0  0  0
   10.8824  -13.7867   -6.8660 H   0  0  0  0  0  0  0  0  0  0  0  0
    9.0308  -14.8789   -8.0382 H   0  0  0  0  0  0  0  0  0  0  0  0
    7.5465  -13.6039   -9.4489 H   0  0  0  0  0  0  0  0  0  0  0  0
    7.8558  -11.2051   -9.7391 H   0  0  0  0  0  0  0  0  0  0  0  0
  1  2  1  0  0  0  0
  1 47  1  1  0  0  0
  2  3  1  0  0  0  0
  2 48  1  0  0  0  0
  2 49  1  0  0  0  0
  3 25  1  0  0  0  0
  3  4  1  0  0  0  0
  3 50  1  6  0  0  0
  4  5  1  0  0  0  0
  4 51  1  0  0  0  0
  4 52  1  0  0  0  0
  5  6  1  0  0  0  0
  5  1  1  0  0  0  0
  6  7  2  0  0  0  0
  6 29  1  0  0  0  0
  8  9  1  0  0  0  0
  8 11  1  0  0  0  0
  9 10  2  0  0  0  0
  9  1  1  0  0  0  0
 12 13  1  0  0  0  0
 12 53  1  0  0  0  0
 12 54  1  0  0  0  0
 12 55  1  0  0  0  0
 13  8  1  0  0  0  0
 13 14  1  0  0  0  0
 13 56  1  6  0  0  0
 14 15  2  0  0  0  0
 15 16  1  0  0  0  0
 15 57  1  0  0  0  0
 16 19  1  0  0  0  0
 16 17  2  0  0  0  0
 17 18  1  0  0  0  0
 17 58  1  0  0  0  0
 18 14  1  0  0  0  0
 19 20  2  0  0  0  0
 19 21  1  0  0  0  0
 20 22  1  0  0  0  0
 21 23  1  0  0  0  0
 21 24  1  0  0  0  0
 25 26  1  0  0  0  0
 25 27  2  0  0  0  0
 25 28  2  0  0  0  0
 26 59  1  0  0  0  0
 26 60  1  0  0  0  0
 26 61  1  0  0  0  0
 29 30  1  0  0  0  0
 29 62  1  0  0  0  0
 29 63  1  0  0  0  0
 30 31  1  0  0  0  0
 30 33  1  0  0  0  0
 31 32  2  0  0  0  0
 31 34  1  0  0  0  0
 34 35  2  0  0  0  0
 35 36  1  0  0  0  0
 35 64  1  0  0  0  0
 36 37  2  0  0  0  0
 36 65  1  0  0  0  0
 37 38  1  0  0  0  0
 38 39  2  0  0  0  0
 38 40  1  0  0  0  0
 39 34  1  0  0  0  0
 39 66  1  0  0  0  0
 40 41  1  0  0  0  0
 41 42  2  0  0  0  0
 42 43  1  0  0  0  0
 42 67  1  0  0  0  0
 43 44  2  0  0  0  0
 43 68  1  0  0  0  0
 44 45  1  0  0  0  0
 44 69  1  0  0  0  0
 45 46  2  0  0  0  0
 45 70  1  0  0  0  0
 46 41  1  0  0  0  0
 46 37  1  0  0  0  0
M  END
>  <minimizedAffinity>
-9.71534

$$$$
