L4:P09871:70932
     RDKit          3D

 79 83  0  0  0  0  0  0  0  0999 V2000
    9.0884   -2.9084   -2.7739 N   0  0  0  0  0  0  0  0  0  0  0  0
    7.9468   -3.7068   -2.3455 C   0  0  0  0  0  0  0  0  0  0  0  0
    6.6061   -3.1273   -2.7954 C   0  0  0  0  0  0  0  0  0  0  0  0
    6.2723   -1.7914   -2.1325 C   0  0  0  0  0  0  0  0  0  0  0  0
    4.8874   -1.2898   -2.5123 C   0  0  0  0  0  0  0  0  0  0  0  0
    4.1752   -1.8790   -3.3175 O   0  0  0  0  0  0  0  0  0  0  0  0
    4.5750   -0.1175   -1.8446 N   0  0  0  0  0  0  0  0  0  0  0  0
    3.3946    0.6047   -1.9749 C   0  0  0  0  0  0  0  0  0  0  0  0
    2.3269    0.3079   -2.7935 C   0  0  0  0  0  0  0  0  0  0  0  0
    1.0589    1.4505   -2.6658 S   0  0  0  0  0  0  0  0  0  0  0  0
    1.9141    2.3614   -1.4989 C   0  0  0  0  0  0  0  0  0  0  0  0
    1.3182    3.5983   -0.9044 C   0  0  0  0  0  0  0  0  0  0  0  0
    0.8695    3.2927    0.4308 N   0  0  0  0  0  0  0  0  0  0  0  0
    1.6450    3.5022    1.5468 C   0  0  0  0  0  0  0  0  0  0  0  0
    2.8063    3.9081    1.4837 O   0  0  0  0  0  0  0  0  0  0  0  0
    1.0333    3.0426    2.8850 C   0  0  2  0  0  0  0  0  0  0  0  0
    1.6882    1.7128    3.2761 C   0  0  0  0  0  0  0  0  0  0  0  0
    0.5880    0.9677    4.0187 C   0  0  0  0  0  0  0  0  0  0  0  0
   -0.6785    1.3960    3.2668 C   0  0  0  0  0  0  0  0  0  0  0  0
   -0.4044    2.7593    2.8321 N   0  0  0  0  0  0  0  0  0  0  0  0
   -1.3156    3.7837    2.7003 C   0  0  0  0  0  0  0  0  0  0  0  0
   -0.9556    4.9619    2.7763 O   0  0  0  0  0  0  0  0  0  0  0  0
   -2.8114    3.4527    2.5528 C   0  0  0  0  0  0  0  0  0  0  0  0
   -3.1650    2.1956    1.9142 N   0  0  0  0  0  0  0  0  0  0  0  0
   -2.7797    1.9364    0.6163 C   0  0  0  0  0  0  0  0  0  0  0  0
   -1.9623    2.6240    0.0149 O   0  0  0  0  0  0  0  0  0  0  0  0
   -3.3418    0.7110   -0.0079 C   0  0  0  0  0  0  0  0  0  0  0  0
   -2.5374   -0.0075   -0.9012 C   0  0  0  0  0  0  0  0  0  0  0  0
   -3.0249   -1.1670   -1.5064 C   0  0  0  0  0  0  0  0  0  0  0  0
   -4.3254   -1.5937   -1.2399 C   0  0  0  0  0  0  0  0  0  0  0  0
   -4.7396   -2.7596   -1.8417 O   0  0  0  0  0  0  0  0  0  0  0  0
   -5.9655   -2.7426   -2.4680 C   0  0  0  0  0  0  0  0  0  0  0  0
   -6.3500   -1.7254   -3.3489 C   0  0  0  0  0  0  0  0  0  0  0  0
   -7.5948   -1.7895   -3.9765 C   0  0  0  0  0  0  0  0  0  0  0  0
   -8.4324   -2.8729   -3.7307 C   0  0  0  0  0  0  0  0  0  0  0  0
   -9.6265   -2.9325   -4.3344 F   0  0  0  0  0  0  0  0  0  0  0  0
   -8.0471   -3.8993   -2.8743 C   0  0  0  0  0  0  0  0  0  0  0  0
   -6.8034   -3.8383   -2.2452 C   0  0  0  0  0  0  0  0  0  0  0  0
   -5.1317   -0.8861   -0.3434 C   0  0  0  0  0  0  0  0  0  0  0  0
   -4.6443    0.2736    0.2659 C   0  0  0  0  0  0  0  0  0  0  0  0
    0.5294    1.3948    5.3885 O   0  0  0  0  0  0  0  0  0  0  0  0
    1.0746    0.2986    6.1220 C   0  0  0  0  0  0  0  0  0  0  0  0
    0.6620   -0.8949    5.3039 C   0  0  0  0  0  0  0  0  0  0  0  0
    0.8041   -0.4444    3.9564 O   0  0  0  0  0  0  0  0  0  0  0  0
    3.1492    1.8003   -1.2332 C   0  0  0  0  0  0  0  0  0  0  0  0
    9.0652   -2.7918   -3.7869 H   0  0  0  0  0  0  0  0  0  0  0  0
    9.0463   -1.9732   -2.3759 H   0  0  0  0  0  0  0  0  0  0  0  0
    8.0574   -4.7144   -2.7609 H   0  0  0  0  0  0  0  0  0  0  0  0
    7.9681   -3.8089   -1.2550 H   0  0  0  0  0  0  0  0  0  0  0  0
    5.8203   -3.8549   -2.5548 H   0  0  0  0  0  0  0  0  0  0  0  0
    6.5948   -3.0150   -3.8872 H   0  0  0  0  0  0  0  0  0  0  0  0
    6.3124   -1.8963   -1.0417 H   0  0  0  0  0  0  0  0  0  0  0  0
    6.9967   -1.0237   -2.4271 H   0  0  0  0  0  0  0  0  0  0  0  0
    5.2518    0.2637   -1.1953 H   0  0  0  0  0  0  0  0  0  0  0  0
    2.2114   -0.5233   -3.4749 H   0  0  0  0  0  0  0  0  0  0  0  0
    0.4520    3.9535   -1.4722 H   0  0  0  0  0  0  0  0  0  0  0  0
    2.0596    4.4043   -0.8785 H   0  0  0  0  0  0  0  0  0  0  0  0
   -0.0909    2.9689    0.5333 H   0  0  0  0  0  0  0  0  0  0  0  0
    1.2097    3.8195    3.6380 H   0  0  0  0  0  0  0  0  0  0  0  0
    2.5769    1.8813    3.8942 H   0  0  0  0  0  0  0  0  0  0  0  0
    2.0084    1.1435    2.3936 H   0  0  0  0  0  0  0  0  0  0  0  0
   -1.5669    1.3626    3.9040 H   0  0  0  0  0  0  0  0  0  0  0  0
   -0.8330    0.7746    2.3789 H   0  0  0  0  0  0  0  0  0  0  0  0
   -3.2530    3.4450    3.5544 H   0  0  0  0  0  0  0  0  0  0  0  0
   -3.2763    4.2549    1.9690 H   0  0  0  0  0  0  0  0  0  0  0  0
   -3.7994    1.5736    2.3952 H   0  0  0  0  0  0  0  0  0  0  0  0
   -1.5267    0.3286   -1.1221 H   0  0  0  0  0  0  0  0  0  0  0  0
   -2.3939   -1.7291   -2.1906 H   0  0  0  0  0  0  0  0  0  0  0  0
   -5.6866   -0.8907   -3.5580 H   0  0  0  0  0  0  0  0  0  0  0  0
   -7.9124   -1.0084   -4.6599 H   0  0  0  0  0  0  0  0  0  0  0  0
   -8.7134   -4.7396   -2.7080 H   0  0  0  0  0  0  0  0  0  0  0  0
   -6.4881   -4.6396   -1.5824 H   0  0  0  0  0  0  0  0  0  0  0  0
   -6.1385   -1.2294   -0.1195 H   0  0  0  0  0  0  0  0  0  0  0  0
   -5.2994    0.8328    0.9273 H   0  0  0  0  0  0  0  0  0  0  0  0
    2.1637    0.4129    6.1504 H   0  0  0  0  0  0  0  0  0  0  0  0
    0.6843    0.2821    7.1424 H   0  0  0  0  0  0  0  0  0  0  0  0
    1.2778   -1.7795    5.4838 H   0  0  0  0  0  0  0  0  0  0  0  0
   -0.3917   -1.1470    5.4655 H   0  0  0  0  0  0  0  0  0  0  0  0
    3.8369    2.2405   -0.5197 H   0  0  0  0  0  0  0  0  0  0  0  0
  1  2  1  0
  2  3  1  0
  3  4  1  0
  4  5  1  0
  5  6  2  0
  5  7  1  0
  7  8  1  0
  8  9  2  0
  9 10  1  0
 10 11  1  0
 11 12  1  0
 12 13  1  0
 13 14  1  0
 14 15  2  0
 14 16  1  0
 16 17  1  0
 17 18  1  0
 18 19  1  0
 19 20  1  0
 20 21  1  0
 21 22  2  0
 21 23  1  0
 23 24  1  0
 24 25  1  0
 25 26  2  0
 25 27  1  0
 27 28  2  0
 28 29  1  0
 29 30  2  0
 30 31  1  0
 31 32  1  0
 32 33  2  0
 33 34  1  0
 34 35  2  0
 35 36  1  0
 35 37  1  0
 37 38  2  0
 30 39  1  0
 39 40  2  0
 18 41  1  0
 41 42  1  0
 42 43  1  0
 43 44  1  0
 11 45  2  0
 45  8  1  0
 20 16  1  0
 40 27  1  0
 44 18  1  0
 38 32  1  0
  1 46  1  0
  1 47  1  0
  2 48  1  0
  2 49  1  0
  3 50  1  0
  3 51  1  0
  4 52  1  0
  4 53  1  0
  7 54  1  0
  9 55  1  0
 12 56  1  0
 12 57  1  0
 13 58  1  0
 16 59  1  1
 17 60  1  0
 17 61  1  0
 19 62  1  0
 19 63  1  0
 23 64  1  0
 23 65  1  0
 24 66  1  0
 28 67  1  0
 29 68  1  0
 33 69  1  0
 34 70  1  0
 37 71  1  0
 38 72  1  0
 39 73  1  0
 40 74  1  0
 42 75  1  0
 42 76  1  0
 43 77  1  0
 43 78  1  0
 45 79  1  0
M  END
>  <mol_id>  (1) 
70932

>  <source_index>  (1) 
4

>  <layer>  (1) 
L4

>  <uniprot>  (1) 
P09871

>  <paff>  (1) 
6

>  <smiles>  (1) 
NCCCC(=O)Nc1csc(CNC(=O)[C@@H]2CC3(CN2C(=O)CNC(=O)c2ccc(Oc4ccc(F)cc4)cc2)OCCO3)c1

$$$$
