L4:P09871:70932
 OpenBabel09212617553D

 79 83  0  0  0  0  0  0  0  0999 V2000
   14.0513   -2.5162   -3.7562 C   0  0  2  0  0  0  0  0  0  0  0  0
   15.4701   -1.9518   -3.6200 C   0  0  0  0  0  0  0  0  0  0  0  0
   16.2701   -2.7172   -4.6646 C   0  0  0  0  0  0  0  0  0  0  0  0
   15.2574   -2.8964   -5.8027 C   0  0  0  0  0  0  0  0  0  0  0  0
   13.9690   -3.0144   -5.1328 N   0  0  0  0  0  0  0  0  0  0  0  0
   12.8909   -3.7680   -5.5415 C   0  0  0  0  0  0  0  0  0  0  0  0
   12.0535   -4.1651   -4.7263 O   0  0  0  0  0  0  0  0  0  0  0  0
   16.6783   -3.9933   -4.1479 O   0  0  0  0  0  0  0  0  0  0  0  0
   18.0783   -3.8458   -3.9130 C   0  0  0  0  0  0  0  0  0  0  0  0
   18.5038   -2.8883   -4.9929 C   0  0  0  0  0  0  0  0  0  0  0  0
   17.4165   -1.9661   -5.0723 O   0  0  0  0  0  0  0  0  0  0  0  0
   11.7950   -1.7961   -3.0470 N   0  0  0  0  0  0  0  0  0  0  0  0
   13.0538   -1.3894   -3.4223 C   0  0  0  0  0  0  0  0  0  0  0  0
   13.3425   -0.2069   -3.6111 O   0  0  0  0  0  0  0  0  0  0  0  0
   11.6067   -2.7847   -2.8891 H   0  0  0  0  0  0  0  0  0  0  0  0
   10.7231   -0.8732   -2.7695 C   0  0  0  0  0  0  0  0  0  0  0  0
    8.5789   -1.5212   -5.8356 C   0  0  0  0  0  0  0  0  0  0  0  0
    7.5199   -1.1966   -5.0162 C   0  0  0  0  0  0  0  0  0  0  0  0
    8.0134   -0.7923   -3.4279 S   0  0  0  0  0  0  0  0  0  0  0  0
    9.6596   -1.0565   -3.8058 C   0  0  0  0  0  0  0  0  0  0  0  0
    9.8157   -1.4308   -5.1273 C   0  0  0  0  0  0  0  0  0  0  0  0
    9.0832   -1.2021   -8.2336 C   0  0  0  0  0  0  0  0  0  0  0  0
    9.7199   -0.1570   -8.1632 O   0  0  0  0  0  0  0  0  0  0  0  0
    8.5182   -1.8917   -7.1739 N   0  0  0  0  0  0  0  0  0  0  0  0
    8.0071   -2.7435   -7.3694 H   0  0  0  0  0  0  0  0  0  0  0  0
    8.8275   -1.9108   -9.5550 C   0  0  0  0  0  0  0  0  0  0  0  0
    9.9217   -1.6295  -10.5841 C   0  0  0  0  0  0  0  0  0  0  0  0
   12.2610   -1.5090   -9.7337 N   0  0  0  0  0  0  0  0  0  0  0  0
   11.2274   -2.3694  -10.2953 C   0  0  0  0  0  0  0  0  0  0  0  0
   12.4230   -0.7163  -10.3548 H   0  0  0  0  0  0  0  0  0  0  0  0
   11.9634   -1.1195   -8.8423 H   0  0  0  0  0  0  0  0  0  0  0  0
   12.7829   -4.1988   -7.0150 C   0  0  0  0  0  0  0  0  0  0  0  0
   11.7875   -5.2025   -7.3538 N   0  0  0  0  0  0  0  0  0  0  0  0
   12.1609   -6.5089   -7.5868 C   0  0  0  0  0  0  0  0  0  0  0  0
   13.2773   -6.9394   -7.3205 O   0  0  0  0  0  0  0  0  0  0  0  0
   10.8410   -4.8992   -7.5350 H   0  0  0  0  0  0  0  0  0  0  0  0
   11.1041   -7.4163   -8.1035 C   0  0  0  0  0  0  0  0  0  0  0  0
    9.9836   -6.8464   -8.7208 C   0  0  0  0  0  0  0  0  0  0  0  0
    8.9696   -7.6629   -9.2243 C   0  0  0  0  0  0  0  0  0  0  0  0
    9.0623   -9.0475   -9.0869 C   0  0  0  0  0  0  0  0  0  0  0  0
   10.1813   -9.6242   -8.4788 C   0  0  0  0  0  0  0  0  0  0  0  0
   11.1991   -8.8083   -7.9767 C   0  0  0  0  0  0  0  0  0  0  0  0
    8.0476   -9.8017   -9.6297 O   0  0  0  0  0  0  0  0  0  0  0  0
    7.0813  -10.2689   -8.7675 C   0  0  0  0  0  0  0  0  0  0  0  0
    7.0747  -11.5802   -8.2787 C   0  0  0  0  0  0  0  0  0  0  0  0
    6.0841  -11.9769   -7.3794 C   0  0  0  0  0  0  0  0  0  0  0  0
    5.1237  -11.0585   -6.9672 C   0  0  0  0  0  0  0  0  0  0  0  0
    4.1741  -11.4414   -6.1037 F   0  0  0  0  0  0  0  0  0  0  0  0
    5.1378   -9.7470   -7.4309 C   0  0  0  0  0  0  0  0  0  0  0  0
    6.1267   -9.3471   -8.3301 C   0  0  0  0  0  0  0  0  0  0  0  0
   13.8166   -3.3179   -3.0875 H   0  0  0  0  0  0  0  0  0  0  0  0
   15.8577   -2.1289   -2.6385 H   0  0  0  0  0  0  0  0  0  0  0  0
   15.5086   -0.8924   -3.7653 H   0  0  0  0  0  0  0  0  0  0  0  0
   15.4734   -3.7809   -6.3647 H   0  0  0  0  0  0  0  0  0  0  0  0
   15.2803   -2.0835   -6.4981 H   0  0  0  0  0  0  0  0  0  0  0  0
   18.5851   -4.7833   -4.0087 H   0  0  0  0  0  0  0  0  0  0  0  0
   18.3060   -3.4977   -2.9272 H   0  0  0  0  0  0  0  0  0  0  0  0
   18.6407   -3.3984   -5.9235 H   0  0  0  0  0  0  0  0  0  0  0  0
   19.4382   -2.4118   -4.7812 H   0  0  0  0  0  0  0  0  0  0  0  0
   10.3190   -1.0706   -1.7986 H   0  0  0  0  0  0  0  0  0  0  0  0
   11.0890    0.1320   -2.7931 H   0  0  0  0  0  0  0  0  0  0  0  0
    6.5357   -1.1972   -5.3265 H   0  0  0  0  0  0  0  0  0  0  0  0
   10.7330   -1.6252   -5.5584 H   0  0  0  0  0  0  0  0  0  0  0  0
    8.7846   -2.9651   -9.3775 H   0  0  0  0  0  0  0  0  0  0  0  0
    7.9035   -1.5437   -9.9504 H   0  0  0  0  0  0  0  0  0  0  0  0
    9.5670   -1.9300  -11.5478 H   0  0  0  0  0  0  0  0  0  0  0  0
   10.1349   -0.5818  -10.5418 H   0  0  0  0  0  0  0  0  0  0  0  0
   11.0255   -3.1573   -9.6000 H   0  0  0  0  0  0  0  0  0  0  0  0
   11.5954   -2.7423  -11.2283 H   0  0  0  0  0  0  0  0  0  0  0  0
   13.7376   -4.5844   -7.3061 H   0  0  0  0  0  0  0  0  0  0  0  0
   12.4655   -3.3175   -7.5321 H   0  0  0  0  0  0  0  0  0  0  0  0
    9.9074   -5.8206   -8.8036 H   0  0  0  0  0  0  0  0  0  0  0  0
    8.1538   -7.2432   -9.6968 H   0  0  0  0  0  0  0  0  0  0  0  0
   10.2557  -10.6506   -8.4008 H   0  0  0  0  0  0  0  0  0  0  0  0
   12.0190   -9.2305   -7.5135 H   0  0  0  0  0  0  0  0  0  0  0  0
    7.7986  -12.2503   -8.5817 H   0  0  0  0  0  0  0  0  0  0  0  0
    6.0640  -12.9450   -7.0225 H   0  0  0  0  0  0  0  0  0  0  0  0
    4.4223   -9.0751   -7.1122 H   0  0  0  0  0  0  0  0  0  0  0  0
    6.1531   -8.3734   -8.6711 H   0  0  0  0  0  0  0  0  0  0  0  0
  1  2  1  0  0  0  0
  1 51  1  1  0  0  0
  2  3  1  0  0  0  0
  2 52  1  0  0  0  0
  2 53  1  0  0  0  0
  3  4  1  0  0  0  0
  3  8  1  0  0  0  0
  4  5  1  0  0  0  0
  4 54  1  0  0  0  0
  4 55  1  0  0  0  0
  5  6  1  0  0  0  0
  5  1  1  0  0  0  0
  6  7  2  0  0  0  0
  6 32  1  0  0  0  0
  8  9  1  0  0  0  0
  9 10  1  0  0  0  0
  9 56  1  0  0  0  0
  9 57  1  0  0  0  0
 10 11  1  0  0  0  0
 10 58  1  0  0  0  0
 10 59  1  0  0  0  0
 11  3  1  0  0  0  0
 12 13  1  0  0  0  0
 12 15  1  0  0  0  0
 13 14  2  0  0  0  0
 13  1  1  0  0  0  0
 16 12  1  0  0  0  0
 16 60  1  0  0  0  0
 16 61  1  0  0  0  0
 17 18  2  0  0  0  0
 18 19  1  0  0  0  0
 18 62  1  0  0  0  0
 19 20  1  0  0  0  0
 20 16  1  0  0  0  0
 20 21  2  0  0  0  0
 21 17  1  0  0  0  0
 21 63  1  0  0  0  0
 22 23  2  0  0  0  0
 22 24  1  0  0  0  0
 24 17  1  0  0  0  0
 24 25  1  0  0  0  0
 26 22  1  0  0  0  0
 26 64  1  0  0  0  0
 26 65  1  0  0  0  0
 27 26  1  0  0  0  0
 27 66  1  0  0  0  0
 27 67  1  0  0  0  0
 28 29  1  0  0  0  0
 28 30  1  0  0  0  0
 28 31  1  0  0  0  0
 29 27  1  0  0  0  0
 29 68  1  0  0  0  0
 29 69  1  0  0  0  0
 32 33  1  0  0  0  0
 32 70  1  0  0  0  0
 32 71  1  0  0  0  0
 33 34  1  0  0  0  0
 33 36  1  0  0  0  0
 34 35  2  0  0  0  0
 34 37  1  0  0  0  0
 37 38  2  0  0  0  0
 38 39  1  0  0  0  0
 38 72  1  0  0  0  0
 39 40  2  0  0  0  0
 39 73  1  0  0  0  0
 40 43  1  0  0  0  0
 40 41  1  0  0  0  0
 41 42  2  0  0  0  0
 41 74  1  0  0  0  0
 42 37  1  0  0  0  0
 42 75  1  0  0  0  0
 43 44  1  0  0  0  0
 44 45  2  0  0  0  0
 45 46  1  0  0  0  0
 45 76  1  0  0  0  0
 46 47  2  0  0  0  0
 46 77  1  0  0  0  0
 47 48  1  0  0  0  0
 47 49  1  0  0  0  0
 49 50  2  0  0  0  0
 49 78  1  0  0  0  0
 50 44  1  0  0  0  0
 50 79  1  0  0  0  0
M  END
>  <minimizedAffinity>
-8.33083

$$$$
