L4:P09871:76886
     RDKit          3D

 68 72  0  0  0  0  0  0  0  0999 V2000
    0.5287   -1.5908    0.8088 C   0  0  0  0  0  0  0  0  0  0  0  0
    1.7233   -1.1459   -0.0262 C   0  0  1  0  0  0  0  0  0  0  0  0
    1.3706   -0.0997   -0.9618 N   0  0  0  0  0  0  0  0  0  0  0  0
    1.9007   -0.0440   -2.2333 C   0  0  0  0  0  0  0  0  0  0  0  0
    2.6497   -0.9116   -2.6819 O   0  0  0  0  0  0  0  0  0  0  0  0
    1.6898    1.2903   -2.9752 C   0  0  2  0  0  0  0  0  0  0  0  0
    2.9273    2.1624   -2.7102 C   0  0  0  0  0  0  0  0  0  0  0  0
    2.3675    3.5702   -2.5854 C   0  0  2  0  0  0  0  0  0  0  0  0
    2.1968    4.0657   -3.8475 F   0  0  0  0  0  0  0  0  0  0  0  0
    3.2525    4.5163   -1.7996 C   0  0  0  0  0  0  0  0  0  0  0  0
    2.5936    5.6925   -1.6046 F   0  0  0  0  0  0  0  0  0  0  0  0
    0.9961    3.3668   -1.9574 C   0  0  0  0  0  0  0  0  0  0  0  0
    0.5584    2.0765   -2.4771 N   0  0  0  0  0  0  0  0  0  0  0  0
   -0.7384    1.6692   -2.7039 C   0  0  0  0  0  0  0  0  0  0  0  0
   -0.9886    0.6416   -3.3394 O   0  0  0  0  0  0  0  0  0  0  0  0
   -1.8649    2.4605   -2.0300 C   0  0  0  0  0  0  0  0  0  0  0  0
   -2.5361    1.5892   -1.0840 N   0  0  0  0  0  0  0  0  0  0  0  0
   -1.9445    1.2792    0.1191 C   0  0  0  0  0  0  0  0  0  0  0  0
   -0.8500    1.7202    0.4574 O   0  0  0  0  0  0  0  0  0  0  0  0
   -2.6982    0.3624    1.0113 C   0  0  0  0  0  0  0  0  0  0  0  0
   -2.5827    0.5426    2.3930 C   0  0  0  0  0  0  0  0  0  0  0  0
   -3.2533   -0.2964    3.2879 C   0  0  0  0  0  0  0  0  0  0  0  0
   -4.0303   -1.3272    2.7473 C   0  0  0  0  0  0  0  0  0  0  0  0
   -4.7836   -2.2909    3.3771 N   0  0  0  0  0  0  0  0  0  0  0  0
   -5.3797   -3.1271    2.4631 C   0  0  0  0  0  0  0  0  0  0  0  0
   -6.2174   -4.2310    2.6622 C   0  0  0  0  0  0  0  0  0  0  0  0
   -6.6801   -4.9050    1.5282 C   0  0  0  0  0  0  0  0  0  0  0  0
   -6.3171   -4.4908    0.2490 C   0  0  0  0  0  0  0  0  0  0  0  0
   -5.4784   -3.3850    0.0684 C   0  0  0  0  0  0  0  0  0  0  0  0
   -4.9996   -2.6865    1.1963 C   0  0  0  0  0  0  0  0  0  0  0  0
   -4.1523   -1.5465    1.3757 C   0  0  0  0  0  0  0  0  0  0  0  0
   -3.4700   -0.6873    0.4885 C   0  0  0  0  0  0  0  0  0  0  0  0
    2.8760   -0.6403    0.8119 C   0  0  0  0  0  0  0  0  0  0  0  0
    4.1718   -1.1239    0.8304 C   0  0  0  0  0  0  0  0  0  0  0  0
    5.0428   -0.4126    1.7264 C   0  0  0  0  0  0  0  0  0  0  0  0
    6.4532   -0.6942    1.9457 C   0  0  0  0  0  0  0  0  0  0  0  0
    7.2001   -1.1932    1.0244 N   0  0  0  0  0  0  0  0  0  0  0  0
    6.9304   -0.4140    3.1749 N   0  0  0  0  0  0  0  0  0  0  0  0
    4.3459    0.6080    2.3485 C   0  0  0  0  0  0  0  0  0  0  0  0
    2.7104    0.7004    1.8667 S   0  0  0  0  0  0  0  0  0  0  0  0
   -0.2771   -1.9567    0.1631 H   0  0  0  0  0  0  0  0  0  0  0  0
    0.1198   -0.7750    1.4121 H   0  0  0  0  0  0  0  0  0  0  0  0
    0.8097   -2.3988    1.4932 H   0  0  0  0  0  0  0  0  0  0  0  0
    2.0667   -2.0193   -0.5950 H   0  0  0  0  0  0  0  0  0  0  0  0
    0.7846    0.6645   -0.6328 H   0  0  0  0  0  0  0  0  0  0  0  0
    1.5399    1.0908   -4.0419 H   0  0  0  0  0  0  0  0  0  0  0  0
    3.6459    2.0761   -3.5320 H   0  0  0  0  0  0  0  0  0  0  0  0
    3.4362    1.8629   -1.7853 H   0  0  0  0  0  0  0  0  0  0  0  0
    3.5105    4.1162   -0.8145 H   0  0  0  0  0  0  0  0  0  0  0  0
    4.1715    4.7420   -2.3478 H   0  0  0  0  0  0  0  0  0  0  0  0
    0.3002    4.1579   -2.2480 H   0  0  0  0  0  0  0  0  0  0  0  0
    1.0440    3.2843   -0.8669 H   0  0  0  0  0  0  0  0  0  0  0  0
   -2.5870    2.7645   -2.7930 H   0  0  0  0  0  0  0  0  0  0  0  0
   -1.5164    3.3443   -1.4955 H   0  0  0  0  0  0  0  0  0  0  0  0
   -3.4354    1.2048   -1.3394 H   0  0  0  0  0  0  0  0  0  0  0  0
   -1.9613    1.3470    2.7838 H   0  0  0  0  0  0  0  0  0  0  0  0
   -3.1633   -0.1513    4.3599 H   0  0  0  0  0  0  0  0  0  0  0  0
   -4.8815   -2.3778    4.3777 H   0  0  0  0  0  0  0  0  0  0  0  0
   -6.5014   -4.5585    3.6571 H   0  0  0  0  0  0  0  0  0  0  0  0
   -7.3325   -5.7673    1.6476 H   0  0  0  0  0  0  0  0  0  0  0  0
   -6.6870   -5.0309   -0.6194 H   0  0  0  0  0  0  0  0  0  0  0  0
   -5.1995   -3.0727   -0.9338 H   0  0  0  0  0  0  0  0  0  0  0  0
   -3.5256   -0.8724   -0.5795 H   0  0  0  0  0  0  0  0  0  0  0  0
    4.4815   -1.9676    0.2233 H   0  0  0  0  0  0  0  0  0  0  0  0
    6.6683   -1.3174    0.1582 H   0  0  0  0  0  0  0  0  0  0  0  0
    7.9030   -0.6276    3.3492 H   0  0  0  0  0  0  0  0  0  0  0  0
    6.3415   -0.1647    3.9543 H   0  0  0  0  0  0  0  0  0  0  0  0
    4.7245    1.3326    3.0556 H   0  0  0  0  0  0  0  0  0  0  0  0
  1  2  1  0
  2  3  1  0
  3  4  1  0
  4  5  2  0
  4  6  1  0
  6  7  1  0
  7  8  1  0
  8  9  1  6
  8 10  1  0
 10 11  1  0
  8 12  1  0
 12 13  1  0
 13 14  1  0
 14 15  2  0
 14 16  1  0
 16 17  1  0
 17 18  1  0
 18 19  2  0
 18 20  1  0
 20 21  2  0
 21 22  1  0
 22 23  2  0
 23 24  1  0
 24 25  1  0
 25 26  2  0
 26 27  1  0
 27 28  2  0
 28 29  1  0
 29 30  2  0
 30 31  1  0
 31 32  2  0
  2 33  1  0
 33 34  2  0
 34 35  1  0
 35 36  1  0
 36 37  2  3
 36 38  1  0
 35 39  2  0
 39 40  1  0
 13  6  1  0
 32 20  1  0
 40 33  1  0
 31 23  1  0
 30 25  1  0
  1 41  1  0
  1 42  1  0
  1 43  1  0
  2 44  1  6
  3 45  1  0
  6 46  1  6
  7 47  1  0
  7 48  1  0
 10 49  1  0
 10 50  1  0
 12 51  1  0
 12 52  1  0
 16 53  1  0
 16 54  1  0
 17 55  1  0
 21 56  1  0
 22 57  1  0
 24 58  1  0
 26 59  1  0
 27 60  1  0
 28 61  1  0
 29 62  1  0
 32 63  1  0
 34 64  1  0
 37 65  1  0
 38 66  1  0
 38 67  1  0
 39 68  1  0
M  END
>  <mol_id>  (1) 
76886

>  <source_index>  (1) 
5

>  <layer>  (1) 
L4

>  <uniprot>  (1) 
P09871

>  <paff>  (1) 
7

>  <smiles>  (1) 
C[C@@H](NC(=O)[C@@H]1C[C@](F)(CF)CN1C(=O)CNC(=O)c1ccc2[nH]c3ccccc3c2c1)c1cc(C(=N)N)cs1

$$$$
