L4:P09871:76886
 OpenBabel09212617553D

 68 72  0  0  0  0  0  0  0  0999 V2000
   11.5732   -4.6078   -7.2742 C   0  0  2  0  0  0  0  0  0  0  0  0
   10.9871   -5.9499   -6.8081 C   0  0  0  0  0  0  0  0  0  0  0  0
   11.9094   -6.9897   -7.4237 C   0  0  1  0  0  0  0  0  0  0  0  0
   11.5166   -7.1831   -8.7182 F   0  0  0  0  0  0  0  0  0  0  0  0
   13.2736   -6.3148   -7.4291 C   0  0  0  0  0  0  0  0  0  0  0  0
   12.9668   -4.9017   -7.6176 N   0  0  0  0  0  0  0  0  0  0  0  0
   13.7562   -3.9556   -8.2347 C   0  0  0  0  0  0  0  0  0  0  0  0
   13.3156   -2.8407   -8.5267 O   0  0  0  0  0  0  0  0  0  0  0  0
   10.8750   -2.3860   -6.4593 N   0  0  0  0  0  0  0  0  0  0  0  0
   11.4116   -3.6078   -6.1126 C   0  0  0  0  0  0  0  0  0  0  0  0
   11.9039   -3.8301   -5.0066 O   0  0  0  0  0  0  0  0  0  0  0  0
   10.5129   -2.2503   -7.4007 H   0  0  0  0  0  0  0  0  0  0  0  0
   12.1501   -1.2793   -4.6658 C   0  0  0  0  0  0  0  0  0  0  0  0
   10.9256   -1.2437   -5.5722 C   0  0  2  0  0  0  0  0  0  0  0  0
    9.6227   -1.2020   -4.8057 C   0  0  0  0  0  0  0  0  0  0  0  0
    8.3445   -1.3139   -5.3223 C   0  0  0  0  0  0  0  0  0  0  0  0
    7.3096   -1.2534   -4.3259 C   0  0  0  0  0  0  0  0  0  0  0  0
    7.8731   -1.1064   -3.0709 C   0  0  0  0  0  0  0  0  0  0  0  0
    9.5793   -1.0463   -3.0994 S   0  0  0  0  0  0  0  0  0  0  0  0
    5.8797   -1.3506   -4.5761 C   0  0  0  0  0  0  0  0  0  0  0  0
    5.4040   -1.5077   -5.7613 N   0  0  0  0  0  0  0  0  0  0  0  0
    5.0801   -1.2539   -3.4952 N   0  0  0  0  0  0  0  0  0  0  0  0
    6.1617   -1.5801   -6.4463 H   0  0  0  0  0  0  0  0  0  0  0  0
    4.0830   -1.2950   -3.6569 H   0  0  0  0  0  0  0  0  0  0  0  0
    5.4125   -0.9841   -2.5824 H   0  0  0  0  0  0  0  0  0  0  0  0
   11.9024   -8.3220   -6.7019 C   0  0  0  0  0  0  0  0  0  0  0  0
   12.3593   -9.2921   -7.5420 F   0  0  0  0  0  0  0  0  0  0  0  0
   15.2411   -4.2809   -8.4310 C   0  0  0  0  0  0  0  0  0  0  0  0
   15.9698   -3.8245   -7.2626 N   0  0  0  0  0  0  0  0  0  0  0  0
   16.5383   -4.7313   -6.3976 C   0  0  0  0  0  0  0  0  0  0  0  0
   16.4740   -5.9454   -6.5671 O   0  0  0  0  0  0  0  0  0  0  0  0
   16.0321   -2.8299   -7.0934 H   0  0  0  0  0  0  0  0  0  0  0  0
   17.2445   -4.1694   -5.2186 C   0  0  0  0  0  0  0  0  0  0  0  0
   17.1431   -4.8504   -4.0017 C   0  0  0  0  0  0  0  0  0  0  0  0
   17.7705   -4.3659   -2.8501 C   0  0  0  0  0  0  0  0  0  0  0  0
   18.4894   -3.1704   -2.9613 C   0  0  0  0  0  0  0  0  0  0  0  0
   19.1919   -2.4685   -2.0091 N   0  0  0  0  0  0  0  0  0  0  0  0
   19.7395   -1.3257   -2.5422 C   0  0  0  0  0  0  0  0  0  0  0  0
   20.5175   -0.3311   -1.9376 C   0  0  0  0  0  0  0  0  0  0  0  0
   20.9399    0.7351   -2.7371 C   0  0  0  0  0  0  0  0  0  0  0  0
   20.5957    0.8021   -4.0849 C   0  0  0  0  0  0  0  0  0  0  0  0
   19.8169   -0.2012   -4.6730 C   0  0  0  0  0  0  0  0  0  0  0  0
   19.3797   -1.2887   -3.8885 C   0  0  0  0  0  0  0  0  0  0  0  0
   18.5953   -2.4565   -4.1544 C   0  0  0  0  0  0  0  0  0  0  0  0
   17.9573   -2.9631   -5.3064 C   0  0  0  0  0  0  0  0  0  0  0  0
   19.2881   -2.7505   -1.0450 H   0  0  0  0  0  0  0  0  0  0  0  0
   11.0930   -4.1689   -8.1237 H   0  0  0  0  0  0  0  0  0  0  0  0
    9.9856   -6.0716   -7.1646 H   0  0  0  0  0  0  0  0  0  0  0  0
   10.9338   -6.0272   -5.7422 H   0  0  0  0  0  0  0  0  0  0  0  0
   13.8772   -6.6834   -8.2320 H   0  0  0  0  0  0  0  0  0  0  0  0
   13.8285   -6.5000   -6.5331 H   0  0  0  0  0  0  0  0  0  0  0  0
   13.0364   -1.3078   -5.2646 H   0  0  0  0  0  0  0  0  0  0  0  0
   12.1100   -2.1508   -4.0463 H   0  0  0  0  0  0  0  0  0  0  0  0
   12.1637   -0.4043   -4.0501 H   0  0  0  0  0  0  0  0  0  0  0  0
   11.0327   -0.3399   -6.1348 H   0  0  0  0  0  0  0  0  0  0  0  0
    8.1515   -1.4300   -6.3294 H   0  0  0  0  0  0  0  0  0  0  0  0
    7.3175   -1.0397   -2.2038 H   0  0  0  0  0  0  0  0  0  0  0  0
   10.9048   -8.5565   -6.3943 H   0  0  0  0  0  0  0  0  0  0  0  0
   12.5354   -8.2664   -5.8410 H   0  0  0  0  0  0  0  0  0  0  0  0
   15.6079   -3.7814   -9.3032 H   0  0  0  0  0  0  0  0  0  0  0  0
   15.3723   -5.3354   -8.5566 H   0  0  0  0  0  0  0  0  0  0  0  0
   16.5965   -5.7244   -3.9528 H   0  0  0  0  0  0  0  0  0  0  0  0
   17.7059   -4.8706   -1.9523 H   0  0  0  0  0  0  0  0  0  0  0  0
   20.7699   -0.3831   -0.9383 H   0  0  0  0  0  0  0  0  0  0  0  0
   21.5158    1.4842   -2.3221 H   0  0  0  0  0  0  0  0  0  0  0  0
   20.9180    1.5993   -4.6556 H   0  0  0  0  0  0  0  0  0  0  0  0
   19.5647   -0.1457   -5.6722 H   0  0  0  0  0  0  0  0  0  0  0  0
   18.0139   -2.4535   -6.2020 H   0  0  0  0  0  0  0  0  0  0  0  0
  1  2  1  0  0  0  0
  1 47  1  6  0  0  0
  2  3  1  0  0  0  0
  2 48  1  0  0  0  0
  2 49  1  0  0  0  0
  3  4  1  6  0  0  0
  3 26  1  0  0  0  0
  3  5  1  0  0  0  0
  5  6  1  0  0  0  0
  5 50  1  0  0  0  0
  5 51  1  0  0  0  0
  6  7  1  0  0  0  0
  6  1  1  0  0  0  0
  7  8  2  0  0  0  0
  7 28  1  0  0  0  0
  9 10  1  0  0  0  0
  9 12  1  0  0  0  0
 10 11  2  0  0  0  0
 10  1  1  0  0  0  0
 13 14  1  0  0  0  0
 13 52  1  0  0  0  0
 13 53  1  0  0  0  0
 13 54  1  0  0  0  0
 14  9  1  0  0  0  0
 14 15  1  0  0  0  0
 14 55  1  6  0  0  0
 15 16  2  0  0  0  0
 16 17  1  0  0  0  0
 16 56  1  0  0  0  0
 17 20  1  0  0  0  0
 17 18  2  0  0  0  0
 18 19  1  0  0  0  0
 18 57  1  0  0  0  0
 19 15  1  0  0  0  0
 20 21  2  0  0  0  0
 20 22  1  0  0  0  0
 21 23  1  0  0  0  0
 22 24  1  0  0  0  0
 22 25  1  0  0  0  0
 26 27  1  0  0  0  0
 26 58  1  0  0  0  0
 26 59  1  0  0  0  0
 28 29  1  0  0  0  0
 28 60  1  0  0  0  0
 28 61  1  0  0  0  0
 29 30  1  0  0  0  0
 29 32  1  0  0  0  0
 30 31  2  0  0  0  0
 30 33  1  0  0  0  0
 33 34  2  0  0  0  0
 34 35  1  0  0  0  0
 34 62  1  0  0  0  0
 35 36  2  0  0  0  0
 35 63  1  0  0  0  0
 36 37  1  0  0  0  0
 37 38  1  0  0  0  0
 37 46  1  0  0  0  0
 38 39  2  0  0  0  0
 39 40  1  0  0  0  0
 39 64  1  0  0  0  0
 40 41  2  0  0  0  0
 40 65  1  0  0  0  0
 41 42  1  0  0  0  0
 41 66  1  0  0  0  0
 42 43  2  0  0  0  0
 42 67  1  0  0  0  0
 43 44  1  0  0  0  0
 43 38  1  0  0  0  0
 44 45  2  0  0  0  0
 44 36  1  0  0  0  0
 45 33  1  0  0  0  0
 45 68  1  0  0  0  0
M  END
>  <minimizedAffinity>
-10.44199

$$$$
