L4:P09871:77799
     RDKit          3D

 65 69  0  0  0  0  0  0  0  0999 V2000
   -6.9463   -0.0398    0.3371 N   0  0  0  0  0  0  0  0  0  0  0  0
   -7.1615   -0.8957    1.2750 C   0  0  0  0  0  0  0  0  0  0  0  0
   -8.4117   -1.1827    1.6902 N   0  0  0  0  0  0  0  0  0  0  0  0
   -6.0768   -1.6074    1.9372 C   0  0  0  0  0  0  0  0  0  0  0  0
   -6.1482   -2.1416    3.2133 C   0  0  0  0  0  0  0  0  0  0  0  0
   -4.6931   -2.8831    3.7217 S   0  0  0  0  0  0  0  0  0  0  0  0
   -3.9164   -2.5043    2.2501 C   0  0  0  0  0  0  0  0  0  0  0  0
   -2.4820   -2.8614    2.0196 C   0  0  0  0  0  0  0  0  0  0  0  0
   -1.6966   -1.6701    2.2459 N   0  0  0  0  0  0  0  0  0  0  0  0
   -1.3922   -0.7975    1.2203 C   0  0  0  0  0  0  0  0  0  0  0  0
   -1.6879   -1.0177    0.0479 O   0  0  0  0  0  0  0  0  0  0  0  0
   -0.6890    0.4934    1.6931 C   0  0  2  0  0  0  0  0  0  0  0  0
   -1.6621    1.4361    2.3952 C   0  0  0  0  0  0  0  0  0  0  0  0
   -2.2680    2.2521    1.2492 C   0  0  0  0  0  0  0  0  0  0  0  0
   -1.1369    2.3226    0.2029 C   0  0  0  0  0  0  0  0  0  0  0  0
   -0.1965    1.2680    0.5659 N   0  0  0  0  0  0  0  0  0  0  0  0
    0.9803    0.9475   -0.0660 C   0  0  0  0  0  0  0  0  0  0  0  0
    1.7160    0.0468    0.3468 O   0  0  0  0  0  0  0  0  0  0  0  0
    1.3403    1.7730   -1.3032 C   0  0  0  0  0  0  0  0  0  0  0  0
    2.6076    1.3355   -1.8415 N   0  0  0  0  0  0  0  0  0  0  0  0
    3.2068    1.9509   -2.9113 C   0  0  0  0  0  0  0  0  0  0  0  0
    2.7046    2.9234   -3.4693 O   0  0  0  0  0  0  0  0  0  0  0  0
    4.4647    1.3555   -3.3077 C   0  0  0  0  0  0  0  0  0  0  0  0
    5.3476    1.6815   -4.3170 C   0  0  0  0  0  0  0  0  0  0  0  0
    6.4152    0.7539   -4.2386 C   0  0  0  0  0  0  0  0  0  0  0  0
    6.1324   -0.0940   -3.1849 C   0  0  0  0  0  0  0  0  0  0  0  0
    6.8077   -1.2428   -2.5833 C   0  0  0  0  0  0  0  0  0  0  0  0
    6.2423   -1.9335   -1.4967 C   0  0  0  0  0  0  0  0  0  0  0  0
    6.8928   -3.0316   -0.9262 C   0  0  0  0  0  0  0  0  0  0  0  0
    8.1139   -3.4457   -1.4394 C   0  0  0  0  0  0  0  0  0  0  0  0
    8.7387   -4.4973   -0.8941 F   0  0  0  0  0  0  0  0  0  0  0  0
    8.6963   -2.7833   -2.5116 C   0  0  0  0  0  0  0  0  0  0  0  0
    8.0449   -1.6851   -3.0819 C   0  0  0  0  0  0  0  0  0  0  0  0
    4.9441    0.2735   -2.6177 O   0  0  0  0  0  0  0  0  0  0  0  0
   -3.4252    1.5909    0.7210 O   0  0  0  0  0  0  0  0  0  0  0  0
   -4.5237    2.4267    1.0893 C   0  0  0  0  0  0  0  0  0  0  0  0
   -3.9134    3.7992    1.1603 C   0  0  0  0  0  0  0  0  0  0  0  0
   -2.6266    3.5547    1.7266 O   0  0  0  0  0  0  0  0  0  0  0  0
   -4.7688   -1.8407    1.3890 C   0  0  0  0  0  0  0  0  0  0  0  0
   -5.9411    0.0468    0.1557 H   0  0  0  0  0  0  0  0  0  0  0  0
   -9.1694   -0.7150    1.2114 H   0  0  0  0  0  0  0  0  0  0  0  0
   -8.6316   -1.9542    2.3000 H   0  0  0  0  0  0  0  0  0  0  0  0
   -6.9834   -2.1157    3.8989 H   0  0  0  0  0  0  0  0  0  0  0  0
   -2.1300   -3.6298    2.7152 H   0  0  0  0  0  0  0  0  0  0  0  0
   -2.3348   -3.2298    0.9988 H   0  0  0  0  0  0  0  0  0  0  0  0
   -1.4387   -1.4481    3.1970 H   0  0  0  0  0  0  0  0  0  0  0  0
    0.1413    0.2075    2.3493 H   0  0  0  0  0  0  0  0  0  0  0  0
   -1.1096    2.0971    3.0750 H   0  0  0  0  0  0  0  0  0  0  0  0
   -2.4244    0.9116    2.9805 H   0  0  0  0  0  0  0  0  0  0  0  0
   -0.6053    3.2793    0.2304 H   0  0  0  0  0  0  0  0  0  0  0  0
   -1.4971    2.1410   -0.8147 H   0  0  0  0  0  0  0  0  0  0  0  0
    1.4200    2.8314   -1.0377 H   0  0  0  0  0  0  0  0  0  0  0  0
    0.5740    1.6433   -2.0735 H   0  0  0  0  0  0  0  0  0  0  0  0
    3.0618    0.5316   -1.4149 H   0  0  0  0  0  0  0  0  0  0  0  0
    5.2237    2.4942   -5.0200 H   0  0  0  0  0  0  0  0  0  0  0  0
    7.2848    0.7135   -4.8789 H   0  0  0  0  0  0  0  0  0  0  0  0
    5.2850   -1.6231   -1.0819 H   0  0  0  0  0  0  0  0  0  0  0  0
    6.4515   -3.5614   -0.0882 H   0  0  0  0  0  0  0  0  0  0  0  0
    9.6518   -3.1235   -2.8981 H   0  0  0  0  0  0  0  0  0  0  0  0
    8.5188   -1.1811   -3.9205 H   0  0  0  0  0  0  0  0  0  0  0  0
   -5.3293    2.3553    0.3555 H   0  0  0  0  0  0  0  0  0  0  0  0
   -4.8883    2.0947    2.0672 H   0  0  0  0  0  0  0  0  0  0  0  0
   -4.4834    4.4971    1.7783 H   0  0  0  0  0  0  0  0  0  0  0  0
   -3.7705    4.2294    0.1630 H   0  0  0  0  0  0  0  0  0  0  0  0
   -4.4493   -1.5221    0.4016 H   0  0  0  0  0  0  0  0  0  0  0  0
  1  2  2  3
  2  3  1  0
  2  4  1  0
  4  5  2  0
  5  6  1  0
  6  7  1  0
  7  8  1  0
  8  9  1  0
  9 10  1  0
 10 11  2  0
 10 12  1  0
 12 13  1  0
 13 14  1  0
 14 15  1  0
 15 16  1  0
 16 17  1  0
 17 18  2  0
 17 19  1  0
 19 20  1  0
 20 21  1  0
 21 22  2  0
 21 23  1  0
 23 24  2  0
 24 25  1  0
 25 26  2  0
 26 27  1  0
 27 28  2  0
 28 29  1  0
 29 30  2  0
 30 31  1  0
 30 32  1  0
 32 33  2  0
 26 34  1  0
 14 35  1  0
 35 36  1  0
 36 37  1  0
 37 38  1  0
  7 39  2  0
 39  4  1  0
 16 12  1  0
 34 23  1  0
 38 14  1  0
 33 27  1  0
  1 40  1  0
  3 41  1  0
  3 42  1  0
  5 43  1  0
  8 44  1  0
  8 45  1  0
  9 46  1  0
 12 47  1  1
 13 48  1  0
 13 49  1  0
 15 50  1  0
 15 51  1  0
 19 52  1  0
 19 53  1  0
 20 54  1  0
 24 55  1  0
 25 56  1  0
 28 57  1  0
 29 58  1  0
 32 59  1  0
 33 60  1  0
 36 61  1  0
 36 62  1  0
 37 63  1  0
 37 64  1  0
 39 65  1  0
M  END
>  <mol_id>  (1) 
77799

>  <source_index>  (1) 
6

>  <layer>  (1) 
L4

>  <uniprot>  (1) 
P09871

>  <paff>  (1) 
7

>  <smiles>  (1) 
N=C(N)c1csc(CNC(=O)[C@@H]2CC3(CN2C(=O)CNC(=O)c2ccc(-c4ccc(F)cc4)o2)OCCO3)c1

$$$$
