L4:P09871:77799


 44 48  0  0  0  0  0  0  0  0999 V2000
   13.6423   -3.0148   -4.0073 C   0  0  0  0  0  0  0  0  0  0  0  0
   14.9529   -3.1880   -3.2451 C   0  0  0  0  0  0  0  0  0  0  0  0
   16.0052   -2.6089   -4.1957 C   0  0  0  0  0  0  0  0  0  0  0  0
   15.4350   -2.8926   -5.6006 C   0  0  0  0  0  0  0  0  0  0  0  0
   14.0188   -3.1808   -5.4015 N   0  0  0  0  0  0  0  0  0  0  0  0
   13.0917   -3.5049   -6.3618 C   0  0  0  0  0  0  0  0  0  0  0  0
   11.9183   -3.7568   -6.0744 O   0  0  0  0  0  0  0  0  0  0  0  0
   16.1616   -1.2015   -3.9719 O   0  0  0  0  0  0  0  0  0  0  0  0
   17.4694   -1.0633   -3.4138 C   0  0  0  0  0  0  0  0  0  0  0  0
   18.2239   -2.2285   -3.9920 C   0  0  0  0  0  0  0  0  0  0  0  0
   17.2559   -3.2770   -3.9895 O   0  0  0  0  0  0  0  0  0  0  0  0
   11.9965   -1.3096   -4.6277 N   0  0  0  0  0  0  0  0  0  0  0  0
   13.0211   -1.6234   -3.7573 C   0  0  0  0  0  0  0  0  0  0  0  0
   13.3765   -0.8758   -2.8489 O   0  0  0  0  0  0  0  0  0  0  0  0
   11.7334   -1.9552   -5.3587 H   0  0  0  0  0  0  0  0  0  0  0  0
   11.1988   -0.1166   -4.4610 C   0  0  0  0  0  0  0  0  0  0  0  0
    7.5515   -1.0814   -3.9432 C   0  0  0  0  0  0  0  0  0  0  0  0
    7.9122   -1.1923   -2.6103 C   0  0  0  0  0  0  0  0  0  0  0  0
    9.5647   -0.8566   -2.3236 S   0  0  0  0  0  0  0  0  0  0  0  0
    9.8490   -0.5428   -3.9768 C   0  0  0  0  0  0  0  0  0  0  0  0
    8.7000   -0.7127   -4.7247 C   0  0  0  0  0  0  0  0  0  0  0  0
    5.9744   -1.5341   -5.6986 N   0  0  0  0  0  0  0  0  0  0  0  0
    6.2034   -1.2835   -4.4563 C   0  0  0  0  0  0  0  0  0  0  0  0
    5.1995   -1.2008   -3.5602 N   0  0  0  0  0  0  0  0  0  0  0  0
    6.8531   -1.5603   -6.2260 H   0  0  0  0  0  0  0  0  0  0  0  0
    4.2650   -1.3721   -3.9058 H   0  0  0  0  0  0  0  0  0  0  0  0
    5.3451   -1.1680   -2.5636 H   0  0  0  0  0  0  0  0  0  0  0  0
   13.5904   -3.5499   -7.8078 C   0  0  0  0  0  0  0  0  0  0  0  0
   13.3845   -4.8673   -8.3641 N   0  0  0  0  0  0  0  0  0  0  0  0
   14.4110   -5.7584   -8.5499 C   0  0  0  0  0  0  0  0  0  0  0  0
   15.5697   -5.4920   -8.2405 O   0  0  0  0  0  0  0  0  0  0  0  0
   12.4421   -5.1336   -8.6388 H   0  0  0  0  0  0  0  0  0  0  0  0
   14.0021   -7.0187   -9.1315 C   0  0  0  0  0  0  0  0  0  0  0  0
   14.4235   -7.6745  -10.2703 C   0  0  0  0  0  0  0  0  0  0  0  0
   13.6743   -8.8740  -10.3495 C   0  0  0  0  0  0  0  0  0  0  0  0
   12.8312   -8.8926   -9.2549 C   0  0  0  0  0  0  0  0  0  0  0  0
   13.0319   -7.7621   -8.5128 O   0  0  0  0  0  0  0  0  0  0  0  0
   11.8221   -9.8241   -8.7534 C   0  0  0  0  0  0  0  0  0  0  0  0
   10.8731  -10.4033   -9.6144 C   0  0  0  0  0  0  0  0  0  0  0  0
    9.9110  -11.2937   -9.1288 C   0  0  0  0  0  0  0  0  0  0  0  0
    9.8921  -11.6103   -7.7777 C   0  0  0  0  0  0  0  0  0  0  0  0
    8.9710  -12.4630   -7.3106 F   0  0  0  0  0  0  0  0  0  0  0  0
   10.8164  -11.0541   -6.9038 C   0  0  0  0  0  0  0  0  0  0  0  0
   11.7787  -10.1637   -7.3904 C   0  0  0  0  0  0  0  0  0  0  0  0
 22 23  2  0  0  0
 23 24  1  0  0  0
 23 17  1  0  0  0
 17 18  2  0  0  0
 18 19  1  0  0  0
 19 20  1  0  0  0
 20 16  1  0  0  0
 16 12  1  0  0  0
 12 13  1  0  0  0
 13 14  2  0  0  0
 13  1  1  0  0  0
  1  2  1  0  0  0
  2  3  1  0  0  0
  3  4  1  0  0  0
  4  5  1  0  0  0
  5  6  1  0  0  0
  6  7  2  0  0  0
  6 28  1  0  0  0
 28 29  1  0  0  0
 29 30  1  0  0  0
 30 31  2  0  0  0
 30 33  1  0  0  0
 33 34  2  0  0  0
 34 35  1  0  0  0
 35 36  2  0  0  0
 36 38  1  0  0  0
 38 39  2  0  0  0
 39 40  1  0  0  0
 40 41  2  0  0  0
 41 42  1  0  0  0
 41 43  1  0  0  0
 43 44  2  0  0  0
 36 37  1  0  0  0
  3  8  1  0  0  0
  8  9  1  0  0  0
  9 10  1  0  0  0
 10 11  1  0  0  0
 20 21  2  0  0  0
 21 17  1  0  0  0
  5  1  1  0  0  0
 37 33  1  0  0  0
 11  3  1  0  0  0
 44 38  1  0  0  0
 22 25  1  0  0  0
 24 26  1  0  0  0
 24 27  1  0  0  0
 12 15  1  0  0  0
 29 32  1  0  0  0
M  END
> <minimizedAffinity>
-9.44623

$$$$
