L4:P09871:81308
     RDKit          3D

 78 82  0  0  0  0  0  0  0  0999 V2000
   -4.8301   -0.6395   -3.4225 C   0  0  0  0  0  0  0  0  0  0  0  0
   -3.7986   -1.4445   -2.6305 C   0  0  1  0  0  0  0  0  0  0  0  0
   -3.2848   -0.6896   -1.4989 N   0  0  0  0  0  0  0  0  0  0  0  0
   -2.3752    0.3327   -1.6644 C   0  0  0  0  0  0  0  0  0  0  0  0
   -1.9703    0.6954   -2.7646 O   0  0  0  0  0  0  0  0  0  0  0  0
   -1.9293    0.9877   -0.3429 C   0  0  2  0  0  0  0  0  0  0  0  0
   -3.0668    1.8764    0.1811 C   0  0  0  0  0  0  0  0  0  0  0  0
   -2.3481    3.0865    0.7821 C   0  0  2  0  0  0  0  0  0  0  0  0
   -3.2152    4.3374    0.8735 C   0  0  0  0  0  0  0  0  0  0  0  0
   -4.3894    4.0494    1.6429 O   0  0  0  0  0  0  0  0  0  0  0  0
   -4.2529    4.4706    2.9957 C   0  0  0  0  0  0  0  0  0  0  0  0
   -4.0842    5.9803    3.0454 C   0  0  0  0  0  0  0  0  0  0  0  0
   -3.2645    6.4625    1.8596 C   0  0  0  0  0  0  0  0  0  0  0  0
   -2.4284    5.4035    1.4088 O   0  0  0  0  0  0  0  0  0  0  0  0
   -1.1430    3.2586   -0.1310 C   0  0  0  0  0  0  0  0  0  0  0  0
   -0.7881    1.8965   -0.4904 N   0  0  0  0  0  0  0  0  0  0  0  0
    0.5132    1.5554   -0.7941 C   0  0  0  0  0  0  0  0  0  0  0  0
    1.4165    2.3976   -0.8361 O   0  0  0  0  0  0  0  0  0  0  0  0
    0.8098    0.0835   -1.1004 C   0  0  0  0  0  0  0  0  0  0  0  0
    2.2409   -0.1425   -1.0296 N   0  0  0  0  0  0  0  0  0  0  0  0
    2.7665   -1.4071   -0.9405 C   0  0  0  0  0  0  0  0  0  0  0  0
    2.0702   -2.4166   -0.9193 O   0  0  0  0  0  0  0  0  0  0  0  0
    4.2517   -1.5159   -0.8892 C   0  0  0  0  0  0  0  0  0  0  0  0
    4.8412   -2.7138   -1.3175 C   0  0  0  0  0  0  0  0  0  0  0  0
    6.2289   -2.8679   -1.2857 C   0  0  0  0  0  0  0  0  0  0  0  0
    7.0305   -1.8349   -0.8020 C   0  0  0  0  0  0  0  0  0  0  0  0
    8.3917   -2.0345   -0.8253 O   0  0  0  0  0  0  0  0  0  0  0  0
    9.0943   -1.7176    0.3154 C   0  0  0  0  0  0  0  0  0  0  0  0
    8.6961   -2.1398    1.5888 C   0  0  0  0  0  0  0  0  0  0  0  0
    9.4760   -1.8142    2.6993 C   0  0  0  0  0  0  0  0  0  0  0  0
   10.6490   -1.0867    2.5247 C   0  0  0  0  0  0  0  0  0  0  0  0
   11.3965   -0.7765    3.5918 F   0  0  0  0  0  0  0  0  0  0  0  0
   11.0626   -0.6830    1.2592 C   0  0  0  0  0  0  0  0  0  0  0  0
   10.2853   -1.0068    0.1469 C   0  0  0  0  0  0  0  0  0  0  0  0
    6.4539   -0.6335   -0.3814 C   0  0  0  0  0  0  0  0  0  0  0  0
    5.0645   -0.4773   -0.4139 C   0  0  0  0  0  0  0  0  0  0  0  0
   -4.3871   -2.7223   -2.0833 C   0  0  0  0  0  0  0  0  0  0  0  0
   -5.5907   -2.9268   -1.4309 C   0  0  0  0  0  0  0  0  0  0  0  0
   -5.8182   -4.2979   -1.0543 C   0  0  0  0  0  0  0  0  0  0  0  0
   -6.9899   -4.8281   -0.3724 C   0  0  0  0  0  0  0  0  0  0  0  0
   -7.3989   -6.0377   -0.5307 N   0  0  0  0  0  0  0  0  0  0  0  0
   -7.6253   -3.9691    0.4489 N   0  0  0  0  0  0  0  0  0  0  0  0
   -4.7391   -5.0749   -1.4365 C   0  0  0  0  0  0  0  0  0  0  0  0
   -3.5106   -4.1868   -2.2218 S   0  0  0  0  0  0  0  0  0  0  0  0
   -4.3755    0.2501   -3.8709 H   0  0  0  0  0  0  0  0  0  0  0  0
   -5.2592   -1.2401   -4.2321 H   0  0  0  0  0  0  0  0  0  0  0  0
   -5.6519   -0.2930   -2.7855 H   0  0  0  0  0  0  0  0  0  0  0  0
   -2.9556   -1.6651   -3.2978 H   0  0  0  0  0  0  0  0  0  0  0  0
   -3.5554   -0.9798   -0.5685 H   0  0  0  0  0  0  0  0  0  0  0  0
   -1.6638    0.2123    0.3840 H   0  0  0  0  0  0  0  0  0  0  0  0
   -3.7334    2.1903   -0.6326 H   0  0  0  0  0  0  0  0  0  0  0  0
   -3.6798    1.3519    0.9219 H   0  0  0  0  0  0  0  0  0  0  0  0
   -1.9905    2.8088    1.7836 H   0  0  0  0  0  0  0  0  0  0  0  0
   -3.5525    4.6292   -0.1285 H   0  0  0  0  0  0  0  0  0  0  0  0
   -5.1496    4.1700    3.5467 H   0  0  0  0  0  0  0  0  0  0  0  0
   -3.4004    3.9577    3.4567 H   0  0  0  0  0  0  0  0  0  0  0  0
   -5.0578    6.4834    3.0311 H   0  0  0  0  0  0  0  0  0  0  0  0
   -3.6047    6.2577    3.9910 H   0  0  0  0  0  0  0  0  0  0  0  0
   -3.9082    6.7984    1.0375 H   0  0  0  0  0  0  0  0  0  0  0  0
   -2.6345    7.3094    2.1491 H   0  0  0  0  0  0  0  0  0  0  0  0
   -1.3958    3.7872   -1.0572 H   0  0  0  0  0  0  0  0  0  0  0  0
   -0.3121    3.7765    0.3577 H   0  0  0  0  0  0  0  0  0  0  0  0
    0.4830   -0.1548   -2.1159 H   0  0  0  0  0  0  0  0  0  0  0  0
    0.3133   -0.5757   -0.3842 H   0  0  0  0  0  0  0  0  0  0  0  0
    2.8242    0.6805   -1.1328 H   0  0  0  0  0  0  0  0  0  0  0  0
    4.2187   -3.5278   -1.6845 H   0  0  0  0  0  0  0  0  0  0  0  0
    6.6807   -3.7940   -1.6310 H   0  0  0  0  0  0  0  0  0  0  0  0
    7.7904   -2.7251    1.7219 H   0  0  0  0  0  0  0  0  0  0  0  0
    9.1811   -2.1281    3.6954 H   0  0  0  0  0  0  0  0  0  0  0  0
   11.9865   -0.1249    1.1476 H   0  0  0  0  0  0  0  0  0  0  0  0
   10.6028   -0.7040   -0.8472 H   0  0  0  0  0  0  0  0  0  0  0  0
    7.0764    0.1842   -0.0276 H   0  0  0  0  0  0  0  0  0  0  0  0
    4.6388    0.4526   -0.0478 H   0  0  0  0  0  0  0  0  0  0  0  0
   -6.3020   -2.1290   -1.2527 H   0  0  0  0  0  0  0  0  0  0  0  0
   -6.8185   -6.5345   -1.2105 H   0  0  0  0  0  0  0  0  0  0  0  0
   -8.4350   -4.3217    0.9415 H   0  0  0  0  0  0  0  0  0  0  0  0
   -7.2739   -3.0552    0.6839 H   0  0  0  0  0  0  0  0  0  0  0  0
   -4.5963   -6.1356   -1.2792 H   0  0  0  0  0  0  0  0  0  0  0  0
  1  2  1  0
  2  3  1  0
  3  4  1  0
  4  5  2  0
  4  6  1  0
  6  7  1  0
  7  8  1  0
  8  9  1  0
  9 10  1  0
 10 11  1  0
 11 12  1  0
 12 13  1  0
 13 14  1  0
  8 15  1  0
 15 16  1  0
 16 17  1  0
 17 18  2  0
 17 19  1  0
 19 20  1  0
 20 21  1  0
 21 22  2  0
 21 23  1  0
 23 24  2  0
 24 25  1  0
 25 26  2  0
 26 27  1  0
 27 28  1  0
 28 29  2  0
 29 30  1  0
 30 31  2  0
 31 32  1  0
 31 33  1  0
 33 34  2  0
 26 35  1  0
 35 36  2  0
  2 37  1  0
 37 38  2  0
 38 39  1  0
 39 40  1  0
 40 41  2  3
 40 42  1  0
 39 43  2  0
 43 44  1  0
 16  6  1  0
 36 23  1  0
 44 37  1  0
 14  9  1  0
 34 28  1  0
  1 45  1  0
  1 46  1  0
  1 47  1  0
  2 48  1  6
  3 49  1  0
  6 50  1  1
  7 51  1  0
  7 52  1  0
  8 53  1  1
  9 54  1  0
 11 55  1  0
 11 56  1  0
 12 57  1  0
 12 58  1  0
 13 59  1  0
 13 60  1  0
 15 61  1  0
 15 62  1  0
 19 63  1  0
 19 64  1  0
 20 65  1  0
 24 66  1  0
 25 67  1  0
 29 68  1  0
 30 69  1  0
 33 70  1  0
 34 71  1  0
 35 72  1  0
 36 73  1  0
 38 74  1  0
 41 75  1  0
 42 76  1  0
 42 77  1  0
 43 78  1  0
M  END
>  <mol_id>  (1) 
81308

>  <source_index>  (1) 
7

>  <layer>  (1) 
L4

>  <uniprot>  (1) 
P09871

>  <paff>  (1) 
7

>  <smiles>  (1) 
C[C@@H](NC(=O)[C@@H]1C[C@H](C2OCCCO2)CN1C(=O)CNC(=O)c1ccc(Oc2ccc(F)cc2)cc1)c1cc(C(=N)N)cs1

$$$$
