L3:P28347:28596
     RDKit          3D

 48 50  0  0  0  0  0  0  0  0999 V2000
  -13.9702   16.9750   67.9839 C   0  0  0  0  0  0  0  0  0  0  0  0
  -13.6221   18.1325   67.4398 N   0  0  0  0  0  0  0  0  0  0  0  0
  -13.3430   18.9946   68.4597 N   0  0  0  0  0  0  0  0  0  0  0  0
  -13.7063   18.4260   69.7021 C   0  0  0  0  0  0  0  0  0  0  0  0
  -13.7887   19.0345   70.8615 N   0  0  0  0  0  0  0  0  0  0  0  0
  -14.1940   18.2462   71.8616 C   0  0  0  0  0  0  0  0  0  0  0  0
  -14.4582   16.8894   71.7237 C   0  0  0  0  0  0  0  0  0  0  0  0
  -14.3319   16.2559   70.4917 C   0  0  0  0  0  0  0  0  0  0  0  0
  -14.0441   17.0881   69.4133 C   0  0  0  0  0  0  0  0  0  0  0  0
  -12.6741   20.1707   68.2481 C   0  0  0  0  0  0  0  0  0  0  0  0
  -12.5722   20.7066   66.9349 C   0  0  0  0  0  0  0  0  0  0  0  0
  -12.0317   21.9509   66.7759 C   0  0  0  0  0  0  0  0  0  0  0  0
  -11.4682   22.6909   67.8818 C   0  0  0  0  0  0  0  0  0  0  0  0
  -11.5036   22.0686   69.1788 C   0  0  0  0  0  0  0  0  0  0  0  0
  -12.0862   20.8499   69.3569 C   0  0  0  0  0  0  0  0  0  0  0  0
  -10.7908   24.2135   67.6763 S   0  0  0  0  0  0  0  0  0  0  0  0
  -10.0275   17.9767   64.1478 F   0  0  0  0  0  0  0  0  0  0  0  0
  -14.8657   20.7440   63.7764 F   0  0  0  0  0  0  0  0  0  0  0  0
  -11.3481   16.2719   65.9844 F   0  0  0  0  0  0  0  0  0  0  0  0
  -11.3278   16.2713   65.9416 F   0  0  0  0  0  0  0  0  0  0  0  0
  -11.3071   16.2718   65.9023 F   0  0  0  0  0  0  0  0  0  0  0  0
  -14.3713   14.7698   70.3516 C   0  0  2  0  0  0  0  0  0  0  0  0
  -15.6762   14.3181   69.9167 O   0  0  0  0  0  0  0  0  0  0  0  0
  -15.5808   14.0524   68.9852 H   0  0  0  0  0  0  0  0  0  0  0  0
  -13.9730   14.0208   71.6011 C   0  0  0  0  0  0  0  0  0  0  0  0
  -12.6918   14.4250   72.0676 O   0  0  0  0  0  0  0  0  0  0  0  0
  -12.0671   14.3505   71.3214 H   0  0  0  0  0  0  0  0  0  0  0  0
  -14.1425   15.8258   67.0790 C   0  0  0  0  0  0  0  0  0  0  0  0
  -13.9729   13.3551   67.3537 C   0  0  0  0  0  0  0  0  0  0  0  0
  -15.1854   13.0304   67.5183 O   0  0  0  0  0  0  0  0  0  0  0  0
  -13.5316   14.6030   67.4386 N   0  0  0  0  0  0  0  0  0  0  0  0
  -12.5203   14.7013   67.5018 H   0  0  0  0  0  0  0  0  0  0  0  0
  -11.6540   12.4500   67.2983 C   0  0  0  0  0  0  0  0  0  0  0  0
  -12.9647   12.2908   67.1712 C   0  0  0  0  0  0  0  0  0  0  0  0
  -14.3028   18.7312   72.8234 H   0  0  0  0  0  0  0  0  0  0  0  0
  -14.7171   16.3318   72.6061 H   0  0  0  0  0  0  0  0  0  0  0  0
  -12.9065   20.1460   66.0775 H   0  0  0  0  0  0  0  0  0  0  0  0
  -12.0124   22.4067   65.7984 H   0  0  0  0  0  0  0  0  0  0  0  0
  -11.0614   22.5879   70.0162 H   0  0  0  0  0  0  0  0  0  0  0  0
  -12.1006   20.3984   70.3284 H   0  0  0  0  0  0  0  0  0  0  0  0
  -13.6135   14.5137   69.6136 H   0  0  0  0  0  0  0  0  0  0  0  0
  -13.9839   12.9584   71.3787 H   0  0  0  0  0  0  0  0  0  0  0  0
  -14.6749   14.1935   72.4139 H   0  0  0  0  0  0  0  0  0  0  0  0
  -15.0620   15.7663   66.5083 H   0  0  0  0  0  0  0  0  0  0  0  0
  -13.1963   16.1233   66.2543 H   0  0  0  0  0  0  0  0  0  0  0  0
  -11.0025   11.5940   67.1803 H   0  0  0  0  0  0  0  0  0  0  0  0
  -11.1637   13.3990   67.4386 H   0  0  0  0  0  0  0  0  0  0  0  0
  -13.3852   11.3271   66.8961 H   0  0  0  0  0  0  0  0  0  0  0  0
  1  2  2  0
  2  3  1  0
  3 10  1  0
  3  4  1  0
  4  5  2  0
  5  6  1  0
  6  7  2  0
  6 35  1  0
  7  8  1  0
  7 36  1  0
  8 22  1  0
  8  9  2  0
  9  1  1  0
  9  4  1  0
 10 11  2  0
 11 12  1  0
 11 37  1  0
 12 13  2  0
 12 38  1  0
 13 16  1  0
 13 14  1  0
 14 15  2  0
 14 39  1  0
 15 10  1  0
 15 40  1  0
 16 17  1  0
 16 18  1  0
 16 19  1  0
 16 20  1  0
 16 21  1  0
 22 23  1  0
 22 25  1  0
 22 41  1  6
 23 24  1  0
 25 26  1  0
 25 42  1  0
 25 43  1  0
 26 27  1  0
 28  1  1  0
 28 44  1  0
 28 45  1  0
 29 30  2  0
 29 31  1  0
 31 28  1  0
 31 32  1  0
 33 34  2  0
 33 46  1  0
 33 47  1  0
 34 29  1  0
 34 48  1  0
M  END
>  <minimizedAffinity>  (1) 
-7.18263

>  <mol_id>  (1) 
28596

>  <source_index>  (1) 
0

>  <layer>  (1) 
L3

>  <uniprot>  (1) 
P28347

>  <paff>  (1) 
7.3665000000000003

>  <smiles>  (1) 
OC[C@@H](O)c1ccnc2n(nc(CNC(=O)C=C)c12)-c1ccc(cc1)S(F)(F)(F)(F)F |r|

>  <aimnet_interaction_kcal_mol>  (1) 
-162.88829306717022

$$$$
L3:P28347:30720
     RDKit          3D

 50 53  0  0  0  0  0  0  0  0999 V2000
  -14.6464   13.9677   69.0034 C   0  0  0  0  0  0  0  0  0  0  0  0
  -14.7393   12.7936   68.3707 N   0  0  0  0  0  0  0  0  0  0  0  0
  -13.7834   12.7720   67.3976 N   0  0  0  0  0  0  0  0  0  0  0  0
  -13.1522   13.9948   67.3455 C   0  0  0  0  0  0  0  0  0  0  0  0
  -12.2465   14.3595   66.4545 N   0  0  0  0  0  0  0  0  0  0  0  0
  -11.8871   15.6368   66.5266 C   0  0  0  0  0  0  0  0  0  0  0  0
  -12.3202   16.5192   67.5116 C   0  0  0  0  0  0  0  0  0  0  0  0
  -13.2186   16.1330   68.4919 C   0  0  0  0  0  0  0  0  0  0  0  0
  -13.6857   14.7964   68.3786 C   0  0  0  0  0  0  0  0  0  0  0  0
  -13.4046   11.5481   66.8067 C   0  0  0  0  0  0  0  0  0  0  0  0
  -12.0916   11.3101   66.4136 C   0  0  0  0  0  0  0  0  0  0  0  0
  -11.6908   10.0288   66.0757 C   0  0  0  0  0  0  0  0  0  0  0  0
  -12.6081    8.9945   66.0929 C   0  0  0  0  0  0  0  0  0  0  0  0
  -13.9380    9.2331   66.3645 C   0  0  0  0  0  0  0  0  0  0  0  0
  -14.3379   10.5250   66.6609 C   0  0  0  0  0  0  0  0  0  0  0  0
  -12.1163    7.7218   65.7615 O   0  0  0  0  0  0  0  0  0  0  0  0
  -12.6477    6.6450   66.3707 C   0  0  0  0  0  0  0  0  0  0  0  0
  -11.8436    5.5989   66.1670 F   0  0  0  0  0  0  0  0  0  0  0  0
  -12.7974    6.8071   67.6997 F   0  0  0  0  0  0  0  0  0  0  0  0
  -13.8744    6.3201   65.8752 F   0  0  0  0  0  0  0  0  0  0  0  0
  -13.5995   17.1111   69.5418 C   0  0  1  0  0  0  0  0  0  0  0  0
  -12.4424   17.8034   70.3197 C   0  0  0  0  0  0  0  0  0  0  0  0
  -13.1038   19.1773   70.0789 C   0  0  1  0  0  0  0  0  0  0  0  0
  -12.2938   20.2436   69.6193 O   0  0  0  0  0  0  0  0  0  0  0  0
  -14.0843   18.5146   69.0895 C   0  0  0  0  0  0  0  0  0  0  0  0
  -11.8713   19.9527   68.8023 H   0  0  0  0  0  0  0  0  0  0  0  0
  -15.4532   14.1946   70.2276 C   0  0  0  0  0  0  0  0  0  0  0  0
  -14.6291   15.1737   72.3169 C   0  0  0  0  0  0  0  0  0  0  0  0
  -15.2477   16.2200   72.1337 O   0  0  0  0  0  0  0  0  0  0  0  0
  -14.6977   14.1126   71.4580 N   0  0  0  0  0  0  0  0  0  0  0  0
  -14.3098   13.2230   71.7553 H   0  0  0  0  0  0  0  0  0  0  0  0
  -13.2354   15.9922   74.1592 C   0  0  0  0  0  0  0  0  0  0  0  0
  -13.7157   14.9690   73.4593 C   0  0  0  0  0  0  0  0  0  0  0  0
  -11.2158   15.9996   65.7524 H   0  0  0  0  0  0  0  0  0  0  0  0
  -11.9331   17.5284   67.4857 H   0  0  0  0  0  0  0  0  0  0  0  0
  -11.3974   12.1336   66.3713 H   0  0  0  0  0  0  0  0  0  0  0  0
  -10.6638    9.8356   65.8111 H   0  0  0  0  0  0  0  0  0  0  0  0
  -14.6685    8.4452   66.3120 H   0  0  0  0  0  0  0  0  0  0  0  0
  -15.3929   10.7454   66.6594 H   0  0  0  0  0  0  0  0  0  0  0  0
  -14.3117   16.6882   70.2408 H   0  0  0  0  0  0  0  0  0  0  0  0
  -11.4753   17.7298   69.8217 H   0  0  0  0  0  0  0  0  0  0  0  0
  -12.3197   17.5020   71.3586 H   0  0  0  0  0  0  0  0  0  0  0  0
  -13.6030   19.5594   70.9657 H   0  0  0  0  0  0  0  0  0  0  0  0
  -13.8520   18.7468   68.0493 H   0  0  0  0  0  0  0  0  0  0  0  0
  -15.1420   18.7160   69.2553 H   0  0  0  0  0  0  0  0  0  0  0  0
  -15.9143   15.1789   70.2028 H   0  0  0  0  0  0  0  0  0  0  0  0
  -16.2625   13.4672   70.2521 H   0  0  0  0  0  0  0  0  0  0  0  0
  -12.5489   15.8452   74.9812 H   0  0  0  0  0  0  0  0  0  0  0  0
  -13.5303   17.0013   73.9117 H   0  0  0  0  0  0  0  0  0  0  0  0
  -13.4705   13.9471   73.7049 H   0  0  0  0  0  0  0  0  0  0  0  0
  1  2  2  0
  2  3  1  0
  3 10  1  0
  3  4  1  0
  4  5  2  0
  5  6  1  0
  6  7  2  0
  6 34  1  0
  7  8  1  0
  7 35  1  0
  8 21  1  0
  8  9  2  0
  9  1  1  0
  9  4  1  0
 10 11  2  0
 11 12  1  0
 11 36  1  0
 12 13  2  0
 12 37  1  0
 13 16  1  0
 13 14  1  0
 14 15  2  0
 14 38  1  0
 15 10  1  0
 15 39  1  0
 16 17  1  0
 17 18  1  0
 17 19  1  0
 17 20  1  0
 21 22  1  0
 21 40  1  1
 22 23  1  0
 22 41  1  0
 22 42  1  0
 23 24  1  0
 23 25  1  0
 23 43  1  1
 24 26  1  0
 25 21  1  0
 25 44  1  0
 25 45  1  0
 27  1  1  0
 27 46  1  0
 27 47  1  0
 28 29  2  0
 28 30  1  0
 30 27  1  0
 30 31  1  0
 32 33  2  0
 32 48  1  0
 32 49  1  0
 33 28  1  0
 33 50  1  0
M  END
>  <minimizedAffinity>  (2) 
-7.22929

>  <mol_id>  (2) 
30720

>  <source_index>  (2) 
1

>  <layer>  (2) 
L3

>  <uniprot>  (2) 
P28347

>  <paff>  (2) 
6.7446999999999999

>  <smiles>  (2) 
C=CC(=O)NCc1nn(-c2ccc(OC(F)(F)F)cc2)c2nccc([C@H]3C[C@@H](O)C3)c12

>  <aimnet_interaction_kcal_mol>  (2) 
-47.519278937590649

$$$$
L3:P28347:52030
     RDKit          3D

 43 46  0  0  0  0  0  0  0  0999 V2000
  -14.2176    8.2280   66.0509 C   0  0  0  0  0  0  0  0  0  0  0  0
  -13.7996    6.8544   66.4980 C   0  0  0  0  0  0  0  0  0  0  0  0
  -12.5122    6.3801   66.2475 C   0  0  0  0  0  0  0  0  0  0  0  0
  -12.1254    5.1147   66.6598 C   0  0  0  0  0  0  0  0  0  0  0  0
  -13.0259    4.3062   67.3401 C   0  0  0  0  0  0  0  0  0  0  0  0
  -14.3239    4.7444   67.5530 C   0  0  0  0  0  0  0  0  0  0  0  0
  -14.6959    6.0144   67.1427 C   0  0  0  0  0  0  0  0  0  0  0  0
  -12.6296    3.1126   67.9056 O   0  0  0  0  0  0  0  0  0  0  0  0
  -12.4424    2.0119   67.0918 C   0  0  0  0  0  0  0  0  0  0  0  0
  -12.4302    0.7810   67.7349 C   0  0  0  0  0  0  0  0  0  0  0  0
  -12.3023   -0.3794   66.9883 C   0  0  0  0  0  0  0  0  0  0  0  0
  -12.1453   -0.3205   65.6106 C   0  0  0  0  0  0  0  0  0  0  0  0
  -12.1242    0.9145   64.9829 C   0  0  0  0  0  0  0  0  0  0  0  0
  -12.2824    2.0843   65.7159 C   0  0  0  0  0  0  0  0  0  0  0  0
  -14.7380   10.8872   67.0991 O   0  0  0  0  0  0  0  0  0  0  0  0
  -13.5761   10.5357   66.7903 C   0  0  0  0  0  0  0  0  0  0  0  0
  -13.2716    9.2465   66.4523 N   0  0  0  0  0  0  0  0  0  0  0  0
  -12.3658    8.8980   66.7220 H   0  0  0  0  0  0  0  0  0  0  0  0
  -12.4412   11.4334   66.7739 C   0  0  0  0  0  0  0  0  0  0  0  0
  -12.2367   12.6464   67.4203 C   0  0  0  0  0  0  0  0  0  0  0  0
  -10.9434   13.0159   67.4331 N   0  0  0  0  0  0  0  0  0  0  0  0
  -10.2775   12.0679   66.7581 C   0  0  0  0  0  0  0  0  0  0  0  0
   -8.9098   11.9589   66.4646 C   0  0  0  0  0  0  0  0  0  0  0  0
   -8.4815   10.9617   65.6346 C   0  0  0  0  0  0  0  0  0  0  0  0
   -9.4125   10.0543   65.0776 C   0  0  0  0  0  0  0  0  0  0  0  0
  -10.7344   10.1457   65.3828 C   0  0  0  0  0  0  0  0  0  0  0  0
  -11.1659   11.0904   66.2860 N   0  0  0  0  0  0  0  0  0  0  0  0
  -14.3158    8.2199   64.9613 H   0  0  0  0  0  0  0  0  0  0  0  0
  -15.1938    8.4874   66.4536 H   0  0  0  0  0  0  0  0  0  0  0  0
  -11.8039    6.9898   65.6980 H   0  0  0  0  0  0  0  0  0  0  0  0
  -11.1235    4.7600   66.4664 H   0  0  0  0  0  0  0  0  0  0  0  0
  -15.0313    4.1004   68.0490 H   0  0  0  0  0  0  0  0  0  0  0  0
  -15.7058    6.3555   67.3208 H   0  0  0  0  0  0  0  0  0  0  0  0
  -12.5408    0.7432   68.8088 H   0  0  0  0  0  0  0  0  0  0  0  0
  -12.3345   -1.3374   67.4865 H   0  0  0  0  0  0  0  0  0  0  0  0
  -12.0472   -1.2296   65.0339 H   0  0  0  0  0  0  0  0  0  0  0  0
  -11.9742    0.9741   63.9154 H   0  0  0  0  0  0  0  0  0  0  0  0
  -12.2931    3.0413   65.2163 H   0  0  0  0  0  0  0  0  0  0  0  0
  -12.9945   13.2497   67.8952 H   0  0  0  0  0  0  0  0  0  0  0  0
   -8.2322   12.6762   66.8948 H   0  0  0  0  0  0  0  0  0  0  0  0
   -7.4320   10.8611   65.3965 H   0  0  0  0  0  0  0  0  0  0  0  0
   -9.0785    9.2857   64.3965 H   0  0  0  0  0  0  0  0  0  0  0  0
  -11.4946    9.5651   64.8873 H   0  0  0  0  0  0  0  0  0  0  0  0
  1  2  1  0
  1 28  1  0
  1 29  1  0
  2  3  2  0
  3  4  1  0
  3 30  1  0
  4  5  2  0
  4 31  1  0
  5  8  1  0
  5  6  1  0
  6  7  2  0
  6 32  1  0
  7  2  1  0
  7 33  1  0
  8  9  1  0
  9 10  2  0
 10 11  1  0
 10 34  1  0
 11 12  2  0
 11 35  1  0
 12 13  1  0
 12 36  1  0
 13 14  2  0
 13 37  1  0
 14  9  1  0
 14 38  1  0
 15 16  2  0
 16 17  1  0
 16 19  1  0
 17  1  1  0
 17 18  1  0
 19 20  2  0
 20 21  1  0
 20 39  1  0
 21 22  2  0
 22 23  1  0
 23 24  2  0
 23 40  1  0
 24 25  1  0
 24 41  1  0
 25 26  2  0
 25 42  1  0
 26 27  1  0
 26 43  1  0
 27 19  1  0
 27 22  1  0
M  END
>  <minimizedAffinity>  (3) 
-10.16104

>  <mol_id>  (3) 
52030

>  <source_index>  (3) 
2

>  <layer>  (3) 
L3

>  <uniprot>  (3) 
P28347

>  <paff>  (3) 
7.2218

>  <smiles>  (3) 
c1ccc(cc1)Oc2ccc(cc2)CNC(=O)c3cnc4n3cccc4

>  <aimnet_interaction_kcal_mol>  (3) 
-63.334300255096636

$$$$
L3:P28347:64839
     RDKit          3D

109117  0  0  0  0  0  0  0  0999 V2000
  -12.0853   21.1571   74.0656 C   0  0  0  0  0  0  0  0  0  0  0  0
  -11.2786   21.4730   75.1685 C   0  0  0  0  0  0  0  0  0  0  0  0
   -9.7428   22.2688   74.9093 Cl  0  0  0  0  0  0  0  0  0  0  0  0
  -11.6796   21.1928   76.4666 C   0  0  0  0  0  0  0  0  0  0  0  0
  -12.9037   20.5846   76.7235 C   0  0  0  0  0  0  0  0  0  0  0  0
  -13.6928   20.2546   75.6393 C   0  0  0  0  0  0  0  0  0  0  0  0
  -13.2918   20.5267   74.3403 C   0  0  0  0  0  0  0  0  0  0  0  0
  -14.3768   20.0689   73.4244 C   0  0  0  0  0  0  0  0  0  0  0  0
  -15.2047   19.1439   74.3374 C   0  0  2  0  0  0  0  0  0  0  0  0
  -14.9128   19.6501   75.7039 O   0  0  0  0  0  0  0  0  0  0  0  0
  -12.3749   22.8868   70.7337 C   0  0  0  0  0  0  0  0  0  0  0  0
  -11.2248   22.4615   70.0866 C   0  0  0  0  0  0  0  0  0  0  0  0
  -10.4063   21.5289   70.6823 C   0  0  0  0  0  0  0  0  0  0  0  0
  -10.6991   20.9878   71.9300 C   0  0  0  0  0  0  0  0  0  0  0  0
  -11.7676   21.5243   72.6724 C   0  0  0  0  0  0  0  0  0  0  0  0
  -12.5924   22.4516   72.0389 C   0  0  0  0  0  0  0  0  0  0  0  0
  -13.6527   22.9606   72.6982 F   0  0  0  0  0  0  0  0  0  0  0  0
   -9.8235   19.8401   72.3286 C   0  0  0  0  0  0  0  0  0  0  0  0
  -10.2776   18.9349   73.2161 N   0  0  0  0  0  0  0  0  0  0  0  0
   -8.7323   19.7022   71.7705 O   0  0  0  0  0  0  0  0  0  0  0  0
   -9.7649   18.0632   73.3256 H   0  0  0  0  0  0  0  0  0  0  0  0
  -10.9476   19.1654   73.9253 H   0  0  0  0  0  0  0  0  0  0  0  0
  -13.2748   23.7512   70.1856 O   0  0  0  0  0  0  0  0  0  0  0  0
  -13.6951   23.4960   68.8454 C   0  0  0  0  0  0  0  0  0  0  0  0
  -14.6700   22.3385   68.7458 C   0  0  0  0  0  0  0  0  0  0  0  0
  -13.3424   20.6006   67.8018 C   0  0  0  0  0  0  0  0  0  0  0  0
  -14.1070   21.0490   68.9043 O   0  0  0  0  0  0  0  0  0  0  0  0
  -14.7559   17.7000   74.3414 C   0  0  0  0  0  0  0  0  0  0  0  0
  -13.5806   17.3040   73.7190 C   0  0  0  0  0  0  0  0  0  0  0  0
  -13.2490   15.9606   73.6268 C   0  0  0  0  0  0  0  0  0  0  0  0
  -14.0614   14.9885   74.1874 C   0  0  0  0  0  0  0  0  0  0  0  0
  -15.1783   15.3877   74.9122 C   0  0  0  0  0  0  0  0  0  0  0  0
  -15.5018   16.7319   75.0128 C   0  0  0  0  0  0  0  0  0  0  0  0
  -16.6986   19.3325   74.0681 C   0  0  0  0  0  0  0  0  0  0  0  0
  -16.9914   19.1902   72.6491 N   0  0  0  0  0  0  0  0  0  0  0  0
  -17.8063   19.7428   72.4139 H   0  0  0  0  0  0  0  0  0  0  0  0
  -17.1977   17.8209   72.1970 C   0  0  0  0  0  0  0  0  0  0  0  0
  -17.1840   17.7408   70.6726 C   0  0  0  0  0  0  0  0  0  0  0  0
  -15.8565   18.2296   70.0950 C   0  0  0  0  0  0  0  0  0  0  0  0
  -14.7225   17.2648   70.3867 C   0  0  0  0  0  0  0  0  0  0  0  0
  -15.0168   15.8549   69.9050 C   0  0  0  0  0  0  0  0  0  0  0  0
  -16.3444   15.3589   70.4349 C   0  0  0  0  0  0  0  0  0  0  0  0
  -17.4842   16.3281   70.1646 C   0  0  0  0  0  0  0  0  0  0  0  0
  -14.7439   15.6570   68.3983 C   0  0  0  0  0  0  0  0  0  0  0  0
  -13.4686   14.9742   68.7089 N   0  0  0  0  0  0  0  0  0  0  0  0
  -13.8405   14.9100   70.1426 C   0  0  0  0  0  0  0  0  0  0  0  0
  -13.0582   13.8041   68.0471 C   0  0  0  0  0  0  0  0  0  0  0  0
  -11.7231   13.6694   67.6480 C   0  0  0  0  0  0  0  0  0  0  0  0
  -11.3019   12.5556   66.9398 C   0  0  0  0  0  0  0  0  0  0  0  0
  -12.2108   11.5631   66.6340 C   0  0  0  0  0  0  0  0  0  0  0  0
  -13.5174   11.6228   67.1531 C   0  0  0  0  0  0  0  0  0  0  0  0
  -13.9494   12.7472   67.8319 C   0  0  0  0  0  0  0  0  0  0  0  0
  -14.1580   10.3466   66.8885 C   0  0  0  0  0  0  0  0  0  0  0  0
  -15.2969    9.9914   67.2074 O   0  0  0  0  0  0  0  0  0  0  0  0
  -13.2307    9.5576   66.2072 N   0  0  0  0  0  0  0  0  0  0  0  0
  -12.0629   10.3186   65.8885 C   0  0  0  0  0  0  0  0  0  0  0  0
  -11.1946    9.9439   65.1241 O   0  0  0  0  0  0  0  0  0  0  0  0
  -13.4732    8.2871   65.5580 C   0  0  1  0  0  0  0  0  0  0  0  0
  -12.3450    7.2941   65.8088 C   0  0  0  0  0  0  0  0  0  0  0  0
  -12.4011    6.7661   67.2278 C   0  0  0  0  0  0  0  0  0  0  0  0
  -13.7191    6.1019   67.4805 C   0  0  0  0  0  0  0  0  0  0  0  0
  -13.8823    5.0681   68.0952 O   0  0  0  0  0  0  0  0  0  0  0  0
  -14.8225    6.7476   66.9284 N   0  0  0  0  0  0  0  0  0  0  0  0
  -14.8409    7.7067   65.9341 C   0  0  0  0  0  0  0  0  0  0  0  0
  -15.8798    7.9902   65.3720 O   0  0  0  0  0  0  0  0  0  0  0  0
  -15.7127    6.3539   67.1930 H   0  0  0  0  0  0  0  0  0  0  0  0
  -11.0278   21.4593   77.2839 H   0  0  0  0  0  0  0  0  0  0  0  0
  -13.2195   20.3728   77.7334 H   0  0  0  0  0  0  0  0  0  0  0  0
  -14.0269   19.5807   72.5224 H   0  0  0  0  0  0  0  0  0  0  0  0
  -14.9933   20.9001   73.0878 H   0  0  0  0  0  0  0  0  0  0  0  0
  -10.9681   22.8737   69.1220 H   0  0  0  0  0  0  0  0  0  0  0  0
   -9.5133   21.1907   70.1797 H   0  0  0  0  0  0  0  0  0  0  0  0
  -14.2098   24.4055   68.5416 H   0  0  0  0  0  0  0  0  0  0  0  0
  -12.8435   23.3553   68.1774 H   0  0  0  0  0  0  0  0  0  0  0  0
  -15.4129   22.4386   69.5373 H   0  0  0  0  0  0  0  0  0  0  0  0
  -15.1940   22.4105   67.7825 H   0  0  0  0  0  0  0  0  0  0  0  0
  -13.1280   19.5469   67.9661 H   0  0  0  0  0  0  0  0  0  0  0  0
  -12.3920   21.1308   67.7152 H   0  0  0  0  0  0  0  0  0  0  0  0
  -13.8852   20.7029   66.8559 H   0  0  0  0  0  0  0  0  0  0  0  0
  -12.9121   18.0353   73.2949 H   0  0  0  0  0  0  0  0  0  0  0  0
  -12.3386   15.6890   73.1121 H   0  0  0  0  0  0  0  0  0  0  0  0
  -13.8268   13.9408   74.0603 H   0  0  0  0  0  0  0  0  0  0  0  0
  -15.7889   14.6475   75.4120 H   0  0  0  0  0  0  0  0  0  0  0  0
  -16.3325   17.0288   75.6400 H   0  0  0  0  0  0  0  0  0  0  0  0
  -16.9327   20.3458   74.3936 H   0  0  0  0  0  0  0  0  0  0  0  0
  -17.2907   18.6507   74.6871 H   0  0  0  0  0  0  0  0  0  0  0  0
  -18.1358   17.3960   72.5899 H   0  0  0  0  0  0  0  0  0  0  0  0
  -16.4050   17.1963   72.6005 H   0  0  0  0  0  0  0  0  0  0  0  0
  -17.9814   18.3969   70.3064 H   0  0  0  0  0  0  0  0  0  0  0  0
  -15.6366   19.2167   70.4899 H   0  0  0  0  0  0  0  0  0  0  0  0
  -15.9540   18.3381   69.0172 H   0  0  0  0  0  0  0  0  0  0  0  0
  -14.5236   17.2259   71.4515 H   0  0  0  0  0  0  0  0  0  0  0  0
  -13.7953   17.5961   69.9212 H   0  0  0  0  0  0  0  0  0  0  0  0
  -16.2360   15.1792   71.5057 H   0  0  0  0  0  0  0  0  0  0  0  0
  -16.5635   14.3817   69.9928 H   0  0  0  0  0  0  0  0  0  0  0  0
  -18.4108   15.9558   70.6074 H   0  0  0  0  0  0  0  0  0  0  0  0
  -17.6523   16.3738   69.0858 H   0  0  0  0  0  0  0  0  0  0  0  0
  -14.6233   16.5611   67.7967 H   0  0  0  0  0  0  0  0  0  0  0  0
  -15.4856   15.0276   67.8960 H   0  0  0  0  0  0  0  0  0  0  0  0
  -13.0547   15.2597   70.8096 H   0  0  0  0  0  0  0  0  0  0  0  0
  -14.1342   13.9107   70.4848 H   0  0  0  0  0  0  0  0  0  0  0  0
  -11.0239   14.4419   67.9284 H   0  0  0  0  0  0  0  0  0  0  0  0
  -10.2735   12.4745   66.6238 H   0  0  0  0  0  0  0  0  0  0  0  0
  -14.9341   12.8798   68.2534 H   0  0  0  0  0  0  0  0  0  0  0  0
  -13.5136    8.4939   64.4930 H   0  0  0  0  0  0  0  0  0  0  0  0
  -11.4008    7.7770   65.5916 H   0  0  0  0  0  0  0  0  0  0  0  0
  -12.4352    6.4608   65.1218 H   0  0  0  0  0  0  0  0  0  0  0  0
  -12.2541    7.5798   67.9406 H   0  0  0  0  0  0  0  0  0  0  0  0
  -11.6175    6.0398   67.4030 H   0  0  0  0  0  0  0  0  0  0  0  0
  1  2  2  0
  2  3  1  0
  2  4  1  0
  4  5  2  0
  4 67  1  0
  5  6  1  0
  5 68  1  0
  6  7  2  0
  7  8  1  0
  7  1  1  0
  8  9  1  0
  8 69  1  0
  8 70  1  0
  9 34  1  6
  9 28  1  0
  9 10  1  0
 10  6  1  0
 11 12  2  0
 12 13  1  0
 12 71  1  0
 13 14  2  0
 13 72  1  0
 14 18  1  0
 14 15  1  0
 15  1  1  0
 15 16  2  0
 16 17  1  0
 16 11  1  0
 18 19  1  0
 18 20  2  0
 19 21  1  0
 19 22  1  0
 23 11  1  0
 24 23  1  0
 24 73  1  0
 24 74  1  0
 25 24  1  0
 25 75  1  0
 25 76  1  0
 26 27  1  0
 26 77  1  0
 26 78  1  0
 26 79  1  0
 27 25  1  0
 28 29  2  0
 29 30  1  0
 29 80  1  0
 30 31  2  0
 30 81  1  0
 31 32  1  0
 31 82  1  0
 32 33  2  0
 32 83  1  0
 33 28  1  0
 33 84  1  0
 34 35  1  0
 34 85  1  0
 34 86  1  0
 35 37  1  0
 35 36  1  0
 37 38  1  0
 37 87  1  0
 37 88  1  0
 38 39  1  0
 38 89  1  0
 39 40  1  0
 39 90  1  0
 39 91  1  0
 40 92  1  0
 40 93  1  0
 41 40  1  0
 41 42  1  0
 41 44  1  0
 42 43  1  0
 42 94  1  0
 42 95  1  0
 43 38  1  0
 43 96  1  0
 43 97  1  0
 44 45  1  0
 44 98  1  0
 44 99  1  0
 45 47  1  0
 45 46  1  0
 46 41  1  0
 46100  1  0
 46101  1  0
 47 48  2  0
 48 49  1  0
 48102  1  0
 49 50  2  0
 49103  1  0
 50 51  1  0
 51 52  2  0
 51 53  1  0
 52 47  1  0
 52104  1  0
 53 54  2  0
 53 55  1  0
 55 58  1  0
 55 56  1  0
 56 57  2  0
 56 50  1  0
 58 59  1  0
 58105  1  6
 59 60  1  0
 59106  1  0
 59107  1  0
 60 61  1  0
 60108  1  0
 60109  1  0
 61 62  2  0
 61 63  1  0
 63 64  1  0
 63 66  1  0
 64 65  2  0
 64 58  1  0
M  END
>  <minimizedAffinity>  (4) 
-7.15939

>  <mol_id>  (4) 
64839

>  <source_index>  (4) 
3

>  <layer>  (4) 
L3

>  <uniprot>  (4) 
P28347

>  <paff>  (4) 
6.4248000000000003

>  <smiles>  (4) 
COCCOc1ccc(C(N)=O)c(-c2c(Cl)ccc3c2C[C@@](CNCC2CCC4(CC2)CN(c2ccc5c(c2)C(=O)N(C2CCC(=O)NC2=O)C5=O)C4)(c2ccccc2)O3)c1F

>  <aimnet_interaction_kcal_mol>  (4) 
-67.94715026249203

$$$$
L3:P28347:76968
     RDKit          3D

 46 48  0  0  0  0  0  0  0  0999 V2000
  -13.3842    6.7704   66.3458 C   0  0  0  0  0  0  0  0  0  0  0  0
  -13.5299    5.5191   66.7752 N   0  0  0  0  0  0  0  0  0  0  0  0
  -12.3611    4.8758   66.5364 N   0  0  0  0  0  0  0  0  0  0  0  0
  -11.4402    5.7261   65.9582 C   0  0  0  0  0  0  0  0  0  0  0  0
  -10.1837    5.4434   65.6393 N   0  0  0  0  0  0  0  0  0  0  0  0
   -9.5405    6.4468   65.0356 C   0  0  0  0  0  0  0  0  0  0  0  0
  -10.0818    7.7162   64.8093 C   0  0  0  0  0  0  0  0  0  0  0  0
  -11.3777    8.0107   65.1899 C   0  0  0  0  0  0  0  0  0  0  0  0
  -12.0900    6.9662   65.8033 C   0  0  0  0  0  0  0  0  0  0  0  0
  -12.2464    3.4884   66.7747 C   0  0  0  0  0  0  0  0  0  0  0  0
  -11.6926    2.6494   65.8165 C   0  0  0  0  0  0  0  0  0  0  0  0
  -11.7013    1.2805   66.0189 C   0  0  0  0  0  0  0  0  0  0  0  0
  -12.2324    0.7783   67.1904 C   0  0  0  0  0  0  0  0  0  0  0  0
  -12.6786    1.6094   68.2025 C   0  0  0  0  0  0  0  0  0  0  0  0
  -12.7660    2.9678   67.9556 C   0  0  0  0  0  0  0  0  0  0  0  0
  -12.3621   -0.6063   67.4081 O   0  0  0  0  0  0  0  0  0  0  0  0
  -12.8248   -1.3479   66.3858 C   0  0  0  0  0  0  0  0  0  0  0  0
  -13.3841   -2.4605   66.8774 F   0  0  0  0  0  0  0  0  0  0  0  0
  -13.7609   -0.7154   65.6440 F   0  0  0  0  0  0  0  0  0  0  0  0
  -11.8284   -1.7245   65.5447 F   0  0  0  0  0  0  0  0  0  0  0  0
  -12.0185    9.3209   64.8943 C   0  0  0  0  0  0  0  0  0  0  0  0
  -12.1203   10.1171   66.0804 O   0  0  0  0  0  0  0  0  0  0  0  0
  -12.3477   11.0172   65.8038 H   0  0  0  0  0  0  0  0  0  0  0  0
  -14.4490    7.7574   66.6021 C   0  0  0  0  0  0  0  0  0  0  0  0
  -16.5860    8.5926   65.8146 C   0  0  0  0  0  0  0  0  0  0  0  0
  -16.7927    9.0704   66.9469 O   0  0  0  0  0  0  0  0  0  0  0  0
  -15.4511    7.9004   65.5591 N   0  0  0  0  0  0  0  0  0  0  0  0
  -15.3256    7.4340   64.6751 H   0  0  0  0  0  0  0  0  0  0  0  0
  -19.1637    9.8583   63.2459 C   0  0  0  0  0  0  0  0  0  0  0  0
  -18.0395    9.8185   64.1940 C   0  0  0  0  0  0  0  0  0  0  0  0
  -17.5138    8.6845   64.6811 C   0  0  0  0  0  0  0  0  0  0  0  0
   -8.5279    6.2328   64.7323 H   0  0  0  0  0  0  0  0  0  0  0  0
   -9.4658    8.4675   64.3385 H   0  0  0  0  0  0  0  0  0  0  0  0
  -11.2773    3.0731   64.9184 H   0  0  0  0  0  0  0  0  0  0  0  0
  -11.3155    0.6151   65.2660 H   0  0  0  0  0  0  0  0  0  0  0  0
  -12.9750    1.1972   69.1556 H   0  0  0  0  0  0  0  0  0  0  0  0
  -13.2693    3.6287   68.6419 H   0  0  0  0  0  0  0  0  0  0  0  0
  -13.0148    9.1299   64.4985 H   0  0  0  0  0  0  0  0  0  0  0  0
  -11.4469    9.8334   64.1177 H   0  0  0  0  0  0  0  0  0  0  0  0
  -14.9869    7.4740   67.4978 H   0  0  0  0  0  0  0  0  0  0  0  0
  -14.0001    8.7303   66.7847 H   0  0  0  0  0  0  0  0  0  0  0  0
  -19.9588   10.5284   63.5688 H   0  0  0  0  0  0  0  0  0  0  0  0
  -19.6023    8.8802   63.0872 H   0  0  0  0  0  0  0  0  0  0  0  0
  -18.8399   10.2387   62.2800 H   0  0  0  0  0  0  0  0  0  0  0  0
  -17.6000   10.7625   64.4805 H   0  0  0  0  0  0  0  0  0  0  0  0
  -17.6966    7.7433   64.1780 H   0  0  0  0  0  0  0  0  0  0  0  0
  1  2  2  0
  2  3  1  0
  3 10  1  0
  3  4  1  0
  4  5  2  0
  5  6  1  0
  6  7  2  0
  6 32  1  0
  7  8  1  0
  7 33  1  0
  8 21  1  0
  8  9  2  0
  9  1  1  0
  9  4  1  0
 10 11  2  0
 11 12  1  0
 11 34  1  0
 12 13  2  0
 12 35  1  0
 13 16  1  0
 13 14  1  0
 14 15  2  0
 14 36  1  0
 15 10  1  0
 15 37  1  0
 16 17  1  0
 17 18  1  0
 17 19  1  0
 17 20  1  0
 21 22  1  0
 21 38  1  0
 21 39  1  0
 22 23  1  0
 24  1  1  0
 24 40  1  0
 24 41  1  0
 25 26  2  0
 25 27  1  0
 27 24  1  0
 27 28  1  0
 29 30  1  0
 29 42  1  0
 29 43  1  0
 29 44  1  0
 30 31  2  0
 30 45  1  0
 31 25  1  0
 31 46  1  0
M  END
>  <minimizedAffinity>  (5) 
-9.28079

>  <mol_id>  (5) 
76968

>  <source_index>  (5) 
4

>  <layer>  (5) 
L3

>  <uniprot>  (5) 
P28347

>  <paff>  (5) 
6.0457999999999998

>  <smiles>  (5) 
C\C=C\C(=O)NCc1nn(-c2ccc(OC(F)(F)F)cc2)c2nccc(CO)c12

>  <aimnet_interaction_kcal_mol>  (5) 
-58.281127528499155

$$$$
L3:P28347:101735
     RDKit          3D

 64 68  0  0  0  0  0  0  0  0999 V2000
  -14.5161   14.9961   68.9407 C   0  0  0  0  0  0  0  0  0  0  0  0
  -14.6717   13.7562   68.4822 N   0  0  0  0  0  0  0  0  0  0  0  0
  -13.6341   13.5305   67.6111 N   0  0  0  0  0  0  0  0  0  0  0  0
  -12.8761   14.6703   67.4625 C   0  0  0  0  0  0  0  0  0  0  0  0
  -11.8959   14.8615   66.5930 N   0  0  0  0  0  0  0  0  0  0  0  0
  -11.5008   16.1315   66.4777 C   0  0  0  0  0  0  0  0  0  0  0  0
  -11.9404   17.1679   67.3004 C   0  0  0  0  0  0  0  0  0  0  0  0
  -12.8551   16.9374   68.3192 C   0  0  0  0  0  0  0  0  0  0  0  0
  -13.4141   15.6359   68.3341 C   0  0  0  0  0  0  0  0  0  0  0  0
  -18.7626   16.4304   69.9534 C   0  0  0  0  0  0  0  0  0  0  0  0
  -19.0341   17.6250   69.8989 O   0  0  0  0  0  0  0  0  0  0  0  0
  -17.5628   15.9120   69.6124 N   0  0  0  0  0  0  0  0  0  0  0  0
  -16.7544   14.8334   70.2098 C   0  0  0  0  0  0  0  0  0  0  0  0
  -15.4769   15.6148   69.8750 C   0  0  0  0  0  0  0  0  0  0  0  0
  -16.3874   16.7074   69.2503 C   0  0  0  0  0  0  0  0  0  0  0  0
  -21.0091   15.7804   70.7988 C   0  0  0  0  0  0  0  0  0  0  0  0
  -19.7872   15.4414   70.4120 C   0  0  0  0  0  0  0  0  0  0  0  0
  -19.3970   14.1375   70.3949 F   0  0  0  0  0  0  0  0  0  0  0  0
  -13.3981   12.2536   67.0880 C   0  0  0  0  0  0  0  0  0  0  0  0
  -14.4863   11.4221   66.8136 C   0  0  0  0  0  0  0  0  0  0  0  0
  -14.2778   10.0788   66.5434 C   0  0  0  0  0  0  0  0  0  0  0  0
  -12.9901    9.6396   66.3115 C   0  0  0  0  0  0  0  0  0  0  0  0
  -11.9113   10.4898   66.4370 C   0  0  0  0  0  0  0  0  0  0  0  0
  -12.1086   11.8002   66.8360 C   0  0  0  0  0  0  0  0  0  0  0  0
  -12.7540    8.3537   65.7830 O   0  0  0  0  0  0  0  0  0  0  0  0
  -12.9349    7.2906   66.5828 C   0  0  0  0  0  0  0  0  0  0  0  0
  -14.2614    7.0597   66.8439 F   0  0  0  0  0  0  0  0  0  0  0  0
  -12.3140    7.4070   67.7694 F   0  0  0  0  0  0  0  0  0  0  0  0
  -12.4567    6.2029   65.9747 F   0  0  0  0  0  0  0  0  0  0  0  0
  -13.1858   17.9607   69.2889 C   0  0  0  0  0  0  0  0  0  0  0  0
  -13.5969   19.2903   69.0563 C   0  0  0  0  0  0  0  0  0  0  0  0
  -13.9129   19.9119   70.1900 N   0  0  0  0  0  0  0  0  0  0  0  0
  -13.6648   19.0097   71.1624 N   0  0  0  0  0  0  0  0  0  0  0  0
  -13.2107   17.8364   70.6693 C   0  0  0  0  0  0  0  0  0  0  0  0
  -13.9702   19.3172   72.5466 C   0  0  0  0  0  0  0  0  0  0  0  0
  -14.9291   18.3298   73.1941 C   0  0  0  0  0  0  0  0  0  0  0  0
  -16.1432   18.0612   72.4375 N   0  0  0  0  0  0  0  0  0  0  0  0
  -16.8960   19.2604   72.1044 C   0  0  0  0  0  0  0  0  0  0  0  0
  -16.9758   17.1048   73.1417 C   0  0  0  0  0  0  0  0  0  0  0  0
  -10.8200   16.3531   65.6648 H   0  0  0  0  0  0  0  0  0  0  0  0
  -11.5475   18.1623   67.1430 H   0  0  0  0  0  0  0  0  0  0  0  0
  -16.8717   13.8929   69.6892 H   0  0  0  0  0  0  0  0  0  0  0  0
  -16.9279   14.6778   71.2684 H   0  0  0  0  0  0  0  0  0  0  0  0
  -14.9809   15.9865   70.7644 H   0  0  0  0  0  0  0  0  0  0  0  0
  -16.2712   16.8199   68.1805 H   0  0  0  0  0  0  0  0  0  0  0  0
  -16.3682   17.6753   69.7320 H   0  0  0  0  0  0  0  0  0  0  0  0
  -21.7389   15.0544   71.1206 H   0  0  0  0  0  0  0  0  0  0  0  0
  -21.2833   16.8240   70.7828 H   0  0  0  0  0  0  0  0  0  0  0  0
  -15.4409   11.8899   66.6245 H   0  0  0  0  0  0  0  0  0  0  0  0
  -15.1080    9.4040   66.4022 H   0  0  0  0  0  0  0  0  0  0  0  0
  -10.9208   10.1433   66.1944 H   0  0  0  0  0  0  0  0  0  0  0  0
  -11.2804   12.4862   66.9183 H   0  0  0  0  0  0  0  0  0  0  0  0
  -13.6839   19.8132   68.1180 H   0  0  0  0  0  0  0  0  0  0  0  0
  -12.9390   17.0102   71.3047 H   0  0  0  0  0  0  0  0  0  0  0  0
  -14.3765   20.3229   72.5607 H   0  0  0  0  0  0  0  0  0  0  0  0
  -13.0419   19.3322   73.1187 H   0  0  0  0  0  0  0  0  0  0  0  0
  -15.1678   18.7264   74.1937 H   0  0  0  0  0  0  0  0  0  0  0  0
  -14.4104   17.3804   73.3533 H   0  0  0  0  0  0  0  0  0  0  0  0
  -16.3396   19.8677   71.3981 H   0  0  0  0  0  0  0  0  0  0  0  0
  -17.1307   19.8734   72.9906 H   0  0  0  0  0  0  0  0  0  0  0  0
  -17.8316   18.9789   71.6309 H   0  0  0  0  0  0  0  0  0  0  0  0
  -16.4204   16.1842   73.3208 H   0  0  0  0  0  0  0  0  0  0  0  0
  -17.8442   16.8577   72.5377 H   0  0  0  0  0  0  0  0  0  0  0  0
  -17.3423   17.4812   74.1086 H   0  0  0  0  0  0  0  0  0  0  0  0
  1  2  2  0
  2  3  1  0
  3 19  1  0
  3  4  1  0
  4  5  2  0
  5  6  1  0
  6  7  2  0
  6 40  1  0
  7  8  1  0
  7 41  1  0
  8 30  1  0
  8  9  2  0
  9  1  1  0
  9  4  1  0
 10 11  2  0
 10 12  1  0
 12 13  1  0
 13 14  1  0
 13 42  1  0
 13 43  1  0
 14  1  1  0
 14 15  1  0
 14 44  1  0
 15 12  1  0
 15 45  1  0
 15 46  1  0
 16 17  2  0
 16 47  1  0
 16 48  1  0
 17 18  1  0
 17 10  1  0
 19 20  2  0
 20 21  1  0
 20 49  1  0
 21 22  2  0
 21 50  1  0
 22 25  1  0
 22 23  1  0
 23 24  2  0
 23 51  1  0
 24 19  1  0
 24 52  1  0
 25 26  1  0
 26 27  1  0
 26 28  1  0
 26 29  1  0
 30 31  1  0
 31 32  2  0
 31 53  1  0
 32 33  1  0
 33 35  1  0
 33 34  1  0
 34 30  2  0
 34 54  1  0
 35 36  1  0
 35 55  1  0
 35 56  1  0
 36 37  1  0
 36 57  1  0
 36 58  1  0
 37 38  1  0
 37 39  1  0
 38 59  1  0
 38 60  1  0
 38 61  1  0
 39 62  1  0
 39 63  1  0
 39 64  1  0
M  END
>  <minimizedAffinity>  (6) 
-6.80953

>  <mol_id>  (6) 
101735

>  <source_index>  (6) 
5

>  <layer>  (6) 
L3

>  <uniprot>  (6) 
P28347

>  <paff>  (6) 
6.6021000000000001

>  <smiles>  (6) 
CN(C)CCn1cc(cn1)-c1ccnc2n(nc(C3CN(C3)C(=O)C(F)=C)c12)-c1ccc(OC(F)(F)F)cc1

>  <aimnet_interaction_kcal_mol>  (6) 
-39.786292323154441

$$$$
L3:P28347:107616
     RDKit          3D

 46 48  0  0  0  0  0  0  0  0999 V2000
  -14.1232    7.0241   66.6274 C   0  0  0  0  0  0  0  0  0  0  0  0
  -14.0447    5.7238   66.8828 N   0  0  0  0  0  0  0  0  0  0  0  0
  -12.8138    5.3034   66.5404 N   0  0  0  0  0  0  0  0  0  0  0  0
  -12.0674    6.3475   66.0322 C   0  0  0  0  0  0  0  0  0  0  0  0
  -10.8659    6.2205   65.4797 N   0  0  0  0  0  0  0  0  0  0  0  0
  -10.3606    7.3586   65.0108 C   0  0  0  0  0  0  0  0  0  0  0  0
  -10.9951    8.5932   65.1394 C   0  0  0  0  0  0  0  0  0  0  0  0
  -12.2149    8.7307   65.7844 C   0  0  0  0  0  0  0  0  0  0  0  0
  -12.8587    7.5218   66.1549 C   0  0  0  0  0  0  0  0  0  0  0  0
  -12.5146    3.9239   66.5479 C   0  0  0  0  0  0  0  0  0  0  0  0
  -12.9631    3.1347   67.6018 C   0  0  0  0  0  0  0  0  0  0  0  0
  -12.7641    1.7670   67.5520 C   0  0  0  0  0  0  0  0  0  0  0  0
  -12.2431    1.1760   66.4068 C   0  0  0  0  0  0  0  0  0  0  0  0
  -11.8055    1.9702   65.3567 C   0  0  0  0  0  0  0  0  0  0  0  0
  -11.8680    3.3471   65.4630 C   0  0  0  0  0  0  0  0  0  0  0  0
  -12.2145   -0.3146   66.2914 C   0  0  0  0  0  0  0  0  0  0  0  0
  -11.9895   -0.9170   67.4828 F   0  0  0  0  0  0  0  0  0  0  0  0
  -11.2636   -0.7555   65.4351 F   0  0  0  0  0  0  0  0  0  0  0  0
  -13.4014   -0.8086   65.8265 F   0  0  0  0  0  0  0  0  0  0  0  0
  -12.7728   10.1109   65.9587 C   0  0  1  0  0  0  0  0  0  0  0  0
  -13.9962   10.1070   66.7008 O   0  0  0  0  0  0  0  0  0  0  0  0
  -14.6600    9.6039   66.1922 H   0  0  0  0  0  0  0  0  0  0  0  0
  -11.8533   11.1778   66.5565 C   0  0  0  0  0  0  0  0  0  0  0  0
  -12.5106   12.4282   66.6528 O   0  0  0  0  0  0  0  0  0  0  0  0
  -12.9722   12.6028   65.8166 H   0  0  0  0  0  0  0  0  0  0  0  0
  -15.4854    7.5968   66.7582 C   0  0  0  0  0  0  0  0  0  0  0  0
  -17.2846    8.7055   65.5329 C   0  0  0  0  0  0  0  0  0  0  0  0
  -18.0074    8.6162   66.5500 O   0  0  0  0  0  0  0  0  0  0  0  0
  -15.9426    8.3315   65.5800 N   0  0  0  0  0  0  0  0  0  0  0  0
  -15.5555    7.9943   64.7108 H   0  0  0  0  0  0  0  0  0  0  0  0
  -18.8794    9.8406   63.9063 C   0  0  0  0  0  0  0  0  0  0  0  0
  -17.7240    9.2228   64.2402 C   0  0  0  0  0  0  0  0  0  0  0  0
   -9.3946    7.3002   64.5243 H   0  0  0  0  0  0  0  0  0  0  0  0
  -10.4881    9.4511   64.7220 H   0  0  0  0  0  0  0  0  0  0  0  0
  -13.4956    3.5879   68.4218 H   0  0  0  0  0  0  0  0  0  0  0  0
  -13.0244    1.1526   68.3987 H   0  0  0  0  0  0  0  0  0  0  0  0
  -11.4044    1.5246   64.4605 H   0  0  0  0  0  0  0  0  0  0  0  0
  -11.4220    3.9832   64.7204 H   0  0  0  0  0  0  0  0  0  0  0  0
  -12.9235   10.4708   64.9414 H   0  0  0  0  0  0  0  0  0  0  0  0
  -10.9474   11.2435   65.9492 H   0  0  0  0  0  0  0  0  0  0  0  0
  -11.5319   10.9064   67.5496 H   0  0  0  0  0  0  0  0  0  0  0  0
  -16.1749    6.7843   66.9580 H   0  0  0  0  0  0  0  0  0  0  0  0
  -15.5921    8.2621   67.6039 H   0  0  0  0  0  0  0  0  0  0  0  0
  -19.0679   10.2349   62.9140 H   0  0  0  0  0  0  0  0  0  0  0  0
  -19.6950    9.9394   64.6055 H   0  0  0  0  0  0  0  0  0  0  0  0
  -17.0075    9.0692   63.4483 H   0  0  0  0  0  0  0  0  0  0  0  0
  1  2  2  0
  2  3  1  0
  3 10  1  0
  3  4  1  0
  4  5  2  0
  5  6  1  0
  6  7  2  0
  6 33  1  0
  7  8  1  0
  7 34  1  0
  8 20  1  0
  8  9  2  0
  9  1  1  0
  9  4  1  0
 10 11  2  0
 11 12  1  0
 11 35  1  0
 12 13  2  0
 12 36  1  0
 13 16  1  0
 13 14  1  0
 14 15  2  0
 14 37  1  0
 15 10  1  0
 15 38  1  0
 16 17  1  0
 16 18  1  0
 16 19  1  0
 20 21  1  0
 20 23  1  0
 20 39  1  6
 21 22  1  0
 23 24  1  0
 23 40  1  0
 23 41  1  0
 24 25  1  0
 26  1  1  0
 26 42  1  0
 26 43  1  0
 27 28  2  0
 27 29  1  0
 29 26  1  0
 29 30  1  0
 31 32  2  0
 31 44  1  0
 31 45  1  0
 32 27  1  0
 32 46  1  0
M  END
>  <minimizedAffinity>  (7) 
-8.98018

>  <mol_id>  (7) 
107616

>  <source_index>  (7) 
6

>  <layer>  (7) 
L3

>  <uniprot>  (7) 
P28347

>  <paff>  (7) 
7.0968999999999998

>  <smiles>  (7) 
OC[C@H](O)c1ccnc2n(nc(CNC(=O)C=C)c12)-c1ccc(cc1)C(F)(F)F |r|

>  <aimnet_interaction_kcal_mol>  (7) 
-57.93592193710095

$$$$
L3:P28347:138257
     RDKit          3D

 55 58  0  0  0  0  0  0  0  0999 V2000
  -12.6767   10.3804   66.3192 C   0  0  0  0  0  0  0  0  0  0  0  0
  -13.7145   11.0174   66.8738 N   0  0  0  0  0  0  0  0  0  0  0  0
  -13.2369   12.2285   67.3140 N   0  0  0  0  0  0  0  0  0  0  0  0
  -11.8900   12.3345   67.0788 C   0  0  0  0  0  0  0  0  0  0  0  0
  -11.1159   13.3432   67.4560 N   0  0  0  0  0  0  0  0  0  0  0  0
   -9.8298   13.1590   67.1764 C   0  0  0  0  0  0  0  0  0  0  0  0
   -9.3102   12.0799   66.4661 C   0  0  0  0  0  0  0  0  0  0  0  0
  -10.1302   11.0470   66.0617 C   0  0  0  0  0  0  0  0  0  0  0  0
  -11.4918   11.1549   66.4167 C   0  0  0  0  0  0  0  0  0  0  0  0
  -14.0829   13.1961   67.9158 C   0  0  0  0  0  0  0  0  0  0  0  0
  -14.8696   14.0269   67.1220 C   0  0  0  0  0  0  0  0  0  0  0  0
  -15.5914   15.0655   67.6921 C   0  0  0  0  0  0  0  0  0  0  0  0
  -15.5840   15.2236   69.0655 C   0  0  0  0  0  0  0  0  0  0  0  0
  -14.8604   14.3672   69.8756 C   0  0  0  0  0  0  0  0  0  0  0  0
  -14.1027   13.3571   69.3029 C   0  0  0  0  0  0  0  0  0  0  0  0
  -16.2201   16.3296   69.6643 O   0  0  0  0  0  0  0  0  0  0  0  0
  -17.5561   16.2870   69.8273 C   0  0  0  0  0  0  0  0  0  0  0  0
  -17.9555   17.4317   70.3802 F   0  0  0  0  0  0  0  0  0  0  0  0
  -17.9538   15.2728   70.6415 F   0  0  0  0  0  0  0  0  0  0  0  0
  -18.2286   16.1267   68.6604 F   0  0  0  0  0  0  0  0  0  0  0  0
  -13.2582    7.3591   66.7370 N   0  0  0  0  0  0  0  0  0  0  0  0
  -14.1569    8.3466   66.0613 C   0  0  0  0  0  0  0  0  0  0  0  0
  -12.9144    9.1158   65.5867 C   0  0  0  0  0  0  0  0  0  0  0  0
  -12.1085    7.8573   65.9684 C   0  0  0  0  0  0  0  0  0  0  0  0
  -13.8380    5.7919   66.7694 S   0  0  0  0  0  0  0  0  0  0  0  0
  -14.6565    5.7572   67.9941 O   0  0  0  0  0  0  0  0  0  0  0  0
  -14.4884    5.4970   65.4719 O   0  0  0  0  0  0  0  0  0  0  0  0
  -11.2631    4.8169   66.4401 C   0  0  0  0  0  0  0  0  0  0  0  0
  -12.4539    4.6327   66.9928 C   0  0  0  0  0  0  0  0  0  0  0  0
  -12.8435    3.3938   67.7206 C   0  0  0  0  0  0  0  0  0  0  0  0
   -9.6243    9.8734   65.2975 C   0  0  1  0  0  0  0  0  0  0  0  0
  -10.2381    9.8594   63.9931 O   0  0  0  0  0  0  0  0  0  0  0  0
   -9.6906    9.2774   63.4480 H   0  0  0  0  0  0  0  0  0  0  0  0
   -8.1014    9.7773   65.2206 C   0  0  0  0  0  0  0  0  0  0  0  0
   -7.7283    8.4706   64.7890 O   0  0  0  0  0  0  0  0  0  0  0  0
   -7.7153    7.9121   65.5808 H   0  0  0  0  0  0  0  0  0  0  0  0
   -9.1380   13.9063   67.5456 H   0  0  0  0  0  0  0  0  0  0  0  0
   -8.2644   12.1054   66.2156 H   0  0  0  0  0  0  0  0  0  0  0  0
  -14.9025   13.8704   66.0567 H   0  0  0  0  0  0  0  0  0  0  0  0
  -16.1349   15.7516   67.0635 H   0  0  0  0  0  0  0  0  0  0  0  0
  -14.8456   14.5121   70.9458 H   0  0  0  0  0  0  0  0  0  0  0  0
  -13.4974   12.7284   69.9343 H   0  0  0  0  0  0  0  0  0  0  0  0
  -14.8085    8.8579   66.7537 H   0  0  0  0  0  0  0  0  0  0  0  0
  -14.7300    7.9154   65.2481 H   0  0  0  0  0  0  0  0  0  0  0  0
  -12.8666    9.2908   64.5191 H   0  0  0  0  0  0  0  0  0  0  0  0
  -11.2357    7.9892   66.5852 H   0  0  0  0  0  0  0  0  0  0  0  0
  -11.8532    7.2482   65.1053 H   0  0  0  0  0  0  0  0  0  0  0  0
  -10.5619    3.9961   66.4343 H   0  0  0  0  0  0  0  0  0  0  0  0
  -10.9353    5.7093   65.9504 H   0  0  0  0  0  0  0  0  0  0  0  0
  -12.0082    3.0547   68.3300 H   0  0  0  0  0  0  0  0  0  0  0  0
  -13.0690    2.6040   67.0036 H   0  0  0  0  0  0  0  0  0  0  0  0
  -13.7132    3.5401   68.3517 H   0  0  0  0  0  0  0  0  0  0  0  0
   -9.9481    8.9796   65.8248 H   0  0  0  0  0  0  0  0  0  0  0  0
   -7.6629   10.0033   66.1923 H   0  0  0  0  0  0  0  0  0  0  0  0
   -7.7292   10.4959   64.4889 H   0  0  0  0  0  0  0  0  0  0  0  0
  1  2  2  0
  2  3  1  0
  3 10  1  0
  3  4  1  0
  4  5  2  0
  5  6  1  0
  6  7  2  0
  6 37  1  0
  7  8  1  0
  7 38  1  0
  8 31  1  0
  8  9  2  0
  9  1  1  0
  9  4  1  0
 10 11  2  0
 11 12  1  0
 11 39  1  0
 12 13  2  0
 12 40  1  0
 13 16  1  0
 13 14  1  0
 14 15  2  0
 14 41  1  0
 15 10  1  0
 15 42  1  0
 16 17  1  0
 17 18  1  0
 17 19  1  0
 17 20  1  0
 21 22  1  0
 22 23  1  0
 22 43  1  0
 22 44  1  0
 23  1  1  0
 23 24  1  0
 23 45  1  0
 24 21  1  0
 24 46  1  0
 24 47  1  0
 25 26  2  0
 25 27  2  0
 25 21  1  0
 28 29  2  0
 28 48  1  0
 28 49  1  0
 29 30  1  0
 29 25  1  0
 30 50  1  0
 30 51  1  0
 30 52  1  0
 31 32  1  0
 31 34  1  0
 31 53  1  1
 32 33  1  0
 34 35  1  0
 34 54  1  0
 34 55  1  0
 35 36  1  0
M  END
>  <minimizedAffinity>  (8) 
-7.74772

>  <mol_id>  (8) 
138257

>  <source_index>  (8) 
7

>  <layer>  (8) 
L3

>  <uniprot>  (8) 
P28347

>  <paff>  (8) 
7.1192000000000002

>  <smiles>  (8) 
CC(=C)S(=O)(=O)N1CC(C1)c1nn(-c2ccc(OC(F)(F)F)cc2)c2nccc([C@@H](O)CO)c12 |r|

>  <aimnet_interaction_kcal_mol>  (8) 
-55.427187502045705

$$$$
L3:P28347:144852
     RDKit          3D

 47 49  0  0  0  0  0  0  0  0999 V2000
  -14.6303   14.0296   69.0603 C   0  0  0  0  0  0  0  0  0  0  0  0
  -14.7269   12.8544   68.4256 N   0  0  0  0  0  0  0  0  0  0  0  0
  -13.7399   12.8185   67.4791 N   0  0  0  0  0  0  0  0  0  0  0  0
  -13.0832   14.0286   67.4518 C   0  0  0  0  0  0  0  0  0  0  0  0
  -12.1787   14.4009   66.5607 N   0  0  0  0  0  0  0  0  0  0  0  0
  -11.8161   15.6765   66.6447 C   0  0  0  0  0  0  0  0  0  0  0  0
  -12.2273   16.5450   67.6549 C   0  0  0  0  0  0  0  0  0  0  0  0
  -13.1062   16.1355   68.6411 C   0  0  0  0  0  0  0  0  0  0  0  0
  -13.6097   14.8233   68.4899 C   0  0  0  0  0  0  0  0  0  0  0  0
  -13.3781   11.6010   66.8637 C   0  0  0  0  0  0  0  0  0  0  0  0
  -12.0656   11.3480   66.4745 C   0  0  0  0  0  0  0  0  0  0  0  0
  -11.6854   10.0680   66.1114 C   0  0  0  0  0  0  0  0  0  0  0  0
  -12.6177    9.0471   66.1086 C   0  0  0  0  0  0  0  0  0  0  0  0
  -13.9451    9.3028   66.3757 C   0  0  0  0  0  0  0  0  0  0  0  0
  -14.3268   10.5970   66.6869 C   0  0  0  0  0  0  0  0  0  0  0  0
  -12.1422    7.7740   65.7587 O   0  0  0  0  0  0  0  0  0  0  0  0
  -12.6796    6.6942   66.3583 C   0  0  0  0  0  0  0  0  0  0  0  0
  -13.9184    6.3956   65.8759 F   0  0  0  0  0  0  0  0  0  0  0  0
  -11.8936    5.6407   66.1245 F   0  0  0  0  0  0  0  0  0  0  0  0
  -12.8057    6.8353   67.6917 F   0  0  0  0  0  0  0  0  0  0  0  0
  -13.5666   17.0857   69.7120 C   0  0  2  0  0  0  0  0  0  0  0  0
  -14.5439   17.9913   69.1680 O   0  0  0  0  0  0  0  0  0  0  0  0
  -14.1796   18.3617   68.3540 H   0  0  0  0  0  0  0  0  0  0  0  0
  -12.4485   17.8489   70.4235 C   0  0  0  0  0  0  0  0  0  0  0  0
  -11.8322   16.9863   71.3712 O   0  0  0  0  0  0  0  0  0  0  0  0
  -11.2857   17.4972   71.9846 H   0  0  0  0  0  0  0  0  0  0  0  0
  -15.5565   14.3544   70.1720 C   0  0  0  0  0  0  0  0  0  0  0  0
  -15.4093   15.4045   72.3648 C   0  0  0  0  0  0  0  0  0  0  0  0
  -16.3944   16.1060   72.1666 O   0  0  0  0  0  0  0  0  0  0  0  0
  -14.9064   14.5190   71.4592 N   0  0  0  0  0  0  0  0  0  0  0  0
  -14.2767   13.7998   71.7835 H   0  0  0  0  0  0  0  0  0  0  0  0
  -15.0729   16.2103   74.6781 C   0  0  0  0  0  0  0  0  0  0  0  0
  -14.6631   15.4788   73.6547 C   0  0  0  0  0  0  0  0  0  0  0  0
  -13.5312   14.7427   73.7245 F   0  0  0  0  0  0  0  0  0  0  0  0
  -11.1637   16.0464   65.8581 H   0  0  0  0  0  0  0  0  0  0  0  0
  -11.8529   17.5583   67.6303 H   0  0  0  0  0  0  0  0  0  0  0  0
  -11.3562   12.1593   66.4524 H   0  0  0  0  0  0  0  0  0  0  0  0
  -10.6619    9.8647   65.8419 H   0  0  0  0  0  0  0  0  0  0  0  0
  -14.6888    8.5287   66.3027 H   0  0  0  0  0  0  0  0  0  0  0  0
  -15.3769   10.8391   66.6693 H   0  0  0  0  0  0  0  0  0  0  0  0
  -14.0999   16.5432   70.4838 H   0  0  0  0  0  0  0  0  0  0  0  0
  -12.9169   18.6913   70.9348 H   0  0  0  0  0  0  0  0  0  0  0  0
  -11.7132   18.2311   69.7104 H   0  0  0  0  0  0  0  0  0  0  0  0
  -16.0878   15.2828   69.9722 H   0  0  0  0  0  0  0  0  0  0  0  0
  -16.3163   13.5735   70.2337 H   0  0  0  0  0  0  0  0  0  0  0  0
  -14.5264   16.2539   75.6066 H   0  0  0  0  0  0  0  0  0  0  0  0
  -15.9796   16.7835   74.5740 H   0  0  0  0  0  0  0  0  0  0  0  0
  1  2  2  0
  2  3  1  0
  3 10  1  0
  3  4  1  0
  4  5  2  0
  5  6  1  0
  6  7  2  0
  6 35  1  0
  7  8  1  0
  7 36  1  0
  8 21  1  0
  8  9  2  0
  9  1  1  0
  9  4  1  0
 10 11  2  0
 11 12  1  0
 11 37  1  0
 12 13  2  0
 12 38  1  0
 13 16  1  0
 13 14  1  0
 14 15  2  0
 14 39  1  0
 15 10  1  0
 15 40  1  0
 16 17  1  0
 17 18  1  0
 17 19  1  0
 17 20  1  0
 21 22  1  0
 21 24  1  0
 21 41  1  1
 22 23  1  0
 24 25  1  0
 24 42  1  0
 24 43  1  0
 25 26  1  0
 27  1  1  0
 27 44  1  0
 27 45  1  0
 28 29  2  0
 28 30  1  0
 30 27  1  0
 30 31  1  0
 32 33  2  0
 32 46  1  0
 32 47  1  0
 33 34  1  0
 33 28  1  0
M  END
>  <minimizedAffinity>  (9) 
-7.11843

>  <mol_id>  (9) 
144852

>  <source_index>  (9) 
8

>  <layer>  (9) 
L3

>  <uniprot>  (9) 
P28347

>  <paff>  (9) 
6.4949000000000003

>  <smiles>  (9) 
OC[C@@H](O)c1ccnc2n(nc(CNC(=O)C(F)=C)c12)-c1ccc(OC(F)(F)F)cc1 |r|

>  <aimnet_interaction_kcal_mol>  (9) 
-47.489188751463359

$$$$
L3:P28347:145084
     RDKit          3D

 44 46  0  0  0  0  0  0  0  0999 V2000
  -13.7343   15.6009   68.0848 C   0  0  0  0  0  0  0  0  0  0  0  0
  -14.9030   15.8342   68.7849 C   0  0  0  0  0  0  0  0  0  0  0  0
  -15.6947   14.7625   69.1703 C   0  0  0  0  0  0  0  0  0  0  0  0
  -15.4182   13.5073   68.8238 N   0  0  0  0  0  0  0  0  0  0  0  0
  -14.3124   13.2471   68.1324 N   0  0  0  0  0  0  0  0  0  0  0  0
  -13.4246   14.2290   67.8728 C   0  0  0  0  0  0  0  0  0  0  0  0
  -12.1234   20.2175   67.1668 C   0  0  0  0  0  0  0  0  0  0  0  0
  -12.2258   18.7704   67.2327 N   0  0  0  0  0  0  0  0  0  0  0  0
  -11.3641   17.8659   66.6988 C   0  0  0  0  0  0  0  0  0  0  0  0
  -11.7508   16.6283   66.9288 N   0  0  0  0  0  0  0  0  0  0  0  0
  -12.9333   16.7238   67.6390 C   0  0  0  0  0  0  0  0  0  0  0  0
  -13.2307   18.0566   67.8396 C   0  0  0  0  0  0  0  0  0  0  0  0
  -17.1934   14.9946   70.1754 P   0  0  0  0  0  0  0  0  0  0  0  0
  -16.6468   15.8291   71.6939 C   0  0  0  0  0  0  0  0  0  0  0  0
  -18.2092   16.2440   69.3215 C   0  0  0  0  0  0  0  0  0  0  0  0
  -17.9362   13.7021   70.3964 O   0  0  0  0  0  0  0  0  0  0  0  0
  -12.1936   13.8662   67.4126 N   0  0  0  0  0  0  0  0  0  0  0  0
  -11.5501   14.6406   67.3050 H   0  0  0  0  0  0  0  0  0  0  0  0
  -11.7191   12.6223   67.0252 C   0  0  0  0  0  0  0  0  0  0  0  0
  -10.3351   12.4342   67.0067 C   0  0  0  0  0  0  0  0  0  0  0  0
   -9.7828   11.3591   66.3430 C   0  0  0  0  0  0  0  0  0  0  0  0
  -10.6056   10.4067   65.7630 C   0  0  0  0  0  0  0  0  0  0  0  0
  -11.9771   10.4888   65.9561 C   0  0  0  0  0  0  0  0  0  0  0  0
  -12.5386   11.5832   66.5779 C   0  0  0  0  0  0  0  0  0  0  0  0
  -10.0632    9.3400   64.8743 C   0  0  0  0  0  0  0  0  0  0  0  0
  -10.3215    9.6058   63.5577 F   0  0  0  0  0  0  0  0  0  0  0  0
   -8.7275    9.1861   64.9780 F   0  0  0  0  0  0  0  0  0  0  0  0
  -10.6213    8.1188   65.1246 F   0  0  0  0  0  0  0  0  0  0  0  0
  -15.1926   16.8434   69.0403 H   0  0  0  0  0  0  0  0  0  0  0  0
  -11.1850   20.4907   66.6937 H   0  0  0  0  0  0  0  0  0  0  0  0
  -12.1480   20.6398   68.1688 H   0  0  0  0  0  0  0  0  0  0  0  0
  -12.9431   20.6327   66.5849 H   0  0  0  0  0  0  0  0  0  0  0  0
  -10.4824   18.1658   66.1599 H   0  0  0  0  0  0  0  0  0  0  0  0
  -14.0361   18.5566   68.3377 H   0  0  0  0  0  0  0  0  0  0  0  0
  -16.2126   16.8028   71.4780 H   0  0  0  0  0  0  0  0  0  0  0  0
  -15.9102   15.2244   72.2127 H   0  0  0  0  0  0  0  0  0  0  0  0
  -17.5137   15.9603   72.3382 H   0  0  0  0  0  0  0  0  0  0  0  0
  -17.7582   17.2304   69.3770 H   0  0  0  0  0  0  0  0  0  0  0  0
  -19.1781   16.2718   69.8149 H   0  0  0  0  0  0  0  0  0  0  0  0
  -18.3547   15.9824   68.2787 H   0  0  0  0  0  0  0  0  0  0  0  0
   -9.6889   13.1490   67.4924 H   0  0  0  0  0  0  0  0  0  0  0  0
   -8.7103   11.2652   66.2727 H   0  0  0  0  0  0  0  0  0  0  0  0
  -12.6085    9.6951   65.5828 H   0  0  0  0  0  0  0  0  0  0  0  0
  -13.6056   11.6770   66.6947 H   0  0  0  0  0  0  0  0  0  0  0  0
  1  2  2  0
  2  3  1  0
  2 29  1  0
  3 13  1  0
  3  4  2  0
  4  5  1  0
  5  6  2  0
  6 17  1  0
  6  1  1  0
  7  8  1  0
  7 30  1  0
  7 31  1  0
  7 32  1  0
  8  9  1  0
  9 10  2  0
  9 33  1  0
 10 11  1  0
 11  1  1  0
 11 12  2  0
 12  8  1  0
 12 34  1  0
 13 14  1  0
 13 15  1  0
 13 16  2  0
 14 35  1  0
 14 36  1  0
 14 37  1  0
 15 38  1  0
 15 39  1  0
 15 40  1  0
 17 19  1  0
 17 18  1  0
 19 20  2  0
 20 21  1  0
 20 41  1  0
 21 22  2  0
 21 42  1  0
 22 25  1  0
 22 23  1  0
 23 24  2  0
 23 43  1  0
 24 19  1  0
 24 44  1  0
 25 26  1  0
 25 27  1  0
 25 28  1  0
M  END
>  <minimizedAffinity>  (10) 
-6.93591

>  <mol_id>  (10) 
145084

>  <source_index>  (10) 
9

>  <layer>  (10) 
L3

>  <uniprot>  (10) 
P28347

>  <paff>  (10) 
6.4089

>  <smiles>  (10) 
Cn1cnc(-c2cc(P(C)(C)=O)nnc2Nc2ccc(C(F)(F)F)cc2)c1

>  <aimnet_interaction_kcal_mol>  (10) 
-52.763613135041062

$$$$
