L3:P28347:28596
     RDKit          3D

 48 50  0  0  0  0  0  0  0  0999 V2000
  -11.5844    8.5176   65.1579 C   0  0  0  0  0  0  0  0  0  0  0  0
  -10.2726    8.1894   64.7352 C   0  0  0  0  0  0  0  0  0  0  0  0
   -9.7957    6.8694   64.8327 C   0  0  0  0  0  0  0  0  0  0  0  0
  -10.5835    5.8859   65.3457 N   0  0  0  0  0  0  0  0  0  0  0  0
  -11.8376    6.1876   65.7608 C   0  0  0  0  0  0  0  0  0  0  0  0
  -12.7050    5.3449   66.3499 N   0  0  0  0  0  0  0  0  0  0  0  0
  -13.7686    6.0434   66.7201 N   0  0  0  0  0  0  0  0  0  0  0  0
  -13.5957    7.3363   66.3521 C   0  0  0  0  0  0  0  0  0  0  0  0
  -12.3478    7.4648   65.7204 C   0  0  0  0  0  0  0  0  0  0  0  0
  -12.5449    3.9387   66.6126 C   0  0  0  0  0  0  0  0  0  0  0  0
  -12.1080    3.0550   65.6078 C   0  0  0  0  0  0  0  0  0  0  0  0
  -11.9742    1.6889   65.8773 C   0  0  0  0  0  0  0  0  0  0  0  0
  -12.2767    1.1919   67.1465 C   0  0  0  0  0  0  0  0  0  0  0  0
  -12.7314    2.0557   68.1436 C   0  0  0  0  0  0  0  0  0  0  0  0
  -12.8649    3.4229   67.8820 C   0  0  0  0  0  0  0  0  0  0  0  0
  -12.0374   -0.3488   67.1924 S   0  0  0  0  0  0  0  0  0  0  0  0
  -11.9871   -1.2998   67.9660 F   0  0  0  0  0  0  0  0  0  0  0  0
  -14.1166   -0.3444   65.2755 F   0  0  0  0  0  0  0  0  0  0  0  0
  -11.5037   -0.8907   68.4771 F   0  0  0  0  0  0  0  0  0  0  0  0
  -14.7907    5.0934   63.9946 F   0  0  0  0  0  0  0  0  0  0  0  0
  -13.7558   -1.0689   66.2862 F   0  0  0  0  0  0  0  0  0  0  0  0
  -12.0751    9.9456   65.0325 C   0  0  2  0  0  0  0  0  0  0  0  0
  -11.4530   10.5791   63.9408 O   0  0  0  0  0  0  0  0  0  0  0  0
  -12.0271   11.3430   63.6765 H   0  0  0  0  0  0  0  0  0  0  0  0
  -12.7190   11.7288   66.5069 O   0  0  0  0  0  0  0  0  0  0  0  0
  -11.7654   10.7206   66.3193 C   0  0  0  0  0  0  0  0  0  0  0  0
  -12.5359   12.1232   67.4022 H   0  0  0  0  0  0  0  0  0  0  0  0
  -14.6223    8.3756   66.7070 C   0  0  0  0  0  0  0  0  0  0  0  0
  -15.7559    8.3027   65.7871 N   0  0  0  0  0  0  0  0  0  0  0  0
  -17.1187    8.2403   66.2324 C   0  0  0  0  0  0  0  0  0  0  0  0
  -17.3870    8.3002   67.4636 O   0  0  0  0  0  0  0  0  0  0  0  0
  -15.5580    8.2748   64.7607 H   0  0  0  0  0  0  0  0  0  0  0  0
  -18.2017    8.1107   65.2406 C   0  0  0  0  0  0  0  0  0  0  0  0
  -19.0489    9.1023   64.9694 C   0  0  0  0  0  0  0  0  0  0  0  0
   -9.6604    8.9264   64.3517 H   0  0  0  0  0  0  0  0  0  0  0  0
   -8.8406    6.6453   64.5125 H   0  0  0  0  0  0  0  0  0  0  0  0
  -11.8852    3.4169   64.6674 H   0  0  0  0  0  0  0  0  0  0  0  0
  -11.6512    1.0471   65.1365 H   0  0  0  0  0  0  0  0  0  0  0  0
  -12.9698    1.6846   69.0766 H   0  0  0  0  0  0  0  0  0  0  0  0
  -13.2000    4.0570   68.6240 H   0  0  0  0  0  0  0  0  0  0  0  0
  -13.1330    9.9314   64.8730 H   0  0  0  0  0  0  0  0  0  0  0  0
  -11.7892   10.0497   67.1525 H   0  0  0  0  0  0  0  0  0  0  0  0
  -10.7944   11.1630   66.2403 H   0  0  0  0  0  0  0  0  0  0  0  0
  -14.1780    9.3469   66.6436 H   0  0  0  0  0  0  0  0  0  0  0  0
  -14.9698    8.1962   67.7030 H   0  0  0  0  0  0  0  0  0  0  0  0
  -18.3077    7.2165   64.7365 H   0  0  0  0  0  0  0  0  0  0  0  0
  -18.9612   10.0051   65.4617 H   0  0  0  0  0  0  0  0  0  0  0  0
  -19.7929    8.9677   64.2670 H   0  0  0  0  0  0  0  0  0  0  0  0
  1  2  2  0
  2  3  1  0
  2 35  1  0
  3  4  2  0
  3 36  1  0
  4  5  1  0
  5  6  1  0
  6  7  1  0
  6 10  1  0
  7  8  2  0
  8 28  1  0
  8  9  1  0
  9  1  1  0
  9  5  2  0
 10 11  2  0
 11 12  1  0
 11 37  1  0
 12 13  2  0
 12 38  1  0
 13 14  1  0
 13 16  1  0
 14 15  2  0
 14 39  1  0
 15 10  1  0
 15 40  1  0
 16 17  1  0
 16 18  1  0
 16 19  1  0
 16 20  1  0
 16 21  1  0
 22 23  1  0
 22  1  1  0
 22 41  1  6
 23 24  1  0
 25 26  1  0
 25 27  1  0
 26 22  1  0
 26 42  1  0
 26 43  1  0
 28 29  1  0
 28 44  1  0
 28 45  1  0
 29 30  1  0
 29 32  1  0
 30 31  2  0
 30 33  1  0
 33 34  2  0
 33 46  1  0
 34 47  1  0
 34 48  1  0
M  END
>  <minimizedAffinity>  (1) 
-7.04522

>  <mol_id>  (1) 
28596

>  <source_index>  (1) 
0

>  <layer>  (1) 
L3

>  <uniprot>  (1) 
P28347

>  <paff>  (1) 
7.3665000000000003

>  <smiles>  (1) 
OC[C@@H](O)c1ccnc2n(nc(CNC(=O)C=C)c12)-c1ccc(cc1)S(F)(F)(F)(F)F |r|

$$$$
L3:P28347:30720
     RDKit          3D

 50 53  0  0  0  0  0  0  0  0999 V2000
  -14.5927   14.2553   69.2553 C   0  0  0  0  0  0  0  0  0  0  0  0
  -14.5586   12.9867   68.8278 N   0  0  0  0  0  0  0  0  0  0  0  0
  -13.6141   12.9631   67.8449 N   0  0  0  0  0  0  0  0  0  0  0  0
  -13.0787   14.2310   67.6276 C   0  0  0  0  0  0  0  0  0  0  0  0
  -12.1221   14.5688   66.7321 N   0  0  0  0  0  0  0  0  0  0  0  0
  -11.7916   15.8701   66.7460 C   0  0  0  0  0  0  0  0  0  0  0  0
  -12.3665   16.8295   67.5590 C   0  0  0  0  0  0  0  0  0  0  0  0
  -13.3781   16.4809   68.4702 C   0  0  0  0  0  0  0  0  0  0  0  0
  -13.7197   15.1009   68.5130 C   0  0  0  0  0  0  0  0  0  0  0  0
  -13.3157   11.7216   67.1975 C   0  0  0  0  0  0  0  0  0  0  0  0
  -14.3297   10.7609   67.0570 C   0  0  0  0  0  0  0  0  0  0  0  0
  -14.0692    9.5385   66.4293 C   0  0  0  0  0  0  0  0  0  0  0  0
  -12.7986    9.2470   65.9300 C   0  0  0  0  0  0  0  0  0  0  0  0
  -11.7881   10.1972   66.0669 C   0  0  0  0  0  0  0  0  0  0  0  0
  -12.0434   11.4259   66.6961 C   0  0  0  0  0  0  0  0  0  0  0  0
  -12.6888    8.0194   65.3443 O   0  0  0  0  0  0  0  0  0  0  0  0
  -12.3285    6.9241   66.1677 C   0  0  0  0  0  0  0  0  0  0  0  0
  -13.3042    5.9909   66.0981 F   0  0  0  0  0  0  0  0  0  0  0  0
  -12.2033    7.3022   67.4576 F   0  0  0  0  0  0  0  0  0  0  0  0
  -11.1771    6.3564   65.7492 F   0  0  0  0  0  0  0  0  0  0  0  0
  -14.1367   17.4816   69.4234 C   0  0  1  0  0  0  0  0  0  0  0  0
  -13.5095   17.7539   70.8172 C   0  0  0  0  0  0  0  0  0  0  0  0
  -13.0378   19.1296   70.3131 C   0  0  1  0  0  0  0  0  0  0  0  0
  -11.6577   19.2173   69.9090 O   0  0  0  0  0  0  0  0  0  0  0  0
  -14.0634   19.0127   69.1719 C   0  0  0  0  0  0  0  0  0  0  0  0
  -11.5331   20.1454   69.6456 H   0  0  0  0  0  0  0  0  0  0  0  0
  -15.5149   14.5965   70.3795 C   0  0  0  0  0  0  0  0  0  0  0  0
  -15.1658   15.1091   72.7509 C   0  0  0  0  0  0  0  0  0  0  0  0
  -16.1620   15.8170   72.8370 O   0  0  0  0  0  0  0  0  0  0  0  0
  -14.7973   14.4340   71.6238 N   0  0  0  0  0  0  0  0  0  0  0  0
  -13.8709   14.0363   71.5551 H   0  0  0  0  0  0  0  0  0  0  0  0
  -12.9166   15.1729   73.8657 C   0  0  0  0  0  0  0  0  0  0  0  0
  -14.2423   14.9847   73.9066 C   0  0  0  0  0  0  0  0  0  0  0  0
  -11.0496   16.1787   66.0985 H   0  0  0  0  0  0  0  0  0  0  0  0
  -12.0501   17.8098   67.4962 H   0  0  0  0  0  0  0  0  0  0  0  0
  -15.2754   10.9583   67.4200 H   0  0  0  0  0  0  0  0  0  0  0  0
  -14.8259    8.8432   66.3341 H   0  0  0  0  0  0  0  0  0  0  0  0
  -10.8438    9.9957   65.7025 H   0  0  0  0  0  0  0  0  0  0  0  0
  -11.2843   12.1187   66.7898 H   0  0  0  0  0  0  0  0  0  0  0  0
  -15.0616   16.9595   69.2932 H   0  0  0  0  0  0  0  0  0  0  0  0
  -12.7159   17.0862   71.0803 H   0  0  0  0  0  0  0  0  0  0  0  0
  -14.0956   17.6681   71.7083 H   0  0  0  0  0  0  0  0  0  0  0  0
  -13.0237   19.9797   70.9628 H   0  0  0  0  0  0  0  0  0  0  0  0
  -13.6826   19.2825   68.2090 H   0  0  0  0  0  0  0  0  0  0  0  0
  -14.9506   19.6109   69.1686 H   0  0  0  0  0  0  0  0  0  0  0  0
  -15.8441   15.6099   70.2819 H   0  0  0  0  0  0  0  0  0  0  0  0
  -16.3700   13.9535   70.3616 H   0  0  0  0  0  0  0  0  0  0  0  0
  -12.3533   15.0640   74.7235 H   0  0  0  0  0  0  0  0  0  0  0  0
  -12.4587   15.4267   72.9764 H   0  0  0  0  0  0  0  0  0  0  0  0
  -14.6562   14.7321   74.8176 H   0  0  0  0  0  0  0  0  0  0  0  0
  1  2  2  0
  2  3  1  0
  3 10  1  0
  3  4  1  0
  4  5  2  0
  5  6  1  0
  6  7  2  0
  6 34  1  0
  7  8  1  0
  7 35  1  0
  8 21  1  0
  8  9  2  0
  9  1  1  0
  9  4  1  0
 10 11  2  0
 11 12  1  0
 11 36  1  0
 12 13  2  0
 12 37  1  0
 13 16  1  0
 13 14  1  0
 14 15  2  0
 14 38  1  0
 15 10  1  0
 15 39  1  0
 16 17  1  0
 17 18  1  0
 17 19  1  0
 17 20  1  0
 21 22  1  0
 21 40  1  1
 22 23  1  0
 22 41  1  0
 22 42  1  0
 23 24  1  0
 23 25  1  0
 23 43  1  1
 24 26  1  0
 25 21  1  0
 25 44  1  0
 25 45  1  0
 27  1  1  0
 27 46  1  0
 27 47  1  0
 28 29  2  0
 28 30  1  0
 30 27  1  0
 30 31  1  0
 32 33  2  0
 32 48  1  0
 32 49  1  0
 33 28  1  0
 33 50  1  0
M  END
>  <minimizedAffinity>  (2) 
-5.75719

>  <mol_id>  (2) 
30720

>  <source_index>  (2) 
1

>  <layer>  (2) 
L3

>  <uniprot>  (2) 
P28347

>  <paff>  (2) 
6.7446999999999999

>  <smiles>  (2) 
C=CC(=O)NCc1nn(-c2ccc(OC(F)(F)F)cc2)c2nccc([C@H]3C[C@@H](O)C3)c12

$$$$
L3:P28347:52030
     RDKit          3D

 43 46  0  0  0  0  0  0  0  0999 V2000
  -12.1200   11.1050   66.3537 C   0  0  0  0  0  0  0  0  0  0  0  0
  -13.5428    7.0478   66.0381 C   0  0  0  0  0  0  0  0  0  0  0  0
  -12.2487    7.3673   65.6240 C   0  0  0  0  0  0  0  0  0  0  0  0
  -11.7963    8.6852   65.7151 C   0  0  0  0  0  0  0  0  0  0  0  0
  -12.6274    9.6912   66.2310 C   0  0  0  0  0  0  0  0  0  0  0  0
  -13.9146    9.3509   66.6722 C   0  0  0  0  0  0  0  0  0  0  0  0
  -14.3677    8.0333   66.5795 C   0  0  0  0  0  0  0  0  0  0  0  0
  -14.0410    5.7650   66.0114 O   0  0  0  0  0  0  0  0  0  0  0  0
  -11.7826    2.6624   67.6225 C   0  0  0  0  0  0  0  0  0  0  0  0
  -11.2501    3.4127   66.5734 C   0  0  0  0  0  0  0  0  0  0  0  0
  -11.9862    4.4621   66.0211 C   0  0  0  0  0  0  0  0  0  0  0  0
  -13.2497    4.7674   66.5336 C   0  0  0  0  0  0  0  0  0  0  0  0
  -13.7922    4.0030   67.5669 C   0  0  0  0  0  0  0  0  0  0  0  0
  -13.0543    2.9543   68.1169 C   0  0  0  0  0  0  0  0  0  0  0  0
  -13.1206   11.9581   66.9554 N   0  0  0  0  0  0  0  0  0  0  0  0
  -12.7720   13.1151   67.6172 C   0  0  0  0  0  0  0  0  0  0  0  0
  -11.6194   13.5337   67.6441 O   0  0  0  0  0  0  0  0  0  0  0  0
  -13.9946   11.5187   67.2086 H   0  0  0  0  0  0  0  0  0  0  0  0
  -13.8458   13.7530   68.3281 C   0  0  0  0  0  0  0  0  0  0  0  0
  -14.1920   13.5569   69.6530 C   0  0  0  0  0  0  0  0  0  0  0  0
  -15.2947   14.2864   70.0077 N   0  0  0  0  0  0  0  0  0  0  0  0
  -15.6063   14.9768   68.9337 C   0  0  0  0  0  0  0  0  0  0  0  0
  -14.7254   14.7220   67.8818 N   0  0  0  0  0  0  0  0  0  0  0  0
  -14.7971   15.4009   66.6602 C   0  0  0  0  0  0  0  0  0  0  0  0
  -15.7715   16.3044   66.4595 C   0  0  0  0  0  0  0  0  0  0  0  0
  -16.7317   16.5544   67.5210 C   0  0  0  0  0  0  0  0  0  0  0  0
  -16.6479   15.9206   68.7060 C   0  0  0  0  0  0  0  0  0  0  0  0
  -11.8806   11.4778   65.3797 H   0  0  0  0  0  0  0  0  0  0  0  0
  -11.2496   11.1047   66.9761 H   0  0  0  0  0  0  0  0  0  0  0  0
  -11.6281    6.6317   65.2516 H   0  0  0  0  0  0  0  0  0  0  0  0
  -10.8423    8.9214   65.4002 H   0  0  0  0  0  0  0  0  0  0  0  0
  -14.5304   10.0785   67.0676 H   0  0  0  0  0  0  0  0  0  0  0  0
  -15.3136    7.7887   66.9118 H   0  0  0  0  0  0  0  0  0  0  0  0
  -11.2349    1.8903   68.0334 H   0  0  0  0  0  0  0  0  0  0  0  0
  -10.3115    3.1916   66.2057 H   0  0  0  0  0  0  0  0  0  0  0  0
  -11.5988    5.0104   65.2373 H   0  0  0  0  0  0  0  0  0  0  0  0
  -14.7375    4.2128   67.9238 H   0  0  0  0  0  0  0  0  0  0  0  0
  -13.4489    2.3948   68.8890 H   0  0  0  0  0  0  0  0  0  0  0  0
  -13.6798   12.9345   70.2975 H   0  0  0  0  0  0  0  0  0  0  0  0
  -14.1061   15.2090   65.9181 H   0  0  0  0  0  0  0  0  0  0  0  0
  -15.8369   16.8134   65.5642 H   0  0  0  0  0  0  0  0  0  0  0  0
  -17.4940   17.2320   67.3634 H   0  0  0  0  0  0  0  0  0  0  0  0
  -17.3374   16.1185   69.4479 H   0  0  0  0  0  0  0  0  0  0  0  0
  1 15  1  0
  1 28  1  0
  1 29  1  0
  2  3  2  0
  3  4  1  0
  3 30  1  0
  4  5  2  0
  4 31  1  0
  5  6  1  0
  5  1  1  0
  6  7  2  0
  6 32  1  0
  7  2  1  0
  7 33  1  0
  8  2  1  0
  9 10  2  0
  9 34  1  0
 10 11  1  0
 10 35  1  0
 11 12  2  0
 11 36  1  0
 12 13  1  0
 12  8  1  0
 13 14  2  0
 13 37  1  0
 14  9  1  0
 14 38  1  0
 15 16  1  0
 15 18  1  0
 16 17  2  0
 16 19  1  0
 19 20  2  0
 20 21  1  0
 20 39  1  0
 21 22  2  0
 22 23  1  0
 23 24  1  0
 23 19  1  0
 24 25  2  0
 24 40  1  0
 25 26  1  0
 25 41  1  0
 26 27  2  0
 26 42  1  0
 27 22  1  0
 27 43  1  0
M  END
>  <minimizedAffinity>  (3) 
-7.32693

>  <mol_id>  (3) 
52030

>  <source_index>  (3) 
2

>  <layer>  (3) 
L3

>  <uniprot>  (3) 
P28347

>  <paff>  (3) 
7.2218

>  <smiles>  (3) 
c1ccc(cc1)Oc2ccc(cc2)CNC(=O)c3cnc4n3cccc4

$$$$
L3:P28347:64839
     RDKit          3D

109117  0  0  0  0  0  0  0  0999 V2000
  -11.5840   18.6341   65.8033 C   0  0  0  0  0  0  0  0  0  0  0  0
  -10.5969   18.3738   64.8287 C   0  0  0  0  0  0  0  0  0  0  0  0
  -10.6896   16.9847   63.8002 Cl  0  0  0  0  0  0  0  0  0  0  0  0
   -9.5014   19.2403   64.6446 C   0  0  0  0  0  0  0  0  0  0  0  0
   -9.3597   20.3809   65.4339 C   0  0  0  0  0  0  0  0  0  0  0  0
  -10.3290   20.6291   66.3817 C   0  0  0  0  0  0  0  0  0  0  0  0
  -11.4236   19.7979   66.5559 C   0  0  0  0  0  0  0  0  0  0  0  0
  -12.3125   20.3977   67.5877 C   0  0  0  0  0  0  0  0  0  0  0  0
  -11.3147   21.3829   68.2631 C   0  0  2  0  0  0  0  0  0  0  0  0
  -10.2930   21.6883   67.2517 O   0  0  0  0  0  0  0  0  0  0  0  0
  -13.6560   15.8349   67.2974 C   0  0  0  0  0  0  0  0  0  0  0  0
  -14.8875   16.0174   66.6746 C   0  0  0  0  0  0  0  0  0  0  0  0
  -15.0495   17.0452   65.7428 C   0  0  0  0  0  0  0  0  0  0  0  0
  -13.9824   17.9000   65.4137 C   0  0  0  0  0  0  0  0  0  0  0  0
  -12.7319   17.7452   66.0416 C   0  0  0  0  0  0  0  0  0  0  0  0
  -12.5985   16.6950   66.9691 C   0  0  0  0  0  0  0  0  0  0  0  0
  -11.4076   16.5073   67.5690 F   0  0  0  0  0  0  0  0  0  0  0  0
  -14.2864   18.9505   64.4104 C   0  0  0  0  0  0  0  0  0  0  0  0
  -14.8105   20.1286   64.8576 N   0  0  0  0  0  0  0  0  0  0  0  0
  -14.0085   18.7860   63.2290 O   0  0  0  0  0  0  0  0  0  0  0  0
  -14.9037   20.8717   64.1778 H   0  0  0  0  0  0  0  0  0  0  0  0
  -14.8600   20.3880   65.8289 H   0  0  0  0  0  0  0  0  0  0  0  0
  -13.3688   14.8697   68.2233 O   0  0  0  0  0  0  0  0  0  0  0  0
  -13.8104   13.5418   67.9420 C   0  0  0  0  0  0  0  0  0  0  0  0
  -12.6644   12.7751   67.2825 C   0  0  0  0  0  0  0  0  0  0  0  0
  -12.1676   10.7100   66.2178 C   0  0  0  0  0  0  0  0  0  0  0  0
  -13.1422   11.7222   66.4442 O   0  0  0  0  0  0  0  0  0  0  0  0
  -10.6825   20.7319   69.5090 C   0  0  0  0  0  0  0  0  0  0  0  0
   -9.6185   21.3411   70.1969 C   0  0  0  0  0  0  0  0  0  0  0  0
   -9.0482   20.7380   71.3194 C   0  0  0  0  0  0  0  0  0  0  0  0
   -9.5296   19.5138   71.7736 C   0  0  0  0  0  0  0  0  0  0  0  0
  -10.5856   18.8945   71.1126 C   0  0  0  0  0  0  0  0  0  0  0  0
  -11.1614   19.4987   69.9931 C   0  0  0  0  0  0  0  0  0  0  0  0
  -12.0336   22.7312   68.5988 C   0  0  0  0  0  0  0  0  0  0  0  0
  -13.5007   22.7431   68.4399 N   0  0  0  0  0  0  0  0  0  0  0  0
  -13.7618   23.6545   68.0557 H   0  0  0  0  0  0  0  0  0  0  0  0
  -14.2650   22.5092   69.6632 C   0  0  0  0  0  0  0  0  0  0  0  0
  -15.5907   21.7445   69.4556 C   0  0  0  0  0  0  0  0  0  0  0  0
  -16.1991   21.2286   70.7788 C   0  0  0  0  0  0  0  0  0  0  0  0
  -15.6951   19.8310   71.1194 C   0  0  0  0  0  0  0  0  0  0  0  0
  -16.1338   18.8196   70.0389 C   0  0  0  0  0  0  0  0  0  0  0  0
  -16.3522   19.4542   68.6595 C   0  0  0  0  0  0  0  0  0  0  0  0
  -15.3576   20.5911   68.4511 C   0  0  0  0  0  0  0  0  0  0  0  0
  -17.2884   17.8724   70.4660 C   0  0  0  0  0  0  0  0  0  0  0  0
  -16.2731   16.9728   70.9276 N   0  0  0  0  0  0  0  0  0  0  0  0
  -15.2761   17.5220   70.0579 C   0  0  0  0  0  0  0  0  0  0  0  0
  -16.3913   15.6561   71.4032 C   0  0  0  0  0  0  0  0  0  0  0  0
  -16.3014   14.5571   70.5137 C   0  0  0  0  0  0  0  0  0  0  0  0
  -16.4800   13.2371   70.9462 C   0  0  0  0  0  0  0  0  0  0  0  0
  -16.7473   13.0474   72.2840 C   0  0  0  0  0  0  0  0  0  0  0  0
  -16.8299   14.1059   73.1648 C   0  0  0  0  0  0  0  0  0  0  0  0
  -16.6642   15.4166   72.7583 C   0  0  0  0  0  0  0  0  0  0  0  0
  -17.1625   13.5615   74.4791 C   0  0  0  0  0  0  0  0  0  0  0  0
  -17.3885   14.2403   75.4636 O   0  0  0  0  0  0  0  0  0  0  0  0
  -17.2193   12.1998   74.3370 N   0  0  0  0  0  0  0  0  0  0  0  0
  -17.0383   11.8290   73.0341 C   0  0  0  0  0  0  0  0  0  0  0  0
  -17.1152   10.7202   72.5398 O   0  0  0  0  0  0  0  0  0  0  0  0
  -17.6455   11.3100   75.4064 C   0  0  1  0  0  0  0  0  0  0  0  0
  -19.1541   11.0800   75.4792 C   0  0  0  0  0  0  0  0  0  0  0  0
  -19.6343    9.9839   74.5442 C   0  0  0  0  0  0  0  0  0  0  0  0
  -18.8224    8.7205   74.6941 C   0  0  0  0  0  0  0  0  0  0  0  0
  -19.2582    7.6200   74.3582 O   0  0  0  0  0  0  0  0  0  0  0  0
  -17.5433    8.8515   75.1799 N   0  0  0  0  0  0  0  0  0  0  0  0
  -16.8401   10.0139   75.3761 C   0  0  0  0  0  0  0  0  0  0  0  0
  -15.6127    9.9944   75.4691 O   0  0  0  0  0  0  0  0  0  0  0  0
  -16.9830    8.0102   75.1419 H   0  0  0  0  0  0  0  0  0  0  0  0
   -8.7980   19.0291   63.9196 H   0  0  0  0  0  0  0  0  0  0  0  0
   -8.5565   21.0175   65.3126 H   0  0  0  0  0  0  0  0  0  0  0  0
  -12.6732   19.6630   68.2769 H   0  0  0  0  0  0  0  0  0  0  0  0
  -13.2045   20.8497   67.2069 H   0  0  0  0  0  0  0  0  0  0  0  0
  -15.6789   15.3948   66.9008 H   0  0  0  0  0  0  0  0  0  0  0  0
  -15.9665   17.1794   65.2888 H   0  0  0  0  0  0  0  0  0  0  0  0
  -14.0924   13.0554   68.8524 H   0  0  0  0  0  0  0  0  0  0  0  0
  -14.6560   13.5693   67.2869 H   0  0  0  0  0  0  0  0  0  0  0  0
  -12.0888   13.4552   66.6899 H   0  0  0  0  0  0  0  0  0  0  0  0
  -12.0682   12.3387   68.0564 H   0  0  0  0  0  0  0  0  0  0  0  0
  -12.5810    9.9518   65.5861 H   0  0  0  0  0  0  0  0  0  0  0  0
  -11.8792   10.2771   67.1528 H   0  0  0  0  0  0  0  0  0  0  0  0
  -11.3099   11.1402   65.7443 H   0  0  0  0  0  0  0  0  0  0  0  0
   -9.2534   22.2482   69.8670 H   0  0  0  0  0  0  0  0  0  0  0  0
   -8.2688   21.2005   71.8129 H   0  0  0  0  0  0  0  0  0  0  0  0
   -9.1037   19.0658   72.6000 H   0  0  0  0  0  0  0  0  0  0  0  0
  -10.9438   17.9874   71.4501 H   0  0  0  0  0  0  0  0  0  0  0  0
  -11.9490   19.0352   69.5136 H   0  0  0  0  0  0  0  0  0  0  0  0
  -11.6293   23.4857   67.9567 H   0  0  0  0  0  0  0  0  0  0  0  0
  -11.8565   22.8991   69.6406 H   0  0  0  0  0  0  0  0  0  0  0  0
  -14.4922   23.4584   70.1016 H   0  0  0  0  0  0  0  0  0  0  0  0
  -13.6542   21.8934   70.2898 H   0  0  0  0  0  0  0  0  0  0  0  0
  -16.3104   22.4280   69.0560 H   0  0  0  0  0  0  0  0  0  0  0  0
  -17.2645   21.2001   70.6836 H   0  0  0  0  0  0  0  0  0  0  0  0
  -15.9039   21.8921   71.5646 H   0  0  0  0  0  0  0  0  0  0  0  0
  -16.0971   19.5325   72.0650 H   0  0  0  0  0  0  0  0  0  0  0  0
  -14.6261   19.8496   71.1622 H   0  0  0  0  0  0  0  0  0  0  0  0
  -17.3489   19.8386   68.5990 H   0  0  0  0  0  0  0  0  0  0  0  0
  -16.2053   18.7128   67.9021 H   0  0  0  0  0  0  0  0  0  0  0  0
  -15.4669   20.9698   67.4564 H   0  0  0  0  0  0  0  0  0  0  0  0
  -14.3718   20.2057   68.6077 H   0  0  0  0  0  0  0  0  0  0  0  0
  -17.8850   17.5001   69.6595 H   0  0  0  0  0  0  0  0  0  0  0  0
  -18.0878   18.1995   71.0975 H   0  0  0  0  0  0  0  0  0  0  0  0
  -15.1851   17.0301   69.1121 H   0  0  0  0  0  0  0  0  0  0  0  0
  -14.2378   17.5300   70.3161 H   0  0  0  0  0  0  0  0  0  0  0  0
  -16.0983   14.7345   69.5176 H   0  0  0  0  0  0  0  0  0  0  0  0
  -16.4143   12.4419   70.2917 H   0  0  0  0  0  0  0  0  0  0  0  0
  -16.7390   16.1954   73.4313 H   0  0  0  0  0  0  0  0  0  0  0  0
  -17.4288   11.8142   76.3249 H   0  0  0  0  0  0  0  0  0  0  0  0
  -19.6507   11.9914   75.2192 H   0  0  0  0  0  0  0  0  0  0  0  0
  -19.3824   10.7708   76.4778 H   0  0  0  0  0  0  0  0  0  0  0  0
  -19.5527   10.3298   73.5349 H   0  0  0  0  0  0  0  0  0  0  0  0
  -20.6498    9.7569   74.7933 H   0  0  0  0  0  0  0  0  0  0  0  0
  1  2  2  0
  2  3  1  0
  2  4  1  0
  4  5  2  0
  4 67  1  0
  5  6  1  0
  5 68  1  0
  6  7  2  0
  7  8  1  0
  7  1  1  0
  8  9  1  0
  8 69  1  0
  8 70  1  0
  9 34  1  1
  9 28  1  0
  9 10  1  0
 10  6  1  0
 11 12  2  0
 12 13  1  0
 12 71  1  0
 13 14  2  0
 13 72  1  0
 14 18  1  0
 14 15  1  0
 15  1  1  0
 15 16  2  0
 16 17  1  0
 16 11  1  0
 18 19  1  0
 18 20  2  0
 19 21  1  0
 19 22  1  0
 23 11  1  0
 24 23  1  0
 24 73  1  0
 24 74  1  0
 25 24  1  0
 25 75  1  0
 25 76  1  0
 26 27  1  0
 26 77  1  0
 26 78  1  0
 26 79  1  0
 27 25  1  0
 28 29  2  0
 29 30  1  0
 29 80  1  0
 30 31  2  0
 30 81  1  0
 31 32  1  0
 31 82  1  0
 32 33  2  0
 32 83  1  0
 33 28  1  0
 33 84  1  0
 34 35  1  0
 34 85  1  0
 34 86  1  0
 35 37  1  0
 35 36  1  0
 37 38  1  0
 37 87  1  0
 37 88  1  0
 38 39  1  0
 38 89  1  0
 39 40  1  0
 39 90  1  0
 39 91  1  0
 40 92  1  0
 40 93  1  0
 41 40  1  0
 41 42  1  0
 41 44  1  0
 42 43  1  0
 42 94  1  0
 42 95  1  0
 43 38  1  0
 43 96  1  0
 43 97  1  0
 44 45  1  0
 44 98  1  0
 44 99  1  0
 45 47  1  0
 45 46  1  0
 46 41  1  0
 46100  1  0
 46101  1  0
 47 48  2  0
 48 49  1  0
 48102  1  0
 49 50  2  0
 49103  1  0
 50 51  1  0
 51 52  2  0
 51 53  1  0
 52 47  1  0
 52104  1  0
 53 54  2  0
 53 55  1  0
 55 58  1  0
 55 56  1  0
 56 57  2  0
 56 50  1  0
 58 59  1  0
 58105  1  1
 59 60  1  0
 59106  1  0
 59107  1  0
 60 61  1  0
 60108  1  0
 60109  1  0
 61 62  2  0
 61 63  1  0
 63 64  1  0
 63 66  1  0
 64 65  2  0
 64 58  1  0
M  END
>  <minimizedAffinity>  (4) 
-5.55819

>  <mol_id>  (4) 
64839

>  <source_index>  (4) 
3

>  <layer>  (4) 
L3

>  <uniprot>  (4) 
P28347

>  <paff>  (4) 
6.4248000000000003

>  <smiles>  (4) 
COCCOc1ccc(C(N)=O)c(-c2c(Cl)ccc3c2C[C@@](CNCC2CCC4(CC2)CN(c2ccc5c(c2)C(=O)N(C2CCC(=O)NC2=O)C5=O)C4)(c2ccccc2)O3)c1F

$$$$
L3:P28347:76968
     RDKit          3D

 46 48  0  0  0  0  0  0  0  0999 V2000
  -13.4305    7.3560   66.2475 C   0  0  0  0  0  0  0  0  0  0  0  0
  -13.6835    6.0891   66.5968 N   0  0  0  0  0  0  0  0  0  0  0  0
  -12.5643    5.3845   66.2700 N   0  0  0  0  0  0  0  0  0  0  0  0
  -11.5900    6.2139   65.7181 C   0  0  0  0  0  0  0  0  0  0  0  0
  -10.3545    5.8630   65.2903 N   0  0  0  0  0  0  0  0  0  0  0  0
   -9.6307    6.8789   64.7904 C   0  0  0  0  0  0  0  0  0  0  0  0
  -10.0603    8.1903   64.6861 C   0  0  0  0  0  0  0  0  0  0  0  0
  -11.3434    8.5425   65.1357 C   0  0  0  0  0  0  0  0  0  0  0  0
  -12.1324    7.4983   65.6805 C   0  0  0  0  0  0  0  0  0  0  0  0
  -12.5278    3.9765   66.5224 C   0  0  0  0  0  0  0  0  0  0  0  0
  -12.1751    3.1020   65.4802 C   0  0  0  0  0  0  0  0  0  0  0  0
  -12.1271    1.7163   65.6847 C   0  0  0  0  0  0  0  0  0  0  0  0
  -12.4310    1.1812   66.9342 C   0  0  0  0  0  0  0  0  0  0  0  0
  -12.7825    2.0484   67.9716 C   0  0  0  0  0  0  0  0  0  0  0  0
  -12.8314    3.4341   67.7738 C   0  0  0  0  0  0  0  0  0  0  0  0
  -12.4274   -0.1395   67.2777 O   0  0  0  0  0  0  0  0  0  0  0  0
  -12.8900   -1.0730   66.3174 C   0  0  0  0  0  0  0  0  0  0  0  0
  -13.2777   -2.1975   66.9603 F   0  0  0  0  0  0  0  0  0  0  0  0
  -13.9536   -0.5915   65.6393 F   0  0  0  0  0  0  0  0  0  0  0  0
  -11.9113   -1.4052   65.4486 F   0  0  0  0  0  0  0  0  0  0  0  0
  -11.8178    9.9561   64.9622 C   0  0  0  0  0  0  0  0  0  0  0  0
  -11.7372   10.6079   66.2267 O   0  0  0  0  0  0  0  0  0  0  0  0
  -12.2840   10.0850   66.8425 H   0  0  0  0  0  0  0  0  0  0  0  0
  -14.4665    8.4022   66.5252 C   0  0  0  0  0  0  0  0  0  0  0  0
  -16.8862    8.1969   66.3341 C   0  0  0  0  0  0  0  0  0  0  0  0
  -17.0631    8.2469   67.5443 O   0  0  0  0  0  0  0  0  0  0  0  0
  -15.6539    8.1779   65.7325 N   0  0  0  0  0  0  0  0  0  0  0  0
  -15.6107    8.4095   64.7434 H   0  0  0  0  0  0  0  0  0  0  0  0
  -19.5762    9.4127   63.8412 C   0  0  0  0  0  0  0  0  0  0  0  0
  -18.4573    9.3328   64.8254 C   0  0  0  0  0  0  0  0  0  0  0  0
  -18.0052    8.1861   65.3558 C   0  0  0  0  0  0  0  0  0  0  0  0
   -8.6778    6.6638   64.4575 H   0  0  0  0  0  0  0  0  0  0  0  0
   -9.4396    8.9074   64.2791 H   0  0  0  0  0  0  0  0  0  0  0  0
  -11.9479    3.4863   64.5497 H   0  0  0  0  0  0  0  0  0  0  0  0
  -11.8657    1.0904   64.9069 H   0  0  0  0  0  0  0  0  0  0  0  0
  -13.0103    1.6609   68.9006 H   0  0  0  0  0  0  0  0  0  0  0  0
  -13.0924    4.0564   68.5546 H   0  0  0  0  0  0  0  0  0  0  0  0
  -12.8304    9.9591   64.6164 H   0  0  0  0  0  0  0  0  0  0  0  0
  -11.2109   10.4654   64.2430 H   0  0  0  0  0  0  0  0  0  0  0  0
  -14.7270    8.3702   67.5625 H   0  0  0  0  0  0  0  0  0  0  0  0
  -14.0617    9.3592   66.2700 H   0  0  0  0  0  0  0  0  0  0  0  0
  -19.7435   10.4351   63.5737 H   0  0  0  0  0  0  0  0  0  0  0  0
  -20.4652    9.0083   64.2782 H   0  0  0  0  0  0  0  0  0  0  0  0
  -19.3221    8.8520   62.9660 H   0  0  0  0  0  0  0  0  0  0  0  0
  -18.0036   10.2131   65.1158 H   0  0  0  0  0  0  0  0  0  0  0  0
  -18.4377    7.2899   65.0824 H   0  0  0  0  0  0  0  0  0  0  0  0
  1  2  2  0
  2  3  1  0
  3 10  1  0
  3  4  1  0
  4  5  2  0
  5  6  1  0
  6  7  2  0
  6 32  1  0
  7  8  1  0
  7 33  1  0
  8 21  1  0
  8  9  2  0
  9  1  1  0
  9  4  1  0
 10 11  2  0
 11 12  1  0
 11 34  1  0
 12 13  2  0
 12 35  1  0
 13 16  1  0
 13 14  1  0
 14 15  2  0
 14 36  1  0
 15 10  1  0
 15 37  1  0
 16 17  1  0
 17 18  1  0
 17 19  1  0
 17 20  1  0
 21 22  1  0
 21 38  1  0
 21 39  1  0
 22 23  1  0
 24  1  1  0
 24 40  1  0
 24 41  1  0
 25 26  2  0
 25 27  1  0
 27 24  1  0
 27 28  1  0
 29 30  1  0
 29 42  1  0
 29 43  1  0
 29 44  1  0
 30 31  2  0
 30 45  1  0
 31 25  1  0
 31 46  1  0
M  END
>  <minimizedAffinity>  (5) 
-8.55143

>  <mol_id>  (5) 
76968

>  <source_index>  (5) 
4

>  <layer>  (5) 
L3

>  <uniprot>  (5) 
P28347

>  <paff>  (5) 
6.0457999999999998

>  <smiles>  (5) 
C\C=C\C(=O)NCc1nn(-c2ccc(OC(F)(F)F)cc2)c2nccc(CO)c12

$$$$
L3:P28347:101735
     RDKit          3D

 64 68  0  0  0  0  0  0  0  0999 V2000
  -14.5986   15.6113   69.4756 C   0  0  0  0  0  0  0  0  0  0  0  0
  -15.2024   14.9274   70.5321 C   0  0  0  0  0  0  0  0  0  0  0  0
  -15.2357   13.5476   70.4918 C   0  0  0  0  0  0  0  0  0  0  0  0
  -14.7294   12.7842   69.5052 N   0  0  0  0  0  0  0  0  0  0  0  0
  -14.1535   13.4770   68.4930 C   0  0  0  0  0  0  0  0  0  0  0  0
  -13.5527   12.9586   67.3457 N   0  0  0  0  0  0  0  0  0  0  0  0
  -13.0865   13.9574   66.5422 N   0  0  0  0  0  0  0  0  0  0  0  0
  -13.4018   15.0892   67.1713 C   0  0  0  0  0  0  0  0  0  0  0  0
  -14.0551   14.8679   68.4069 C   0  0  0  0  0  0  0  0  0  0  0  0
  -13.0433   16.4846   66.5662 C   0  0  0  0  0  0  0  0  0  0  0  0
  -13.1473   16.5816   65.0326 C   0  0  0  0  0  0  0  0  0  0  0  0
  -11.8795   17.2949   65.0764 N   0  0  0  0  0  0  0  0  0  0  0  0
  -11.5392   16.7843   66.4012 C   0  0  0  0  0  0  0  0  0  0  0  0
  -10.9928   17.6317   64.0889 C   0  0  0  0  0  0  0  0  0  0  0  0
   -9.8010   17.8371   64.3152 O   0  0  0  0  0  0  0  0  0  0  0  0
  -11.5482   17.7601   62.7083 C   0  0  0  0  0  0  0  0  0  0  0  0
  -11.5473   16.6603   61.9275 F   0  0  0  0  0  0  0  0  0  0  0  0
  -12.0452   18.9064   62.2352 C   0  0  0  0  0  0  0  0  0  0  0  0
  -13.3820   11.5981   66.9387 C   0  0  0  0  0  0  0  0  0  0  0  0
  -14.4826   10.7280   66.9811 C   0  0  0  0  0  0  0  0  0  0  0  0
  -14.3469    9.3914   66.5931 C   0  0  0  0  0  0  0  0  0  0  0  0
  -13.1184    8.8953   66.1539 C   0  0  0  0  0  0  0  0  0  0  0  0
  -12.0225    9.7559   66.1082 C   0  0  0  0  0  0  0  0  0  0  0  0
  -12.1519   11.0981   66.4984 C   0  0  0  0  0  0  0  0  0  0  0  0
  -13.1326    7.5752   65.8083 O   0  0  0  0  0  0  0  0  0  0  0  0
  -12.6505    6.6386   66.7558 C   0  0  0  0  0  0  0  0  0  0  0  0
  -11.6368    5.9057   66.2464 F   0  0  0  0  0  0  0  0  0  0  0  0
  -13.6553    5.7946   67.0806 F   0  0  0  0  0  0  0  0  0  0  0  0
  -12.2390    7.2532   67.8860 F   0  0  0  0  0  0  0  0  0  0  0  0
  -13.7736   19.0855   69.7788 N   0  0  0  0  0  0  0  0  0  0  0  0
  -13.4584   17.7674   69.9671 C   0  0  0  0  0  0  0  0  0  0  0  0
  -14.5324   17.0474   69.4923 C   0  0  0  0  0  0  0  0  0  0  0  0
  -15.4351   18.0216   69.0221 C   0  0  0  0  0  0  0  0  0  0  0  0
  -14.9922   19.2637   69.2298 N   0  0  0  0  0  0  0  0  0  0  0  0
  -12.9918   20.2329   70.1919 C   0  0  0  0  0  0  0  0  0  0  0  0
  -11.7533   20.5197   69.3250 C   0  0  0  0  0  0  0  0  0  0  0  0
  -12.9653   22.2766   68.1295 C   0  0  0  0  0  0  0  0  0  0  0  0
  -11.8865   21.2922   68.0783 N   0  0  0  0  0  0  0  0  0  0  0  0
  -12.0116   20.4543   66.8888 C   0  0  0  0  0  0  0  0  0  0  0  0
  -15.6149   15.4418   71.3260 H   0  0  0  0  0  0  0  0  0  0  0  0
  -15.6858   13.0615   71.2831 H   0  0  0  0  0  0  0  0  0  0  0  0
  -13.6619   17.0645   67.2188 H   0  0  0  0  0  0  0  0  0  0  0  0
  -13.9747   17.1575   64.6739 H   0  0  0  0  0  0  0  0  0  0  0  0
  -13.2950   15.7197   64.4160 H   0  0  0  0  0  0  0  0  0  0  0  0
  -11.1487   17.5148   67.0786 H   0  0  0  0  0  0  0  0  0  0  0  0
  -10.7877   16.0374   66.5503 H   0  0  0  0  0  0  0  0  0  0  0  0
  -12.0485   19.7511   62.8281 H   0  0  0  0  0  0  0  0  0  0  0  0
  -12.4258   18.9472   61.2768 H   0  0  0  0  0  0  0  0  0  0  0  0
  -15.3993   11.0775   67.3012 H   0  0  0  0  0  0  0  0  0  0  0  0
  -15.1653    8.7639   66.6320 H   0  0  0  0  0  0  0  0  0  0  0  0
  -11.1082    9.4031   65.7847 H   0  0  0  0  0  0  0  0  0  0  0  0
  -11.3311   11.7225   66.4601 H   0  0  0  0  0  0  0  0  0  0  0  0
  -12.5918   17.3894   70.3809 H   0  0  0  0  0  0  0  0  0  0  0  0
  -16.3355   17.8003   68.5690 H   0  0  0  0  0  0  0  0  0  0  0  0
  -13.6252   21.0948   70.1619 H   0  0  0  0  0  0  0  0  0  0  0  0
  -12.6263   20.0094   71.1724 H   0  0  0  0  0  0  0  0  0  0  0  0
  -11.0600   21.0501   69.9438 H   0  0  0  0  0  0  0  0  0  0  0  0
  -11.4651   19.5483   68.9812 H   0  0  0  0  0  0  0  0  0  0  0  0
  -13.0118   22.8034   67.1994 H   0  0  0  0  0  0  0  0  0  0  0  0
  -12.7784   22.9697   68.9230 H   0  0  0  0  0  0  0  0  0  0  0  0
  -13.8956   21.7775   68.3037 H   0  0  0  0  0  0  0  0  0  0  0  0
  -12.1042   21.0759   66.0228 H   0  0  0  0  0  0  0  0  0  0  0  0
  -12.8799   19.8354   66.9782 H   0  0  0  0  0  0  0  0  0  0  0  0
  -11.1423   19.8376   66.7939 H   0  0  0  0  0  0  0  0  0  0  0  0
  1  2  2  0
  2  3  1  0
  2 40  1  0
  3  4  2  0
  3 41  1  0
  4  5  1  0
  5  6  1  0
  6  7  1  0
  6 19  1  0
  7  8  2  0
  8 10  1  0
  8  9  1  0
  9  1  1  0
  9  5  2  0
 10 11  1  0
 10 42  1  0
 11 12  1  0
 11 43  1  0
 11 44  1  0
 12 13  1  0
 12 14  1  0
 13 10  1  0
 13 45  1  0
 13 46  1  0
 14 15  2  0
 14 16  1  0
 16 17  1  0
 16 18  2  0
 18 47  1  0
 18 48  1  0
 19 20  2  0
 20 21  1  0
 20 49  1  0
 21 22  2  0
 21 50  1  0
 22 25  1  0
 22 23  1  0
 23 24  2  0
 23 51  1  0
 24 19  1  0
 24 52  1  0
 25 26  1  0
 26 27  1  0
 26 28  1  0
 26 29  1  0
 30 31  1  0
 31 32  2  0
 31 53  1  0
 32 33  1  0
 32  1  1  0
 33 34  2  0
 33 54  1  0
 34 30  1  0
 35 30  1  0
 35 55  1  0
 35 56  1  0
 36 35  1  0
 36 57  1  0
 36 58  1  0
 37 38  1  0
 37 59  1  0
 37 60  1  0
 37 61  1  0
 38 39  1  0
 38 36  1  0
 39 62  1  0
 39 63  1  0
 39 64  1  0
M  END
>  <minimizedAffinity>  (6) 
-5.90307

>  <mol_id>  (6) 
101735

>  <source_index>  (6) 
5

>  <layer>  (6) 
L3

>  <uniprot>  (6) 
P28347

>  <paff>  (6) 
6.6021000000000001

>  <smiles>  (6) 
CN(C)CCn1cc(cn1)-c1ccnc2n(nc(C3CN(C3)C(=O)C(F)=C)c12)-c1ccc(OC(F)(F)F)cc1

$$$$
L3:P28347:107616
     RDKit          3D

 46 48  0  0  0  0  0  0  0  0999 V2000
  -12.7735    8.4829   65.9412 C   0  0  0  0  0  0  0  0  0  0  0  0
  -11.4582    8.4633   65.4364 C   0  0  0  0  0  0  0  0  0  0  0  0
  -10.7747    7.2685   65.3139 C   0  0  0  0  0  0  0  0  0  0  0  0
  -11.2651    6.0611   65.6367 N   0  0  0  0  0  0  0  0  0  0  0  0
  -12.5314    6.0845   66.1148 C   0  0  0  0  0  0  0  0  0  0  0  0
  -13.2922    4.9911   66.5208 N   0  0  0  0  0  0  0  0  0  0  0  0
  -14.5241    5.3785   66.9562 N   0  0  0  0  0  0  0  0  0  0  0  0
  -14.5517    6.7113   66.8041 C   0  0  0  0  0  0  0  0  0  0  0  0
  -13.3262    7.2206   66.2876 C   0  0  0  0  0  0  0  0  0  0  0  0
  -12.9564    3.5987   66.5364 C   0  0  0  0  0  0  0  0  0  0  0  0
  -12.5269    2.9214   65.3894 C   0  0  0  0  0  0  0  0  0  0  0  0
  -12.2113    1.5576   65.4462 C   0  0  0  0  0  0  0  0  0  0  0  0
  -12.3148    0.8438   66.6481 C   0  0  0  0  0  0  0  0  0  0  0  0
  -12.7516    1.5198   67.7945 C   0  0  0  0  0  0  0  0  0  0  0  0
  -13.0646    2.8819   67.7415 C   0  0  0  0  0  0  0  0  0  0  0  0
  -12.0003   -0.6306   66.7009 C   0  0  0  0  0  0  0  0  0  0  0  0
  -11.1353   -1.0321   65.7280 F   0  0  0  0  0  0  0  0  0  0  0  0
  -11.4326   -1.0121   67.8797 F   0  0  0  0  0  0  0  0  0  0  0  0
  -13.1118   -1.4031   66.5550 F   0  0  0  0  0  0  0  0  0  0  0  0
  -13.5043    9.8086   66.0405 C   0  0  1  0  0  0  0  0  0  0  0  0
  -14.3965    9.7805   67.1594 O   0  0  0  0  0  0  0  0  0  0  0  0
  -15.2916    9.7137   66.7787 H   0  0  0  0  0  0  0  0  0  0  0  0
  -13.1486   12.1015   66.8384 O   0  0  0  0  0  0  0  0  0  0  0  0
  -12.5251   10.9824   66.2088 C   0  0  0  0  0  0  0  0  0  0  0  0
  -12.4747   12.8029   66.8834 H   0  0  0  0  0  0  0  0  0  0  0  0
  -15.7996    7.4291   67.2164 C   0  0  0  0  0  0  0  0  0  0  0  0
  -16.3418    8.0948   66.0469 N   0  0  0  0  0  0  0  0  0  0  0  0
  -17.6845    8.3224   65.9058 C   0  0  0  0  0  0  0  0  0  0  0  0
  -18.5171    8.1467   66.7860 O   0  0  0  0  0  0  0  0  0  0  0  0
  -15.7500    8.0684   65.2283 H   0  0  0  0  0  0  0  0  0  0  0  0
  -18.0460    8.7944   64.5443 C   0  0  0  0  0  0  0  0  0  0  0  0
  -19.2026    9.4334   64.3296 C   0  0  0  0  0  0  0  0  0  0  0  0
  -11.0027    9.3461   65.1566 H   0  0  0  0  0  0  0  0  0  0  0  0
   -9.8116    7.3074   64.9453 H   0  0  0  0  0  0  0  0  0  0  0  0
  -12.4421    3.4302   64.4955 H   0  0  0  0  0  0  0  0  0  0  0  0
  -11.8983    1.0718   64.5912 H   0  0  0  0  0  0  0  0  0  0  0  0
  -12.8433    1.0083   68.6861 H   0  0  0  0  0  0  0  0  0  0  0  0
  -13.3786    3.3666   68.5967 H   0  0  0  0  0  0  0  0  0  0  0  0
  -14.0496    9.9520   65.1311 H   0  0  0  0  0  0  0  0  0  0  0  0
  -11.6992   10.6621   66.8090 H   0  0  0  0  0  0  0  0  0  0  0  0
  -12.1966   11.2858   65.2367 H   0  0  0  0  0  0  0  0  0  0  0  0
  -15.5701    8.1516   67.9716 H   0  0  0  0  0  0  0  0  0  0  0  0
  -16.5123    6.7369   67.6136 H   0  0  0  0  0  0  0  0  0  0  0  0
  -17.3998    8.6282   63.7570 H   0  0  0  0  0  0  0  0  0  0  0  0
  -19.8522    9.6020   65.1136 H   0  0  0  0  0  0  0  0  0  0  0  0
  -19.4446    9.7574   63.3801 H   0  0  0  0  0  0  0  0  0  0  0  0
  1  2  2  0
  2  3  1  0
  2 33  1  0
  3  4  2  0
  3 34  1  0
  4  5  1  0
  5  6  1  0
  6  7  1  0
  6 10  1  0
  7  8  2  0
  8 26  1  0
  8  9  1  0
  9  1  1  0
  9  5  2  0
 10 11  2  0
 11 12  1  0
 11 35  1  0
 12 13  2  0
 12 36  1  0
 13 14  1  0
 13 16  1  0
 14 15  2  0
 14 37  1  0
 15 10  1  0
 15 38  1  0
 16 17  1  0
 16 18  1  0
 16 19  1  0
 20 21  1  0
 20  1  1  0
 20 39  1  6
 21 22  1  0
 23 24  1  0
 23 25  1  0
 24 20  1  0
 24 40  1  0
 24 41  1  0
 26 27  1  0
 26 42  1  0
 26 43  1  0
 27 28  1  0
 27 30  1  0
 28 29  2  0
 28 31  1  0
 31 32  2  0
 31 44  1  0
 32 45  1  0
 32 46  1  0
M  END
>  <minimizedAffinity>  (7) 
-7.82439

>  <mol_id>  (7) 
107616

>  <source_index>  (7) 
6

>  <layer>  (7) 
L3

>  <uniprot>  (7) 
P28347

>  <paff>  (7) 
7.0968999999999998

>  <smiles>  (7) 
OC[C@H](O)c1ccnc2n(nc(CNC(=O)C=C)c12)-c1ccc(cc1)C(F)(F)F |r|

$$$$
L3:P28347:138257
     RDKit          3D

 55 58  0  0  0  0  0  0  0  0999 V2000
  -13.1828   15.1473   67.1965 C   0  0  0  0  0  0  0  0  0  0  0  0
  -12.9863   14.0071   66.5384 N   0  0  0  0  0  0  0  0  0  0  0  0
  -13.4814   13.0327   67.3545 N   0  0  0  0  0  0  0  0  0  0  0  0
  -14.0260   13.5836   68.5152 C   0  0  0  0  0  0  0  0  0  0  0  0
  -14.6094   12.9143   69.5352 N   0  0  0  0  0  0  0  0  0  0  0  0
  -15.0433   13.6944   70.5364 C   0  0  0  0  0  0  0  0  0  0  0  0
  -14.9505   15.0733   70.5636 C   0  0  0  0  0  0  0  0  0  0  0  0
  -14.3576   15.7717   69.4924 C   0  0  0  0  0  0  0  0  0  0  0  0
  -13.8589   14.9700   68.4304 C   0  0  0  0  0  0  0  0  0  0  0  0
  -13.3917   11.6654   66.9438 C   0  0  0  0  0  0  0  0  0  0  0  0
  -14.4831   10.7948   67.0037 C   0  0  0  0  0  0  0  0  0  0  0  0
  -14.3457    9.4636   66.5904 C   0  0  0  0  0  0  0  0  0  0  0  0
  -13.1265    8.9759   66.1130 C   0  0  0  0  0  0  0  0  0  0  0  0
  -12.0352    9.8390   66.0521 C   0  0  0  0  0  0  0  0  0  0  0  0
  -12.1662   11.1723   66.4640 C   0  0  0  0  0  0  0  0  0  0  0  0
  -13.1471    7.6610   65.7486 O   0  0  0  0  0  0  0  0  0  0  0  0
  -12.4466    6.7382   66.5647 C   0  0  0  0  0  0  0  0  0  0  0  0
  -11.2439    6.4311   66.0336 F   0  0  0  0  0  0  0  0  0  0  0  0
  -13.1620    5.6076   66.7475 F   0  0  0  0  0  0  0  0  0  0  0  0
  -12.2386    7.3022   67.7754 F   0  0  0  0  0  0  0  0  0  0  0  0
  -12.8726   17.6291   64.7755 N   0  0  0  0  0  0  0  0  0  0  0  0
  -12.0961   16.4256   65.1830 C   0  0  0  0  0  0  0  0  0  0  0  0
  -12.7217   16.5057   66.5947 C   0  0  0  0  0  0  0  0  0  0  0  0
  -13.8105   17.3691   65.9102 C   0  0  0  0  0  0  0  0  0  0  0  0
  -12.2425   19.1309   64.3154 S   0  0  0  0  0  0  0  0  0  0  0  0
  -13.2390   20.1192   64.6745 O   0  0  0  0  0  0  0  0  0  0  0  0
  -11.8175   18.9869   62.9365 O   0  0  0  0  0  0  0  0  0  0  0  0
  -11.0464   19.8253   66.7282 C   0  0  0  0  0  0  0  0  0  0  0  0
  -10.8205   19.3835   65.3193 C   0  0  0  0  0  0  0  0  0  0  0  0
   -9.6015   19.2060   64.7799 C   0  0  0  0  0  0  0  0  0  0  0  0
  -14.2931   17.2853   69.5557 C   0  0  1  0  0  0  0  0  0  0  0  0
  -15.5893   17.8331   69.8309 O   0  0  0  0  0  0  0  0  0  0  0  0
  -16.2461   17.2614   69.3943 H   0  0  0  0  0  0  0  0  0  0  0  0
  -13.3017   17.8197   70.6047 C   0  0  0  0  0  0  0  0  0  0  0  0
  -12.0444   17.1475   70.5117 O   0  0  0  0  0  0  0  0  0  0  0  0
  -12.2689   16.1959   70.4861 H   0  0  0  0  0  0  0  0  0  0  0  0
  -15.4796   13.2298   71.3481 H   0  0  0  0  0  0  0  0  0  0  0  0
  -15.3181   15.5954   71.3743 H   0  0  0  0  0  0  0  0  0  0  0  0
  -15.3930   11.1337   67.3535 H   0  0  0  0  0  0  0  0  0  0  0  0
  -15.1599    8.8314   66.6394 H   0  0  0  0  0  0  0  0  0  0  0  0
  -11.1269    9.4957   65.7025 H   0  0  0  0  0  0  0  0  0  0  0  0
  -11.3500   11.8018   66.4142 H   0  0  0  0  0  0  0  0  0  0  0  0
  -11.0351   16.5632   65.1662 H   0  0  0  0  0  0  0  0  0  0  0  0
  -12.1560   15.5221   64.6130 H   0  0  0  0  0  0  0  0  0  0  0  0
  -12.1888   16.8351   67.4621 H   0  0  0  0  0  0  0  0  0  0  0  0
  -14.0866   18.2442   66.4605 H   0  0  0  0  0  0  0  0  0  0  0  0
  -14.7881   16.9730   65.7305 H   0  0  0  0  0  0  0  0  0  0  0  0
  -10.1039   19.9399   67.2215 H   0  0  0  0  0  0  0  0  0  0  0  0
  -11.6314   19.0917   67.2426 H   0  0  0  0  0  0  0  0  0  0  0  0
  -11.5658   20.7608   66.7297 H   0  0  0  0  0  0  0  0  0  0  0  0
   -8.7568   19.3501   65.3550 H   0  0  0  0  0  0  0  0  0  0  0  0
   -9.5107   18.9257   63.7908 H   0  0  0  0  0  0  0  0  0  0  0  0
  -13.9433   17.5964   68.5935 H   0  0  0  0  0  0  0  0  0  0  0  0
  -13.7094   17.6652   71.5818 H   0  0  0  0  0  0  0  0  0  0  0  0
  -13.1443   18.8626   70.4242 H   0  0  0  0  0  0  0  0  0  0  0  0
  1  2  2  0
  2  3  1  0
  3 10  1  0
  3  4  1  0
  4  5  2  0
  5  6  1  0
  6  7  2  0
  6 37  1  0
  7  8  1  0
  7 38  1  0
  8 31  1  0
  8  9  2  0
  9  1  1  0
  9  4  1  0
 10 11  2  0
 11 12  1  0
 11 39  1  0
 12 13  2  0
 12 40  1  0
 13 16  1  0
 13 14  1  0
 14 15  2  0
 14 41  1  0
 15 10  1  0
 15 42  1  0
 16 17  1  0
 17 18  1  0
 17 19  1  0
 17 20  1  0
 21 22  1  0
 22 23  1  0
 22 43  1  0
 22 44  1  0
 23 24  1  0
 23  1  1  0
 23 45  1  0
 24 21  1  0
 24 46  1  0
 24 47  1  0
 25 26  2  0
 25 27  2  0
 25 21  1  0
 28 29  1  0
 28 48  1  0
 28 49  1  0
 28 50  1  0
 29 30  2  0
 29 25  1  0
 30 51  1  0
 30 52  1  0
 31 32  1  0
 31 34  1  0
 31 53  1  6
 32 33  1  0
 34 35  1  0
 34 54  1  0
 34 55  1  0
 35 36  1  0
M  END
>  <minimizedAffinity>  (8) 
-6.06531

>  <mol_id>  (8) 
138257

>  <source_index>  (8) 
7

>  <layer>  (8) 
L3

>  <uniprot>  (8) 
P28347

>  <paff>  (8) 
7.1192000000000002

>  <smiles>  (8) 
CC(=C)S(=O)(=O)N1CC(C1)c1nn(-c2ccc(OC(F)(F)F)cc2)c2nccc([C@@H](O)CO)c12 |r|

$$$$
L3:P28347:144852
     RDKit          3D

 47 49  0  0  0  0  0  0  0  0999 V2000
  -16.2187   16.4920   68.1421 C   0  0  0  0  0  0  0  0  0  0  0  0
  -16.4654   16.6740   66.7681 C   0  0  0  0  0  0  0  0  0  0  0  0
  -15.9570   15.7795   65.8449 C   0  0  0  0  0  0  0  0  0  0  0  0
  -15.2134   14.7020   66.1422 N   0  0  0  0  0  0  0  0  0  0  0  0
  -14.9974   14.5196   67.4655 C   0  0  0  0  0  0  0  0  0  0  0  0
  -14.2760   13.4887   68.0630 N   0  0  0  0  0  0  0  0  0  0  0  0
  -14.2671   13.6125   69.4211 N   0  0  0  0  0  0  0  0  0  0  0  0
  -14.9881   14.7161   69.6829 C   0  0  0  0  0  0  0  0  0  0  0  0
  -15.4607   15.3426   68.4944 C   0  0  0  0  0  0  0  0  0  0  0  0
  -13.5889   12.3861   67.4613 C   0  0  0  0  0  0  0  0  0  0  0  0
  -14.2512   11.2199   67.0622 C   0  0  0  0  0  0  0  0  0  0  0  0
  -13.5442   10.1582   66.4757 C   0  0  0  0  0  0  0  0  0  0  0  0
  -12.1672   10.2460   66.2789 C   0  0  0  0  0  0  0  0  0  0  0  0
  -11.5032   11.4082   66.6753 C   0  0  0  0  0  0  0  0  0  0  0  0
  -12.2020   12.4690   67.2606 C   0  0  0  0  0  0  0  0  0  0  0  0
  -11.3612    9.2953   65.7237 O   0  0  0  0  0  0  0  0  0  0  0  0
  -10.7091    9.6105   64.5057 C   0  0  0  0  0  0  0  0  0  0  0  0
  -11.5145   10.3257   63.6915 F   0  0  0  0  0  0  0  0  0  0  0  0
   -9.5665   10.2951   64.7263 F   0  0  0  0  0  0  0  0  0  0  0  0
  -10.3916    8.4584   63.8741 F   0  0  0  0  0  0  0  0  0  0  0  0
  -16.8030   17.5115   69.1026 C   0  0  2  0  0  0  0  0  0  0  0  0
  -18.1464   17.7960   68.7230 O   0  0  0  0  0  0  0  0  0  0  0  0
  -18.6437   16.9639   68.8161 H   0  0  0  0  0  0  0  0  0  0  0  0
  -14.6307   18.5221   69.5605 O   0  0  0  0  0  0  0  0  0  0  0  0
  -15.9737   18.8038   69.1674 C   0  0  0  0  0  0  0  0  0  0  0  0
  -14.1624   19.3756   69.5803 H   0  0  0  0  0  0  0  0  0  0  0  0
  -15.1896   15.1294   71.1136 C   0  0  0  0  0  0  0  0  0  0  0  0
  -14.2907   16.2228   71.4198 N   0  0  0  0  0  0  0  0  0  0  0  0
  -13.0784   16.0086   72.0169 C   0  0  0  0  0  0  0  0  0  0  0  0
  -12.6434   14.8879   72.2622 O   0  0  0  0  0  0  0  0  0  0  0  0
  -14.7083   17.1441   71.3707 H   0  0  0  0  0  0  0  0  0  0  0  0
  -12.3127   17.2346   72.3915 C   0  0  0  0  0  0  0  0  0  0  0  0
  -12.2261   17.4545   73.7216 F   0  0  0  0  0  0  0  0  0  0  0  0
  -11.6866   18.0711   71.5571 C   0  0  0  0  0  0  0  0  0  0  0  0
  -17.0279   17.4782   66.4489 H   0  0  0  0  0  0  0  0  0  0  0  0
  -16.1654   15.9536   64.8493 H   0  0  0  0  0  0  0  0  0  0  0  0
  -15.2707   11.1393   67.2005 H   0  0  0  0  0  0  0  0  0  0  0  0
  -14.0486    9.3052   66.1877 H   0  0  0  0  0  0  0  0  0  0  0  0
  -10.4838   11.4856   66.5347 H   0  0  0  0  0  0  0  0  0  0  0  0
  -11.6936   13.3201   67.5474 H   0  0  0  0  0  0  0  0  0  0  0  0
  -16.7820   17.0887   70.0853 H   0  0  0  0  0  0  0  0  0  0  0  0
  -15.9676   19.2660   68.2024 H   0  0  0  0  0  0  0  0  0  0  0  0
  -16.4135   19.4590   69.8900 H   0  0  0  0  0  0  0  0  0  0  0  0
  -14.9807   14.3018   71.7589 H   0  0  0  0  0  0  0  0  0  0  0  0
  -16.2023   15.4422   71.2602 H   0  0  0  0  0  0  0  0  0  0  0  0
  -11.7410   17.9198   70.5377 H   0  0  0  0  0  0  0  0  0  0  0  0
  -11.1490   18.8680   71.9325 H   0  0  0  0  0  0  0  0  0  0  0  0
  1  2  2  0
  2  3  1  0
  2 35  1  0
  3  4  2  0
  3 36  1  0
  4  5  1  0
  5  6  1  0
  6  7  1  0
  6 10  1  0
  7  8  2  0
  8 27  1  0
  8  9  1  0
  9  1  1  0
  9  5  2  0
 10 11  2  0
 11 12  1  0
 11 37  1  0
 12 13  2  0
 12 38  1  0
 13 16  1  0
 13 14  1  0
 14 15  2  0
 14 39  1  0
 15 10  1  0
 15 40  1  0
 16 17  1  0
 17 18  1  0
 17 19  1  0
 17 20  1  0
 21 22  1  0
 21  1  1  0
 21 41  1  1
 22 23  1  0
 24 25  1  0
 24 26  1  0
 25 21  1  0
 25 42  1  0
 25 43  1  0
 27 28  1  0
 27 44  1  0
 27 45  1  0
 28 29  1  0
 28 31  1  0
 29 30  2  0
 29 32  1  0
 32 33  1  0
 32 34  2  0
 34 46  1  0
 34 47  1  0
M  END
>  <minimizedAffinity>  (9) 
-5.45930

>  <mol_id>  (9) 
144852

>  <source_index>  (9) 
8

>  <layer>  (9) 
L3

>  <uniprot>  (9) 
P28347

>  <paff>  (9) 
6.4949000000000003

>  <smiles>  (9) 
OC[C@@H](O)c1ccnc2n(nc(CNC(=O)C(F)=C)c12)-c1ccc(OC(F)(F)F)cc1 |r|

$$$$
L3:P28347:145084
     RDKit          3D

 44 46  0  0  0  0  0  0  0  0999 V2000
  -14.9642    8.2017   66.2774 C   0  0  0  0  0  0  0  0  0  0  0  0
  -16.1699    8.7400   65.8094 C   0  0  0  0  0  0  0  0  0  0  0  0
  -17.3569    8.0721   66.0507 C   0  0  0  0  0  0  0  0  0  0  0  0
  -17.3684    6.9098   66.7268 N   0  0  0  0  0  0  0  0  0  0  0  0
  -16.1880    6.3745   67.1892 N   0  0  0  0  0  0  0  0  0  0  0  0
  -14.9970    6.9825   66.9792 C   0  0  0  0  0  0  0  0  0  0  0  0
  -10.4856    9.4413   64.5200 C   0  0  0  0  0  0  0  0  0  0  0  0
  -11.7399    9.4276   65.2286 N   0  0  0  0  0  0  0  0  0  0  0  0
  -12.1754   10.3889   66.0925 C   0  0  0  0  0  0  0  0  0  0  0  0
  -13.3625   10.0953   66.5752 N   0  0  0  0  0  0  0  0  0  0  0  0
  -13.7072    8.8868   65.9993 C   0  0  0  0  0  0  0  0  0  0  0  0
  -12.7022    8.4599   65.1552 C   0  0  0  0  0  0  0  0  0  0  0  0
  -18.8977    8.7091   65.4777 P   0  0  0  0  0  0  0  0  0  0  0  0
  -18.5847    9.7731   64.0636 C   0  0  0  0  0  0  0  0  0  0  0  0
  -19.8463    7.3603   64.7630 C   0  0  0  0  0  0  0  0  0  0  0  0
  -19.7336    9.4421   66.5013 O   0  0  0  0  0  0  0  0  0  0  0  0
  -13.8005    6.4470   67.5153 N   0  0  0  0  0  0  0  0  0  0  0  0
  -13.1859    7.2142   67.8043 H   0  0  0  0  0  0  0  0  0  0  0  0
  -13.1265    5.2369   67.2814 C   0  0  0  0  0  0  0  0  0  0  0  0
  -11.9535    5.1298   66.5294 C   0  0  0  0  0  0  0  0  0  0  0  0
  -11.3513    3.8866   66.2951 C   0  0  0  0  0  0  0  0  0  0  0  0
  -11.9177    2.7100   66.8004 C   0  0  0  0  0  0  0  0  0  0  0  0
  -13.1120    2.8029   67.5240 C   0  0  0  0  0  0  0  0  0  0  0  0
  -13.7067    4.0487   67.7534 C   0  0  0  0  0  0  0  0  0  0  0  0
  -11.2828    1.3700   66.5291 C   0  0  0  0  0  0  0  0  0  0  0  0
  -11.4303    0.9602   65.2373 F   0  0  0  0  0  0  0  0  0  0  0  0
  -11.7952    0.3661   67.2952 F   0  0  0  0  0  0  0  0  0  0  0  0
   -9.9418    1.3732   66.7668 F   0  0  0  0  0  0  0  0  0  0  0  0
  -16.1725    9.6302   65.2873 H   0  0  0  0  0  0  0  0  0  0  0  0
   -9.9401   10.3250   64.7776 H   0  0  0  0  0  0  0  0  0  0  0  0
  -10.6711    9.4312   63.4663 H   0  0  0  0  0  0  0  0  0  0  0  0
   -9.9141    8.5779   64.7898 H   0  0  0  0  0  0  0  0  0  0  0  0
  -11.6416   11.2379   66.3360 H   0  0  0  0  0  0  0  0  0  0  0  0
  -12.6818    7.5964   64.5905 H   0  0  0  0  0  0  0  0  0  0  0  0
  -17.9927    9.2461   63.3448 H   0  0  0  0  0  0  0  0  0  0  0  0
  -18.0598   10.6483   64.3851 H   0  0  0  0  0  0  0  0  0  0  0  0
  -19.5152   10.0584   63.6190 H   0  0  0  0  0  0  0  0  0  0  0  0
  -19.2475    6.8471   64.0399 H   0  0  0  0  0  0  0  0  0  0  0  0
  -20.7213    7.7522   64.2880 H   0  0  0  0  0  0  0  0  0  0  0  0
  -20.1349    6.6786   65.5356 H   0  0  0  0  0  0  0  0  0  0  0  0
  -11.5227    5.9826   66.1393 H   0  0  0  0  0  0  0  0  0  0  0  0
  -10.4803    3.8375   65.7438 H   0  0  0  0  0  0  0  0  0  0  0  0
  -13.5570    1.9471   67.8908 H   0  0  0  0  0  0  0  0  0  0  0  0
  -14.5920    4.0951   68.2816 H   0  0  0  0  0  0  0  0  0  0  0  0
  1  2  2  0
  2  3  1  0
  2 29  1  0
  3 13  1  0
  3  4  2  0
  4  5  1  0
  5  6  2  0
  6 17  1  0
  6  1  1  0
  7  8  1  0
  7 30  1  0
  7 31  1  0
  7 32  1  0
  8  9  1  0
  9 10  2  0
  9 33  1  0
 10 11  1  0
 11  1  1  0
 11 12  2  0
 12  8  1  0
 12 34  1  0
 13 14  1  0
 13 15  1  0
 13 16  2  0
 14 35  1  0
 14 36  1  0
 14 37  1  0
 15 38  1  0
 15 39  1  0
 15 40  1  0
 17 19  1  0
 17 18  1  0
 19 20  2  0
 20 21  1  0
 20 41  1  0
 21 22  2  0
 21 42  1  0
 22 25  1  0
 22 23  1  0
 23 24  2  0
 23 43  1  0
 24 19  1  0
 24 44  1  0
 25 26  1  0
 25 27  1  0
 25 28  1  0
M  END
>  <minimizedAffinity>  (10) 
-6.23232

>  <mol_id>  (10) 
145084

>  <source_index>  (10) 
9

>  <layer>  (10) 
L3

>  <uniprot>  (10) 
P28347

>  <paff>  (10) 
6.4089

>  <smiles>  (10) 
Cn1cnc(-c2cc(P(C)(C)=O)nnc2Nc2ccc(C(F)(F)F)cc2)c1

$$$$
