L3:P28347:28596
     RDKit          3D

 48 50  0  0  0  0  0  0  0  0999 V2000
  -12.6780   16.9915   67.6909 C   0  0  0  0  0  0  0  0  0  0  0  0
  -12.1057   18.1654   67.3308 N   0  0  0  0  0  0  0  0  0  0  0  0
  -12.3579   19.0717   68.2624 N   0  0  0  0  0  0  0  0  0  0  0  0
  -13.0960   18.4881   69.2222 C   0  0  0  0  0  0  0  0  0  0  0  0
  -13.5285   19.0747   70.3642 N   0  0  0  0  0  0  0  0  0  0  0  0
  -14.2544   18.3480   71.2551 C   0  0  0  0  0  0  0  0  0  0  0  0
  -14.5360   16.9932   71.0089 C   0  0  0  0  0  0  0  0  0  0  0  0
  -14.0610   16.3542   69.8383 C   0  0  0  0  0  0  0  0  0  0  0  0
  -13.3329   17.1634   68.9247 C   0  0  0  0  0  0  0  0  0  0  0  0
  -11.8756   20.4266   68.2045 C   0  0  0  0  0  0  0  0  0  0  0  0
  -12.6102   21.4357   67.5534 C   0  0  0  0  0  0  0  0  0  0  0  0
  -12.1180   22.7437   67.4992 C   0  0  0  0  0  0  0  0  0  0  0  0
  -10.8895   23.0552   68.0843 C   0  0  0  0  0  0  0  0  0  0  0  0
  -10.1458   22.0591   68.7191 C   0  0  0  0  0  0  0  0  0  0  0  0
  -10.6319   20.7494   68.7751 C   0  0  0  0  0  0  0  0  0  0  0  0
  -10.0713   23.6119   68.3871 S   0  0  0  0  0  0  0  0  0  0  0  0
   -9.7787   18.3280   64.7245 F   0  0  0  0  0  0  0  0  0  0  0  0
  -15.8816   20.7610   63.3122 F   0  0  0  0  0  0  0  0  0  0  0  0
  -10.6495   16.9458   64.3200 F   0  0  0  0  0  0  0  0  0  0  0  0
  -10.6627   16.9365   64.3455 F   0  0  0  0  0  0  0  0  0  0  0  0
  -10.6459   16.9495   64.3161 F   0  0  0  0  0  0  0  0  0  0  0  0
  -14.3250   14.8693   69.6871 C   0  0  2  0  0  0  0  0  0  0  0  0
  -15.5721   14.6612   69.0809 O   0  0  0  0  0  0  0  0  0  0  0  0
  -15.6060   13.7089   68.8012 H   0  0  0  0  0  0  0  0  0  0  0  0
  -14.2045   14.1286   71.0305 C   0  0  0  0  0  0  0  0  0  0  0  0
  -12.8570   13.9849   71.3923 O   0  0  0  0  0  0  0  0  0  0  0  0
  -12.4872   13.2540   70.8314 H   0  0  0  0  0  0  0  0  0  0  0  0
  -12.6693   15.8271   66.7414 C   0  0  0  0  0  0  0  0  0  0  0  0
  -11.9314   13.4468   67.1547 C   0  0  0  0  0  0  0  0  0  0  0  0
  -13.0839   13.0278   66.8560 O   0  0  0  0  0  0  0  0  0  0  0  0
  -11.6527   14.8524   67.1354 N   0  0  0  0  0  0  0  0  0  0  0  0
  -10.6897   15.1765   67.3840 H   0  0  0  0  0  0  0  0  0  0  0  0
   -9.5927   12.6784   67.1719 C   0  0  0  0  0  0  0  0  0  0  0  0
  -10.8648   12.4970   67.5220 C   0  0  0  0  0  0  0  0  0  0  0  0
  -14.6012   18.7945   72.1185 H   0  0  0  0  0  0  0  0  0  0  0  0
  -15.0962   16.4574   71.6902 H   0  0  0  0  0  0  0  0  0  0  0  0
  -13.5161   21.2092   67.1140 H   0  0  0  0  0  0  0  0  0  0  0  0
  -12.6642   23.4802   67.0256 H   0  0  0  0  0  0  0  0  0  0  0  0
   -9.2358   22.2897   69.1477 H   0  0  0  0  0  0  0  0  0  0  0  0
  -10.0742   20.0149   69.2383 H   0  0  0  0  0  0  0  0  0  0  0  0
  -13.5725   14.4559   69.0486 H   0  0  0  0  0  0  0  0  0  0  0  0
  -14.6501   13.1600   70.9399 H   0  0  0  0  0  0  0  0  0  0  0  0
  -14.7072   14.6964   71.7854 H   0  0  0  0  0  0  0  0  0  0  0  0
  -13.6305   15.3571   66.7518 H   0  0  0  0  0  0  0  0  0  0  0  0
  -12.4438   16.1840   65.7582 H   0  0  0  0  0  0  0  0  0  0  0  0
   -8.8775   11.9884   67.4501 H   0  0  0  0  0  0  0  0  0  0  0  0
   -9.3221   13.5090   66.6224 H   0  0  0  0  0  0  0  0  0  0  0  0
  -11.1137   11.6596   68.0714 H   0  0  0  0  0  0  0  0  0  0  0  0
  1  2  2  0
  2  3  1  0
  3 10  1  0
  3  4  1  0
  4  5  2  0
  5  6  1  0
  6  7  2  0
  6 35  1  0
  7  8  1  0
  7 36  1  0
  8 22  1  0
  8  9  2  0
  9  1  1  0
  9  4  1  0
 10 11  2  0
 11 12  1  0
 11 37  1  0
 12 13  2  0
 12 38  1  0
 13 16  1  0
 13 14  1  0
 14 15  2  0
 14 39  1  0
 15 10  1  0
 15 40  1  0
 16 17  1  0
 16 18  1  0
 16 19  1  0
 16 20  1  0
 16 21  1  0
 22 23  1  0
 22 25  1  0
 22 41  1  6
 23 24  1  0
 25 26  1  0
 25 42  1  0
 25 43  1  0
 26 27  1  0
 28  1  1  0
 28 44  1  0
 28 45  1  0
 29 30  2  0
 29 31  1  0
 31 28  1  0
 31 32  1  0
 33 34  2  0
 33 46  1  0
 33 47  1  0
 34 29  1  0
 34 48  1  0
M  END
>  <minimizedAffinity>  (1) 
-7.18263

>  <mol_id>  (1) 
28596

>  <source_index>  (1) 
0

>  <layer>  (1) 
L3

>  <uniprot>  (1) 
P28347

>  <paff>  (1) 
7.3665000000000003

>  <smiles>  (1) 
OC[C@@H](O)c1ccnc2n(nc(CNC(=O)C=C)c12)-c1ccc(cc1)S(F)(F)(F)(F)F |r|

$$$$
L3:P28347:30720
     RDKit          3D

 50 53  0  0  0  0  0  0  0  0999 V2000
  -14.5210   14.1990   69.3389 C   0  0  0  0  0  0  0  0  0  0  0  0
  -14.4108   12.9058   68.9952 N   0  0  0  0  0  0  0  0  0  0  0  0
  -13.7142   12.9020   67.8233 N   0  0  0  0  0  0  0  0  0  0  0  0
  -13.3858   14.1966   67.4265 C   0  0  0  0  0  0  0  0  0  0  0  0
  -12.7060   14.5591   66.3147 N   0  0  0  0  0  0  0  0  0  0  0  0
  -12.5351   15.8828   66.1795 C   0  0  0  0  0  0  0  0  0  0  0  0
  -12.9884   16.8389   67.0705 C   0  0  0  0  0  0  0  0  0  0  0  0
  -13.6914   16.4617   68.2286 C   0  0  0  0  0  0  0  0  0  0  0  0
  -13.8943   15.0637   68.3965 C   0  0  0  0  0  0  0  0  0  0  0  0
  -13.4272   11.6510   67.1890 C   0  0  0  0  0  0  0  0  0  0  0  0
  -12.1623   11.3456   66.6748 C   0  0  0  0  0  0  0  0  0  0  0  0
  -11.9176   10.1078   66.0595 C   0  0  0  0  0  0  0  0  0  0  0  0
  -12.9317    9.1580   65.9489 C   0  0  0  0  0  0  0  0  0  0  0  0
  -14.1950    9.4592   66.4606 C   0  0  0  0  0  0  0  0  0  0  0  0
  -14.4447   10.6907   67.0749 C   0  0  0  0  0  0  0  0  0  0  0  0
  -12.8323    7.9224   65.3781 O   0  0  0  0  0  0  0  0  0  0  0  0
  -12.3551    6.8587   66.1836 C   0  0  0  0  0  0  0  0  0  0  0  0
  -11.1689    6.3981   65.7320 F   0  0  0  0  0  0  0  0  0  0  0  0
  -12.2303    7.2403   67.4728 F   0  0  0  0  0  0  0  0  0  0  0  0
  -13.2459    5.8434   66.1318 F   0  0  0  0  0  0  0  0  0  0  0  0
  -14.2456   17.4452   69.3201 C   0  0  1  0  0  0  0  0  0  0  0  0
  -13.2769   17.9084   70.4477 C   0  0  0  0  0  0  0  0  0  0  0  0
  -14.0278   19.2585   70.4584 C   0  0  1  0  0  0  0  0  0  0  0  0
  -13.2349   20.4361   70.6835 O   0  0  0  0  0  0  0  0  0  0  0  0
  -14.4196   18.9597   68.9944 C   0  0  0  0  0  0  0  0  0  0  0  0
  -12.4632   20.3561   70.0978 H   0  0  0  0  0  0  0  0  0  0  0  0
  -15.2553   14.5682   70.5942 C   0  0  0  0  0  0  0  0  0  0  0  0
  -14.4463   15.2888   72.7893 C   0  0  0  0  0  0  0  0  0  0  0  0
  -15.2476   16.2137   72.8647 O   0  0  0  0  0  0  0  0  0  0  0  0
  -14.3846   14.4277   71.7372 N   0  0  0  0  0  0  0  0  0  0  0  0
  -13.7648   13.6272   71.7230 H   0  0  0  0  0  0  0  0  0  0  0  0
  -12.4147   15.7582   74.1992 C   0  0  0  0  0  0  0  0  0  0  0  0
  -13.5004   15.0311   73.9040 C   0  0  0  0  0  0  0  0  0  0  0  0
  -12.0255   16.2137   65.3454 H   0  0  0  0  0  0  0  0  0  0  0  0
  -12.8091   17.8379   66.8837 H   0  0  0  0  0  0  0  0  0  0  0  0
  -11.4007   12.0381   66.7487 H   0  0  0  0  0  0  0  0  0  0  0  0
  -10.9785    9.8992   65.6857 H   0  0  0  0  0  0  0  0  0  0  0  0
  -14.9543    8.7645   66.3847 H   0  0  0  0  0  0  0  0  0  0  0  0
  -15.3851   10.8951   67.4475 H   0  0  0  0  0  0  0  0  0  0  0  0
  -15.0922   16.8150   69.4964 H   0  0  0  0  0  0  0  0  0  0  0  0
  -12.2501   17.9727   70.1536 H   0  0  0  0  0  0  0  0  0  0  0  0
  -13.1431   17.3352   71.3412 H   0  0  0  0  0  0  0  0  0  0  0  0
  -14.7599   19.4901   71.2036 H   0  0  0  0  0  0  0  0  0  0  0  0
  -13.7358   19.3394   68.2642 H   0  0  0  0  0  0  0  0  0  0  0  0
  -15.3237   19.3407   68.5674 H   0  0  0  0  0  0  0  0  0  0  0  0
  -15.5872   15.5830   70.5247 H   0  0  0  0  0  0  0  0  0  0  0  0
  -16.0965   13.9176   70.7124 H   0  0  0  0  0  0  0  0  0  0  0  0
  -11.8188   15.4942   74.9993 H   0  0  0  0  0  0  0  0  0  0  0  0
  -12.1742   16.5824   73.6265 H   0  0  0  0  0  0  0  0  0  0  0  0
  -13.6973   14.2170   74.5069 H   0  0  0  0  0  0  0  0  0  0  0  0
  1  2  2  0
  2  3  1  0
  3 10  1  0
  3  4  1  0
  4  5  2  0
  5  6  1  0
  6  7  2  0
  6 34  1  0
  7  8  1  0
  7 35  1  0
  8 21  1  0
  8  9  2  0
  9  1  1  0
  9  4  1  0
 10 11  2  0
 11 12  1  0
 11 36  1  0
 12 13  2  0
 12 37  1  0
 13 16  1  0
 13 14  1  0
 14 15  2  0
 14 38  1  0
 15 10  1  0
 15 39  1  0
 16 17  1  0
 17 18  1  0
 17 19  1  0
 17 20  1  0
 21 22  1  0
 21 40  1  1
 22 23  1  0
 22 41  1  0
 22 42  1  0
 23 24  1  0
 23 25  1  0
 23 43  1  1
 24 26  1  0
 25 21  1  0
 25 44  1  0
 25 45  1  0
 27  1  1  0
 27 46  1  0
 27 47  1  0
 28 29  2  0
 28 30  1  0
 30 27  1  0
 30 31  1  0
 32 33  2  0
 32 48  1  0
 32 49  1  0
 33 28  1  0
 33 50  1  0
M  END
>  <minimizedAffinity>  (2) 
-7.22929

>  <mol_id>  (2) 
30720

>  <source_index>  (2) 
1

>  <layer>  (2) 
L3

>  <uniprot>  (2) 
P28347

>  <paff>  (2) 
6.7446999999999999

>  <smiles>  (2) 
C=CC(=O)NCc1nn(-c2ccc(OC(F)(F)F)cc2)c2nccc([C@H]3C[C@@H](O)C3)c12

$$$$
L3:P28347:52030
     RDKit          3D

 43 46  0  0  0  0  0  0  0  0999 V2000
  -13.5555    8.3169   66.0614 C   0  0  0  0  0  0  0  0  0  0  0  0
  -13.0778    6.9282   66.3981 C   0  0  0  0  0  0  0  0  0  0  0  0
  -11.7653    6.5409   66.0870 C   0  0  0  0  0  0  0  0  0  0  0  0
  -11.3192    5.2494   66.3734 C   0  0  0  0  0  0  0  0  0  0  0  0
  -12.1917    4.3274   66.9539 C   0  0  0  0  0  0  0  0  0  0  0  0
  -13.4933    4.7050   67.2821 C   0  0  0  0  0  0  0  0  0  0  0  0
  -13.9393    5.9969   66.9958 C   0  0  0  0  0  0  0  0  0  0  0  0
  -11.8088    3.0497   67.2933 O   0  0  0  0  0  0  0  0  0  0  0  0
  -11.8265    2.0981   66.2988 C   0  0  0  0  0  0  0  0  0  0  0  0
  -11.2637    0.8575   66.5996 C   0  0  0  0  0  0  0  0  0  0  0  0
  -11.2789   -0.1623   65.6476 C   0  0  0  0  0  0  0  0  0  0  0  0
  -11.8704    0.0551   64.4026 C   0  0  0  0  0  0  0  0  0  0  0  0
  -12.4538    1.2888   64.1108 C   0  0  0  0  0  0  0  0  0  0  0  0
  -12.4401    2.3104   65.0615 C   0  0  0  0  0  0  0  0  0  0  0  0
  -13.8875   11.0584   66.4705 O   0  0  0  0  0  0  0  0  0  0  0  0
  -12.7422   10.6164   66.4642 C   0  0  0  0  0  0  0  0  0  0  0  0
  -12.4939    9.2777   66.2557 N   0  0  0  0  0  0  0  0  0  0  0  0
  -11.5564    8.9168   66.3319 H   0  0  0  0  0  0  0  0  0  0  0  0
  -11.5707   11.4333   66.6788 C   0  0  0  0  0  0  0  0  0  0  0  0
  -11.3948   12.5586   67.4685 C   0  0  0  0  0  0  0  0  0  0  0  0
  -10.1194   13.0469   67.4045 N   0  0  0  0  0  0  0  0  0  0  0  0
   -9.4860   12.2364   66.5877 C   0  0  0  0  0  0  0  0  0  0  0  0
   -8.1335   12.2446   66.1417 C   0  0  0  0  0  0  0  0  0  0  0  0
   -7.7022   11.2983   65.2873 C   0  0  0  0  0  0  0  0  0  0  0  0
   -8.5913   10.2575   64.8028 C   0  0  0  0  0  0  0  0  0  0  0  0
   -9.8686   10.2429   65.2200 C   0  0  0  0  0  0  0  0  0  0  0  0
  -10.3205   11.2238   66.1103 N   0  0  0  0  0  0  0  0  0  0  0  0
  -13.8711    8.3426   65.0393 H   0  0  0  0  0  0  0  0  0  0  0  0
  -14.3720    8.5680   66.7058 H   0  0  0  0  0  0  0  0  0  0  0  0
  -11.1243    7.2167   65.6426 H   0  0  0  0  0  0  0  0  0  0  0  0
  -10.3476    4.9773   66.1566 H   0  0  0  0  0  0  0  0  0  0  0  0
  -14.1272    4.0294   67.7368 H   0  0  0  0  0  0  0  0  0  0  0  0
  -14.9083    6.2679   67.2253 H   0  0  0  0  0  0  0  0  0  0  0  0
  -10.8368    0.6944   67.5249 H   0  0  0  0  0  0  0  0  0  0  0  0
  -10.8529   -1.0770   65.8641 H   0  0  0  0  0  0  0  0  0  0  0  0
  -11.8764   -0.6976   63.6966 H   0  0  0  0  0  0  0  0  0  0  0  0
  -12.8956    1.4458   63.1915 H   0  0  0  0  0  0  0  0  0  0  0  0
  -12.8815    3.2193   64.8515 H   0  0  0  0  0  0  0  0  0  0  0  0
  -12.1428   12.9807   68.0407 H   0  0  0  0  0  0  0  0  0  0  0  0
   -7.4847   12.9755   66.4733 H   0  0  0  0  0  0  0  0  0  0  0  0
   -6.7202   11.3127   64.9703 H   0  0  0  0  0  0  0  0  0  0  0  0
   -8.2470    9.5389   64.1470 H   0  0  0  0  0  0  0  0  0  0  0  0
  -10.5143    9.5108   64.8850 H   0  0  0  0  0  0  0  0  0  0  0  0
  1  2  1  0
  1 28  1  0
  1 29  1  0
  2  3  2  0
  3  4  1  0
  3 30  1  0
  4  5  2  0
  4 31  1  0
  5  8  1  0
  5  6  1  0
  6  7  2  0
  6 32  1  0
  7  2  1  0
  7 33  1  0
  8  9  1  0
  9 10  2  0
 10 11  1  0
 10 34  1  0
 11 12  2  0
 11 35  1  0
 12 13  1  0
 12 36  1  0
 13 14  2  0
 13 37  1  0
 14  9  1  0
 14 38  1  0
 15 16  2  0
 16 17  1  0
 16 19  1  0
 17  1  1  0
 17 18  1  0
 19 20  2  0
 20 21  1  0
 20 39  1  0
 21 22  2  0
 22 23  1  0
 23 24  2  0
 23 40  1  0
 24 25  1  0
 24 41  1  0
 25 26  2  0
 25 42  1  0
 26 27  1  0
 26 43  1  0
 27 19  1  0
 27 22  1  0
M  END
>  <minimizedAffinity>  (3) 
-10.16104

>  <mol_id>  (3) 
52030

>  <source_index>  (3) 
2

>  <layer>  (3) 
L3

>  <uniprot>  (3) 
P28347

>  <paff>  (3) 
7.2218

>  <smiles>  (3) 
c1ccc(cc1)Oc2ccc(cc2)CNC(=O)c3cnc4n3cccc4

$$$$
L3:P28347:64839
     RDKit          3D

109117  0  0  0  0  0  0  0  0999 V2000
  -11.2001   21.9496   72.9865 C   0  0  0  0  0  0  0  0  0  0  0  0
  -10.5685   22.6886   74.0106 C   0  0  0  0  0  0  0  0  0  0  0  0
   -9.2719   23.7857   73.6667 Cl  0  0  0  0  0  0  0  0  0  0  0  0
  -10.9595   22.5562   75.3559 C   0  0  0  0  0  0  0  0  0  0  0  0
  -11.9773   21.6729   75.7124 C   0  0  0  0  0  0  0  0  0  0  0  0
  -12.5899   20.9537   74.7077 C   0  0  0  0  0  0  0  0  0  0  0  0
  -12.2329   21.0922   73.3777 C   0  0  0  0  0  0  0  0  0  0  0  0
  -13.0847   20.2029   72.5462 C   0  0  0  0  0  0  0  0  0  0  0  0
  -13.9835   19.5321   73.6223 C   0  0  2  0  0  0  0  0  0  0  0  0
  -13.5869   20.0474   74.9389 O   0  0  0  0  0  0  0  0  0  0  0  0
  -11.0051   23.1115   69.3831 C   0  0  0  0  0  0  0  0  0  0  0  0
  -10.0183   22.2793   68.8597 C   0  0  0  0  0  0  0  0  0  0  0  0
   -9.4035   21.3288   69.6790 C   0  0  0  0  0  0  0  0  0  0  0  0
   -9.7708   21.2023   71.0299 C   0  0  0  0  0  0  0  0  0  0  0  0
  -10.7714   22.0207   71.5804 C   0  0  0  0  0  0  0  0  0  0  0  0
  -11.3657   22.9720   70.7317 C   0  0  0  0  0  0  0  0  0  0  0  0
  -12.3109   23.7879   71.2318 F   0  0  0  0  0  0  0  0  0  0  0  0
   -9.0869   20.1694   71.8433 C   0  0  0  0  0  0  0  0  0  0  0  0
   -9.6153   18.9105   71.7758 N   0  0  0  0  0  0  0  0  0  0  0  0
   -8.1129   20.4214   72.5357 O   0  0  0  0  0  0  0  0  0  0  0  0
   -9.1567   18.1840   72.3103 H   0  0  0  0  0  0  0  0  0  0  0  0
  -10.3800   18.6527   71.1694 H   0  0  0  0  0  0  0  0  0  0  0  0
  -11.6707   24.0869   68.6920 O   0  0  0  0  0  0  0  0  0  0  0  0
  -12.4127   23.6919   67.5398 C   0  0  0  0  0  0  0  0  0  0  0  0
  -13.8761   23.5126   67.9424 C   0  0  0  0  0  0  0  0  0  0  0  0
  -13.4710   21.2481   67.3567 C   0  0  0  0  0  0  0  0  0  0  0  0
  -14.1907   22.1429   68.1950 O   0  0  0  0  0  0  0  0  0  0  0  0
  -13.8313   18.0034   73.5872 C   0  0  0  0  0  0  0  0  0  0  0  0
  -12.6171   17.3908   73.2352 C   0  0  0  0  0  0  0  0  0  0  0  0
  -12.4950   15.9993   73.2098 C   0  0  0  0  0  0  0  0  0  0  0  0
  -13.5834   15.1950   73.5357 C   0  0  0  0  0  0  0  0  0  0  0  0
  -14.7962   15.7805   73.8867 C   0  0  0  0  0  0  0  0  0  0  0  0
  -14.9201   17.1714   73.9124 C   0  0  0  0  0  0  0  0  0  0  0  0
  -15.4978   19.9006   73.4601 C   0  0  0  0  0  0  0  0  0  0  0  0
  -15.9087   20.0649   72.0507 N   0  0  0  0  0  0  0  0  0  0  0  0
  -16.2383   21.0265   71.9541 H   0  0  0  0  0  0  0  0  0  0  0  0
  -16.9831   19.1467   71.6903 C   0  0  0  0  0  0  0  0  0  0  0  0
  -16.8466   18.4932   70.2935 C   0  0  0  0  0  0  0  0  0  0  0  0
  -15.3911   18.3064   69.8213 C   0  0  0  0  0  0  0  0  0  0  0  0
  -14.7145   17.0096   70.2654 C   0  0  0  0  0  0  0  0  0  0  0  0
  -15.6053   15.8000   69.9630 C   0  0  0  0  0  0  0  0  0  0  0  0
  -16.9807   15.9419   70.6112 C   0  0  0  0  0  0  0  0  0  0  0  0
  -17.6752   17.2087   70.1209 C   0  0  0  0  0  0  0  0  0  0  0  0
  -15.5939   15.3310   68.4842 C   0  0  0  0  0  0  0  0  0  0  0  0
  -14.6495   14.3365   68.8708 N   0  0  0  0  0  0  0  0  0  0  0  0
  -14.9205   14.4435   70.2680 C   0  0  0  0  0  0  0  0  0  0  0  0
  -13.9529   13.3730   68.1324 C   0  0  0  0  0  0  0  0  0  0  0  0
  -12.6657   13.6611   67.6112 C   0  0  0  0  0  0  0  0  0  0  0  0
  -11.9404   12.7231   66.8651 C   0  0  0  0  0  0  0  0  0  0  0  0
  -12.5342   11.4982   66.6540 C   0  0  0  0  0  0  0  0  0  0  0  0
  -13.7855   11.2018   67.1550 C   0  0  0  0  0  0  0  0  0  0  0  0
  -14.5183   12.1120   67.8926 C   0  0  0  0  0  0  0  0  0  0  0  0
  -14.1074    9.8354   66.7536 C   0  0  0  0  0  0  0  0  0  0  0  0
  -15.1486    9.2693   67.0235 O   0  0  0  0  0  0  0  0  0  0  0  0
  -13.0429    9.3737   66.0307 N   0  0  0  0  0  0  0  0  0  0  0  0
  -12.0553   10.3181   65.9383 C   0  0  0  0  0  0  0  0  0  0  0  0
  -10.9640   10.2351   65.4086 O   0  0  0  0  0  0  0  0  0  0  0  0
  -12.9374    8.0508   65.4309 C   0  0  1  0  0  0  0  0  0  0  0  0
  -12.0746    7.0553   66.2018 C   0  0  0  0  0  0  0  0  0  0  0  0
  -12.8208    6.3161   67.2969 C   0  0  0  0  0  0  0  0  0  0  0  0
  -14.1339    5.7528   66.8142 C   0  0  0  0  0  0  0  0  0  0  0  0
  -14.6488    4.7629   67.3283 O   0  0  0  0  0  0  0  0  0  0  0  0
  -14.7584    6.4156   65.7894 N   0  0  0  0  0  0  0  0  0  0  0  0
  -14.3336    7.5273   65.1043 C   0  0  0  0  0  0  0  0  0  0  0  0
  -15.0861    8.0966   64.3143 O   0  0  0  0  0  0  0  0  0  0  0  0
  -15.6761    6.0708   65.5441 H   0  0  0  0  0  0  0  0  0  0  0  0
  -10.4895   23.1169   76.0837 H   0  0  0  0  0  0  0  0  0  0  0  0
  -12.2635   21.5606   76.6975 H   0  0  0  0  0  0  0  0  0  0  0  0
  -12.4971   19.4785   72.0219 H   0  0  0  0  0  0  0  0  0  0  0  0
  -13.6308   20.7148   71.7816 H   0  0  0  0  0  0  0  0  0  0  0  0
   -9.7419   22.3645   67.8691 H   0  0  0  0  0  0  0  0  0  0  0  0
   -8.6726   20.7137   69.2884 H   0  0  0  0  0  0  0  0  0  0  0  0
  -12.3360   24.4465   66.7851 H   0  0  0  0  0  0  0  0  0  0  0  0
  -12.0245   22.7736   67.1512 H   0  0  0  0  0  0  0  0  0  0  0  0
  -14.0637   24.0807   68.8295 H   0  0  0  0  0  0  0  0  0  0  0  0
  -14.4885   23.8516   67.1331 H   0  0  0  0  0  0  0  0  0  0  0  0
  -13.7465   20.2409   67.5903 H   0  0  0  0  0  0  0  0  0  0  0  0
  -12.4208   21.3767   67.5161 H   0  0  0  0  0  0  0  0  0  0  0  0
  -13.7041   21.4532   66.3327 H   0  0  0  0  0  0  0  0  0  0  0  0
  -11.8035   17.9772   72.9918 H   0  0  0  0  0  0  0  0  0  0  0  0
  -11.5953   15.5664   72.9487 H   0  0  0  0  0  0  0  0  0  0  0  0
  -13.4912   14.1673   73.5171 H   0  0  0  0  0  0  0  0  0  0  0  0
  -15.6047   15.1864   74.1282 H   0  0  0  0  0  0  0  0  0  0  0  0
  -15.8236   17.5961   74.1738 H   0  0  0  0  0  0  0  0  0  0  0  0
  -15.6816   20.8191   73.9773 H   0  0  0  0  0  0  0  0  0  0  0  0
  -16.0675   19.0905   73.8652 H   0  0  0  0  0  0  0  0  0  0  0  0
  -17.9050   19.6894   71.7138 H   0  0  0  0  0  0  0  0  0  0  0  0
  -16.9419   18.3464   72.3993 H   0  0  0  0  0  0  0  0  0  0  0  0
  -17.2779   19.2190   69.6361 H   0  0  0  0  0  0  0  0  0  0  0  0
  -14.8147   19.1248   70.1993 H   0  0  0  0  0  0  0  0  0  0  0  0
  -15.4329   18.2640   68.7530 H   0  0  0  0  0  0  0  0  0  0  0  0
  -14.5283   17.0537   71.3182 H   0  0  0  0  0  0  0  0  0  0  0  0
  -13.7951   16.9012   69.7289 H   0  0  0  0  0  0  0  0  0  0  0  0
  -16.8655   15.9924   71.6738 H   0  0  0  0  0  0  0  0  0  0  0  0
  -17.5777   15.0950   70.3444 H   0  0  0  0  0  0  0  0  0  0  0  0
  -18.5881   17.3231   70.6672 H   0  0  0  0  0  0  0  0  0  0  0  0
  -17.8319   17.0845   69.0697 H   0  0  0  0  0  0  0  0  0  0  0  0
  -15.2208   16.0544   67.7897 H   0  0  0  0  0  0  0  0  0  0  0  0
  -16.4962   15.0790   67.9672 H   0  0  0  0  0  0  0  0  0  0  0  0
  -14.0506   14.5121   70.8872 H   0  0  0  0  0  0  0  0  0  0  0  0
  -15.4245   13.6669   70.8044 H   0  0  0  0  0  0  0  0  0  0  0  0
  -12.2509   14.5896   67.7869 H   0  0  0  0  0  0  0  0  0  0  0  0
  -11.0035   12.9400   66.4905 H   0  0  0  0  0  0  0  0  0  0  0  0
  -15.4536   11.8711   68.2562 H   0  0  0  0  0  0  0  0  0  0  0  0
  -12.3899    8.1635   64.5185 H   0  0  0  0  0  0  0  0  0  0  0  0
  -11.2618    7.5888   66.6486 H   0  0  0  0  0  0  0  0  0  0  0  0
  -11.7448    6.3194   65.4985 H   0  0  0  0  0  0  0  0  0  0  0  0
  -13.0125    6.9950   68.1015 H   0  0  0  0  0  0  0  0  0  0  0  0
  -12.2098    5.4970   67.6142 H   0  0  0  0  0  0  0  0  0  0  0  0
  1  2  2  0
  2  3  1  0
  2  4  1  0
  4  5  2  0
  4 67  1  0
  5  6  1  0
  5 68  1  0
  6  7  2  0
  7  8  1  0
  7  1  1  0
  8  9  1  0
  8 69  1  0
  8 70  1  0
  9 34  1  6
  9 28  1  0
  9 10  1  0
 10  6  1  0
 11 12  2  0
 12 13  1  0
 12 71  1  0
 13 14  2  0
 13 72  1  0
 14 18  1  0
 14 15  1  0
 15  1  1  0
 15 16  2  0
 16 17  1  0
 16 11  1  0
 18 19  1  0
 18 20  2  0
 19 21  1  0
 19 22  1  0
 23 11  1  0
 24 23  1  0
 24 73  1  0
 24 74  1  0
 25 24  1  0
 25 75  1  0
 25 76  1  0
 26 27  1  0
 26 77  1  0
 26 78  1  0
 26 79  1  0
 27 25  1  0
 28 29  2  0
 29 30  1  0
 29 80  1  0
 30 31  2  0
 30 81  1  0
 31 32  1  0
 31 82  1  0
 32 33  2  0
 32 83  1  0
 33 28  1  0
 33 84  1  0
 34 35  1  0
 34 85  1  0
 34 86  1  0
 35 37  1  0
 35 36  1  0
 37 38  1  0
 37 87  1  0
 37 88  1  0
 38 39  1  0
 38 89  1  0
 39 40  1  0
 39 90  1  0
 39 91  1  0
 40 92  1  0
 40 93  1  0
 41 40  1  0
 41 42  1  0
 41 44  1  0
 42 43  1  0
 42 94  1  0
 42 95  1  0
 43 38  1  0
 43 96  1  0
 43 97  1  0
 44 45  1  0
 44 98  1  0
 44 99  1  0
 45 47  1  0
 45 46  1  0
 46 41  1  0
 46100  1  0
 46101  1  0
 47 48  2  0
 48 49  1  0
 48102  1  0
 49 50  2  0
 49103  1  0
 50 51  1  0
 51 52  2  0
 51 53  1  0
 52 47  1  0
 52104  1  0
 53 54  2  0
 53 55  1  0
 55 58  1  0
 55 56  1  0
 56 57  2  0
 56 50  1  0
 58 59  1  0
 58105  1  6
 59 60  1  0
 59106  1  0
 59107  1  0
 60 61  1  0
 60108  1  0
 60109  1  0
 61 62  2  0
 61 63  1  0
 63 64  1  0
 63 66  1  0
 64 65  2  0
 64 58  1  0
M  END
>  <minimizedAffinity>  (4) 
-7.15939

>  <mol_id>  (4) 
64839

>  <source_index>  (4) 
3

>  <layer>  (4) 
L3

>  <uniprot>  (4) 
P28347

>  <paff>  (4) 
6.4248000000000003

>  <smiles>  (4) 
COCCOc1ccc(C(N)=O)c(-c2c(Cl)ccc3c2C[C@@](CNCC2CCC4(CC2)CN(c2ccc5c(c2)C(=O)N(C2CCC(=O)NC2=O)C5=O)C4)(c2ccccc2)O3)c1F

$$$$
L3:P28347:76968
     RDKit          3D

 46 48  0  0  0  0  0  0  0  0999 V2000
  -13.2449    7.5601   66.5515 C   0  0  0  0  0  0  0  0  0  0  0  0
  -13.4139    6.3199   67.0271 N   0  0  0  0  0  0  0  0  0  0  0  0
  -12.3590    5.6012   66.5437 N   0  0  0  0  0  0  0  0  0  0  0  0
  -11.5005    6.4046   65.7962 C   0  0  0  0  0  0  0  0  0  0  0  0
  -10.3483    6.0305   65.1932 N   0  0  0  0  0  0  0  0  0  0  0  0
   -9.7128    7.0286   64.5552 C   0  0  0  0  0  0  0  0  0  0  0  0
  -10.1483    8.3398   64.4898 C   0  0  0  0  0  0  0  0  0  0  0  0
  -11.3534    8.7188   65.1071 C   0  0  0  0  0  0  0  0  0  0  0  0
  -12.0501    7.6878   65.7904 C   0  0  0  0  0  0  0  0  0  0  0  0
  -12.2667    4.2069   66.8540 C   0  0  0  0  0  0  0  0  0  0  0  0
  -11.2342    3.3989   66.3655 C   0  0  0  0  0  0  0  0  0  0  0  0
  -11.1759    2.0346   66.6910 C   0  0  0  0  0  0  0  0  0  0  0  0
  -12.1475    1.4582   67.5075 C   0  0  0  0  0  0  0  0  0  0  0  0
  -13.1800    2.2611   67.9954 C   0  0  0  0  0  0  0  0  0  0  0  0
  -13.2433    3.6210   67.6746 C   0  0  0  0  0  0  0  0  0  0  0  0
  -12.2117    0.1530   67.9006 O   0  0  0  0  0  0  0  0  0  0  0  0
  -12.5848   -0.8113   66.9319 C   0  0  0  0  0  0  0  0  0  0  0  0
  -13.0924   -1.9185   67.5144 F   0  0  0  0  0  0  0  0  0  0  0  0
  -13.4842   -0.3061   66.0607 F   0  0  0  0  0  0  0  0  0  0  0  0
  -11.4843   -1.1723   66.2348 F   0  0  0  0  0  0  0  0  0  0  0  0
  -11.8030   10.1588   65.0734 C   0  0  0  0  0  0  0  0  0  0  0  0
  -11.6238   10.8014   66.3311 O   0  0  0  0  0  0  0  0  0  0  0  0
  -11.9535   11.7094   66.2132 H   0  0  0  0  0  0  0  0  0  0  0  0
  -14.2645    8.5969   66.8964 C   0  0  0  0  0  0  0  0  0  0  0  0
  -16.6064    8.4654   66.1422 C   0  0  0  0  0  0  0  0  0  0  0  0
  -17.0586    8.3068   67.2688 O   0  0  0  0  0  0  0  0  0  0  0  0
  -15.2759    8.6061   65.8627 N   0  0  0  0  0  0  0  0  0  0  0  0
  -14.9484    8.7203   64.9130 H   0  0  0  0  0  0  0  0  0  0  0  0
  -18.9292    9.7868   63.3539 C   0  0  0  0  0  0  0  0  0  0  0  0
  -18.0554    9.6536   64.5570 C   0  0  0  0  0  0  0  0  0  0  0  0
  -17.4603    8.5095   64.9279 C   0  0  0  0  0  0  0  0  0  0  0  0
   -8.8287    6.7979   64.0755 H   0  0  0  0  0  0  0  0  0  0  0  0
   -9.5861    9.0432   63.9856 H   0  0  0  0  0  0  0  0  0  0  0  0
  -10.5075    3.8104   65.7592 H   0  0  0  0  0  0  0  0  0  0  0  0
  -10.4069    1.4533   66.3225 H   0  0  0  0  0  0  0  0  0  0  0  0
  -13.9057    1.8460   68.6004 H   0  0  0  0  0  0  0  0  0  0  0  0
  -14.0145    4.1985   68.0443 H   0  0  0  0  0  0  0  0  0  0  0  0
  -12.8404   10.1911   64.8133 H   0  0  0  0  0  0  0  0  0  0  0  0
  -11.2072   10.6750   64.3499 H   0  0  0  0  0  0  0  0  0  0  0  0
  -14.7135    8.3623   67.8389 H   0  0  0  0  0  0  0  0  0  0  0  0
  -13.8011    9.5589   66.9651 H   0  0  0  0  0  0  0  0  0  0  0  0
  -19.2798   10.7948   63.2776 H   0  0  0  0  0  0  0  0  0  0  0  0
  -19.7647    9.1245   63.4448 H   0  0  0  0  0  0  0  0  0  0  0  0
  -18.3694    9.5365   62.4770 H   0  0  0  0  0  0  0  0  0  0  0  0
  -17.8997   10.4919   65.1384 H   0  0  0  0  0  0  0  0  0  0  0  0
  -17.5969    7.6549   64.3658 H   0  0  0  0  0  0  0  0  0  0  0  0
  1  2  2  0
  2  3  1  0
  3 10  1  0
  3  4  1  0
  4  5  2  0
  5  6  1  0
  6  7  2  0
  6 32  1  0
  7  8  1  0
  7 33  1  0
  8 21  1  0
  8  9  2  0
  9  1  1  0
  9  4  1  0
 10 11  2  0
 11 12  1  0
 11 34  1  0
 12 13  2  0
 12 35  1  0
 13 16  1  0
 13 14  1  0
 14 15  2  0
 14 36  1  0
 15 10  1  0
 15 37  1  0
 16 17  1  0
 17 18  1  0
 17 19  1  0
 17 20  1  0
 21 22  1  0
 21 38  1  0
 21 39  1  0
 22 23  1  0
 24  1  1  0
 24 40  1  0
 24 41  1  0
 25 26  2  0
 25 27  1  0
 27 24  1  0
 27 28  1  0
 29 30  1  0
 29 42  1  0
 29 43  1  0
 29 44  1  0
 30 31  2  0
 30 45  1  0
 31 25  1  0
 31 46  1  0
M  END
>  <minimizedAffinity>  (5) 
-9.28079

>  <mol_id>  (5) 
76968

>  <source_index>  (5) 
4

>  <layer>  (5) 
L3

>  <uniprot>  (5) 
P28347

>  <paff>  (5) 
6.0457999999999998

>  <smiles>  (5) 
C\C=C\C(=O)NCc1nn(-c2ccc(OC(F)(F)F)cc2)c2nccc(CO)c12

$$$$
L3:P28347:101735
     RDKit          3D

 64 68  0  0  0  0  0  0  0  0999 V2000
  -14.7042   14.6887   68.7831 C   0  0  0  0  0  0  0  0  0  0  0  0
  -14.7916   13.4006   68.4515 N   0  0  0  0  0  0  0  0  0  0  0  0
  -13.7049   13.1595   67.6627 N   0  0  0  0  0  0  0  0  0  0  0  0
  -12.9432   14.3156   67.4906 C   0  0  0  0  0  0  0  0  0  0  0  0
  -11.7969   14.4480   66.7802 N   0  0  0  0  0  0  0  0  0  0  0  0
  -11.2735   15.6884   66.7852 C   0  0  0  0  0  0  0  0  0  0  0  0
  -11.8128   16.7815   67.4344 C   0  0  0  0  0  0  0  0  0  0  0  0
  -12.9991   16.6139   68.1505 C   0  0  0  0  0  0  0  0  0  0  0  0
  -13.5890   15.3331   68.1970 C   0  0  0  0  0  0  0  0  0  0  0  0
  -19.1094   15.8652   70.0430 C   0  0  0  0  0  0  0  0  0  0  0  0
  -19.6199   16.9028   69.6222 O   0  0  0  0  0  0  0  0  0  0  0  0
  -17.8049   15.5517   69.8117 N   0  0  0  0  0  0  0  0  0  0  0  0
  -16.9252   14.4563   70.1558 C   0  0  0  0  0  0  0  0  0  0  0  0
  -15.7626   15.3666   69.7118 C   0  0  0  0  0  0  0  0  0  0  0  0
  -16.8159   16.2486   69.0099 C   0  0  0  0  0  0  0  0  0  0  0  0
  -20.5157   13.8331   70.2864 C   0  0  0  0  0  0  0  0  0  0  0  0
  -19.9042   14.8843   70.8395 C   0  0  0  0  0  0  0  0  0  0  0  0
  -19.9843   15.0780   72.1714 F   0  0  0  0  0  0  0  0  0  0  0  0
  -13.4956   11.8421   67.1461 C   0  0  0  0  0  0  0  0  0  0  0  0
  -14.5224   10.8945   67.0765 C   0  0  0  0  0  0  0  0  0  0  0  0
  -14.2791    9.6108   66.5630 C   0  0  0  0  0  0  0  0  0  0  0  0
  -13.0084    9.2561   66.1125 C   0  0  0  0  0  0  0  0  0  0  0  0
  -11.9818   10.1996   66.1809 C   0  0  0  0  0  0  0  0  0  0  0  0
  -12.2178   11.4800   66.6915 C   0  0  0  0  0  0  0  0  0  0  0  0
  -12.6353    8.0506   65.5931 O   0  0  0  0  0  0  0  0  0  0  0  0
  -12.5544    6.9466   66.4772 C   0  0  0  0  0  0  0  0  0  0  0  0
  -13.7140    6.2554   66.5037 F   0  0  0  0  0  0  0  0  0  0  0  0
  -12.2375    7.3444   67.7282 F   0  0  0  0  0  0  0  0  0  0  0  0
  -11.5811    6.1147   66.0436 F   0  0  0  0  0  0  0  0  0  0  0  0
  -13.5938   17.7375   68.8229 C   0  0  0  0  0  0  0  0  0  0  0  0
  -14.3921   18.7891   68.3273 C   0  0  0  0  0  0  0  0  0  0  0  0
  -14.7929   19.6198   69.2931 N   0  0  0  0  0  0  0  0  0  0  0  0
  -14.2843   19.0749   70.4158 N   0  0  0  0  0  0  0  0  0  0  0  0
  -13.5698   17.9329   70.1862 C   0  0  0  0  0  0  0  0  0  0  0  0
  -14.5212   19.7110   71.7004 C   0  0  0  0  0  0  0  0  0  0  0  0
  -15.2278   18.7622   72.6748 C   0  0  0  0  0  0  0  0  0  0  0  0
  -16.4477   18.1427   72.1121 N   0  0  0  0  0  0  0  0  0  0  0  0
  -17.5115   19.1470   72.0055 C   0  0  0  0  0  0  0  0  0  0  0  0
  -16.9151   17.0226   72.9345 C   0  0  0  0  0  0  0  0  0  0  0  0
  -10.3969   15.8344   66.2606 H   0  0  0  0  0  0  0  0  0  0  0  0
  -11.3488   17.7023   67.3910 H   0  0  0  0  0  0  0  0  0  0  0  0
  -17.0551   13.5735   69.5653 H   0  0  0  0  0  0  0  0  0  0  0  0
  -16.9470   13.9895   71.1184 H   0  0  0  0  0  0  0  0  0  0  0  0
  -15.0660   15.7816   70.4100 H   0  0  0  0  0  0  0  0  0  0  0  0
  -16.9017   16.0933   67.9547 H   0  0  0  0  0  0  0  0  0  0  0  0
  -16.7456   17.3161   68.9910 H   0  0  0  0  0  0  0  0  0  0  0  0
  -21.0548   13.1804   70.8766 H   0  0  0  0  0  0  0  0  0  0  0  0
  -20.4489   13.6738   69.2690 H   0  0  0  0  0  0  0  0  0  0  0  0
  -15.4686   11.1417   67.4061 H   0  0  0  0  0  0  0  0  0  0  0  0
  -15.0477    8.9236   66.5186 H   0  0  0  0  0  0  0  0  0  0  0  0
  -11.0368    9.9491   65.8505 H   0  0  0  0  0  0  0  0  0  0  0  0
  -11.4464   12.1641   66.7344 H   0  0  0  0  0  0  0  0  0  0  0  0
  -14.6385   18.9037   67.3317 H   0  0  0  0  0  0  0  0  0  0  0  0
  -13.1065   17.3380   70.8908 H   0  0  0  0  0  0  0  0  0  0  0  0
  -15.1329   20.5763   71.5524 H   0  0  0  0  0  0  0  0  0  0  0  0
  -13.5751   19.9810   72.1211 H   0  0  0  0  0  0  0  0  0  0  0  0
  -15.5009   19.3156   73.5489 H   0  0  0  0  0  0  0  0  0  0  0  0
  -14.5440   17.9692   72.8949 H   0  0  0  0  0  0  0  0  0  0  0  0
  -17.1711   19.9648   71.4054 H   0  0  0  0  0  0  0  0  0  0  0  0
  -17.7654   19.5027   72.9822 H   0  0  0  0  0  0  0  0  0  0  0  0
  -18.3741   18.7060   71.5512 H   0  0  0  0  0  0  0  0  0  0  0  0
  -16.1396   16.2896   73.0127 H   0  0  0  0  0  0  0  0  0  0  0  0
  -17.7778   16.5820   72.4800 H   0  0  0  0  0  0  0  0  0  0  0  0
  -17.1691   17.3787   73.9110 H   0  0  0  0  0  0  0  0  0  0  0  0
  1  2  2  0
  2  3  1  0
  3 19  1  0
  3  4  1  0
  4  5  2  0
  5  6  1  0
  6  7  2  0
  6 40  1  0
  7  8  1  0
  7 41  1  0
  8 30  1  0
  8  9  2  0
  9  1  1  0
  9  4  1  0
 10 11  2  0
 10 12  1  0
 12 13  1  0
 13 14  1  0
 13 42  1  0
 13 43  1  0
 14  1  1  0
 14 15  1  0
 14 44  1  0
 15 12  1  0
 15 45  1  0
 15 46  1  0
 16 17  2  0
 16 47  1  0
 16 48  1  0
 17 18  1  0
 17 10  1  0
 19 20  2  0
 20 21  1  0
 20 49  1  0
 21 22  2  0
 21 50  1  0
 22 25  1  0
 22 23  1  0
 23 24  2  0
 23 51  1  0
 24 19  1  0
 24 52  1  0
 25 26  1  0
 26 27  1  0
 26 28  1  0
 26 29  1  0
 30 31  1  0
 31 32  2  0
 31 53  1  0
 32 33  1  0
 33 35  1  0
 33 34  1  0
 34 30  2  0
 34 54  1  0
 35 36  1  0
 35 55  1  0
 35 56  1  0
 36 37  1  0
 36 57  1  0
 36 58  1  0
 37 38  1  0
 37 39  1  0
 38 59  1  0
 38 60  1  0
 38 61  1  0
 39 62  1  0
 39 63  1  0
 39 64  1  0
M  END
>  <minimizedAffinity>  (6) 
-6.80953

>  <mol_id>  (6) 
101735

>  <source_index>  (6) 
5

>  <layer>  (6) 
L3

>  <uniprot>  (6) 
P28347

>  <paff>  (6) 
6.6021000000000001

>  <smiles>  (6) 
CN(C)CCn1cc(cn1)-c1ccnc2n(nc(C3CN(C3)C(=O)C(F)=C)c12)-c1ccc(OC(F)(F)F)cc1

$$$$
L3:P28347:107616
     RDKit          3D

 46 48  0  0  0  0  0  0  0  0999 V2000
  -14.2592    6.4918   66.7818 C   0  0  0  0  0  0  0  0  0  0  0  0
  -14.3005    5.1659   66.9628 N   0  0  0  0  0  0  0  0  0  0  0  0
  -13.0820    4.7051   66.5657 N   0  0  0  0  0  0  0  0  0  0  0  0
  -12.2766    5.7447   66.1063 C   0  0  0  0  0  0  0  0  0  0  0  0
  -11.0176    5.6408   65.6226 N   0  0  0  0  0  0  0  0  0  0  0  0
  -10.4813    6.8022   65.2191 C   0  0  0  0  0  0  0  0  0  0  0  0
  -11.1099    8.0306   65.2863 C   0  0  0  0  0  0  0  0  0  0  0  0
  -12.4144    8.1407   65.8098 C   0  0  0  0  0  0  0  0  0  0  0  0
  -13.0177    6.9240   66.2313 C   0  0  0  0  0  0  0  0  0  0  0  0
  -12.8046    3.3034   66.6575 C   0  0  0  0  0  0  0  0  0  0  0  0
  -12.9009    2.6674   67.9079 C   0  0  0  0  0  0  0  0  0  0  0  0
  -12.6371    1.2999   68.0378 C   0  0  0  0  0  0  0  0  0  0  0  0
  -12.2647    0.5374   66.9236 C   0  0  0  0  0  0  0  0  0  0  0  0
  -12.1772    1.1700   65.6760 C   0  0  0  0  0  0  0  0  0  0  0  0
  -12.4405    2.5396   65.5428 C   0  0  0  0  0  0  0  0  0  0  0  0
  -12.0021   -0.9425   67.0566 C   0  0  0  0  0  0  0  0  0  0  0  0
  -11.3715   -1.2534   68.2224 F   0  0  0  0  0  0  0  0  0  0  0  0
  -11.2134   -1.4371   66.0615 F   0  0  0  0  0  0  0  0  0  0  0  0
  -13.1394   -1.6926   67.0346 F   0  0  0  0  0  0  0  0  0  0  0  0
  -13.0695    9.5105   65.8442 C   0  0  1  0  0  0  0  0  0  0  0  0
  -13.8940    9.6264   67.0163 O   0  0  0  0  0  0  0  0  0  0  0  0
  -14.4577    8.8331   67.0373 H   0  0  0  0  0  0  0  0  0  0  0  0
  -12.0551   10.6677   65.8490 C   0  0  0  0  0  0  0  0  0  0  0  0
  -12.6032   11.8221   66.4966 O   0  0  0  0  0  0  0  0  0  0  0  0
  -13.4925   11.9195   66.1009 H   0  0  0  0  0  0  0  0  0  0  0  0
  -15.4830    7.2758   67.1311 C   0  0  0  0  0  0  0  0  0  0  0  0
  -17.2059    8.4910   65.8577 C   0  0  0  0  0  0  0  0  0  0  0  0
  -17.9982    8.5370   66.7911 O   0  0  0  0  0  0  0  0  0  0  0  0
  -15.9801    7.9000   65.9260 N   0  0  0  0  0  0  0  0  0  0  0  0
  -15.3895    7.8392   65.1084 H   0  0  0  0  0  0  0  0  0  0  0  0
  -18.6976    9.7528   64.2828 C   0  0  0  0  0  0  0  0  0  0  0  0
  -17.5710    9.0769   64.5447 C   0  0  0  0  0  0  0  0  0  0  0  0
   -9.5263    6.7761   64.8287 H   0  0  0  0  0  0  0  0  0  0  0  0
  -10.6205    8.8748   64.9505 H   0  0  0  0  0  0  0  0  0  0  0  0
  -13.1694    3.2161   68.7397 H   0  0  0  0  0  0  0  0  0  0  0  0
  -12.7176    0.8490   68.9626 H   0  0  0  0  0  0  0  0  0  0  0  0
  -11.9151    0.6191   64.8436 H   0  0  0  0  0  0  0  0  0  0  0  0
  -12.3654    2.9882   64.6164 H   0  0  0  0  0  0  0  0  0  0  0  0
  -13.6509    9.5885   64.9494 H   0  0  0  0  0  0  0  0  0  0  0  0
  -11.8037   10.9180   64.8395 H   0  0  0  0  0  0  0  0  0  0  0  0
  -11.1823   10.3564   66.3840 H   0  0  0  0  0  0  0  0  0  0  0  0
  -16.2284    6.6227   67.5345 H   0  0  0  0  0  0  0  0  0  0  0  0
  -15.2480    8.0205   67.8626 H   0  0  0  0  0  0  0  0  0  0  0  0
  -18.8672   10.1257   63.3356 H   0  0  0  0  0  0  0  0  0  0  0  0
  -19.3958    9.9005   65.0282 H   0  0  0  0  0  0  0  0  0  0  0  0
  -16.9018    8.9536   63.7688 H   0  0  0  0  0  0  0  0  0  0  0  0
  1  2  2  0
  2  3  1  0
  3 10  1  0
  3  4  1  0
  4  5  2  0
  5  6  1  0
  6  7  2  0
  6 33  1  0
  7  8  1  0
  7 34  1  0
  8 20  1  0
  8  9  2  0
  9  1  1  0
  9  4  1  0
 10 11  2  0
 11 12  1  0
 11 35  1  0
 12 13  2  0
 12 36  1  0
 13 16  1  0
 13 14  1  0
 14 15  2  0
 14 37  1  0
 15 10  1  0
 15 38  1  0
 16 17  1  0
 16 18  1  0
 16 19  1  0
 20 21  1  0
 20 23  1  0
 20 39  1  6
 21 22  1  0
 23 24  1  0
 23 40  1  0
 23 41  1  0
 24 25  1  0
 26  1  1  0
 26 42  1  0
 26 43  1  0
 27 28  2  0
 27 29  1  0
 29 26  1  0
 29 30  1  0
 31 32  2  0
 31 44  1  0
 31 45  1  0
 32 27  1  0
 32 46  1  0
M  END
>  <minimizedAffinity>  (7) 
-8.98018

>  <mol_id>  (7) 
107616

>  <source_index>  (7) 
6

>  <layer>  (7) 
L3

>  <uniprot>  (7) 
P28347

>  <paff>  (7) 
7.0968999999999998

>  <smiles>  (7) 
OC[C@H](O)c1ccnc2n(nc(CNC(=O)C=C)c12)-c1ccc(cc1)C(F)(F)F |r|

$$$$
L3:P28347:138257
     RDKit          3D

 55 58  0  0  0  0  0  0  0  0999 V2000
  -12.6470   10.5570   66.1749 C   0  0  0  0  0  0  0  0  0  0  0  0
  -13.6619   11.1694   66.7859 N   0  0  0  0  0  0  0  0  0  0  0  0
  -13.1244   12.2744   67.3611 N   0  0  0  0  0  0  0  0  0  0  0  0
  -11.7591   12.3617   67.0970 C   0  0  0  0  0  0  0  0  0  0  0  0
  -10.9243   13.3379   67.5221 N   0  0  0  0  0  0  0  0  0  0  0  0
   -9.6567   13.2028   67.1195 C   0  0  0  0  0  0  0  0  0  0  0  0
   -9.1860   12.1655   66.3396 C   0  0  0  0  0  0  0  0  0  0  0  0
  -10.0514   11.1347   65.9039 C   0  0  0  0  0  0  0  0  0  0  0  0
  -11.4121   11.2529   66.3100 C   0  0  0  0  0  0  0  0  0  0  0  0
  -13.9723   13.1476   68.1151 C   0  0  0  0  0  0  0  0  0  0  0  0
  -14.7548   14.1383   67.5125 C   0  0  0  0  0  0  0  0  0  0  0  0
  -15.5735   14.9757   68.2870 C   0  0  0  0  0  0  0  0  0  0  0  0
  -15.6222   14.8356   69.6732 C   0  0  0  0  0  0  0  0  0  0  0  0
  -14.8429   13.8481   70.2779 C   0  0  0  0  0  0  0  0  0  0  0  0
  -14.0257   13.0110   69.5115 C   0  0  0  0  0  0  0  0  0  0  0  0
  -16.3695   15.5774   70.5412 O   0  0  0  0  0  0  0  0  0  0  0  0
  -17.7726   15.3811   70.5398 C   0  0  0  0  0  0  0  0  0  0  0  0
  -18.2641   15.7617   71.7402 F   0  0  0  0  0  0  0  0  0  0  0  0
  -18.0842   14.0805   70.3540 F   0  0  0  0  0  0  0  0  0  0  0  0
  -18.3700   16.1291   69.5874 F   0  0  0  0  0  0  0  0  0  0  0  0
  -13.2167    7.4384   66.5951 N   0  0  0  0  0  0  0  0  0  0  0  0
  -14.1091    8.3779   65.8531 C   0  0  0  0  0  0  0  0  0  0  0  0
  -12.8906    9.2171   65.4041 C   0  0  0  0  0  0  0  0  0  0  0  0
  -12.0417    8.0253   65.8926 C   0  0  0  0  0  0  0  0  0  0  0  0
  -13.4801    5.7750   66.7639 S   0  0  0  0  0  0  0  0  0  0  0  0
  -13.9130    5.5725   68.1332 O   0  0  0  0  0  0  0  0  0  0  0  0
  -14.3426    5.3804   65.6677 O   0  0  0  0  0  0  0  0  0  0  0  0
  -10.9547    5.7349   65.9017 C   0  0  0  0  0  0  0  0  0  0  0  0
  -11.9087    5.0352   66.5398 C   0  0  0  0  0  0  0  0  0  0  0  0
  -11.7288    3.6450   67.0493 C   0  0  0  0  0  0  0  0  0  0  0  0
   -9.4084   10.0673   65.0318 C   0  0  1  0  0  0  0  0  0  0  0  0
  -10.0594    9.9432   63.7721 O   0  0  0  0  0  0  0  0  0  0  0  0
  -10.9687    9.6508   63.9672 H   0  0  0  0  0  0  0  0  0  0  0  0
   -7.8917   10.2544   64.8423 C   0  0  0  0  0  0  0  0  0  0  0  0
   -7.1757    9.0329   64.9931 O   0  0  0  0  0  0  0  0  0  0  0  0
   -7.3762    8.7343   65.8999 H   0  0  0  0  0  0  0  0  0  0  0  0
   -8.9814   13.9260   67.4128 H   0  0  0  0  0  0  0  0  0  0  0  0
   -8.1899   12.1417   66.0709 H   0  0  0  0  0  0  0  0  0  0  0  0
  -14.7300   14.2549   66.4874 H   0  0  0  0  0  0  0  0  0  0  0  0
  -16.1443   15.7014   67.8260 H   0  0  0  0  0  0  0  0  0  0  0  0
  -14.8701   13.7343   71.3032 H   0  0  0  0  0  0  0  0  0  0  0  0
  -13.4568   12.2863   69.9765 H   0  0  0  0  0  0  0  0  0  0  0  0
  -14.7950    8.9098   66.4789 H   0  0  0  0  0  0  0  0  0  0  0  0
  -14.7951    7.9997   65.1242 H   0  0  0  0  0  0  0  0  0  0  0  0
  -12.8170    9.6284   64.4190 H   0  0  0  0  0  0  0  0  0  0  0  0
  -11.2415    8.3034   66.5463 H   0  0  0  0  0  0  0  0  0  0  0  0
  -11.4959    7.4360   65.1857 H   0  0  0  0  0  0  0  0  0  0  0  0
  -10.0205    5.3208   65.7573 H   0  0  0  0  0  0  0  0  0  0  0  0
  -11.1564    6.6862   65.5562 H   0  0  0  0  0  0  0  0  0  0  0  0
  -10.7301    3.3179   66.8482 H   0  0  0  0  0  0  0  0  0  0  0  0
  -12.4227    2.9934   66.5606 H   0  0  0  0  0  0  0  0  0  0  0  0
  -11.9046    3.6264   68.1046 H   0  0  0  0  0  0  0  0  0  0  0  0
   -9.5386    9.1528   65.5718 H   0  0  0  0  0  0  0  0  0  0  0  0
   -7.5372   10.9537   65.5705 H   0  0  0  0  0  0  0  0  0  0  0  0
   -7.7267   10.6110   63.8470 H   0  0  0  0  0  0  0  0  0  0  0  0
  1  2  2  0
  2  3  1  0
  3 10  1  0
  3  4  1  0
  4  5  2  0
  5  6  1  0
  6  7  2  0
  6 37  1  0
  7  8  1  0
  7 38  1  0
  8 31  1  0
  8  9  2  0
  9  1  1  0
  9  4  1  0
 10 11  2  0
 11 12  1  0
 11 39  1  0
 12 13  2  0
 12 40  1  0
 13 16  1  0
 13 14  1  0
 14 15  2  0
 14 41  1  0
 15 10  1  0
 15 42  1  0
 16 17  1  0
 17 18  1  0
 17 19  1  0
 17 20  1  0
 21 22  1  0
 22 23  1  0
 22 43  1  0
 22 44  1  0
 23  1  1  0
 23 24  1  0
 23 45  1  0
 24 21  1  0
 24 46  1  0
 24 47  1  0
 25 26  2  0
 25 27  2  0
 25 21  1  0
 28 29  2  0
 28 48  1  0
 28 49  1  0
 29 30  1  0
 29 25  1  0
 30 50  1  0
 30 51  1  0
 30 52  1  0
 31 32  1  0
 31 34  1  0
 31 53  1  1
 32 33  1  0
 34 35  1  0
 34 54  1  0
 34 55  1  0
 35 36  1  0
M  END
>  <minimizedAffinity>  (8) 
-7.74772

>  <mol_id>  (8) 
138257

>  <source_index>  (8) 
7

>  <layer>  (8) 
L3

>  <uniprot>  (8) 
P28347

>  <paff>  (8) 
7.1192000000000002

>  <smiles>  (8) 
CC(=C)S(=O)(=O)N1CC(C1)c1nn(-c2ccc(OC(F)(F)F)cc2)c2nccc([C@@H](O)CO)c12 |r|

$$$$
L3:P28347:144852
     RDKit          3D

 47 49  0  0  0  0  0  0  0  0999 V2000
  -14.5247   14.2721   69.2466 C   0  0  0  0  0  0  0  0  0  0  0  0
  -14.4743   12.9857   68.8828 N   0  0  0  0  0  0  0  0  0  0  0  0
  -13.6620   12.9505   67.7872 N   0  0  0  0  0  0  0  0  0  0  0  0
  -13.2068   14.2253   67.4559 C   0  0  0  0  0  0  0  0  0  0  0  0
  -12.3723   14.5569   66.4441 N   0  0  0  0  0  0  0  0  0  0  0  0
  -12.1112   15.8719   66.3545 C   0  0  0  0  0  0  0  0  0  0  0  0
  -12.6294   16.8467   67.1876 C   0  0  0  0  0  0  0  0  0  0  0  0
  -13.5077   16.4985   68.2311 C   0  0  0  0  0  0  0  0  0  0  0  0
  -13.7796   15.1109   68.3711 C   0  0  0  0  0  0  0  0  0  0  0  0
  -13.3949   11.6927   67.1586 C   0  0  0  0  0  0  0  0  0  0  0  0
  -12.1395   11.3722   66.6306 C   0  0  0  0  0  0  0  0  0  0  0  0
  -11.9146   10.1281   66.0203 C   0  0  0  0  0  0  0  0  0  0  0  0
  -12.9392    9.1876   65.9288 C   0  0  0  0  0  0  0  0  0  0  0  0
  -14.1933    9.5045   66.4539 C   0  0  0  0  0  0  0  0  0  0  0  0
  -14.4235   10.7424   67.0628 C   0  0  0  0  0  0  0  0  0  0  0  0
  -12.8588    7.9474   65.3651 O   0  0  0  0  0  0  0  0  0  0  0  0
  -12.3765    6.8857   66.1699 C   0  0  0  0  0  0  0  0  0  0  0  0
  -13.2083    5.8230   66.1270 F   0  0  0  0  0  0  0  0  0  0  0  0
  -11.1731    6.4945   65.6943 F   0  0  0  0  0  0  0  0  0  0  0  0
  -12.2119    7.2792   67.4510 F   0  0  0  0  0  0  0  0  0  0  0  0
  -14.0915   17.5832   69.1177 C   0  0  2  0  0  0  0  0  0  0  0  0
  -14.4647   18.7217   68.3313 O   0  0  0  0  0  0  0  0  0  0  0  0
  -13.7344   19.3605   68.4572 H   0  0  0  0  0  0  0  0  0  0  0  0
  -13.1351   18.0308   70.2362 C   0  0  0  0  0  0  0  0  0  0  0  0
  -12.4787   16.8837   70.7919 O   0  0  0  0  0  0  0  0  0  0  0  0
  -11.9160   17.2101   71.5172 H   0  0  0  0  0  0  0  0  0  0  0  0
  -15.3150   14.6367   70.4600 C   0  0  0  0  0  0  0  0  0  0  0  0
  -14.7541   15.2470   72.7776 C   0  0  0  0  0  0  0  0  0  0  0  0
  -15.7766   15.9033   72.9425 O   0  0  0  0  0  0  0  0  0  0  0  0
  -14.4585   14.5777   71.6194 N   0  0  0  0  0  0  0  0  0  0  0  0
  -13.5812   14.0745   71.5412 H   0  0  0  0  0  0  0  0  0  0  0  0
  -13.9886   15.0117   75.1320 C   0  0  0  0  0  0  0  0  0  0  0  0
  -13.7113   15.0945   73.8293 C   0  0  0  0  0  0  0  0  0  0  0  0
  -12.4336   15.0424   73.3959 F   0  0  0  0  0  0  0  0  0  0  0  0
  -11.4729   16.1791   65.6040 H   0  0  0  0  0  0  0  0  0  0  0  0
  -12.3706   17.8353   67.0434 H   0  0  0  0  0  0  0  0  0  0  0  0
  -11.3705   12.0578   66.6904 H   0  0  0  0  0  0  0  0  0  0  0  0
  -10.9825    9.9080   65.6360 H   0  0  0  0  0  0  0  0  0  0  0  0
  -14.9602    8.8167   66.3920 H   0  0  0  0  0  0  0  0  0  0  0  0
  -15.3574   10.9589   67.4448 H   0  0  0  0  0  0  0  0  0  0  0  0
  -14.9530   17.1551   69.5862 H   0  0  0  0  0  0  0  0  0  0  0  0
  -13.6911   18.5295   71.0024 H   0  0  0  0  0  0  0  0  0  0  0  0
  -12.4036   18.6997   69.8332 H   0  0  0  0  0  0  0  0  0  0  0  0
  -15.7015   15.6285   70.3507 H   0  0  0  0  0  0  0  0  0  0  0  0
  -16.1282   13.9515   70.5786 H   0  0  0  0  0  0  0  0  0  0  0  0
  -13.2237   14.9066   75.8167 H   0  0  0  0  0  0  0  0  0  0  0  0
  -14.9680   15.0528   75.4547 H   0  0  0  0  0  0  0  0  0  0  0  0
  1  2  2  0
  2  3  1  0
  3 10  1  0
  3  4  1  0
  4  5  2  0
  5  6  1  0
  6  7  2  0
  6 35  1  0
  7  8  1  0
  7 36  1  0
  8 21  1  0
  8  9  2  0
  9  1  1  0
  9  4  1  0
 10 11  2  0
 11 12  1  0
 11 37  1  0
 12 13  2  0
 12 38  1  0
 13 16  1  0
 13 14  1  0
 14 15  2  0
 14 39  1  0
 15 10  1  0
 15 40  1  0
 16 17  1  0
 17 18  1  0
 17 19  1  0
 17 20  1  0
 21 22  1  0
 21 24  1  0
 21 41  1  1
 22 23  1  0
 24 25  1  0
 24 42  1  0
 24 43  1  0
 25 26  1  0
 27  1  1  0
 27 44  1  0
 27 45  1  0
 28 29  2  0
 28 30  1  0
 30 27  1  0
 30 31  1  0
 32 33  2  0
 32 46  1  0
 32 47  1  0
 33 34  1  0
 33 28  1  0
M  END
>  <minimizedAffinity>  (9) 
-7.11843

>  <mol_id>  (9) 
144852

>  <source_index>  (9) 
8

>  <layer>  (9) 
L3

>  <uniprot>  (9) 
P28347

>  <paff>  (9) 
6.4949000000000003

>  <smiles>  (9) 
OC[C@@H](O)c1ccnc2n(nc(CNC(=O)C(F)=C)c12)-c1ccc(OC(F)(F)F)cc1 |r|

$$$$
L3:P28347:145084
     RDKit          3D

 44 46  0  0  0  0  0  0  0  0999 V2000
  -14.3159   15.4555   68.9531 C   0  0  0  0  0  0  0  0  0  0  0  0
  -15.5900   15.8786   69.3563 C   0  0  0  0  0  0  0  0  0  0  0  0
  -16.4638   14.9754   69.9352 C   0  0  0  0  0  0  0  0  0  0  0  0
  -16.1066   13.6930   70.1191 N   0  0  0  0  0  0  0  0  0  0  0  0
  -14.8571   13.2693   69.7307 N   0  0  0  0  0  0  0  0  0  0  0  0
  -13.9600   14.1093   69.1616 C   0  0  0  0  0  0  0  0  0  0  0  0
  -11.5691   19.4801   67.9596 C   0  0  0  0  0  0  0  0  0  0  0  0
  -12.1853   18.1788   67.9114 N   0  0  0  0  0  0  0  0  0  0  0  0
  -11.9622   17.2259   66.9624 C   0  0  0  0  0  0  0  0  0  0  0  0
  -12.6760   16.1466   67.1936 N   0  0  0  0  0  0  0  0  0  0  0  0
  -13.3903   16.4107   68.3482 C   0  0  0  0  0  0  0  0  0  0  0  0
  -13.0942   17.6803   68.8027 C   0  0  0  0  0  0  0  0  0  0  0  0
  -18.0740   15.4672   70.4580 P   0  0  0  0  0  0  0  0  0  0  0  0
  -17.9227   16.3880   71.9939 C   0  0  0  0  0  0  0  0  0  0  0  0
  -18.6949   16.7019   69.3092 C   0  0  0  0  0  0  0  0  0  0  0  0
  -19.0860   14.3564   70.6198 O   0  0  0  0  0  0  0  0  0  0  0  0
  -12.6943   13.6368   68.7529 N   0  0  0  0  0  0  0  0  0  0  0  0
  -11.9502   14.0289   69.3358 H   0  0  0  0  0  0  0  0  0  0  0  0
  -12.2791   12.6848   67.8126 C   0  0  0  0  0  0  0  0  0  0  0  0
  -10.9627   12.5481   67.3648 C   0  0  0  0  0  0  0  0  0  0  0  0
  -10.6127   11.5723   66.4220 C   0  0  0  0  0  0  0  0  0  0  0  0
  -11.5757   10.6963   65.9066 C   0  0  0  0  0  0  0  0  0  0  0  0
  -12.8981   10.8274   66.3454 C   0  0  0  0  0  0  0  0  0  0  0  0
  -13.2387   11.8046   67.2872 C   0  0  0  0  0  0  0  0  0  0  0  0
  -11.2043    9.6613   64.8755 C   0  0  0  0  0  0  0  0  0  0  0  0
  -11.2205   10.1606   63.6086 F   0  0  0  0  0  0  0  0  0  0  0  0
   -9.9567    9.1440   65.0571 F   0  0  0  0  0  0  0  0  0  0  0  0
  -12.0488    8.5912   64.8643 F   0  0  0  0  0  0  0  0  0  0  0  0
  -15.8755   16.8611   69.2217 H   0  0  0  0  0  0  0  0  0  0  0  0
  -10.9013   19.5894   67.1307 H   0  0  0  0  0  0  0  0  0  0  0  0
  -11.0226   19.5823   68.8738 H   0  0  0  0  0  0  0  0  0  0  0  0
  -12.3257   20.2351   67.9100 H   0  0  0  0  0  0  0  0  0  0  0  0
  -11.3163   17.3375   66.1653 H   0  0  0  0  0  0  0  0  0  0  0  0
  -13.4771   18.1521   69.6369 H   0  0  0  0  0  0  0  0  0  0  0  0
  -17.2048   17.1718   71.8706 H   0  0  0  0  0  0  0  0  0  0  0  0
  -17.6017   15.7299   72.7742 H   0  0  0  0  0  0  0  0  0  0  0  0
  -18.8714   16.8105   72.2514 H   0  0  0  0  0  0  0  0  0  0  0  0
  -17.9724   17.4837   69.2010 H   0  0  0  0  0  0  0  0  0  0  0  0
  -19.6094   17.1109   69.6851 H   0  0  0  0  0  0  0  0  0  0  0  0
  -18.8726   16.2462   68.3575 H   0  0  0  0  0  0  0  0  0  0  0  0
  -10.2341   13.1779   67.7355 H   0  0  0  0  0  0  0  0  0  0  0  0
   -9.6337   11.4985   66.1038 H   0  0  0  0  0  0  0  0  0  0  0  0
  -13.6268   10.1993   65.9719 H   0  0  0  0  0  0  0  0  0  0  0  0
  -14.2182   11.8802   67.6031 H   0  0  0  0  0  0  0  0  0  0  0  0
  1  2  2  0
  2  3  1  0
  2 29  1  0
  3 13  1  0
  3  4  2  0
  4  5  1  0
  5  6  2  0
  6 17  1  0
  6  1  1  0
  7  8  1  0
  7 30  1  0
  7 31  1  0
  7 32  1  0
  8  9  1  0
  9 10  2  0
  9 33  1  0
 10 11  1  0
 11  1  1  0
 11 12  2  0
 12  8  1  0
 12 34  1  0
 13 14  1  0
 13 15  1  0
 13 16  2  0
 14 35  1  0
 14 36  1  0
 14 37  1  0
 15 38  1  0
 15 39  1  0
 15 40  1  0
 17 19  1  0
 17 18  1  0
 19 20  2  0
 20 21  1  0
 20 41  1  0
 21 22  2  0
 21 42  1  0
 22 25  1  0
 22 23  1  0
 23 24  2  0
 23 43  1  0
 24 19  1  0
 24 44  1  0
 25 26  1  0
 25 27  1  0
 25 28  1  0
M  END
>  <minimizedAffinity>  (10) 
-6.93591

>  <mol_id>  (10) 
145084

>  <source_index>  (10) 
9

>  <layer>  (10) 
L3

>  <uniprot>  (10) 
P28347

>  <paff>  (10) 
6.4089

>  <smiles>  (10) 
Cn1cnc(-c2cc(P(C)(C)=O)nnc2Nc2ccc(C(F)(F)F)cc2)c1

$$$$
