ptp1b_000
     RDKit          3D

 43 45  0  0  1  0  0  0  0  0999 V2000
   43.5405   13.8362   16.8177 S   0  0  0  0  0  0  0  0  0  0  0  0
   43.5736   15.2385   15.7940 C   0  0  0  0  0  0  0  0  0  0  0  0
   42.8360   15.0275   14.6454 C   0  0  0  0  0  0  0  0  0  0  0  0
   42.1742   13.7764   14.6639 C   0  0  0  0  0  0  0  0  0  0  0  0
   42.4793   12.9681   15.7316 C   0  0  0  0  0  0  0  0  0  0  0  0
   44.2925   16.4351   16.2998 C   0  0  0  0  0  0  0  0  0  0  0  0
   44.7079   16.4094   17.4798 O   0  0  0  0  0  0  0  0  0  0  0  0
   44.3996   17.3904   15.4721 O   0  0  0  0  0  0  0  0  0  0  0  0
   42.1182   11.5927   16.0413 C   0  0  0  0  0  0  0  0  0  0  0  0
   40.8431   11.1107   15.7574 C   0  0  0  0  0  0  0  0  0  0  0  0
   40.4839    9.7865   16.0293 C   0  0  0  0  0  0  0  0  0  0  0  0
   41.4347    8.9401   16.6086 C   0  0  0  0  0  0  0  0  0  0  0  0
   42.6955    9.4236   16.9198 C   0  0  0  0  0  0  0  0  0  0  0  0
   43.0492   10.7352   16.6442 C   0  0  0  0  0  0  0  0  0  0  0  0
   40.9555   13.3496   13.2542 Br  0  0  0  0  0  0  0  0  0  0  0  0
   42.7208   15.8684   13.5721 O   0  0  0  0  0  0  0  0  0  0  0  0
   41.6586   16.8171   13.7942 C   0  0  0  0  0  0  0  0  0  0  0  0
   40.9886   17.3819   12.5355 C   0  0  0  0  0  0  0  0  0  0  0  0
   39.8097   17.7846   12.7183 O   0  0  0  0  0  0  0  0  0  0  0  0
   41.6453   17.4367   11.4606 O   0  0  0  0  0  0  0  0  0  0  0  0
   39.1811    9.3776   15.7558 N   0  0  0  0  0  0  0  0  0  0  0  0
   38.8812    8.0010   15.3796 C   0  0  0  0  0  0  0  0  0  0  0  0
   37.3872    7.8888   15.1069 C   0  0  0  0  0  0  0  0  0  0  0  0
   37.0165    6.5208   14.5659 C   0  0  0  0  0  0  0  0  0  0  0  0
   37.7491    6.1884   13.3965 O   0  0  0  0  0  0  0  0  0  0  0  0
   39.1553    6.1576   13.6903 C   0  0  0  0  0  0  0  0  0  0  0  0
   39.6431    7.5122   14.1535 C   0  0  0  0  0  0  0  0  0  0  0  0
   40.1289   11.7813   15.3068 H   0  0  0  0  0  0  0  0  0  0  0  0
   41.2036    7.9039   16.8089 H   0  0  0  0  0  0  0  0  0  0  0  0
   43.4198    8.7574   17.3779 H   0  0  0  0  0  0  0  0  0  0  0  0
   44.0421   11.0977   16.8729 H   0  0  0  0  0  0  0  0  0  0  0  0
   42.0905   17.6274   14.3739 H   0  0  0  0  0  0  0  0  0  0  0  0
   40.8855   16.3509   14.4017 H   0  0  0  0  0  0  0  0  0  0  0  0
   38.7188   10.0370   15.1394 H   0  0  0  0  0  0  0  0  0  0  0  0
   39.1335    7.3500   16.2227 H   0  0  0  0  0  0  0  0  0  0  0  0
   37.1048    8.6466   14.3740 H   0  0  0  0  0  0  0  0  0  0  0  0
   36.8228    8.0898   16.0226 H   0  0  0  0  0  0  0  0  0  0  0  0
   35.9592    6.4861   14.2957 H   0  0  0  0  0  0  0  0  0  0  0  0
   37.1914    5.7602   15.3400 H   0  0  0  0  0  0  0  0  0  0  0  0
   39.6647    5.8544   12.7817 H   0  0  0  0  0  0  0  0  0  0  0  0
   39.3609    5.4004   14.4558 H   0  0  0  0  0  0  0  0  0  0  0  0
   40.7050    7.4742   14.3721 H   0  0  0  0  0  0  0  0  0  0  0  0
   39.5040    8.2317   13.3473 H   0  0  0  0  0  0  0  0  0  0  0  0
  1  2  1  0
  1  5  1  0
  2  3  2  0
  2  6  1  0
  3  4  1  0
  3 16  1  0
  4  5  2  0
  4 15  1  0
  5  9  1  0
  6  7  2  0
  6  8  1  0
  9 10  2  0
  9 14  1  0
 10 11  1  0
 10 28  1  0
 11 12  2  0
 11 21  1  0
 12 13  1  0
 12 29  1  0
 13 14  2  0
 13 30  1  0
 14 31  1  0
 16 17  1  0
 17 18  1  0
 17 32  1  0
 17 33  1  0
 18 19  1  0
 18 20  2  0
 21 22  1  0
 21 34  1  0
 22 23  1  0
 22 27  1  0
 22 35  1  0
 23 24  1  0
 23 36  1  0
 23 37  1  0
 24 25  1  0
 24 38  1  0
 24 39  1  0
 25 26  1  0
 26 27  1  0
 26 40  1  0
 26 41  1  0
 27 42  1  0
 27 43  1  0
M  CHG  2   8  -1  19  -1
M  END
>  <r_exp_dg>  (1) 
-8.85

>  <mol_id>  (1) 
0

>  <source_index>  (1) 
0

>  <paff>  (1) 
6.4882700743912949

>  <source_r_exp_dg>  (1) 
-8.8499999999999996

>  <smiles>  (1) 
O=C(O)COc1c(C(=O)O)sc(-c2cccc(NC3CCOCC3)c2)c1Br

>  <aimnet_interaction_kcal_mol>  (1) 
-325.00294785505241

$$$$
ptp1b_001
     RDKit          3D

 60 63  0  0  1  0  0  0  0  0999 V2000
   43.5624   13.8914   16.7563 S   0  0  0  0  0  0  0  0  0  0  0  0
   43.5052   15.2577   15.6747 C   0  0  0  0  0  0  0  0  0  0  0  0
   42.7805   14.9440   14.5371 C   0  0  0  0  0  0  0  0  0  0  0  0
   42.1911   13.6589   14.5912 C   0  0  0  0  0  0  0  0  0  0  0  0
   42.5438   12.9382   15.7072 C   0  0  0  0  0  0  0  0  0  0  0  0
   44.1787   16.4968   16.1443 C   0  0  0  0  0  0  0  0  0  0  0  0
   44.5592   16.5235   17.3411 O   0  0  0  0  0  0  0  0  0  0  0  0
   44.3189   17.4398   15.3036 O   0  0  0  0  0  0  0  0  0  0  0  0
   42.1774   11.5719   16.0489 C   0  0  0  0  0  0  0  0  0  0  0  0
   40.9605   11.0602   15.6052 C   0  0  0  0  0  0  0  0  0  0  0  0
   40.5609    9.7569   15.9115 C   0  0  0  0  0  0  0  0  0  0  0  0
   41.4602    8.9211   16.5815 C   0  0  0  0  0  0  0  0  0  0  0  0
   42.6679    9.4297   17.0327 C   0  0  0  0  0  0  0  0  0  0  0  0
   43.0270   10.7473   16.7961 C   0  0  0  0  0  0  0  0  0  0  0  0
   42.6262   15.7276   13.4162 O   0  0  0  0  0  0  0  0  0  0  0  0
   41.8286   16.9069   13.6785 C   0  0  0  0  0  0  0  0  0  0  0  0
   40.9803   17.3450   12.4781 C   0  0  0  0  0  0  0  0  0  0  0  0
   39.7849   17.6529   12.7276 O   0  0  0  0  0  0  0  0  0  0  0  0
   41.5553   17.4088   11.3532 O   0  0  0  0  0  0  0  0  0  0  0  0
   39.2653    9.3640   15.6074 N   0  0  0  0  0  0  0  0  0  0  0  0
   38.8994    7.9938   15.3113 C   0  0  0  0  0  0  0  0  0  0  0  0
   37.3833    7.9589   15.1506 C   0  0  0  0  0  0  0  0  0  0  0  0
   36.8735    6.6023   14.7090 C   0  0  0  0  0  0  0  0  0  0  0  0
   37.5479    6.2328   13.4715 N   0  0  0  0  0  0  0  0  0  0  0  0
   38.9975    6.0862   13.6441 C   0  0  0  0  0  0  0  0  0  0  0  0
   39.5715    7.4280   14.0606 C   0  0  0  0  0  0  0  0  0  0  0  0
   36.7366    5.1761   12.4504 S   0  0  0  0  0  0  0  0  0  0  0  0
   37.5554    4.9749   11.2387 O   0  0  0  0  0  0  0  0  0  0  0  0
   35.3741    5.7603   12.3021 O   0  0  0  0  0  0  0  0  0  0  0  0
   36.6431    3.5923   13.3462 C   0  0  0  0  0  0  0  0  0  0  0  0
   36.1248    2.5234   12.4521 C   0  0  0  0  0  0  0  0  0  0  0  0
   37.0084    1.6759   11.7886 C   0  0  0  0  0  0  0  0  0  0  0  0
   36.5306    0.6898   10.9396 C   0  0  0  0  0  0  0  0  0  0  0  0
   35.1626    0.5691   10.7346 C   0  0  0  0  0  0  0  0  0  0  0  0
   34.2776    1.4019   11.4009 C   0  0  0  0  0  0  0  0  0  0  0  0
   34.7560    2.3837   12.2498 C   0  0  0  0  0  0  0  0  0  0  0  0
   40.3077   11.7100   15.0335 H   0  0  0  0  0  0  0  0  0  0  0  0
   41.2257    7.8800   16.7482 H   0  0  0  0  0  0  0  0  0  0  0  0
   43.3433    8.7806   17.5811 H   0  0  0  0  0  0  0  0  0  0  0  0
   43.9619   11.1393   17.1718 H   0  0  0  0  0  0  0  0  0  0  0  0
   42.5252   17.6903   13.9694 H   0  0  0  0  0  0  0  0  0  0  0  0
   41.1726   16.7146   14.5253 H   0  0  0  0  0  0  0  0  0  0  0  0
   38.7882   10.0361   15.0179 H   0  0  0  0  0  0  0  0  0  0  0  0
   39.1783    7.3612   16.1601 H   0  0  0  0  0  0  0  0  0  0  0  0
   37.0968    8.7013   14.4052 H   0  0  0  0  0  0  0  0  0  0  0  0
   36.9062    8.2390   16.0935 H   0  0  0  0  0  0  0  0  0  0  0  0
   35.8063    6.6302   14.5276 H   0  0  0  0  0  0  0  0  0  0  0  0
   37.0560    5.8619   15.5007 H   0  0  0  0  0  0  0  0  0  0  0  0
   39.4392    5.7577   12.7118 H   0  0  0  0  0  0  0  0  0  0  0  0
   39.2300    5.3246   14.3963 H   0  0  0  0  0  0  0  0  0  0  0  0
   40.6397    7.3342   14.2298 H   0  0  0  0  0  0  0  0  0  0  0  0
   39.4359    8.1353   13.2456 H   0  0  0  0  0  0  0  0  0  0  0  0
   36.0040    3.7896   14.2039 H   0  0  0  0  0  0  0  0  0  0  0  0
   37.6560    3.3916   13.6854 H   0  0  0  0  0  0  0  0  0  0  0  0
   38.0758    1.7868   11.9385 H   0  0  0  0  0  0  0  0  0  0  0  0
   37.2162    0.0126   10.4457 H   0  0  0  0  0  0  0  0  0  0  0  0
   34.7757   -0.1639   10.0410 H   0  0  0  0  0  0  0  0  0  0  0  0
   33.2147    1.3032   11.2422 H   0  0  0  0  0  0  0  0  0  0  0  0
   34.0619    3.0506   12.7475 H   0  0  0  0  0  0  0  0  0  0  0  0
   41.5346   13.2850   13.8219 H   0  0  0  0  0  0  0  0  0  0  0  0
  1  2  1  0
  1  5  1  0
  2  3  2  0
  2  6  1  0
  3  4  1  0
  3 15  1  0
  4  5  2  0
  4 60  1  0
  5  9  1  0
  6  7  2  0
  6  8  1  0
  9 10  2  0
  9 14  1  0
 10 11  1  0
 10 37  1  0
 11 12  2  0
 11 20  1  0
 12 13  1  0
 12 38  1  0
 13 14  2  0
 13 39  1  0
 14 40  1  0
 15 16  1  0
 16 17  1  0
 16 41  1  0
 16 42  1  0
 17 18  1  0
 17 19  2  0
 20 21  1  0
 20 43  1  0
 21 22  1  0
 21 26  1  0
 21 44  1  0
 22 23  1  0
 22 45  1  0
 22 46  1  0
 23 24  1  0
 23 47  1  0
 23 48  1  0
 24 25  1  0
 24 27  1  0
 25 26  1  0
 25 49  1  0
 25 50  1  0
 26 51  1  0
 26 52  1  0
 27 28  2  0
 27 29  2  0
 27 30  1  0
 30 31  1  0
 30 53  1  0
 30 54  1  0
 31 32  2  0
 31 36  1  0
 32 33  1  0
 32 55  1  0
 33 34  2  0
 33 56  1  0
 34 35  1  0
 34 57  1  0
 35 36  2  0
 35 58  1  0
 36 59  1  0
M  CHG  2   8  -1  18  -1
M  END
>  <r_exp_dg>  (2) 
-7.75

>  <mol_id>  (2) 
1

>  <source_index>  (2) 
1

>  <paff>  (2) 
5.6818181818181817

>  <source_r_exp_dg>  (2) 
-7.75

>  <smiles>  (2) 
O=C(O)COc1cc(-c2cccc(NC3CCN(S(=O)(=O)Cc4ccccc4)CC3)c2)sc1C(=O)O

>  <aimnet_interaction_kcal_mol>  (2) 
-347.23200488361988

$$$$
ptp1b_002
     RDKit          3D

 31 32  0  0  1  0  0  0  0  0999 V2000
   43.5452   13.9096   16.8196 S   0  0  0  0  0  0  0  0  0  0  0  0
   43.5609   15.2787   15.7541 C   0  0  0  0  0  0  0  0  0  0  0  0
   42.8179   15.0273   14.6177 C   0  0  0  0  0  0  0  0  0  0  0  0
   42.1740   13.7673   14.6718 C   0  0  0  0  0  0  0  0  0  0  0  0
   42.5004   12.9921   15.7569 C   0  0  0  0  0  0  0  0  0  0  0  0
   44.2775   16.4915   16.2250 C   0  0  0  0  0  0  0  0  0  0  0  0
   44.6999   16.4920   17.4041 O   0  0  0  0  0  0  0  0  0  0  0  0
   44.3752   17.4304   15.3805 O   0  0  0  0  0  0  0  0  0  0  0  0
   42.2120   11.6047   16.0922 C   0  0  0  0  0  0  0  0  0  0  0  0
   40.9899   11.0077   15.7808 C   0  0  0  0  0  0  0  0  0  0  0  0
   40.7664    9.6673   16.0864 C   0  0  0  0  0  0  0  0  0  0  0  0
   41.7343    8.9271   16.7563 C   0  0  0  0  0  0  0  0  0  0  0  0
   42.9418    9.5272   17.0832 C   0  0  0  0  0  0  0  0  0  0  0  0
   43.1893   10.8440   16.7516 C   0  0  0  0  0  0  0  0  0  0  0  0
   40.9453   13.2896   13.2945 Br  0  0  0  0  0  0  0  0  0  0  0  0
   42.6747   15.8452   13.5301 O   0  0  0  0  0  0  0  0  0  0  0  0
   41.5754   16.7497   13.7504 C   0  0  0  0  0  0  0  0  0  0  0  0
   40.9440   17.3673   12.4998 C   0  0  0  0  0  0  0  0  0  0  0  0
   39.7762   17.8002   12.6823 O   0  0  0  0  0  0  0  0  0  0  0  0
   41.6142   17.4277   11.4340 O   0  0  0  0  0  0  0  0  0  0  0  0
   39.5650    9.1476   15.6997 O   0  0  0  0  0  0  0  0  0  0  0  0
   39.4453    7.7317   15.7098 C   0  0  0  0  0  0  0  0  0  0  0  0
   40.2099   11.5721   15.2944 H   0  0  0  0  0  0  0  0  0  0  0  0
   41.5649    7.8961   17.0157 H   0  0  0  0  0  0  0  0  0  0  0  0
   43.6957    8.9424   17.6008 H   0  0  0  0  0  0  0  0  0  0  0  0
   44.1446   11.2907   16.9842 H   0  0  0  0  0  0  0  0  0  0  0  0
   41.9503   17.5374   14.3974 H   0  0  0  0  0  0  0  0  0  0  0  0
   40.7923   16.2236   14.2933 H   0  0  0  0  0  0  0  0  0  0  0  0
   40.2545    7.2504   15.1581 H   0  0  0  0  0  0  0  0  0  0  0  0
   39.4301    7.3363   16.7283 H   0  0  0  0  0  0  0  0  0  0  0  0
   38.4969    7.5088   15.2309 H   0  0  0  0  0  0  0  0  0  0  0  0
  1  2  1  0
  1  5  1  0
  2  3  2  0
  2  6  1  0
  3  4  1  0
  3 16  1  0
  4  5  2  0
  4 15  1  0
  5  9  1  0
  6  7  2  0
  6  8  1  0
  9 10  2  0
  9 14  1  0
 10 11  1  0
 10 23  1  0
 11 12  2  0
 11 21  1  0
 12 13  1  0
 12 24  1  0
 13 14  2  0
 13 25  1  0
 14 26  1  0
 16 17  1  0
 17 18  1  0
 17 27  1  0
 17 28  1  0
 18 19  1  0
 18 20  2  0
 21 22  1  0
 22 29  1  0
 22 30  1  0
 22 31  1  0
M  CHG  2   8  -1  19  -1
M  END
>  <r_exp_dg>  (3) 
-7.34

>  <mol_id>  (3) 
2

>  <source_index>  (3) 
2

>  <paff>  (3) 
5.3812317834222068

>  <source_r_exp_dg>  (3) 
-7.3399999999999999

>  <smiles>  (3) 
COc1cccc(-c2sc(C(=O)O)c(OCC(=O)O)c2Br)c1

>  <aimnet_interaction_kcal_mol>  (3) 
-315.93501771078093

$$$$
ptp1b_003
     RDKit          3D

 60 63  0  0  1  0  0  0  0  0999 V2000
   43.5123   13.8316   16.8022 S   0  0  0  0  0  0  0  0  0  0  0  0
   43.5360   15.2458   15.7952 C   0  0  0  0  0  0  0  0  0  0  0  0
   42.8134   15.0393   14.6353 C   0  0  0  0  0  0  0  0  0  0  0  0
   42.1679   13.7799   14.6346 C   0  0  0  0  0  0  0  0  0  0  0  0
   42.4716   12.9623   15.6969 C   0  0  0  0  0  0  0  0  0  0  0  0
   44.2682   16.4313   16.3024 C   0  0  0  0  0  0  0  0  0  0  0  0
   44.6724   16.4056   17.4871 O   0  0  0  0  0  0  0  0  0  0  0  0
   44.4087   17.3837   15.4733 O   0  0  0  0  0  0  0  0  0  0  0  0
   42.1211   11.5792   15.9872 C   0  0  0  0  0  0  0  0  0  0  0  0
   40.8692   11.0724   15.6496 C   0  0  0  0  0  0  0  0  0  0  0  0
   40.5160    9.7474   15.9244 C   0  0  0  0  0  0  0  0  0  0  0  0
   41.4565    8.9119   16.5311 C   0  0  0  0  0  0  0  0  0  0  0  0
   42.6955    9.4181   16.8926 C   0  0  0  0  0  0  0  0  0  0  0  0
   43.0384   10.7347   16.6310 C   0  0  0  0  0  0  0  0  0  0  0  0
   40.9779   13.3512   13.2026 Br  0  0  0  0  0  0  0  0  0  0  0  0
   42.7312   15.8690   13.5533 O   0  0  0  0  0  0  0  0  0  0  0  0
   41.8994   17.0300   13.7909 C   0  0  0  0  0  0  0  0  0  0  0  0
   41.0490   17.4223   12.5734 C   0  0  0  0  0  0  0  0  0  0  0  0
   39.8531   17.7345   12.8107 O   0  0  0  0  0  0  0  0  0  0  0  0
   41.6220   17.4491   11.4475 O   0  0  0  0  0  0  0  0  0  0  0  0
   39.2185    9.3412   15.6387 N   0  0  0  0  0  0  0  0  0  0  0  0
   38.8662    7.9720   15.3175 C   0  0  0  0  0  0  0  0  0  0  0  0
   37.3507    7.9342   15.1535 C   0  0  0  0  0  0  0  0  0  0  0  0
   36.8441    6.5825   14.6947 C   0  0  0  0  0  0  0  0  0  0  0  0
   37.5195    6.2287   13.4527 N   0  0  0  0  0  0  0  0  0  0  0  0
   38.9702    6.0894   13.6223 C   0  0  0  0  0  0  0  0  0  0  0  0
   39.5393    7.4290   14.0567 C   0  0  0  0  0  0  0  0  0  0  0  0
   36.7125    5.1696   12.4293 S   0  0  0  0  0  0  0  0  0  0  0  0
   37.5356    4.9636   11.2212 O   0  0  0  0  0  0  0  0  0  0  0  0
   35.3514    5.7561   12.2751 O   0  0  0  0  0  0  0  0  0  0  0  0
   36.6099    3.5873   13.3263 C   0  0  0  0  0  0  0  0  0  0  0  0
   36.0968    2.5170   12.4308 C   0  0  0  0  0  0  0  0  0  0  0  0
   36.9852    1.6628   11.7824 C   0  0  0  0  0  0  0  0  0  0  0  0
   36.5141    0.6646   10.9439 C   0  0  0  0  0  0  0  0  0  0  0  0
   35.1474    0.5395   10.7330 C   0  0  0  0  0  0  0  0  0  0  0  0
   34.2577    1.3816   11.3806 C   0  0  0  0  0  0  0  0  0  0  0  0
   34.7296    2.3769   12.2173 C   0  0  0  0  0  0  0  0  0  0  0  0
   40.1597   11.7258   15.1671 H   0  0  0  0  0  0  0  0  0  0  0  0
   41.2348    7.8703   16.7140 H   0  0  0  0  0  0  0  0  0  0  0  0
   43.4117    8.7646   17.3813 H   0  0  0  0  0  0  0  0  0  0  0  0
   44.0143   11.1127   16.9032 H   0  0  0  0  0  0  0  0  0  0  0  0
   42.5809   17.8310   14.0582 H   0  0  0  0  0  0  0  0  0  0  0  0
   41.2457   16.8510   14.6436 H   0  0  0  0  0  0  0  0  0  0  0  0
   38.7375   10.0123   15.0502 H   0  0  0  0  0  0  0  0  0  0  0  0
   39.1492    7.3271   16.1558 H   0  0  0  0  0  0  0  0  0  0  0  0
   37.0642    8.6854   14.4168 H   0  0  0  0  0  0  0  0  0  0  0  0
   36.8721    8.2015   16.0992 H   0  0  0  0  0  0  0  0  0  0  0  0
   35.7768    6.6103   14.5132 H   0  0  0  0  0  0  0  0  0  0  0  0
   37.0280    5.8335   15.4781 H   0  0  0  0  0  0  0  0  0  0  0  0
   39.4116    5.7753   12.6847 H   0  0  0  0  0  0  0  0  0  0  0  0
   39.2089    5.3191   14.3636 H   0  0  0  0  0  0  0  0  0  0  0  0
   40.6080    7.3373   14.2227 H   0  0  0  0  0  0  0  0  0  0  0  0
   39.3999    8.1491   13.2533 H   0  0  0  0  0  0  0  0  0  0  0  0
   35.9641    3.7867   14.1784 H   0  0  0  0  0  0  0  0  0  0  0  0
   37.6195    3.3848   13.6740 H   0  0  0  0  0  0  0  0  0  0  0  0
   38.0517    1.7785   11.9356 H   0  0  0  0  0  0  0  0  0  0  0  0
   37.2038   -0.0177   10.4628 H   0  0  0  0  0  0  0  0  0  0  0  0
   34.7648   -0.2038   10.0480 H   0  0  0  0  0  0  0  0  0  0  0  0
   33.1959    1.2798   11.2169 H   0  0  0  0  0  0  0  0  0  0  0  0
   34.0307    3.0530   12.6962 H   0  0  0  0  0  0  0  0  0  0  0  0
  1  2  1  0
  1  5  1  0
  2  3  2  0
  2  6  1  0
  3  4  1  0
  3 16  1  0
  4  5  2  0
  4 15  1  0
  5  9  1  0
  6  7  2  0
  6  8  1  0
  9 10  2  0
  9 14  1  0
 10 11  1  0
 10 38  1  0
 11 12  2  0
 11 21  1  0
 12 13  1  0
 12 39  1  0
 13 14  2  0
 13 40  1  0
 14 41  1  0
 16 17  1  0
 17 18  1  0
 17 42  1  0
 17 43  1  0
 18 19  1  0
 18 20  2  0
 21 22  1  0
 21 44  1  0
 22 23  1  0
 22 27  1  0
 22 45  1  0
 23 24  1  0
 23 46  1  0
 23 47  1  0
 24 25  1  0
 24 48  1  0
 24 49  1  0
 25 26  1  0
 25 28  1  0
 26 27  1  0
 26 50  1  0
 26 51  1  0
 27 52  1  0
 27 53  1  0
 28 29  2  0
 28 30  2  0
 28 31  1  0
 31 32  1  0
 31 54  1  0
 31 55  1  0
 32 33  2  0
 32 37  1  0
 33 34  1  0
 33 56  1  0
 34 35  2  0
 34 57  1  0
 35 36  1  0
 35 58  1  0
 36 37  2  0
 36 59  1  0
 37 60  1  0
M  CHG  2   8  -1  19  -1
M  END
>  <r_exp_dg>  (4) 
-11.42

>  <mol_id>  (4) 
3

>  <source_index>  (4) 
3

>  <paff>  (4) 
8.3724340735292841

>  <source_r_exp_dg>  (4) 
-11.42

>  <smiles>  (4) 
O=C(O)COc1c(C(=O)O)sc(-c2cccc(NC3CCN(S(=O)(=O)Cc4ccccc4)CC3)c2)c1Br

>  <aimnet_interaction_kcal_mol>  (4) 
-351.18014484370366

$$$$
ptp1b_004
     RDKit          3D

 41 43  0  0  1  0  0  0  0  0999 V2000
   43.5174   13.8756   16.7847 S   0  0  0  0  0  0  0  0  0  0  0  0
   43.5375   15.2789   15.7637 C   0  0  0  0  0  0  0  0  0  0  0  0
   42.8124   15.0632   14.6074 C   0  0  0  0  0  0  0  0  0  0  0  0
   42.1618   13.8080   14.6203 C   0  0  0  0  0  0  0  0  0  0  0  0
   42.4632   13.0057   15.6945 C   0  0  0  0  0  0  0  0  0  0  0  0
   44.2655   16.4713   16.2579 C   0  0  0  0  0  0  0  0  0  0  0  0
   44.6689   16.4603   17.4432 O   0  0  0  0  0  0  0  0  0  0  0  0
   44.4017   17.4159   15.4199 O   0  0  0  0  0  0  0  0  0  0  0  0
   42.0949   11.6349   16.0085 C   0  0  0  0  0  0  0  0  0  0  0  0
   40.8382   11.1292   15.6748 C   0  0  0  0  0  0  0  0  0  0  0  0
   40.4833    9.8201   15.9922 C   0  0  0  0  0  0  0  0  0  0  0  0
   41.3690    9.0095   16.6999 C   0  0  0  0  0  0  0  0  0  0  0  0
   42.6227    9.5061   17.0180 C   0  0  0  0  0  0  0  0  0  0  0  0
   42.9962   10.7954   16.6768 C   0  0  0  0  0  0  0  0  0  0  0  0
   40.9763   13.3622   13.1903 Br  0  0  0  0  0  0  0  0  0  0  0  0
   42.7276   15.8858   13.5204 O   0  0  0  0  0  0  0  0  0  0  0  0
   41.8917   17.0431   13.7584 C   0  0  0  0  0  0  0  0  0  0  0  0
   41.0273   17.4198   12.5476 C   0  0  0  0  0  0  0  0  0  0  0  0
   39.8323   17.7275   12.7940 O   0  0  0  0  0  0  0  0  0  0  0  0
   41.5896   17.4408   11.4160 O   0  0  0  0  0  0  0  0  0  0  0  0
   39.2468    9.3600   15.5156 N   0  0  0  0  0  0  0  0  0  0  0  0
   40.1463   11.7705   15.1541 H   0  0  0  0  0  0  0  0  0  0  0  0
   41.0837    8.0121   16.9881 H   0  0  0  0  0  0  0  0  0  0  0  0
   43.3183    8.8618   17.5444 H   0  0  0  0  0  0  0  0  0  0  0  0
   43.9852   11.1604   16.9174 H   0  0  0  0  0  0  0  0  0  0  0  0
   41.2471   16.8653   14.6180 H   0  0  0  0  0  0  0  0  0  0  0  0
   42.5709   17.8493   14.0157 H   0  0  0  0  0  0  0  0  0  0  0  0
   38.7567   10.0327   14.9349 H   0  0  0  0  0  0  0  0  0  0  0  0
   38.5580    8.2430   15.9165 C   0  0  0  0  0  0  0  0  0  0  0  0
   38.7633    7.6597   16.9756 O   0  0  0  0  0  0  0  0  0  0  0  0
   35.4869    6.7643   13.3132 C   0  0  0  0  0  0  0  0  0  0  0  0
   35.7827    6.1342   14.5144 C   0  0  0  0  0  0  0  0  0  0  0  0
   36.7683    6.6432   15.3395 C   0  0  0  0  0  0  0  0  0  0  0  0
   37.5015    7.7740   14.9681 C   0  0  0  0  0  0  0  0  0  0  0  0
   37.2224    8.3743   13.7403 C   0  0  0  0  0  0  0  0  0  0  0  0
   36.2009    7.8928   12.9390 C   0  0  0  0  0  0  0  0  0  0  0  0
   34.7285    6.3482   12.6627 H   0  0  0  0  0  0  0  0  0  0  0  0
   35.2571    5.2316   14.7971 H   0  0  0  0  0  0  0  0  0  0  0  0
   37.0074    6.1652   16.2782 H   0  0  0  0  0  0  0  0  0  0  0  0
   37.8092    9.2037   13.3762 H   0  0  0  0  0  0  0  0  0  0  0  0
   35.9664    8.4273   12.0279 H   0  0  0  0  0  0  0  0  0  0  0  0
  1  2  1  0
  1  5  1  0
  2  3  2  0
  2  6  1  0
  3  4  1  0
  3 16  1  0
  4  5  2  0
  4 15  1  0
  5  9  1  0
  6  7  2  0
  6  8  1  0
  9 10  2  0
  9 14  1  0
 10 11  1  0
 10 22  1  0
 11 12  2  0
 11 21  1  0
 12 13  1  0
 12 23  1  0
 13 14  2  0
 13 24  1  0
 14 25  1  0
 16 17  1  0
 17 18  1  0
 17 26  1  0
 17 27  1  0
 18 19  1  0
 18 20  2  0
 21 28  1  0
 21 29  1  0
 29 30  2  0
 29 34  1  0
 31 32  2  0
 31 36  1  0
 31 37  1  0
 32 33  1  0
 32 38  1  0
 33 34  2  0
 33 39  1  0
 34 35  1  0
 35 36  2  0
 35 40  1  0
 36 41  1  0
M  CHG  2   8  -1  19  -1
M  END
>  <r_exp_dg>  (5) 
-7.72

>  <mol_id>  (5) 
4

>  <source_index>  (5) 
4

>  <paff>  (5) 
5.6598238931023825

>  <source_r_exp_dg>  (5) 
-7.7199999999999998

>  <smiles>  (5) 
O=C(O)COc1c(C(=O)O)sc(-c2cccc(NC(=O)c3ccccc3)c2)c1Br

>  <aimnet_interaction_kcal_mol>  (5) 
-321.42841612519737

$$$$
ptp1b_005
     RDKit          3D

 57 60  0  0  1  0  0  0  0  0999 V2000
   43.4929   13.7771   16.8089 S   0  0  0  0  0  0  0  0  0  0  0  0
   43.5492   15.1910   15.8026 C   0  0  0  0  0  0  0  0  0  0  0  0
   42.8159   14.9991   14.6488 C   0  0  0  0  0  0  0  0  0  0  0  0
   42.1440   13.7516   14.6464 C   0  0  0  0  0  0  0  0  0  0  0  0
   42.4306   12.9247   15.7048 C   0  0  0  0  0  0  0  0  0  0  0  0
   44.2746   16.3773   16.3325 C   0  0  0  0  0  0  0  0  0  0  0  0
   44.6833   16.3249   17.5136 O   0  0  0  0  0  0  0  0  0  0  0  0
   44.3943   17.3458   15.5222 O   0  0  0  0  0  0  0  0  0  0  0  0
   42.0754   11.5392   15.9931 C   0  0  0  0  0  0  0  0  0  0  0  0
   40.8352   11.0086   15.6360 C   0  0  0  0  0  0  0  0  0  0  0  0
   40.4874    9.6861   15.9433 C   0  0  0  0  0  0  0  0  0  0  0  0
   41.4253    8.8865   16.6090 C   0  0  0  0  0  0  0  0  0  0  0  0
   42.6577    9.4076   16.9626 C   0  0  0  0  0  0  0  0  0  0  0  0
   42.9951   10.7167   16.6615 C   0  0  0  0  0  0  0  0  0  0  0  0
   40.9337   13.3575   13.2221 Br  0  0  0  0  0  0  0  0  0  0  0  0
   42.7107   15.8534   13.5855 O   0  0  0  0  0  0  0  0  0  0  0  0
   41.6268   16.7782   13.8014 C   0  0  0  0  0  0  0  0  0  0  0  0
   40.9909   17.3799   12.5424 C   0  0  0  0  0  0  0  0  0  0  0  0
   39.8171   17.8015   12.7164 O   0  0  0  0  0  0  0  0  0  0  0  0
   41.6630   17.4397   11.4777 O   0  0  0  0  0  0  0  0  0  0  0  0
   39.2168    9.2196   15.6236 N   0  0  0  0  0  0  0  0  0  0  0  0
   38.9342    7.7995   15.5009 C   0  0  0  0  0  0  0  0  0  0  0  0
   37.4443    7.5874   15.2696 C   0  0  0  0  0  0  0  0  0  0  0  0
   37.0946    6.1115   15.1603 C   0  0  0  0  0  0  0  0  0  0  0  0
   37.8914    5.3846   14.1707 N   0  0  0  0  0  0  0  0  0  0  0  0
   39.3415    5.6103   14.3485 C   0  0  0  0  0  0  0  0  0  0  0  0
   39.7136    7.0772   14.4116 C   0  0  0  0  0  0  0  0  0  0  0  0
   37.3422    5.4021   12.5804 S   0  0  0  0  0  0  0  0  0  0  0  0
   38.4750    5.8175   11.7237 O   0  0  0  0  0  0  0  0  0  0  0  0
   36.0568    6.1610   12.5186 O   0  0  0  0  0  0  0  0  0  0  0  0
   40.1290   11.6331   15.1121 H   0  0  0  0  0  0  0  0  0  0  0  0
   41.2126    7.8536   16.8397 H   0  0  0  0  0  0  0  0  0  0  0  0
   43.3721    8.7734   17.4788 H   0  0  0  0  0  0  0  0  0  0  0  0
   43.9691   11.1043   16.9254 H   0  0  0  0  0  0  0  0  0  0  0  0
   40.8409   16.2775   14.3638 H   0  0  0  0  0  0  0  0  0  0  0  0
   42.0229   17.5731   14.4259 H   0  0  0  0  0  0  0  0  0  0  0  0
   38.7373    9.7978   14.9459 H   0  0  0  0  0  0  0  0  0  0  0  0
   39.1947    7.3343   16.4564 H   0  0  0  0  0  0  0  0  0  0  0  0
   37.1474    8.0970   14.3508 H   0  0  0  0  0  0  0  0  0  0  0  0
   36.8698    8.0263   16.0889 H   0  0  0  0  0  0  0  0  0  0  0  0
   36.0461    5.9806   14.9166 H   0  0  0  0  0  0  0  0  0  0  0  0
   37.2689    5.6159   16.1174 H   0  0  0  0  0  0  0  0  0  0  0  0
   39.8765    5.1188   13.5488 H   0  0  0  0  0  0  0  0  0  0  0  0
   39.6140    5.1034   15.2737 H   0  0  0  0  0  0  0  0  0  0  0  0
   40.7779    7.1562   14.6012 H   0  0  0  0  0  0  0  0  0  0  0  0
   39.5233    7.5429   13.4452 H   0  0  0  0  0  0  0  0  0  0  0  0
   36.4310    1.2431   11.0487 C   0  0  0  0  0  0  0  0  0  0  0  0
   35.3887    2.1070   11.3567 C   0  0  0  0  0  0  0  0  0  0  0  0
   35.6590    3.3361   11.9419 C   0  0  0  0  0  0  0  0  0  0  0  0
   36.9762    3.7003   12.1696 C   0  0  0  0  0  0  0  0  0  0  0  0
   38.0237    2.8180   11.9239 C   0  0  0  0  0  0  0  0  0  0  0  0
   37.7426    1.5829   11.3580 C   0  0  0  0  0  0  0  0  0  0  0  0
   36.2277    0.3000   10.5640 H   0  0  0  0  0  0  0  0  0  0  0  0
   34.3675    1.8271   11.1418 H   0  0  0  0  0  0  0  0  0  0  0  0
   34.8538    4.0002   12.2182 H   0  0  0  0  0  0  0  0  0  0  0  0
   39.0421    3.1024   12.1520 H   0  0  0  0  0  0  0  0  0  0  0  0
   38.5354    0.8770   11.1522 H   0  0  0  0  0  0  0  0  0  0  0  0
  1  2  1  0
  1  5  1  0
  2  3  2  0
  2  6  1  0
  3  4  1  0
  3 16  1  0
  4  5  2  0
  4 15  1  0
  5  9  1  0
  6  7  2  0
  6  8  1  0
  9 10  2  0
  9 14  1  0
 10 11  1  0
 10 31  1  0
 11 12  2  0
 11 21  1  0
 12 13  1  0
 12 32  1  0
 13 14  2  0
 13 33  1  0
 14 34  1  0
 16 17  1  0
 17 18  1  0
 17 35  1  0
 17 36  1  0
 18 19  1  0
 18 20  2  0
 21 22  1  0
 21 37  1  0
 22 23  1  0
 22 27  1  0
 22 38  1  0
 23 24  1  0
 23 39  1  0
 23 40  1  0
 24 25  1  0
 24 41  1  0
 24 42  1  0
 25 26  1  0
 25 28  1  0
 26 27  1  0
 26 43  1  0
 26 44  1  0
 27 45  1  0
 27 46  1  0
 28 29  2  0
 28 30  2  0
 28 50  1  0
 47 48  2  0
 47 52  1  0
 47 53  1  0
 48 49  1  0
 48 54  1  0
 49 50  2  0
 49 55  1  0
 50 51  1  0
 51 52  2  0
 51 56  1  0
 52 57  1  0
M  CHG  2   8  -1  19  -1
M  END
>  <r_exp_dg>  (6) 
-9.87

>  <mol_id>  (6) 
5

>  <source_index>  (6) 
5

>  <paff>  (6) 
7.2360702973307047

>  <source_r_exp_dg>  (6) 
-9.8699999999999992

>  <smiles>  (6) 
O=C(O)COc1c(C(=O)O)sc(-c2cccc(NC3CCN(S(=O)(=O)c4ccccc4)CC3)c2)c1Br

>  <aimnet_interaction_kcal_mol>  (6) 
-350.59317939666374

$$$$
ptp1b_006
     RDKit          3D

 50 52  0  0  1  0  0  0  0  0999 V2000
   43.4030   13.7115   16.7016 S   0  0  0  0  0  0  0  0  0  0  0  0
   43.5184   15.1811   15.7883 C   0  0  0  0  0  0  0  0  0  0  0  0
   42.8385   15.0692   14.5928 C   0  0  0  0  0  0  0  0  0  0  0  0
   42.1530   13.8373   14.4848 C   0  0  0  0  0  0  0  0  0  0  0  0
   42.3711   12.9439   15.5098 C   0  0  0  0  0  0  0  0  0  0  0  0
   44.2642   16.3209   16.3825 C   0  0  0  0  0  0  0  0  0  0  0  0
   44.6365   16.2250   17.5718 O   0  0  0  0  0  0  0  0  0  0  0  0
   44.4449   17.3070   15.6005 O   0  0  0  0  0  0  0  0  0  0  0  0
   41.9500   11.5618   15.7099 C   0  0  0  0  0  0  0  0  0  0  0  0
   40.8235   11.0527   15.0656 C   0  0  0  0  0  0  0  0  0  0  0  0
   40.4852    9.6933   15.1223 C   0  0  0  0  0  0  0  0  0  0  0  0
   41.2094    8.8631   15.9745 C   0  0  0  0  0  0  0  0  0  0  0  0
   42.2770    9.3809   16.6937 C   0  0  0  0  0  0  0  0  0  0  0  0
   42.6661   10.7026   16.5597 C   0  0  0  0  0  0  0  0  0  0  0  0
   41.0495   13.5828   12.9326 Br  0  0  0  0  0  0  0  0  0  0  0  0
   42.8276   15.9647   13.5637 O   0  0  0  0  0  0  0  0  0  0  0  0
   41.9403   17.0812   13.7941 C   0  0  0  0  0  0  0  0  0  0  0  0
   41.0658   17.4356   12.5824 C   0  0  0  0  0  0  0  0  0  0  0  0
   39.8692   17.7359   12.8318 O   0  0  0  0  0  0  0  0  0  0  0  0
   41.6228   17.4533   11.4481 O   0  0  0  0  0  0  0  0  0  0  0  0
   39.4804    9.2536   14.2676 N   0  0  0  0  0  0  0  0  0  0  0  0
   38.7447    8.0116   14.4062 C   0  0  0  0  0  0  0  0  0  0  0  0
   37.2991    8.3002   14.0291 C   0  0  0  0  0  0  0  0  0  0  0  0
   36.4391    7.0607   14.0110 C   0  0  0  0  0  0  0  0  0  0  0  0
   36.9959    6.0598   13.1192 N   0  0  0  0  0  0  0  0  0  0  0  0
   38.3837    5.6869   13.4111 C   0  0  0  0  0  0  0  0  0  0  0  0
   39.2858    6.9145   13.4907 C   0  0  0  0  0  0  0  0  0  0  0  0
   40.1885   11.7181   14.5053 H   0  0  0  0  0  0  0  0  0  0  0  0
   40.9774    7.8119   16.0468 H   0  0  0  0  0  0  0  0  0  0  0  0
   42.8222    8.7331   17.3683 H   0  0  0  0  0  0  0  0  0  0  0  0
   43.5233   11.0673   17.1049 H   0  0  0  0  0  0  0  0  0  0  0  0
   42.5828   17.9183   14.0406 H   0  0  0  0  0  0  0  0  0  0  0  0
   41.3043   16.8851   14.6552 H   0  0  0  0  0  0  0  0  0  0  0  0
   38.8496   10.0239   14.0676 H   0  0  0  0  0  0  0  0  0  0  0  0
   38.7760    7.6464   15.4422 H   0  0  0  0  0  0  0  0  0  0  0  0
   37.2873    8.7633   13.0413 H   0  0  0  0  0  0  0  0  0  0  0  0
   36.8858    9.0348   14.7202 H   0  0  0  0  0  0  0  0  0  0  0  0
   35.4309    7.2728   13.6767 H   0  0  0  0  0  0  0  0  0  0  0  0
   36.3686    6.6382   15.0196 H   0  0  0  0  0  0  0  0  0  0  0  0
   38.7365    5.0030   12.6501 H   0  0  0  0  0  0  0  0  0  0  0  0
   38.3965    5.1490   14.3619 H   0  0  0  0  0  0  0  0  0  0  0  0
   40.2769    6.6090   13.8172 H   0  0  0  0  0  0  0  0  0  0  0  0
   39.3984    7.3300   12.4919 H   0  0  0  0  0  0  0  0  0  0  0  0
   36.2305    5.5737   12.1279 C   0  0  0  0  0  0  0  0  0  0  0  0
   35.1562    6.0776   11.7749 O   0  0  0  0  0  0  0  0  0  0  0  0
   36.7495    4.4640   11.5596 O   0  0  0  0  0  0  0  0  0  0  0  0
   35.8583    3.7520   10.6798 C   0  0  0  0  0  0  0  0  0  0  0  0
   35.7015    4.3325    9.7724 H   0  0  0  0  0  0  0  0  0  0  0  0
   36.3567    2.8210   10.4365 H   0  0  0  0  0  0  0  0  0  0  0  0
   34.9025    3.5678   11.1629 H   0  0  0  0  0  0  0  0  0  0  0  0
  1  2  1  0
  1  5  1  0
  2  3  2  0
  2  6  1  0
  3  4  1  0
  3 16  1  0
  4  5  2  0
  4 15  1  0
  5  9  1  0
  6  7  2  0
  6  8  1  0
  9 10  2  0
  9 14  1  0
 10 11  1  0
 10 28  1  0
 11 12  2  0
 11 21  1  0
 12 13  1  0
 12 29  1  0
 13 14  2  0
 13 30  1  0
 14 31  1  0
 16 17  1  0
 17 18  1  0
 17 32  1  0
 17 33  1  0
 18 19  1  0
 18 20  2  0
 21 22  1  0
 21 34  1  0
 22 23  1  0
 22 27  1  0
 22 35  1  0
 23 24  1  0
 23 36  1  0
 23 37  1  0
 24 25  1  0
 24 38  1  0
 24 39  1  0
 25 26  1  0
 25 44  1  0
 26 27  1  0
 26 40  1  0
 26 41  1  0
 27 42  1  0
 27 43  1  0
 44 45  2  0
 44 46  1  0
 46 47  1  0
 47 48  1  0
 47 49  1  0
 47 50  1  0
M  CHG  2   8  -1  19  -1
M  END
>  <r_exp_dg>  (7) 
-8.72

>  <mol_id>  (7) 
6

>  <source_index>  (7) 
6

>  <paff>  (7) 
6.3929620726017653

>  <source_r_exp_dg>  (7) 
-8.7200000000000006

>  <smiles>  (7) 
COC(=O)N1CCC(Nc2cccc(-c3sc(C(=O)O)c(OCC(=O)O)c3Br)c2)CC1

>  <aimnet_interaction_kcal_mol>  (7) 
-344.34163519125565

$$$$
ptp1b_007
     RDKit          3D

 48 50  0  0  1  0  0  0  0  0999 V2000
   43.5597   13.9327   16.8034 S   0  0  0  0  0  0  0  0  0  0  0  0
   43.5688   15.3021   15.7385 C   0  0  0  0  0  0  0  0  0  0  0  0
   42.8200   15.0532   14.6051 C   0  0  0  0  0  0  0  0  0  0  0  0
   42.1665   13.7997   14.6668 C   0  0  0  0  0  0  0  0  0  0  0  0
   42.4917   13.0290   15.7551 C   0  0  0  0  0  0  0  0  0  0  0  0
   44.2838   16.5143   16.2051 C   0  0  0  0  0  0  0  0  0  0  0  0
   44.7063   16.5208   17.3845 O   0  0  0  0  0  0  0  0  0  0  0  0
   44.3801   17.4514   15.3575 O   0  0  0  0  0  0  0  0  0  0  0  0
   42.1663   11.6568   16.1072 C   0  0  0  0  0  0  0  0  0  0  0  0
   40.8981   11.1312   15.8729 C   0  0  0  0  0  0  0  0  0  0  0  0
   40.5905    9.8094   16.2047 C   0  0  0  0  0  0  0  0  0  0  0  0
   41.5802    9.0179   16.8006 C   0  0  0  0  0  0  0  0  0  0  0  0
   42.8368    9.5435   17.0470 C   0  0  0  0  0  0  0  0  0  0  0  0
   43.1416   10.8498   16.7063 C   0  0  0  0  0  0  0  0  0  0  0  0
   40.9311   13.3116   13.2942 Br  0  0  0  0  0  0  0  0  0  0  0  0
   42.6811   15.8692   13.5154 O   0  0  0  0  0  0  0  0  0  0  0  0
   41.6185   16.8142   13.7456 C   0  0  0  0  0  0  0  0  0  0  0  0
   40.9439   17.3801   12.4931 C   0  0  0  0  0  0  0  0  0  0  0  0
   39.7693   17.7906   12.6843 O   0  0  0  0  0  0  0  0  0  0  0  0
   41.5950   17.4288   11.4146 O   0  0  0  0  0  0  0  0  0  0  0  0
   39.3095    9.3179   15.9686 N   0  0  0  0  0  0  0  0  0  0  0  0
   39.1250    7.8781   15.8825 C   0  0  0  0  0  0  0  0  0  0  0  0
   40.1510   11.7586   15.4116 H   0  0  0  0  0  0  0  0  0  0  0  0
   41.3854    7.9903   17.0644 H   0  0  0  0  0  0  0  0  0  0  0  0
   43.5928    8.9146   17.5087 H   0  0  0  0  0  0  0  0  0  0  0  0
   44.1299   11.2469   16.8868 H   0  0  0  0  0  0  0  0  0  0  0  0
   40.8492   16.3408   14.3525 H   0  0  0  0  0  0  0  0  0  0  0  0
   42.0486   17.6235   14.3289 H   0  0  0  0  0  0  0  0  0  0  0  0
   38.8251    9.8411   15.2522 H   0  0  0  0  0  0  0  0  0  0  0  0
   39.8996    7.4130   15.2577 H   0  0  0  0  0  0  0  0  0  0  0  0
   39.2362    7.4534   16.8811 H   0  0  0  0  0  0  0  0  0  0  0  0
   37.0007    8.0316   15.9045 H   0  0  0  0  0  0  0  0  0  0  0  0
   36.1781    5.5706   14.9122 C   0  0  0  0  0  0  0  0  0  0  0  0
   37.5189    6.0000   15.4840 C   0  0  0  0  0  0  0  0  0  0  0  0
   37.7672    7.4979   15.3241 C   0  0  0  0  0  0  0  0  0  0  0  0
   37.6229    7.9046   13.8645 C   0  0  0  0  0  0  0  0  0  0  0  0
   36.2755    7.4881   13.2986 C   0  0  0  0  0  0  0  0  0  0  0  0
   36.0327    5.9957   13.4587 C   0  0  0  0  0  0  0  0  0  0  0  0
   35.3742    6.0177   15.5049 H   0  0  0  0  0  0  0  0  0  0  0  0
   36.0565    4.4912   15.0046 H   0  0  0  0  0  0  0  0  0  0  0  0
   38.3218    5.4589   14.9748 H   0  0  0  0  0  0  0  0  0  0  0  0
   37.5831    5.7185   16.5366 H   0  0  0  0  0  0  0  0  0  0  0  0
   37.7563    8.9766   13.7475 H   0  0  0  0  0  0  0  0  0  0  0  0
   38.4230    7.4273   13.2920 H   0  0  0  0  0  0  0  0  0  0  0  0
   35.4907    8.0349   13.8170 H   0  0  0  0  0  0  0  0  0  0  0  0
   36.2018    7.7886   12.2537 H   0  0  0  0  0  0  0  0  0  0  0  0
   36.7612    5.4510   12.8534 H   0  0  0  0  0  0  0  0  0  0  0  0
   35.0441    5.7212   13.0858 H   0  0  0  0  0  0  0  0  0  0  0  0
  1  2  1  0
  1  5  1  0
  2  3  2  0
  2  6  1  0
  3  4  1  0
  3 16  1  0
  4  5  2  0
  4 15  1  0
  5  9  1  0
  6  7  2  0
  6  8  1  0
  9 10  2  0
  9 14  1  0
 10 11  1  0
 10 23  1  0
 11 12  2  0
 11 21  1  0
 12 13  1  0
 12 24  1  0
 13 14  2  0
 13 25  1  0
 14 26  1  0
 16 17  1  0
 17 18  1  0
 17 27  1  0
 17 28  1  0
 18 19  1  0
 18 20  2  0
 21 22  1  0
 21 29  1  0
 22 30  1  0
 22 31  1  0
 22 35  1  0
 32 35  1  0
 33 34  1  0
 33 38  1  0
 33 39  1  0
 33 40  1  0
 34 35  1  0
 34 41  1  0
 34 42  1  0
 35 36  1  0
 36 37  1  0
 36 43  1  0
 36 44  1  0
 37 38  1  0
 37 45  1  0
 37 46  1  0
 38 47  1  0
 38 48  1  0
M  CHG  2   8  -1  19  -1
M  END
>  <r_exp_dg>  (8) 
-9.11

>  <mol_id>  (8) 
7

>  <source_index>  (8) 
7

>  <paff>  (8) 
6.6788853787956342

>  <source_r_exp_dg>  (8) 
-9.1099999999999994

>  <smiles>  (8) 
O=C(O)COc1c(C(=O)O)sc(-c2cccc(NCC3CCCCC3)c2)c1Br

>  <aimnet_interaction_kcal_mol>  (8) 
-325.67826501113478

$$$$
ptp1b_008
     RDKit          3D

 41 43  0  0  1  0  0  0  0  0999 V2000
   43.5332   13.8548   16.8372 S   0  0  0  0  0  0  0  0  0  0  0  0
   43.5526   15.2347   15.7833 C   0  0  0  0  0  0  0  0  0  0  0  0
   42.8035   14.9965   14.6472 C   0  0  0  0  0  0  0  0  0  0  0  0
   42.1490   13.7416   14.6966 C   0  0  0  0  0  0  0  0  0  0  0  0
   42.4646   12.9584   15.7791 C   0  0  0  0  0  0  0  0  0  0  0  0
   44.2710   16.4423   16.2699 C   0  0  0  0  0  0  0  0  0  0  0  0
   44.6917   16.4257   17.4490 O   0  0  0  0  0  0  0  0  0  0  0  0
   44.3724   17.3916   15.4366 O   0  0  0  0  0  0  0  0  0  0  0  0
   42.1345   11.5788   16.1115 C   0  0  0  0  0  0  0  0  0  0  0  0
   40.8804   11.0283   15.8332 C   0  0  0  0  0  0  0  0  0  0  0  0
   40.6140    9.6961   16.1414 C   0  0  0  0  0  0  0  0  0  0  0  0
   41.5811    8.9053   16.7518 C   0  0  0  0  0  0  0  0  0  0  0  0
   42.8181    9.4601   17.0502 C   0  0  0  0  0  0  0  0  0  0  0  0
   43.1006   10.7752   16.7348 C   0  0  0  0  0  0  0  0  0  0  0  0
   40.9250   13.2645   13.3113 Br  0  0  0  0  0  0  0  0  0  0  0  0
   42.6679   15.8180   13.5609 O   0  0  0  0  0  0  0  0  0  0  0  0
   41.5550   16.7086   13.7693 C   0  0  0  0  0  0  0  0  0  0  0  0
   40.9513   17.3548   12.5185 C   0  0  0  0  0  0  0  0  0  0  0  0
   39.7868   17.7998   12.6932 O   0  0  0  0  0  0  0  0  0  0  0  0
   41.6343   17.4220   11.4616 O   0  0  0  0  0  0  0  0  0  0  0  0
   39.3606    9.2343   15.8341 O   0  0  0  0  0  0  0  0  0  0  0  0
   39.2000    7.8205   15.7016 C   0  0  0  0  0  0  0  0  0  0  0  0
   40.1168   11.6257   15.3618 H   0  0  0  0  0  0  0  0  0  0  0  0
   41.3921    7.8729   16.9964 H   0  0  0  0  0  0  0  0  0  0  0  0
   43.5710    8.8436   17.5316 H   0  0  0  0  0  0  0  0  0  0  0  0
   44.0758   11.1887   16.9516 H   0  0  0  0  0  0  0  0  0  0  0  0
   41.9035   17.4831   14.4462 H   0  0  0  0  0  0  0  0  0  0  0  0
   40.7619   16.1634   14.2781 H   0  0  0  0  0  0  0  0  0  0  0  0
   40.0363    7.3927   15.1375 H   0  0  0  0  0  0  0  0  0  0  0  0
   39.2008    7.3513   16.6877 H   0  0  0  0  0  0  0  0  0  0  0  0
   35.6228    6.8939   13.5364 C   0  0  0  0  0  0  0  0  0  0  0  0
   36.0078    6.1079   14.6127 C   0  0  0  0  0  0  0  0  0  0  0  0
   37.1434    6.4383   15.3375 C   0  0  0  0  0  0  0  0  0  0  0  0
   37.9142    7.5433   14.9892 C   0  0  0  0  0  0  0  0  0  0  0  0
   37.5009    8.3434   13.9301 C   0  0  0  0  0  0  0  0  0  0  0  0
   36.3663    8.0192   13.2068 C   0  0  0  0  0  0  0  0  0  0  0  0
   34.7558    6.6179   12.9502 H   0  0  0  0  0  0  0  0  0  0  0  0
   35.4381    5.2267   14.8754 H   0  0  0  0  0  0  0  0  0  0  0  0
   37.4449    5.8193   16.1734 H   0  0  0  0  0  0  0  0  0  0  0  0
   38.0614    9.2349   13.6965 H   0  0  0  0  0  0  0  0  0  0  0  0
   36.0641    8.6630   12.3896 H   0  0  0  0  0  0  0  0  0  0  0  0
  1  2  1  0
  1  5  1  0
  2  3  2  0
  2  6  1  0
  3  4  1  0
  3 16  1  0
  4  5  2  0
  4 15  1  0
  5  9  1  0
  6  7  2  0
  6  8  1  0
  9 10  2  0
  9 14  1  0
 10 11  1  0
 10 23  1  0
 11 12  2  0
 11 21  1  0
 12 13  1  0
 12 24  1  0
 13 14  2  0
 13 25  1  0
 14 26  1  0
 16 17  1  0
 17 18  1  0
 17 27  1  0
 17 28  1  0
 18 19  1  0
 18 20  2  0
 21 22  1  0
 22 29  1  0
 22 30  1  0
 22 34  1  0
 31 32  2  0
 31 36  1  0
 31 37  1  0
 32 33  1  0
 32 38  1  0
 33 34  2  0
 33 39  1  0
 34 35  1  0
 35 36  2  0
 35 40  1  0
 36 41  1  0
M  CHG  2   8  -1  19  -1
M  END
>  <r_exp_dg>  (9) 
-8.39

>  <mol_id>  (9) 
8

>  <source_index>  (9) 
8

>  <paff>  (9) 
6.1510266446647748

>  <source_r_exp_dg>  (9) 
-8.3900000000000006

>  <smiles>  (9) 
O=C(O)COc1c(C(=O)O)sc(-c2cccc(OCc3ccccc3)c2)c1Br

>  <aimnet_interaction_kcal_mol>  (9) 
-323.96919634891498

$$$$
ptp1b_009
     RDKit          3D

 35 36  0  0  1  0  0  0  0  0999 V2000
   43.5373   13.9003   16.7864 S   0  0  0  0  0  0  0  0  0  0  0  0
   43.5450   15.2968   15.7556 C   0  0  0  0  0  0  0  0  0  0  0  0
   42.8162   15.0704   14.6035 C   0  0  0  0  0  0  0  0  0  0  0  0
   42.1720   13.8120   14.6280 C   0  0  0  0  0  0  0  0  0  0  0  0
   42.4847   13.0200   15.7061 C   0  0  0  0  0  0  0  0  0  0  0  0
   44.2701   16.4947   16.2374 C   0  0  0  0  0  0  0  0  0  0  0  0
   44.6752   16.4951   17.4227 O   0  0  0  0  0  0  0  0  0  0  0  0
   44.4025   17.4324   15.3918 O   0  0  0  0  0  0  0  0  0  0  0  0
   42.1225   11.6522   16.0308 C   0  0  0  0  0  0  0  0  0  0  0  0
   40.8482   11.1624   15.7448 C   0  0  0  0  0  0  0  0  0  0  0  0
   40.4937    9.8608   16.0895 C   0  0  0  0  0  0  0  0  0  0  0  0
   41.4044    9.0386   16.7504 C   0  0  0  0  0  0  0  0  0  0  0  0
   42.6782    9.5183   17.0115 C   0  0  0  0  0  0  0  0  0  0  0  0
   43.0463   10.8054   16.6567 C   0  0  0  0  0  0  0  0  0  0  0  0
   40.9786   13.3435   13.2144 Br  0  0  0  0  0  0  0  0  0  0  0  0
   42.7218   15.8862   13.5124 O   0  0  0  0  0  0  0  0  0  0  0  0
   41.8918   17.0477   13.7525 C   0  0  0  0  0  0  0  0  0  0  0  0
   41.0251   17.4233   12.5434 C   0  0  0  0  0  0  0  0  0  0  0  0
   39.8307   17.7317   12.7913 O   0  0  0  0  0  0  0  0  0  0  0  0
   41.5858   17.4419   11.4108 O   0  0  0  0  0  0  0  0  0  0  0  0
   39.2200    9.4213   15.6981 N   0  0  0  0  0  0  0  0  0  0  0  0
   40.1420   11.8008   15.2421 H   0  0  0  0  0  0  0  0  0  0  0  0
   41.1177    8.0440   17.0442 H   0  0  0  0  0  0  0  0  0  0  0  0
   43.3926    8.8637   17.4997 H   0  0  0  0  0  0  0  0  0  0  0  0
   44.0484   11.1628   16.8497 H   0  0  0  0  0  0  0  0  0  0  0  0
   42.5747   17.8517   14.0075 H   0  0  0  0  0  0  0  0  0  0  0  0
   41.2492   16.8723   14.6141 H   0  0  0  0  0  0  0  0  0  0  0  0
   38.7128   10.0239   15.0579 H   0  0  0  0  0  0  0  0  0  0  0  0
   38.5607    8.3114   16.1182 C   0  0  0  0  0  0  0  0  0  0  0  0
   38.8391    7.5703   17.0370 O   0  0  0  0  0  0  0  0  0  0  0  0
   37.4453    8.1366   15.3186 O   0  0  0  0  0  0  0  0  0  0  0  0
   36.8188    6.8622   15.5000 C   0  0  0  0  0  0  0  0  0  0  0  0
   36.0227    6.7969   14.7627 H   0  0  0  0  0  0  0  0  0  0  0  0
   36.4079    6.7705   16.5045 H   0  0  0  0  0  0  0  0  0  0  0  0
   37.5382    6.0613   15.3494 H   0  0  0  0  0  0  0  0  0  0  0  0
  1  2  1  0
  1  5  1  0
  2  3  2  0
  2  6  1  0
  3  4  1  0
  3 16  1  0
  4  5  2  0
  4 15  1  0
  5  9  1  0
  6  7  2  0
  6  8  1  0
  9 10  2  0
  9 14  1  0
 10 11  1  0
 10 22  1  0
 11 12  2  0
 11 21  1  0
 12 13  1  0
 12 23  1  0
 13 14  2  0
 13 24  1  0
 14 25  1  0
 16 17  1  0
 17 18  1  0
 17 26  1  0
 17 27  1  0
 18 19  1  0
 18 20  2  0
 21 28  1  0
 21 29  1  0
 29 30  2  0
 29 31  1  0
 31 32  1  0
 32 33  1  0
 32 34  1  0
 32 35  1  0
M  CHG  2   8  -1  19  -1
M  END
>  <r_exp_dg>  (10) 
-7.75

>  <mol_id>  (10) 
9

>  <source_index>  (10) 
9

>  <paff>  (10) 
5.6818181818181817

>  <source_r_exp_dg>  (10) 
-7.75

>  <smiles>  (10) 
COC(=O)Nc1cccc(-c2sc(C(=O)O)c(OCC(=O)O)c2Br)c1

>  <aimnet_interaction_kcal_mol>  (10) 
-318.25403945318726

$$$$
ptp1b_010
     RDKit          3D

 42 44  0  0  1  0  0  0  0  0999 V2000
   43.5583   13.9002   16.7844 S   0  0  0  0  0  0  0  0  0  0  0  0
   43.5759   15.2876   15.7418 C   0  0  0  0  0  0  0  0  0  0  0  0
   42.8357   15.0575   14.5993 C   0  0  0  0  0  0  0  0  0  0  0  0
   42.1835   13.8021   14.6343 C   0  0  0  0  0  0  0  0  0  0  0  0
   42.5033   13.0117   15.7091 C   0  0  0  0  0  0  0  0  0  0  0  0
   44.2884   16.4938   16.2294 C   0  0  0  0  0  0  0  0  0  0  0  0
   44.7039   16.4871   17.4105 O   0  0  0  0  0  0  0  0  0  0  0  0
   44.3896   17.4394   15.3913 O   0  0  0  0  0  0  0  0  0  0  0  0
   42.1713   11.6360   16.0399 C   0  0  0  0  0  0  0  0  0  0  0  0
   40.8976   11.1284   15.8060 C   0  0  0  0  0  0  0  0  0  0  0  0
   40.5382    9.8381   16.2156 C   0  0  0  0  0  0  0  0  0  0  0  0
   41.5056    9.0535   16.8576 C   0  0  0  0  0  0  0  0  0  0  0  0
   42.7900    9.5382   17.0416 C   0  0  0  0  0  0  0  0  0  0  0  0
   43.1376   10.8150   16.6354 C   0  0  0  0  0  0  0  0  0  0  0  0
   40.9540   13.3427   13.2475 Br  0  0  0  0  0  0  0  0  0  0  0  0
   42.7027   15.8899   13.5217 O   0  0  0  0  0  0  0  0  0  0  0  0
   41.6261   16.8186   13.7510 C   0  0  0  0  0  0  0  0  0  0  0  0
   40.9544   17.3875   12.4983 C   0  0  0  0  0  0  0  0  0  0  0  0
   39.7803   17.7996   12.6890 O   0  0  0  0  0  0  0  0  0  0  0  0
   41.6061   17.4358   11.4201 O   0  0  0  0  0  0  0  0  0  0  0  0
   39.2265    9.4234   16.0283 N   0  0  0  0  0  0  0  0  0  0  0  0
   38.8119    8.0292   16.1387 C   0  0  0  0  0  0  0  0  0  0  0  0
   40.1731   11.7493   15.3015 H   0  0  0  0  0  0  0  0  0  0  0  0
   41.2735    8.0704   17.2331 H   0  0  0  0  0  0  0  0  0  0  0  0
   43.5311    8.9005   17.5162 H   0  0  0  0  0  0  0  0  0  0  0  0
   44.1456   11.1798   16.7662 H   0  0  0  0  0  0  0  0  0  0  0  0
   42.0400   17.6286   14.3443 H   0  0  0  0  0  0  0  0  0  0  0  0
   40.8583   16.3306   14.3478 H   0  0  0  0  0  0  0  0  0  0  0  0
   38.7631    9.9220   15.2794 H   0  0  0  0  0  0  0  0  0  0  0  0
   39.6271    7.4256   16.5277 H   0  0  0  0  0  0  0  0  0  0  0  0
   37.9989    7.9616   16.8699 H   0  0  0  0  0  0  0  0  0  0  0  0
   37.4281    6.0815   12.5763 C   0  0  0  0  0  0  0  0  0  0  0  0
   38.7762    6.0538   12.9023 C   0  0  0  0  0  0  0  0  0  0  0  0
   39.2376    6.7346   14.0191 C   0  0  0  0  0  0  0  0  0  0  0  0
   38.3551    7.4317   14.8386 C   0  0  0  0  0  0  0  0  0  0  0  0
   37.0156    7.4965   14.4701 C   0  0  0  0  0  0  0  0  0  0  0  0
   36.5482    6.8160   13.3571 C   0  0  0  0  0  0  0  0  0  0  0  0
   37.0598    5.5218   11.7240 H   0  0  0  0  0  0  0  0  0  0  0  0
   39.4717    5.4822   12.3020 H   0  0  0  0  0  0  0  0  0  0  0  0
   40.2882    6.6872   14.2697 H   0  0  0  0  0  0  0  0  0  0  0  0
   36.3284    8.0698   15.0790 H   0  0  0  0  0  0  0  0  0  0  0  0
   35.4910    6.8421   13.1155 H   0  0  0  0  0  0  0  0  0  0  0  0
  1  2  1  0
  1  5  1  0
  2  3  2  0
  2  6  1  0
  3  4  1  0
  3 16  1  0
  4  5  2  0
  4 15  1  0
  5  9  1  0
  6  7  2  0
  6  8  1  0
  9 10  2  0
  9 14  1  0
 10 11  1  0
 10 23  1  0
 11 12  2  0
 11 21  1  0
 12 13  1  0
 12 24  1  0
 13 14  2  0
 13 25  1  0
 14 26  1  0
 16 17  1  0
 17 18  1  0
 17 27  1  0
 17 28  1  0
 18 19  1  0
 18 20  2  0
 21 22  1  0
 21 29  1  0
 22 30  1  0
 22 31  1  0
 22 35  1  0
 32 33  2  0
 32 37  1  0
 32 38  1  0
 33 34  1  0
 33 39  1  0
 34 35  2  0
 34 40  1  0
 35 36  1  0
 36 37  2  0
 36 41  1  0
 37 42  1  0
M  CHG  2   8  -1  19  -1
M  END
>  <r_exp_dg>  (11) 
-8.61

>  <mol_id>  (11) 
10

>  <source_index>  (11) 
10

>  <paff>  (11) 
6.3123164638396227

>  <source_r_exp_dg>  (11) 
-8.6099999999999994

>  <smiles>  (11) 
O=C(O)COc1c(C(=O)O)sc(-c2cccc(NCc3ccccc3)c2)c1Br

>  <aimnet_interaction_kcal_mol>  (11) 
-326.35452310882778

$$$$
ptp1b_011
     RDKit          3D

 48 50  0  0  1  0  0  0  0  0999 V2000
   43.5552   13.9304   16.8029 S   0  0  0  0  0  0  0  0  0  0  0  0
   43.5485   15.3162   15.7571 C   0  0  0  0  0  0  0  0  0  0  0  0
   42.8099   15.0756   14.6140 C   0  0  0  0  0  0  0  0  0  0  0  0
   42.1701   13.8149   14.6588 C   0  0  0  0  0  0  0  0  0  0  0  0
   42.4944   13.0377   15.7431 C   0  0  0  0  0  0  0  0  0  0  0  0
   44.2758   16.5176   16.2203 C   0  0  0  0  0  0  0  0  0  0  0  0
   44.6891   16.5311   17.4036 O   0  0  0  0  0  0  0  0  0  0  0  0
   44.4036   17.4478   15.3656 O   0  0  0  0  0  0  0  0  0  0  0  0
   42.1404   11.6706   16.0808 C   0  0  0  0  0  0  0  0  0  0  0  0
   40.8537   11.1988   15.8370 C   0  0  0  0  0  0  0  0  0  0  0  0
   40.5152    9.8599   16.0580 C   0  0  0  0  0  0  0  0  0  0  0  0
   41.4928    9.0014   16.5739 C   0  0  0  0  0  0  0  0  0  0  0  0
   42.7512    9.4876   16.8884 C   0  0  0  0  0  0  0  0  0  0  0  0
   43.0866   10.8115   16.6532 C   0  0  0  0  0  0  0  0  0  0  0  0
   40.9695   13.3137   13.2612 Br  0  0  0  0  0  0  0  0  0  0  0  0
   42.7060   15.8797   13.5145 O   0  0  0  0  0  0  0  0  0  0  0  0
   41.8880   17.0505   13.7519 C   0  0  0  0  0  0  0  0  0  0  0  0
   41.0241   17.4275   12.5411 C   0  0  0  0  0  0  0  0  0  0  0  0
   39.8299   17.7389   12.7866 O   0  0  0  0  0  0  0  0  0  0  0  0
   41.5868   17.4430   11.4093 O   0  0  0  0  0  0  0  0  0  0  0  0
   39.2178    9.4364   15.7860 N   0  0  0  0  0  0  0  0  0  0  0  0
   40.1217   11.8850   15.4401 H   0  0  0  0  0  0  0  0  0  0  0  0
   41.2912    7.9506   16.7151 H   0  0  0  0  0  0  0  0  0  0  0  0
   43.4872    8.8116   17.3127 H   0  0  0  0  0  0  0  0  0  0  0  0
   44.0741   11.1817   16.8908 H   0  0  0  0  0  0  0  0  0  0  0  0
   42.5781   17.8493   14.0045 H   0  0  0  0  0  0  0  0  0  0  0  0
   41.2434   16.8827   14.6138 H   0  0  0  0  0  0  0  0  0  0  0  0
   38.7227   10.1338   15.2396 H   0  0  0  0  0  0  0  0  0  0  0  0
   39.8876    7.7501   14.7286 H   0  0  0  0  0  0  0  0  0  0  0  0
   38.9802    8.0947   15.2379 C   0  0  0  0  0  0  0  0  0  0  0  0
   38.6783    7.0786   16.3379 C   0  0  0  0  0  0  0  0  0  0  0  0
   39.1695    5.6762   15.9907 C   0  0  0  0  0  0  0  0  0  0  0  0
   38.3946    4.9487   14.9014 C   0  0  0  0  0  0  0  0  0  0  0  0
   38.1936    5.7132   13.5967 C   0  0  0  0  0  0  0  0  0  0  0  0
   37.2435    6.9028   13.7302 C   0  0  0  0  0  0  0  0  0  0  0  0
   37.8712    8.2110   14.1958 C   0  0  0  0  0  0  0  0  0  0  0  0
   37.6054    7.0716   16.5577 H   0  0  0  0  0  0  0  0  0  0  0  0
   39.1662    7.4133   17.2524 H   0  0  0  0  0  0  0  0  0  0  0  0
   40.2140    5.7424   15.6880 H   0  0  0  0  0  0  0  0  0  0  0  0
   39.1623    5.0616   16.8943 H   0  0  0  0  0  0  0  0  0  0  0  0
   37.4109    4.6652   15.2895 H   0  0  0  0  0  0  0  0  0  0  0  0
   38.9143    4.0133   14.6865 H   0  0  0  0  0  0  0  0  0  0  0  0
   39.1612    6.0348   13.2068 H   0  0  0  0  0  0  0  0  0  0  0  0
   37.7869    5.0254   12.8513 H   0  0  0  0  0  0  0  0  0  0  0  0
   36.7393    7.0905   12.7772 H   0  0  0  0  0  0  0  0  0  0  0  0
   36.4477    6.6145   14.4217 H   0  0  0  0  0  0  0  0  0  0  0  0
   37.0883    8.8493   14.6132 H   0  0  0  0  0  0  0  0  0  0  0  0
   38.2750    8.7662   13.3452 H   0  0  0  0  0  0  0  0  0  0  0  0
  1  2  1  0
  1  5  1  0
  2  3  2  0
  2  6  1  0
  3  4  1  0
  3 16  1  0
  4  5  2  0
  4 15  1  0
  5  9  1  0
  6  7  2  0
  6  8  1  0
  9 10  2  0
  9 14  1  0
 10 11  1  0
 10 22  1  0
 11 12  2  0
 11 21  1  0
 12 13  1  0
 12 23  1  0
 13 14  2  0
 13 24  1  0
 14 25  1  0
 16 17  1  0
 17 18  1  0
 17 26  1  0
 17 27  1  0
 18 19  1  0
 18 20  2  0
 21 28  1  0
 21 30  1  0
 29 30  1  0
 30 31  1  0
 30 36  1  0
 31 32  1  0
 31 37  1  0
 31 38  1  0
 32 33  1  0
 32 39  1  0
 32 40  1  0
 33 34  1  0
 33 41  1  0
 33 42  1  0
 34 35  1  0
 34 43  1  0
 34 44  1  0
 35 36  1  0
 35 45  1  0
 35 46  1  0
 36 47  1  0
 36 48  1  0
M  CHG  2   8  -1  19  -1
M  END
>  <r_exp_dg>  (12) 
-9.41

>  <mol_id>  (12) 
11

>  <source_index>  (12) 
11

>  <paff>  (12) 
6.8988268676041855

>  <source_r_exp_dg>  (12) 
-9.4100000000000001

>  <smiles>  (12) 
O=C(O)COc1c(C(=O)O)sc(-c2cccc(NC3CCCCCC3)c2)c1Br

>  <aimnet_interaction_kcal_mol>  (12) 
-326.96816569200769

$$$$
ptp1b_012
     RDKit          3D

 29 30  0  0  1  0  0  0  0  0999 V2000
   43.5657   13.8878   16.8119 S   0  0  0  0  0  0  0  0  0  0  0  0
   43.5839   15.2768   15.7705 C   0  0  0  0  0  0  0  0  0  0  0  0
   42.8383   15.0499   14.6304 C   0  0  0  0  0  0  0  0  0  0  0  0
   42.1809   13.7978   14.6703 C   0  0  0  0  0  0  0  0  0  0  0  0
   42.4939   13.0109   15.7498 C   0  0  0  0  0  0  0  0  0  0  0  0
   44.2980   16.4816   16.2565 C   0  0  0  0  0  0  0  0  0  0  0  0
   44.7154   16.4755   17.4368 O   0  0  0  0  0  0  0  0  0  0  0  0
   44.3985   17.4261   15.4166 O   0  0  0  0  0  0  0  0  0  0  0  0
   42.1207   11.6495   16.0929 C   0  0  0  0  0  0  0  0  0  0  0  0
   40.8169   11.2004   15.8862 C   0  0  0  0  0  0  0  0  0  0  0  0
   40.4453    9.8933   16.1957 C   0  0  0  0  0  0  0  0  0  0  0  0
   41.3988    9.0367   16.7516 C   0  0  0  0  0  0  0  0  0  0  0  0
   42.6924    9.4792   16.9688 C   0  0  0  0  0  0  0  0  0  0  0  0
   43.0640   10.7748   16.6476 C   0  0  0  0  0  0  0  0  0  0  0  0
   40.9597   13.3308   13.2767 Br  0  0  0  0  0  0  0  0  0  0  0  0
   42.7080   15.8794   13.5503 O   0  0  0  0  0  0  0  0  0  0  0  0
   41.6294   16.8085   13.7714 C   0  0  0  0  0  0  0  0  0  0  0  0
   40.9677   17.3827   12.5147 C   0  0  0  0  0  0  0  0  0  0  0  0
   39.7921   17.7943   12.6988 O   0  0  0  0  0  0  0  0  0  0  0  0
   41.6258   17.4348   11.4406 O   0  0  0  0  0  0  0  0  0  0  0  0
   39.1247    9.4752   16.0125 N   0  0  0  0  0  0  0  0  0  0  0  0
   40.0971   11.8810   15.4605 H   0  0  0  0  0  0  0  0  0  0  0  0
   41.1215    8.0223   17.0101 H   0  0  0  0  0  0  0  0  0  0  0  0
   43.4194    8.7926   17.3906 H   0  0  0  0  0  0  0  0  0  0  0  0
   44.0794   11.1131   16.8040 H   0  0  0  0  0  0  0  0  0  0  0  0
   42.0383   17.6165   14.3710 H   0  0  0  0  0  0  0  0  0  0  0  0
   40.8556   16.3195   14.3598 H   0  0  0  0  0  0  0  0  0  0  0  0
   38.6548    9.9776   15.2703 H   0  0  0  0  0  0  0  0  0  0  0  0
   39.0412    8.4779   15.8842 H   0  0  0  0  0  0  0  0  0  0  0  0
  1  2  1  0
  1  5  1  0
  2  3  2  0
  2  6  1  0
  3  4  1  0
  3 16  1  0
  4  5  2  0
  4 15  1  0
  5  9  1  0
  6  7  2  0
  6  8  1  0
  9 10  2  0
  9 14  1  0
 10 11  1  0
 10 22  1  0
 11 12  2  0
 11 21  1  0
 12 13  1  0
 12 23  1  0
 13 14  2  0
 13 24  1  0
 14 25  1  0
 16 17  1  0
 17 18  1  0
 17 26  1  0
 17 27  1  0
 18 19  1  0
 18 20  2  0
 21 28  1  0
 21 29  1  0
M  CHG  2   8  -1  19  -1
M  END
>  <r_exp_dg>  (13) 
-7.85

>  <mol_id>  (13) 
12

>  <source_index>  (13) 
12

>  <paff>  (13) 
5.7551318948919121

>  <source_r_exp_dg>  (13) 
-7.8499999999999996

>  <smiles>  (13) 
Nc1cccc(-c2sc(C(=O)O)c(OCC(=O)O)c2Br)c1

>  <aimnet_interaction_kcal_mol>  (13) 
-317.50599861247201

$$$$
ptp1b_013
     RDKit          3D

 42 44  0  0  1  0  0  0  0  0999 V2000
   43.4718   13.7988   16.7727 S   0  0  0  0  0  0  0  0  0  0  0  0
   43.5247   15.2299   15.7913 C   0  0  0  0  0  0  0  0  0  0  0  0
   42.8091   15.0549   14.6221 C   0  0  0  0  0  0  0  0  0  0  0  0
   42.1419   13.8087   14.5935 C   0  0  0  0  0  0  0  0  0  0  0  0
   42.4141   12.9694   15.6487 C   0  0  0  0  0  0  0  0  0  0  0  0
   44.2667   16.3983   16.3254 C   0  0  0  0  0  0  0  0  0  0  0  0
   44.6620   16.3477   17.5118 O   0  0  0  0  0  0  0  0  0  0  0  0
   44.4229   17.3625   15.5120 O   0  0  0  0  0  0  0  0  0  0  0  0
   42.0347   11.5914   15.9174 C   0  0  0  0  0  0  0  0  0  0  0  0
   40.7890   11.0893   15.5297 C   0  0  0  0  0  0  0  0  0  0  0  0
   40.4088    9.7901   15.8540 C   0  0  0  0  0  0  0  0  0  0  0  0
   41.3147    8.9320   16.4673 C   0  0  0  0  0  0  0  0  0  0  0  0
   42.5542    9.4229   16.8482 C   0  0  0  0  0  0  0  0  0  0  0  0
   42.9150   10.7350   16.5954 C   0  0  0  0  0  0  0  0  0  0  0  0
   40.9841   13.4193   13.1242 Br  0  0  0  0  0  0  0  0  0  0  0  0
   42.7522   15.9026   13.5533 O   0  0  0  0  0  0  0  0  0  0  0  0
   41.9089   17.0543   13.7886 C   0  0  0  0  0  0  0  0  0  0  0  0
   41.0495   17.4333   12.5740 C   0  0  0  0  0  0  0  0  0  0  0  0
   39.8553   17.7476   12.8161 O   0  0  0  0  0  0  0  0  0  0  0  0
   41.6153   17.4510   11.4440 O   0  0  0  0  0  0  0  0  0  0  0  0
   39.0541    9.4436   15.6562 N   0  0  0  0  0  0  0  0  0  0  0  0
   38.5773    8.0224   14.8417 S   0  0  0  0  0  0  0  0  0  0  0  0
   40.1159   11.7234   14.9767 H   0  0  0  0  0  0  0  0  0  0  0  0
   41.0757    7.8964   16.6477 H   0  0  0  0  0  0  0  0  0  0  0  0
   43.2504    8.7568   17.3444 H   0  0  0  0  0  0  0  0  0  0  0  0
   43.8832   11.1025   16.9029 H   0  0  0  0  0  0  0  0  0  0  0  0
   42.5832   17.8640   14.0453 H   0  0  0  0  0  0  0  0  0  0  0  0
   41.2628   16.8764   14.6468 H   0  0  0  0  0  0  0  0  0  0  0  0
   38.5325   10.2108   15.2106 H   0  0  0  0  0  0  0  0  0  0  0  0
   38.7522    4.7514   17.9241 C   0  0  0  0  0  0  0  0  0  0  0  0
   38.0599    5.9151   18.2237 C   0  0  0  0  0  0  0  0  0  0  0  0
   38.0631    6.9402   17.2976 C   0  0  0  0  0  0  0  0  0  0  0  0
   38.7510    6.7781   16.1013 C   0  0  0  0  0  0  0  0  0  0  0  0
   39.4893    5.6347   15.8346 C   0  0  0  0  0  0  0  0  0  0  0  0
   39.4727    4.5979   16.7532 C   0  0  0  0  0  0  0  0  0  0  0  0
   38.7201    3.7394   18.8084 F   0  0  0  0  0  0  0  0  0  0  0  0
   37.5343    5.9962   19.1637 H   0  0  0  0  0  0  0  0  0  0  0  0
   37.5469    7.8711   17.4867 H   0  0  0  0  0  0  0  0  0  0  0  0
   40.0764    5.5649   14.9321 H   0  0  0  0  0  0  0  0  0  0  0  0
   40.0304    3.6906   16.5746 H   0  0  0  0  0  0  0  0  0  0  0  0
   39.4674    7.6824   13.7186 O   0  0  0  0  0  0  0  0  0  0  0  0
   37.1331    8.2567   14.6171 O   0  0  0  0  0  0  0  0  0  0  0  0
  1  2  1  0
  1  5  1  0
  2  3  2  0
  2  6  1  0
  3  4  1  0
  3 16  1  0
  4  5  2  0
  4 15  1  0
  5  9  1  0
  6  7  2  0
  6  8  1  0
  9 10  2  0
  9 14  1  0
 10 11  1  0
 10 23  1  0
 11 12  2  0
 11 21  1  0
 12 13  1  0
 12 24  1  0
 13 14  2  0
 13 25  1  0
 14 26  1  0
 16 17  1  0
 17 18  1  0
 17 27  1  0
 17 28  1  0
 18 19  1  0
 18 20  2  0
 21 22  1  0
 21 29  1  0
 22 33  1  0
 22 41  2  0
 22 42  2  0
 30 31  2  0
 30 35  1  0
 30 36  1  0
 31 32  1  0
 31 37  1  0
 32 33  2  0
 32 38  1  0
 33 34  1  0
 34 35  2  0
 34 39  1  0
 35 40  1  0
M  CHG  2   8  -1  19  -1
M  END
>  <r_exp_dg>  (14) 
-8.65

>  <mol_id>  (14) 
13

>  <source_index>  (14) 
13

>  <paff>  (14) 
6.3416419490691149

>  <source_r_exp_dg>  (14) 
-8.6500000000000004

>  <smiles>  (14) 
O=C(O)COc1c(C(=O)O)sc(-c2cccc(NS(=O)(=O)c3ccc(F)cc3)c2)c1Br

>  <aimnet_interaction_kcal_mol>  (14) 
-324.20771149617252

$$$$
ptp1b_014
     RDKit          3D

 50 52  0  0  1  0  0  0  0  0999 V2000
   43.5260   13.8099   16.8131 S   0  0  0  0  0  0  0  0  0  0  0  0
   43.5697   15.2215   15.8034 C   0  0  0  0  0  0  0  0  0  0  0  0
   42.8410   15.0217   14.6472 C   0  0  0  0  0  0  0  0  0  0  0  0
   42.1799   13.7706   14.6473 C   0  0  0  0  0  0  0  0  0  0  0  0
   42.4780   12.9480   15.7072 C   0  0  0  0  0  0  0  0  0  0  0  0
   44.2909   16.4116   16.3226 C   0  0  0  0  0  0  0  0  0  0  0  0
   44.7024   16.3742   17.5034 O   0  0  0  0  0  0  0  0  0  0  0  0
   44.4044   17.3731   15.5024 O   0  0  0  0  0  0  0  0  0  0  0  0
   42.1241   11.5650   15.9944 C   0  0  0  0  0  0  0  0  0  0  0  0
   40.8731   11.0601   15.6506 C   0  0  0  0  0  0  0  0  0  0  0  0
   40.5172    9.7352   15.9228 C   0  0  0  0  0  0  0  0  0  0  0  0
   41.4545    8.8980   16.5327 C   0  0  0  0  0  0  0  0  0  0  0  0
   42.6927    9.4024   16.8993 C   0  0  0  0  0  0  0  0  0  0  0  0
   43.0381   10.7188   16.6403 C   0  0  0  0  0  0  0  0  0  0  0  0
   40.9681   13.3720   13.2225 Br  0  0  0  0  0  0  0  0  0  0  0  0
   42.7342   15.8723   13.5812 O   0  0  0  0  0  0  0  0  0  0  0  0
   41.6839   16.8340   13.8065 C   0  0  0  0  0  0  0  0  0  0  0  0
   41.0027   17.3865   12.5474 C   0  0  0  0  0  0  0  0  0  0  0  0
   39.8214   17.7815   12.7317 O   0  0  0  0  0  0  0  0  0  0  0  0
   41.6556   17.4408   11.4700 O   0  0  0  0  0  0  0  0  0  0  0  0
   39.2207    9.3304   15.6312 N   0  0  0  0  0  0  0  0  0  0  0  0
   38.8607    7.9563   15.3463 C   0  0  0  0  0  0  0  0  0  0  0  0
   37.3443    7.9193   15.1903 C   0  0  0  0  0  0  0  0  0  0  0  0
   36.8318    6.5550   14.7834 C   0  0  0  0  0  0  0  0  0  0  0  0
   37.5072    6.1536   13.5595 N   0  0  0  0  0  0  0  0  0  0  0  0
   38.9578    6.0183   13.7149 C   0  0  0  0  0  0  0  0  0  0  0  0
   39.5320    7.3686   14.1040 C   0  0  0  0  0  0  0  0  0  0  0  0
   36.6795    5.1936   12.4814 S   0  0  0  0  0  0  0  0  0  0  0  0
   37.5232    4.9903   11.2913 O   0  0  0  0  0  0  0  0  0  0  0  0
   35.3453    5.8293   12.3342 O   0  0  0  0  0  0  0  0  0  0  0  0
   36.4541    3.6009   13.2748 C   0  0  0  0  0  0  0  0  0  0  0  0
   40.1652   11.7145   15.1666 H   0  0  0  0  0  0  0  0  0  0  0  0
   41.2319    7.8564   16.7138 H   0  0  0  0  0  0  0  0  0  0  0  0
   43.4067    8.7482   17.3900 H   0  0  0  0  0  0  0  0  0  0  0  0
   44.0142   11.0945   16.9143 H   0  0  0  0  0  0  0  0  0  0  0  0
   42.1335   17.6479   14.3671 H   0  0  0  0  0  0  0  0  0  0  0  0
   40.9147   16.3851   14.4318 H   0  0  0  0  0  0  0  0  0  0  0  0
   38.7434    9.9944   15.0324 H   0  0  0  0  0  0  0  0  0  0  0  0
   39.1428    7.3362   16.2034 H   0  0  0  0  0  0  0  0  0  0  0  0
   37.0592    8.6432   14.4258 H   0  0  0  0  0  0  0  0  0  0  0  0
   36.8719    8.2239   16.1278 H   0  0  0  0  0  0  0  0  0  0  0  0
   35.7640    6.5816   14.6024 H   0  0  0  0  0  0  0  0  0  0  0  0
   37.0159    5.8318   15.5905 H   0  0  0  0  0  0  0  0  0  0  0  0
   39.3868    5.6774   12.7823 H   0  0  0  0  0  0  0  0  0  0  0  0
   39.1997    5.2672   14.4750 H   0  0  0  0  0  0  0  0  0  0  0  0
   40.6003    7.2780   14.2736 H   0  0  0  0  0  0  0  0  0  0  0  0
   39.3950    8.0608   13.2754 H   0  0  0  0  0  0  0  0  0  0  0  0
   35.9174    3.7477   14.2052 H   0  0  0  0  0  0  0  0  0  0  0  0
   37.4281    3.1529   13.4424 H   0  0  0  0  0  0  0  0  0  0  0  0
   35.8692    2.9979   12.5877 H   0  0  0  0  0  0  0  0  0  0  0  0
  1  2  1  0
  1  5  1  0
  2  3  2  0
  2  6  1  0
  3  4  1  0
  3 16  1  0
  4  5  2  0
  4 15  1  0
  5  9  1  0
  6  7  2  0
  6  8  1  0
  9 10  2  0
  9 14  1  0
 10 11  1  0
 10 32  1  0
 11 12  2  0
 11 21  1  0
 12 13  1  0
 12 33  1  0
 13 14  2  0
 13 34  1  0
 14 35  1  0
 16 17  1  0
 17 18  1  0
 17 36  1  0
 17 37  1  0
 18 19  1  0
 18 20  2  0
 21 22  1  0
 21 38  1  0
 22 23  1  0
 22 27  1  0
 22 39  1  0
 23 24  1  0
 23 40  1  0
 23 41  1  0
 24 25  1  0
 24 42  1  0
 24 43  1  0
 25 26  1  0
 25 28  1  0
 26 27  1  0
 26 44  1  0
 26 45  1  0
 27 46  1  0
 27 47  1  0
 28 29  2  0
 28 30  2  0
 28 31  1  0
 31 48  1  0
 31 49  1  0
 31 50  1  0
M  CHG  2   8  -1  19  -1
M  END
>  <r_exp_dg>  (15) 
-10.01

>  <mol_id>  (15) 
14

>  <source_index>  (15) 
14

>  <paff>  (15) 
7.3387098452212864

>  <source_r_exp_dg>  (15) 
-10.01

>  <smiles>  (15) 
CS(=O)(=O)N1CCC(Nc2cccc(-c3sc(C(=O)O)c(OCC(=O)O)c3Br)c2)CC1

>  <aimnet_interaction_kcal_mol>  (15) 
-340.85241664462467

$$$$
ptp1b_015
     RDKit          3D

 60 63  0  0  1  0  0  0  0  0999 V2000
   43.5361   13.8123   16.8027 S   0  0  0  0  0  0  0  0  0  0  0  0
   43.5562   15.2102   15.7715 C   0  0  0  0  0  0  0  0  0  0  0  0
   42.8257   14.9837   14.6215 C   0  0  0  0  0  0  0  0  0  0  0  0
   42.1949   13.7167   14.6364 C   0  0  0  0  0  0  0  0  0  0  0  0
   42.4973   12.9218   15.7119 C   0  0  0  0  0  0  0  0  0  0  0  0
   44.2604   16.4145   16.2854 C   0  0  0  0  0  0  0  0  0  0  0  0
   44.6690   16.3810   17.4683 O   0  0  0  0  0  0  0  0  0  0  0  0
   44.3652   17.3777   15.4681 O   0  0  0  0  0  0  0  0  0  0  0  0
   42.1319   11.5457   16.0094 C   0  0  0  0  0  0  0  0  0  0  0  0
   40.8767   11.0524   15.6641 C   0  0  0  0  0  0  0  0  0  0  0  0
   40.5053    9.7347   15.9493 C   0  0  0  0  0  0  0  0  0  0  0  0
   41.4349    8.8902   16.5609 C   0  0  0  0  0  0  0  0  0  0  0  0
   42.6792    9.3833   16.9241 C   0  0  0  0  0  0  0  0  0  0  0  0
   43.0367   10.6957   16.6603 C   0  0  0  0  0  0  0  0  0  0  0  0
   41.1185   13.2572   13.3289 Cl  0  0  0  0  0  0  0  0  0  0  0  0
   42.6755   15.8192   13.5490 O   0  0  0  0  0  0  0  0  0  0  0  0
   41.5133   16.6445   13.7528 C   0  0  0  0  0  0  0  0  0  0  0  0
   40.9298   17.3329   12.5162 C   0  0  0  0  0  0  0  0  0  0  0  0
   39.7730   17.7936   12.7012 O   0  0  0  0  0  0  0  0  0  0  0  0
   41.6145   17.4106   11.4625 O   0  0  0  0  0  0  0  0  0  0  0  0
   39.2018    9.3429   15.6672 N   0  0  0  0  0  0  0  0  0  0  0  0
   38.8427    7.9761   15.3434 C   0  0  0  0  0  0  0  0  0  0  0  0
   37.3285    7.9473   15.1661 C   0  0  0  0  0  0  0  0  0  0  0  0
   36.8185    6.5974   14.7057 C   0  0  0  0  0  0  0  0  0  0  0  0
   37.5044    6.2375   13.4711 N   0  0  0  0  0  0  0  0  0  0  0  0
   38.9525    6.0907   13.6550 C   0  0  0  0  0  0  0  0  0  0  0  0
   39.5250    7.4280   14.0900 C   0  0  0  0  0  0  0  0  0  0  0  0
   36.7047    5.1780   12.4422 S   0  0  0  0  0  0  0  0  0  0  0  0
   37.5379    4.9713   11.2410 O   0  0  0  0  0  0  0  0  0  0  0  0
   35.3454    5.7652   12.2770 O   0  0  0  0  0  0  0  0  0  0  0  0
   36.5941    3.5969   13.3407 C   0  0  0  0  0  0  0  0  0  0  0  0
   36.0864    2.5276   12.4415 C   0  0  0  0  0  0  0  0  0  0  0  0
   36.9797    1.6902   11.7781 C   0  0  0  0  0  0  0  0  0  0  0  0
   36.5135    0.6968   10.9314 C   0  0  0  0  0  0  0  0  0  0  0  0
   35.1467    0.5594   10.7280 C   0  0  0  0  0  0  0  0  0  0  0  0
   34.2524    1.3845   11.3910 C   0  0  0  0  0  0  0  0  0  0  0  0
   34.7194    2.3747   12.2366 C   0  0  0  0  0  0  0  0  0  0  0  0
   40.1772   11.7110   15.1730 H   0  0  0  0  0  0  0  0  0  0  0  0
   41.2001    7.8522   16.7476 H   0  0  0  0  0  0  0  0  0  0  0  0
   43.3868    8.7245   17.4169 H   0  0  0  0  0  0  0  0  0  0  0  0
   44.0154   11.0645   16.9355 H   0  0  0  0  0  0  0  0  0  0  0  0
   41.7938   17.3965   14.4847 H   0  0  0  0  0  0  0  0  0  0  0  0
   40.7276   16.0380   14.2002 H   0  0  0  0  0  0  0  0  0  0  0  0
   38.7308   10.0148   15.0715 H   0  0  0  0  0  0  0  0  0  0  0  0
   39.1135    7.3298   16.1848 H   0  0  0  0  0  0  0  0  0  0  0  0
   37.0530    8.6992   14.4261 H   0  0  0  0  0  0  0  0  0  0  0  0
   36.8443    8.2186   16.1078 H   0  0  0  0  0  0  0  0  0  0  0  0
   35.7532    6.6303   14.5134 H   0  0  0  0  0  0  0  0  0  0  0  0
   36.9908    5.8495   15.4926 H   0  0  0  0  0  0  0  0  0  0  0  0
   39.4017    5.7706   12.7235 H   0  0  0  0  0  0  0  0  0  0  0  0
   39.1799    5.3220   14.4018 H   0  0  0  0  0  0  0  0  0  0  0  0
   40.5917    7.3318   14.2667 H   0  0  0  0  0  0  0  0  0  0  0  0
   39.3961    8.1467   13.2833 H   0  0  0  0  0  0  0  0  0  0  0  0
   35.9422    3.7974   14.1878 H   0  0  0  0  0  0  0  0  0  0  0  0
   37.6011    3.3943   13.6958 H   0  0  0  0  0  0  0  0  0  0  0  0
   38.0458    1.8162   11.9261 H   0  0  0  0  0  0  0  0  0  0  0  0
   37.2064    0.0276   10.4368 H   0  0  0  0  0  0  0  0  0  0  0  0
   34.7677   -0.1802   10.0371 H   0  0  0  0  0  0  0  0  0  0  0  0
   33.1906    1.2744   11.2321 H   0  0  0  0  0  0  0  0  0  0  0  0
   34.0170    3.0373   12.7287 H   0  0  0  0  0  0  0  0  0  0  0  0
  1  2  1  0
  1  5  1  0
  2  3  2  0
  2  6  1  0
  3  4  1  0
  3 16  1  0
  4  5  2  0
  4 15  1  0
  5  9  1  0
  6  7  2  0
  6  8  1  0
  9 10  2  0
  9 14  1  0
 10 11  1  0
 10 38  1  0
 11 12  2  0
 11 21  1  0
 12 13  1  0
 12 39  1  0
 13 14  2  0
 13 40  1  0
 14 41  1  0
 16 17  1  0
 17 18  1  0
 17 42  1  0
 17 43  1  0
 18 19  1  0
 18 20  2  0
 21 22  1  0
 21 44  1  0
 22 23  1  0
 22 27  1  0
 22 45  1  0
 23 24  1  0
 23 46  1  0
 23 47  1  0
 24 25  1  0
 24 48  1  0
 24 49  1  0
 25 26  1  0
 25 28  1  0
 26 27  1  0
 26 50  1  0
 26 51  1  0
 27 52  1  0
 27 53  1  0
 28 29  2  0
 28 30  2  0
 28 31  1  0
 31 32  1  0
 31 54  1  0
 31 55  1  0
 32 33  2  0
 32 37  1  0
 33 34  1  0
 33 56  1  0
 34 35  2  0
 34 57  1  0
 35 36  1  0
 35 58  1  0
 36 37  2  0
 36 59  1  0
 37 60  1  0
M  CHG  2   8  -1  19  -1
M  END
>  <r_exp_dg>  (16) 
-12.47

>  <mol_id>  (16) 
15

>  <source_index>  (16) 
15

>  <paff>  (16) 
9.1422289347718539

>  <source_r_exp_dg>  (16) 
-12.470000000000001

>  <smiles>  (16) 
O=C(O)COc1c(C(=O)O)sc(-c2cccc(NC3CCN(S(=O)(=O)Cc4ccccc4)CC3)c2)c1Cl

>  <aimnet_interaction_kcal_mol>  (16) 
-349.64606514854216

$$$$
ptp1b_016
     RDKit          3D

 42 43  0  0  1  0  0  0  0  0999 V2000
   43.6001   13.9163   16.8299 S   0  0  0  0  0  0  0  0  0  0  0  0
   43.5962   15.2834   15.7596 C   0  0  0  0  0  0  0  0  0  0  0  0
   42.8503   15.0249   14.6260 C   0  0  0  0  0  0  0  0  0  0  0  0
   42.2072   13.7673   14.6932 C   0  0  0  0  0  0  0  0  0  0  0  0
   42.5295   13.0105   15.7935 C   0  0  0  0  0  0  0  0  0  0  0  0
   44.2960   16.5057   16.2220 C   0  0  0  0  0  0  0  0  0  0  0  0
   44.7168   16.5211   17.4016 O   0  0  0  0  0  0  0  0  0  0  0  0
   44.3813   17.4407   15.3707 O   0  0  0  0  0  0  0  0  0  0  0  0
   42.1184   11.6751   16.1925 C   0  0  0  0  0  0  0  0  0  0  0  0
   40.8086   11.2557   15.9802 C   0  0  0  0  0  0  0  0  0  0  0  0
   40.3956    9.9775   16.3479 C   0  0  0  0  0  0  0  0  0  0  0  0
   41.2761    9.1301   17.0171 C   0  0  0  0  0  0  0  0  0  0  0  0
   42.5797    9.5526   17.2350 C   0  0  0  0  0  0  0  0  0  0  0  0
   43.0147   10.8017   16.8194 C   0  0  0  0  0  0  0  0  0  0  0  0
   40.9861   13.2656   13.3117 Br  0  0  0  0  0  0  0  0  0  0  0  0
   42.7040   15.8353   13.5325 O   0  0  0  0  0  0  0  0  0  0  0  0
   41.6474   16.7889   13.7654 C   0  0  0  0  0  0  0  0  0  0  0  0
   40.9691   17.3599   12.5143 C   0  0  0  0  0  0  0  0  0  0  0  0
   39.7897   17.7564   12.7057 O   0  0  0  0  0  0  0  0  0  0  0  0
   41.6213   17.4244   11.4375 O   0  0  0  0  0  0  0  0  0  0  0  0
   39.0919    9.6217   15.9750 N   0  0  0  0  0  0  0  0  0  0  0  0
   40.1258   11.9389   15.5006 H   0  0  0  0  0  0  0  0  0  0  0  0
   40.9466    8.1588   17.3436 H   0  0  0  0  0  0  0  0  0  0  0  0
   43.2622    8.8812   17.7435 H   0  0  0  0  0  0  0  0  0  0  0  0
   44.0395   11.1092   16.9721 H   0  0  0  0  0  0  0  0  0  0  0  0
   42.0892   17.5928   14.3474 H   0  0  0  0  0  0  0  0  0  0  0  0
   40.8765   16.3212   14.3752 H   0  0  0  0  0  0  0  0  0  0  0  0
   38.6611   10.3000   15.3523 H   0  0  0  0  0  0  0  0  0  0  0  0
   38.5311    8.3596   15.9523 C   0  0  0  0  0  0  0  0  0  0  0  0
   38.7744    7.4668   16.7492 O   0  0  0  0  0  0  0  0  0  0  0  0
   37.5752    8.2051   14.9447 N   0  0  0  0  0  0  0  0  0  0  0  0
   37.6360    8.8849   14.1998 H   0  0  0  0  0  0  0  0  0  0  0  0
   37.3354    6.8411   14.4602 C   0  0  0  0  0  0  0  0  0  0  0  0
   37.2023    6.2288   15.3494 H   0  0  0  0  0  0  0  0  0  0  0  0
   36.0528    6.8351   13.6525 C   0  0  0  0  0  0  0  0  0  0  0  0
   35.8069    5.8319   13.3092 H   0  0  0  0  0  0  0  0  0  0  0  0
   35.2285    7.2035   14.2538 H   0  0  0  0  0  0  0  0  0  0  0  0
   36.1477    7.4771   12.7760 H   0  0  0  0  0  0  0  0  0  0  0  0
   38.5178    6.2984   13.6728 C   0  0  0  0  0  0  0  0  0  0  0  0
   38.7284    6.9299   12.8083 H   0  0  0  0  0  0  0  0  0  0  0  0
   39.4095    6.2603   14.2892 H   0  0  0  0  0  0  0  0  0  0  0  0
   38.3172    5.2910   13.3103 H   0  0  0  0  0  0  0  0  0  0  0  0
  1  2  1  0
  1  5  1  0
  2  3  2  0
  2  6  1  0
  3  4  1  0
  3 16  1  0
  4  5  2  0
  4 15  1  0
  5  9  1  0
  6  7  2  0
  6  8  1  0
  9 10  2  0
  9 14  1  0
 10 11  1  0
 10 22  1  0
 11 12  2  0
 11 21  1  0
 12 13  1  0
 12 23  1  0
 13 14  2  0
 13 24  1  0
 14 25  1  0
 16 17  1  0
 17 18  1  0
 17 26  1  0
 17 27  1  0
 18 19  1  0
 18 20  2  0
 21 28  1  0
 21 29  1  0
 29 30  2  0
 29 31  1  0
 31 32  1  0
 31 33  1  0
 33 34  1  0
 33 35  1  0
 33 39  1  0
 35 36  1  0
 35 37  1  0
 35 38  1  0
 39 40  1  0
 39 41  1  0
 39 42  1  0
M  CHG  2   8  -1  19  -1
M  END
>  <r_exp_dg>  (17) 
-7.72

>  <mol_id>  (17) 
16

>  <source_index>  (17) 
16

>  <paff>  (17) 
5.6598238931023825

>  <source_r_exp_dg>  (17) 
-7.7199999999999998

>  <smiles>  (17) 
CC(C)NC(=O)Nc1cccc(-c2sc(C(=O)O)c(OCC(=O)O)c2Br)c1

>  <aimnet_interaction_kcal_mol>  (17) 
-323.84608932325614

$$$$
ptp1b_017
     RDKit          3D

 37 38  0  0  1  0  0  0  0  0999 V2000
   43.5462   13.9146   16.8089 S   0  0  0  0  0  0  0  0  0  0  0  0
   43.5539   15.2975   15.7624 C   0  0  0  0  0  0  0  0  0  0  0  0
   42.8228   15.0573   14.6148 C   0  0  0  0  0  0  0  0  0  0  0  0
   42.1789   13.7989   14.6535 C   0  0  0  0  0  0  0  0  0  0  0  0
   42.4799   13.0253   15.7499 C   0  0  0  0  0  0  0  0  0  0  0  0
   44.2768   16.5015   16.2318 C   0  0  0  0  0  0  0  0  0  0  0  0
   44.6840   16.5128   17.4165 O   0  0  0  0  0  0  0  0  0  0  0  0
   44.4047   17.4332   15.3792 O   0  0  0  0  0  0  0  0  0  0  0  0
   42.0700   11.6843   16.1310 C   0  0  0  0  0  0  0  0  0  0  0  0
   40.8151   11.1931   15.7714 C   0  0  0  0  0  0  0  0  0  0  0  0
   40.4167    9.9114   16.1386 C   0  0  0  0  0  0  0  0  0  0  0  0
   41.2266    9.1321   16.9569 C   0  0  0  0  0  0  0  0  0  0  0  0
   42.4740    9.6209   17.3197 C   0  0  0  0  0  0  0  0  0  0  0  0
   42.9109   10.8659   16.8977 C   0  0  0  0  0  0  0  0  0  0  0  0
   41.0057   13.3280   13.2202 Br  0  0  0  0  0  0  0  0  0  0  0  0
   42.7221   15.8653   13.5180 O   0  0  0  0  0  0  0  0  0  0  0  0
   41.8934   17.0287   13.7564 C   0  0  0  0  0  0  0  0  0  0  0  0
   41.0311   17.4117   12.5458 C   0  0  0  0  0  0  0  0  0  0  0  0
   39.8353   17.7162   12.7919 O   0  0  0  0  0  0  0  0  0  0  0  0
   41.5956   17.4400   11.4153 O   0  0  0  0  0  0  0  0  0  0  0  0
   39.2191    9.4439   15.5661 N   0  0  0  0  0  0  0  0  0  0  0  0
   40.1587   11.8239   15.1965 H   0  0  0  0  0  0  0  0  0  0  0  0
   40.8961    8.1629   17.2923 H   0  0  0  0  0  0  0  0  0  0  0  0
   43.1089    9.0137   17.9527 H   0  0  0  0  0  0  0  0  0  0  0  0
   43.8990   11.2154   17.1604 H   0  0  0  0  0  0  0  0  0  0  0  0
   42.5776   17.8299   14.0170 H   0  0  0  0  0  0  0  0  0  0  0  0
   41.2467   16.8518   14.6144 H   0  0  0  0  0  0  0  0  0  0  0  0
   38.8466   10.0632   14.8556 H   0  0  0  0  0  0  0  0  0  0  0  0
   38.3483    8.4918   16.0172 C   0  0  0  0  0  0  0  0  0  0  0  0
   38.3939    7.9605   17.1182 O   0  0  0  0  0  0  0  0  0  0  0  0
   37.2808    8.1124   14.9996 C   0  0  0  0  0  0  0  0  0  0  0  0
   36.3203    8.1914   15.5113 H   0  0  0  0  0  0  0  0  0  0  0  0
   37.2637    8.8115   14.1642 H   0  0  0  0  0  0  0  0  0  0  0  0
   37.4667    6.6823   14.5090 C   0  0  0  0  0  0  0  0  0  0  0  0
   36.6682    6.4022   13.8226 H   0  0  0  0  0  0  0  0  0  0  0  0
   38.4164    6.5649   13.9899 H   0  0  0  0  0  0  0  0  0  0  0  0
   37.4592    5.9889   15.3464 H   0  0  0  0  0  0  0  0  0  0  0  0
  1  2  1  0
  1  5  1  0
  2  3  2  0
  2  6  1  0
  3  4  1  0
  3 16  1  0
  4  5  2  0
  4 15  1  0
  5  9  1  0
  6  7  2  0
  6  8  1  0
  9 10  2  0
  9 14  1  0
 10 11  1  0
 10 22  1  0
 11 12  2  0
 11 21  1  0
 12 13  1  0
 12 23  1  0
 13 14  2  0
 13 24  1  0
 14 25  1  0
 16 17  1  0
 17 18  1  0
 17 26  1  0
 17 27  1  0
 18 19  1  0
 18 20  2  0
 21 28  1  0
 21 29  1  0
 29 30  2  0
 29 31  1  0
 31 32  1  0
 31 33  1  0
 31 34  1  0
 34 35  1  0
 34 36  1  0
 34 37  1  0
M  CHG  2   8  -1  19  -1
M  END
>  <r_exp_dg>  (18) 
-7.75

>  <mol_id>  (18) 
17

>  <source_index>  (18) 
17

>  <paff>  (18) 
5.6818181818181817

>  <source_r_exp_dg>  (18) 
-7.75

>  <smiles>  (18) 
CCC(=O)Nc1cccc(-c2sc(C(=O)O)c(OCC(=O)O)c2Br)c1

>  <aimnet_interaction_kcal_mol>  (18) 
-318.08705684178074

$$$$
ptp1b_018
     RDKit          3D

 63 66  0  0  1  0  0  0  0  0999 V2000
   43.5690   13.8435   16.8242 S   0  0  0  0  0  0  0  0  0  0  0  0
   43.5777   15.2252   15.7702 C   0  0  0  0  0  0  0  0  0  0  0  0
   42.8421   14.9660   14.6319 C   0  0  0  0  0  0  0  0  0  0  0  0
   42.1990   13.7017   14.6352 C   0  0  0  0  0  0  0  0  0  0  0  0
   42.5312   12.9471   15.7432 C   0  0  0  0  0  0  0  0  0  0  0  0
   44.2680   16.4453   16.2606 C   0  0  0  0  0  0  0  0  0  0  0  0
   44.6811   16.4397   17.4443 O   0  0  0  0  0  0  0  0  0  0  0  0
   44.3630   17.4013   15.4312 O   0  0  0  0  0  0  0  0  0  0  0  0
   42.1623   11.5783   16.0743 C   0  0  0  0  0  0  0  0  0  0  0  0
   40.9020   11.0863   15.7401 C   0  0  0  0  0  0  0  0  0  0  0  0
   40.5342    9.7635   16.0032 C   0  0  0  0  0  0  0  0  0  0  0  0
   41.4675    8.9132   16.6007 C   0  0  0  0  0  0  0  0  0  0  0  0
   42.7073    9.4079   16.9752 C   0  0  0  0  0  0  0  0  0  0  0  0
   43.0600   10.7256   16.7316 C   0  0  0  0  0  0  0  0  0  0  0  0
   41.2976   13.2828   13.5294 C   0  0  0  0  0  0  0  0  0  0  0  0
   42.6870   15.7946   13.5465 O   0  0  0  0  0  0  0  0  0  0  0  0
   41.5058   16.5948   13.7388 C   0  0  0  0  0  0  0  0  0  0  0  0
   40.9038   17.2819   12.5094 C   0  0  0  0  0  0  0  0  0  0  0  0
   39.7480   17.7399   12.7083 O   0  0  0  0  0  0  0  0  0  0  0  0
   41.5744   17.3641   11.4465 O   0  0  0  0  0  0  0  0  0  0  0  0
   39.2326    9.3718   15.7123 N   0  0  0  0  0  0  0  0  0  0  0  0
   38.8808    8.0027   15.3908 C   0  0  0  0  0  0  0  0  0  0  0  0
   37.3664    7.9588   15.2222 C   0  0  0  0  0  0  0  0  0  0  0  0
   36.8694    6.6033   14.7634 C   0  0  0  0  0  0  0  0  0  0  0  0
   37.5548    6.2514   13.5271 N   0  0  0  0  0  0  0  0  0  0  0  0
   39.0053    6.1186   13.7049 C   0  0  0  0  0  0  0  0  0  0  0  0
   39.5628    7.4633   14.1338 C   0  0  0  0  0  0  0  0  0  0  0  0
   36.7600    5.2009   12.4872 S   0  0  0  0  0  0  0  0  0  0  0  0
   37.5931    5.0212   11.2822 O   0  0  0  0  0  0  0  0  0  0  0  0
   35.3947    5.7757   12.3317 O   0  0  0  0  0  0  0  0  0  0  0  0
   36.6719    3.6075   13.3662 C   0  0  0  0  0  0  0  0  0  0  0  0
   36.1539    2.5445   12.4644 C   0  0  0  0  0  0  0  0  0  0  0  0
   37.0358    1.6965   11.7992 C   0  0  0  0  0  0  0  0  0  0  0  0
   36.5564    0.7168   10.9437 C   0  0  0  0  0  0  0  0  0  0  0  0
   35.1884    0.6019   10.7345 C   0  0  0  0  0  0  0  0  0  0  0  0
   34.3048    1.4332   11.4049 C   0  0  0  0  0  0  0  0  0  0  0  0
   34.7850    2.4089   12.2597 C   0  0  0  0  0  0  0  0  0  0  0  0
   40.1880   11.7512   15.2768 H   0  0  0  0  0  0  0  0  0  0  0  0
   41.2379    7.8711   16.7696 H   0  0  0  0  0  0  0  0  0  0  0  0
   43.4153    8.7452   17.4630 H   0  0  0  0  0  0  0  0  0  0  0  0
   44.0300   11.0988   17.0302 H   0  0  0  0  0  0  0  0  0  0  0  0
   41.7651   17.3501   14.4749 H   0  0  0  0  0  0  0  0  0  0  0  0
   40.7306   15.9720   14.1841 H   0  0  0  0  0  0  0  0  0  0  0  0
   38.7613   10.0401   15.1130 H   0  0  0  0  0  0  0  0  0  0  0  0
   39.1623    7.3599   16.2307 H   0  0  0  0  0  0  0  0  0  0  0  0
   37.0796    8.7076   14.4830 H   0  0  0  0  0  0  0  0  0  0  0  0
   36.8825    8.2245   16.1659 H   0  0  0  0  0  0  0  0  0  0  0  0
   35.8031    6.6254   14.5749 H   0  0  0  0  0  0  0  0  0  0  0  0
   37.0522    5.8563   15.5489 H   0  0  0  0  0  0  0  0  0  0  0  0
   39.4534    5.8009   12.7724 H   0  0  0  0  0  0  0  0  0  0  0  0
   39.2423    5.3542   14.4528 H   0  0  0  0  0  0  0  0  0  0  0  0
   40.6320    7.3828   14.3034 H   0  0  0  0  0  0  0  0  0  0  0  0
   39.4166    8.1782   13.3260 H   0  0  0  0  0  0  0  0  0  0  0  0
   36.0335    3.7948   14.2267 H   0  0  0  0  0  0  0  0  0  0  0  0
   37.6857    3.4069   13.7028 H   0  0  0  0  0  0  0  0  0  0  0  0
   38.1031    1.8006   11.9544 H   0  0  0  0  0  0  0  0  0  0  0  0
   37.2404    0.0386   10.4490 H   0  0  0  0  0  0  0  0  0  0  0  0
   34.8014   -0.1257   10.0353 H   0  0  0  0  0  0  0  0  0  0  0  0
   33.2418    1.3373   11.2450 H   0  0  0  0  0  0  0  0  0  0  0  0
   34.0923    3.0737   12.7619 H   0  0  0  0  0  0  0  0  0  0  0  0
   41.4417   12.2341   13.2833 H   0  0  0  0  0  0  0  0  0  0  0  0
   40.2444   13.4042   13.7831 H   0  0  0  0  0  0  0  0  0  0  0  0
   41.4802   13.8814   12.6376 H   0  0  0  0  0  0  0  0  0  0  0  0
  1  2  1  0
  1  5  1  0
  2  3  2  0
  2  6  1  0
  3  4  1  0
  3 16  1  0
  4  5  2  0
  4 15  1  0
  5  9  1  0
  6  7  2  0
  6  8  1  0
  9 10  2  0
  9 14  1  0
 10 11  1  0
 10 38  1  0
 11 12  2  0
 11 21  1  0
 12 13  1  0
 12 39  1  0
 13 14  2  0
 13 40  1  0
 14 41  1  0
 15 61  1  0
 15 62  1  0
 15 63  1  0
 16 17  1  0
 17 18  1  0
 17 42  1  0
 17 43  1  0
 18 19  1  0
 18 20  2  0
 21 22  1  0
 21 44  1  0
 22 23  1  0
 22 27  1  0
 22 45  1  0
 23 24  1  0
 23 46  1  0
 23 47  1  0
 24 25  1  0
 24 48  1  0
 24 49  1  0
 25 26  1  0
 25 28  1  0
 26 27  1  0
 26 50  1  0
 26 51  1  0
 27 52  1  0
 27 53  1  0
 28 29  2  0
 28 30  2  0
 28 31  1  0
 31 32  1  0
 31 54  1  0
 31 55  1  0
 32 33  2  0
 32 37  1  0
 33 34  1  0
 33 56  1  0
 34 35  2  0
 34 57  1  0
 35 36  1  0
 35 58  1  0
 36 37  2  0
 36 59  1  0
 37 60  1  0
M  CHG  2   8  -1  19  -1
M  END
>  <r_exp_dg>  (19) 
-11.01

>  <mol_id>  (19) 
18

>  <source_index>  (19) 
18

>  <paff>  (19) 
8.071847675133311

>  <source_r_exp_dg>  (19) 
-11.01

>  <smiles>  (19) 
Cc1c(-c2cccc(NC3CCN(S(=O)(=O)Cc4ccccc4)CC3)c2)sc(C(=O)O)c1OCC(=O)O

>  <aimnet_interaction_kcal_mol>  (19) 
-346.75404958764875

$$$$
ptp1b_019
     RDKit          3D

 57 59  0  0  1  0  0  0  0  0999 V2000
   43.5675   13.9369   16.7886 S   0  0  0  0  0  0  0  0  0  0  0  0
   43.5526   15.3209   15.7403 C   0  0  0  0  0  0  0  0  0  0  0  0
   42.8137   15.0750   14.5986 C   0  0  0  0  0  0  0  0  0  0  0  0
   42.1780   13.8127   14.6472 C   0  0  0  0  0  0  0  0  0  0  0  0
   42.5062   13.0405   15.7333 C   0  0  0  0  0  0  0  0  0  0  0  0
   44.2741   16.5263   16.2015 C   0  0  0  0  0  0  0  0  0  0  0  0
   44.6860   16.5430   17.3856 O   0  0  0  0  0  0  0  0  0  0  0  0
   44.3997   17.4563   15.3465 O   0  0  0  0  0  0  0  0  0  0  0  0
   42.1338   11.6828   16.0868 C   0  0  0  0  0  0  0  0  0  0  0  0
   40.8289   11.2427   15.8928 C   0  0  0  0  0  0  0  0  0  0  0  0
   40.4453    9.9373   16.2128 C   0  0  0  0  0  0  0  0  0  0  0  0
   41.3985    9.0806   16.7724 C   0  0  0  0  0  0  0  0  0  0  0  0
   42.6973    9.5188   16.9757 C   0  0  0  0  0  0  0  0  0  0  0  0
   43.0770   10.8077   16.6403 C   0  0  0  0  0  0  0  0  0  0  0  0
   40.9726   13.2999   13.2582 Br  0  0  0  0  0  0  0  0  0  0  0  0
   42.7031   15.8776   13.4986 O   0  0  0  0  0  0  0  0  0  0  0  0
   41.8816   17.0451   13.7402 C   0  0  0  0  0  0  0  0  0  0  0  0
   41.0176   17.4241   12.5307 C   0  0  0  0  0  0  0  0  0  0  0  0
   39.8234   17.7346   12.7775 O   0  0  0  0  0  0  0  0  0  0  0  0
   41.5800   17.4416   11.3988 O   0  0  0  0  0  0  0  0  0  0  0  0
   39.1263    9.5517   15.9924 N   0  0  0  0  0  0  0  0  0  0  0  0
   38.8114    8.1508   15.7060 C   0  0  0  0  0  0  0  0  0  0  0  0
   38.2443    7.4779   16.9451 C   0  0  0  0  0  0  0  0  0  0  0  0
   37.8118    6.0288   16.7300 C   0  0  0  0  0  0  0  0  0  0  0  0
   36.8985    5.9568   15.4984 C   0  0  0  0  0  0  0  0  0  0  0  0
   37.3484    6.6733   14.2168 C   0  0  0  0  0  0  0  0  0  0  0  0
   37.8095    8.0868   14.5630 C   0  0  0  0  0  0  0  0  0  0  0  0
   40.1140   11.9298   15.4671 H   0  0  0  0  0  0  0  0  0  0  0  0
   41.1384    8.0730   17.0563 H   0  0  0  0  0  0  0  0  0  0  0  0
   43.4244    8.8344   17.4017 H   0  0  0  0  0  0  0  0  0  0  0  0
   44.0941   11.1423   16.7898 H   0  0  0  0  0  0  0  0  0  0  0  0
   42.5689   17.8449   13.9978 H   0  0  0  0  0  0  0  0  0  0  0  0
   41.2364   16.8707   14.6001 H   0  0  0  0  0  0  0  0  0  0  0  0
   38.6717   10.1783   15.3334 H   0  0  0  0  0  0  0  0  0  0  0  0
   39.7191    7.6272   15.4008 H   0  0  0  0  0  0  0  0  0  0  0  0
   37.3849    8.0781   17.2632 H   0  0  0  0  0  0  0  0  0  0  0  0
   38.9712    7.5326   17.7560 H   0  0  0  0  0  0  0  0  0  0  0  0
   38.2419    8.5585   13.6785 H   0  0  0  0  0  0  0  0  0  0  0  0
   36.9491    8.7021   14.8466 H   0  0  0  0  0  0  0  0  0  0  0  0
   36.1370    6.7768   13.2892 C   0  0  0  0  0  0  0  0  0  0  0  0
   35.8059    5.7894   12.9652 H   0  0  0  0  0  0  0  0  0  0  0  0
   35.3026    7.2664   13.7865 H   0  0  0  0  0  0  0  0  0  0  0  0
   36.3733    7.3666   12.4043 H   0  0  0  0  0  0  0  0  0  0  0  0
   38.4419    5.9137   13.4664 C   0  0  0  0  0  0  0  0  0  0  0  0
   38.6273    6.3724   12.4946 H   0  0  0  0  0  0  0  0  0  0  0  0
   39.3927    5.8930   13.9846 H   0  0  0  0  0  0  0  0  0  0  0  0
   38.1466    4.8794   13.2946 H   0  0  0  0  0  0  0  0  0  0  0  0
   37.0044    5.5711   17.9456 C   0  0  0  0  0  0  0  0  0  0  0  0
   36.6649    4.5427   17.8226 H   0  0  0  0  0  0  0  0  0  0  0  0
   37.6030    5.6143   18.8549 H   0  0  0  0  0  0  0  0  0  0  0  0
   36.1260    6.1991   18.1014 H   0  0  0  0  0  0  0  0  0  0  0  0
   39.0233    5.1074   16.6123 C   0  0  0  0  0  0  0  0  0  0  0  0
   38.7096    4.0890   16.3843 H   0  0  0  0  0  0  0  0  0  0  0  0
   39.7279    5.4076   15.8459 H   0  0  0  0  0  0  0  0  0  0  0  0
   39.5714    5.0819   17.5529 H   0  0  0  0  0  0  0  0  0  0  0  0
   35.9366    6.3938   15.7871 H   0  0  0  0  0  0  0  0  0  0  0  0
   36.6971    4.9091   15.2685 H   0  0  0  0  0  0  0  0  0  0  0  0
  1  2  1  0
  1  5  1  0
  2  3  2  0
  2  6  1  0
  3  4  1  0
  3 16  1  0
  4  5  2  0
  4 15  1  0
  5  9  1  0
  6  7  2  0
  6  8  1  0
  9 10  2  0
  9 14  1  0
 10 11  1  0
 10 28  1  0
 11 12  2  0
 11 21  1  0
 12 13  1  0
 12 29  1  0
 13 14  2  0
 13 30  1  0
 14 31  1  0
 16 17  1  0
 17 18  1  0
 17 32  1  0
 17 33  1  0
 18 19  1  0
 18 20  2  0
 21 22  1  0
 21 34  1  0
 22 23  1  0
 22 27  1  0
 22 35  1  0
 23 24  1  0
 23 36  1  0
 23 37  1  0
 24 25  1  0
 24 48  1  0
 24 52  1  0
 25 26  1  0
 25 56  1  0
 25 57  1  0
 26 27  1  0
 26 40  1  0
 26 44  1  0
 27 38  1  0
 27 39  1  0
 40 41  1  0
 40 42  1  0
 40 43  1  0
 44 45  1  0
 44 46  1  0
 44 47  1  0
 48 49  1  0
 48 50  1  0
 48 51  1  0
 52 53  1  0
 52 54  1  0
 52 55  1  0
M  CHG  2   8  -1  19  -1
M  END
>  <r_exp_dg>  (20) 
-10.13

>  <mol_id>  (20) 
19

>  <source_index>  (20) 
19

>  <paff>  (20) 
7.426686300909763

>  <source_r_exp_dg>  (20) 
-10.130000000000001

>  <smiles>  (20) 
CC1(C)CC(Nc2cccc(-c3sc(C(=O)O)c(OCC(=O)O)c3Br)c2)CC(C)(C)C1

>  <aimnet_interaction_kcal_mol>  (20) 
-329.01139240187007

$$$$
ptp1b_020
     RDKit          3D

 45 47  0  0  1  0  0  0  0  0999 V2000
   43.5346   13.8857   16.7976 S   0  0  0  0  0  0  0  0  0  0  0  0
   43.5429   15.2849   15.7698 C   0  0  0  0  0  0  0  0  0  0  0  0
   42.8133   15.0591   14.6181 C   0  0  0  0  0  0  0  0  0  0  0  0
   42.1717   13.7981   14.6408 C   0  0  0  0  0  0  0  0  0  0  0  0
   42.4875   13.0009   15.7134 C   0  0  0  0  0  0  0  0  0  0  0  0
   44.2702   16.4806   16.2543 C   0  0  0  0  0  0  0  0  0  0  0  0
   44.6796   16.4769   17.4382 O   0  0  0  0  0  0  0  0  0  0  0  0
   44.4014   17.4217   15.4115 O   0  0  0  0  0  0  0  0  0  0  0  0
   42.1429   11.6239   16.0287 C   0  0  0  0  0  0  0  0  0  0  0  0
   40.8732   11.1287   15.7479 C   0  0  0  0  0  0  0  0  0  0  0  0
   40.5292    9.8010   16.0226 C   0  0  0  0  0  0  0  0  0  0  0  0
   41.4943    8.9650   16.5959 C   0  0  0  0  0  0  0  0  0  0  0  0
   42.7484    9.4641   16.9088 C   0  0  0  0  0  0  0  0  0  0  0  0
   43.0851   10.7802   16.6339 C   0  0  0  0  0  0  0  0  0  0  0  0
   40.9714   13.3344   13.2285 Br  0  0  0  0  0  0  0  0  0  0  0  0
   42.7184   15.8758   13.5270 O   0  0  0  0  0  0  0  0  0  0  0  0
   41.8881   17.0373   13.7661 C   0  0  0  0  0  0  0  0  0  0  0  0
   41.0341   17.4249   12.5509 C   0  0  0  0  0  0  0  0  0  0  0  0
   39.8395   17.7393   12.7911 O   0  0  0  0  0  0  0  0  0  0  0  0
   41.6033   17.4458   11.4226 O   0  0  0  0  0  0  0  0  0  0  0  0
   39.2327    9.3764   15.7569 N   0  0  0  0  0  0  0  0  0  0  0  0
   38.9309    7.9848   15.4404 C   0  0  0  0  0  0  0  0  0  0  0  0
   37.4186    7.8357   15.3129 C   0  0  0  0  0  0  0  0  0  0  0  0
   37.0173    6.4050   14.9857 C   0  0  0  0  0  0  0  0  0  0  0  0
   37.7170    5.8991   13.7313 C   0  0  0  0  0  0  0  0  0  0  0  0
   39.2258    6.0472   13.8504 C   0  0  0  0  0  0  0  0  0  0  0  0
   39.6213    7.4764   14.1792 C   0  0  0  0  0  0  0  0  0  0  0  0
   40.1503   11.7902   15.2978 H   0  0  0  0  0  0  0  0  0  0  0  0
   41.2835    7.9226   16.7826 H   0  0  0  0  0  0  0  0  0  0  0  0
   43.4810    8.8052   17.3657 H   0  0  0  0  0  0  0  0  0  0  0  0
   44.0717   11.1569   16.8660 H   0  0  0  0  0  0  0  0  0  0  0  0
   42.5698   17.8384   14.0334 H   0  0  0  0  0  0  0  0  0  0  0  0
   41.2356   16.8570   14.6193 H   0  0  0  0  0  0  0  0  0  0  0  0
   38.7517   10.0167   15.1362 H   0  0  0  0  0  0  0  0  0  0  0  0
   39.2606    7.3672   16.2799 H   0  0  0  0  0  0  0  0  0  0  0  0
   37.0684    8.5105   14.5237 H   0  0  0  0  0  0  0  0  0  0  0  0
   36.9426    8.1668   16.2415 H   0  0  0  0  0  0  0  0  0  0  0  0
   35.9317    6.3336   14.8734 H   0  0  0  0  0  0  0  0  0  0  0  0
   37.2850    5.7583   15.8261 H   0  0  0  0  0  0  0  0  0  0  0  0
   39.7139    5.7331   12.9291 H   0  0  0  0  0  0  0  0  0  0  0  0
   39.6016    5.3861   14.6333 H   0  0  0  0  0  0  0  0  0  0  0  0
   40.6959    7.5585   14.3053 H   0  0  0  0  0  0  0  0  0  0  0  0
   39.3540    8.1343   13.3480 H   0  0  0  0  0  0  0  0  0  0  0  0
   37.4481    4.8599   13.5368 H   0  0  0  0  0  0  0  0  0  0  0  0
   37.3625    6.4723   12.8671 H   0  0  0  0  0  0  0  0  0  0  0  0
  1  2  1  0
  1  5  1  0
  2  3  2  0
  2  6  1  0
  3  4  1  0
  3 16  1  0
  4  5  2  0
  4 15  1  0
  5  9  1  0
  6  7  2  0
  6  8  1  0
  9 10  2  0
  9 14  1  0
 10 11  1  0
 10 28  1  0
 11 12  2  0
 11 21  1  0
 12 13  1  0
 12 29  1  0
 13 14  2  0
 13 30  1  0
 14 31  1  0
 16 17  1  0
 17 18  1  0
 17 32  1  0
 17 33  1  0
 18 19  1  0
 18 20  2  0
 21 22  1  0
 21 34  1  0
 22 23  1  0
 22 27  1  0
 22 35  1  0
 23 24  1  0
 23 36  1  0
 23 37  1  0
 24 25  1  0
 24 38  1  0
 24 39  1  0
 25 26  1  0
 25 44  1  0
 25 45  1  0
 26 27  1  0
 26 40  1  0
 26 41  1  0
 27 42  1  0
 27 43  1  0
M  CHG  2   8  -1  19  -1
M  END
>  <r_exp_dg>  (21) 
-9.08

>  <mol_id>  (21) 
20

>  <source_index>  (21) 
20

>  <paff>  (21) 
6.656891439667195

>  <source_r_exp_dg>  (21) 
-9.0800000000000001

>  <smiles>  (21) 
O=C(O)COc1c(C(=O)O)sc(-c2cccc(NC3CCCCC3)c2)c1Br

>  <aimnet_interaction_kcal_mol>  (21) 
-324.95471988796425

$$$$
ptp1b_021
     RDKit          3D

 49 51  0  0  1  0  0  0  0  0999 V2000
   43.4833   13.8146   16.7847 S   0  0  0  0  0  0  0  0  0  0  0  0
   43.5191   15.2347   15.7871 C   0  0  0  0  0  0  0  0  0  0  0  0
   42.7990   15.0389   14.6241 C   0  0  0  0  0  0  0  0  0  0  0  0
   42.1433   13.7845   14.6142 C   0  0  0  0  0  0  0  0  0  0  0  0
   42.4369   12.9571   15.6712 C   0  0  0  0  0  0  0  0  0  0  0  0
   44.2551   16.4137   16.3070 C   0  0  0  0  0  0  0  0  0  0  0  0
   44.6545   16.3755   17.4928 O   0  0  0  0  0  0  0  0  0  0  0  0
   44.4038   17.3729   15.4868 O   0  0  0  0  0  0  0  0  0  0  0  0
   42.0930   11.5679   15.9488 C   0  0  0  0  0  0  0  0  0  0  0  0
   40.8559   11.0376   15.5850 C   0  0  0  0  0  0  0  0  0  0  0  0
   40.5070    9.7179   15.8929 C   0  0  0  0  0  0  0  0  0  0  0  0
   41.4368    8.9206   16.5673 C   0  0  0  0  0  0  0  0  0  0  0  0
   42.6714    9.4376   16.9205 C   0  0  0  0  0  0  0  0  0  0  0  0
   43.0128   10.7443   16.6156 C   0  0  0  0  0  0  0  0  0  0  0  0
   40.9557   13.3728   13.1749 Br  0  0  0  0  0  0  0  0  0  0  0  0
   42.7281   15.8743   13.5457 O   0  0  0  0  0  0  0  0  0  0  0  0
   41.9002   17.0374   13.7835 C   0  0  0  0  0  0  0  0  0  0  0  0
   41.0445   17.4257   12.5691 C   0  0  0  0  0  0  0  0  0  0  0  0
   39.8502   17.7409   12.8101 O   0  0  0  0  0  0  0  0  0  0  0  0
   41.6127   17.4475   11.4405 O   0  0  0  0  0  0  0  0  0  0  0  0
   39.2209    9.2615   15.5955 N   0  0  0  0  0  0  0  0  0  0  0  0
   38.9786    7.8858   15.1859 C   0  0  0  0  0  0  0  0  0  0  0  0
   37.5804    7.4602   15.6149 C   0  0  0  0  0  0  0  0  0  0  0  0
   37.2775    6.0333   15.1777 C   0  0  0  0  0  0  0  0  0  0  0  0
   37.4513    5.8731   13.7382 N   0  0  0  0  0  0  0  0  0  0  0  0
   38.7851    6.2509   13.2769 C   0  0  0  0  0  0  0  0  0  0  0  0
   39.1198    7.6773   13.6815 C   0  0  0  0  0  0  0  0  0  0  0  0
   40.1552   11.6708   15.0652 H   0  0  0  0  0  0  0  0  0  0  0  0
   41.2023    7.8985   16.8251 H   0  0  0  0  0  0  0  0  0  0  0  0
   43.3802    8.8018   17.4425 H   0  0  0  0  0  0  0  0  0  0  0  0
   43.9891   11.1305   16.8744 H   0  0  0  0  0  0  0  0  0  0  0  0
   42.5846   17.8382   14.0434 H   0  0  0  0  0  0  0  0  0  0  0  0
   41.2515   16.8643   14.6410 H   0  0  0  0  0  0  0  0  0  0  0  0
   38.7240    9.9216   15.0062 H   0  0  0  0  0  0  0  0  0  0  0  0
   39.6987    7.2356   15.6802 H   0  0  0  0  0  0  0  0  0  0  0  0
   36.8465    8.1432   15.1733 H   0  0  0  0  0  0  0  0  0  0  0  0
   37.4798    7.5443   16.6983 H   0  0  0  0  0  0  0  0  0  0  0  0
   36.2711    5.7529   15.4637 H   0  0  0  0  0  0  0  0  0  0  0  0
   37.9541    5.3406   15.6884 H   0  0  0  0  0  0  0  0  0  0  0  0
   38.8163    6.1266   12.2020 H   0  0  0  0  0  0  0  0  0  0  0  0
   39.5191    5.5650   13.7058 H   0  0  0  0  0  0  0  0  0  0  0  0
   40.1369    7.9113   13.3736 H   0  0  0  0  0  0  0  0  0  0  0  0
   38.4568    8.3712   13.1576 H   0  0  0  0  0  0  0  0  0  0  0  0
   36.4751    5.5210   12.8665 C   0  0  0  0  0  0  0  0  0  0  0  0
   36.5931    5.6560   11.6421 O   0  0  0  0  0  0  0  0  0  0  0  0
   35.2096    4.9398   13.4563 C   0  0  0  0  0  0  0  0  0  0  0  0
   35.4250    4.1135   14.1310 H   0  0  0  0  0  0  0  0  0  0  0  0
   34.6513    5.6871   14.0223 H   0  0  0  0  0  0  0  0  0  0  0  0
   34.5748    4.5759   12.6539 H   0  0  0  0  0  0  0  0  0  0  0  0
  1  2  1  0
  1  5  1  0
  2  3  2  0
  2  6  1  0
  3  4  1  0
  3 16  1  0
  4  5  2  0
  4 15  1  0
  5  9  1  0
  6  7  2  0
  6  8  1  0
  9 10  2  0
  9 14  1  0
 10 11  1  0
 10 28  1  0
 11 12  2  0
 11 21  1  0
 12 13  1  0
 12 29  1  0
 13 14  2  0
 13 30  1  0
 14 31  1  0
 16 17  1  0
 17 18  1  0
 17 32  1  0
 17 33  1  0
 18 19  1  0
 18 20  2  0
 21 22  1  0
 21 34  1  0
 22 23  1  0
 22 27  1  0
 22 35  1  0
 23 24  1  0
 23 36  1  0
 23 37  1  0
 24 25  1  0
 24 38  1  0
 24 39  1  0
 25 26  1  0
 25 44  1  0
 26 27  1  0
 26 40  1  0
 26 41  1  0
 27 42  1  0
 27 43  1  0
 44 45  2  0
 44 46  1  0
 46 47  1  0
 46 48  1  0
 46 49  1  0
M  CHG  2   8  -1  19  -1
M  END
>  <r_exp_dg>  (22) 
-9.14

>  <mol_id>  (22) 
21

>  <source_index>  (22) 
21

>  <paff>  (22) 
6.7008800170987923

>  <source_r_exp_dg>  (22) 
-9.1400000000000006

>  <smiles>  (22) 
CC(=O)N1CCC(Nc2cccc(-c3sc(C(=O)O)c(OCC(=O)O)c3Br)c2)CC1

>  <aimnet_interaction_kcal_mol>  (22) 
-333.88948778115315

$$$$
ptp1b_022
     RDKit          3D

 42 44  0  0  1  0  0  0  0  0999 V2000
   43.5486   13.8826   16.8147 S   0  0  0  0  0  0  0  0  0  0  0  0
   43.5722   15.2692   15.7714 C   0  0  0  0  0  0  0  0  0  0  0  0
   42.8303   15.0408   14.6291 C   0  0  0  0  0  0  0  0  0  0  0  0
   42.1739   13.7873   14.6656 C   0  0  0  0  0  0  0  0  0  0  0  0
   42.4902   12.9945   15.7412 C   0  0  0  0  0  0  0  0  0  0  0  0
   44.2894   16.4734   16.2593 C   0  0  0  0  0  0  0  0  0  0  0  0
   44.7078   16.4631   17.4391 O   0  0  0  0  0  0  0  0  0  0  0  0
   44.3910   17.4194   15.4217 O   0  0  0  0  0  0  0  0  0  0  0  0
   42.1605   11.6153   16.0632 C   0  0  0  0  0  0  0  0  0  0  0  0
   40.9002   11.0948   15.7831 C   0  0  0  0  0  0  0  0  0  0  0  0
   40.5827    9.7620   16.0663 C   0  0  0  0  0  0  0  0  0  0  0  0
   41.5612    8.9525   16.6563 C   0  0  0  0  0  0  0  0  0  0  0  0
   42.8060    9.4763   16.9640 C   0  0  0  0  0  0  0  0  0  0  0  0
   43.1176   10.7943   16.6750 C   0  0  0  0  0  0  0  0  0  0  0  0
   40.9440   13.3362   13.2738 Br  0  0  0  0  0  0  0  0  0  0  0  0
   42.7030   15.8716   13.5492 O   0  0  0  0  0  0  0  0  0  0  0  0
   41.6260   16.8022   13.7714 C   0  0  0  0  0  0  0  0  0  0  0  0
   40.9654   17.3791   12.5152 C   0  0  0  0  0  0  0  0  0  0  0  0
   39.7900   17.7911   12.6992 O   0  0  0  0  0  0  0  0  0  0  0  0
   41.6243   17.4326   11.4418 O   0  0  0  0  0  0  0  0  0  0  0  0
   39.2947    9.2959   15.8056 N   0  0  0  0  0  0  0  0  0  0  0  0
   40.1648   11.7397   15.3277 H   0  0  0  0  0  0  0  0  0  0  0  0
   41.3689    7.9127   16.8720 H   0  0  0  0  0  0  0  0  0  0  0  0
   43.5503    8.8368   17.4300 H   0  0  0  0  0  0  0  0  0  0  0  0
   44.0978   11.1895   16.9015 H   0  0  0  0  0  0  0  0  0  0  0  0
   42.0368   17.6084   14.3720 H   0  0  0  0  0  0  0  0  0  0  0  0
   40.8519   16.3136   14.3598 H   0  0  0  0  0  0  0  0  0  0  0  0
   38.7953    9.9122   15.1773 H   0  0  0  0  0  0  0  0  0  0  0  0
   39.5706    7.2716   16.1956 H   0  0  0  0  0  0  0  0  0  0  0  0
   39.0728    7.9015   15.4599 C   0  0  0  0  0  0  0  0  0  0  0  0
   37.5838    7.5552   15.4589 C   0  0  0  0  0  0  0  0  0  0  0  0
   37.4650    6.2782   14.6079 C   0  0  0  0  0  0  0  0  0  0  0  0
   38.7926    6.1606   13.8238 C   0  0  0  0  0  0  0  0  0  0  0  0
   39.5332    7.4722   14.0687 C   0  0  0  0  0  0  0  0  0  0  0  0
   37.0328    8.3784   14.9958 H   0  0  0  0  0  0  0  0  0  0  0  0
   37.1952    7.4379   16.4710 H   0  0  0  0  0  0  0  0  0  0  0  0
   37.3111    5.4008   15.2333 H   0  0  0  0  0  0  0  0  0  0  0  0
   36.6095    6.3384   13.9339 H   0  0  0  0  0  0  0  0  0  0  0  0
   39.3878    5.3275   14.1921 H   0  0  0  0  0  0  0  0  0  0  0  0
   38.6220    5.9844   12.7626 H   0  0  0  0  0  0  0  0  0  0  0  0
   39.2237    8.2310   13.3471 H   0  0  0  0  0  0  0  0  0  0  0  0
   40.6118    7.3813   14.0061 H   0  0  0  0  0  0  0  0  0  0  0  0
  1  2  1  0
  1  5  1  0
  2  3  2  0
  2  6  1  0
  3  4  1  0
  3 16  1  0
  4  5  2  0
  4 15  1  0
  5  9  1  0
  6  7  2  0
  6  8  1  0
  9 10  2  0
  9 14  1  0
 10 11  1  0
 10 22  1  0
 11 12  2  0
 11 21  1  0
 12 13  1  0
 12 23  1  0
 13 14  2  0
 13 24  1  0
 14 25  1  0
 16 17  1  0
 17 18  1  0
 17 26  1  0
 17 27  1  0
 18 19  1  0
 18 20  2  0
 21 28  1  0
 21 30  1  0
 29 30  1  0
 30 31  1  0
 30 34  1  0
 31 32  1  0
 31 35  1  0
 31 36  1  0
 32 33  1  0
 32 37  1  0
 32 38  1  0
 33 34  1  0
 33 39  1  0
 33 40  1  0
 34 41  1  0
 34 42  1  0
M  CHG  2   8  -1  19  -1
M  END
>  <r_exp_dg>  (23) 
-8.72

>  <mol_id>  (23) 
22

>  <source_index>  (23) 
22

>  <paff>  (23) 
6.3929620726017653

>  <source_r_exp_dg>  (23) 
-8.7200000000000006

>  <smiles>  (23) 
O=C(O)COc1c(C(=O)O)sc(-c2cccc(NC3CCCC3)c2)c1Br

>  <aimnet_interaction_kcal_mol>  (23) 
-322.72644918964943

$$$$
