L3:O14638:6340
     RDKit          3D

 47 49  0  0  0  0  0  0  0  0999 V2000
   -2.8509  -27.5593  -17.0994 N   0  0  0  0  0  0  0  0  0  0  0  0
   -3.2861  -26.6493  -17.2210 H   0  0  0  0  0  0  0  0  0  0  0  0
   -1.2322  -26.6959  -21.3778 N   0  0  0  0  0  0  0  0  0  0  0  0
   -2.2025  -25.7787  -21.1557 N   0  0  0  0  0  0  0  0  0  0  0  0
   -2.6273  -26.0815  -19.9243 C   0  0  0  0  0  0  0  0  0  0  0  0
   -1.9403  -27.1751  -19.3464 C   0  0  0  0  0  0  0  0  0  0  0  0
   -1.9621  -27.8821  -18.1244 C   0  0  0  0  0  0  0  0  0  0  0  0
   -1.0596  -28.9528  -18.0428 C   0  0  0  0  0  0  0  0  0  0  0  0
   -0.2015  -29.2351  -19.1017 C   0  0  0  0  0  0  0  0  0  0  0  0
   -0.1390  -28.5599  -20.2682 N   0  0  0  0  0  0  0  0  0  0  0  0
   -1.0346  -27.5545  -20.3286 C   0  0  0  0  0  0  0  0  0  0  0  0
    0.2902  -25.4321  -22.8420 C   0  0  0  0  0  0  0  0  0  0  0  0
   -0.5171  -26.7014  -22.6372 C   0  0  0  0  0  0  0  0  0  0  0  0
   -2.5444  -27.8861  -15.7088 C   0  0  0  0  0  0  0  0  0  0  0  0
   -3.8100  -28.0182  -14.8407 C   0  0  0  0  0  0  0  0  0  0  0  0
   -3.4482  -28.6883  -13.5050 C   0  0  0  0  0  0  0  0  0  0  0  0
   -4.6721  -29.3178  -12.8449 C   0  0  0  0  0  0  0  0  0  0  0  0
   -5.2818  -30.3708  -13.6590 N   0  0  0  0  0  0  0  0  0  0  0  0
   -5.0354  -30.2363  -15.0947 C   0  0  0  0  0  0  0  0  0  0  0  0
   -4.9450  -28.7806  -15.5495 C   0  0  0  0  0  0  0  0  0  0  0  0
   -6.6772  -31.1671  -13.0794 S   0  0  2  0  0  0  0  0  0  0  0  0
   -6.9746  -32.5570  -14.1392 C   0  0  0  0  0  0  0  0  0  0  0  0
   -7.7839  -30.1330  -13.3073 N   0  0  0  0  0  0  0  0  0  0  0  0
   -6.2840  -31.6825  -11.7870 O   0  0  0  0  0  0  0  0  0  0  0  0
   -7.6127  -29.3096  -12.7307 H   0  0  0  0  0  0  0  0  0  0  0  0
   -3.3820  -25.5680  -19.4429 H   0  0  0  0  0  0  0  0  0  0  0  0
   -1.0316  -29.5355  -17.1915 H   0  0  0  0  0  0  0  0  0  0  0  0
    0.4442  -30.0315  -18.9842 H   0  0  0  0  0  0  0  0  0  0  0  0
    0.7994  -25.4810  -23.7818 H   0  0  0  0  0  0  0  0  0  0  0  0
    1.0063  -25.3336  -22.0530 H   0  0  0  0  0  0  0  0  0  0  0  0
   -0.3661  -24.5870  -22.8355 H   0  0  0  0  0  0  0  0  0  0  0  0
    0.1481  -27.5394  -22.6525 H   0  0  0  0  0  0  0  0  0  0  0  0
   -1.2385  -26.7634  -23.4250 H   0  0  0  0  0  0  0  0  0  0  0  0
   -1.9287  -27.1113  -15.3020 H   0  0  0  0  0  0  0  0  0  0  0  0
   -2.0441  -28.8319  -15.6999 H   0  0  0  0  0  0  0  0  0  0  0  0
   -4.1834  -27.0319  -14.6597 H   0  0  0  0  0  0  0  0  0  0  0  0
   -3.0383  -27.9515  -12.8462 H   0  0  0  0  0  0  0  0  0  0  0  0
   -2.7365  -29.4631  -13.7002 H   0  0  0  0  0  0  0  0  0  0  0  0
   -5.4004  -28.5522  -12.6762 H   0  0  0  0  0  0  0  0  0  0  0  0
   -4.3470  -29.7677  -11.9301 H   0  0  0  0  0  0  0  0  0  0  0  0
   -5.8355  -30.7102  -15.6241 H   0  0  0  0  0  0  0  0  0  0  0  0
   -4.0921  -30.6965  -15.3027 H   0  0  0  0  0  0  0  0  0  0  0  0
   -5.8735  -28.2942  -15.3343 H   0  0  0  0  0  0  0  0  0  0  0  0
   -4.7371  -28.7771  -16.5991 H   0  0  0  0  0  0  0  0  0  0  0  0
   -7.2688  -32.2104  -15.1078 H   0  0  0  0  0  0  0  0  0  0  0  0
   -7.7543  -33.1612  -13.7246 H   0  0  0  0  0  0  0  0  0  0  0  0
   -6.0802  -33.1381  -14.2247 H   0  0  0  0  0  0  0  0  0  0  0  0
  1 14  1  0
  1  2  1  0
  3  4  1  0
  4  5  2  0
  5  6  1  0
  5 26  1  0
  6  7  2  0
  7  1  1  0
  7  8  1  0
  8  9  2  0
  8 27  1  0
  9 10  1  0
  9 28  1  0
 10 11  2  0
 11  3  1  0
 11  6  1  0
 12 13  1  0
 12 29  1  0
 12 30  1  0
 12 31  1  0
 13  3  1  0
 13 32  1  0
 13 33  1  0
 14 15  1  0
 14 34  1  0
 14 35  1  0
 15 16  1  0
 15 36  1  0
 16 17  1  0
 16 37  1  0
 16 38  1  0
 17 18  1  0
 17 39  1  0
 17 40  1  0
 18 21  1  0
 18 19  1  0
 19 20  1  0
 19 41  1  0
 19 42  1  0
 20 15  1  0
 20 43  1  0
 20 44  1  0
 21 22  1  0
 21 23  2  0
 21 24  2  0
 22 45  1  0
 22 46  1  0
 22 47  1  0
 23 25  1  0
M  END
>  <minimizedAffinity>  (1) 
-7.51387

>  <mol_id>  (1) 
6340

>  <source_index>  (1) 
0

>  <layer>  (1) 
L3

>  <uniprot>  (1) 
O14638

>  <paff>  (1) 
6

>  <smiles>  (1) 
CCn1ncc2c(NCC3CCN([S@](C)(=N)=O)CC3)ccnc21

$$$$
L3:O14638:28298
     RDKit          3D

 47 49  0  0  0  0  0  0  0  0999 V2000
   -1.3524  -30.4211  -16.6744 N   0  0  0  0  0  0  0  0  0  0  0  0
   -0.3382  -30.3173  -16.6683 H   0  0  0  0  0  0  0  0  0  0  0  0
   -2.0120  -29.3927  -17.3423 C   0  0  0  0  0  0  0  0  0  0  0  0
   -3.2834  -28.9353  -16.9632 C   0  0  0  0  0  0  0  0  0  0  0  0
   -3.9070  -27.9113  -17.6696 C   0  0  0  0  0  0  0  0  0  0  0  0
   -3.3985  -27.2767  -18.7470 N   0  0  0  0  0  0  0  0  0  0  0  0
   -2.1949  -27.7591  -19.1061 C   0  0  0  0  0  0  0  0  0  0  0  0
   -1.4679  -28.7679  -18.4879 C   0  0  0  0  0  0  0  0  0  0  0  0
   -0.2874  -28.8436  -19.2654 C   0  0  0  0  0  0  0  0  0  0  0  0
    1.0294  -29.8811  -18.9963 Cl  0  0  0  0  0  0  0  0  0  0  0  0
   -0.2550  -27.9718  -20.2799 N   0  0  0  0  0  0  0  0  0  0  0  0
   -1.4468  -27.3419  -20.1734 N   0  0  0  0  0  0  0  0  0  0  0  0
   -1.8140  -26.2939  -21.1057 C   0  0  0  0  0  0  0  0  0  0  0  0
   -0.9376  -26.2822  -22.2771 C   0  0  0  0  0  0  0  0  0  0  0  0
   -0.2668  -26.2743  -23.2257 N   0  0  0  0  0  0  0  0  0  0  0  0
   -1.8774  -30.9885  -15.4349 C   0  0  0  0  0  0  0  0  0  0  0  0
   -2.8696  -29.2375  -12.2537 N   0  0  0  0  0  0  0  0  0  0  0  0
   -2.8857  -30.6897  -12.4552 C   0  0  0  0  0  0  0  0  0  0  0  0
   -1.5425  -31.2446  -12.9364 C   0  0  0  0  0  0  0  0  0  0  0  0
   -1.0436  -30.5529  -14.2114 C   0  0  0  0  0  0  0  0  0  0  0  0
   -1.0556  -29.0426  -13.9549 C   0  0  0  0  0  0  0  0  0  0  0  0
   -2.4164  -28.5453  -13.4674 C   0  0  0  0  0  0  0  0  0  0  0  0
   -4.2315  -26.0242  -11.2336 C   0  0  0  0  0  0  0  0  0  0  0  0
   -4.4587  -27.2139  -12.0507 N   0  0  0  0  0  0  0  0  0  0  0  0
   -4.1785  -28.5635  -11.4257 S   0  0  1  0  0  0  0  0  0  0  0  0
   -5.5288  -29.3766  -11.9447 N   0  0  0  0  0  0  0  0  0  0  0  0
   -4.0387  -28.9101  -10.0381 O   0  0  0  0  0  0  0  0  0  0  0  0
   -5.8073  -28.8182  -12.7448 H   0  0  0  0  0  0  0  0  0  0  0  0
   -6.2244  -29.1882  -11.2360 H   0  0  0  0  0  0  0  0  0  0  0  0
   -3.7601  -29.3621  -16.1535 H   0  0  0  0  0  0  0  0  0  0  0  0
   -4.8383  -27.6113  -17.3416 H   0  0  0  0  0  0  0  0  0  0  0  0
   -1.7435  -25.3482  -20.6101 H   0  0  0  0  0  0  0  0  0  0  0  0
   -2.8141  -26.4780  -21.4385 H   0  0  0  0  0  0  0  0  0  0  0  0
   -2.8866  -30.6586  -15.3023 H   0  0  0  0  0  0  0  0  0  0  0  0
   -1.8300  -32.0549  -15.5091 H   0  0  0  0  0  0  0  0  0  0  0  0
   -3.6320  -30.9239  -13.1853 H   0  0  0  0  0  0  0  0  0  0  0  0
   -3.0961  -31.1407  -11.5080 H   0  0  0  0  0  0  0  0  0  0  0  0
   -1.6544  -32.2901  -13.1346 H   0  0  0  0  0  0  0  0  0  0  0  0
   -0.8219  -31.0650  -12.1660 H   0  0  0  0  0  0  0  0  0  0  0  0
   -0.0411  -30.8429  -14.4477 H   0  0  0  0  0  0  0  0  0  0  0  0
   -0.8113  -28.5374  -14.8659 H   0  0  0  0  0  0  0  0  0  0  0  0
   -0.3388  -28.8362  -13.1878 H   0  0  0  0  0  0  0  0  0  0  0  0
   -3.1371  -28.7048  -14.2421 H   0  0  0  0  0  0  0  0  0  0  0  0
   -2.3155  -27.5070  -13.2295 H   0  0  0  0  0  0  0  0  0  0  0  0
   -4.4699  -25.1499  -11.8025 H   0  0  0  0  0  0  0  0  0  0  0  0
   -3.2045  -25.9869  -10.9358 H   0  0  0  0  0  0  0  0  0  0  0  0
   -4.8538  -26.0645  -10.3641 H   0  0  0  0  0  0  0  0  0  0  0  0
  1  3  1  0
  1  2  1  0
  3  4  2  0
  4  5  1  0
  4 30  1  0
  5  6  2  0
  5 31  1  0
  6  7  1  0
  7  8  2  0
  8  9  1  0
  8  3  1  0
  9 10  1  0
  9 11  2  0
 11 12  1  0
 12 13  1  0
 12  7  1  0
 13 14  1  0
 13 32  1  0
 13 33  1  0
 14 15  3  0
 16  1  1  0
 16 34  1  0
 16 35  1  0
 17 18  1  0
 18 19  1  0
 18 36  1  0
 18 37  1  0
 19 20  1  0
 19 38  1  0
 19 39  1  0
 20 16  1  0
 20 21  1  0
 20 40  1  0
 21 22  1  0
 21 41  1  0
 21 42  1  0
 22 17  1  0
 22 43  1  0
 22 44  1  0
 23 24  1  0
 23 45  1  0
 23 46  1  0
 23 47  1  0
 24 25  2  0
 25 26  1  0
 25 27  2  0
 25 17  1  0
 26 28  1  0
 26 29  1  0
M  END
>  <minimizedAffinity>  (2) 
-6.30335

>  <mol_id>  (2) 
28298

>  <source_index>  (2) 
1

>  <layer>  (2) 
L3

>  <uniprot>  (2) 
O14638

>  <paff>  (2) 
6.2595999999999998

>  <smiles>  (2) 
CN=[S@](N)(=O)N1CCC(CNc2ccnc3c2c(Cl)nn3CC#N)CC1

$$$$
L3:O14638:75632
     RDKit          3D

 43 45  0  0  0  0  0  0  0  0999 V2000
   -1.3735  -30.3840  -16.9480 N   0  0  0  0  0  0  0  0  0  0  0  0
   -0.7211  -30.8755  -17.5603 H   0  0  0  0  0  0  0  0  0  0  0  0
   -1.3780  -27.2028  -20.3774 N   0  0  0  0  0  0  0  0  0  0  0  0
   -0.2123  -27.8803  -20.5125 N   0  0  0  0  0  0  0  0  0  0  0  0
   -0.2602  -28.7601  -19.5079 C   0  0  0  0  0  0  0  0  0  0  0  0
    1.0325  -29.8322  -19.2557 Cl  0  0  0  0  0  0  0  0  0  0  0  0
   -1.4435  -28.6805  -18.7367 C   0  0  0  0  0  0  0  0  0  0  0  0
   -2.0072  -29.3233  -17.6119 C   0  0  0  0  0  0  0  0  0  0  0  0
   -3.2798  -28.8693  -17.2324 C   0  0  0  0  0  0  0  0  0  0  0  0
   -3.8920  -27.8340  -17.9298 C   0  0  0  0  0  0  0  0  0  0  0  0
   -3.3700  -27.1842  -18.9905 N   0  0  0  0  0  0  0  0  0  0  0  0
   -2.1564  -27.6529  -19.3423 C   0  0  0  0  0  0  0  0  0  0  0  0
   -1.7214  -26.1349  -21.3042 C   0  0  0  0  0  0  0  0  0  0  0  0
    0.1606  -25.7456  -23.1606 C   0  0  0  0  0  0  0  0  0  0  0  0
   -0.6868  -25.9221  -22.3275 C   0  0  0  0  0  0  0  0  0  0  0  0
   -0.7628  -30.0802  -15.6577 C   0  0  0  0  0  0  0  0  0  0  0  0
   -1.8430  -30.0247  -14.6009 C   0  0  0  0  0  0  0  0  0  0  0  0
   -2.0141  -28.8655  -13.8266 C   0  0  0  0  0  0  0  0  0  0  0  0
   -3.0196  -28.7981  -12.8610 C   0  0  0  0  0  0  0  0  0  0  0  0
   -3.8636  -29.8954  -12.6683 C   0  0  0  0  0  0  0  0  0  0  0  0
   -3.7154  -31.0510  -13.4388 C   0  0  0  0  0  0  0  0  0  0  0  0
   -2.7077  -31.1123  -14.4038 C   0  0  0  0  0  0  0  0  0  0  0  0
   -5.1278  -29.8230  -11.4249 S   0  0  1  0  0  0  0  0  0  0  0  0
   -6.4647  -30.1141  -12.1013 N   0  0  0  0  0  0  0  0  0  0  0  0
   -4.6269  -30.4484  -10.2235 O   0  0  0  0  0  0  0  0  0  0  0  0
   -7.2065  -30.0763  -11.4015 H   0  0  0  0  0  0  0  0  0  0  0  0
   -5.3416  -28.2062  -10.9919 N   0  0  0  0  0  0  0  0  0  0  0  0
   -5.2628  -27.7990   -9.6049 C   0  0  0  0  0  0  0  0  0  0  0  0
   -4.6833  -27.6786  -11.5517 H   0  0  0  0  0  0  0  0  0  0  0  0
   -3.7634  -29.3059  -16.4320 H   0  0  0  0  0  0  0  0  0  0  0  0
   -4.8265  -27.5369  -17.6082 H   0  0  0  0  0  0  0  0  0  0  0  0
   -2.6399  -26.3863  -21.7921 H   0  0  0  0  0  0  0  0  0  0  0  0
   -1.8104  -25.2306  -20.7392 H   0  0  0  0  0  0  0  0  0  0  0  0
    0.8617  -25.5996  -23.8499 H   0  0  0  0  0  0  0  0  0  0  0  0
   -0.2643  -29.1349  -15.7107 H   0  0  0  0  0  0  0  0  0  0  0  0
   -0.0517  -30.8395  -15.4073 H   0  0  0  0  0  0  0  0  0  0  0  0
   -1.3907  -28.0562  -13.9730 H   0  0  0  0  0  0  0  0  0  0  0  0
   -3.1390  -27.9444  -12.2935 H   0  0  0  0  0  0  0  0  0  0  0  0
   -4.3468  -31.8547  -13.2958 H   0  0  0  0  0  0  0  0  0  0  0  0
   -2.5981  -31.9639  -14.9763 H   0  0  0  0  0  0  0  0  0  0  0  0
   -5.9633  -28.3646   -9.0268 H   0  0  0  0  0  0  0  0  0  0  0  0
   -5.4935  -26.7572   -9.5254 H   0  0  0  0  0  0  0  0  0  0  0  0
   -4.2733  -27.9742   -9.2374 H   0  0  0  0  0  0  0  0  0  0  0  0
  1 16  1  0
  1  2  1  0
  3  4  1  0
  4  5  2  0
  5  6  1  0
  5  7  1  0
  7  8  2  0
  8  1  1  0
  8  9  1  0
  9 10  2  0
  9 30  1  0
 10 11  1  0
 10 31  1  0
 11 12  2  0
 12  3  1  0
 12  7  1  0
 13  3  1  0
 13 32  1  0
 13 33  1  0
 14 15  3  0
 14 34  1  0
 15 13  1  0
 16 17  1  0
 16 35  1  0
 16 36  1  0
 17 18  2  0
 18 19  1  0
 18 37  1  0
 19 20  2  0
 19 38  1  0
 20 23  1  0
 20 21  1  0
 21 22  2  0
 21 39  1  0
 22 17  1  0
 22 40  1  0
 23 24  2  0
 23 25  2  0
 23 27  1  0
 24 26  1  0
 27 28  1  0
 27 29  1  0
 28 41  1  0
 28 42  1  0
 28 43  1  0
M  END
>  <minimizedAffinity>  (3) 
-6.91007

>  <mol_id>  (3) 
75632

>  <source_index>  (3) 
2

>  <layer>  (3) 
L3

>  <uniprot>  (3) 
O14638

>  <paff>  (3) 
6

>  <smiles>  (3) 
C#CCn1nc(Cl)c2c(NCc3ccc([S@@](=N)(=O)NC)cc3)ccnc21

$$$$
L3:O14638:85481
     RDKit          3D

 41 43  0  0  0  0  0  0  0  0999 V2000
   -1.5202  -28.7560  -16.2611 N   0  0  0  0  0  0  0  0  0  0  0  0
   -0.7920  -28.6259  -15.5658 H   0  0  0  0  0  0  0  0  0  0  0  0
   -1.6028  -27.0288  -20.5923 N   0  0  0  0  0  0  0  0  0  0  0  0
   -2.5047  -26.3075  -19.8887 N   0  0  0  0  0  0  0  0  0  0  0  0
   -2.4330  -26.8445  -18.6677 C   0  0  0  0  0  0  0  0  0  0  0  0
   -1.5046  -27.9074  -18.5752 C   0  0  0  0  0  0  0  0  0  0  0  0
   -1.0318  -28.7871  -17.5782 C   0  0  0  0  0  0  0  0  0  0  0  0
   -0.0828  -29.7248  -18.0101 C   0  0  0  0  0  0  0  0  0  0  0  0
    0.3672  -29.7165  -19.3258 C   0  0  0  0  0  0  0  0  0  0  0  0
   -0.0397  -28.8670  -20.2912 N   0  0  0  0  0  0  0  0  0  0  0  0
   -0.9775  -28.0006  -19.8559 C   0  0  0  0  0  0  0  0  0  0  0  0
   -0.2720  -25.7154  -22.1894 C   0  0  0  0  0  0  0  0  0  0  0  0
   -1.3790  -26.7330  -21.9911 C   0  0  0  0  0  0  0  0  0  0  0  0
   -2.6805  -29.3104  -15.6812 C   0  0  0  0  0  0  0  0  0  0  0  0
   -2.6709  -30.4411  -14.8593 C   0  0  0  0  0  0  0  0  0  0  0  0
   -3.8610  -30.9640  -14.3398 C   0  0  0  0  0  0  0  0  0  0  0  0
   -5.0785  -30.3527  -14.6378 C   0  0  0  0  0  0  0  0  0  0  0  0
   -5.1139  -29.2269  -15.4573 C   0  0  0  0  0  0  0  0  0  0  0  0
   -3.9194  -28.7188  -15.9793 C   0  0  0  0  0  0  0  0  0  0  0  0
   -6.5769  -30.9902  -13.9510 S   0  0  2  0  0  0  0  0  0  0  0  0
   -7.7723  -29.8391  -14.1779 N   0  0  0  0  0  0  0  0  0  0  0  0
   -6.4604  -31.0618  -12.5157 O   0  0  0  0  0  0  0  0  0  0  0  0
   -7.1488  -32.0696  -14.8646 N   0  0  0  0  0  0  0  0  0  0  0  0
   -6.5845  -33.4152  -14.7787 C   0  0  0  0  0  0  0  0  0  0  0  0
   -8.2996  -30.2516  -14.9427 H   0  0  0  0  0  0  0  0  0  0  0  0
   -8.3763  -29.9574  -13.3734 H   0  0  0  0  0  0  0  0  0  0  0  0
   -2.9995  -26.5160  -17.8701 H   0  0  0  0  0  0  0  0  0  0  0  0
    0.2840  -30.4256  -17.3472 H   0  0  0  0  0  0  0  0  0  0  0  0
    1.0741  -30.4218  -19.5863 H   0  0  0  0  0  0  0  0  0  0  0  0
   -0.1424  -25.5285  -23.2350 H   0  0  0  0  0  0  0  0  0  0  0  0
    0.6401  -26.0961  -21.7794 H   0  0  0  0  0  0  0  0  0  0  0  0
   -0.5327  -24.8037  -21.6937 H   0  0  0  0  0  0  0  0  0  0  0  0
   -1.1108  -27.6373  -22.4963 H   0  0  0  0  0  0  0  0  0  0  0  0
   -2.2820  -26.3190  -22.3888 H   0  0  0  0  0  0  0  0  0  0  0  0
   -1.7734  -30.8970  -14.6322 H   0  0  0  0  0  0  0  0  0  0  0  0
   -3.8374  -31.8012  -13.7368 H   0  0  0  0  0  0  0  0  0  0  0  0
   -6.0134  -28.7715  -15.6775 H   0  0  0  0  0  0  0  0  0  0  0  0
   -3.9490  -27.8921  -16.5963 H   0  0  0  0  0  0  0  0  0  0  0  0
   -7.0839  -34.0565  -15.4746 H   0  0  0  0  0  0  0  0  0  0  0  0
   -6.7157  -33.7943  -13.7868 H   0  0  0  0  0  0  0  0  0  0  0  0
   -5.5408  -33.3798  -15.0119 H   0  0  0  0  0  0  0  0  0  0  0  0
  1 14  1  0
  1  2  1  0
  3  4  1  0
  4  5  2  0
  5  6  1  0
  5 27  1  0
  6  7  2  0
  7  1  1  0
  7  8  1  0
  8  9  2  0
  8 28  1  0
  9 10  1  0
  9 29  1  0
 10 11  2  0
 11  3  1  0
 11  6  1  0
 12 13  1  0
 12 30  1  0
 12 31  1  0
 12 32  1  0
 13  3  1  0
 13 33  1  0
 13 34  1  0
 14 15  2  0
 15 16  1  0
 15 35  1  0
 16 17  2  0
 16 36  1  0
 17 20  1  0
 17 18  1  0
 18 19  2  0
 18 37  1  0
 19 14  1  0
 19 38  1  0
 20 21  1  0
 20 22  2  0
 20 23  2  0
 21 25  1  0
 21 26  1  0
 23 24  1  0
 24 39  1  0
 24 40  1  0
 24 41  1  0
M  END
>  <minimizedAffinity>  (4) 
-7.55312

>  <mol_id>  (4) 
85481

>  <source_index>  (4) 
3

>  <layer>  (4) 
L3

>  <uniprot>  (4) 
O14638

>  <paff>  (4) 
6

>  <smiles>  (4) 
CCn1ncc2c(Nc3ccc(S(N)(=O)=NC)cc3)ccnc21

$$$$
L3:O14638:87321
     RDKit          3D

 41 43  0  0  0  0  0  0  0  0999 V2000
   -2.9093  -27.2979  -16.7707 N   0  0  0  0  0  0  0  0  0  0  0  0
   -2.5810  -26.4794  -16.2676 H   0  0  0  0  0  0  0  0  0  0  0  0
    0.5841  -29.6630  -18.8368 N   0  0  0  0  0  0  0  0  0  0  0  0
    0.5581  -30.1297  -17.5710 N   0  0  0  0  0  0  0  0  0  0  0  0
   -0.4551  -29.4516  -17.0194 C   0  0  0  0  0  0  0  0  0  0  0  0
   -0.8783  -29.7556  -15.4036 Cl  0  0  0  0  0  0  0  0  0  0  0  0
   -1.0768  -28.5439  -17.9109 C   0  0  0  0  0  0  0  0  0  0  0  0
   -2.1385  -27.6134  -17.9054 C   0  0  0  0  0  0  0  0  0  0  0  0
   -2.3912  -26.9492  -19.1150 C   0  0  0  0  0  0  0  0  0  0  0  0
   -1.6113  -27.2227  -20.2305 C   0  0  0  0  0  0  0  0  0  0  0  0
   -0.5884  -28.1013  -20.2760 N   0  0  0  0  0  0  0  0  0  0  0  0
   -0.3750  -28.7211  -19.0976 C   0  0  0  0  0  0  0  0  0  0  0  0
    2.9644  -30.1874  -19.1842 C   0  0  0  0  0  0  0  0  0  0  0  0
    1.5655  -30.1713  -19.7738 C   0  0  0  0  0  0  0  0  0  0  0  0
   -3.6483  -28.1848  -15.9598 C   0  0  0  0  0  0  0  0  0  0  0  0
   -4.0572  -27.7513  -14.6884 C   0  0  0  0  0  0  0  0  0  0  0  0
   -4.8481  -28.5618  -13.8690 C   0  0  0  0  0  0  0  0  0  0  0  0
   -5.2490  -29.8155  -14.3287 C   0  0  0  0  0  0  0  0  0  0  0  0
   -4.8676  -30.2628  -15.5933 C   0  0  0  0  0  0  0  0  0  0  0  0
   -4.0803  -29.4420  -16.4063 C   0  0  0  0  0  0  0  0  0  0  0  0
   -6.2514  -30.8431  -13.3034 S   0  0  1  0  0  0  0  0  0  0  0  0
   -7.7841  -30.1746  -13.2096 N   0  0  0  0  0  0  0  0  0  0  0  0
   -6.5036  -32.0922  -13.9797 O   0  0  0  0  0  0  0  0  0  0  0  0
   -5.8377  -30.6609  -11.8474 N   0  0  0  0  0  0  0  0  0  0  0  0
   -4.6279  -31.3427  -11.3866 C   0  0  0  0  0  0  0  0  0  0  0  0
   -7.8336  -29.9306  -12.2245 H   0  0  0  0  0  0  0  0  0  0  0  0
   -8.3978  -30.9741  -13.3142 H   0  0  0  0  0  0  0  0  0  0  0  0
   -3.1556  -26.2585  -19.1755 H   0  0  0  0  0  0  0  0  0  0  0  0
   -1.8328  -26.7105  -21.0986 H   0  0  0  0  0  0  0  0  0  0  0  0
    3.6527  -30.5689  -19.9092 H   0  0  0  0  0  0  0  0  0  0  0  0
    2.9783  -30.8124  -18.3158 H   0  0  0  0  0  0  0  0  0  0  0  0
    3.2482  -29.1923  -18.9120 H   0  0  0  0  0  0  0  0  0  0  0  0
    1.2955  -31.1696  -20.0484 H   0  0  0  0  0  0  0  0  0  0  0  0
    1.5745  -29.5231  -20.6250 H   0  0  0  0  0  0  0  0  0  0  0  0
   -3.7690  -26.8187  -14.3533 H   0  0  0  0  0  0  0  0  0  0  0  0
   -5.1327  -28.2352  -12.9323 H   0  0  0  0  0  0  0  0  0  0  0  0
   -5.1645  -31.1933  -15.9267 H   0  0  0  0  0  0  0  0  0  0  0  0
   -3.8131  -29.7661  -17.3490 H   0  0  0  0  0  0  0  0  0  0  0  0
   -4.4665  -31.1224  -10.3520 H   0  0  0  0  0  0  0  0  0  0  0  0
   -3.7887  -31.0054  -11.9583 H   0  0  0  0  0  0  0  0  0  0  0  0
   -4.7438  -32.3989  -11.5125 H   0  0  0  0  0  0  0  0  0  0  0  0
  1 15  1  0
  1  2  1  0
  3  4  1  0
  4  5  2  0
  5  6  1  0
  5  7  1  0
  7  8  2  0
  8  1  1  0
  8  9  1  0
  9 10  2  0
  9 28  1  0
 10 11  1  0
 10 29  1  0
 11 12  2  0
 12  3  1  0
 12  7  1  0
 13 14  1  0
 13 30  1  0
 13 31  1  0
 13 32  1  0
 14  3  1  0
 14 33  1  0
 14 34  1  0
 15 16  2  0
 16 17  1  0
 16 35  1  0
 17 18  2  0
 17 36  1  0
 18 21  1  0
 18 19  1  0
 19 20  2  0
 19 37  1  0
 20 15  1  0
 20 38  1  0
 21 22  1  0
 21 23  2  0
 21 24  2  0
 22 26  1  0
 22 27  1  0
 24 25  1  0
 25 39  1  0
 25 40  1  0
 25 41  1  0
M  END
>  <minimizedAffinity>  (5) 
-6.94570

>  <mol_id>  (5) 
87321

>  <source_index>  (5) 
4

>  <layer>  (5) 
L3

>  <uniprot>  (5) 
O14638

>  <paff>  (5) 
6.2595999999999998

>  <smiles>  (5) 
CCn1nc(Cl)c2c(Nc3ccc(S(N)(=O)=NC)cc3)ccnc21

$$$$
L3:O14638:98405
     RDKit          3D

 41 43  0  0  0  0  0  0  0  0999 V2000
   -1.5295  -30.3234  -16.8319 N   0  0  0  0  0  0  0  0  0  0  0  0
   -0.9776  -30.9221  -17.4445 H   0  0  0  0  0  0  0  0  0  0  0  0
   -1.4448  -27.2544  -20.3552 N   0  0  0  0  0  0  0  0  0  0  0  0
   -0.2504  -27.8930  -20.3987 N   0  0  0  0  0  0  0  0  0  0  0  0
   -0.3379  -28.7577  -19.3840 C   0  0  0  0  0  0  0  0  0  0  0  0
    0.9554  -29.8073  -19.0508 Cl  0  0  0  0  0  0  0  0  0  0  0  0
   -1.5505  -28.6682  -18.6603 C   0  0  0  0  0  0  0  0  0  0  0  0
   -2.1491  -29.2848  -17.5375 C   0  0  0  0  0  0  0  0  0  0  0  0
   -3.4354  -28.8238  -17.2177 C   0  0  0  0  0  0  0  0  0  0  0  0
   -4.0240  -27.8051  -17.9588 C   0  0  0  0  0  0  0  0  0  0  0  0
   -3.4667  -27.1794  -19.0157 N   0  0  0  0  0  0  0  0  0  0  0  0
   -2.2463  -27.6622  -19.3202 C   0  0  0  0  0  0  0  0  0  0  0  0
   -1.7607  -26.2148  -21.3233 C   0  0  0  0  0  0  0  0  0  0  0  0
    0.2515  -25.7426  -23.0165 C   0  0  0  0  0  0  0  0  0  0  0  0
   -0.6531  -25.9568  -22.2554 C   0  0  0  0  0  0  0  0  0  0  0  0
   -0.8146  -30.0094  -15.5950 C   0  0  0  0  0  0  0  0  0  0  0  0
   -1.7102  -29.3500  -14.5683 C   0  0  0  0  0  0  0  0  0  0  0  0
   -1.4685  -28.0223  -14.1784 C   0  0  0  0  0  0  0  0  0  0  0  0
   -2.2651  -27.4070  -13.2102 C   0  0  0  0  0  0  0  0  0  0  0  0
   -3.3073  -28.1239  -12.6198 C   0  0  0  0  0  0  0  0  0  0  0  0
   -3.5499  -29.4522  -12.9763 C   0  0  0  0  0  0  0  0  0  0  0  0
   -2.7499  -30.0602  -13.9451 C   0  0  0  0  0  0  0  0  0  0  0  0
   -4.3336  -27.3448  -11.3888 S   0  0  1  0  0  0  0  0  0  0  0  0
   -3.1628  -26.7525  -10.1938 C   0  0  0  0  0  0  0  0  0  0  0  0
   -4.9769  -26.1274  -12.0798 N   0  0  0  0  0  0  0  0  0  0  0  0
   -5.0940  -28.3977  -10.7436 O   0  0  0  0  0  0  0  0  0  0  0  0
   -5.6396  -26.4315  -12.7958 H   0  0  0  0  0  0  0  0  0  0  0  0
   -3.9482  -29.2439  -16.4268 H   0  0  0  0  0  0  0  0  0  0  0  0
   -4.9689  -27.5016  -17.6757 H   0  0  0  0  0  0  0  0  0  0  0  0
   -2.6185  -26.5192  -21.8858 H   0  0  0  0  0  0  0  0  0  0  0  0
   -1.9458  -25.3113  -20.7808 H   0  0  0  0  0  0  0  0  0  0  0  0
    0.9999  -25.5654  -23.6462 H   0  0  0  0  0  0  0  0  0  0  0  0
   -0.0060  -29.3468  -15.8231 H   0  0  0  0  0  0  0  0  0  0  0  0
   -0.4593  -30.9288  -15.1787 H   0  0  0  0  0  0  0  0  0  0  0  0
   -0.6940  -27.4959  -14.6120 H   0  0  0  0  0  0  0  0  0  0  0  0
   -2.0845  -26.4294  -12.9332 H   0  0  0  0  0  0  0  0  0  0  0  0
   -4.3145  -29.9800  -12.5271 H   0  0  0  0  0  0  0  0  0  0  0  0
   -2.9242  -31.0431  -14.2067 H   0  0  0  0  0  0  0  0  0  0  0  0
   -2.5757  -25.9700  -10.6272 H   0  0  0  0  0  0  0  0  0  0  0  0
   -2.5218  -27.5552   -9.8942 H   0  0  0  0  0  0  0  0  0  0  0  0
   -3.6850  -26.3752   -9.3395 H   0  0  0  0  0  0  0  0  0  0  0  0
  1 16  1  0
  1  2  1  0
  3  4  1  0
  4  5  2  0
  5  6  1  0
  5  7  1  0
  7  8  2  0
  8  1  1  0
  8  9  1  0
  9 10  2  0
  9 28  1  0
 10 11  1  0
 10 29  1  0
 11 12  2  0
 12  3  1  0
 12  7  1  0
 13  3  1  0
 13 30  1  0
 13 31  1  0
 14 15  3  0
 14 32  1  0
 15 13  1  0
 16 17  1  0
 16 33  1  0
 16 34  1  0
 17 18  2  0
 18 19  1  0
 18 35  1  0
 19 20  2  0
 19 36  1  0
 20 23  1  0
 20 21  1  0
 21 22  2  0
 21 37  1  0
 22 17  1  0
 22 38  1  0
 23 24  1  0
 23 25  2  0
 23 26  2  0
 24 39  1  0
 24 40  1  0
 24 41  1  0
 25 27  1  0
M  END
>  <minimizedAffinity>  (6) 
-6.79806

>  <mol_id>  (6) 
98405

>  <source_index>  (6) 
5

>  <layer>  (6) 
L3

>  <uniprot>  (6) 
O14638

>  <paff>  (6) 
7.2595999999999998

>  <smiles>  (6) 
C#CCn1nc(Cl)c2c(NCc3ccc([S@@](C)(=N)=O)cc3)ccnc21

$$$$
L3:O14638:119261
     RDKit          3D

 40 42  0  0  0  0  0  0  0  0999 V2000
   -1.4993  -30.3916  -16.8127 N   0  0  0  0  0  0  0  0  0  0  0  0
   -0.9605  -30.9917  -17.4383 H   0  0  0  0  0  0  0  0  0  0  0  0
   -2.1187  -29.3581  -17.5417 C   0  0  0  0  0  0  0  0  0  0  0  0
   -3.4069  -28.9124  -17.2077 C   0  0  0  0  0  0  0  0  0  0  0  0
   -4.0056  -27.8931  -17.9389 C   0  0  0  0  0  0  0  0  0  0  0  0
   -3.4514  -27.2495  -18.9892 N   0  0  0  0  0  0  0  0  0  0  0  0
   -2.2267  -27.7173  -19.2953 C   0  0  0  0  0  0  0  0  0  0  0  0
   -1.5202  -28.7250  -18.6523 C   0  0  0  0  0  0  0  0  0  0  0  0
   -0.3000  -28.7785  -19.3663 C   0  0  0  0  0  0  0  0  0  0  0  0
    1.0148  -29.8016  -19.0397 Cl  0  0  0  0  0  0  0  0  0  0  0  0
   -0.2259  -27.8955  -20.3689 N   0  0  0  0  0  0  0  0  0  0  0  0
   -1.4306  -27.2816  -20.3201 N   0  0  0  0  0  0  0  0  0  0  0  0
   -1.7617  -26.2273  -21.2590 C   0  0  0  0  0  0  0  0  0  0  0  0
   -0.7903  -26.1510  -22.3500 C   0  0  0  0  0  0  0  0  0  0  0  0
    0.0000  -26.1102  -23.2003 N   0  0  0  0  0  0  0  0  0  0  0  0
   -0.6417  -29.9578  -15.7034 C   0  0  0  0  0  0  0  0  0  0  0  0
   -3.1418  -28.3410  -12.5884 C   0  0  0  0  0  0  0  0  0  0  0  0
   -3.2319  -29.6962  -12.9103 C   0  0  0  0  0  0  0  0  0  0  0  0
   -2.4060  -30.2219  -13.9049 C   0  0  0  0  0  0  0  0  0  0  0  0
   -1.4841  -29.4022  -14.5751 C   0  0  0  0  0  0  0  0  0  0  0  0
   -1.3984  -28.0439  -14.2294 C   0  0  0  0  0  0  0  0  0  0  0  0
   -2.2218  -27.5123  -13.2362 C   0  0  0  0  0  0  0  0  0  0  0  0
   -3.1667  -27.5570   -9.9135 C   0  0  0  0  0  0  0  0  0  0  0  0
   -4.2149  -27.6530  -11.3426 S   0  0  2  0  0  0  0  0  0  0  0  0
   -5.2974  -28.7175  -11.0789 N   0  0  0  0  0  0  0  0  0  0  0  0
   -4.5096  -26.2904  -11.7415 O   0  0  0  0  0  0  0  0  0  0  0  0
   -5.9131  -28.8083  -11.8895 H   0  0  0  0  0  0  0  0  0  0  0  0
   -3.9112  -29.3428  -16.4168 H   0  0  0  0  0  0  0  0  0  0  0  0
   -4.9545  -27.6033  -17.6551 H   0  0  0  0  0  0  0  0  0  0  0  0
   -1.7745  -25.2918  -20.7398 H   0  0  0  0  0  0  0  0  0  0  0  0
   -2.7209  -26.4445  -21.6805 H   0  0  0  0  0  0  0  0  0  0  0  0
   -0.0784  -30.7938  -15.3448 H   0  0  0  0  0  0  0  0  0  0  0  0
    0.0200  -29.1932  -16.0532 H   0  0  0  0  0  0  0  0  0  0  0  0
   -3.9038  -30.3045  -12.4168 H   0  0  0  0  0  0  0  0  0  0  0  0
   -2.4736  -31.2221  -14.1499 H   0  0  0  0  0  0  0  0  0  0  0  0
   -0.7212  -27.4341  -14.7137 H   0  0  0  0  0  0  0  0  0  0  0  0
   -2.1519  -26.5146  -12.9819 H   0  0  0  0  0  0  0  0  0  0  0  0
   -3.7194  -27.1506   -9.0924 H   0  0  0  0  0  0  0  0  0  0  0  0
   -2.3294  -26.9259  -10.1270 H   0  0  0  0  0  0  0  0  0  0  0  0
   -2.8193  -28.5367   -9.6595 H   0  0  0  0  0  0  0  0  0  0  0  0
  1  3  1  0
  1  2  1  0
  3  4  2  0
  4  5  1  0
  4 28  1  0
  5  6  2  0
  5 29  1  0
  6  7  1  0
  7  8  2  0
  8  9  1  0
  8  3  1  0
  9 10  1  0
  9 11  2  0
 11 12  1  0
 12 13  1  0
 12  7  1  0
 13 14  1  0
 13 30  1  0
 13 31  1  0
 14 15  3  0
 16  1  1  0
 16 32  1  0
 16 33  1  0
 17 18  2  0
 18 19  1  0
 18 34  1  0
 19 20  2  0
 19 35  1  0
 20 16  1  0
 20 21  1  0
 21 22  2  0
 21 36  1  0
 22 17  1  0
 22 37  1  0
 23 24  1  0
 23 38  1  0
 23 39  1  0
 23 40  1  0
 24 25  2  0
 24 26  2  0
 24 17  1  0
 25 27  1  0
M  END
>  <minimizedAffinity>  (7) 
-6.32504

>  <mol_id>  (7) 
119261

>  <source_index>  (7) 
6

>  <layer>  (7) 
L3

>  <uniprot>  (7) 
O14638

>  <paff>  (7) 
7.2595999999999998

>  <smiles>  (7) 
CS(=N)(=O)c1ccc(CNc2ccnc3c2c(Cl)nn3CC#N)cc1

$$$$
L3:O14638:128168
     RDKit          3D

 54 56  0  0  0  0  0  0  0  0999 V2000
   -1.2238  -31.2794  -15.3035 C   0  0  0  0  0  0  0  0  0  0  0  0
   -2.4397  -31.2132  -14.3653 C   0  0  0  0  0  0  0  0  0  0  0  0
   -2.7980  -32.5558  -13.7251 C   0  0  0  0  0  0  0  0  0  0  0  0
   -3.9301  -32.3773  -12.7034 C   0  0  0  0  0  0  0  0  0  0  0  0
   -4.9519  -31.3797  -13.0657 N   0  0  0  0  0  0  0  0  0  0  0  0
   -4.9962  -31.1908  -14.5174 C   0  0  0  0  0  0  0  0  0  0  0  0
   -3.6808  -30.6044  -15.0420 C   0  0  0  0  0  0  0  0  0  0  0  0
   -6.4380  -31.3969  -12.1958 S   0  0  2  0  0  0  0  0  0  0  0  0
   -7.3298  -30.4337  -12.9891 N   0  0  0  0  0  0  0  0  0  0  0  0
   -6.0266  -31.1847  -10.8257 O   0  0  0  0  0  0  0  0  0  0  0  0
   -7.0011  -29.4754  -12.8762 H   0  0  0  0  0  0  0  0  0  0  0  0
   -7.1449  -33.0199  -12.3106 C   0  0  0  0  0  0  0  0  0  0  0  0
   -8.3414  -33.0642  -13.2364 C   0  0  0  0  0  0  0  0  0  0  0  0
   -7.8726  -33.3116  -14.5665 O   0  0  0  0  0  0  0  0  0  0  0  0
   -6.8744  -34.3244  -14.5887 C   0  0  0  0  0  0  0  0  0  0  0  0
   -0.7103  -29.9419  -15.6124 N   0  0  0  0  0  0  0  0  0  0  0  0
   -1.2785  -29.2142  -15.1778 H   0  0  0  0  0  0  0  0  0  0  0  0
   -1.8282  -27.3890  -19.3734 N   0  0  0  0  0  0  0  0  0  0  0  0
   -2.6223  -26.9321  -18.3802 N   0  0  0  0  0  0  0  0  0  0  0  0
   -2.2631  -27.6896  -17.3397 C   0  0  0  0  0  0  0  0  0  0  0  0
   -3.0185  -27.4796  -15.8330 Cl  0  0  0  0  0  0  0  0  0  0  0  0
   -1.2553  -28.6344  -17.6442 C   0  0  0  0  0  0  0  0  0  0  0  0
   -0.5373  -29.6535  -16.9793 C   0  0  0  0  0  0  0  0  0  0  0  0
    0.4129  -30.3292  -17.7598 C   0  0  0  0  0  0  0  0  0  0  0  0
    0.5769  -30.0051  -19.1020 C   0  0  0  0  0  0  0  0  0  0  0  0
   -0.1110  -29.0569  -19.7723 N   0  0  0  0  0  0  0  0  0  0  0  0
   -0.9967  -28.4085  -18.9906 C   0  0  0  0  0  0  0  0  0  0  0  0
   -2.3193  -25.3395  -20.6454 C   0  0  0  0  0  0  0  0  0  0  0  0
   -1.9132  -26.8013  -20.6950 C   0  0  0  0  0  0  0  0  0  0  0  0
   -0.4505  -31.8481  -14.8308 H   0  0  0  0  0  0  0  0  0  0  0  0
   -1.5307  -31.7408  -16.2188 H   0  0  0  0  0  0  0  0  0  0  0  0
   -2.1286  -30.5587  -13.5781 H   0  0  0  0  0  0  0  0  0  0  0  0
   -1.9358  -32.9515  -13.2302 H   0  0  0  0  0  0  0  0  0  0  0  0
   -3.1244  -33.2287  -14.4903 H   0  0  0  0  0  0  0  0  0  0  0  0
   -3.4925  -32.0799  -11.7734 H   0  0  0  0  0  0  0  0  0  0  0  0
   -4.4378  -33.3180  -12.6561 H   0  0  0  0  0  0  0  0  0  0  0  0
   -5.7964  -30.5224  -14.7579 H   0  0  0  0  0  0  0  0  0  0  0  0
   -5.1488  -32.1444  -14.9780 H   0  0  0  0  0  0  0  0  0  0  0  0
   -3.6830  -29.5492  -14.8646 H   0  0  0  0  0  0  0  0  0  0  0  0
   -3.6215  -30.8334  -16.0855 H   0  0  0  0  0  0  0  0  0  0  0  0
   -7.4543  -33.3298  -11.3343 H   0  0  0  0  0  0  0  0  0  0  0  0
   -6.3982  -33.6733  -12.7112 H   0  0  0  0  0  0  0  0  0  0  0  0
   -8.8590  -32.1283  -13.2036 H   0  0  0  0  0  0  0  0  0  0  0  0
   -9.0137  -33.8392  -12.9327 H   0  0  0  0  0  0  0  0  0  0  0  0
   -6.5486  -34.4821  -15.5956 H   0  0  0  0  0  0  0  0  0  0  0  0
   -7.2807  -35.2342  -14.1987 H   0  0  0  0  0  0  0  0  0  0  0  0
   -6.0429  -34.0189  -13.9885 H   0  0  0  0  0  0  0  0  0  0  0  0
    0.9927  -31.0701  -17.3358 H   0  0  0  0  0  0  0  0  0  0  0  0
    1.2862  -30.5356  -19.6316 H   0  0  0  0  0  0  0  0  0  0  0  0
   -2.3689  -24.9492  -21.6404 H   0  0  0  0  0  0  0  0  0  0  0  0
   -1.5967  -24.7875  -20.0814 H   0  0  0  0  0  0  0  0  0  0  0  0
   -3.2785  -25.2514  -20.1795 H   0  0  0  0  0  0  0  0  0  0  0  0
   -0.9568  -26.8777  -21.1686 H   0  0  0  0  0  0  0  0  0  0  0  0
   -2.6622  -27.3327  -21.2441 H   0  0  0  0  0  0  0  0  0  0  0  0
  1  2  1  0
  1 30  1  0
  1 31  1  0
  2  3  1  0
  2 32  1  0
  3  4  1  0
  3 33  1  0
  3 34  1  0
  4  5  1  0
  4 35  1  0
  4 36  1  0
  5  8  1  0
  5  6  1  0
  6  7  1  0
  6 37  1  0
  6 38  1  0
  7  2  1  0
  7 39  1  0
  7 40  1  0
  8  9  2  0
  8 10  2  0
  8 12  1  0
  9 11  1  0
 12 13  1  0
 12 41  1  0
 12 42  1  0
 13 14  1  0
 13 43  1  0
 13 44  1  0
 14 15  1  0
 15 45  1  0
 15 46  1  0
 15 47  1  0
 16  1  1  0
 16 17  1  0
 18 19  1  0
 19 20  2  0
 20 21  1  0
 20 22  1  0
 22 23  2  0
 23 16  1  0
 23 24  1  0
 24 25  2  0
 24 48  1  0
 25 26  1  0
 25 49  1  0
 26 27  2  0
 27 18  1  0
 27 22  1  0
 28 29  1  0
 28 50  1  0
 28 51  1  0
 28 52  1  0
 29 18  1  0
 29 53  1  0
 29 54  1  0
M  END
>  <minimizedAffinity>  (8) 
-6.25691

>  <mol_id>  (8) 
128168

>  <source_index>  (8) 
7

>  <layer>  (8) 
L3

>  <uniprot>  (8) 
O14638

>  <paff>  (8) 
6

>  <smiles>  (8) 
CCn1nc(Cl)c2c(NCC3CCN(S(=N)(=O)CCOC)CC3)ccnc21

$$$$
L3:O14638:130558
     RDKit          3D

 43 45  0  0  0  0  0  0  0  0999 V2000
   -4.6167  -28.3773  -12.4357 N   0  0  0  0  0  0  0  0  0  0  0  0
   -4.8633  -27.4393  -12.1162 H   0  0  0  0  0  0  0  0  0  0  0  0
   -2.7985  -28.1471  -16.7378 N   0  0  0  0  0  0  0  0  0  0  0  0
   -4.1403  -28.0480  -16.9054 N   0  0  0  0  0  0  0  0  0  0  0  0
   -4.6030  -28.1037  -15.6524 C   0  0  0  0  0  0  0  0  0  0  0  0
   -6.2726  -27.9911  -15.3579 Cl  0  0  0  0  0  0  0  0  0  0  0  0
   -3.5881  -28.2541  -14.6769 C   0  0  0  0  0  0  0  0  0  0  0  0
   -3.4925  -28.3642  -13.2713 C   0  0  0  0  0  0  0  0  0  0  0  0
   -2.1926  -28.5253  -12.7654 C   0  0  0  0  0  0  0  0  0  0  0  0
   -1.1009  -28.5424  -13.6264 C   0  0  0  0  0  0  0  0  0  0  0  0
   -1.1570  -28.4196  -14.9689 N   0  0  0  0  0  0  0  0  0  0  0  0
   -2.4180  -28.2823  -15.4270 C   0  0  0  0  0  0  0  0  0  0  0  0
   -1.9104  -28.1599  -17.8907 C   0  0  0  0  0  0  0  0  0  0  0  0
   -2.6151  -26.3823  -19.7596 C   0  0  0  0  0  0  0  0  0  0  0  0
   -2.2951  -27.1760  -18.9150 C   0  0  0  0  0  0  0  0  0  0  0  0
   -4.6126  -29.3276  -11.3284 C   0  0  0  0  0  0  0  0  0  0  0  0
   -5.5426  -30.4724  -11.6617 C   0  0  0  0  0  0  0  0  0  0  0  0
   -5.5957  -31.6030  -10.8287 C   0  0  0  0  0  0  0  0  0  0  0  0
   -6.4322  -32.6774  -11.1378 C   0  0  0  0  0  0  0  0  0  0  0  0
   -7.2181  -32.6261  -12.2898 C   0  0  0  0  0  0  0  0  0  0  0  0
   -7.1747  -31.5095  -13.1310 C   0  0  0  0  0  0  0  0  0  0  0  0
   -6.3357  -30.4380  -12.8187 C   0  0  0  0  0  0  0  0  0  0  0  0
   -8.2905  -33.9638  -12.7156 S   0  0  2  0  0  0  0  0  0  0  0  0
   -9.8651  -33.4282  -12.5108 N   0  0  0  0  0  0  0  0  0  0  0  0
   -8.1626  -35.0096  -11.7306 O   0  0  0  0  0  0  0  0  0  0  0  0
   -8.3487  -34.1489  -14.2310 N   0  0  0  0  0  0  0  0  0  0  0  0
   -7.5485  -35.2312  -14.8082 C   0  0  0  0  0  0  0  0  0  0  0  0
  -10.1269  -33.2018  -13.4684 H   0  0  0  0  0  0  0  0  0  0  0  0
  -10.3833  -34.2717  -12.2973 H   0  0  0  0  0  0  0  0  0  0  0  0
   -2.0467  -28.6316  -11.7493 H   0  0  0  0  0  0  0  0  0  0  0  0
   -0.1674  -28.6591  -13.2021 H   0  0  0  0  0  0  0  0  0  0  0  0
   -0.9170  -27.9391  -17.5600 H   0  0  0  0  0  0  0  0  0  0  0  0
   -1.9727  -29.1309  -18.3358 H   0  0  0  0  0  0  0  0  0  0  0  0
   -2.8796  -25.7262  -20.4578 H   0  0  0  0  0  0  0  0  0  0  0  0
   -4.9474  -28.8409  -10.4362 H   0  0  0  0  0  0  0  0  0  0  0  0
   -3.6213  -29.6993  -11.1735 H   0  0  0  0  0  0  0  0  0  0  0  0
   -5.0103  -31.6395   -9.9796 H   0  0  0  0  0  0  0  0  0  0  0  0
   -6.4690  -33.5027  -10.5193 H   0  0  0  0  0  0  0  0  0  0  0  0
   -7.7609  -31.4777  -13.9798 H   0  0  0  0  0  0  0  0  0  0  0  0
   -6.2987  -29.6164  -13.4421 H   0  0  0  0  0  0  0  0  0  0  0  0
   -7.6822  -35.2465  -15.8697 H   0  0  0  0  0  0  0  0  0  0  0  0
   -7.8635  -36.1668  -14.3955 H   0  0  0  0  0  0  0  0  0  0  0  0
   -6.5152  -35.0710  -14.5811 H   0  0  0  0  0  0  0  0  0  0  0  0
  1 16  1  0
  1  2  1  0
  3  4  1  0
  4  5  2  0
  5  6  1  0
  5  7  1  0
  7  8  2  0
  8  1  1  0
  8  9  1  0
  9 10  2  0
  9 30  1  0
 10 11  1  0
 10 31  1  0
 11 12  2  0
 12  3  1  0
 12  7  1  0
 13  3  1  0
 13 32  1  0
 13 33  1  0
 14 15  3  0
 14 34  1  0
 15 13  1  0
 16 17  1  0
 16 35  1  0
 16 36  1  0
 17 18  2  0
 18 19  1  0
 18 37  1  0
 19 20  2  0
 19 38  1  0
 20 23  1  0
 20 21  1  0
 21 22  2  0
 21 39  1  0
 22 17  1  0
 22 40  1  0
 23 24  1  0
 23 25  2  0
 23 26  2  0
 24 28  1  0
 24 29  1  0
 26 27  1  0
 27 41  1  0
 27 42  1  0
 27 43  1  0
M  END
>  <minimizedAffinity>  (9) 
-6.66821

>  <mol_id>  (9) 
130558

>  <source_index>  (9) 
8

>  <layer>  (9) 
L3

>  <uniprot>  (9) 
O14638

>  <paff>  (9) 
7.2595999999999998

>  <smiles>  (9) 
C#CCn1nc(Cl)c2c(NCc3ccc(S(N)(=O)=NC)cc3)ccnc21

$$$$
L3:O14638:138317
     RDKit          3D

 46 48  0  0  0  0  0  0  0  0999 V2000
   -1.2811  -30.0421  -15.2382 N   0  0  0  0  0  0  0  0  0  0  0  0
   -1.1220  -29.2711  -14.5920 H   0  0  0  0  0  0  0  0  0  0  0  0
   -1.8113  -27.5332  -19.1297 N   0  0  0  0  0  0  0  0  0  0  0  0
   -2.7567  -27.0820  -18.2771 N   0  0  0  0  0  0  0  0  0  0  0  0
   -2.5560  -27.8298  -17.1877 C   0  0  0  0  0  0  0  0  0  0  0  0
   -3.5397  -27.6145  -15.8197 Cl  0  0  0  0  0  0  0  0  0  0  0  0
   -1.5009  -28.7638  -17.3237 C   0  0  0  0  0  0  0  0  0  0  0  0
   -0.8827  -29.7682  -16.5438 C   0  0  0  0  0  0  0  0  0  0  0  0
    0.1882  -30.4292  -17.1638 C   0  0  0  0  0  0  0  0  0  0  0  0
    0.5592  -30.1065  -18.4650 C   0  0  0  0  0  0  0  0  0  0  0  0
   -0.0268  -29.1722  -19.2415 N   0  0  0  0  0  0  0  0  0  0  0  0
   -1.0373  -28.5390  -18.6143 C   0  0  0  0  0  0  0  0  0  0  0  0
   -2.3458  -25.5834  -20.5342 C   0  0  0  0  0  0  0  0  0  0  0  0
   -1.6950  -26.9525  -20.4520 C   0  0  0  0  0  0  0  0  0  0  0  0
   -2.4867  -30.8128  -14.9455 C   0  0  0  0  0  0  0  0  0  0  0  0
   -2.7728  -30.9172  -13.4309 C   0  0  0  0  0  0  0  0  0  0  0  0
   -3.3750  -32.2659  -13.0198 C   0  0  0  0  0  0  0  0  0  0  0  0
   -4.7743  -32.4741  -13.6116 C   0  0  0  0  0  0  0  0  0  0  0  0
   -5.5797  -31.2491  -13.7139 N   0  0  0  0  0  0  0  0  0  0  0  0
   -5.1595  -30.2614  -12.7246 C   0  0  0  0  0  0  0  0  0  0  0  0
   -3.7245  -29.7869  -12.9869 C   0  0  0  0  0  0  0  0  0  0  0  0
   -7.2187  -31.3903  -14.0615 S   0  0  1  0  0  0  0  0  0  0  0  0
   -7.8942  -31.7542  -12.7579 N   0  0  0  0  0  0  0  0  0  0  0  0
   -7.8153  -29.8561  -14.2828 N   0  0  0  0  0  0  0  0  0  0  0  0
   -7.3289  -32.0091  -15.3528 O   0  0  0  0  0  0  0  0  0  0  0  0
   -7.5537  -32.6526  -12.4205 H   0  0  0  0  0  0  0  0  0  0  0  0
   -8.3549  -29.7062  -13.4364 H   0  0  0  0  0  0  0  0  0  0  0  0
   -8.5023  -29.9620  -15.0197 H   0  0  0  0  0  0  0  0  0  0  0  0
    0.7047  -31.1605  -16.6505 H   0  0  0  0  0  0  0  0  0  0  0  0
    1.3519  -30.6273  -18.8717 H   0  0  0  0  0  0  0  0  0  0  0  0
   -2.2356  -25.1950  -21.5251 H   0  0  0  0  0  0  0  0  0  0  0  0
   -1.8746  -24.9221  -19.8374 H   0  0  0  0  0  0  0  0  0  0  0  0
   -3.3860  -25.6682  -20.2980 H   0  0  0  0  0  0  0  0  0  0  0  0
   -0.6578  -26.8566  -20.6966 H   0  0  0  0  0  0  0  0  0  0  0  0
   -2.1984  -27.5983  -21.1407 H   0  0  0  0  0  0  0  0  0  0  0  0
   -2.3664  -31.8000  -15.3403 H   0  0  0  0  0  0  0  0  0  0  0  0
   -3.3132  -30.3049  -15.3969 H   0  0  0  0  0  0  0  0  0  0  0  0
   -1.8250  -30.8258  -12.9429 H   0  0  0  0  0  0  0  0  0  0  0  0
   -3.4421  -32.3034  -11.9526 H   0  0  0  0  0  0  0  0  0  0  0  0
   -2.7388  -33.0402  -13.3948 H   0  0  0  0  0  0  0  0  0  0  0  0
   -5.3000  -33.1691  -12.9907 H   0  0  0  0  0  0  0  0  0  0  0  0
   -4.6329  -32.8304  -14.6106 H   0  0  0  0  0  0  0  0  0  0  0  0
   -5.2089  -30.7009  -11.7503 H   0  0  0  0  0  0  0  0  0  0  0  0
   -5.8126  -29.4165  -12.7918 H   0  0  0  0  0  0  0  0  0  0  0  0
   -3.3406  -29.3555  -12.0861 H   0  0  0  0  0  0  0  0  0  0  0  0
   -3.7689  -29.0802  -13.7891 H   0  0  0  0  0  0  0  0  0  0  0  0
  1 15  1  0
  1  2  1  0
  3  4  1  0
  4  5  2  0
  5  6  1  0
  5  7  1  0
  7  8  2  0
  8  1  1  0
  8  9  1  0
  9 10  2  0
  9 29  1  0
 10 11  1  0
 10 30  1  0
 11 12  2  0
 12  3  1  0
 12  7  1  0
 13 14  1  0
 13 31  1  0
 13 32  1  0
 13 33  1  0
 14  3  1  0
 14 34  1  0
 14 35  1  0
 15 16  1  0
 15 36  1  0
 15 37  1  0
 16 17  1  0
 16 38  1  0
 17 18  1  0
 17 39  1  0
 17 40  1  0
 18 19  1  0
 18 41  1  0
 18 42  1  0
 19 22  1  0
 19 20  1  0
 20 21  1  0
 20 43  1  0
 20 44  1  0
 21 16  1  0
 21 45  1  0
 21 46  1  0
 22 23  2  0
 22 24  1  0
 22 25  2  0
 23 26  1  0
 24 27  1  0
 24 28  1  0
M  END
>  <minimizedAffinity>  (10) 
-6.61018

>  <mol_id>  (10) 
138317

>  <source_index>  (10) 
9

>  <layer>  (10) 
L3

>  <uniprot>  (10) 
O14638

>  <paff>  (10) 
6

>  <smiles>  (10) 
CCn1nc(Cl)c2c(NCC3CCN(S(=N)(N)=O)CC3)ccnc21

$$$$
