L2:P18825:14322
     RDKit          3D

 58 62  0  0  0  0  0  0  0  0999 V2000
   -8.8137    3.8890   56.0942 C   0  0  0  0  0  0  0  0  0  0  0  0
   -8.6760    4.7183   57.1654 C   0  0  0  0  0  0  0  0  0  0  0  0
   -8.5131    4.1173   58.3882 N   0  0  0  0  0  0  0  0  0  0  0  0
   -8.4805    2.8170   58.2541 C   0  0  0  0  0  0  0  0  0  0  0  0
   -8.6519    2.2280   56.6091 S   0  0  0  0  0  0  0  0  0  0  0  0
   -8.3788    1.9397   59.3148 N   0  0  0  0  0  0  0  0  0  0  0  0
   -7.3617    0.9040   59.2315 C   0  0  0  0  0  0  0  0  0  0  0  0
   -7.6260   -0.1931   60.2381 C   0  0  0  0  0  0  0  0  0  0  0  0
   -7.7228    0.3598   61.6595 C   0  0  2  0  0  0  0  0  0  0  0  0
   -8.7422    1.4999   61.6784 C   0  0  2  0  0  0  0  0  0  0  0  0
  -10.0477    0.9628   61.4990 F   0  0  0  0  0  0  0  0  0  0  0  0
   -8.4787    2.5460   60.6281 C   0  0  0  0  0  0  0  0  0  0  0  0
   -6.4866    0.8927   62.2390 N   0  0  0  0  0  0  0  0  0  0  0  0
   -6.4959    0.9001   63.6977 C   0  0  0  0  0  0  0  0  0  0  0  0
   -6.2068   -0.4649   64.3559 C   0  0  0  0  0  0  0  0  0  0  0  0
   -5.7090   -1.4853   63.3425 C   0  0  0  0  0  0  0  0  0  0  0  0
   -4.6879   -0.8183   62.4591 C   0  0  1  0  0  0  0  0  0  0  0  0
   -5.1981    0.4261   61.7460 C   0  0  0  0  0  0  0  0  0  0  0  0
   -3.2331   -0.8022   62.9766 C   0  0  0  0  0  0  0  0  0  0  0  0
   -3.6230   -1.6071   61.8098 C   0  0  0  0  0  0  0  0  0  0  0  0
   -3.1851   -1.2279   60.5761 F   0  0  0  0  0  0  0  0  0  0  0  0
   -3.6162   -2.9570   61.8960 F   0  0  0  0  0  0  0  0  0  0  0  0
   -9.9521    3.5545   54.0474 O   0  0  0  0  0  0  0  0  0  0  0  0
   -9.1393    4.2231   54.6932 C   0  0  0  0  0  0  0  0  0  0  0  0
   -8.4848    5.3102   54.2430 N   0  0  0  0  0  0  0  0  0  0  0  0
   -7.5440    5.4450   54.6383 H   0  0  0  0  0  0  0  0  0  0  0  0
   -8.7552    5.8663   52.9420 C   0  0  0  0  0  0  0  0  0  0  0  0
   -9.0971    7.3318   52.9236 C   0  0  0  0  0  0  0  0  0  0  0  0
   -8.7652    8.0208   51.8335 N   0  0  0  0  0  0  0  0  0  0  0  0
   -9.0728    9.3056   51.6984 C   0  0  0  0  0  0  0  0  0  0  0  0
   -9.6870    9.9895   52.7354 C   0  0  0  0  0  0  0  0  0  0  0  0
   -9.9415   11.3148   52.6456 F   0  0  0  0  0  0  0  0  0  0  0  0
  -10.0447    9.3268   53.8896 C   0  0  0  0  0  0  0  0  0  0  0  0
   -9.7585    7.9797   53.9590 C   0  0  0  0  0  0  0  0  0  0  0  0
  -10.1304    7.3200   55.0872 F   0  0  0  0  0  0  0  0  0  0  0  0
   -8.6886    5.7940   57.0888 H   0  0  0  0  0  0  0  0  0  0  0  0
   -6.3814    1.3631   59.4176 H   0  0  0  0  0  0  0  0  0  0  0  0
   -7.3540    0.4893   58.2240 H   0  0  0  0  0  0  0  0  0  0  0  0
   -6.8735   -0.9753   60.1703 H   0  0  0  0  0  0  0  0  0  0  0  0
   -8.5734   -0.6621   59.9795 H   0  0  0  0  0  0  0  0  0  0  0  0
   -8.1282   -0.4359   62.2958 H   0  0  0  0  0  0  0  0  0  0  0  0
   -8.7606    1.9757   62.6558 H   0  0  0  0  0  0  0  0  0  0  0  0
   -7.5593    3.0845   60.8797 H   0  0  0  0  0  0  0  0  0  0  0  0
   -9.2857    3.2708   60.6149 H   0  0  0  0  0  0  0  0  0  0  0  0
   -7.4496    1.2891   64.0506 H   0  0  0  0  0  0  0  0  0  0  0  0
   -5.7506    1.6304   64.0038 H   0  0  0  0  0  0  0  0  0  0  0  0
   -7.0924   -0.8430   64.8696 H   0  0  0  0  0  0  0  0  0  0  0  0
   -5.4391   -0.3335   65.1184 H   0  0  0  0  0  0  0  0  0  0  0  0
   -6.5288   -1.8695   62.7337 H   0  0  0  0  0  0  0  0  0  0  0  0
   -5.2713   -2.3465   63.8442 H   0  0  0  0  0  0  0  0  0  0  0  0
   -5.2407    0.2338   60.6807 H   0  0  0  0  0  0  0  0  0  0  0  0
   -4.4841    1.2370   61.8754 H   0  0  0  0  0  0  0  0  0  0  0  0
   -3.0388   -1.3171   63.9068 H   0  0  0  0  0  0  0  0  0  0  0  0
   -2.5978    0.0485   62.7784 H   0  0  0  0  0  0  0  0  0  0  0  0
   -9.5868    5.3235   52.4847 H   0  0  0  0  0  0  0  0  0  0  0  0
   -7.8840    5.7102   52.3023 H   0  0  0  0  0  0  0  0  0  0  0  0
   -8.8102    9.7976   50.7720 H   0  0  0  0  0  0  0  0  0  0  0  0
  -10.5222    9.8494   54.7041 H   0  0  0  0  0  0  0  0  0  0  0  0
  1  2  2  0
  2  3  1  0
  2 36  1  0
  3  4  2  0
  4  6  1  0
  4  5  1  0
  5  1  1  0
  6  7  1  0
  7  8  1  0
  7 37  1  0
  7 38  1  0
  8  9  1  0
  8 39  1  0
  8 40  1  0
  9 13  1  0
  9 10  1  0
  9 41  1  1
 10 11  1  0
 10 12  1  0
 10 42  1  1
 12  6  1  0
 12 43  1  0
 12 44  1  0
 13 14  1  0
 14 15  1  0
 14 45  1  0
 14 46  1  0
 15 16  1  0
 15 47  1  0
 15 48  1  0
 16 49  1  0
 16 50  1  0
 17 16  1  1
 17 18  1  0
 17 19  1  0
 18 13  1  0
 18 51  1  0
 18 52  1  0
 19 20  1  0
 19 53  1  0
 19 54  1  0
 20 21  1  0
 20 22  1  0
 20 17  1  0
 23 24  2  0
 24 25  1  0
 24  1  1  0
 25 27  1  0
 25 26  1  0
 27 28  1  0
 27 55  1  0
 27 56  1  0
 28 29  2  0
 29 30  1  0
 30 31  2  0
 30 57  1  0
 31 32  1  0
 31 33  1  0
 33 34  2  0
 33 58  1  0
 34 35  1  0
 34 28  1  0
M  END
>  <minimizedAffinity>  (1) 
-10.13739

>  <mol_id>  (1) 
14322

>  <source_index>  (1) 
0

>  <layer>  (1) 
L2

>  <uniprot>  (1) 
P18825

>  <paff>  (1) 
9.1308000000000007

>  <smiles>  (1) 
FC1CN(CCC1N1CCCC2(CC2(F)F)C1)c1ncc(s1)C(=O)NCc1ncc(F)cc1F

>  <aimnet_interaction_kcal_mol>  (1) 
-54.722571949539933

$$$$
L2:P18825:42511
     RDKit          3D

 57 60  0  0  0  0  0  0  0  0999 V2000
   -7.7117    2.3510   58.8780 C   0  0  0  0  0  0  0  0  0  0  0  0
   -6.9520    3.3984   58.7018 N   0  0  0  0  0  0  0  0  0  0  0  0
   -7.2524    4.0346   57.5182 C   0  0  0  0  0  0  0  0  0  0  0  0
   -8.2804    3.5010   56.8013 C   0  0  0  0  0  0  0  0  0  0  0  0
   -8.8471    2.0330   57.5869 S   0  0  0  0  0  0  0  0  0  0  0  0
   -6.8727   -0.1841   62.1926 C   0  0  0  0  0  0  0  0  0  0  0  0
   -7.1280    1.3108   62.3755 C   0  0  0  0  0  0  0  0  0  0  0  0
   -6.8472    2.0733   61.0969 C   0  0  0  0  0  0  0  0  0  0  0  0
   -7.6673    1.5561   60.0033 N   0  0  0  0  0  0  0  0  0  0  0  0
   -7.5909    0.1133   59.8046 C   0  0  0  0  0  0  0  0  0  0  0  0
   -7.8341   -0.6412   61.0954 C   0  0  0  0  0  0  0  0  0  0  0  0
   -6.2380   -3.5188   62.6131 C   0  0  0  0  0  0  0  0  0  0  0  0
   -4.9235   -2.8878   62.1750 C   0  0  2  0  0  0  0  0  0  0  0  0
   -4.0269   -2.5105   63.3517 C   0  0  0  0  0  0  0  0  0  0  0  0
   -4.4497   -1.1988   63.9930 C   0  0  0  0  0  0  0  0  0  0  0  0
   -4.5476   -0.1033   62.9435 C   0  0  0  0  0  0  0  0  0  0  0  0
   -5.4670   -0.4086   61.8518 N   0  0  0  0  0  0  0  0  0  0  0  0
   -5.0832   -1.6882   61.2369 C   0  0  0  0  0  0  0  0  0  0  0  0
   -9.0390    3.9656   55.6289 C   0  0  0  0  0  0  0  0  0  0  0  0
  -10.0567    3.3514   55.2824 O   0  0  0  0  0  0  0  0  0  0  0  0
   -8.5695    5.0861   55.0352 N   0  0  0  0  0  0  0  0  0  0  0  0
   -7.5537    5.2455   55.1126 H   0  0  0  0  0  0  0  0  0  0  0  0
   -9.2224    5.5965   53.8486 C   0  0  0  0  0  0  0  0  0  0  0  0
   -9.5014    7.0724   53.9192 C   0  0  0  0  0  0  0  0  0  0  0  0
   -9.8711    7.6944   55.1016 C   0  0  0  0  0  0  0  0  0  0  0  0
  -10.1528    9.0539   55.1085 C   0  0  0  0  0  0  0  0  0  0  0  0
  -10.1122    9.8126   54.0136 N   0  0  0  0  0  0  0  0  0  0  0  0
   -9.7507    9.2396   52.8655 C   0  0  0  0  0  0  0  0  0  0  0  0
   -9.4347    7.8931   52.7966 C   0  0  0  0  0  0  0  0  0  0  0  0
   -9.0317    7.3740   51.6111 F   0  0  0  0  0  0  0  0  0  0  0  0
   -6.6627    4.8763   57.1907 H   0  0  0  0  0  0  0  0  0  0  0  0
   -7.1455   -0.6993   63.1256 H   0  0  0  0  0  0  0  0  0  0  0  0
   -6.5173    1.7168   63.1766 H   0  0  0  0  0  0  0  0  0  0  0  0
   -8.1707    1.4690   62.6613 H   0  0  0  0  0  0  0  0  0  0  0  0
   -5.7901    1.9972   60.8435 H   0  0  0  0  0  0  0  0  0  0  0  0
   -7.0667    3.1314   61.1983 H   0  0  0  0  0  0  0  0  0  0  0  0
   -6.6109   -0.1622   59.4117 H   0  0  0  0  0  0  0  0  0  0  0  0
   -8.3264   -0.1650   59.0542 H   0  0  0  0  0  0  0  0  0  0  0  0
   -7.7590   -1.7106   60.9240 H   0  0  0  0  0  0  0  0  0  0  0  0
   -8.8586   -0.4454   61.4226 H   0  0  0  0  0  0  0  0  0  0  0  0
   -6.0476   -4.3984   63.2313 H   0  0  0  0  0  0  0  0  0  0  0  0
   -6.8201   -3.8461   61.7547 H   0  0  0  0  0  0  0  0  0  0  0  0
   -6.8579   -2.8425   63.2020 H   0  0  0  0  0  0  0  0  0  0  0  0
   -4.4018   -3.6432   61.5870 H   0  0  0  0  0  0  0  0  0  0  0  0
   -2.9994   -2.4040   62.9916 H   0  0  0  0  0  0  0  0  0  0  0  0
   -4.0129   -3.3145   64.0902 H   0  0  0  0  0  0  0  0  0  0  0  0
   -3.7251   -0.8992   64.7549 H   0  0  0  0  0  0  0  0  0  0  0  0
   -5.4057   -1.3138   64.5065 H   0  0  0  0  0  0  0  0  0  0  0  0
   -3.5563    0.0405   62.4979 H   0  0  0  0  0  0  0  0  0  0  0  0
   -4.8084    0.8431   63.4145 H   0  0  0  0  0  0  0  0  0  0  0  0
   -4.1222   -1.5161   60.7476 H   0  0  0  0  0  0  0  0  0  0  0  0
   -5.7739   -1.9500   60.4459 H   0  0  0  0  0  0  0  0  0  0  0  0
  -10.1554    5.0447   53.7192 H   0  0  0  0  0  0  0  0  0  0  0  0
   -8.6033    5.3997   52.9704 H   0  0  0  0  0  0  0  0  0  0  0  0
   -9.9095    7.1182   56.0139 H   0  0  0  0  0  0  0  0  0  0  0  0
  -10.4028    9.5559   56.0338 H   0  0  0  0  0  0  0  0  0  0  0  0
   -9.6979    9.8678   51.9811 H   0  0  0  0  0  0  0  0  0  0  0  0
  1  2  2  0
  2  3  1  0
  3  4  2  0
  3 31  1  0
  4 19  1  0
  4  5  1  0
  5  1  1  0
  6  7  1  0
  6 32  1  0
  7  8  1  0
  7 33  1  0
  7 34  1  0
  8  9  1  0
  8 35  1  0
  8 36  1  0
  9  1  1  0
  9 10  1  0
 10 11  1  0
 10 37  1  0
 10 38  1  0
 11  6  1  0
 11 39  1  0
 11 40  1  0
 12 13  1  0
 12 41  1  0
 12 42  1  0
 12 43  1  0
 13 14  1  0
 13 44  1  6
 14 15  1  0
 14 45  1  0
 14 46  1  0
 15 16  1  0
 15 47  1  0
 15 48  1  0
 16 17  1  0
 16 49  1  0
 16 50  1  0
 17  6  1  0
 17 18  1  0
 18 13  1  0
 18 51  1  0
 18 52  1  0
 19 20  2  0
 19 21  1  0
 21 23  1  0
 21 22  1  0
 23 24  1  0
 23 53  1  0
 23 54  1  0
 24 25  2  0
 25 26  1  0
 25 55  1  0
 26 27  2  0
 26 56  1  0
 27 28  1  0
 28 29  2  0
 28 57  1  0
 29 30  1  0
 29 24  1  0
M  END
>  <minimizedAffinity>  (2) 
-8.97473

>  <mol_id>  (2) 
42511

>  <source_index>  (2) 
1

>  <layer>  (2) 
L2

>  <uniprot>  (2) 
P18825

>  <paff>  (2) 
6.3978999999999999

>  <smiles>  (2) 
C[C@@H]1CCCN(C1)C1CCN(CC1)c1ncc(s1)C(=O)NCc1ccncc1F |r|

>  <aimnet_interaction_kcal_mol>  (2) 
-60.181020806047812

$$$$
L2:P18825:61015
     RDKit          3D

 61 64  0  0  0  0  0  0  0  0999 V2000
   -7.4205    1.7451   59.4017 C   0  0  0  0  0  0  0  0  0  0  0  0
   -6.4196    2.1851   58.6703 N   0  0  0  0  0  0  0  0  0  0  0  0
   -6.8541    3.0005   57.6507 C   0  0  0  0  0  0  0  0  0  0  0  0
   -8.2044    3.1489   57.5530 C   0  0  0  0  0  0  0  0  0  0  0  0
   -8.9934    2.2131   58.8162 S   0  0  0  0  0  0  0  0  0  0  0  0
   -5.7086   -0.9312   62.2121 C   0  0  0  0  0  0  0  0  0  0  0  0
   -5.9718    0.5385   62.5867 C   0  0  0  0  0  0  0  0  0  0  0  0
   -6.1128    1.4372   61.3763 C   0  0  0  0  0  0  0  0  0  0  0  0
   -7.2559    1.0266   60.5596 N   0  0  0  0  0  0  0  0  0  0  0  0
   -7.4872   -0.4298   60.5457 C   0  0  0  0  0  0  0  0  0  0  0  0
   -6.1987   -1.1930   60.7865 C   0  0  0  0  0  0  0  0  0  0  0  0
   -0.8535   -0.8058   61.2346 C   0  0  0  0  0  0  0  0  0  0  0  0
   -1.9425   -0.8491   62.2927 C   0  0  2  0  0  0  0  0  0  0  0  0
   -1.8513   -2.0964   63.1844 C   0  0  0  0  0  0  0  0  0  0  0  0
   -2.7234   -3.2141   62.6324 C   0  0  0  0  0  0  0  0  0  0  0  0
   -4.1937   -2.7895   62.5952 C   0  0  0  0  0  0  0  0  0  0  0  0
   -4.3331   -1.3322   62.4986 N   0  0  0  0  0  0  0  0  0  0  0  0
   -3.3184   -0.7741   61.6208 C   0  0  0  0  0  0  0  0  0  0  0  0
   -9.0892    3.8636   56.6096 C   0  0  0  0  0  0  0  0  0  0  0  0
  -10.2985    3.9365   56.8787 O   0  0  0  0  0  0  0  0  0  0  0  0
   -8.4988    4.3524   55.5150 N   0  0  0  0  0  0  0  0  0  0  0  0
   -7.4853    4.4780   55.4545 H   0  0  0  0  0  0  0  0  0  0  0  0
   -9.2264    4.7097   54.3164 C   0  0  0  0  0  0  0  0  0  0  0  0
   -9.3146    6.1913   54.0934 C   0  0  0  0  0  0  0  0  0  0  0  0
   -9.6870    7.0293   55.1357 C   0  0  0  0  0  0  0  0  0  0  0  0
   -9.9050    8.3789   54.9071 C   0  0  0  0  0  0  0  0  0  0  0  0
   -9.7100    8.9072   53.6374 C   0  0  0  0  0  0  0  0  0  0  0  0
   -9.2740    8.0920   52.6013 C   0  0  0  0  0  0  0  0  0  0  0  0
   -9.0780    6.7338   52.8356 C   0  0  0  0  0  0  0  0  0  0  0  0
   -9.9595   10.3610   53.4363 C   0  0  0  0  0  0  0  0  0  0  0  0
   -9.1192   11.1253   54.2075 F   0  0  0  0  0  0  0  0  0  0  0  0
   -9.7850   10.7578   52.1635 F   0  0  0  0  0  0  0  0  0  0  0  0
  -11.2268   10.7145   53.8022 F   0  0  0  0  0  0  0  0  0  0  0  0
   -6.1277    3.4571   56.9959 H   0  0  0  0  0  0  0  0  0  0  0  0
   -6.3378   -1.5423   62.8709 H   0  0  0  0  0  0  0  0  0  0  0  0
   -5.1736    0.9065   63.2309 H   0  0  0  0  0  0  0  0  0  0  0  0
   -6.8982    0.6170   63.1622 H   0  0  0  0  0  0  0  0  0  0  0  0
   -5.2016    1.4281   60.7840 H   0  0  0  0  0  0  0  0  0  0  0  0
   -6.2644    2.4692   61.6734 H   0  0  0  0  0  0  0  0  0  0  0  0
   -7.9285   -0.7029   59.5895 H   0  0  0  0  0  0  0  0  0  0  0  0
   -8.2197   -0.6868   61.3187 H   0  0  0  0  0  0  0  0  0  0  0  0
   -5.4590   -0.8792   60.0568 H   0  0  0  0  0  0  0  0  0  0  0  0
   -6.3453   -2.2552   60.6155 H   0  0  0  0  0  0  0  0  0  0  0  0
    0.1340   -0.6863   61.6822 H   0  0  0  0  0  0  0  0  0  0  0  0
   -1.0191    0.0180   60.5378 H   0  0  0  0  0  0  0  0  0  0  0  0
   -0.8479   -1.7284   60.6579 H   0  0  0  0  0  0  0  0  0  0  0  0
   -1.8309    0.0309   62.9316 H   0  0  0  0  0  0  0  0  0  0  0  0
   -2.1913   -1.8565   64.1938 H   0  0  0  0  0  0  0  0  0  0  0  0
   -0.8127   -2.4207   63.2631 H   0  0  0  0  0  0  0  0  0  0  0  0
   -2.6213   -4.1182   63.2343 H   0  0  0  0  0  0  0  0  0  0  0  0
   -2.3870   -3.4721   61.6305 H   0  0  0  0  0  0  0  0  0  0  0  0
   -4.7053   -3.1073   63.5093 H   0  0  0  0  0  0  0  0  0  0  0  0
   -4.6936   -3.2981   61.7606 H   0  0  0  0  0  0  0  0  0  0  0  0
   -3.5518    0.2617   61.3780 H   0  0  0  0  0  0  0  0  0  0  0  0
   -3.2695   -1.2987   60.6585 H   0  0  0  0  0  0  0  0  0  0  0  0
  -10.2256    4.2784   54.3709 H   0  0  0  0  0  0  0  0  0  0  0  0
   -8.6997    4.2400   53.4875 H   0  0  0  0  0  0  0  0  0  0  0  0
   -9.8120    6.6251   56.1297 H   0  0  0  0  0  0  0  0  0  0  0  0
  -10.2106    9.0289   55.7166 H   0  0  0  0  0  0  0  0  0  0  0  0
   -9.0458    8.5117   51.6311 H   0  0  0  0  0  0  0  0  0  0  0  0
   -8.7130    6.1005   52.0370 H   0  0  0  0  0  0  0  0  0  0  0  0
  1  2  2  0
  2  3  1  0
  3  4  2  0
  3 34  1  0
  4 19  1  0
  4  5  1  0
  5  1  1  0
  6  7  1  0
  6 35  1  0
  7  8  1  0
  7 36  1  0
  7 37  1  0
  8  9  1  0
  8 38  1  0
  8 39  1  0
  9  1  1  0
  9 10  1  0
 10 11  1  0
 10 40  1  0
 10 41  1  0
 11  6  1  0
 11 42  1  0
 11 43  1  0
 12 13  1  0
 12 44  1  0
 12 45  1  0
 12 46  1  0
 13 14  1  0
 13 47  1  1
 14 15  1  0
 14 48  1  0
 14 49  1  0
 15 16  1  0
 15 50  1  0
 15 51  1  0
 16 17  1  0
 16 52  1  0
 16 53  1  0
 17  6  1  0
 17 18  1  0
 18 13  1  0
 18 54  1  0
 18 55  1  0
 19 20  2  0
 19 21  1  0
 21 23  1  0
 21 22  1  0
 23 24  1  0
 23 56  1  0
 23 57  1  0
 24 25  2  0
 25 26  1  0
 25 58  1  0
 26 27  2  0
 26 59  1  0
 27 30  1  0
 27 28  1  0
 28 29  2  0
 28 60  1  0
 29 24  1  0
 29 61  1  0
 30 31  1  0
 30 32  1  0
 30 33  1  0
M  END
>  <minimizedAffinity>  (3) 
-10.45023

>  <mol_id>  (3) 
61015

>  <source_index>  (3) 
2

>  <layer>  (3) 
L2

>  <uniprot>  (3) 
P18825

>  <paff>  (3) 
6.1938000000000004

>  <smiles>  (3) 
C[C@@H]1CCCN(C1)C1CCN(CC1)c1ncc(s1)C(=O)NCc1ccc(cc1)C(F)(F)F |r|

>  <aimnet_interaction_kcal_mol>  (3) 
-75.566896618031649

$$$$
L2:P18825:66479
     RDKit          3D

 58 61  0  0  0  0  0  0  0  0999 V2000
   -7.1208    1.9802   58.7279 C   0  0  0  0  0  0  0  0  0  0  0  0
   -6.7430    3.2328   58.6984 N   0  0  0  0  0  0  0  0  0  0  0  0
   -7.2054    3.8582   57.5671 C   0  0  0  0  0  0  0  0  0  0  0  0
   -8.0135    3.1111   56.7621 C   0  0  0  0  0  0  0  0  0  0  0  0
   -8.1168    1.4706   57.3778 S   0  0  0  0  0  0  0  0  0  0  0  0
   -5.0240   -0.5096   61.0815 C   0  0  0  0  0  0  0  0  0  0  0  0
   -5.1921    0.9168   61.6075 C   0  0  0  0  0  0  0  0  0  0  0  0
   -6.3918    1.6422   61.0142 C   0  0  0  0  0  0  0  0  0  0  0  0
   -6.6963    1.1121   59.6995 N   0  0  0  0  0  0  0  0  0  0  0  0
   -7.1094   -0.2834   59.6900 C   0  0  0  0  0  0  0  0  0  0  0  0
   -6.3934   -1.0902   60.7725 C   0  0  0  0  0  0  0  0  0  0  0  0
   -0.6392   -1.4847   63.0006 C   0  0  0  0  0  0  0  0  0  0  0  0
   -2.1288   -1.3844   63.2862 C   0  0  2  0  0  0  0  0  0  0  0  0
   -2.7252   -2.7210   63.7479 C   0  0  0  0  0  0  0  0  0  0  0  0
   -3.2481   -3.5040   62.5521 C   0  0  0  0  0  0  0  0  0  0  0  0
   -4.3664   -2.7459   61.8417 C   0  0  0  0  0  0  0  0  0  0  0  0
   -4.2728   -1.2895   62.0659 N   0  0  0  0  0  0  0  0  0  0  0  0
   -2.8665   -0.8845   62.0442 C   0  0  0  0  0  0  0  0  0  0  0  0
   -8.8395    3.5044   55.6141 C   0  0  0  0  0  0  0  0  0  0  0  0
   -9.7538    2.7808   55.2015 O   0  0  0  0  0  0  0  0  0  0  0  0
   -8.5377    4.7164   55.1008 N   0  0  0  0  0  0  0  0  0  0  0  0
   -7.5489    4.9966   55.1441 H   0  0  0  0  0  0  0  0  0  0  0  0
   -9.3057    5.2081   53.9820 C   0  0  0  0  0  0  0  0  0  0  0  0
   -9.3535    6.7065   53.9072 C   0  0  0  0  0  0  0  0  0  0  0  0
   -9.0836    7.3475   52.6984 C   0  0  0  0  0  0  0  0  0  0  0  0
   -9.2721    8.7137   52.5648 C   0  0  0  0  0  0  0  0  0  0  0  0
   -8.9850    9.4678   51.0126 Cl  0  0  0  0  0  0  0  0  0  0  0  0
   -9.6691    9.4903   53.6446 C   0  0  0  0  0  0  0  0  0  0  0  0
   -9.8870    8.8699   54.8671 C   0  0  0  0  0  0  0  0  0  0  0  0
   -9.7379    7.5020   54.9763 C   0  0  0  0  0  0  0  0  0  0  0  0
  -10.0057    6.9307   56.1847 F   0  0  0  0  0  0  0  0  0  0  0  0
   -6.8979    4.8692   57.3452 H   0  0  0  0  0  0  0  0  0  0  0  0
   -4.4738   -0.4744   60.1340 H   0  0  0  0  0  0  0  0  0  0  0  0
   -4.2929    1.4918   61.4084 H   0  0  0  0  0  0  0  0  0  0  0  0
   -5.2779    0.8664   62.6950 H   0  0  0  0  0  0  0  0  0  0  0  0
   -6.2030    2.7005   60.8947 H   0  0  0  0  0  0  0  0  0  0  0  0
   -7.2730    1.5378   61.6614 H   0  0  0  0  0  0  0  0  0  0  0  0
   -6.8898   -0.6977   58.7061 H   0  0  0  0  0  0  0  0  0  0  0  0
   -8.1949   -0.3520   59.8152 H   0  0  0  0  0  0  0  0  0  0  0  0
   -6.3048   -2.1124   60.4234 H   0  0  0  0  0  0  0  0  0  0  0  0
   -6.9803   -1.1121   61.6938 H   0  0  0  0  0  0  0  0  0  0  0  0
   -0.0792   -1.7212   63.9053 H   0  0  0  0  0  0  0  0  0  0  0  0
   -0.2438   -0.5519   62.5945 H   0  0  0  0  0  0  0  0  0  0  0  0
   -0.4335   -2.2702   62.2728 H   0  0  0  0  0  0  0  0  0  0  0  0
   -2.2802   -0.6507   64.0847 H   0  0  0  0  0  0  0  0  0  0  0  0
   -3.5530   -2.5375   64.4339 H   0  0  0  0  0  0  0  0  0  0  0  0
   -1.9775   -3.2982   64.2933 H   0  0  0  0  0  0  0  0  0  0  0  0
   -3.6191   -4.4818   62.8628 H   0  0  0  0  0  0  0  0  0  0  0  0
   -2.4307   -3.6945   61.8585 H   0  0  0  0  0  0  0  0  0  0  0  0
   -5.3353   -3.0860   62.2151 H   0  0  0  0  0  0  0  0  0  0  0  0
   -4.3397   -2.9775   60.7769 H   0  0  0  0  0  0  0  0  0  0  0  0
   -2.7911    0.2007   61.9882 H   0  0  0  0  0  0  0  0  0  0  0  0
   -2.3625   -1.2580   61.1380 H   0  0  0  0  0  0  0  0  0  0  0  0
  -10.3112    4.7948   54.0502 H   0  0  0  0  0  0  0  0  0  0  0  0
   -8.8805    4.8272   53.0494 H   0  0  0  0  0  0  0  0  0  0  0  0
   -8.7135    6.7621   51.8672 H   0  0  0  0  0  0  0  0  0  0  0  0
   -9.7938   10.5601   53.5490 H   0  0  0  0  0  0  0  0  0  0  0  0
  -10.1509    9.4528   55.7354 H   0  0  0  0  0  0  0  0  0  0  0  0
  1  2  2  0
  2  3  1  0
  3  4  2  0
  3 32  1  0
  4 19  1  0
  4  5  1  0
  5  1  1  0
  6  7  1  0
  6 33  1  0
  7  8  1  0
  7 34  1  0
  7 35  1  0
  8  9  1  0
  8 36  1  0
  8 37  1  0
  9  1  1  0
  9 10  1  0
 10 11  1  0
 10 38  1  0
 10 39  1  0
 11  6  1  0
 11 40  1  0
 11 41  1  0
 12 13  1  0
 12 42  1  0
 12 43  1  0
 12 44  1  0
 13 14  1  0
 13 45  1  1
 14 15  1  0
 14 46  1  0
 14 47  1  0
 15 16  1  0
 15 48  1  0
 15 49  1  0
 16 17  1  0
 16 50  1  0
 16 51  1  0
 17  6  1  0
 17 18  1  0
 18 13  1  0
 18 52  1  0
 18 53  1  0
 19 20  2  0
 19 21  1  0
 21 23  1  0
 21 22  1  0
 23 24  1  0
 23 54  1  0
 23 55  1  0
 24 25  2  0
 25 26  1  0
 25 56  1  0
 26 27  1  0
 26 28  2  0
 28 29  1  0
 28 57  1  0
 29 30  2  0
 29 58  1  0
 30 31  1  0
 30 24  1  0
M  END
>  <minimizedAffinity>  (4) 
-9.51761

>  <mol_id>  (4) 
66479

>  <source_index>  (4) 
3

>  <layer>  (4) 
L2

>  <uniprot>  (4) 
P18825

>  <paff>  (4) 
8.1426999999999996

>  <smiles>  (4) 
C[C@@H]1CCCN(C1)C1CCN(CC1)c1ncc(s1)C(=O)NCc1cc(Cl)ccc1F |r|

>  <aimnet_interaction_kcal_mol>  (4) 
-67.211092220654464

$$$$
L2:P18825:93624
     RDKit          3D

 60 63  0  0  0  0  0  0  0  0999 V2000
   -7.4195    2.2721   58.2447 C   0  0  0  0  0  0  0  0  0  0  0  0
   -7.0540    3.5265   58.2549 N   0  0  0  0  0  0  0  0  0  0  0  0
   -7.5822    4.2023   57.1885 C   0  0  0  0  0  0  0  0  0  0  0  0
   -8.4025    3.4835   56.3741 C   0  0  0  0  0  0  0  0  0  0  0  0
   -8.4999    1.8216   56.9380 S   0  0  0  0  0  0  0  0  0  0  0  0
   -6.8526   -0.1722   61.7133 C   0  0  0  0  0  0  0  0  0  0  0  0
   -5.9103    0.9840   61.3557 C   0  0  0  0  0  0  0  0  0  0  0  0
   -6.5331    1.9938   60.4284 C   0  0  0  0  0  0  0  0  0  0  0  0
   -6.9036    1.3755   59.1553 N   0  0  0  0  0  0  0  0  0  0  0  0
   -7.3776   -0.0095   59.2552 C   0  0  0  0  0  0  0  0  0  0  0  0
   -7.9375   -0.2973   60.6363 C   0  0  0  0  0  0  0  0  0  0  0  0
   -3.4518   -2.5208   64.3227 C   0  0  0  0  0  0  0  0  0  0  0  0
   -3.9986   -2.2594   62.9237 C   0  0  0  0  0  0  0  0  0  0  0  0
   -2.9176   -1.6397   62.0429 C   0  0  0  0  0  0  0  0  0  0  0  0
   -4.5008   -3.5652   62.2755 C   0  0  0  0  0  0  0  0  0  0  0  0
   -5.9864   -3.7789   62.5186 C   0  0  0  0  0  0  0  0  0  0  0  0
   -6.8171   -2.6271   61.9418 C   0  0  0  0  0  0  0  0  0  0  0  0
   -6.0444   -1.3864   61.8631 N   0  0  0  0  0  0  0  0  0  0  0  0
   -5.1751   -1.2821   63.0279 C   0  0  0  0  0  0  0  0  0  0  0  0
   -9.1620    3.8856   55.1833 C   0  0  0  0  0  0  0  0  0  0  0  0
  -10.1589    3.2471   54.8229 O   0  0  0  0  0  0  0  0  0  0  0  0
   -8.6908    4.9858   54.5494 N   0  0  0  0  0  0  0  0  0  0  0  0
   -7.6789    5.1544   54.6461 H   0  0  0  0  0  0  0  0  0  0  0  0
   -9.3606    5.4555   53.3552 C   0  0  0  0  0  0  0  0  0  0  0  0
   -9.4285    6.9509   53.2012 C   0  0  0  0  0  0  0  0  0  0  0  0
   -9.1394    7.4462   51.9966 N   0  0  0  0  0  0  0  0  0  0  0  0
   -9.2155    8.7477   51.7416 C   0  0  0  0  0  0  0  0  0  0  0  0
   -9.6115    9.6342   52.7293 C   0  0  0  0  0  0  0  0  0  0  0  0
   -9.6883   10.9606   52.4739 F   0  0  0  0  0  0  0  0  0  0  0  0
   -9.9323    9.1767   53.9906 C   0  0  0  0  0  0  0  0  0  0  0  0
   -9.8237    7.8194   54.2134 C   0  0  0  0  0  0  0  0  0  0  0  0
  -10.1019    7.3583   55.4609 F   0  0  0  0  0  0  0  0  0  0  0  0
   -7.2881    5.2225   57.0065 H   0  0  0  0  0  0  0  0  0  0  0  0
   -7.3557    0.0533   62.6713 H   0  0  0  0  0  0  0  0  0  0  0  0
   -5.0202    0.5730   60.8773 H   0  0  0  0  0  0  0  0  0  0  0  0
   -5.5751    1.4969   62.2529 H   0  0  0  0  0  0  0  0  0  0  0  0
   -5.8545    2.8049   60.2078 H   0  0  0  0  0  0  0  0  0  0  0  0
   -7.4099    2.4616   60.8866 H   0  0  0  0  0  0  0  0  0  0  0  0
   -6.5518   -0.6935   59.0572 H   0  0  0  0  0  0  0  0  0  0  0  0
   -8.1265   -0.1698   58.4850 H   0  0  0  0  0  0  0  0  0  0  0  0
   -8.3964   -1.2810   60.6526 H   0  0  0  0  0  0  0  0  0  0  0  0
   -8.7421    0.4159   60.8317 H   0  0  0  0  0  0  0  0  0  0  0  0
   -2.5515   -3.1329   64.2749 H   0  0  0  0  0  0  0  0  0  0  0  0
   -4.1766   -3.0455   64.9450 H   0  0  0  0  0  0  0  0  0  0  0  0
   -3.1918   -1.5911   64.8319 H   0  0  0  0  0  0  0  0  0  0  0  0
   -2.1159   -2.3501   61.8547 H   0  0  0  0  0  0  0  0  0  0  0  0
   -2.4889   -0.7514   62.5155 H   0  0  0  0  0  0  0  0  0  0  0  0
   -3.3280   -1.3478   61.0791 H   0  0  0  0  0  0  0  0  0  0  0  0
   -3.9251   -4.4116   62.6519 H   0  0  0  0  0  0  0  0  0  0  0  0
   -4.3380   -3.5262   61.2037 H   0  0  0  0  0  0  0  0  0  0  0  0
   -6.1683   -3.8692   63.5932 H   0  0  0  0  0  0  0  0  0  0  0  0
   -6.3147   -4.7137   62.0698 H   0  0  0  0  0  0  0  0  0  0  0  0
   -7.7232   -2.4814   62.5622 H   0  0  0  0  0  0  0  0  0  0  0  0
   -7.1507   -2.8942   60.9403 H   0  0  0  0  0  0  0  0  0  0  0  0
   -5.7456   -1.4543   63.9588 H   0  0  0  0  0  0  0  0  0  0  0  0
   -4.7903   -0.2656   63.1088 H   0  0  0  0  0  0  0  0  0  0  0  0
  -10.3721    5.0464   53.3539 H   0  0  0  0  0  0  0  0  0  0  0  0
   -8.8554    5.0694   52.4659 H   0  0  0  0  0  0  0  0  0  0  0  0
   -8.9985    9.0871   50.7349 H   0  0  0  0  0  0  0  0  0  0  0  0
  -10.2443    9.8652   54.7635 H   0  0  0  0  0  0  0  0  0  0  0  0
  1  2  2  0
  2  3  1  0
  3  4  2  0
  3 33  1  0
  4 20  1  0
  4  5  1  0
  5  1  1  0
  6  7  1  0
  6 34  1  0
  7  8  1  0
  7 35  1  0
  7 36  1  0
  8  9  1  0
  8 37  1  0
  8 38  1  0
  9  1  1  0
  9 10  1  0
 10 11  1  0
 10 39  1  0
 10 40  1  0
 11  6  1  0
 11 41  1  0
 11 42  1  0
 12 13  1  0
 12 43  1  0
 12 44  1  0
 12 45  1  0
 13 14  1  0
 13 15  1  0
 14 46  1  0
 14 47  1  0
 14 48  1  0
 15 16  1  0
 15 49  1  0
 15 50  1  0
 16 17  1  0
 16 51  1  0
 16 52  1  0
 17 18  1  0
 17 53  1  0
 17 54  1  0
 18  6  1  0
 18 19  1  0
 19 13  1  0
 19 55  1  0
 19 56  1  0
 20 21  2  0
 20 22  1  0
 22 24  1  0
 22 23  1  0
 24 25  1  0
 24 57  1  0
 24 58  1  0
 25 26  2  0
 26 27  1  0
 27 28  2  0
 27 59  1  0
 28 29  1  0
 28 30  1  0
 30 31  2  0
 30 60  1  0
 31 32  1  0
 31 25  1  0
M  END
>  <minimizedAffinity>  (5) 
-9.24769

>  <mol_id>  (5) 
93624

>  <source_index>  (5) 
4

>  <layer>  (5) 
L2

>  <uniprot>  (5) 
P18825

>  <paff>  (5) 
6.2441000000000004

>  <smiles>  (5) 
CC1(C)CCCN(C1)C1CCN(CC1)c1ncc(s1)C(=O)NCc1ncc(F)cc1F

>  <aimnet_interaction_kcal_mol>  (5) 
-64.444428793491682

$$$$
L2:P18825:126879
     RDKit          3D

 63 66  0  0  0  0  0  0  0  0999 V2000
   -8.8406    3.5264   57.4328 C   0  0  2  0  0  0  0  0  0  0  0  0
   -8.6799    2.0895   57.5170 N   0  0  0  0  0  0  0  0  0  0  0  0
   -7.6683    1.6511   58.3255 C   0  0  0  0  0  0  0  0  0  0  0  0
   -6.8001    2.5877   58.7565 C   0  0  0  0  0  0  0  0  0  0  0  0
   -7.1534    4.1726   58.0416 S   0  0  0  0  0  0  0  0  0  0  0  0
   -9.0977    1.5412   56.7792 H   0  0  0  0  0  0  0  0  0  0  0  0
  -10.3625    5.7678   60.6784 C   0  0  0  0  0  0  0  0  0  0  0  0
   -9.5695    4.4581   60.7419 C   0  0  0  0  0  0  0  0  0  0  0  0
   -9.9638    3.4450   59.6653 C   0  0  0  0  0  0  0  0  0  0  0  0
   -9.8900    3.9667   58.3108 N   0  0  0  0  0  0  0  0  0  0  0  0
  -10.1411    5.4029   58.2350 C   0  0  0  0  0  0  0  0  0  0  0  0
  -11.0730    5.8779   59.3283 C   0  0  0  0  0  0  0  0  0  0  0  0
  -12.2722    4.1587   64.2384 C   0  0  0  0  0  0  0  0  0  0  0  0
  -12.9434    5.2280   63.3920 C   0  0  1  0  0  0  0  0  0  0  0  0
  -12.7589    6.6257   64.0126 C   0  0  0  0  0  0  0  0  0  0  0  0
  -12.6496    7.6988   62.9435 C   0  0  0  0  0  0  0  0  0  0  0  0
  -11.4403    7.4349   62.0514 C   0  0  0  0  0  0  0  0  0  0  0  0
  -11.1939    6.0015   61.8584 N   0  0  0  0  0  0  0  0  0  0  0  0
  -12.3954    5.2052   61.9561 C   0  0  0  0  0  0  0  0  0  0  0  0
   -9.2483    3.8670   55.9604 C   0  0  0  0  0  0  0  0  0  0  0  0
  -10.1225    3.1335   55.4880 O   0  0  0  0  0  0  0  0  0  0  0  0
   -8.7296    4.9399   55.3397 N   0  0  0  0  0  0  0  0  0  0  0  0
   -7.7216    5.1409   55.4147 H   0  0  0  0  0  0  0  0  0  0  0  0
   -9.4614    5.4113   54.1506 C   0  0  2  0  0  0  0  0  0  0  0  0
   -9.1942    4.5364   52.9412 C   0  0  0  0  0  0  0  0  0  0  0  0
   -9.2576    6.8852   53.8581 C   0  0  0  0  0  0  0  0  0  0  0  0
   -8.7914    7.3241   52.6140 C   0  0  0  0  0  0  0  0  0  0  0  0
   -8.9693    8.6444   52.2401 C   0  0  0  0  0  0  0  0  0  0  0  0
   -8.6382    9.0371   50.9874 F   0  0  0  0  0  0  0  0  0  0  0  0
   -9.4703    9.5945   53.1066 C   0  0  0  0  0  0  0  0  0  0  0  0
   -9.8337    9.1951   54.3810 C   0  0  0  0  0  0  0  0  0  0  0  0
   -9.7449    7.8607   54.7184 C   0  0  0  0  0  0  0  0  0  0  0  0
  -10.1959    7.4912   55.9575 F   0  0  0  0  0  0  0  0  0  0  0  0
   -7.6704    0.6226   58.6633 H   0  0  0  0  0  0  0  0  0  0  0  0
   -6.0707    2.4916   59.5392 H   0  0  0  0  0  0  0  0  0  0  0  0
   -9.6236    6.5720   60.6895 H   0  0  0  0  0  0  0  0  0  0  0  0
   -9.6643    3.9978   61.7283 H   0  0  0  0  0  0  0  0  0  0  0  0
   -8.5107    4.6780   60.5892 H   0  0  0  0  0  0  0  0  0  0  0  0
  -10.9885    3.1117   59.8539 H   0  0  0  0  0  0  0  0  0  0  0  0
   -9.3394    2.5653   59.7499 H   0  0  0  0  0  0  0  0  0  0  0  0
  -10.5471    5.6250   57.2564 H   0  0  0  0  0  0  0  0  0  0  0  0
   -9.2060    5.9656   58.3221 H   0  0  0  0  0  0  0  0  0  0  0  0
  -11.9922    5.2959   59.3017 H   0  0  0  0  0  0  0  0  0  0  0  0
  -11.3628    6.9094   59.1476 H   0  0  0  0  0  0  0  0  0  0  0  0
  -12.5728    4.2296   65.2840 H   0  0  0  0  0  0  0  0  0  0  0  0
  -11.1895    4.2753   64.1878 H   0  0  0  0  0  0  0  0  0  0  0  0
  -12.5133    3.1539   63.8870 H   0  0  0  0  0  0  0  0  0  0  0  0
  -14.0141    5.0060   63.3286 H   0  0  0  0  0  0  0  0  0  0  0  0
  -11.8397    6.6378   64.6024 H   0  0  0  0  0  0  0  0  0  0  0  0
  -13.5738    6.8457   64.7030 H   0  0  0  0  0  0  0  0  0  0  0  0
  -12.5539    8.6890   63.3896 H   0  0  0  0  0  0  0  0  0  0  0  0
  -13.5670    7.7196   62.3491 H   0  0  0  0  0  0  0  0  0  0  0  0
  -10.5483    7.8700   62.5028 H   0  0  0  0  0  0  0  0  0  0  0  0
  -11.5803    7.9415   61.0937 H   0  0  0  0  0  0  0  0  0  0  0  0
  -12.1619    4.1780   61.6752 H   0  0  0  0  0  0  0  0  0  0  0  0
  -13.1819    5.5404   61.2619 H   0  0  0  0  0  0  0  0  0  0  0  0
  -10.5134    5.2919   54.4151 H   0  0  0  0  0  0  0  0  0  0  0  0
   -8.1437    4.5603   52.6738 H   0  0  0  0  0  0  0  0  0  0  0  0
   -9.8030    4.8580   52.0983 H   0  0  0  0  0  0  0  0  0  0  0  0
   -9.4546    3.5086   53.1766 H   0  0  0  0  0  0  0  0  0  0  0  0
   -8.3076    6.6332   51.9418 H   0  0  0  0  0  0  0  0  0  0  0  0
   -9.5601   10.6260   52.7967 H   0  0  0  0  0  0  0  0  0  0  0  0
  -10.1662    9.9308   55.0969 H   0  0  0  0  0  0  0  0  0  0  0  0
  1 10  1  1
  1 20  1  0
  1  2  1  0
  2  3  1  0
  2  6  1  0
  3  4  2  0
  3 34  1  0
  4  5  1  0
  4 35  1  0
  5  1  1  0
  7  8  1  0
  7 36  1  0
  8  9  1  0
  8 37  1  0
  8 38  1  0
  9 39  1  0
  9 40  1  0
 10  9  1  0
 10 11  1  0
 11 12  1  0
 11 41  1  0
 11 42  1  0
 12  7  1  0
 12 43  1  0
 12 44  1  0
 13 14  1  0
 13 45  1  0
 13 46  1  0
 13 47  1  0
 14 15  1  0
 14 48  1  6
 15 16  1  0
 15 49  1  0
 15 50  1  0
 16 17  1  0
 16 51  1  0
 16 52  1  0
 17 53  1  0
 17 54  1  0
 18 17  1  0
 18  7  1  0
 18 19  1  0
 19 14  1  0
 19 55  1  0
 19 56  1  0
 20 21  2  0
 20 22  1  0
 22 24  1  0
 22 23  1  0
 24 25  1  0
 24 26  1  0
 24 57  1  1
 25 58  1  0
 25 59  1  0
 25 60  1  0
 26 27  2  0
 27 28  1  0
 27 61  1  0
 28 29  1  0
 28 30  2  0
 30 31  1  0
 30 62  1  0
 31 32  2  0
 31 63  1  0
 32 33  1  0
 32 26  1  0
M  END
>  <minimizedAffinity>  (6) 
-9.51047

>  <mol_id>  (6) 
126879

>  <source_index>  (6) 
5

>  <layer>  (6) 
L2

>  <uniprot>  (6) 
P18825

>  <paff>  (6) 
7.6021000000000001

>  <smiles>  (6) 
CC(NC(=O)C1(N2CCC(N3CCC[C@H](C)C3)CC2)NC=CS1)c1cc(F)ccc1F

>  <aimnet_interaction_kcal_mol>  (6) 
-61.964308948704812

$$$$
L2:P18825:129391
     RDKit          3D

 58 61  0  0  0  0  0  0  0  0999 V2000
   -7.7418    2.5392   59.4593 C   0  0  0  0  0  0  0  0  0  0  0  0
   -6.5127    2.0389   59.4825 N   0  0  0  0  0  0  0  0  0  0  0  0
   -6.2387    1.5067   60.7076 C   0  0  0  0  0  0  0  0  0  0  0  0
   -7.2351    1.4973   61.6362 C   0  0  0  0  0  0  0  0  0  0  0  0
   -8.6718    2.2547   60.9538 S   0  0  0  0  0  0  0  0  0  0  0  0
   -9.7384    4.0260   56.0186 C   0  0  0  0  0  0  0  0  0  0  0  0
   -8.4918    3.1260   56.0255 C   0  0  0  0  0  0  0  0  0  0  0  0
   -7.5514    3.4147   57.1748 C   0  0  0  0  0  0  0  0  0  0  0  0
   -8.2646    3.2296   58.4459 N   0  0  0  0  0  0  0  0  0  0  0  0
   -9.6533    3.6781   58.4802 C   0  0  0  0  0  0  0  0  0  0  0  0
   -9.9258    4.6798   57.3800 C   0  0  0  0  0  0  0  0  0  0  0  0
   -9.8852    8.1950   54.2695 C   0  0  0  0  0  0  0  0  0  0  0  0
   -9.0201    7.0446   53.7863 C   0  0  2  0  0  0  0  0  0  0  0  0
   -9.5643    6.4113   52.5075 C   0  0  0  0  0  0  0  0  0  0  0  0
   -9.2585    4.9313   52.4847 C   0  0  0  0  0  0  0  0  0  0  0  0
   -9.9776    4.2616   53.6373 C   0  0  0  0  0  0  0  0  0  0  0  0
   -9.8039    4.9765   54.9128 N   0  0  0  0  0  0  0  0  0  0  0  0
   -8.7785    6.0114   54.8843 C   0  0  0  0  0  0  0  0  0  0  0  0
   -7.2731    0.8116   62.9204 C   0  0  0  0  0  0  0  0  0  0  0  0
   -8.2977    0.3168   63.3941 O   0  0  0  0  0  0  0  0  0  0  0  0
   -6.0451    0.7581   63.5376 N   0  0  0  0  0  0  0  0  0  0  0  0
   -5.3586    1.4138   63.1996 H   0  0  0  0  0  0  0  0  0  0  0  0
   -5.6228   -0.3542   64.3680 C   0  0  0  0  0  0  0  0  0  0  0  0
   -4.7438   -1.3406   63.6358 C   0  0  0  0  0  0  0  0  0  0  0  0
   -3.6589   -0.9112   62.8710 C   0  0  0  0  0  0  0  0  0  0  0  0
   -2.8351   -1.8216   62.2411 C   0  0  0  0  0  0  0  0  0  0  0  0
   -1.7733   -1.3460   61.5510 F   0  0  0  0  0  0  0  0  0  0  0  0
   -3.0662   -3.1807   62.3035 C   0  0  0  0  0  0  0  0  0  0  0  0
   -4.1520   -3.6249   63.0410 C   0  0  0  0  0  0  0  0  0  0  0  0
   -4.9564   -2.7115   63.6955 C   0  0  0  0  0  0  0  0  0  0  0  0
   -6.0046   -3.1793   64.4250 F   0  0  0  0  0  0  0  0  0  0  0  0
   -5.2661    1.0777   60.8907 H   0  0  0  0  0  0  0  0  0  0  0  0
  -10.5958    3.3621   55.8795 H   0  0  0  0  0  0  0  0  0  0  0  0
   -7.9319    3.2488   55.1060 H   0  0  0  0  0  0  0  0  0  0  0  0
   -8.8046    2.0820   56.0905 H   0  0  0  0  0  0  0  0  0  0  0  0
   -7.1586    4.4270   57.1080 H   0  0  0  0  0  0  0  0  0  0  0  0
   -6.7011    2.7427   57.1675 H   0  0  0  0  0  0  0  0  0  0  0  0
   -9.8533    4.1159   59.4595 H   0  0  0  0  0  0  0  0  0  0  0  0
  -10.3251    2.8179   58.3751 H   0  0  0  0  0  0  0  0  0  0  0  0
   -9.2574    5.5245   57.5033 H   0  0  0  0  0  0  0  0  0  0  0  0
  -10.9362    5.0689   57.4829 H   0  0  0  0  0  0  0  0  0  0  0  0
  -10.1301    8.8748   53.4507 H   0  0  0  0  0  0  0  0  0  0  0  0
   -9.3898    8.7661   55.0529 H   0  0  0  0  0  0  0  0  0  0  0  0
  -10.8187    7.8272   54.6871 H   0  0  0  0  0  0  0  0  0  0  0  0
   -8.0384    7.4429   53.5443 H   0  0  0  0  0  0  0  0  0  0  0  0
   -9.1458    6.9287   51.6451 H   0  0  0  0  0  0  0  0  0  0  0  0
  -10.6453    6.5543   52.4496 H   0  0  0  0  0  0  0  0  0  0  0  0
   -8.1865    4.7659   52.5782 H   0  0  0  0  0  0  0  0  0  0  0  0
   -9.5608    4.4904   51.5384 H   0  0  0  0  0  0  0  0  0  0  0  0
   -9.6312    3.2281   53.7107 H   0  0  0  0  0  0  0  0  0  0  0  0
  -11.0516    4.1941   53.4319 H   0  0  0  0  0  0  0  0  0  0  0  0
   -7.7719    5.5849   54.7911 H   0  0  0  0  0  0  0  0  0  0  0  0
   -8.7942    6.5348   55.8385 H   0  0  0  0  0  0  0  0  0  0  0  0
   -6.5152   -0.8488   64.7303 H   0  0  0  0  0  0  0  0  0  0  0  0
   -5.1015    0.0335   65.2441 H   0  0  0  0  0  0  0  0  0  0  0  0
   -3.4620    0.1419   62.7450 H   0  0  0  0  0  0  0  0  0  0  0  0
   -2.4427   -3.8669   61.7544 H   0  0  0  0  0  0  0  0  0  0  0  0
   -4.3885   -4.6764   63.0966 H   0  0  0  0  0  0  0  0  0  0  0  0
  1  2  2  0
  2  3  1  0
  3  4  2  0
  3 32  1  0
  4 19  1  0
  4  5  1  0
  5  1  1  0
  6  7  1  0
  6 33  1  0
  7  8  1  0
  7 34  1  0
  7 35  1  0
  8  9  1  0
  8 36  1  0
  8 37  1  0
  9  1  1  0
  9 10  1  0
 10 11  1  0
 10 38  1  0
 10 39  1  0
 11  6  1  0
 11 40  1  0
 11 41  1  0
 12 13  1  0
 12 42  1  0
 12 43  1  0
 12 44  1  0
 13 14  1  0
 13 45  1  6
 14 15  1  0
 14 46  1  0
 14 47  1  0
 15 16  1  0
 15 48  1  0
 15 49  1  0
 16 17  1  0
 16 50  1  0
 16 51  1  0
 17  6  1  0
 17 18  1  0
 18 13  1  0
 18 52  1  0
 18 53  1  0
 19 20  2  0
 19 21  1  0
 21 23  1  0
 21 22  1  0
 23 24  1  0
 23 54  1  0
 23 55  1  0
 24 25  2  0
 25 26  1  0
 25 56  1  0
 26 27  1  0
 26 28  2  0
 28 29  1  0
 28 57  1  0
 29 30  2  0
 29 58  1  0
 30 31  1  0
 30 24  1  0
M  END
>  <minimizedAffinity>  (7) 
-9.08687

>  <mol_id>  (7) 
129391

>  <source_index>  (7) 
6

>  <layer>  (7) 
L2

>  <uniprot>  (7) 
P18825

>  <paff>  (7) 
7.6536

>  <smiles>  (7) 
C[C@@H]1CCCN(C1)C1CCN(CC1)c1ncc(s1)C(=O)NCc1cc(F)ccc1F |r|

>  <aimnet_interaction_kcal_mol>  (7) 
-61.328913586298164

$$$$
L2:P18825:134891
     RDKit          3D

 61 64  0  0  0  0  0  0  0  0999 V2000
   -8.3606    3.4895   56.4486 C   0  0  0  0  0  0  0  0  0  0  0  0
   -7.5470    4.2442   57.2391 C   0  0  0  0  0  0  0  0  0  0  0  0
   -7.0036    3.6068   58.3225 N   0  0  0  0  0  0  0  0  0  0  0  0
   -7.3398    2.3484   58.3471 C   0  0  0  0  0  0  0  0  0  0  0  0
   -8.4227    1.8453   57.0559 S   0  0  0  0  0  0  0  0  0  0  0  0
   -6.8179    1.4760   59.2975 N   0  0  0  0  0  0  0  0  0  0  0  0
   -6.6198    2.0852   60.6198 C   0  0  0  0  0  0  0  0  0  0  0  0
   -5.6273    1.2900   61.4471 C   0  0  0  0  0  0  0  0  0  0  0  0
   -5.5331   -0.1626   61.0092 C   0  0  0  0  0  0  0  0  0  0  0  0
   -6.9091   -0.6576   60.5796 C   0  0  0  0  0  0  0  0  0  0  0  0
   -7.4179    0.1368   59.3747 C   0  0  0  0  0  0  0  0  0  0  0  0
   -4.8555   -0.9618   62.0176 N   0  0  0  0  0  0  0  0  0  0  0  0
   -5.6016   -1.2828   63.2235 C   0  0  0  0  0  0  0  0  0  0  0  0
   -4.6601   -1.8200   64.2898 C   0  0  0  0  0  0  0  0  0  0  0  0
   -3.8603   -3.0054   63.7684 C   0  0  0  0  0  0  0  0  0  0  0  0
   -3.2006   -2.6793   62.4425 C   0  0  1  0  0  0  0  0  0  0  0  0
   -4.2411   -2.1634   61.4722 C   0  0  0  0  0  0  0  0  0  0  0  0
   -2.1711   -1.7098   62.7442 O   0  0  0  0  0  0  0  0  0  0  0  0
   -1.6419   -1.0837   61.6077 C   0  0  0  0  0  0  0  0  0  0  0  0
   -0.2960   -0.4865   61.9615 C   0  0  0  0  0  0  0  0  0  0  0  0
   -0.3683    0.4511   62.9379 F   0  0  0  0  0  0  0  0  0  0  0  0
    0.2432    0.1276   60.8753 F   0  0  0  0  0  0  0  0  0  0  0  0
    0.5963   -1.4182   62.3685 F   0  0  0  0  0  0  0  0  0  0  0  0
  -10.1452    3.2175   54.9289 O   0  0  0  0  0  0  0  0  0  0  0  0
   -9.1426    3.8626   55.2598 C   0  0  0  0  0  0  0  0  0  0  0  0
   -8.6815    4.9507   54.5998 N   0  0  0  0  0  0  0  0  0  0  0  0
   -7.6690    5.1247   54.6812 H   0  0  0  0  0  0  0  0  0  0  0  0
   -9.3677    5.4052   53.4092 C   0  0  0  0  0  0  0  0  0  0  0  0
   -9.4438    6.9000   53.2446 C   0  0  0  0  0  0  0  0  0  0  0  0
   -9.1545    7.3897   52.0369 N   0  0  0  0  0  0  0  0  0  0  0  0
   -9.2202    8.6916   51.7797 C   0  0  0  0  0  0  0  0  0  0  0  0
   -9.6156    9.5832   52.7625 C   0  0  0  0  0  0  0  0  0  0  0  0
   -9.6877   10.9086   52.5003 F   0  0  0  0  0  0  0  0  0  0  0  0
   -9.9409    9.1312   54.0249 C   0  0  0  0  0  0  0  0  0  0  0  0
   -9.8344    7.7749   54.2537 C   0  0  0  0  0  0  0  0  0  0  0  0
  -10.1082    7.3203   55.5047 F   0  0  0  0  0  0  0  0  0  0  0  0
   -7.2746    5.2662   57.0323 H   0  0  0  0  0  0  0  0  0  0  0  0
   -7.5906    2.1575   61.1285 H   0  0  0  0  0  0  0  0  0  0  0  0
   -6.2823    3.0998   60.4563 H   0  0  0  0  0  0  0  0  0  0  0  0
   -5.9045    1.3436   62.4979 H   0  0  0  0  0  0  0  0  0  0  0  0
   -4.6389    1.7373   61.3901 H   0  0  0  0  0  0  0  0  0  0  0  0
   -4.9042   -0.1848   60.1207 H   0  0  0  0  0  0  0  0  0  0  0  0
   -7.6100   -0.5526   61.4100 H   0  0  0  0  0  0  0  0  0  0  0  0
   -6.8648   -1.7173   60.3419 H   0  0  0  0  0  0  0  0  0  0  0  0
   -8.5044    0.2444   59.4259 H   0  0  0  0  0  0  0  0  0  0  0  0
   -7.1959   -0.3938   58.4487 H   0  0  0  0  0  0  0  0  0  0  0  0
   -6.3863   -2.0382   63.0255 H   0  0  0  0  0  0  0  0  0  0  0  0
   -6.1178   -0.3962   63.5906 H   0  0  0  0  0  0  0  0  0  0  0  0
   -5.2229   -2.0949   65.1832 H   0  0  0  0  0  0  0  0  0  0  0  0
   -3.9704   -1.0266   64.5752 H   0  0  0  0  0  0  0  0  0  0  0  0
   -4.5278   -3.8567   63.6140 H   0  0  0  0  0  0  0  0  0  0  0  0
   -3.1053   -3.3138   64.4921 H   0  0  0  0  0  0  0  0  0  0  0  0
   -2.7299   -3.5706   62.0137 H   0  0  0  0  0  0  0  0  0  0  0  0
   -4.9666   -2.9642   61.2957 H   0  0  0  0  0  0  0  0  0  0  0  0
   -3.7862   -1.9603   60.5109 H   0  0  0  0  0  0  0  0  0  0  0  0
   -2.2799   -0.2730   61.2530 H   0  0  0  0  0  0  0  0  0  0  0  0
   -1.4793   -1.7819   60.7805 H   0  0  0  0  0  0  0  0  0  0  0  0
  -10.3750    4.9865   53.4246 H   0  0  0  0  0  0  0  0  0  0  0  0
   -8.8691    5.0176   52.5167 H   0  0  0  0  0  0  0  0  0  0  0  0
   -8.9929    9.0301   50.7745 H   0  0  0  0  0  0  0  0  0  0  0  0
  -10.2523    9.8238   54.7943 H   0  0  0  0  0  0  0  0  0  0  0  0
  1  2  2  0
  2  3  1  0
  2 37  1  0
  3  4  2  0
  4  6  1  0
  4  5  1  0
  5  1  1  0
  6  7  1  0
  7  8  1  0
  7 38  1  0
  7 39  1  0
  8  9  1  0
  8 40  1  0
  8 41  1  0
  9 10  1  0
  9 42  1  0
 10 11  1  0
 10 43  1  0
 10 44  1  0
 11  6  1  0
 11 45  1  0
 11 46  1  0
 12  9  1  0
 12 13  1  0
 13 14  1  0
 13 47  1  0
 13 48  1  0
 14 15  1  0
 14 49  1  0
 14 50  1  0
 15 16  1  0
 15 51  1  0
 15 52  1  0
 16 18  1  0
 16 17  1  0
 16 53  1  6
 17 12  1  0
 17 54  1  0
 17 55  1  0
 18 19  1  0
 19 20  1  0
 19 56  1  0
 19 57  1  0
 20 21  1  0
 20 22  1  0
 20 23  1  0
 24 25  2  0
 25 26  1  0
 25  1  1  0
 26 28  1  0
 26 27  1  0
 28 29  1  0
 28 58  1  0
 28 59  1  0
 29 30  2  0
 30 31  1  0
 31 32  2  0
 31 60  1  0
 32 33  1  0
 32 34  1  0
 34 35  2  0
 34 61  1  0
 35 36  1  0
 35 29  1  0
M  END
>  <minimizedAffinity>  (8) 
-9.32591

>  <mol_id>  (8) 
134891

>  <source_index>  (8) 
7

>  <layer>  (8) 
L2

>  <uniprot>  (8) 
P18825

>  <paff>  (8) 
6.1938000000000004

>  <smiles>  (8) 
Fc1cnc(CNC(=O)c2cnc(s2)N2CCC(CC2)N2CCCC(C2)OCC(F)(F)F)c(F)c1

>  <aimnet_interaction_kcal_mol>  (8) 
-73.488234107256147

$$$$
L2:P18825:136971
     RDKit          3D

 61 64  0  0  0  0  0  0  0  0999 V2000
   -8.2619    3.0119   58.3507 C   0  0  0  0  0  0  0  0  0  0  0  0
   -8.5918    4.2763   58.4563 N   0  0  0  0  0  0  0  0  0  0  0  0
   -8.9565    4.7778   57.2241 C   0  0  0  0  0  0  0  0  0  0  0  0
   -8.8936    3.9099   56.1768 C   0  0  0  0  0  0  0  0  0  0  0  0
   -8.3115    2.3617   56.7325 S   0  0  0  0  0  0  0  0  0  0  0  0
   -6.8679    0.5638   61.5440 C   0  0  0  0  0  0  0  0  0  0  0  0
   -6.6732    2.0700   61.5047 C   0  0  0  0  0  0  0  0  0  0  0  0
   -7.7350    2.8032   60.7140 C   0  0  0  0  0  0  0  0  0  0  0  0
   -7.8737    2.2160   59.3929 N   0  0  0  0  0  0  0  0  0  0  0  0
   -8.2198    0.8038   59.4370 C   0  0  0  0  0  0  0  0  0  0  0  0
   -7.1477    0.0079   60.1493 C   0  0  0  0  0  0  0  0  0  0  0  0
   -2.0601   -0.6728   61.6969 C   0  0  0  0  0  0  0  0  0  0  0  0
   -3.4391   -0.8885   62.2913 C   0  0  2  0  0  0  0  0  0  0  0  0
   -3.8374   -2.3740   62.2385 C   0  0  0  0  0  0  0  0  0  0  0  0
   -5.3427   -2.5454   62.0630 C   0  0  0  0  0  0  0  0  0  0  0  0
   -6.1054   -1.4343   62.7597 C   0  0  0  0  0  0  0  0  0  0  0  0
   -5.7775   -0.0950   62.2532 N   0  0  0  0  0  0  0  0  0  0  0  0
   -4.4805   -0.0359   61.5827 C   0  0  0  0  0  0  0  0  0  0  0  0
   -9.3630    3.9014   54.7778 C   0  0  0  0  0  0  0  0  0  0  0  0
   -9.7932    2.8310   54.3325 O   0  0  0  0  0  0  0  0  0  0  0  0
   -9.3009    5.0329   54.0260 N   0  0  0  0  0  0  0  0  0  0  0  0
   -9.5406    4.8662   52.6080 C   0  0  0  0  0  0  0  0  0  0  0  0
   -8.5154    6.2172   54.3591 C   0  0  0  0  0  0  0  0  0  0  0  0
   -9.1031    7.4769   53.8040 C   0  0  0  0  0  0  0  0  0  0  0  0
   -8.8516    7.8536   52.4854 C   0  0  0  0  0  0  0  0  0  0  0  0
   -9.2415    9.0947   52.0084 C   0  0  0  0  0  0  0  0  0  0  0  0
   -9.8891    9.9868   52.8518 C   0  0  0  0  0  0  0  0  0  0  0  0
  -10.1864    9.6031   54.1501 C   0  0  0  0  0  0  0  0  0  0  0  0
   -9.8342    8.3403   54.6087 C   0  0  0  0  0  0  0  0  0  0  0  0
   -9.2900    5.8031   57.1656 H   0  0  0  0  0  0  0  0  0  0  0  0
   -7.7836    0.3912   62.1252 H   0  0  0  0  0  0  0  0  0  0  0  0
   -5.7046    2.3031   61.0742 H   0  0  0  0  0  0  0  0  0  0  0  0
   -6.6393    2.4584   62.5196 H   0  0  0  0  0  0  0  0  0  0  0  0
   -7.4782    3.8478   60.5776 H   0  0  0  0  0  0  0  0  0  0  0  0
   -8.6993    2.7711   61.2436 H   0  0  0  0  0  0  0  0  0  0  0  0
   -8.3547    0.4289   58.4267 H   0  0  0  0  0  0  0  0  0  0  0  0
   -9.1750    0.6785   59.9652 H   0  0  0  0  0  0  0  0  0  0  0  0
   -6.2378    0.0269   59.5615 H   0  0  0  0  0  0  0  0  0  0  0  0
   -7.4398   -1.0398   60.2134 H   0  0  0  0  0  0  0  0  0  0  0  0
   -1.3249   -1.3145   62.1828 H   0  0  0  0  0  0  0  0  0  0  0  0
   -1.7285    0.3611   61.8032 H   0  0  0  0  0  0  0  0  0  0  0  0
   -2.0611   -0.9193   60.6360 H   0  0  0  0  0  0  0  0  0  0  0  0
   -3.4236   -0.5570   63.3363 H   0  0  0  0  0  0  0  0  0  0  0  0
   -3.4973   -2.8590   63.1564 H   0  0  0  0  0  0  0  0  0  0  0  0
   -3.3232   -2.8613   61.4127 H   0  0  0  0  0  0  0  0  0  0  0  0
   -5.6679   -3.5122   62.4512 H   0  0  0  0  0  0  0  0  0  0  0  0
   -5.5893   -2.5506   61.0054 H   0  0  0  0  0  0  0  0  0  0  0  0
   -5.8895   -1.4749   63.8347 H   0  0  0  0  0  0  0  0  0  0  0  0
   -7.1802   -1.6012   62.6599 H   0  0  0  0  0  0  0  0  0  0  0  0
   -4.1487    1.0004   61.5604 H   0  0  0  0  0  0  0  0  0  0  0  0
   -4.5211   -0.3675   60.5372 H   0  0  0  0  0  0  0  0  0  0  0  0
  -10.0104    3.9091   52.4663 H   0  0  0  0  0  0  0  0  0  0  0  0
   -8.5995    4.8791   52.0571 H   0  0  0  0  0  0  0  0  0  0  0  0
  -10.1916    5.6545   52.2384 H   0  0  0  0  0  0  0  0  0  0  0  0
   -7.5043    6.0494   53.9840 H   0  0  0  0  0  0  0  0  0  0  0  0
   -8.4135    6.2859   55.4354 H   0  0  0  0  0  0  0  0  0  0  0  0
   -8.3324    7.1737   51.8266 H   0  0  0  0  0  0  0  0  0  0  0  0
   -9.0339    9.3794   50.9858 H   0  0  0  0  0  0  0  0  0  0  0  0
  -10.1684   10.9711   52.4989 H   0  0  0  0  0  0  0  0  0  0  0  0
  -10.6916   10.3014   54.7986 H   0  0  0  0  0  0  0  0  0  0  0  0
  -10.0970    8.0317   55.6138 H   0  0  0  0  0  0  0  0  0  0  0  0
  1  2  2  0
  2  3  1  0
  3  4  2  0
  3 30  1  0
  4 19  1  0
  4  5  1  0
  5  1  1  0
  6  7  1  0
  6 31  1  0
  7  8  1  0
  7 32  1  0
  7 33  1  0
  8  9  1  0
  8 34  1  0
  8 35  1  0
  9  1  1  0
  9 10  1  0
 10 11  1  0
 10 36  1  0
 10 37  1  0
 11  6  1  0
 11 38  1  0
 11 39  1  0
 12 13  1  0
 12 40  1  0
 12 41  1  0
 12 42  1  0
 13 14  1  0
 13 43  1  1
 14 15  1  0
 14 44  1  0
 14 45  1  0
 15 16  1  0
 15 46  1  0
 15 47  1  0
 16 17  1  0
 16 48  1  0
 16 49  1  0
 17  6  1  0
 17 18  1  0
 18 13  1  0
 18 50  1  0
 18 51  1  0
 19 20  2  0
 19 21  1  0
 21 22  1  0
 21 23  1  0
 22 52  1  0
 22 53  1  0
 22 54  1  0
 23 24  1  0
 23 55  1  0
 23 56  1  0
 24 25  2  0
 25 26  1  0
 25 57  1  0
 26 27  2  0
 26 58  1  0
 27 28  1  0
 27 59  1  0
 28 29  2  0
 28 60  1  0
 29 24  1  0
 29 61  1  0
M  END
>  <minimizedAffinity>  (9) 
-9.23156

>  <mol_id>  (9) 
136971

>  <source_index>  (9) 
8

>  <layer>  (9) 
L2

>  <uniprot>  (9) 
P18825

>  <paff>  (9) 
7.0705999999999998

>  <smiles>  (9) 
C[C@@H]1CCCN(C1)C1CCN(CC1)c1ncc(s1)C(=O)N(C)Cc1ccccc1 |r|

>  <aimnet_interaction_kcal_mol>  (9) 
-56.359086179145301

$$$$
L2:P18825:144176
     RDKit          3D

 64 67  0  0  0  0  0  0  0  0999 V2000
   -8.2815    3.4447   57.1216 C   0  0  0  0  0  0  0  0  0  0  0  0
   -6.9339    3.2781   57.2301 C   0  0  0  0  0  0  0  0  0  0  0  0
   -6.5192    2.4338   58.2379 N   0  0  0  0  0  0  0  0  0  0  0  0
   -7.5373    1.9847   58.9361 C   0  0  0  0  0  0  0  0  0  0  0  0
   -9.1028    2.4564   58.3280 S   0  0  0  0  0  0  0  0  0  0  0  0
   -7.3874    1.2699   60.0903 N   0  0  0  0  0  0  0  0  0  0  0  0
   -7.7100   -0.1449   60.1120 C   0  0  0  0  0  0  0  0  0  0  0  0
   -7.6739   -0.6621   61.5387 C   0  0  0  0  0  0  0  0  0  0  0  0
   -6.2813   -0.5282   62.2011 C   0  0  0  0  0  0  0  0  0  0  0  0
   -5.4774    0.5317   61.4515 C   0  0  0  0  0  0  0  0  0  0  0  0
   -6.3813    1.6859   61.0650 C   0  0  0  0  0  0  0  0  0  0  0  0
   -5.5894   -1.8176   62.2573 N   0  0  0  0  0  0  0  0  0  0  0  0
   -6.2198   -2.7523   63.1777 C   0  0  0  0  0  0  0  0  0  0  0  0
   -5.7301   -4.1694   62.8917 C   0  0  0  0  0  0  0  0  0  0  0  0
   -4.2499   -4.1695   62.5028 C   0  0  0  0  0  0  0  0  0  0  0  0
   -3.5319   -2.9684   63.1085 C   0  0  1  0  0  0  0  0  0  0  0  0
   -2.0466   -2.9606   62.7916 C   0  0  0  0  0  0  0  0  0  0  0  0
   -4.1829   -1.6616   62.6350 C   0  0  0  0  0  0  0  0  0  0  0  0
   -8.6054    4.9006   55.2265 N   0  0  0  0  0  0  0  0  0  0  0  0
   -9.1606    4.2706   56.2739 C   0  0  0  0  0  0  0  0  0  0  0  0
  -10.3660    4.3252   56.5710 O   0  0  0  0  0  0  0  0  0  0  0  0
   -7.5833    4.9358   55.1289 H   0  0  0  0  0  0  0  0  0  0  0  0
   -9.4270    5.3153   54.0969 C   0  0  2  0  0  0  0  0  0  0  0  0
   -9.1759    4.4334   52.8851 C   0  0  0  0  0  0  0  0  0  0  0  0
   -9.7496   10.9703   52.8792 C   0  0  0  0  0  0  0  0  0  0  0  0
   -9.5583    9.5268   53.1928 C   0  0  0  0  0  0  0  0  0  0  0  0
   -9.0664    8.6266   52.2529 C   0  0  0  0  0  0  0  0  0  0  0  0
   -8.8884    7.2843   52.5728 C   0  0  0  0  0  0  0  0  0  0  0  0
   -9.2930    6.7893   53.8105 C   0  0  0  0  0  0  0  0  0  0  0  0
   -9.7140    7.7026   54.7710 C   0  0  0  0  0  0  0  0  0  0  0  0
   -9.8475    9.0492   54.4676 C   0  0  0  0  0  0  0  0  0  0  0  0
   -6.2190    3.7665   56.5805 H   0  0  0  0  0  0  0  0  0  0  0  0
   -7.0241   -0.7277   59.4859 H   0  0  0  0  0  0  0  0  0  0  0  0
   -8.7014   -0.2664   59.6842 H   0  0  0  0  0  0  0  0  0  0  0  0
   -7.9909   -1.7016   61.5365 H   0  0  0  0  0  0  0  0  0  0  0  0
   -8.4166   -0.1024   62.1152 H   0  0  0  0  0  0  0  0  0  0  0  0
   -6.4347   -0.1510   63.2311 H   0  0  0  0  0  0  0  0  0  0  0  0
   -5.0158    0.1043   60.5626 H   0  0  0  0  0  0  0  0  0  0  0  0
   -4.6658    0.9140   62.0645 H   0  0  0  0  0  0  0  0  0  0  0  0
   -5.8273    2.5108   60.6371 H   0  0  0  0  0  0  0  0  0  0  0  0
   -6.8810    2.0589   61.9655 H   0  0  0  0  0  0  0  0  0  0  0  0
   -7.3021   -2.7119   63.0747 H   0  0  0  0  0  0  0  0  0  0  0  0
   -6.0179   -2.4610   64.2261 H   0  0  0  0  0  0  0  0  0  0  0  0
   -6.3157   -4.6004   62.0827 H   0  0  0  0  0  0  0  0  0  0  0  0
   -5.8938   -4.7856   63.7789 H   0  0  0  0  0  0  0  0  0  0  0  0
   -4.1480   -4.1273   61.4247 H   0  0  0  0  0  0  0  0  0  0  0  0
   -3.7718   -5.0939   62.8302 H   0  0  0  0  0  0  0  0  0  0  0  0
   -3.6459   -3.0349   64.1980 H   0  0  0  0  0  0  0  0  0  0  0  0
   -1.8824   -2.9592   61.7159 H   0  0  0  0  0  0  0  0  0  0  0  0
   -1.5616   -3.8451   63.2049 H   0  0  0  0  0  0  0  0  0  0  0  0
   -1.5594   -2.0774   63.2092 H   0  0  0  0  0  0  0  0  0  0  0  0
   -3.6311   -1.2794   61.7749 H   0  0  0  0  0  0  0  0  0  0  0  0
   -4.0832   -0.9028   63.4351 H   0  0  0  0  0  0  0  0  0  0  0  0
  -10.4471    5.1410   54.4348 H   0  0  0  0  0  0  0  0  0  0  0  0
   -8.1388    4.4847   52.5714 H   0  0  0  0  0  0  0  0  0  0  0  0
   -9.8170    4.7260   52.0555 H   0  0  0  0  0  0  0  0  0  0  0  0
   -9.4019    3.3973   53.1365 H   0  0  0  0  0  0  0  0  0  0  0  0
   -9.5012   11.2060   51.8507 H   0  0  0  0  0  0  0  0  0  0  0  0
   -9.1187   11.5833   53.5209 H   0  0  0  0  0  0  0  0  0  0  0  0
  -10.7796   11.2785   53.0519 H   0  0  0  0  0  0  0  0  0  0  0  0
   -8.7977    8.9794   51.2630 H   0  0  0  0  0  0  0  0  0  0  0  0
   -8.4292    6.6283   51.8479 H   0  0  0  0  0  0  0  0  0  0  0  0
   -9.9369    7.3479   55.7691 H   0  0  0  0  0  0  0  0  0  0  0  0
  -10.1526    9.7511   55.2337 H   0  0  0  0  0  0  0  0  0  0  0  0
  1  2  2  0
  2  3  1  0
  2 32  1  0
  3  4  2  0
  4  6  1  0
  4  5  1  0
  5  1  1  0
  6  7  1  0
  7  8  1  0
  7 33  1  0
  7 34  1  0
  8  9  1  0
  8 35  1  0
  8 36  1  0
  9 12  1  0
  9 10  1  0
  9 37  1  0
 10 11  1  0
 10 38  1  0
 10 39  1  0
 11  6  1  0
 11 40  1  0
 11 41  1  0
 12 13  1  0
 13 14  1  0
 13 42  1  0
 13 43  1  0
 14 15  1  0
 14 44  1  0
 14 45  1  0
 15 16  1  0
 15 46  1  0
 15 47  1  0
 16 17  1  0
 16 18  1  0
 16 48  1  1
 17 49  1  0
 17 50  1  0
 17 51  1  0
 18 12  1  0
 18 52  1  0
 18 53  1  0
 19 20  1  0
 19 22  1  0
 20 21  2  0
 20  1  1  0
 23 24  1  0
 23 19  1  0
 23 54  1  1
 24 55  1  0
 24 56  1  0
 24 57  1  0
 25 26  1  0
 25 58  1  0
 25 59  1  0
 25 60  1  0
 26 27  2  0
 27 28  1  0
 27 61  1  0
 28 29  2  0
 28 62  1  0
 29 23  1  0
 29 30  1  0
 30 31  2  0
 30 63  1  0
 31 26  1  0
 31 64  1  0
M  END
>  <minimizedAffinity>  (10) 
-9.43909

>  <mol_id>  (10) 
144176

>  <source_index>  (10) 
9

>  <layer>  (10) 
L2

>  <uniprot>  (10) 
P18825

>  <paff>  (10) 
6.0968999999999998

>  <smiles>  (10) 
Cc1ccc([C@@H](C)NC(=O)c2cnc(N3CCC(N4CCC[C@@H](C)C4)CC3)s2)cc1

>  <aimnet_interaction_kcal_mol>  (10) 
-72.833286746567936

$$$$
