L2:P18825:14322
     RDKit          3D

 58 62  0  0  0  0  0  0  0  0999 V2000
   -9.4186    4.1201   56.0298 C   0  0  0  0  0  0  0  0  0  0  0  0
   -9.8315    4.7925   57.1586 C   0  0  0  0  0  0  0  0  0  0  0  0
   -9.6290    4.1399   58.3577 N   0  0  0  0  0  0  0  0  0  0  0  0
   -9.0665    2.9619   58.1737 C   0  0  0  0  0  0  0  0  0  0  0  0
   -8.7533    2.6152   56.5046 S   0  0  0  0  0  0  0  0  0  0  0  0
   -8.7698    2.1110   59.2041 N   0  0  0  0  0  0  0  0  0  0  0  0
   -7.6832    1.1389   59.1134 C   0  0  0  0  0  0  0  0  0  0  0  0
   -7.9197   -0.0411   60.0535 C   0  0  0  0  0  0  0  0  0  0  0  0
   -8.1051    0.4031   61.5220 C   0  0  2  0  0  0  0  0  0  0  0  0
   -9.3330    1.3436   61.5214 C   0  0  2  0  0  0  0  0  0  0  0  0
  -10.4318    0.6059   61.1648 F   0  0  0  0  0  0  0  0  0  0  0  0
   -9.1896    2.5207   60.5535 C   0  0  0  0  0  0  0  0  0  0  0  0
   -6.8414    0.9568   62.0849 N   0  0  0  0  0  0  0  0  0  0  0  0
   -6.7205    0.9135   63.5470 C   0  0  0  0  0  0  0  0  0  0  0  0
   -6.6153   -0.5059   64.1125 C   0  0  0  0  0  0  0  0  0  0  0  0
   -5.7760   -1.4233   63.2250 C   0  0  0  0  0  0  0  0  0  0  0  0
   -4.8950   -0.6095   62.3194 C   0  0  1  0  0  0  0  0  0  0  0  0
   -5.6237    0.3964   61.4552 C   0  0  0  0  0  0  0  0  0  0  0  0
   -3.4817   -0.2839   62.7969 C   0  0  0  0  0  0  0  0  0  0  0  0
   -3.7041   -1.2724   61.7174 C   0  0  0  0  0  0  0  0  0  0  0  0
   -3.3101   -0.9862   60.4312 F   0  0  0  0  0  0  0  0  0  0  0  0
   -3.4476   -2.6051   61.9390 F   0  0  0  0  0  0  0  0  0  0  0  0
  -10.0352    3.8230   53.7603 O   0  0  0  0  0  0  0  0  0  0  0  0
   -9.4664    4.4835   54.6283 C   0  0  0  0  0  0  0  0  0  0  0  0
   -8.8192    5.6511   54.2961 N   0  0  0  0  0  0  0  0  0  0  0  0
   -8.3499    6.2300   54.9808 H   0  0  0  0  0  0  0  0  0  0  0  0
   -8.7834    6.1397   52.9335 C   0  0  0  0  0  0  0  0  0  0  0  0
   -9.1340    7.6078   52.8638 C   0  0  0  0  0  0  0  0  0  0  0  0
   -8.7439    8.3143   51.7575 N   0  0  0  0  0  0  0  0  0  0  0  0
   -9.0752    9.6296   51.7313 C   0  0  0  0  0  0  0  0  0  0  0  0
   -9.7711   10.2667   52.7469 C   0  0  0  0  0  0  0  0  0  0  0  0
  -10.0652   11.5690   52.6548 F   0  0  0  0  0  0  0  0  0  0  0  0
  -10.1607    9.5411   53.8608 C   0  0  0  0  0  0  0  0  0  0  0  0
   -9.8356    8.1934   53.9163 C   0  0  0  0  0  0  0  0  0  0  0  0
  -10.2000    7.4683   54.9819 F   0  0  0  0  0  0  0  0  0  0  0  0
  -10.2659    5.7274   57.1107 H   0  0  0  0  0  0  0  0  0  0  0  0
   -6.7635    1.6174   59.3781 H   0  0  0  0  0  0  0  0  0  0  0  0
   -7.6407    0.7701   58.1099 H   0  0  0  0  0  0  0  0  0  0  0  0
   -7.0779   -0.6992   59.9973 H   0  0  0  0  0  0  0  0  0  0  0  0
   -8.8204   -0.5290   59.7442 H   0  0  0  0  0  0  0  0  0  0  0  0
   -8.3087   -0.4062   62.1917 H   0  0  0  0  0  0  0  0  0  0  0  0
   -9.4275    1.7587   62.5030 H   0  0  0  0  0  0  0  0  0  0  0  0
   -8.4598    3.1975   60.9463 H   0  0  0  0  0  0  0  0  0  0  0  0
  -10.1526    2.9781   60.4627 H   0  0  0  0  0  0  0  0  0  0  0  0
   -7.5828    1.3836   63.9717 H   0  0  0  0  0  0  0  0  0  0  0  0
   -5.8133    1.4204   63.8017 H   0  0  0  0  0  0  0  0  0  0  0  0
   -7.5999   -0.9161   64.1976 H   0  0  0  0  0  0  0  0  0  0  0  0
   -6.1340   -0.4433   65.0661 H   0  0  0  0  0  0  0  0  0  0  0  0
   -6.4260   -2.0318   62.6316 H   0  0  0  0  0  0  0  0  0  0  0  0
   -5.1612   -2.0410   63.8457 H   0  0  0  0  0  0  0  0  0  0  0  0
   -5.9073   -0.0857   60.5431 H   0  0  0  0  0  0  0  0  0  0  0  0
   -4.9519    1.2138   61.2957 H   0  0  0  0  0  0  0  0  0  0  0  0
   -3.1533   -0.6082   63.7623 H   0  0  0  0  0  0  0  0  0  0  0  0
   -2.9018    0.6091   62.9022 H   0  0  0  0  0  0  0  0  0  0  0  0
   -9.4862    5.5859   52.3467 H   0  0  0  0  0  0  0  0  0  0  0  0
   -7.7900    6.0129   52.5567 H   0  0  0  0  0  0  0  0  0  0  0  0
   -8.7935   10.1868   50.9096 H   0  0  0  0  0  0  0  0  0  0  0  0
  -10.6799    9.9919   54.6304 H   0  0  0  0  0  0  0  0  0  0  0  0
  1  2  2  0
  2  3  1  0
  2 36  1  0
  3  4  2  0
  4  6  1  0
  4  5  1  0
  5  1  1  0
  6  7  1  0
  7  8  1  0
  7 37  1  0
  7 38  1  0
  8  9  1  0
  8 39  1  0
  8 40  1  0
  9 13  1  0
  9 10  1  0
  9 41  1  1
 10 11  1  0
 10 12  1  0
 10 42  1  1
 12  6  1  0
 12 43  1  0
 12 44  1  0
 13 14  1  0
 14 15  1  0
 14 45  1  0
 14 46  1  0
 15 16  1  0
 15 47  1  0
 15 48  1  0
 16 49  1  0
 16 50  1  0
 17 16  1  1
 17 18  1  0
 17 19  1  0
 18 13  1  0
 18 51  1  0
 18 52  1  0
 19 20  1  0
 19 53  1  0
 19 54  1  0
 20 21  1  0
 20 22  1  0
 20 17  1  0
 23 24  2  0
 24 25  1  0
 24  1  1  0
 25 27  1  0
 25 26  1  0
 27 28  1  0
 27 55  1  0
 27 56  1  0
 28 29  2  0
 29 30  1  0
 30 31  2  0
 30 57  1  0
 31 32  1  0
 31 33  1  0
 33 34  2  0
 33 58  1  0
 34 35  1  0
 34 28  1  0
M  END
>  <minimizedAffinity>  (1) 
-10.13739

>  <mol_id>  (1) 
14322

>  <source_index>  (1) 
0

>  <layer>  (1) 
L2

>  <uniprot>  (1) 
P18825

>  <paff>  (1) 
9.1308000000000007

>  <smiles>  (1) 
FC1CN(CCC1N1CCCC2(CC2(F)F)C1)c1ncc(s1)C(=O)NCc1ncc(F)cc1F

$$$$
L2:P18825:42511
     RDKit          3D

 57 60  0  0  0  0  0  0  0  0999 V2000
   -8.0866    3.2153   58.2804 C   0  0  0  0  0  0  0  0  0  0  0  0
   -8.2207    4.4898   58.5899 N   0  0  0  0  0  0  0  0  0  0  0  0
   -8.6216    5.2344   57.5002 C   0  0  0  0  0  0  0  0  0  0  0  0
   -8.8076    4.5355   56.3285 C   0  0  0  0  0  0  0  0  0  0  0  0
   -8.4584    2.8837   56.6197 S   0  0  0  0  0  0  0  0  0  0  0  0
   -6.8729    0.3082   61.2174 C   0  0  0  0  0  0  0  0  0  0  0  0
   -7.1824    1.7856   61.5459 C   0  0  0  0  0  0  0  0  0  0  0  0
   -6.9319    2.7038   60.3521 C   0  0  0  0  0  0  0  0  0  0  0  0
   -7.7050    2.2630   59.1862 N   0  0  0  0  0  0  0  0  0  0  0  0
   -7.5762    0.8515   58.8241 C   0  0  0  0  0  0  0  0  0  0  0  0
   -7.8066   -0.0448   60.0409 C   0  0  0  0  0  0  0  0  0  0  0  0
   -6.1872   -2.7710   62.4814 C   0  0  0  0  0  0  0  0  0  0  0  0
   -4.8644   -2.2541   61.9158 C   0  0  2  0  0  0  0  0  0  0  0  0
   -4.0130   -1.5821   63.0000 C   0  0  0  0  0  0  0  0  0  0  0  0
   -4.4494   -0.1441   63.2636 C   0  0  0  0  0  0  0  0  0  0  0  0
   -4.5258    0.6525   61.9602 C   0  0  0  0  0  0  0  0  0  0  0  0
   -5.4334    0.0656   60.9589 N   0  0  0  0  0  0  0  0  0  0  0  0
   -5.0277   -1.3256   60.6945 C   0  0  0  0  0  0  0  0  0  0  0  0
   -9.2177    4.9667   55.0066 C   0  0  0  0  0  0  0  0  0  0  0  0
   -9.9402    4.3055   54.2624 O   0  0  0  0  0  0  0  0  0  0  0  0
   -8.7477    6.2052   54.6116 N   0  0  0  0  0  0  0  0  0  0  0  0
   -8.1944    6.7697   55.2372 H   0  0  0  0  0  0  0  0  0  0  0  0
   -9.0831    6.7780   53.3275 C   0  0  0  0  0  0  0  0  0  0  0  0
   -9.4585    8.2237   53.4632 C   0  0  0  0  0  0  0  0  0  0  0  0
   -9.9434    8.7328   54.6738 C   0  0  0  0  0  0  0  0  0  0  0  0
  -10.2583   10.0825   54.7546 C   0  0  0  0  0  0  0  0  0  0  0  0
  -10.1225   10.9493   53.7260 N   0  0  0  0  0  0  0  0  0  0  0  0
   -9.6427   10.4387   52.5680 C   0  0  0  0  0  0  0  0  0  0  0  0
   -9.3016    9.1073   52.3987 C   0  0  0  0  0  0  0  0  0  0  0  0
   -8.8196    8.6813   51.2231 F   0  0  0  0  0  0  0  0  0  0  0  0
   -8.7730    6.2535   57.5595 H   0  0  0  0  0  0  0  0  0  0  0  0
   -7.0627   -0.3388   62.0483 H   0  0  0  0  0  0  0  0  0  0  0  0
   -6.5583    2.0967   62.3574 H   0  0  0  0  0  0  0  0  0  0  0  0
   -8.2184    1.8558   61.8040 H   0  0  0  0  0  0  0  0  0  0  0  0
   -5.8900    2.6872   60.1091 H   0  0  0  0  0  0  0  0  0  0  0  0
   -7.2375    3.6958   60.6117 H   0  0  0  0  0  0  0  0  0  0  0  0
   -6.5928    0.6762   58.4405 H   0  0  0  0  0  0  0  0  0  0  0  0
   -8.3122    0.6192   58.0830 H   0  0  0  0  0  0  0  0  0  0  0  0
   -7.6318   -1.0615   59.7567 H   0  0  0  0  0  0  0  0  0  0  0  0
   -8.8143    0.1033   60.3687 H   0  0  0  0  0  0  0  0  0  0  0  0
   -5.9926   -3.4045   63.3214 H   0  0  0  0  0  0  0  0  0  0  0  0
   -6.7044   -3.3270   61.7276 H   0  0  0  0  0  0  0  0  0  0  0  0
   -6.7904   -1.9433   62.7911 H   0  0  0  0  0  0  0  0  0  0  0  0
   -4.3494   -3.1230   61.5625 H   0  0  0  0  0  0  0  0  0  0  0  0
   -2.9908   -1.5799   62.6839 H   0  0  0  0  0  0  0  0  0  0  0  0
   -4.1378   -2.1357   63.9071 H   0  0  0  0  0  0  0  0  0  0  0  0
   -3.7424    0.3219   63.9177 H   0  0  0  0  0  0  0  0  0  0  0  0
   -5.4209   -0.1591   63.7117 H   0  0  0  0  0  0  0  0  0  0  0  0
   -3.5442    0.7033   61.5375 H   0  0  0  0  0  0  0  0  0  0  0  0
   -4.9151    1.6182   62.2067 H   0  0  0  0  0  0  0  0  0  0  0  0
   -4.0877   -1.2958   60.1842 H   0  0  0  0  0  0  0  0  0  0  0  0
   -5.8345   -1.7472   60.1321 H   0  0  0  0  0  0  0  0  0  0  0  0
   -9.9085    6.2403   52.9097 H   0  0  0  0  0  0  0  0  0  0  0  0
   -8.2270    6.7074   52.6896 H   0  0  0  0  0  0  0  0  0  0  0  0
  -10.0647    8.1155   55.4919 H   0  0  0  0  0  0  0  0  0  0  0  0
  -10.6168   10.4452   55.6518 H   0  0  0  0  0  0  0  0  0  0  0  0
   -9.5244   11.0775   51.7661 H   0  0  0  0  0  0  0  0  0  0  0  0
  1  2  2  0
  2  3  1  0
  3  4  2  0
  3 31  1  0
  4 19  1  0
  4  5  1  0
  5  1  1  0
  6  7  1  0
  6 32  1  0
  7  8  1  0
  7 33  1  0
  7 34  1  0
  8  9  1  0
  8 35  1  0
  8 36  1  0
  9  1  1  0
  9 10  1  0
 10 11  1  0
 10 37  1  0
 10 38  1  0
 11  6  1  0
 11 39  1  0
 11 40  1  0
 12 13  1  0
 12 41  1  0
 12 42  1  0
 12 43  1  0
 13 14  1  0
 13 44  1  6
 14 15  1  0
 14 45  1  0
 14 46  1  0
 15 16  1  0
 15 47  1  0
 15 48  1  0
 16 17  1  0
 16 49  1  0
 16 50  1  0
 17  6  1  0
 17 18  1  0
 18 13  1  0
 18 51  1  0
 18 52  1  0
 19 20  2  0
 19 21  1  0
 21 23  1  0
 21 22  1  0
 23 24  1  0
 23 53  1  0
 23 54  1  0
 24 25  2  0
 25 26  1  0
 25 55  1  0
 26 27  2  0
 26 56  1  0
 27 28  1  0
 28 29  2  0
 28 57  1  0
 29 30  1  0
 29 24  1  0
M  END
>  <minimizedAffinity>  (2) 
-8.97473

>  <mol_id>  (2) 
42511

>  <source_index>  (2) 
1

>  <layer>  (2) 
L2

>  <uniprot>  (2) 
P18825

>  <paff>  (2) 
6.3978999999999999

>  <smiles>  (2) 
C[C@@H]1CCCN(C1)C1CCN(CC1)c1ncc(s1)C(=O)NCc1ccncc1F |r|

$$$$
L2:P18825:61015
     RDKit          3D

 61 64  0  0  0  0  0  0  0  0999 V2000
   -7.9828    1.8229   58.7045 C   0  0  0  0  0  0  0  0  0  0  0  0
   -8.9276    2.7189   58.9051 N   0  0  0  0  0  0  0  0  0  0  0  0
   -9.3649    3.2588   57.7128 C   0  0  0  0  0  0  0  0  0  0  0  0
   -8.7600    2.7763   56.5731 C   0  0  0  0  0  0  0  0  0  0  0  0
   -7.6004    1.5989   57.0296 S   0  0  0  0  0  0  0  0  0  0  0  0
   -6.1011   -0.4863   61.8328 C   0  0  0  0  0  0  0  0  0  0  0  0
   -6.4070    1.0183   61.9731 C   0  0  0  0  0  0  0  0  0  0  0  0
   -6.4260    1.7503   60.6344 C   0  0  0  0  0  0  0  0  0  0  0  0
   -7.3834    1.1344   59.7194 N   0  0  0  0  0  0  0  0  0  0  0  0
   -7.6993   -0.2830   59.8860 C   0  0  0  0  0  0  0  0  0  0  0  0
   -6.4904   -1.0285   60.4448 C   0  0  0  0  0  0  0  0  0  0  0  0
   -1.5789   -0.7616   60.8095 C   0  0  0  0  0  0  0  0  0  0  0  0
   -2.2405   -0.3890   62.1403 C   0  0  2  0  0  0  0  0  0  0  0  0
   -2.2025   -1.5539   63.1311 C   0  0  0  0  0  0  0  0  0  0  0  0
   -3.1509   -2.6867   62.7366 C   0  0  0  0  0  0  0  0  0  0  0  0
   -4.3643   -2.2189   61.9261 C   0  0  0  0  0  0  0  0  0  0  0  0
   -4.7386   -0.8513   62.2806 N   0  0  0  0  0  0  0  0  0  0  0  0
   -3.6876    0.1246   61.9496 C   0  0  0  0  0  0  0  0  0  0  0  0
   -8.9522    3.0971   55.1718 C   0  0  0  0  0  0  0  0  0  0  0  0
   -9.0439    2.2520   54.2832 O   0  0  0  0  0  0  0  0  0  0  0  0
   -9.0343    4.4446   54.8764 N   0  0  0  0  0  0  0  0  0  0  0  0
   -9.0055    5.1341   55.6098 H   0  0  0  0  0  0  0  0  0  0  0  0
   -9.2682    4.9220   53.5325 C   0  0  0  0  0  0  0  0  0  0  0  0
   -9.3924    6.4237   53.5202 C   0  0  0  0  0  0  0  0  0  0  0  0
   -9.8108    7.1202   54.6613 C   0  0  0  0  0  0  0  0  0  0  0  0
   -9.9427    8.5110   54.6327 C   0  0  0  0  0  0  0  0  0  0  0  0
   -9.6714    9.2311   53.4594 C   0  0  0  0  0  0  0  0  0  0  0  0
   -9.2518    8.5319   52.3188 C   0  0  0  0  0  0  0  0  0  0  0  0
   -9.1194    7.1420   52.3478 C   0  0  0  0  0  0  0  0  0  0  0  0
   -9.7933   10.7347   53.4377 C   0  0  0  0  0  0  0  0  0  0  0  0
   -9.1521   11.3418   54.4753 F   0  0  0  0  0  0  0  0  0  0  0  0
   -9.2780   11.2944   52.3067 F   0  0  0  0  0  0  0  0  0  0  0  0
  -11.0881   11.1507   53.5027 F   0  0  0  0  0  0  0  0  0  0  0  0
  -10.1012    3.9810   57.6771 H   0  0  0  0  0  0  0  0  0  0  0  0
   -6.7389   -0.9987   62.5224 H   0  0  0  0  0  0  0  0  0  0  0  0
   -5.6570    1.4623   62.5938 H   0  0  0  0  0  0  0  0  0  0  0  0
   -7.3838    1.1078   62.4007 H   0  0  0  0  0  0  0  0  0  0  0  0
   -5.4494    1.7105   60.1991 H   0  0  0  0  0  0  0  0  0  0  0  0
   -6.7178    2.7658   60.8032 H   0  0  0  0  0  0  0  0  0  0  0  0
   -7.9646   -0.7002   58.9371 H   0  0  0  0  0  0  0  0  0  0  0  0
   -8.5172   -0.3812   60.5688 H   0  0  0  0  0  0  0  0  0  0  0  0
   -5.6638   -0.9054   59.7766 H   0  0  0  0  0  0  0  0  0  0  0  0
   -6.7431   -2.0637   60.5417 H   0  0  0  0  0  0  0  0  0  0  0  0
   -0.5836   -1.1099   60.9912 H   0  0  0  0  0  0  0  0  0  0  0  0
   -1.5452    0.0990   60.1746 H   0  0  0  0  0  0  0  0  0  0  0  0
   -2.1458   -1.5341   60.3333 H   0  0  0  0  0  0  0  0  0  0  0  0
   -1.6680    0.4158   62.5520 H   0  0  0  0  0  0  0  0  0  0  0  0
   -2.4834   -1.1918   64.0980 H   0  0  0  0  0  0  0  0  0  0  0  0
   -1.2076   -1.9476   63.1333 H   0  0  0  0  0  0  0  0  0  0  0  0
   -3.5029   -3.1593   63.6297 H   0  0  0  0  0  0  0  0  0  0  0  0
   -2.5966   -3.3560   62.1123 H   0  0  0  0  0  0  0  0  0  0  0  0
   -5.1897   -2.8699   62.1255 H   0  0  0  0  0  0  0  0  0  0  0  0
   -4.1087   -2.2428   60.8873 H   0  0  0  0  0  0  0  0  0  0  0  0
   -3.8213    0.9824   62.5750 H   0  0  0  0  0  0  0  0  0  0  0  0
   -3.7952    0.3406   60.9072 H   0  0  0  0  0  0  0  0  0  0  0  0
  -10.1730    4.4907   53.1581 H   0  0  0  0  0  0  0  0  0  0  0  0
   -8.4414    4.6380   52.9155 H   0  0  0  0  0  0  0  0  0  0  0  0
  -10.0230    6.6028   55.5287 H   0  0  0  0  0  0  0  0  0  0  0  0
  -10.2426    9.0134   55.4828 H   0  0  0  0  0  0  0  0  0  0  0  0
   -9.0391    9.0484   51.4511 H   0  0  0  0  0  0  0  0  0  0  0  0
   -8.8179    6.6392   51.4985 H   0  0  0  0  0  0  0  0  0  0  0  0
  1  2  2  0
  2  3  1  0
  3  4  2  0
  3 34  1  0
  4 19  1  0
  4  5  1  0
  5  1  1  0
  6  7  1  0
  6 35  1  0
  7  8  1  0
  7 36  1  0
  7 37  1  0
  8  9  1  0
  8 38  1  0
  8 39  1  0
  9  1  1  0
  9 10  1  0
 10 11  1  0
 10 40  1  0
 10 41  1  0
 11  6  1  0
 11 42  1  0
 11 43  1  0
 12 13  1  0
 12 44  1  0
 12 45  1  0
 12 46  1  0
 13 14  1  0
 13 47  1  1
 14 15  1  0
 14 48  1  0
 14 49  1  0
 15 16  1  0
 15 50  1  0
 15 51  1  0
 16 17  1  0
 16 52  1  0
 16 53  1  0
 17  6  1  0
 17 18  1  0
 18 13  1  0
 18 54  1  0
 18 55  1  0
 19 20  2  0
 19 21  1  0
 21 23  1  0
 21 22  1  0
 23 24  1  0
 23 56  1  0
 23 57  1  0
 24 25  2  0
 25 26  1  0
 25 58  1  0
 26 27  2  0
 26 59  1  0
 27 30  1  0
 27 28  1  0
 28 29  2  0
 28 60  1  0
 29 24  1  0
 29 61  1  0
 30 31  1  0
 30 32  1  0
 30 33  1  0
M  END
>  <minimizedAffinity>  (3) 
-10.45023

>  <mol_id>  (3) 
61015

>  <source_index>  (3) 
2

>  <layer>  (3) 
L2

>  <uniprot>  (3) 
P18825

>  <paff>  (3) 
6.1938000000000004

>  <smiles>  (3) 
C[C@@H]1CCCN(C1)C1CCN(CC1)c1ncc(s1)C(=O)NCc1ccc(cc1)C(F)(F)F |r|

$$$$
L2:P18825:66479
     RDKit          3D

 58 61  0  0  0  0  0  0  0  0999 V2000
   -8.0595    1.7966   58.8437 C   0  0  0  0  0  0  0  0  0  0  0  0
   -9.0170    2.6775   59.0566 N   0  0  0  0  0  0  0  0  0  0  0  0
   -9.4511    3.2408   57.8744 C   0  0  0  0  0  0  0  0  0  0  0  0
   -8.8229    2.8000   56.7307 C   0  0  0  0  0  0  0  0  0  0  0  0
   -7.6574    1.6233   57.1690 S   0  0  0  0  0  0  0  0  0  0  0  0
   -5.4277   -0.4639   61.0198 C   0  0  0  0  0  0  0  0  0  0  0  0
   -5.4744    1.0619   61.2825 C   0  0  0  0  0  0  0  0  0  0  0  0
   -6.8306    1.7126   61.0064 C   0  0  0  0  0  0  0  0  0  0  0  0
   -7.4676    1.0979   59.8563 N   0  0  0  0  0  0  0  0  0  0  0  0
   -7.6762   -0.3477   59.8968 C   0  0  0  0  0  0  0  0  0  0  0  0
   -6.8658   -1.0142   61.0109 C   0  0  0  0  0  0  0  0  0  0  0  0
   -0.8181   -1.1209   62.7930 C   0  0  0  0  0  0  0  0  0  0  0  0
   -2.3175   -1.1921   63.0870 C   0  0  2  0  0  0  0  0  0  0  0  0
   -2.7234   -2.5901   63.5838 C   0  0  0  0  0  0  0  0  0  0  0  0
   -3.4301   -3.3730   62.4878 C   0  0  0  0  0  0  0  0  0  0  0  0
   -4.6548   -2.6138   61.9565 C   0  0  0  0  0  0  0  0  0  0  0  0
   -4.5290   -1.1426   61.9901 N   0  0  0  0  0  0  0  0  0  0  0  0
   -3.1192   -0.7524   61.8434 C   0  0  0  0  0  0  0  0  0  0  0  0
   -9.0050    3.1569   55.3379 C   0  0  0  0  0  0  0  0  0  0  0  0
   -8.9937    2.3474   54.4123 O   0  0  0  0  0  0  0  0  0  0  0  0
   -9.1939    4.5029   55.0883 N   0  0  0  0  0  0  0  0  0  0  0  0
   -9.1151    5.1795   55.8319 H   0  0  0  0  0  0  0  0  0  0  0  0
   -9.3505    4.9903   53.7368 C   0  0  0  0  0  0  0  0  0  0  0  0
   -9.3914    6.4906   53.7063 C   0  0  0  0  0  0  0  0  0  0  0  0
   -9.1373    7.1874   52.5140 C   0  0  0  0  0  0  0  0  0  0  0  0
   -9.1916    8.5826   52.4909 C   0  0  0  0  0  0  0  0  0  0  0  0
   -8.8783    9.4237   51.0237 Cl  0  0  0  0  0  0  0  0  0  0  0  0
   -9.5013    9.2993   53.6464 C   0  0  0  0  0  0  0  0  0  0  0  0
   -9.7609    8.6145   54.8336 C   0  0  0  0  0  0  0  0  0  0  0  0
   -9.7064    7.2228   54.8542 C   0  0  0  0  0  0  0  0  0  0  0  0
   -9.9711    6.5855   56.0026 F   0  0  0  0  0  0  0  0  0  0  0  0
  -10.2009    3.9494   57.8486 H   0  0  0  0  0  0  0  0  0  0  0  0
   -5.0042   -0.6654   60.0581 H   0  0  0  0  0  0  0  0  0  0  0  0
   -4.7450    1.5312   60.6559 H   0  0  0  0  0  0  0  0  0  0  0  0
   -5.2793    1.1968   62.3259 H   0  0  0  0  0  0  0  0  0  0  0  0
   -6.6876    2.7553   60.8136 H   0  0  0  0  0  0  0  0  0  0  0  0
   -7.4587    1.5771   61.8620 H   0  0  0  0  0  0  0  0  0  0  0  0
   -7.3803   -0.7656   58.9573 H   0  0  0  0  0  0  0  0  0  0  0  0
   -8.7132   -0.5261   60.0911 H   0  0  0  0  0  0  0  0  0  0  0  0
   -6.8394   -2.0711   60.8458 H   0  0  0  0  0  0  0  0  0  0  0  0
   -7.3271   -0.8047   61.9533 H   0  0  0  0  0  0  0  0  0  0  0  0
   -0.2698   -1.4270   63.6594 H   0  0  0  0  0  0  0  0  0  0  0  0
   -0.5518   -0.1162   62.5390 H   0  0  0  0  0  0  0  0  0  0  0  0
   -0.5838   -1.7697   61.9750 H   0  0  0  0  0  0  0  0  0  0  0  0
   -2.5492   -0.5130   63.8807 H   0  0  0  0  0  0  0  0  0  0  0  0
   -3.3822   -2.4867   64.4206 H   0  0  0  0  0  0  0  0  0  0  0  0
   -1.8391   -3.1217   63.8671 H   0  0  0  0  0  0  0  0  0  0  0  0
   -3.7490   -4.3147   62.8832 H   0  0  0  0  0  0  0  0  0  0  0  0
   -2.7441   -3.5132   61.6787 H   0  0  0  0  0  0  0  0  0  0  0  0
   -5.5016   -2.8899   62.5495 H   0  0  0  0  0  0  0  0  0  0  0  0
   -4.7566   -2.8858   60.9267 H   0  0  0  0  0  0  0  0  0  0  0  0
   -3.0549    0.3104   61.7379 H   0  0  0  0  0  0  0  0  0  0  0  0
   -2.7114   -1.2285   60.9763 H   0  0  0  0  0  0  0  0  0  0  0  0
  -10.2632    4.6072   53.3304 H   0  0  0  0  0  0  0  0  0  0  0  0
   -8.5139    4.6606   53.1569 H   0  0  0  0  0  0  0  0  0  0  0  0
   -8.9098    6.6670   51.6524 H   0  0  0  0  0  0  0  0  0  0  0  0
   -9.5382   10.3304   53.6233 H   0  0  0  0  0  0  0  0  0  0  0  0
   -9.9924    9.1368   55.6931 H   0  0  0  0  0  0  0  0  0  0  0  0
  1  2  2  0
  2  3  1  0
  3  4  2  0
  3 32  1  0
  4 19  1  0
  4  5  1  0
  5  1  1  0
  6  7  1  0
  6 33  1  0
  7  8  1  0
  7 34  1  0
  7 35  1  0
  8  9  1  0
  8 36  1  0
  8 37  1  0
  9  1  1  0
  9 10  1  0
 10 11  1  0
 10 38  1  0
 10 39  1  0
 11  6  1  0
 11 40  1  0
 11 41  1  0
 12 13  1  0
 12 42  1  0
 12 43  1  0
 12 44  1  0
 13 14  1  0
 13 45  1  1
 14 15  1  0
 14 46  1  0
 14 47  1  0
 15 16  1  0
 15 48  1  0
 15 49  1  0
 16 17  1  0
 16 50  1  0
 16 51  1  0
 17  6  1  0
 17 18  1  0
 18 13  1  0
 18 52  1  0
 18 53  1  0
 19 20  2  0
 19 21  1  0
 21 23  1  0
 21 22  1  0
 23 24  1  0
 23 54  1  0
 23 55  1  0
 24 25  2  0
 25 26  1  0
 25 56  1  0
 26 27  1  0
 26 28  2  0
 28 29  1  0
 28 57  1  0
 29 30  2  0
 29 58  1  0
 30 31  1  0
 30 24  1  0
M  END
>  <minimizedAffinity>  (4) 
-9.51761

>  <mol_id>  (4) 
66479

>  <source_index>  (4) 
3

>  <layer>  (4) 
L2

>  <uniprot>  (4) 
P18825

>  <paff>  (4) 
8.1426999999999996

>  <smiles>  (4) 
C[C@@H]1CCCN(C1)C1CCN(CC1)c1ncc(s1)C(=O)NCc1cc(Cl)ccc1F |r|

$$$$
L2:P18825:93624
     RDKit          3D

 60 63  0  0  0  0  0  0  0  0999 V2000
   -7.9703    2.9889   58.1723 C   0  0  0  0  0  0  0  0  0  0  0  0
   -8.1460    4.2828   58.3449 N   0  0  0  0  0  0  0  0  0  0  0  0
   -8.6474    4.8744   57.2038 C   0  0  0  0  0  0  0  0  0  0  0  0
   -8.8595    4.0322   56.1358 C   0  0  0  0  0  0  0  0  0  0  0  0
   -8.4137    2.4449   56.5836 S   0  0  0  0  0  0  0  0  0  0  0  0
   -6.9701    0.5273   61.5077 C   0  0  0  0  0  0  0  0  0  0  0  0
   -5.9107    1.4702   60.9146 C   0  0  0  0  0  0  0  0  0  0  0  0
   -6.5811    2.6354   60.1891 C   0  0  0  0  0  0  0  0  0  0  0  0
   -7.4786    2.1625   59.1420 N   0  0  0  0  0  0  0  0  0  0  0  0
   -7.8103    0.7402   59.0953 C   0  0  0  0  0  0  0  0  0  0  0  0
   -8.0972    0.2156   60.4994 C   0  0  0  0  0  0  0  0  0  0  0  0
   -3.9109   -1.8005   64.6986 C   0  0  0  0  0  0  0  0  0  0  0  0
   -4.6246   -1.8560   63.3358 C   0  0  0  0  0  0  0  0  0  0  0  0
   -3.5549   -1.9924   62.2342 C   0  0  0  0  0  0  0  0  0  0  0  0
   -5.5608   -3.0936   63.2791 C   0  0  0  0  0  0  0  0  0  0  0  0
   -7.0132   -2.7045   63.5317 C   0  0  0  0  0  0  0  0  0  0  0  0
   -7.4919   -1.6515   62.5216 C   0  0  0  0  0  0  0  0  0  0  0  0
   -6.4393   -0.7129   62.1054 N   0  0  0  0  0  0  0  0  0  0  0  0
   -5.4252   -0.5371   63.1449 C   0  0  0  0  0  0  0  0  0  0  0  0
   -9.3722    4.3872   54.8306 C   0  0  0  0  0  0  0  0  0  0  0  0
  -10.2046    3.7084   54.2328 O   0  0  0  0  0  0  0  0  0  0  0  0
   -8.8751    5.5421   54.2799 N   0  0  0  0  0  0  0  0  0  0  0  0
   -8.1885    6.0988   54.7784 H   0  0  0  0  0  0  0  0  0  0  0  0
   -9.2966    6.0242   52.9836 C   0  0  0  0  0  0  0  0  0  0  0  0
   -9.4210    7.5298   52.9596 C   0  0  0  0  0  0  0  0  0  0  0  0
   -8.9831    8.2009   51.8500 N   0  0  0  0  0  0  0  0  0  0  0  0
   -9.1111    9.5510   51.8677 C   0  0  0  0  0  0  0  0  0  0  0  0
   -9.6509   10.2572   52.9311 C   0  0  0  0  0  0  0  0  0  0  0  0
   -9.7470   11.5912   52.8815 F   0  0  0  0  0  0  0  0  0  0  0  0
  -10.0911    9.5677   54.0489 C   0  0  0  0  0  0  0  0  0  0  0  0
   -9.9728    8.1853   54.0592 C   0  0  0  0  0  0  0  0  0  0  0  0
  -10.3903    7.4940   55.1279 F   0  0  0  0  0  0  0  0  0  0  0  0
   -8.8507    5.8850   57.1540 H   0  0  0  0  0  0  0  0  0  0  0  0
   -7.3817    1.0810   62.3256 H   0  0  0  0  0  0  0  0  0  0  0  0
   -5.3029    0.9264   60.2219 H   0  0  0  0  0  0  0  0  0  0  0  0
   -5.3069    1.8571   61.7087 H   0  0  0  0  0  0  0  0  0  0  0  0
   -5.8260    3.2522   59.7484 H   0  0  0  0  0  0  0  0  0  0  0  0
   -7.1559    3.1903   60.9009 H   0  0  0  0  0  0  0  0  0  0  0  0
   -6.9866    0.1994   58.6781 H   0  0  0  0  0  0  0  0  0  0  0  0
   -8.6820    0.6063   58.4894 H   0  0  0  0  0  0  0  0  0  0  0  0
   -8.2224   -0.8457   60.4468 H   0  0  0  0  0  0  0  0  0  0  0  0
   -8.9808    0.7080   60.8482 H   0  0  0  0  0  0  0  0  0  0  0  0
   -3.3541   -2.7021   64.8466 H   0  0  0  0  0  0  0  0  0  0  0  0
   -4.6372   -1.6979   65.4776 H   0  0  0  0  0  0  0  0  0  0  0  0
   -3.2454   -0.9629   64.7188 H   0  0  0  0  0  0  0  0  0  0  0  0
   -3.0110   -2.9029   62.3760 H   0  0  0  0  0  0  0  0  0  0  0  0
   -2.8813   -1.1627   62.2865 H   0  0  0  0  0  0  0  0  0  0  0  0
   -4.0299   -2.0063   61.2755 H   0  0  0  0  0  0  0  0  0  0  0  0
   -5.2540   -3.7967   64.0250 H   0  0  0  0  0  0  0  0  0  0  0  0
   -5.4924   -3.5231   62.3015 H   0  0  0  0  0  0  0  0  0  0  0  0
   -7.1000   -2.3042   64.5202 H   0  0  0  0  0  0  0  0  0  0  0  0
   -7.6210   -3.5783   63.4227 H   0  0  0  0  0  0  0  0  0  0  0  0
   -8.2870   -1.0916   62.9680 H   0  0  0  0  0  0  0  0  0  0  0  0
   -7.8068   -2.1782   61.6451 H   0  0  0  0  0  0  0  0  0  0  0  0
   -5.9034   -0.2765   64.0659 H   0  0  0  0  0  0  0  0  0  0  0  0
   -4.7532    0.2422   62.8515 H   0  0  0  0  0  0  0  0  0  0  0  0
  -10.2471    5.5941   52.7461 H   0  0  0  0  0  0  0  0  0  0  0  0
   -8.5562    5.7396   52.2654 H   0  0  0  0  0  0  0  0  0  0  0  0
   -8.7887   10.0819   51.0436 H   0  0  0  0  0  0  0  0  0  0  0  0
  -10.4970   10.0697   54.8540 H   0  0  0  0  0  0  0  0  0  0  0  0
  1  2  2  0
  2  3  1  0
  3  4  2  0
  3 33  1  0
  4 20  1  0
  4  5  1  0
  5  1  1  0
  6  7  1  0
  6 34  1  0
  7  8  1  0
  7 35  1  0
  7 36  1  0
  8  9  1  0
  8 37  1  0
  8 38  1  0
  9  1  1  0
  9 10  1  0
 10 11  1  0
 10 39  1  0
 10 40  1  0
 11  6  1  0
 11 41  1  0
 11 42  1  0
 12 13  1  0
 12 43  1  0
 12 44  1  0
 12 45  1  0
 13 14  1  0
 13 15  1  0
 14 46  1  0
 14 47  1  0
 14 48  1  0
 15 16  1  0
 15 49  1  0
 15 50  1  0
 16 17  1  0
 16 51  1  0
 16 52  1  0
 17 18  1  0
 17 53  1  0
 17 54  1  0
 18  6  1  0
 18 19  1  0
 19 13  1  0
 19 55  1  0
 19 56  1  0
 20 21  2  0
 20 22  1  0
 22 24  1  0
 22 23  1  0
 24 25  1  0
 24 57  1  0
 24 58  1  0
 25 26  2  0
 26 27  1  0
 27 28  2  0
 27 59  1  0
 28 29  1  0
 28 30  1  0
 30 31  2  0
 30 60  1  0
 31 32  1  0
 31 25  1  0
M  END
>  <minimizedAffinity>  (5) 
-9.24769

>  <mol_id>  (5) 
93624

>  <source_index>  (5) 
4

>  <layer>  (5) 
L2

>  <uniprot>  (5) 
P18825

>  <paff>  (5) 
6.2441000000000004

>  <smiles>  (5) 
CC1(C)CCCN(C1)C1CCN(CC1)c1ncc(s1)C(=O)NCc1ncc(F)cc1F

$$$$
L2:P18825:126879
     RDKit          3D

 63 66  0  0  0  0  0  0  0  0999 V2000
   -9.3380    4.0723   57.0796 C   0  0  2  0  0  0  0  0  0  0  0  0
   -9.0641    2.6420   57.3707 N   0  0  0  0  0  0  0  0  0  0  0  0
   -7.7991    2.3186   57.7798 C   0  0  0  0  0  0  0  0  0  0  0  0
   -6.9206    3.3240   57.8283 C   0  0  0  0  0  0  0  0  0  0  0  0
   -7.6286    4.8537   57.3799 S   0  0  0  0  0  0  0  0  0  0  0  0
   -9.8585    2.0579   57.5957 H   0  0  0  0  0  0  0  0  0  0  0  0
  -10.8694    5.5435   60.6884 C   0  0  0  0  0  0  0  0  0  0  0  0
  -10.7871    4.0634   60.2635 C   0  0  0  0  0  0  0  0  0  0  0  0
  -11.1233    3.8405   58.7873 C   0  0  0  0  0  0  0  0  0  0  0  0
  -10.4292    4.7099   57.8376 N   0  0  0  0  0  0  0  0  0  0  0  0
  -10.1569    6.0587   58.3413 C   0  0  0  0  0  0  0  0  0  0  0  0
  -11.0946    6.4664   59.4807 C   0  0  0  0  0  0  0  0  0  0  0  0
  -14.6200    4.6129   62.7256 C   0  0  0  0  0  0  0  0  0  0  0  0
  -14.1555    6.0563   62.5154 C   0  0  1  0  0  0  0  0  0  0  0  0
  -13.5827    6.6237   63.8284 C   0  0  0  0  0  0  0  0  0  0  0  0
  -12.3928    7.5350   63.5617 C   0  0  0  0  0  0  0  0  0  0  0  0
  -11.2914    6.7921   62.7921 C   0  0  0  0  0  0  0  0  0  0  0  0
  -11.8006    5.8417   61.7934 N   0  0  0  0  0  0  0  0  0  0  0  0
  -13.1553    6.1671   61.3450 C   0  0  0  0  0  0  0  0  0  0  0  0
   -9.5789    4.1976   55.4808 C   0  0  0  0  0  0  0  0  0  0  0  0
   -9.9211    3.2731   54.7426 O   0  0  0  0  0  0  0  0  0  0  0  0
   -9.3963    5.4848   54.9908 N   0  0  0  0  0  0  0  0  0  0  0  0
   -9.2323    6.1938   55.6990 H   0  0  0  0  0  0  0  0  0  0  0  0
   -9.6695    5.8610   53.6173 C   0  0  2  0  0  0  0  0  0  0  0  0
   -8.6722    5.1734   52.6859 C   0  0  0  0  0  0  0  0  0  0  0  0
   -9.6319    7.3637   53.4202 C   0  0  0  0  0  0  0  0  0  0  0  0
   -9.1174    7.9668   52.2607 C   0  0  0  0  0  0  0  0  0  0  0  0
   -9.1204    9.3543   52.1325 C   0  0  0  0  0  0  0  0  0  0  0  0
   -8.6244    9.9115   51.0200 F   0  0  0  0  0  0  0  0  0  0  0  0
   -9.6349   10.1698   53.1341 C   0  0  0  0  0  0  0  0  0  0  0  0
  -10.1600    9.5868   54.2847 C   0  0  0  0  0  0  0  0  0  0  0  0
  -10.1576    8.1987   54.4164 C   0  0  0  0  0  0  0  0  0  0  0  0
  -10.6893    7.6608   55.5235 F   0  0  0  0  0  0  0  0  0  0  0  0
   -7.5386    1.3535   58.0362 H   0  0  0  0  0  0  0  0  0  0  0  0
   -5.9320    3.2083   58.1010 H   0  0  0  0  0  0  0  0  0  0  0  0
   -9.9059    5.7524   61.1042 H   0  0  0  0  0  0  0  0  0  0  0  0
  -11.4758    3.5001   60.8579 H   0  0  0  0  0  0  0  0  0  0  0  0
   -9.7759    3.7460   60.4108 H   0  0  0  0  0  0  0  0  0  0  0  0
  -12.1751    3.9929   58.6636 H   0  0  0  0  0  0  0  0  0  0  0  0
  -10.7979    2.8463   58.5623 H   0  0  0  0  0  0  0  0  0  0  0  0
  -10.2738    6.7543   57.5367 H   0  0  0  0  0  0  0  0  0  0  0  0
   -9.1591    6.0632   58.7277 H   0  0  0  0  0  0  0  0  0  0  0  0
  -12.1099    6.3833   59.1534 H   0  0  0  0  0  0  0  0  0  0  0  0
  -10.8913    7.4781   59.7636 H   0  0  0  0  0  0  0  0  0  0  0  0
  -15.3101    4.5757   63.5425 H   0  0  0  0  0  0  0  0  0  0  0  0
  -13.7747    3.9945   62.9443 H   0  0  0  0  0  0  0  0  0  0  0  0
  -15.0999    4.2597   61.8369 H   0  0  0  0  0  0  0  0  0  0  0  0
  -15.0022    6.6507   62.2421 H   0  0  0  0  0  0  0  0  0  0  0  0
  -13.2683    5.8125   64.4513 H   0  0  0  0  0  0  0  0  0  0  0  0
  -14.3465    7.1965   64.3116 H   0  0  0  0  0  0  0  0  0  0  0  0
  -11.9975    7.8765   64.4955 H   0  0  0  0  0  0  0  0  0  0  0  0
  -12.7235    8.3623   62.9692 H   0  0  0  0  0  0  0  0  0  0  0  0
  -10.6934    6.2526   63.4965 H   0  0  0  0  0  0  0  0  0  0  0  0
  -10.7312    7.5321   62.2596 H   0  0  0  0  0  0  0  0  0  0  0  0
  -13.4427    5.4864   60.5711 H   0  0  0  0  0  0  0  0  0  0  0  0
  -13.1650    7.1716   60.9765 H   0  0  0  0  0  0  0  0  0  0  0  0
  -10.6615    5.5382   53.3794 H   0  0  0  0  0  0  0  0  0  0  0  0
   -7.6804    5.4965   52.9242 H   0  0  0  0  0  0  0  0  0  0  0  0
   -8.8966    5.4293   51.6715 H   0  0  0  0  0  0  0  0  0  0  0  0
   -8.7412    4.1128   52.8098 H   0  0  0  0  0  0  0  0  0  0  0  0
   -8.7361    7.3807   51.5017 H   0  0  0  0  0  0  0  0  0  0  0  0
   -9.6278   11.1961   53.0261 H   0  0  0  0  0  0  0  0  0  0  0  0
  -10.5486   10.1787   55.0355 H   0  0  0  0  0  0  0  0  0  0  0  0
  1 10  1  1
  1 20  1  0
  1  2  1  0
  2  3  1  0
  2  6  1  0
  3  4  2  0
  3 34  1  0
  4  5  1  0
  4 35  1  0
  5  1  1  0
  7  8  1  0
  7 36  1  0
  8  9  1  0
  8 37  1  0
  8 38  1  0
  9 39  1  0
  9 40  1  0
 10  9  1  0
 10 11  1  0
 11 12  1  0
 11 41  1  0
 11 42  1  0
 12  7  1  0
 12 43  1  0
 12 44  1  0
 13 14  1  0
 13 45  1  0
 13 46  1  0
 13 47  1  0
 14 15  1  0
 14 48  1  6
 15 16  1  0
 15 49  1  0
 15 50  1  0
 16 17  1  0
 16 51  1  0
 16 52  1  0
 17 53  1  0
 17 54  1  0
 18 17  1  0
 18  7  1  0
 18 19  1  0
 19 14  1  0
 19 55  1  0
 19 56  1  0
 20 21  2  0
 20 22  1  0
 22 24  1  0
 22 23  1  0
 24 25  1  0
 24 26  1  0
 24 57  1  6
 25 58  1  0
 25 59  1  0
 25 60  1  0
 26 27  2  0
 27 28  1  0
 27 61  1  0
 28 29  1  0
 28 30  2  0
 30 31  1  0
 30 62  1  0
 31 32  2  0
 31 63  1  0
 32 33  1  0
 32 26  1  0
M  END
>  <minimizedAffinity>  (6) 
-9.51047

>  <mol_id>  (6) 
126879

>  <source_index>  (6) 
5

>  <layer>  (6) 
L2

>  <uniprot>  (6) 
P18825

>  <paff>  (6) 
7.6021000000000001

>  <smiles>  (6) 
CC(NC(=O)C1(N2CCC(N3CCC[C@H](C)C3)CC2)NC=CS1)c1cc(F)ccc1F

$$$$
L2:P18825:129391
     RDKit          3D

 58 61  0  0  0  0  0  0  0  0999 V2000
   -8.0855    2.3632   59.5029 C   0  0  0  0  0  0  0  0  0  0  0  0
   -9.1296    1.7443   60.0144 N   0  0  0  0  0  0  0  0  0  0  0  0
   -8.7724    0.9750   61.1028 C   0  0  0  0  0  0  0  0  0  0  0  0
   -7.4379    0.9942   61.4439 C   0  0  0  0  0  0  0  0  0  0  0  0
   -6.6114    2.0232   60.3503 S   0  0  0  0  0  0  0  0  0  0  0  0
   -9.3315    4.6455   56.2821 C   0  0  0  0  0  0  0  0  0  0  0  0
   -8.9992    3.1491   56.1097 C   0  0  0  0  0  0  0  0  0  0  0  0
   -7.9347    2.6491   57.0865 C   0  0  0  0  0  0  0  0  0  0  0  0
   -8.1592    3.1922   58.4198 N   0  0  0  0  0  0  0  0  0  0  0  0
   -8.2904    4.6401   58.5625 C   0  0  0  0  0  0  0  0  0  0  0  0
   -8.3232    5.3447   57.2054 C   0  0  0  0  0  0  0  0  0  0  0  0
  -10.4812    8.3963   54.3383 C   0  0  0  0  0  0  0  0  0  0  0  0
   -9.3740    7.5056   53.7692 C   0  0  2  0  0  0  0  0  0  0  0  0
   -9.9166    6.6819   52.5844 C   0  0  0  0  0  0  0  0  0  0  0  0
   -9.2640    5.3071   52.5285 C   0  0  0  0  0  0  0  0  0  0  0  0
   -9.4821    4.5355   53.8383 C   0  0  0  0  0  0  0  0  0  0  0  0
   -9.5395    5.3980   55.0304 N   0  0  0  0  0  0  0  0  0  0  0  0
   -8.7445    6.6129   54.8615 C   0  0  0  0  0  0  0  0  0  0  0  0
   -6.7060    0.3266   62.5028 C   0  0  0  0  0  0  0  0  0  0  0  0
   -7.2050   -0.4985   63.2662 O   0  0  0  0  0  0  0  0  0  0  0  0
   -5.3751    0.6793   62.6206 N   0  0  0  0  0  0  0  0  0  0  0  0
   -4.9705    1.3797   62.0193 H   0  0  0  0  0  0  0  0  0  0  0  0
   -4.5220    0.1201   63.6446 C   0  0  0  0  0  0  0  0  0  0  0  0
   -3.3547   -0.6013   63.0350 C   0  0  0  0  0  0  0  0  0  0  0  0
   -2.8361   -0.2072   61.7929 C   0  0  0  0  0  0  0  0  0  0  0  0
   -1.7654   -0.9016   61.2355 C   0  0  0  0  0  0  0  0  0  0  0  0
   -1.2739   -0.5155   60.0513 F   0  0  0  0  0  0  0  0  0  0  0  0
   -1.1981   -1.9923   61.8869 C   0  0  0  0  0  0  0  0  0  0  0  0
   -1.7135   -2.3998   63.1161 C   0  0  0  0  0  0  0  0  0  0  0  0
   -2.7853   -1.7064   63.6760 C   0  0  0  0  0  0  0  0  0  0  0  0
   -3.2788   -2.1212   64.8514 F   0  0  0  0  0  0  0  0  0  0  0  0
   -9.4636    0.4186   61.6297 H   0  0  0  0  0  0  0  0  0  0  0  0
  -10.2919    4.6516   56.7537 H   0  0  0  0  0  0  0  0  0  0  0  0
   -8.6450    2.9927   55.1122 H   0  0  0  0  0  0  0  0  0  0  0  0
   -9.8957    2.6005   56.3102 H   0  0  0  0  0  0  0  0  0  0  0  0
   -6.9697    2.9559   56.7408 H   0  0  0  0  0  0  0  0  0  0  0  0
   -7.9904    1.5818   57.1373 H   0  0  0  0  0  0  0  0  0  0  0  0
   -7.4580    5.0094   59.1243 H   0  0  0  0  0  0  0  0  0  0  0  0
   -9.2136    4.8422   59.0642 H   0  0  0  0  0  0  0  0  0  0  0  0
   -7.3501    5.3076   56.7620 H   0  0  0  0  0  0  0  0  0  0  0  0
   -8.6173    6.3642   57.3430 H   0  0  0  0  0  0  0  0  0  0  0  0
  -10.8924    8.9984   53.5552 H   0  0  0  0  0  0  0  0  0  0  0  0
  -10.0741    9.0295   55.0987 H   0  0  0  0  0  0  0  0  0  0  0  0
  -11.2511    7.7836   54.7588 H   0  0  0  0  0  0  0  0  0  0  0  0
   -8.5866    8.1309   53.4033 H   0  0  0  0  0  0  0  0  0  0  0  0
   -9.7114    7.2035   51.6730 H   0  0  0  0  0  0  0  0  0  0  0  0
  -10.9708    6.5528   52.7145 H   0  0  0  0  0  0  0  0  0  0  0  0
   -8.2134    5.4258   52.3641 H   0  0  0  0  0  0  0  0  0  0  0  0
   -9.7104    4.7522   51.7299 H   0  0  0  0  0  0  0  0  0  0  0  0
   -8.6757    3.8430   53.9608 H   0  0  0  0  0  0  0  0  0  0  0  0
  -10.4309    4.0471   53.7595 H   0  0  0  0  0  0  0  0  0  0  0  0
   -7.7488    6.3480   54.5729 H   0  0  0  0  0  0  0  0  0  0  0  0
   -8.7222    7.1507   55.7863 H   0  0  0  0  0  0  0  0  0  0  0  0
   -5.0892   -0.5682   64.2357 H   0  0  0  0  0  0  0  0  0  0  0  0
   -4.1506    0.9180   64.2532 H   0  0  0  0  0  0  0  0  0  0  0  0
   -3.2474    0.5963   61.2927 H   0  0  0  0  0  0  0  0  0  0  0  0
   -0.4026   -2.4952   61.4636 H   0  0  0  0  0  0  0  0  0  0  0  0
   -1.3044   -3.2093   63.6083 H   0  0  0  0  0  0  0  0  0  0  0  0
  1  2  2  0
  2  3  1  0
  3  4  2  0
  3 32  1  0
  4 19  1  0
  4  5  1  0
  5  1  1  0
  6  7  1  0
  6 33  1  0
  7  8  1  0
  7 34  1  0
  7 35  1  0
  8  9  1  0
  8 36  1  0
  8 37  1  0
  9  1  1  0
  9 10  1  0
 10 11  1  0
 10 38  1  0
 10 39  1  0
 11  6  1  0
 11 40  1  0
 11 41  1  0
 12 13  1  0
 12 42  1  0
 12 43  1  0
 12 44  1  0
 13 14  1  0
 13 45  1  6
 14 15  1  0
 14 46  1  0
 14 47  1  0
 15 16  1  0
 15 48  1  0
 15 49  1  0
 16 17  1  0
 16 50  1  0
 16 51  1  0
 17  6  1  0
 17 18  1  0
 18 13  1  0
 18 52  1  0
 18 53  1  0
 19 20  2  0
 19 21  1  0
 21 23  1  0
 21 22  1  0
 23 24  1  0
 23 54  1  0
 23 55  1  0
 24 25  2  0
 25 26  1  0
 25 56  1  0
 26 27  1  0
 26 28  2  0
 28 29  1  0
 28 57  1  0
 29 30  2  0
 29 58  1  0
 30 31  1  0
 30 24  1  0
M  END
>  <minimizedAffinity>  (7) 
-9.08687

>  <mol_id>  (7) 
129391

>  <source_index>  (7) 
6

>  <layer>  (7) 
L2

>  <uniprot>  (7) 
P18825

>  <paff>  (7) 
7.6536

>  <smiles>  (7) 
C[C@@H]1CCCN(C1)C1CCN(CC1)c1ncc(s1)C(=O)NCc1cc(F)ccc1F |r|

$$$$
L2:P18825:134891
     RDKit          3D

 61 64  0  0  0  0  0  0  0  0999 V2000
   -8.8860    4.1937   56.2468 C   0  0  0  0  0  0  0  0  0  0  0  0
   -8.6729    5.0915   57.2679 C   0  0  0  0  0  0  0  0  0  0  0  0
   -8.2318    4.5514   58.4583 N   0  0  0  0  0  0  0  0  0  0  0  0
   -8.1010    3.2429   58.3696 C   0  0  0  0  0  0  0  0  0  0  0  0
   -8.5186    2.6219   56.8056 S   0  0  0  0  0  0  0  0  0  0  0  0
   -7.6808    2.4748   59.4187 N   0  0  0  0  0  0  0  0  0  0  0  0
   -6.8133    2.9523   60.4813 C   0  0  0  0  0  0  0  0  0  0  0  0
   -5.7100    1.9367   60.7873 C   0  0  0  0  0  0  0  0  0  0  0  0
   -6.1894    0.4709   60.7322 C   0  0  0  0  0  0  0  0  0  0  0  0
   -7.7215    0.3888   60.7627 C   0  0  0  0  0  0  0  0  0  0  0  0
   -8.2993    1.1554   59.5723 C   0  0  0  0  0  0  0  0  0  0  0  0
   -5.5493   -0.4492   61.6984 N   0  0  0  0  0  0  0  0  0  0  0  0
   -6.4749   -0.8592   62.7665 C   0  0  0  0  0  0  0  0  0  0  0  0
   -5.7668   -1.6626   63.8594 C   0  0  0  0  0  0  0  0  0  0  0  0
   -5.0289   -2.8686   63.2807 C   0  0  0  0  0  0  0  0  0  0  0  0
   -4.0801   -2.4313   62.1621 C   0  0  1  0  0  0  0  0  0  0  0  0
   -4.8675   -1.6120   61.1077 C   0  0  0  0  0  0  0  0  0  0  0  0
   -3.0048   -1.7120   62.7849 O   0  0  0  0  0  0  0  0  0  0  0  0
   -1.7712   -1.7316   62.0584 C   0  0  0  0  0  0  0  0  0  0  0  0
   -1.4041   -0.3544   61.5122 C   0  0  0  0  0  0  0  0  0  0  0  0
   -2.4922    0.4553   61.5280 F   0  0  0  0  0  0  0  0  0  0  0  0
   -0.9776   -0.4215   60.2310 F   0  0  0  0  0  0  0  0  0  0  0  0
   -0.4448    0.2491   62.2458 F   0  0  0  0  0  0  0  0  0  0  0  0
  -10.1029    3.7456   54.2837 O   0  0  0  0  0  0  0  0  0  0  0  0
   -9.3444    4.4861   54.9063 C   0  0  0  0  0  0  0  0  0  0  0  0
   -8.8828    5.6534   54.3511 N   0  0  0  0  0  0  0  0  0  0  0  0
   -8.2559    6.2601   54.8694 H   0  0  0  0  0  0  0  0  0  0  0  0
   -9.2544    6.0762   53.0192 C   0  0  0  0  0  0  0  0  0  0  0  0
   -9.4065    7.5768   52.9308 C   0  0  0  0  0  0  0  0  0  0  0  0
   -8.9280    8.2145   51.8183 N   0  0  0  0  0  0  0  0  0  0  0  0
   -9.0843    9.5612   51.7768 C   0  0  0  0  0  0  0  0  0  0  0  0
   -9.6898   10.2953   52.7844 C   0  0  0  0  0  0  0  0  0  0  0  0
   -9.8105   11.6239   52.6777 F   0  0  0  0  0  0  0  0  0  0  0  0
  -10.1702    9.6395   53.9060 C   0  0  0  0  0  0  0  0  0  0  0  0
  -10.0246    8.2615   53.9763 C   0  0  0  0  0  0  0  0  0  0  0  0
  -10.4801    7.6024   55.0497 F   0  0  0  0  0  0  0  0  0  0  0  0
   -8.8329    6.1043   57.1506 H   0  0  0  0  0  0  0  0  0  0  0  0
   -7.3966    3.1118   61.3640 H   0  0  0  0  0  0  0  0  0  0  0  0
   -6.3565    3.8662   60.1634 H   0  0  0  0  0  0  0  0  0  0  0  0
   -5.3322    2.1327   61.7690 H   0  0  0  0  0  0  0  0  0  0  0  0
   -4.9596    2.0507   60.0331 H   0  0  0  0  0  0  0  0  0  0  0  0
   -5.8488    0.1043   59.7864 H   0  0  0  0  0  0  0  0  0  0  0  0
   -8.0833    0.8192   61.6731 H   0  0  0  0  0  0  0  0  0  0  0  0
   -8.0240   -0.6360   60.7064 H   0  0  0  0  0  0  0  0  0  0  0  0
   -9.3514    1.2819   59.7203 H   0  0  0  0  0  0  0  0  0  0  0  0
   -8.0991    0.5905   58.6859 H   0  0  0  0  0  0  0  0  0  0  0  0
   -7.2490   -1.4626   62.3404 H   0  0  0  0  0  0  0  0  0  0  0  0
   -6.8770    0.0257   63.2139 H   0  0  0  0  0  0  0  0  0  0  0  0
   -6.4944   -2.0061   64.5647 H   0  0  0  0  0  0  0  0  0  0  0  0
   -5.0486   -1.0254   64.3317 H   0  0  0  0  0  0  0  0  0  0  0  0
   -5.7423   -3.5617   62.8863 H   0  0  0  0  0  0  0  0  0  0  0  0
   -4.4570   -3.3299   64.0585 H   0  0  0  0  0  0  0  0  0  0  0  0
   -3.6600   -3.2559   61.6251 H   0  0  0  0  0  0  0  0  0  0  0  0
   -5.6002   -2.2473   60.6555 H   0  0  0  0  0  0  0  0  0  0  0  0
   -4.1664   -1.2482   60.3859 H   0  0  0  0  0  0  0  0  0  0  0  0
   -1.8640   -2.4140   61.2395 H   0  0  0  0  0  0  0  0  0  0  0  0
   -0.9973   -2.0358   62.7317 H   0  0  0  0  0  0  0  0  0  0  0  0
  -10.1847    5.6174   52.7568 H   0  0  0  0  0  0  0  0  0  0  0  0
   -8.4771    5.7797   52.3463 H   0  0  0  0  0  0  0  0  0  0  0  0
   -8.7328   10.0673   50.9490 H   0  0  0  0  0  0  0  0  0  0  0  0
  -10.6251   10.1629   54.6703 H   0  0  0  0  0  0  0  0  0  0  0  0
  1  2  2  0
  2  3  1  0
  2 37  1  0
  3  4  2  0
  4  6  1  0
  4  5  1  0
  5  1  1  0
  6  7  1  0
  7  8  1  0
  7 38  1  0
  7 39  1  0
  8  9  1  0
  8 40  1  0
  8 41  1  0
  9 10  1  0
  9 42  1  0
 10 11  1  0
 10 43  1  0
 10 44  1  0
 11  6  1  0
 11 45  1  0
 11 46  1  0
 12  9  1  0
 12 13  1  0
 13 14  1  0
 13 47  1  0
 13 48  1  0
 14 15  1  0
 14 49  1  0
 14 50  1  0
 15 16  1  0
 15 51  1  0
 15 52  1  0
 16 18  1  0
 16 17  1  0
 16 53  1  6
 17 12  1  0
 17 54  1  0
 17 55  1  0
 18 19  1  0
 19 20  1  0
 19 56  1  0
 19 57  1  0
 20 21  1  0
 20 22  1  0
 20 23  1  0
 24 25  2  0
 25 26  1  0
 25  1  1  0
 26 28  1  0
 26 27  1  0
 28 29  1  0
 28 58  1  0
 28 59  1  0
 29 30  2  0
 30 31  1  0
 31 32  2  0
 31 60  1  0
 32 33  1  0
 32 34  1  0
 34 35  2  0
 34 61  1  0
 35 36  1  0
 35 29  1  0
M  END
>  <minimizedAffinity>  (8) 
-9.32591

>  <mol_id>  (8) 
134891

>  <source_index>  (8) 
7

>  <layer>  (8) 
L2

>  <uniprot>  (8) 
P18825

>  <paff>  (8) 
6.1938000000000004

>  <smiles>  (8) 
Fc1cnc(CNC(=O)c2cnc(s2)N2CCC(CC2)N2CCCC(C2)OCC(F)(F)F)c(F)c1

$$$$
L2:P18825:136971
     RDKit          3D

 61 64  0  0  0  0  0  0  0  0999 V2000
   -8.5821    2.7336   58.1545 C   0  0  0  0  0  0  0  0  0  0  0  0
   -9.6941    3.4406   58.2254 N   0  0  0  0  0  0  0  0  0  0  0  0
  -10.1255    3.8254   56.9740 C   0  0  0  0  0  0  0  0  0  0  0  0
   -9.3120    3.4573   55.9288 C   0  0  0  0  0  0  0  0  0  0  0  0
   -8.0152    2.5246   56.5253 S   0  0  0  0  0  0  0  0  0  0  0  0
   -6.5288    0.9604   61.4367 C   0  0  0  0  0  0  0  0  0  0  0  0
   -6.0745    2.3008   60.8386 C   0  0  0  0  0  0  0  0  0  0  0  0
   -7.2525    3.0543   60.2240 C   0  0  0  0  0  0  0  0  0  0  0  0
   -7.9571    2.2157   59.2569 N   0  0  0  0  0  0  0  0  0  0  0  0
   -8.3759    0.8913   59.7206 C   0  0  0  0  0  0  0  0  0  0  0  0
   -7.2050    0.1279   60.3373 C   0  0  0  0  0  0  0  0  0  0  0  0
   -1.7132   -0.4628   61.6111 C   0  0  0  0  0  0  0  0  0  0  0  0
   -3.1140   -0.6207   62.2001 C   0  0  2  0  0  0  0  0  0  0  0  0
   -3.5774   -2.0828   62.1193 C   0  0  0  0  0  0  0  0  0  0  0  0
   -5.0960   -2.2098   62.0169 C   0  0  0  0  0  0  0  0  0  0  0  0
   -5.8125   -1.0425   62.6903 C   0  0  0  0  0  0  0  0  0  0  0  0
   -5.4368    0.2714   62.1535 N   0  0  0  0  0  0  0  0  0  0  0  0
   -4.1199    0.3117   61.5060 C   0  0  0  0  0  0  0  0  0  0  0  0
   -9.4591    3.6915   54.5112 C   0  0  0  0  0  0  0  0  0  0  0  0
   -9.5321    2.7558   53.7136 O   0  0  0  0  0  0  0  0  0  0  0  0
   -9.5391    5.0170   54.0653 N   0  0  0  0  0  0  0  0  0  0  0  0
   -9.8757    5.2435   52.6671 C   0  0  0  0  0  0  0  0  0  0  0  0
   -9.1049    6.1869   54.8350 C   0  0  0  0  0  0  0  0  0  0  0  0
   -9.3783    7.4912   54.1206 C   0  0  0  0  0  0  0  0  0  0  0  0
   -8.8219    7.7433   52.8582 C   0  0  0  0  0  0  0  0  0  0  0  0
   -9.0766    8.9477   52.2000 C   0  0  0  0  0  0  0  0  0  0  0  0
   -9.8890    9.9109   52.7951 C   0  0  0  0  0  0  0  0  0  0  0  0
  -10.4483    9.6715   54.0486 C   0  0  0  0  0  0  0  0  0  0  0  0
  -10.1960    8.4680   54.7085 C   0  0  0  0  0  0  0  0  0  0  0  0
  -11.0002    4.3542   56.8314 H   0  0  0  0  0  0  0  0  0  0  0  0
   -7.2606    1.1280   62.1991 H   0  0  0  0  0  0  0  0  0  0  0  0
   -5.3436    2.1153   60.0795 H   0  0  0  0  0  0  0  0  0  0  0  0
   -5.6585    2.8996   61.6217 H   0  0  0  0  0  0  0  0  0  0  0  0
   -6.8888    3.9305   59.7292 H   0  0  0  0  0  0  0  0  0  0  0  0
   -7.9328    3.3229   61.0049 H   0  0  0  0  0  0  0  0  0  0  0  0
   -8.7570    0.3348   58.8900 H   0  0  0  0  0  0  0  0  0  0  0  0
   -9.1311    1.0165   60.4682 H   0  0  0  0  0  0  0  0  0  0  0  0
   -6.4887   -0.0923   59.5735 H   0  0  0  0  0  0  0  0  0  0  0  0
   -7.5764   -0.7766   60.7719 H   0  0  0  0  0  0  0  0  0  0  0  0
   -1.0382   -1.1233   62.1141 H   0  0  0  0  0  0  0  0  0  0  0  0
   -1.3846    0.5475   61.7382 H   0  0  0  0  0  0  0  0  0  0  0  0
   -1.7357   -0.7020   60.5684 H   0  0  0  0  0  0  0  0  0  0  0  0
   -3.0686   -0.3401   63.2316 H   0  0  0  0  0  0  0  0  0  0  0  0
   -3.2486   -2.5962   62.9986 H   0  0  0  0  0  0  0  0  0  0  0  0
   -3.1548   -2.5095   61.2337 H   0  0  0  0  0  0  0  0  0  0  0  0
   -5.3994   -3.1206   62.4894 H   0  0  0  0  0  0  0  0  0  0  0  0
   -5.3594   -2.2062   60.9798 H   0  0  0  0  0  0  0  0  0  0  0  0
   -5.5787   -1.0600   63.7343 H   0  0  0  0  0  0  0  0  0  0  0  0
   -6.8584   -1.1686   62.5032 H   0  0  0  0  0  0  0  0  0  0  0  0
   -3.7462    1.3136   61.5431 H   0  0  0  0  0  0  0  0  0  0  0  0
   -4.2362   -0.0180   60.4947 H   0  0  0  0  0  0  0  0  0  0  0  0
  -10.1754    4.3196   52.2182 H   0  0  0  0  0  0  0  0  0  0  0  0
   -9.0207    5.6293   52.1524 H   0  0  0  0  0  0  0  0  0  0  0  0
  -10.6785    5.9481   52.6031 H   0  0  0  0  0  0  0  0  0  0  0  0
   -8.0527    6.1082   55.0127 H   0  0  0  0  0  0  0  0  0  0  0  0
   -9.6615    6.1967   55.7488 H   0  0  0  0  0  0  0  0  0  0  0  0
   -8.2199    7.0333   52.4126 H   0  0  0  0  0  0  0  0  0  0  0  0
   -8.6627    9.1250   51.2714 H   0  0  0  0  0  0  0  0  0  0  0  0
  -10.0763   10.8010   52.3077 H   0  0  0  0  0  0  0  0  0  0  0  0
  -11.0497   10.3849   54.4895 H   0  0  0  0  0  0  0  0  0  0  0  0
  -10.6141    8.2952   55.6360 H   0  0  0  0  0  0  0  0  0  0  0  0
  1  2  2  0
  2  3  1  0
  3  4  2  0
  3 30  1  0
  4 19  1  0
  4  5  1  0
  5  1  1  0
  6  7  1  0
  6 31  1  0
  7  8  1  0
  7 32  1  0
  7 33  1  0
  8  9  1  0
  8 34  1  0
  8 35  1  0
  9  1  1  0
  9 10  1  0
 10 11  1  0
 10 36  1  0
 10 37  1  0
 11  6  1  0
 11 38  1  0
 11 39  1  0
 12 13  1  0
 12 40  1  0
 12 41  1  0
 12 42  1  0
 13 14  1  0
 13 43  1  1
 14 15  1  0
 14 44  1  0
 14 45  1  0
 15 16  1  0
 15 46  1  0
 15 47  1  0
 16 17  1  0
 16 48  1  0
 16 49  1  0
 17  6  1  0
 17 18  1  0
 18 13  1  0
 18 50  1  0
 18 51  1  0
 19 20  2  0
 19 21  1  0
 21 22  1  0
 21 23  1  0
 22 52  1  0
 22 53  1  0
 22 54  1  0
 23 24  1  0
 23 55  1  0
 23 56  1  0
 24 25  2  0
 25 26  1  0
 25 57  1  0
 26 27  2  0
 26 58  1  0
 27 28  1  0
 27 59  1  0
 28 29  2  0
 28 60  1  0
 29 24  1  0
 29 61  1  0
M  END
>  <minimizedAffinity>  (9) 
-9.23156

>  <mol_id>  (9) 
136971

>  <source_index>  (9) 
8

>  <layer>  (9) 
L2

>  <uniprot>  (9) 
P18825

>  <paff>  (9) 
7.0705999999999998

>  <smiles>  (9) 
C[C@@H]1CCCN(C1)C1CCN(CC1)c1ncc(s1)C(=O)N(C)Cc1ccccc1 |r|

$$$$
L2:P18825:144176
     RDKit          3D

 64 67  0  0  0  0  0  0  0  0999 V2000
   -8.9029    3.5693   56.2617 C   0  0  0  0  0  0  0  0  0  0  0  0
   -9.0338    4.3402   57.3944 C   0  0  0  0  0  0  0  0  0  0  0  0
   -8.5062    3.8028   58.5505 N   0  0  0  0  0  0  0  0  0  0  0  0
   -7.9667    2.6226   58.3251 C   0  0  0  0  0  0  0  0  0  0  0  0
   -8.0901    2.1220   56.6662 S   0  0  0  0  0  0  0  0  0  0  0  0
   -7.3676    1.8713   59.2961 N   0  0  0  0  0  0  0  0  0  0  0  0
   -7.7431    0.4706   59.4442 C   0  0  0  0  0  0  0  0  0  0  0  0
   -7.9723    0.1163   60.9143 C   0  0  0  0  0  0  0  0  0  0  0  0
   -6.9672    0.7893   61.8720 C   0  0  0  0  0  0  0  0  0  0  0  0
   -5.7586    1.3418   61.1037 C   0  0  0  0  0  0  0  0  0  0  0  0
   -6.2309    2.3640   60.0683 C   0  0  0  0  0  0  0  0  0  0  0  0
   -6.5812   -0.0285   63.0383 N   0  0  0  0  0  0  0  0  0  0  0  0
   -7.0242   -1.4259   62.9612 C   0  0  0  0  0  0  0  0  0  0  0  0
   -5.8829   -2.4320   62.8425 C   0  0  0  0  0  0  0  0  0  0  0  0
   -4.8852   -2.3091   63.9925 C   0  0  0  0  0  0  0  0  0  0  0  0
   -4.8254   -0.8890   64.5740 C   0  0  1  0  0  0  0  0  0  0  0  0
   -3.4456   -0.6030   65.1643 C   0  0  0  0  0  0  0  0  0  0  0  0
   -5.2062    0.1565   63.5145 C   0  0  0  0  0  0  0  0  0  0  0  0
   -9.1191    5.1767   54.5016 N   0  0  0  0  0  0  0  0  0  0  0  0
   -9.3622    3.8896   54.9269 C   0  0  0  0  0  0  0  0  0  0  0  0
   -9.9348    3.0727   54.2095 O   0  0  0  0  0  0  0  0  0  0  0  0
   -8.6627    5.8176   55.1375 H   0  0  0  0  0  0  0  0  0  0  0  0
   -9.5246    5.6640   53.1963 C   0  0  2  0  0  0  0  0  0  0  0  0
   -8.6441    5.0824   52.0862 C   0  0  0  0  0  0  0  0  0  0  0  0
   -9.6037   11.5067   53.1145 C   0  0  0  0  0  0  0  0  0  0  0  0
   -9.5568   10.0081   53.1559 C   0  0  0  0  0  0  0  0  0  0  0  0
   -9.0928    9.2827   52.0544 C   0  0  0  0  0  0  0  0  0  0  0  0
   -9.0771    7.8856   52.0808 C   0  0  0  0  0  0  0  0  0  0  0  0
   -9.5271    7.1826   53.2083 C   0  0  0  0  0  0  0  0  0  0  0  0
  -10.0175    7.9165   54.2995 C   0  0  0  0  0  0  0  0  0  0  0  0
  -10.0326    9.3138   54.2725 C   0  0  0  0  0  0  0  0  0  0  0  0
   -9.4974    5.2621   57.3799 H   0  0  0  0  0  0  0  0  0  0  0  0
   -6.9594   -0.1447   59.0542 H   0  0  0  0  0  0  0  0  0  0  0  0
   -8.6536    0.3035   58.9076 H   0  0  0  0  0  0  0  0  0  0  0  0
   -7.8872   -0.9446   61.0245 H   0  0  0  0  0  0  0  0  0  0  0  0
   -8.9460    0.4740   61.1768 H   0  0  0  0  0  0  0  0  0  0  0  0
   -7.4887    1.6165   62.3063 H   0  0  0  0  0  0  0  0  0  0  0  0
   -5.2552    0.5388   60.6071 H   0  0  0  0  0  0  0  0  0  0  0  0
   -5.0882    1.8156   61.7900 H   0  0  0  0  0  0  0  0  0  0  0  0
   -5.4238    2.5763   59.3987 H   0  0  0  0  0  0  0  0  0  0  0  0
   -6.5413    3.2452   60.5899 H   0  0  0  0  0  0  0  0  0  0  0  0
   -7.6568   -1.5318   62.1047 H   0  0  0  0  0  0  0  0  0  0  0  0
   -7.5330   -1.6409   63.8776 H   0  0  0  0  0  0  0  0  0  0  0  0
   -5.3682   -2.2623   61.9199 H   0  0  0  0  0  0  0  0  0  0  0  0
   -6.3054   -3.4144   62.8770 H   0  0  0  0  0  0  0  0  0  0  0  0
   -3.9129   -2.5730   63.6322 H   0  0  0  0  0  0  0  0  0  0  0  0
   -5.2086   -2.9654   64.7733 H   0  0  0  0  0  0  0  0  0  0  0  0
   -5.5415   -0.8227   65.3662 H   0  0  0  0  0  0  0  0  0  0  0  0
   -2.7078   -0.6628   64.3917 H   0  0  0  0  0  0  0  0  0  0  0  0
   -3.2261   -1.3242   65.9237 H   0  0  0  0  0  0  0  0  0  0  0  0
   -3.4366    0.3782   65.5910 H   0  0  0  0  0  0  0  0  0  0  0  0
   -4.5370    0.0682   62.6843 H   0  0  0  0  0  0  0  0  0  0  0  0
   -5.1363    1.1257   63.9625 H   0  0  0  0  0  0  0  0  0  0  0  0
  -10.5193    5.3322   52.9832 H   0  0  0  0  0  0  0  0  0  0  0  0
   -7.6286    5.3805   52.2434 H   0  0  0  0  0  0  0  0  0  0  0  0
   -8.9797    5.4459   51.1375 H   0  0  0  0  0  0  0  0  0  0  0  0
   -8.7089    4.0145   52.1022 H   0  0  0  0  0  0  0  0  0  0  0  0
   -9.1979   11.8507   52.1861 H   0  0  0  0  0  0  0  0  0  0  0  0
   -9.0283   11.9041   53.9244 H   0  0  0  0  0  0  0  0  0  0  0  0
  -10.6184   11.8344   53.2035 H   0  0  0  0  0  0  0  0  0  0  0  0
   -8.7594    9.7828   51.2155 H   0  0  0  0  0  0  0  0  0  0  0  0
   -8.7301    7.3644   51.2605 H   0  0  0  0  0  0  0  0  0  0  0  0
  -10.3710    7.4186   55.1315 H   0  0  0  0  0  0  0  0  0  0  0  0
  -10.3979    9.8374   55.0833 H   0  0  0  0  0  0  0  0  0  0  0  0
  1  2  2  0
  2  3  1  0
  2 32  1  0
  3  4  2  0
  4  6  1  0
  4  5  1  0
  5  1  1  0
  6  7  1  0
  7  8  1  0
  7 33  1  0
  7 34  1  0
  8  9  1  0
  8 35  1  0
  8 36  1  0
  9 12  1  0
  9 10  1  0
  9 37  1  0
 10 11  1  0
 10 38  1  0
 10 39  1  0
 11  6  1  0
 11 40  1  0
 11 41  1  0
 12 13  1  0
 13 14  1  0
 13 42  1  0
 13 43  1  0
 14 15  1  0
 14 44  1  0
 14 45  1  0
 15 16  1  0
 15 46  1  0
 15 47  1  0
 16 17  1  0
 16 18  1  0
 16 48  1  1
 17 49  1  0
 17 50  1  0
 17 51  1  0
 18 12  1  0
 18 52  1  0
 18 53  1  0
 19 20  1  0
 19 22  1  0
 20 21  2  0
 20  1  1  0
 23 24  1  0
 23 19  1  0
 23 54  1  6
 24 55  1  0
 24 56  1  0
 24 57  1  0
 25 26  1  0
 25 58  1  0
 25 59  1  0
 25 60  1  0
 26 27  2  0
 27 28  1  0
 27 61  1  0
 28 29  2  0
 28 62  1  0
 29 23  1  0
 29 30  1  0
 30 31  2  0
 30 63  1  0
 31 26  1  0
 31 64  1  0
M  END
>  <minimizedAffinity>  (10) 
-9.43909

>  <mol_id>  (10) 
144176

>  <source_index>  (10) 
9

>  <layer>  (10) 
L2

>  <uniprot>  (10) 
P18825

>  <paff>  (10) 
6.0968999999999998

>  <smiles>  (10) 
Cc1ccc([C@@H](C)NC(=O)c2cnc(N3CCC(N4CCC[C@@H](C)C4)CC3)s2)cc1

$$$$
