L2:Q8NER1:119254


 31 33  0  0  0  0  0  0  0  0999 V2000
  144.3513  150.4229  172.6147 C   0  0  0  0  0  0  0  0  0  0  0  0
  143.8795  150.6743  174.0680 C   0  0  0  0  0  0  0  0  0  0  0  0
  142.3933  150.3794  174.2726 C   0  0  0  0  0  0  0  0  0  0  0  0
  142.0385  148.9576  173.8555 C   0  0  0  0  0  0  0  0  0  0  0  0
  142.4822  148.6643  172.4281 C   0  0  0  0  0  0  0  0  0  0  0  0
  143.9680  148.9681  172.2273 C   0  0  0  0  0  0  0  0  0  0  0  0
  145.1362  153.1230  171.7708 O   0  0  0  0  0  0  0  0  0  0  0  0
  144.1378  152.5897  171.3032 C   0  0  0  0  0  0  0  0  0  0  0  0
  143.7215  151.3342  171.6344 N   0  0  0  0  0  0  0  0  0  0  0  0
  142.9346  150.9947  171.0966 H   0  0  0  0  0  0  0  0  0  0  0  0
  143.2875  153.1177  170.3505 O   0  0  0  0  0  0  0  0  0  0  0  0
  142.8290  154.3946  170.6779 C   0  0  0  0  0  0  0  0  0  0  0  0
  141.9725  154.5607  171.7655 C   0  0  0  0  0  0  0  0  0  0  0  0
  141.5527  155.8450  172.1085 C   0  0  0  0  0  0  0  0  0  0  0  0
  142.0017  156.9460  171.3751 C   0  0  0  0  0  0  0  0  0  0  0  0
  142.8754  156.7673  170.2995 C   0  0  0  0  0  0  0  0  0  0  0  0
  143.2989  155.4860  169.9501 C   0  0  0  0  0  0  0  0  0  0  0  0
  145.9149  150.5647  172.5299 C   0  0  0  0  0  0  0  0  0  0  0  0
  146.5631  149.9707  171.6701 O   0  0  0  0  0  0  0  0  0  0  0  0
  146.4584  151.3780  173.5112 N   0  0  0  0  0  0  0  0  0  0  0  0
  145.7910  151.8351  174.1348 H   0  0  0  0  0  0  0  0  0  0  0  0
  147.8114  151.6974  173.7322 C   0  0  0  0  0  0  0  0  0  0  0  0
  148.5985  152.4359  172.8493 C   0  0  0  0  0  0  0  0  0  0  0  0
  149.9348  152.7120  173.1528 C   0  0  0  0  0  0  0  0  0  0  0  0
  150.4967  152.2505  174.3418 C   0  0  0  0  0  0  0  0  0  0  0  0
  149.7276  151.4997  175.2398 C   0  0  0  0  0  0  0  0  0  0  0  0
  148.3834  151.2341  174.9250 C   0  0  0  0  0  0  0  0  0  0  0  0
  150.3099  151.0102  176.5410 C   0  0  0  0  0  0  0  0  0  0  0  0
  151.1878  151.8994  177.0824 F   0  0  0  0  0  0  0  0  0  0  0  0
  150.9933  149.8373  176.4215 F   0  0  0  0  0  0  0  0  0  0  0  0
  149.3633  150.7906  177.4959 F   0  0  0  0  0  0  0  0  0  0  0  0
  7  8  2  0  0  0
  8  9  1  0  0  0
  9  1  1  0  0  0
  1 18  1  0  0  0
 18 19  2  0  0  0
 18 20  1  0  0  0
 20 22  1  0  0  0
 22 23  2  0  0  0
 23 24  1  0  0  0
 24 25  2  0  0  0
 25 26  1  0  0  0
 26 28  1  0  0  0
 28 29  1  0  0  0
 28 30  1  0  0  0
 28 31  1  0  0  0
 26 27  2  0  0  0
  1  2  1  0  0  0
  2  3  1  0  0  0
  3  4  1  0  0  0
  4  5  1  0  0  0
  5  6  1  0  0  0
  8 11  1  0  0  0
 11 12  1  0  0  0
 12 13  2  0  0  0
 13 14  1  0  0  0
 14 15  2  0  0  0
 15 16  1  0  0  0
 16 17  2  0  0  0
  6  1  1  0  0  0
 17 12  1  0  0  0
 27 22  1  0  0  0
  9 10  1  0  0  0
 20 21  1  0  0  0
M  END
> <minimizedAffinity>
-9.23689

$$$$
