L2:Q8NER1:125391
 OpenBabel09212617533D

 47 49  0  0  0  0  0  0  0  0999 V2000
  142.2975  150.8222  172.5595 C   0  0  0  0  0  0  0  0  0  0  0  0
  141.2663  149.7678  172.0881 C   0  0  0  0  0  0  0  0  0  0  0  0
  140.9460  148.6619  173.0898 C   0  0  0  0  0  0  0  0  0  0  0  0
  140.6767  149.2113  174.4815 C   0  0  0  0  0  0  0  0  0  0  0  0
  141.8595  150.0162  174.9955 C   0  0  0  0  0  0  0  0  0  0  0  0
  142.2152  151.1725  174.0653 C   0  0  0  0  0  0  0  0  0  0  0  0
  145.0036  151.8321  173.4190 O   0  0  0  0  0  0  0  0  0  0  0  0
  144.8598  150.9459  172.5926 C   0  0  0  0  0  0  0  0  0  0  0  0
  143.6707  150.4488  172.1652 N   0  0  0  0  0  0  0  0  0  0  0  0
  143.7428  149.7096  171.4687 H   0  0  0  0  0  0  0  0  0  0  0  0
  145.8804  150.2790  171.9319 O   0  0  0  0  0  0  0  0  0  0  0  0
  145.9006  148.8975  172.1446 C   0  0  0  0  0  0  0  0  0  0  0  0
  145.6481  148.3786  173.4137 C   0  0  0  0  0  0  0  0  0  0  0  0
  145.6214  146.9957  173.5893 C   0  0  0  0  0  0  0  0  0  0  0  0
  145.8310  146.1484  172.4985 C   0  0  0  0  0  0  0  0  0  0  0  0
  146.0638  146.6808  171.2280 C   0  0  0  0  0  0  0  0  0  0  0  0
  146.0925  148.0628  171.0456 C   0  0  0  0  0  0  0  0  0  0  0  0
  142.0568  152.1485  171.7326 C   0  0  0  0  0  0  0  0  0  0  0  0
  141.4673  152.1017  170.6500 O   0  0  0  0  0  0  0  0  0  0  0  0
  142.5497  153.3050  172.3183 N   0  0  0  0  0  0  0  0  0  0  0  0
  143.0156  153.2063  173.2116 H   0  0  0  0  0  0  0  0  0  0  0  0
  142.4836  154.6232  171.8193 C   0  0  0  0  0  0  0  0  0  0  0  0
  143.2721  155.1093  170.7743 C   0  0  0  0  0  0  0  0  0  0  0  0
  143.1414  156.4343  170.3406 C   0  0  0  0  0  0  0  0  0  0  0  0
  142.2198  157.2784  170.9526 C   0  0  0  0  0  0  0  0  0  0  0  0
  142.0447  159.0659  170.3663 Br  0  0  0  0  0  0  0  0  0  0  0  0
  141.4263  156.8103  171.9952 C   0  0  0  0  0  0  0  0  0  0  0  0
  141.5594  155.4864  172.4257 C   0  0  0  0  0  0  0  0  0  0  0  0
  141.6488  149.3074  171.2012 H   0  0  0  0  0  0  0  0  0  0  0  0
  140.3507  150.3012  171.9396 H   0  0  0  0  0  0  0  0  0  0  0  0
  141.7771  147.9897  173.1391 H   0  0  0  0  0  0  0  0  0  0  0  0
  140.0611  148.1614  172.7562 H   0  0  0  0  0  0  0  0  0  0  0  0
  140.4938  148.3953  175.1491 H   0  0  0  0  0  0  0  0  0  0  0  0
  139.8250  149.8570  174.4309 H   0  0  0  0  0  0  0  0  0  0  0  0
  142.7069  149.3684  175.0802 H   0  0  0  0  0  0  0  0  0  0  0  0
  141.5894  150.4286  175.9452 H   0  0  0  0  0  0  0  0  0  0  0  0
  143.1680  151.5553  174.3663 H   0  0  0  0  0  0  0  0  0  0  0  0
  141.4154  151.8773  174.1574 H   0  0  0  0  0  0  0  0  0  0  0  0
  145.4830  149.0101  174.2131 H   0  0  0  0  0  0  0  0  0  0  0  0
  145.4467  146.5979  174.5254 H   0  0  0  0  0  0  0  0  0  0  0  0
  145.8138  145.1252  172.6317 H   0  0  0  0  0  0  0  0  0  0  0  0
  146.2145  146.0511  170.4244 H   0  0  0  0  0  0  0  0  0  0  0  0
  146.2539  148.4626  170.1080 H   0  0  0  0  0  0  0  0  0  0  0  0
  143.9570  154.4867  170.3178 H   0  0  0  0  0  0  0  0  0  0  0  0
  143.7283  156.7847  169.5674 H   0  0  0  0  0  0  0  0  0  0  0  0
  140.7430  157.4369  172.4485 H   0  0  0  0  0  0  0  0  0  0  0  0
  140.9703  155.1403  173.1991 H   0  0  0  0  0  0  0  0  0  0  0  0
  1 18  1  0  0  0  0
  1  2  1  0  0  0  0
  2  3  1  0  0  0  0
  2 29  1  0  0  0  0
  2 30  1  0  0  0  0
  3  4  1  0  0  0  0
  3 31  1  0  0  0  0
  3 32  1  0  0  0  0
  4  5  1  0  0  0  0
  4 33  1  0  0  0  0
  4 34  1  0  0  0  0
  5  6  1  0  0  0  0
  5 35  1  0  0  0  0
  5 36  1  0  0  0  0
  6  1  1  0  0  0  0
  6 37  1  0  0  0  0
  6 38  1  0  0  0  0
  7  8  2  0  0  0  0
  8  9  1  0  0  0  0
  8 11  1  0  0  0  0
  9  1  1  0  0  0  0
  9 10  1  0  0  0  0
 11 12  1  0  0  0  0
 12 13  2  0  0  0  0
 13 14  1  0  0  0  0
 13 39  1  0  0  0  0
 14 15  2  0  0  0  0
 14 40  1  0  0  0  0
 15 16  1  0  0  0  0
 15 41  1  0  0  0  0
 16 17  2  0  0  0  0
 16 42  1  0  0  0  0
 17 12  1  0  0  0  0
 17 43  1  0  0  0  0
 18 19  2  0  0  0  0
 18 20  1  0  0  0  0
 20 22  1  0  0  0  0
 20 21  1  0  0  0  0
 22 23  2  0  0  0  0
 23 24  1  0  0  0  0
 23 44  1  0  0  0  0
 24 25  2  0  0  0  0
 24 45  1  0  0  0  0
 25 26  1  0  0  0  0
 25 27  1  0  0  0  0
 27 28  2  0  0  0  0
 27 46  1  0  0  0  0
 28 22  1  0  0  0  0
 28 47  1  0  0  0  0
M  END
>  <minimizedAffinity>
-9.07439

$$$$
