L2:Q8NER1:125391
     RDKit          3D

 47 49  0  0  0  0  0  0  0  0999 V2000
    2.5785   -0.6677   -0.6229 O   0  0  0  0  0  0  0  0  0  0  0  0
    2.1273    0.1171    0.1953 C   0  0  0  0  0  0  0  0  0  0  0  0
    0.8097    0.3650    0.4100 N   0  0  0  0  0  0  0  0  0  0  0  0
   -0.3774   -0.2146   -0.2500 C   0  0  0  0  0  0  0  0  0  0  0  0
   -1.5675    0.5189    0.4892 C   0  0  0  0  0  0  0  0  0  0  0  0
   -1.3283    1.3426    1.3757 O   0  0  0  0  0  0  0  0  0  0  0  0
   -2.8368    0.1600    0.0610 N   0  0  0  0  0  0  0  0  0  0  0  0
   -4.0768    0.6428    0.5305 C   0  0  0  0  0  0  0  0  0  0  0  0
   -4.2183    1.5967    1.5406 C   0  0  0  0  0  0  0  0  0  0  0  0
   -5.4896    2.0208    1.9463 C   0  0  0  0  0  0  0  0  0  0  0  0
   -6.6252    1.4907    1.3415 C   0  0  0  0  0  0  0  0  0  0  0  0
   -8.3398    2.0640    1.8901 Br  0  0  0  0  0  0  0  0  0  0  0  0
   -6.5022    0.5395    0.3336 C   0  0  0  0  0  0  0  0  0  0  0  0
   -5.2310    0.1182   -0.0692 C   0  0  0  0  0  0  0  0  0  0  0  0
   -0.4345    0.1668   -1.7495 C   0  0  0  0  0  0  0  0  0  0  0  0
    0.2252   -0.8199   -2.7087 C   0  0  0  0  0  0  0  0  0  0  0  0
   -0.1805   -2.2563   -2.4200 C   0  0  0  0  0  0  0  0  0  0  0  0
    0.1626   -2.6504   -0.9924 C   0  0  0  0  0  0  0  0  0  0  0  0
   -0.4985   -1.7322    0.0317 C   0  0  0  0  0  0  0  0  0  0  0  0
    2.8716    0.9035    1.0617 O   0  0  0  0  0  0  0  0  0  0  0  0
    4.2556    0.7540    0.9336 C   0  0  0  0  0  0  0  0  0  0  0  0
    4.9301    1.3467   -0.1329 C   0  0  0  0  0  0  0  0  0  0  0  0
    6.3172    1.2279   -0.2098 C   0  0  0  0  0  0  0  0  0  0  0  0
    7.0154    0.5348    0.7821 C   0  0  0  0  0  0  0  0  0  0  0  0
    6.3297   -0.0381    1.8561 C   0  0  0  0  0  0  0  0  0  0  0  0
    4.9426    0.0764    1.9386 C   0  0  0  0  0  0  0  0  0  0  0  0
    0.6176    1.0529    1.1357 H   0  0  0  0  0  0  0  0  0  0  0  0
   -2.8959   -0.5308   -0.6766 H   0  0  0  0  0  0  0  0  0  0  0  0
   -3.3608    2.0368    2.0395 H   0  0  0  0  0  0  0  0  0  0  0  0
   -5.5752    2.7644    2.7346 H   0  0  0  0  0  0  0  0  0  0  0  0
   -7.3840    0.1206   -0.1439 H   0  0  0  0  0  0  0  0  0  0  0  0
   -5.1617   -0.6259   -0.8587 H   0  0  0  0  0  0  0  0  0  0  0  0
   -1.4759    0.2652   -2.0789 H   0  0  0  0  0  0  0  0  0  0  0  0
    0.0048    1.1614   -1.9025 H   0  0  0  0  0  0  0  0  0  0  0  0
    1.3137   -0.7231   -2.6688 H   0  0  0  0  0  0  0  0  0  0  0  0
   -0.0591   -0.5636   -3.7365 H   0  0  0  0  0  0  0  0  0  0  0  0
   -1.2577   -2.3772   -2.5883 H   0  0  0  0  0  0  0  0  0  0  0  0
    0.3289   -2.9292   -3.1191 H   0  0  0  0  0  0  0  0  0  0  0  0
   -0.1663   -3.6813   -0.8131 H   0  0  0  0  0  0  0  0  0  0  0  0
    1.2475   -2.6572   -0.8565 H   0  0  0  0  0  0  0  0  0  0  0  0
   -1.5533   -2.0295    0.0743 H   0  0  0  0  0  0  0  0  0  0  0  0
   -0.1000   -1.9635    1.0284 H   0  0  0  0  0  0  0  0  0  0  0  0
    4.3841    1.8877   -0.8992 H   0  0  0  0  0  0  0  0  0  0  0  0
    6.8550    1.6745   -1.0418 H   0  0  0  0  0  0  0  0  0  0  0  0
    8.0968    0.4426    0.7189 H   0  0  0  0  0  0  0  0  0  0  0  0
    6.8777   -0.5720    2.6278 H   0  0  0  0  0  0  0  0  0  0  0  0
    4.4051   -0.3602    2.7744 H   0  0  0  0  0  0  0  0  0  0  0  0
  1  2  2  0
  2  3  1  0
  3  4  1  0
  4  5  1  0
  5  6  2  0
  5  7  1  0
  7  8  1  0
  8  9  2  0
  9 10  1  0
 10 11  2  0
 11 12  1  0
 11 13  1  0
 13 14  2  0
  4 15  1  0
 15 16  1  0
 16 17  1  0
 17 18  1  0
 18 19  1  0
  2 20  1  0
 20 21  1  0
 21 22  2  0
 22 23  1  0
 23 24  2  0
 24 25  1  0
 25 26  2  0
 19  4  1  0
 26 21  1  0
 14  8  1  0
  3 27  1  0
  7 28  1  0
  9 29  1  0
 10 30  1  0
 13 31  1  0
 14 32  1  0
 15 33  1  0
 15 34  1  0
 16 35  1  0
 16 36  1  0
 17 37  1  0
 17 38  1  0
 18 39  1  0
 18 40  1  0
 19 41  1  0
 19 42  1  0
 22 43  1  0
 23 44  1  0
 24 45  1  0
 25 46  1  0
 26 47  1  0
M  END
>  <mol_id>  (1) 
125391

>  <source_index>  (1) 
6

>  <layer>  (1) 
L2

>  <uniprot>  (1) 
Q8NER1

>  <paff>  (1) 
6.3497000000000003

>  <smiles>  (1) 
O=C(NC1(C(=O)Nc2ccc(Br)cc2)CCCCC1)Oc1ccccc1

$$$$
