L2:Q8NER1:125391


 28 30  0  0  0  0  0  0  0  0999 V2000
  142.2975  150.8222  172.5595 C   0  0  0  0  0  0  0  0  0  0  0  0
  141.2663  149.7678  172.0881 C   0  0  0  0  0  0  0  0  0  0  0  0
  140.9460  148.6619  173.0898 C   0  0  0  0  0  0  0  0  0  0  0  0
  140.6767  149.2113  174.4815 C   0  0  0  0  0  0  0  0  0  0  0  0
  141.8595  150.0162  174.9955 C   0  0  0  0  0  0  0  0  0  0  0  0
  142.2152  151.1725  174.0653 C   0  0  0  0  0  0  0  0  0  0  0  0
  145.0036  151.8321  173.4190 O   0  0  0  0  0  0  0  0  0  0  0  0
  144.8598  150.9459  172.5926 C   0  0  0  0  0  0  0  0  0  0  0  0
  143.6707  150.4488  172.1652 N   0  0  0  0  0  0  0  0  0  0  0  0
  143.7428  149.7096  171.4687 H   0  0  0  0  0  0  0  0  0  0  0  0
  145.8804  150.2790  171.9319 O   0  0  0  0  0  0  0  0  0  0  0  0
  145.9006  148.8975  172.1446 C   0  0  0  0  0  0  0  0  0  0  0  0
  145.6481  148.3786  173.4137 C   0  0  0  0  0  0  0  0  0  0  0  0
  145.6214  146.9957  173.5893 C   0  0  0  0  0  0  0  0  0  0  0  0
  145.8310  146.1484  172.4985 C   0  0  0  0  0  0  0  0  0  0  0  0
  146.0638  146.6808  171.2280 C   0  0  0  0  0  0  0  0  0  0  0  0
  146.0925  148.0628  171.0456 C   0  0  0  0  0  0  0  0  0  0  0  0
  142.0568  152.1485  171.7326 C   0  0  0  0  0  0  0  0  0  0  0  0
  141.4673  152.1017  170.6500 O   0  0  0  0  0  0  0  0  0  0  0  0
  142.5497  153.3050  172.3183 N   0  0  0  0  0  0  0  0  0  0  0  0
  143.0156  153.2063  173.2116 H   0  0  0  0  0  0  0  0  0  0  0  0
  142.4836  154.6232  171.8193 C   0  0  0  0  0  0  0  0  0  0  0  0
  143.2721  155.1093  170.7743 C   0  0  0  0  0  0  0  0  0  0  0  0
  143.1414  156.4343  170.3406 C   0  0  0  0  0  0  0  0  0  0  0  0
  142.2198  157.2784  170.9526 C   0  0  0  0  0  0  0  0  0  0  0  0
  142.0447  159.0659  170.3663 Br  0  0  0  0  0  0  0  0  0  0  0  0
  141.4263  156.8103  171.9952 C   0  0  0  0  0  0  0  0  0  0  0  0
  141.5594  155.4864  172.4257 C   0  0  0  0  0  0  0  0  0  0  0  0
  7  8  2  0  0  0
  8  9  1  0  0  0
  9  1  1  0  0  0
  1 18  1  0  0  0
 18 19  2  0  0  0
 18 20  1  0  0  0
 20 22  1  0  0  0
 22 23  2  0  0  0
 23 24  1  0  0  0
 24 25  2  0  0  0
 25 26  1  0  0  0
 25 27  1  0  0  0
 27 28  2  0  0  0
  1  2  1  0  0  0
  2  3  1  0  0  0
  3  4  1  0  0  0
  4  5  1  0  0  0
  5  6  1  0  0  0
  8 11  1  0  0  0
 11 12  1  0  0  0
 12 13  2  0  0  0
 13 14  1  0  0  0
 14 15  2  0  0  0
 15 16  1  0  0  0
 16 17  2  0  0  0
  6  1  1  0  0  0
 17 12  1  0  0  0
 28 22  1  0  0  0
  9 10  1  0  0  0
 20 21  1  0  0  0
M  END
> <minimizedAffinity>
-9.07439

$$$$
