L2:Q8NER1:131041
 OpenBabel09212617533D

 47 50  0  0  0  0  0  0  0  0999 V2000
  145.6371  147.5340  173.6637 C   0  0  0  0  0  0  0  0  0  0  0  0
  145.8135  148.9988  173.5793 C   0  0  0  0  0  0  0  0  0  0  0  0
  146.9578  149.5854  174.0773 N   0  0  0  0  0  0  0  0  0  0  0  0
  146.8026  150.8683  173.8352 C   0  0  0  0  0  0  0  0  0  0  0  0
  145.6396  151.1680  173.1886 O   0  0  0  0  0  0  0  0  0  0  0  0
  144.9935  149.9695  173.0347 C   0  0  0  0  0  0  0  0  0  0  0  0
  143.6928  150.0254  172.3800 C   0  0  0  0  0  0  0  0  0  0  0  0
  143.4056  149.2314  171.2623 C   0  0  0  0  0  0  0  0  0  0  0  0
  142.1533  149.2928  170.6386 C   0  0  0  0  0  0  0  0  0  0  0  0
  141.1533  150.1462  171.1243 C   0  0  0  0  0  0  0  0  0  0  0  0
  141.4370  150.9460  172.2385 C   0  0  0  0  0  0  0  0  0  0  0  0
  142.6891  150.8812  172.8594 C   0  0  0  0  0  0  0  0  0  0  0  0
  139.8116  150.2286  170.4383 C   0  0  0  0  0  0  0  0  0  0  0  0
  139.8644  149.9041  169.1161 F   0  0  0  0  0  0  0  0  0  0  0  0
  139.2604  151.4736  170.4924 F   0  0  0  0  0  0  0  0  0  0  0  0
  138.8946  149.3897  170.9936 F   0  0  0  0  0  0  0  0  0  0  0  0
  147.6849  151.8452  174.1060 N   0  0  0  0  0  0  0  0  0  0  0  0
  147.3796  152.7710  173.8388 H   0  0  0  0  0  0  0  0  0  0  0  0
  148.9910  151.7783  174.6333 C   0  0  0  0  0  0  0  0  0  0  0  0
  149.2412  151.3446  175.9445 C   0  0  0  0  0  0  0  0  0  0  0  0
  150.5346  151.2965  176.4629 C   0  0  0  0  0  0  0  0  0  0  0  0
  151.6115  151.6852  175.6773 C   0  0  0  0  0  0  0  0  0  0  0  0
  151.4081  152.1286  174.3644 C   0  0  0  0  0  0  0  0  0  0  0  0
  150.0937  152.2051  173.8454 C   0  0  0  0  0  0  0  0  0  0  0  0
  149.8731  152.7064  172.4307 C   0  0  0  0  0  0  0  0  0  0  0  0
  151.0678  153.4453  171.8246 C   0  0  2  0  0  0  0  0  0  0  0  0
  150.8598  153.5882  170.4208 O   0  0  0  0  0  0  0  0  0  0  0  0
  152.3511  152.6680  172.0740 C   0  0  0  0  0  0  0  0  0  0  0  0
  152.6146  152.5677  173.5696 C   0  0  0  0  0  0  0  0  0  0  0  0
  151.6152  154.0845  170.0614 H   0  0  0  0  0  0  0  0  0  0  0  0
  146.4822  147.1008  174.1567 H   0  0  0  0  0  0  0  0  0  0  0  0
  145.5524  147.1275  172.6775 H   0  0  0  0  0  0  0  0  0  0  0  0
  144.7489  147.3131  174.2180 H   0  0  0  0  0  0  0  0  0  0  0  0
  144.1270  148.5923  170.8933 H   0  0  0  0  0  0  0  0  0  0  0  0
  141.9648  148.7035  169.8127 H   0  0  0  0  0  0  0  0  0  0  0  0
  140.7168  151.5882  172.6044 H   0  0  0  0  0  0  0  0  0  0  0  0
  142.8778  151.4727  173.6838 H   0  0  0  0  0  0  0  0  0  0  0  0
  148.4491  151.0544  176.5390 H   0  0  0  0  0  0  0  0  0  0  0  0
  150.6915  150.9722  177.4300 H   0  0  0  0  0  0  0  0  0  0  0  0
  152.5679  151.6471  176.0632 H   0  0  0  0  0  0  0  0  0  0  0  0
  149.0370  153.3740  172.4395 H   0  0  0  0  0  0  0  0  0  0  0  0
  149.7115  151.8405  171.8233 H   0  0  0  0  0  0  0  0  0  0  0  0
  151.1572  154.4086  172.2816 H   0  0  0  0  0  0  0  0  0  0  0  0
  153.1686  153.1726  171.6029 H   0  0  0  0  0  0  0  0  0  0  0  0
  152.2508  151.6833  171.6675 H   0  0  0  0  0  0  0  0  0  0  0  0
  152.9228  153.5289  173.9246 H   0  0  0  0  0  0  0  0  0  0  0  0
  153.3708  151.8233  173.7073 H   0  0  0  0  0  0  0  0  0  0  0  0
  1  2  1  0  0  0  0
  1 31  1  0  0  0  0
  1 32  1  0  0  0  0
  1 33  1  0  0  0  0
  2  3  1  0  0  0  0
  3  4  2  0  0  0  0
  4 17  1  0  0  0  0
  4  5  1  0  0  0  0
  5  6  1  0  0  0  0
  6  7  1  0  0  0  0
  6  2  2  0  0  0  0
  7  8  2  0  0  0  0
  8  9  1  0  0  0  0
  8 34  1  0  0  0  0
  9 10  2  0  0  0  0
  9 35  1  0  0  0  0
 10 13  1  0  0  0  0
 10 11  1  0  0  0  0
 11 12  2  0  0  0  0
 11 36  1  0  0  0  0
 12  7  1  0  0  0  0
 12 37  1  0  0  0  0
 13 14  1  0  0  0  0
 13 15  1  0  0  0  0
 13 16  1  0  0  0  0
 17 19  1  0  0  0  0
 17 18  1  0  0  0  0
 19 20  2  0  0  0  0
 20 21  1  0  0  0  0
 20 38  1  0  0  0  0
 21 22  2  0  0  0  0
 21 39  1  0  0  0  0
 22 23  1  0  0  0  0
 22 40  1  0  0  0  0
 23 24  2  0  0  0  0
 24 25  1  0  0  0  0
 24 19  1  0  0  0  0
 25 26  1  0  0  0  0
 25 41  1  0  0  0  0
 25 42  1  0  0  0  0
 26 27  1  0  0  0  0
 26 28  1  0  0  0  0
 26 43  1  1  0  0  0
 27 30  1  0  0  0  0
 28 29  1  0  0  0  0
 28 44  1  0  0  0  0
 28 45  1  0  0  0  0
 29 23  1  0  0  0  0
 29 46  1  0  0  0  0
 29 47  1  0  0  0  0
M  END
>  <minimizedAffinity>
-9.98308

$$$$
