L2:Q8NER1:132261
     RDKit          3D

 61 64  0  0  0  0  0  0  0  0999 V2000
    0.1856   -0.9081    0.9571 O   0  0  0  0  0  0  0  0  0  0  0  0
    0.4668   -1.9683    0.4118 C   0  0  0  0  0  0  0  0  0  0  0  0
    1.7447   -2.3802    0.1671 N   0  0  0  0  0  0  0  0  0  0  0  0
    2.8814   -1.5319    0.4805 C   0  0  0  0  0  0  0  0  0  0  0  0
    3.1257   -0.4887   -0.6130 C   0  0  0  0  0  0  0  0  0  0  0  0
    4.1739    0.5047   -0.2307 C   0  0  0  0  0  0  0  0  0  0  0  0
    5.5167    0.4589   -0.5500 C   0  0  0  0  0  0  0  0  0  0  0  0
    6.1211    1.5680   -0.0204 N   0  0  0  0  0  0  0  0  0  0  0  0
    5.1994    2.3430    0.6435 C   0  0  0  0  0  0  0  0  0  0  0  0
    5.3607    3.5554    1.3248 C   0  0  0  0  0  0  0  0  0  0  0  0
    4.2254    4.1269    1.9079 C   0  0  0  0  0  0  0  0  0  0  0  0
    2.9816    3.5069    1.8157 C   0  0  0  0  0  0  0  0  0  0  0  0
    2.8395    2.2929    1.1348 C   0  0  0  0  0  0  0  0  0  0  0  0
    3.9676    1.6992    0.5319 C   0  0  0  0  0  0  0  0  0  0  0  0
   -0.4635   -2.8396   -0.0709 N   0  0  0  0  0  0  0  0  0  0  0  0
   -1.9407   -2.6950    0.0392 C   0  0  0  0  0  0  0  0  0  0  0  0
   -2.3939   -1.5578   -0.9562 C   0  0  0  0  0  0  0  0  0  0  0  0
   -3.1477   -1.7901   -1.8995 O   0  0  0  0  0  0  0  0  0  0  0  0
   -1.8789   -0.3102   -0.6461 N   0  0  0  0  0  0  0  0  0  0  0  0
   -2.1053    0.9206   -1.2870 C   0  0  0  0  0  0  0  0  0  0  0  0
   -2.9929    1.1028   -2.3461 C   0  0  0  0  0  0  0  0  0  0  0  0
   -3.1525    2.3651   -2.9250 C   0  0  0  0  0  0  0  0  0  0  0  0
   -2.4272    3.4557   -2.4469 C   0  0  0  0  0  0  0  0  0  0  0  0
   -1.5366    3.2973   -1.3770 C   0  0  0  0  0  0  0  0  0  0  0  0
   -0.7347    4.4687   -0.8696 C   0  0  0  0  0  0  0  0  0  0  0  0
   -1.4471    5.6309   -0.8577 F   0  0  0  0  0  0  0  0  0  0  0  0
    0.3655    4.7147   -1.6320 F   0  0  0  0  0  0  0  0  0  0  0  0
   -0.2808    4.3030    0.4048 F   0  0  0  0  0  0  0  0  0  0  0  0
   -1.3809    2.0217   -0.8095 C   0  0  0  0  0  0  0  0  0  0  0  0
   -2.5534   -4.0663   -0.3810 C   0  0  0  0  0  0  0  0  0  0  0  0
   -3.8636   -4.4382    0.3221 C   0  0  0  0  0  0  0  0  0  0  0  0
   -4.6889   -3.2249    0.7108 C   0  0  0  0  0  0  0  0  0  0  0  0
   -3.9165   -2.2854    1.6319 C   0  0  0  0  0  0  0  0  0  0  0  0
   -2.3938   -2.3767    1.4818 C   0  0  0  0  0  0  0  0  0  0  0  0
    1.9137   -3.3127   -0.1770 H   0  0  0  0  0  0  0  0  0  0  0  0
    2.7014   -1.0502    1.4489 H   0  0  0  0  0  0  0  0  0  0  0  0
    3.7552   -2.1835    0.5918 H   0  0  0  0  0  0  0  0  0  0  0  0
    2.1944    0.0439   -0.8445 H   0  0  0  0  0  0  0  0  0  0  0  0
    3.4153   -0.9967   -1.5419 H   0  0  0  0  0  0  0  0  0  0  0  0
    6.0919   -0.2625   -1.1149 H   0  0  0  0  0  0  0  0  0  0  0  0
    7.1016    1.7958   -0.1070 H   0  0  0  0  0  0  0  0  0  0  0  0
    6.3273    4.0424    1.3981 H   0  0  0  0  0  0  0  0  0  0  0  0
    4.3150    5.0709    2.4403 H   0  0  0  0  0  0  0  0  0  0  0  0
    2.1098    3.9687    2.2733 H   0  0  0  0  0  0  0  0  0  0  0  0
    1.8657    1.8157    1.0730 H   0  0  0  0  0  0  0  0  0  0  0  0
   -0.1287   -3.5192   -0.7372 H   0  0  0  0  0  0  0  0  0  0  0  0
   -1.2040   -0.2911    0.1214 H   0  0  0  0  0  0  0  0  0  0  0  0
   -3.5791    0.2815   -2.7460 H   0  0  0  0  0  0  0  0  0  0  0  0
   -3.8461    2.4924   -3.7529 H   0  0  0  0  0  0  0  0  0  0  0  0
   -2.5603    4.4317   -2.9113 H   0  0  0  0  0  0  0  0  0  0  0  0
   -0.6795    1.8916    0.0146 H   0  0  0  0  0  0  0  0  0  0  0  0
   -1.8431   -4.8779   -0.1688 H   0  0  0  0  0  0  0  0  0  0  0  0
   -2.7030   -4.1065   -1.4670 H   0  0  0  0  0  0  0  0  0  0  0  0
   -3.6334   -5.0158    1.2267 H   0  0  0  0  0  0  0  0  0  0  0  0
   -4.4494   -5.1019   -0.3243 H   0  0  0  0  0  0  0  0  0  0  0  0
   -5.6158   -3.5407    1.2035 H   0  0  0  0  0  0  0  0  0  0  0  0
   -4.9955   -2.6869   -0.1937 H   0  0  0  0  0  0  0  0  0  0  0  0
   -4.2486   -1.2567    1.4451 H   0  0  0  0  0  0  0  0  0  0  0  0
   -4.1746   -2.4999    2.6764 H   0  0  0  0  0  0  0  0  0  0  0  0
   -1.9688   -1.4442    1.8659 H   0  0  0  0  0  0  0  0  0  0  0  0
   -2.0179   -3.1635    2.1507 H   0  0  0  0  0  0  0  0  0  0  0  0
  1  2  2  0
  2  3  1  0
  3  4  1  0
  4  5  1  0
  5  6  1  0
  6  7  2  0
  7  8  1  0
  8  9  1  0
  9 10  2  0
 10 11  1  0
 11 12  2  0
 12 13  1  0
 13 14  2  0
  2 15  1  0
 15 16  1  0
 16 17  1  0
 17 18  2  0
 17 19  1  0
 19 20  1  0
 20 21  2  0
 21 22  1  0
 22 23  2  0
 23 24  1  0
 24 25  1  0
 25 26  1  0
 25 27  1  0
 25 28  1  0
 24 29  2  0
 16 30  1  0
 30 31  1  0
 31 32  1  0
 32 33  1  0
 33 34  1  0
 14  6  1  0
 34 16  1  0
 14  9  1  0
 29 20  1  0
  3 35  1  0
  4 36  1  0
  4 37  1  0
  5 38  1  0
  5 39  1  0
  7 40  1  0
  8 41  1  0
 10 42  1  0
 11 43  1  0
 12 44  1  0
 13 45  1  0
 15 46  1  0
 19 47  1  0
 21 48  1  0
 22 49  1  0
 23 50  1  0
 29 51  1  0
 30 52  1  0
 30 53  1  0
 31 54  1  0
 31 55  1  0
 32 56  1  0
 32 57  1  0
 33 58  1  0
 33 59  1  0
 34 60  1  0
 34 61  1  0
M  END
>  <mol_id>  (1) 
132261

>  <source_index>  (1) 
8

>  <layer>  (1) 
L2

>  <uniprot>  (1) 
Q8NER1

>  <paff>  (1) 
6.202

>  <smiles>  (1) 
O=C(NCCc1c[nH]c2ccccc12)NC1(C(=O)Nc2cccc(C(F)(F)F)c2)CCCCC1

$$$$
