L2:Q8NER1:140296


 36 39  0  0  0  0  0  0  0  0999 V2000
  140.0178  149.8347  174.0691 N   0  0  0  0  0  0  0  0  0  0  0  0
  139.7986  150.2912  172.8039 C   0  0  0  0  0  0  0  0  0  0  0  0
  140.4359  149.9278  171.8237 O   0  0  0  0  0  0  0  0  0  0  0  0
  138.8006  151.2177  172.7551 N   0  0  0  0  0  0  0  0  0  0  0  0
  139.3591  150.0625  174.7998 H   0  0  0  0  0  0  0  0  0  0  0  0
  138.5355  151.6282  173.6387 H   0  0  0  0  0  0  0  0  0  0  0  0
  138.2919  151.8945  171.5324 C   0  0  0  0  0  0  0  0  0  0  0  0
  136.8560  152.3803  171.8737 C   0  0  0  0  0  0  0  0  0  0  0  0
  136.0555  152.8951  170.6780 C   0  0  0  0  0  0  0  0  0  0  0  0
  136.0335  151.8884  169.5384 C   0  0  0  0  0  0  0  0  0  0  0  0
  137.4451  151.4897  169.1367 C   0  0  0  0  0  0  0  0  0  0  0  0
  138.2313  150.9297  170.3213 C   0  0  0  0  0  0  0  0  0  0  0  0
  139.2270  153.1246  171.2400 C   0  0  0  0  0  0  0  0  0  0  0  0
  138.8273  154.2789  171.3815 O   0  0  0  0  0  0  0  0  0  0  0  0
  140.4981  152.7723  170.8177 N   0  0  0  0  0  0  0  0  0  0  0  0
  140.7156  151.7745  170.8442 H   0  0  0  0  0  0  0  0  0  0  0  0
  141.5505  153.6148  170.4132 C   0  0  0  0  0  0  0  0  0  0  0  0
  141.8728  153.8856  169.0829 C   0  0  0  0  0  0  0  0  0  0  0  0
  142.9417  154.7330  168.7719 C   0  0  0  0  0  0  0  0  0  0  0  0
  143.6967  155.3144  169.7881 C   0  0  0  0  0  0  0  0  0  0  0  0
  143.3845  155.0489  171.1184 C   0  0  0  0  0  0  0  0  0  0  0  0
  142.3170  154.2026  171.4284 C   0  0  0  0  0  0  0  0  0  0  0  0
  141.0346  148.8427  174.3708 C   0  0  0  0  0  0  0  0  0  0  0  0
  142.3466  149.4748  174.8465 C   0  0  0  0  0  0  0  0  0  0  0  0
  145.2632  146.7978  172.2986 C   0  0  0  0  0  0  0  0  0  0  0  0
  145.9671  147.5456  171.3538 C   0  0  0  0  0  0  0  0  0  0  0  0
  145.7736  148.9235  171.2157 C   0  0  0  0  0  0  0  0  0  0  0  0
  144.8462  149.5309  172.0668 C   0  0  0  0  0  0  0  0  0  0  0  0
  144.4521  150.8452  172.1506 N   0  0  0  0  0  0  0  0  0  0  0  0
  143.5195  150.9970  173.1403 C   0  0  0  0  0  0  0  0  0  0  0  0
  143.2895  149.7616  173.7152 C   0  0  0  0  0  0  0  0  0  0  0  0
  144.1266  148.8220  173.0280 C   0  0  0  0  0  0  0  0  0  0  0  0
  144.3409  147.4287  173.1424 C   0  0  0  0  0  0  0  0  0  0  0  0
  144.8046  151.5873  171.5619 H   0  0  0  0  0  0  0  0  0  0  0  0
  146.7258  145.0665  171.5804 C   0  0  0  0  0  0  0  0  0  0  0  0
  145.5660  145.4618  172.3007 O   0  0  0  0  0  0  0  0  0  0  0  0
 35 36  1  0  0  0
 36 25  1  0  0  0
 25 26  2  0  0  0
 26 27  1  0  0  0
 27 28  2  0  0  0
 28 29  1  0  0  0
 29 30  1  0  0  0
 30 31  2  0  0  0
 31 24  1  0  0  0
 24 23  1  0  0  0
 23  1  1  0  0  0
  1  2  1  0  0  0
  2  3  2  0  0  0
  2  4  1  0  0  0
  4  7  1  0  0  0
  7 13  1  0  0  0
 13 14  2  0  0  0
 13 15  1  0  0  0
 15 17  1  0  0  0
 17 18  2  0  0  0
 18 19  1  0  0  0
 19 20  2  0  0  0
 20 21  1  0  0  0
 21 22  2  0  0  0
  7  8  1  0  0  0
  8  9  1  0  0  0
  9 10  1  0  0  0
 10 11  1  0  0  0
 11 12  1  0  0  0
 31 32  1  0  0  0
 32 33  2  0  0  0
 33 25  1  0  0  0
 32 28  1  0  0  0
 12  7  1  0  0  0
 22 17  1  0  0  0
 29 34  1  0  0  0
  1  5  1  0  0  0
  4  6  1  0  0  0
 15 16  1  0  0  0
M  END
> <minimizedAffinity>
-9.71959

$$$$
