L2:Q8NER1:140296
     RDKit          3D

 62 65  0  0  0  0  0  0  0  0999 V2000
    3.5810    1.9772    0.1483 C   0  0  0  0  0  0  0  0  0  0  0  0
    4.5151    1.4064   -0.7583 O   0  0  0  0  0  0  0  0  0  0  0  0
    4.5019    0.0421   -0.8812 C   0  0  0  0  0  0  0  0  0  0  0  0
    5.4734   -0.4671   -1.7438 C   0  0  0  0  0  0  0  0  0  0  0  0
    5.6005   -1.8397   -1.9783 C   0  0  0  0  0  0  0  0  0  0  0  0
    4.7105   -2.6900   -1.3163 C   0  0  0  0  0  0  0  0  0  0  0  0
    4.6077   -4.0605   -1.3491 N   0  0  0  0  0  0  0  0  0  0  0  0
    3.5800   -4.4768   -0.5475 C   0  0  0  0  0  0  0  0  0  0  0  0
    2.9986   -3.3635    0.0288 C   0  0  0  0  0  0  0  0  0  0  0  0
    1.8298   -3.3636    0.9697 C   0  0  0  0  0  0  0  0  0  0  0  0
    0.4862   -3.3023    0.2362 C   0  0  0  0  0  0  0  0  0  0  0  0
    0.2701   -2.0254   -0.4209 N   0  0  0  0  0  0  0  0  0  0  0  0
   -0.3453   -0.9810    0.2017 C   0  0  0  0  0  0  0  0  0  0  0  0
   -0.7801   -1.0242    1.3454 O   0  0  0  0  0  0  0  0  0  0  0  0
   -0.4422    0.1148   -0.6025 N   0  0  0  0  0  0  0  0  0  0  0  0
   -1.0319    1.4277   -0.2277 C   0  0  0  0  0  0  0  0  0  0  0  0
   -2.5964    1.2694   -0.2285 C   0  0  0  0  0  0  0  0  0  0  0  0
   -3.3018    1.8973   -1.0162 O   0  0  0  0  0  0  0  0  0  0  0  0
   -3.0687    0.3818    0.7240 N   0  0  0  0  0  0  0  0  0  0  0  0
   -4.4033    0.0598    1.0344 C   0  0  0  0  0  0  0  0  0  0  0  0
   -5.5144    0.6642    0.4452 C   0  0  0  0  0  0  0  0  0  0  0  0
   -6.8080    0.2848    0.8193 C   0  0  0  0  0  0  0  0  0  0  0  0
   -7.0002   -0.7000    1.7857 C   0  0  0  0  0  0  0  0  0  0  0  0
   -5.8982   -1.3075    2.3809 C   0  0  0  0  0  0  0  0  0  0  0  0
   -4.6066   -0.9283    2.0070 C   0  0  0  0  0  0  0  0  0  0  0  0
   -0.5926    2.4290   -1.3317 C   0  0  0  0  0  0  0  0  0  0  0  0
   -0.8908    3.8948   -1.0188 C   0  0  0  0  0  0  0  0  0  0  0  0
   -0.3413    4.3050    0.3386 C   0  0  0  0  0  0  0  0  0  0  0  0
   -0.8539    3.3836    1.4345 C   0  0  0  0  0  0  0  0  0  0  0  0
   -0.5141    1.9218    1.1467 C   0  0  0  0  0  0  0  0  0  0  0  0
    3.7218   -2.2224   -0.4514 C   0  0  0  0  0  0  0  0  0  0  0  0
    3.6193   -0.8291   -0.2311 C   0  0  0  0  0  0  0  0  0  0  0  0
    3.7440    1.6146    1.1685 H   0  0  0  0  0  0  0  0  0  0  0  0
    2.5552    1.7886   -0.1809 H   0  0  0  0  0  0  0  0  0  0  0  0
    3.7350    3.0606    0.1509 H   0  0  0  0  0  0  0  0  0  0  0  0
    6.1537    0.2200   -2.2429 H   0  0  0  0  0  0  0  0  0  0  0  0
    6.3654   -2.2204   -2.6469 H   0  0  0  0  0  0  0  0  0  0  0  0
    5.2090   -4.6669   -1.8897 H   0  0  0  0  0  0  0  0  0  0  0  0
    3.3497   -5.5300   -0.4531 H   0  0  0  0  0  0  0  0  0  0  0  0
    1.9181   -2.5265    1.6726 H   0  0  0  0  0  0  0  0  0  0  0  0
    1.8620   -4.2814    1.5703 H   0  0  0  0  0  0  0  0  0  0  0  0
   -0.3267   -3.4751    0.9503 H   0  0  0  0  0  0  0  0  0  0  0  0
    0.4251   -4.0753   -0.5377 H   0  0  0  0  0  0  0  0  0  0  0  0
    0.7357   -1.8722   -1.3038 H   0  0  0  0  0  0  0  0  0  0  0  0
   -0.2961   -0.0467   -1.5885 H   0  0  0  0  0  0  0  0  0  0  0  0
   -2.3568   -0.1396    1.2387 H   0  0  0  0  0  0  0  0  0  0  0  0
   -5.4104    1.4381   -0.3080 H   0  0  0  0  0  0  0  0  0  0  0  0
   -7.6646    0.7636    0.3519 H   0  0  0  0  0  0  0  0  0  0  0  0
   -8.0066   -0.9917    2.0734 H   0  0  0  0  0  0  0  0  0  0  0  0
   -6.0410   -2.0761    3.1356 H   0  0  0  0  0  0  0  0  0  0  0  0
   -3.7594   -1.4167    2.4834 H   0  0  0  0  0  0  0  0  0  0  0  0
    0.4905    2.3322   -1.4908 H   0  0  0  0  0  0  0  0  0  0  0  0
   -1.0565    2.1682   -2.2920 H   0  0  0  0  0  0  0  0  0  0  0  0
   -1.9710    4.0763   -1.0448 H   0  0  0  0  0  0  0  0  0  0  0  0
   -0.4510    4.5288   -1.7974 H   0  0  0  0  0  0  0  0  0  0  0  0
   -0.6306    5.3388    0.5578 H   0  0  0  0  0  0  0  0  0  0  0  0
    0.7551    4.2771    0.3162 H   0  0  0  0  0  0  0  0  0  0  0  0
   -0.4115    3.6773    2.3935 H   0  0  0  0  0  0  0  0  0  0  0  0
   -1.9396    3.4988    1.5385 H   0  0  0  0  0  0  0  0  0  0  0  0
    0.5759    1.8009    1.1882 H   0  0  0  0  0  0  0  0  0  0  0  0
   -0.9122    1.3258    1.9740 H   0  0  0  0  0  0  0  0  0  0  0  0
    2.8537   -0.4694    0.4458 H   0  0  0  0  0  0  0  0  0  0  0  0
  1  2  1  0
  2  3  1  0
  3  4  2  0
  4  5  1  0
  5  6  2  0
  6  7  1  0
  7  8  1  0
  8  9  2  0
  9 10  1  0
 10 11  1  0
 11 12  1  0
 12 13  1  0
 13 14  2  0
 13 15  1  0
 15 16  1  0
 16 17  1  0
 17 18  2  0
 17 19  1  0
 19 20  1  0
 20 21  2  0
 21 22  1  0
 22 23  2  0
 23 24  1  0
 24 25  2  0
 16 26  1  0
 26 27  1  0
 27 28  1  0
 28 29  1  0
 29 30  1  0
  9 31  1  0
 31 32  2  0
 32  3  1  0
 31  6  1  0
 30 16  1  0
 25 20  1  0
  1 33  1  0
  1 34  1  0
  1 35  1  0
  4 36  1  0
  5 37  1  0
  7 38  1  0
  8 39  1  0
 10 40  1  0
 10 41  1  0
 11 42  1  0
 11 43  1  0
 12 44  1  0
 15 45  1  0
 19 46  1  0
 21 47  1  0
 22 48  1  0
 23 49  1  0
 24 50  1  0
 25 51  1  0
 26 52  1  0
 26 53  1  0
 27 54  1  0
 27 55  1  0
 28 56  1  0
 28 57  1  0
 29 58  1  0
 29 59  1  0
 30 60  1  0
 30 61  1  0
 32 62  1  0
M  END
>  <mol_id>  (1) 
140296

>  <source_index>  (1) 
9

>  <layer>  (1) 
L2

>  <uniprot>  (1) 
Q8NER1

>  <paff>  (1) 
6.9393000000000002

>  <smiles>  (1) 
COc1ccc2[nH]cc(CCNC(=O)NC3(C(=O)Nc4ccccc4)CCCCC3)c2c1

$$$$
