L2:Q8NER1:27152
     RDKit          3D

 61 64  0  0  0  0  0  0  0  0999 V2000
    7.6853    1.7149   -1.9838 C   0  0  0  0  0  0  0  0  0  0  0  0
    6.4916    1.9602   -1.2514 O   0  0  0  0  0  0  0  0  0  0  0  0
    5.9671    0.9084   -0.5481 C   0  0  0  0  0  0  0  0  0  0  0  0
    6.4886   -0.3834   -0.5003 C   0  0  0  0  0  0  0  0  0  0  0  0
    5.8692   -1.3876    0.2559 C   0  0  0  0  0  0  0  0  0  0  0  0
    4.7074   -1.0525    0.9593 C   0  0  0  0  0  0  0  0  0  0  0  0
    3.9108   -1.8220    1.7736 N   0  0  0  0  0  0  0  0  0  0  0  0
    2.8679   -1.0781    2.2534 C   0  0  0  0  0  0  0  0  0  0  0  0
    2.9786    0.2044    1.7505 C   0  0  0  0  0  0  0  0  0  0  0  0
    2.0430    1.3469    2.0208 C   0  0  0  0  0  0  0  0  0  0  0  0
    1.1780    1.7162    0.8113 C   0  0  0  0  0  0  0  0  0  0  0  0
    0.3252    0.6226    0.3813 N   0  0  0  0  0  0  0  0  0  0  0  0
   -0.9157    0.3988    0.9309 C   0  0  0  0  0  0  0  0  0  0  0  0
   -1.3529    1.1069    1.8419 O   0  0  0  0  0  0  0  0  0  0  0  0
   -1.6753   -0.8835    0.4505 C   0  0  0  0  0  0  0  0  0  0  0  0
   -3.1034   -0.6093    0.6932 N   0  0  0  0  0  0  0  0  0  0  0  0
   -3.8476    0.2654   -0.0499 C   0  0  0  0  0  0  0  0  0  0  0  0
   -3.4683    0.8043   -1.0802 O   0  0  0  0  0  0  0  0  0  0  0  0
   -5.0800    0.4347    0.5601 O   0  0  0  0  0  0  0  0  0  0  0  0
   -5.9070    1.3728   -0.0641 C   0  0  0  0  0  0  0  0  0  0  0  0
   -5.6389    2.7359    0.0558 C   0  0  0  0  0  0  0  0  0  0  0  0
   -6.5096    3.6540   -0.5296 C   0  0  0  0  0  0  0  0  0  0  0  0
   -7.6425    3.2051   -1.2127 C   0  0  0  0  0  0  0  0  0  0  0  0
   -7.9106    1.8373   -1.3092 C   0  0  0  0  0  0  0  0  0  0  0  0
   -7.0434    0.9139   -0.7265 C   0  0  0  0  0  0  0  0  0  0  0  0
   -1.4342   -1.2586   -1.0375 C   0  0  0  0  0  0  0  0  0  0  0  0
   -0.4095   -2.3774   -1.2247 C   0  0  0  0  0  0  0  0  0  0  0  0
   -0.8296   -3.6588   -0.5078 C   0  0  0  0  0  0  0  0  0  0  0  0
   -1.5527   -3.4043    0.8137 C   0  0  0  0  0  0  0  0  0  0  0  0
   -1.2221   -2.0317    1.3902 C   0  0  0  0  0  0  0  0  0  0  0  0
    4.1542    0.2268    0.9325 C   0  0  0  0  0  0  0  0  0  0  0  0
    4.8019    1.2182    0.1670 C   0  0  0  0  0  0  0  0  0  0  0  0
    7.5224    0.9640   -2.7638 H   0  0  0  0  0  0  0  0  0  0  0  0
    7.9730    2.6488   -2.4763 H   0  0  0  0  0  0  0  0  0  0  0  0
    8.5046    1.4238   -1.3181 H   0  0  0  0  0  0  0  0  0  0  0  0
    7.3895   -0.6511   -1.0433 H   0  0  0  0  0  0  0  0  0  0  0  0
    6.2849   -2.3895    0.2915 H   0  0  0  0  0  0  0  0  0  0  0  0
    4.0813   -2.7945    1.9890 H   0  0  0  0  0  0  0  0  0  0  0  0
    2.1357   -1.5186    2.9173 H   0  0  0  0  0  0  0  0  0  0  0  0
    1.3979    1.0943    2.8718 H   0  0  0  0  0  0  0  0  0  0  0  0
    2.6306    2.2226    2.3221 H   0  0  0  0  0  0  0  0  0  0  0  0
    1.7991    1.9899   -0.0480 H   0  0  0  0  0  0  0  0  0  0  0  0
    0.5517    2.5806    1.0583 H   0  0  0  0  0  0  0  0  0  0  0  0
    0.7029   -0.0005   -0.3176 H   0  0  0  0  0  0  0  0  0  0  0  0
   -3.4985   -0.8262    1.5976 H   0  0  0  0  0  0  0  0  0  0  0  0
   -4.7585    3.0799    0.5908 H   0  0  0  0  0  0  0  0  0  0  0  0
   -6.3052    4.7187   -0.4545 H   0  0  0  0  0  0  0  0  0  0  0  0
   -8.3185    3.9234   -1.6697 H   0  0  0  0  0  0  0  0  0  0  0  0
   -8.7956    1.4935   -1.8378 H   0  0  0  0  0  0  0  0  0  0  0  0
   -7.2499   -0.1495   -0.7924 H   0  0  0  0  0  0  0  0  0  0  0  0
   -1.1265   -0.3828   -1.6207 H   0  0  0  0  0  0  0  0  0  0  0  0
   -2.3709   -1.6086   -1.4930 H   0  0  0  0  0  0  0  0  0  0  0  0
   -0.2738   -2.5854   -2.2924 H   0  0  0  0  0  0  0  0  0  0  0  0
    0.5690   -2.0582   -0.8482 H   0  0  0  0  0  0  0  0  0  0  0  0
    0.0630   -4.2712   -0.3310 H   0  0  0  0  0  0  0  0  0  0  0  0
   -1.4821   -4.2534   -1.1587 H   0  0  0  0  0  0  0  0  0  0  0  0
   -2.6358   -3.4817    0.6569 H   0  0  0  0  0  0  0  0  0  0  0  0
   -1.2887   -4.1888    1.5322 H   0  0  0  0  0  0  0  0  0  0  0  0
   -0.1401   -1.9783    1.5679 H   0  0  0  0  0  0  0  0  0  0  0  0
   -1.6911   -1.9295    2.3774 H   0  0  0  0  0  0  0  0  0  0  0  0
    4.4040    2.2280    0.1290 H   0  0  0  0  0  0  0  0  0  0  0  0
  1  2  1  0
  2  3  1  0
  3  4  2  0
  4  5  1  0
  5  6  2  0
  6  7  1  0
  7  8  1  0
  8  9  2  0
  9 10  1  0
 10 11  1  0
 11 12  1  0
 12 13  1  0
 13 14  2  0
 13 15  1  0
 15 16  1  0
 16 17  1  0
 17 18  2  0
 17 19  1  0
 19 20  1  0
 20 21  2  0
 21 22  1  0
 22 23  2  0
 23 24  1  0
 24 25  2  0
 15 26  1  0
 26 27  1  0
 27 28  1  0
 28 29  1  0
 29 30  1  0
  9 31  1  0
 31 32  2  0
 32  3  1  0
 31  6  1  0
 30 15  1  0
 25 20  1  0
  1 33  1  0
  1 34  1  0
  1 35  1  0
  4 36  1  0
  5 37  1  0
  7 38  1  0
  8 39  1  0
 10 40  1  0
 10 41  1  0
 11 42  1  0
 11 43  1  0
 12 44  1  0
 16 45  1  0
 21 46  1  0
 22 47  1  0
 23 48  1  0
 24 49  1  0
 25 50  1  0
 26 51  1  0
 26 52  1  0
 27 53  1  0
 27 54  1  0
 28 55  1  0
 28 56  1  0
 29 57  1  0
 29 58  1  0
 30 59  1  0
 30 60  1  0
 32 61  1  0
M  END
>  <mol_id>  (1) 
27152

>  <source_index>  (1) 
0

>  <layer>  (1) 
L2

>  <uniprot>  (1) 
Q8NER1

>  <paff>  (1) 
7.0223000000000004

>  <smiles>  (1) 
COc1ccc2[nH]cc(CCNC(=O)C3(NC(=O)Oc4ccccc4)CCCCC3)c2c1

$$$$
