L2:Q8NER1:35078
     RDKit          3D

 57 60  0  0  0  0  0  0  0  0999 V2000
    2.2706   -0.0748   -0.2343 O   0  0  0  0  0  0  0  0  0  0  0  0
    2.2532   -0.1335    0.9851 C   0  0  0  0  0  0  0  0  0  0  0  0
    1.7725   -1.1908    1.7088 N   0  0  0  0  0  0  0  0  0  0  0  0
    1.3469   -2.4801    1.1114 C   0  0  0  0  0  0  0  0  0  0  0  0
    0.1025   -2.2355    0.1925 C   0  0  0  0  0  0  0  0  0  0  0  0
   -0.2051   -2.9737   -0.7400 O   0  0  0  0  0  0  0  0  0  0  0  0
   -0.7327   -1.2222    0.6265 N   0  0  0  0  0  0  0  0  0  0  0  0
   -1.9510   -0.8688   -0.0752 C   0  0  0  0  0  0  0  0  0  0  0  0
   -1.6779   -0.0251   -1.3234 C   0  0  0  0  0  0  0  0  0  0  0  0
   -2.9433    0.4350   -1.9760 C   0  0  0  0  0  0  0  0  0  0  0  0
   -3.6135   -0.2062   -2.9995 C   0  0  0  0  0  0  0  0  0  0  0  0
   -4.7255    0.5266   -3.3122 N   0  0  0  0  0  0  0  0  0  0  0  0
   -4.8036    1.6398   -2.5085 C   0  0  0  0  0  0  0  0  0  0  0  0
   -5.7622    2.6597   -2.4708 C   0  0  0  0  0  0  0  0  0  0  0  0
   -5.5811    3.6850   -1.5382 C   0  0  0  0  0  0  0  0  0  0  0  0
   -4.4843    3.6885   -0.6800 C   0  0  0  0  0  0  0  0  0  0  0  0
   -3.5355    2.6606   -0.7312 C   0  0  0  0  0  0  0  0  0  0  0  0
   -3.6950    1.6129   -1.6618 C   0  0  0  0  0  0  0  0  0  0  0  0
    0.8958   -3.3900    2.2815 C   0  0  0  0  0  0  0  0  0  0  0  0
    0.6837   -4.8483    1.8834 C   0  0  0  0  0  0  0  0  0  0  0  0
    1.9264   -5.4255    1.2217 C   0  0  0  0  0  0  0  0  0  0  0  0
    2.3352   -4.6070    0.0061 C   0  0  0  0  0  0  0  0  0  0  0  0
    2.5176   -3.1245    0.3360 C   0  0  0  0  0  0  0  0  0  0  0  0
    2.6846    0.8468    1.8634 O   0  0  0  0  0  0  0  0  0  0  0  0
    3.2098    1.9957    1.2608 C   0  0  0  0  0  0  0  0  0  0  0  0
    2.5362    3.1994    1.4599 C   0  0  0  0  0  0  0  0  0  0  0  0
    3.0607    4.3718    0.9173 C   0  0  0  0  0  0  0  0  0  0  0  0
    4.2560    4.3338    0.1957 C   0  0  0  0  0  0  0  0  0  0  0  0
    4.9329    3.1249    0.0191 C   0  0  0  0  0  0  0  0  0  0  0  0
    4.4145    1.9490    0.5601 C   0  0  0  0  0  0  0  0  0  0  0  0
    1.8897   -1.1171    2.7101 H   0  0  0  0  0  0  0  0  0  0  0  0
   -0.4160   -0.6415    1.3911 H   0  0  0  0  0  0  0  0  0  0  0  0
   -2.5768   -0.3191    0.6365 H   0  0  0  0  0  0  0  0  0  0  0  0
   -2.4827   -1.7893   -0.3436 H   0  0  0  0  0  0  0  0  0  0  0  0
   -1.0815   -0.6015   -2.0419 H   0  0  0  0  0  0  0  0  0  0  0  0
   -1.0655    0.8453   -1.0553 H   0  0  0  0  0  0  0  0  0  0  0  0
   -3.3882   -1.1223   -3.5303 H   0  0  0  0  0  0  0  0  0  0  0  0
   -5.3961    0.2894   -4.0295 H   0  0  0  0  0  0  0  0  0  0  0  0
   -6.6161    2.6611   -3.1401 H   0  0  0  0  0  0  0  0  0  0  0  0
   -6.3072    4.4930   -1.4850 H   0  0  0  0  0  0  0  0  0  0  0  0
   -4.3606    4.4977    0.0352 H   0  0  0  0  0  0  0  0  0  0  0  0
   -2.6818    2.6759   -0.0610 H   0  0  0  0  0  0  0  0  0  0  0  0
   -0.0277   -3.0067    2.7346 H   0  0  0  0  0  0  0  0  0  0  0  0
    1.6547   -3.3630    3.0761 H   0  0  0  0  0  0  0  0  0  0  0  0
    0.4392   -5.4365    2.7755 H   0  0  0  0  0  0  0  0  0  0  0  0
   -0.1738   -4.9339    1.2061 H   0  0  0  0  0  0  0  0  0  0  0  0
    1.7379   -6.4625    0.9218 H   0  0  0  0  0  0  0  0  0  0  0  0
    2.7517   -5.4472    1.9440 H   0  0  0  0  0  0  0  0  0  0  0  0
    3.2727   -5.0037   -0.4012 H   0  0  0  0  0  0  0  0  0  0  0  0
    1.5852   -4.7276   -0.7832 H   0  0  0  0  0  0  0  0  0  0  0  0
    3.4360   -3.0231    0.9307 H   0  0  0  0  0  0  0  0  0  0  0  0
    2.7012   -2.5862   -0.6016 H   0  0  0  0  0  0  0  0  0  0  0  0
    1.6114    3.2269    2.0271 H   0  0  0  0  0  0  0  0  0  0  0  0
    2.5402    5.3159    1.0550 H   0  0  0  0  0  0  0  0  0  0  0  0
    4.6615    5.2483   -0.2302 H   0  0  0  0  0  0  0  0  0  0  0  0
    5.8631    3.0999   -0.5426 H   0  0  0  0  0  0  0  0  0  0  0  0
    4.9412    1.0095    0.4237 H   0  0  0  0  0  0  0  0  0  0  0  0
  1  2  2  0
  2  3  1  0
  3  4  1  0
  4  5  1  0
  5  6  2  0
  5  7  1  0
  7  8  1  0
  8  9  1  0
  9 10  1  0
 10 11  2  0
 11 12  1  0
 12 13  1  0
 13 14  2  0
 14 15  1  0
 15 16  2  0
 16 17  1  0
 17 18  2  0
  4 19  1  0
 19 20  1  0
 20 21  1  0
 21 22  1  0
 22 23  1  0
  2 24  1  0
 24 25  1  0
 25 26  2  0
 26 27  1  0
 27 28  2  0
 28 29  1  0
 29 30  2  0
 23  4  1  0
 30 25  1  0
 18 10  1  0
 18 13  1  0
  3 31  1  0
  7 32  1  0
  8 33  1  0
  8 34  1  0
  9 35  1  0
  9 36  1  0
 11 37  1  0
 12 38  1  0
 14 39  1  0
 15 40  1  0
 16 41  1  0
 17 42  1  0
 19 43  1  0
 19 44  1  0
 20 45  1  0
 20 46  1  0
 21 47  1  0
 21 48  1  0
 22 49  1  0
 22 50  1  0
 23 51  1  0
 23 52  1  0
 26 53  1  0
 27 54  1  0
 28 55  1  0
 29 56  1  0
 30 57  1  0
M  END
>  <mol_id>  (1) 
35078

>  <source_index>  (1) 
1

>  <layer>  (1) 
L2

>  <uniprot>  (1) 
Q8NER1

>  <paff>  (1) 
6.6497999999999999

>  <smiles>  (1) 
O=C(NC1(C(=O)NCCc2c[nH]c3ccccc23)CCCCC1)Oc1ccccc1

$$$$
