L2:Q8NER1:35078
 OpenBabel09212617523D

 57 60  0  0  0  0  0  0  0  0999 V2000
  143.3381  154.0412  170.8188 C   0  0  0  0  0  0  0  0  0  0  0  0
  143.9281  155.3497  170.2355 C   0  0  0  0  0  0  0  0  0  0  0  0
  142.8953  156.4546  170.0291 C   0  0  0  0  0  0  0  0  0  0  0  0
  142.1397  156.7504  171.3163 C   0  0  0  0  0  0  0  0  0  0  0  0
  141.4645  155.5000  171.8599 C   0  0  0  0  0  0  0  0  0  0  0  0
  142.4456  154.3409  172.0439 C   0  0  0  0  0  0  0  0  0  0  0  0
  143.4484  151.9789  172.8644 O   0  0  0  0  0  0  0  0  0  0  0  0
  144.4519  152.2855  172.2403 C   0  0  0  0  0  0  0  0  0  0  0  0
  144.4870  153.1904  171.2144 N   0  0  0  0  0  0  0  0  0  0  0  0
  145.4065  153.3861  170.8430 H   0  0  0  0  0  0  0  0  0  0  0  0
  145.7254  151.7725  172.4243 O   0  0  0  0  0  0  0  0  0  0  0  0
  145.8265  150.3805  172.3200 C   0  0  0  0  0  0  0  0  0  0  0  0
  146.0303  149.6544  173.4920 C   0  0  0  0  0  0  0  0  0  0  0  0
  146.0835  148.2625  173.4309 C   0  0  0  0  0  0  0  0  0  0  0  0
  145.9191  147.6102  172.2068 C   0  0  0  0  0  0  0  0  0  0  0  0
  145.6958  148.3472  171.0415 C   0  0  0  0  0  0  0  0  0  0  0  0
  145.6402  149.7393  171.0958 C   0  0  0  0  0  0  0  0  0  0  0  0
  142.5398  153.3285  169.6754 C   0  0  0  0  0  0  0  0  0  0  0  0
  142.1786  153.8962  168.6476 O   0  0  0  0  0  0  0  0  0  0  0  0
  142.4308  151.9583  169.8285 N   0  0  0  0  0  0  0  0  0  0  0  0
  142.7347  151.5534  170.7036 H   0  0  0  0  0  0  0  0  0  0  0  0
  141.7543  151.1218  168.8568 C   0  0  0  0  0  0  0  0  0  0  0  0
  141.2883  149.7935  169.4590 C   0  0  0  0  0  0  0  0  0  0  0  0
  140.6154  149.9839  170.7818 C   0  0  0  0  0  0  0  0  0  0  0  0
  139.3817  150.5680  170.9932 C   0  0  0  0  0  0  0  0  0  0  0  0
  139.1194  150.5476  172.3356 N   0  0  0  0  0  0  0  0  0  0  0  0
  140.1582  149.9552  173.0147 C   0  0  0  0  0  0  0  0  0  0  0  0
  140.3206  149.7167  174.3849 C   0  0  0  0  0  0  0  0  0  0  0  0
  141.5000  149.0906  174.7982 C   0  0  0  0  0  0  0  0  0  0  0  0
  142.4763  148.7201  173.8769 C   0  0  0  0  0  0  0  0  0  0  0  0
  142.2974  148.9661  172.5105 C   0  0  0  0  0  0  0  0  0  0  0  0
  141.1158  149.5950  172.0662 C   0  0  0  0  0  0  0  0  0  0  0  0
  138.2848  150.9139  172.7712 H   0  0  0  0  0  0  0  0  0  0  0  0
  144.3755  155.1255  169.2897 H   0  0  0  0  0  0  0  0  0  0  0  0
  144.6371  155.7160  170.9482 H   0  0  0  0  0  0  0  0  0  0  0  0
  142.1982  156.1448  169.2788 H   0  0  0  0  0  0  0  0  0  0  0  0
  143.4071  157.3437  169.7252 H   0  0  0  0  0  0  0  0  0  0  0  0
  141.3939  157.4922  171.1202 H   0  0  0  0  0  0  0  0  0  0  0  0
  142.8393  157.1012  172.0460 H   0  0  0  0  0  0  0  0  0  0  0  0
  140.6996  155.1974  171.1756 H   0  0  0  0  0  0  0  0  0  0  0  0
  141.0587  155.7397  172.8205 H   0  0  0  0  0  0  0  0  0  0  0  0
  141.8807  153.4599  172.2667 H   0  0  0  0  0  0  0  0  0  0  0  0
  143.1076  154.6314  172.8327 H   0  0  0  0  0  0  0  0  0  0  0  0
  146.1406  150.1416  174.3951 H   0  0  0  0  0  0  0  0  0  0  0  0
  146.2444  147.7141  174.2902 H   0  0  0  0  0  0  0  0  0  0  0  0
  145.9628  146.5800  172.1632 H   0  0  0  0  0  0  0  0  0  0  0  0
  145.5719  147.8610  170.1397 H   0  0  0  0  0  0  0  0  0  0  0  0
  145.4633  150.2886  170.2402 H   0  0  0  0  0  0  0  0  0  0  0  0
  142.4276  150.9170  168.0508 H   0  0  0  0  0  0  0  0  0  0  0  0
  140.8877  151.6495  168.5170 H   0  0  0  0  0  0  0  0  0  0  0  0
  142.1383  149.1573  169.5921 H   0  0  0  0  0  0  0  0  0  0  0  0
  140.5794  149.3564  168.7872 H   0  0  0  0  0  0  0  0  0  0  0  0
  138.7632  150.9540  170.2628 H   0  0  0  0  0  0  0  0  0  0  0  0
  139.5955  149.9933  175.0652 H   0  0  0  0  0  0  0  0  0  0  0  0
  141.6495  148.9000  175.8014 H   0  0  0  0  0  0  0  0  0  0  0  0
  143.3399  148.2598  174.2046 H   0  0  0  0  0  0  0  0  0  0  0  0
  143.0250  148.6892  171.8330 H   0  0  0  0  0  0  0  0  0  0  0  0
  1 18  1  0  0  0  0
  1  2  1  0  0  0  0
  2  3  1  0  0  0  0
  2 34  1  0  0  0  0
  2 35  1  0  0  0  0
  3  4  1  0  0  0  0
  3 36  1  0  0  0  0
  3 37  1  0  0  0  0
  4  5  1  0  0  0  0
  4 38  1  0  0  0  0
  4 39  1  0  0  0  0
  5  6  1  0  0  0  0
  5 40  1  0  0  0  0
  5 41  1  0  0  0  0
  6  1  1  0  0  0  0
  6 42  1  0  0  0  0
  6 43  1  0  0  0  0
  7  8  2  0  0  0  0
  8  9  1  0  0  0  0
  8 11  1  0  0  0  0
  9  1  1  0  0  0  0
  9 10  1  0  0  0  0
 11 12  1  0  0  0  0
 12 13  2  0  0  0  0
 13 14  1  0  0  0  0
 13 44  1  0  0  0  0
 14 15  2  0  0  0  0
 14 45  1  0  0  0  0
 15 16  1  0  0  0  0
 15 46  1  0  0  0  0
 16 17  2  0  0  0  0
 16 47  1  0  0  0  0
 17 12  1  0  0  0  0
 17 48  1  0  0  0  0
 18 19  2  0  0  0  0
 18 20  1  0  0  0  0
 20 22  1  0  0  0  0
 20 21  1  0  0  0  0
 22 23  1  0  0  0  0
 22 49  1  0  0  0  0
 22 50  1  0  0  0  0
 23 24  1  0  0  0  0
 23 51  1  0  0  0  0
 23 52  1  0  0  0  0
 24 25  2  0  0  0  0
 25 26  1  0  0  0  0
 25 53  1  0  0  0  0
 26 27  1  0  0  0  0
 26 33  1  0  0  0  0
 27 28  2  0  0  0  0
 28 29  1  0  0  0  0
 28 54  1  0  0  0  0
 29 30  2  0  0  0  0
 29 55  1  0  0  0  0
 30 31  1  0  0  0  0
 30 56  1  0  0  0  0
 31 32  2  0  0  0  0
 31 57  1  0  0  0  0
 32 24  1  0  0  0  0
 32 27  1  0  0  0  0
M  END
>  <minimizedAffinity>
-9.75623

$$$$
