L2:Q8NER1:38542
 OpenBabel09212617523D

 65 68  0  0  0  0  0  0  0  0999 V2000
  138.8967  150.3820  172.1382 N   0  0  0  0  0  0  0  0  0  0  0  0
  138.3619  151.2747  171.2514 C   0  0  0  0  0  0  0  0  0  0  0  0
  138.7889  151.4542  170.1208 O   0  0  0  0  0  0  0  0  0  0  0  0
  137.2638  151.9154  171.7618 N   0  0  0  0  0  0  0  0  0  0  0  0
  138.6258  150.4256  173.1092 H   0  0  0  0  0  0  0  0  0  0  0  0
  137.0723  151.7812  172.7450 H   0  0  0  0  0  0  0  0  0  0  0  0
  136.6125  153.0574  171.0732 C   0  0  0  0  0  0  0  0  0  0  0  0
  135.5735  153.7246  172.0139 C   0  0  0  0  0  0  0  0  0  0  0  0
  134.3295  154.2131  171.2767 C   0  0  0  0  0  0  0  0  0  0  0  0
  133.5986  153.0689  170.5772 C   0  0  0  0  0  0  0  0  0  0  0  0
  134.5332  151.9800  170.0483 C   0  0  0  0  0  0  0  0  0  0  0  0
  135.9377  152.5109  169.7813 C   0  0  0  0  0  0  0  0  0  0  0  0
  137.6607  154.1104  170.5755 C   0  0  0  0  0  0  0  0  0  0  0  0
  137.6995  154.4707  169.3999 O   0  0  0  0  0  0  0  0  0  0  0  0
  138.6230  154.4010  171.5344 N   0  0  0  0  0  0  0  0  0  0  0  0
  138.4235  154.0208  172.4530 H   0  0  0  0  0  0  0  0  0  0  0  0
  139.7752  155.1953  171.4028 C   0  0  0  0  0  0  0  0  0  0  0  0
  139.9250  156.4522  171.9869 C   0  0  0  0  0  0  0  0  0  0  0  0
  141.0994  157.1848  171.8020 C   0  0  0  0  0  0  0  0  0  0  0  0
  142.1354  156.6689  171.0264 C   0  0  0  0  0  0  0  0  0  0  0  0
  142.0089  155.4078  170.4300 C   0  0  0  0  0  0  0  0  0  0  0  0
  140.8233  154.6789  170.6283 C   0  0  0  0  0  0  0  0  0  0  0  0
  143.1331  154.8600  169.5877 C   0  0  0  0  0  0  0  0  0  0  0  0
  144.3558  155.0353  170.1662 F   0  0  0  0  0  0  0  0  0  0  0  0
  143.0255  153.5213  169.3447 F   0  0  0  0  0  0  0  0  0  0  0  0
  143.2079  155.4549  168.3618 F   0  0  0  0  0  0  0  0  0  0  0  0
  140.0793  149.6168  171.7928 C   0  0  0  0  0  0  0  0  0  0  0  0
  141.2368  149.8228  172.7724 C   0  0  0  0  0  0  0  0  0  0  0  0
  144.9981  147.0600  172.1166 C   0  0  0  0  0  0  0  0  0  0  0  0
  146.0147  147.7186  171.4240 C   0  0  0  0  0  0  0  0  0  0  0  0
  145.8751  149.0439  170.9992 C   0  0  0  0  0  0  0  0  0  0  0  0
  144.6686  149.6872  171.2876 C   0  0  0  0  0  0  0  0  0  0  0  0
  144.2503  150.9571  170.9749 N   0  0  0  0  0  0  0  0  0  0  0  0
  142.9880  151.1728  171.4558 C   0  0  0  0  0  0  0  0  0  0  0  0
  142.5657  150.0249  172.1017 C   0  0  0  0  0  0  0  0  0  0  0  0
  143.6299  149.0701  171.9862 C   0  0  0  0  0  0  0  0  0  0  0  0
  143.8035  147.7302  172.4084 C   0  0  0  0  0  0  0  0  0  0  0  0
  144.8041  151.6341  170.4664 H   0  0  0  0  0  0  0  0  0  0  0  0
  146.4151  145.1718  171.8087 C   0  0  0  0  0  0  0  0  0  0  0  0
  145.2906  145.7627  172.4434 O   0  0  0  0  0  0  0  0  0  0  0  0
  136.0361  154.5615  172.4940 H   0  0  0  0  0  0  0  0  0  0  0  0
  135.2579  152.9842  172.7190 H   0  0  0  0  0  0  0  0  0  0  0  0
  134.6225  154.9360  170.5442 H   0  0  0  0  0  0  0  0  0  0  0  0
  133.6638  154.6424  171.9960 H   0  0  0  0  0  0  0  0  0  0  0  0
  133.0483  153.4724  169.7530 H   0  0  0  0  0  0  0  0  0  0  0  0
  132.9622  152.6107  171.3052 H   0  0  0  0  0  0  0  0  0  0  0  0
  134.1309  151.5934  169.1353 H   0  0  0  0  0  0  0  0  0  0  0  0
  134.6054  151.2163  170.7942 H   0  0  0  0  0  0  0  0  0  0  0  0
  135.8769  153.3015  169.0629 H   0  0  0  0  0  0  0  0  0  0  0  0
  136.5327  151.6998  169.4166 H   0  0  0  0  0  0  0  0  0  0  0  0
  139.1620  156.8444  172.5605 H   0  0  0  0  0  0  0  0  0  0  0  0
  141.2004  158.1128  172.2420 H   0  0  0  0  0  0  0  0  0  0  0  0
  142.9988  157.2177  170.8908 H   0  0  0  0  0  0  0  0  0  0  0  0
  140.7228  153.7472  170.1961 H   0  0  0  0  0  0  0  0  0  0  0  0
  139.8219  148.5783  171.7838 H   0  0  0  0  0  0  0  0  0  0  0  0
  140.4096  149.9569  170.8336 H   0  0  0  0  0  0  0  0  0  0  0  0
  141.0249  150.6851  173.3694 H   0  0  0  0  0  0  0  0  0  0  0  0
  141.3141  148.9305  173.3578 H   0  0  0  0  0  0  0  0  0  0  0  0
  146.8921  147.2150  171.2199 H   0  0  0  0  0  0  0  0  0  0  0  0
  146.6332  149.5275  170.4928 H   0  0  0  0  0  0  0  0  0  0  0  0
  142.4436  152.0436  171.3540 H   0  0  0  0  0  0  0  0  0  0  0  0
  143.0532  147.2494  172.9289 H   0  0  0  0  0  0  0  0  0  0  0  0
  146.5297  144.1646  172.1514 H   0  0  0  0  0  0  0  0  0  0  0  0
  147.2948  145.7321  172.0477 H   0  0  0  0  0  0  0  0  0  0  0  0
  146.2681  145.1734  170.7488 H   0  0  0  0  0  0  0  0  0  0  0  0
  1  2  1  0  0  0  0
  1  5  1  0  0  0  0
  2  3  2  0  0  0  0
  2  4  1  0  0  0  0
  4  7  1  0  0  0  0
  4  6  1  0  0  0  0
  7 13  1  0  0  0  0
  7  8  1  0  0  0  0
  8  9  1  0  0  0  0
  8 41  1  0  0  0  0
  8 42  1  0  0  0  0
  9 10  1  0  0  0  0
  9 43  1  0  0  0  0
  9 44  1  0  0  0  0
 10 11  1  0  0  0  0
 10 45  1  0  0  0  0
 10 46  1  0  0  0  0
 11 12  1  0  0  0  0
 11 47  1  0  0  0  0
 11 48  1  0  0  0  0
 12  7  1  0  0  0  0
 12 49  1  0  0  0  0
 12 50  1  0  0  0  0
 13 14  2  0  0  0  0
 13 15  1  0  0  0  0
 15 17  1  0  0  0  0
 15 16  1  0  0  0  0
 17 18  2  0  0  0  0
 18 19  1  0  0  0  0
 18 51  1  0  0  0  0
 19 20  2  0  0  0  0
 19 52  1  0  0  0  0
 20 21  1  0  0  0  0
 20 53  1  0  0  0  0
 21 23  1  0  0  0  0
 21 22  2  0  0  0  0
 22 17  1  0  0  0  0
 22 54  1  0  0  0  0
 23 24  1  0  0  0  0
 23 25  1  0  0  0  0
 23 26  1  0  0  0  0
 27  1  1  0  0  0  0
 27 55  1  0  0  0  0
 27 56  1  0  0  0  0
 28 27  1  0  0  0  0
 28 57  1  0  0  0  0
 28 58  1  0  0  0  0
 29 30  2  0  0  0  0
 30 31  1  0  0  0  0
 30 59  1  0  0  0  0
 31 32  2  0  0  0  0
 31 60  1  0  0  0  0
 32 33  1  0  0  0  0
 33 34  1  0  0  0  0
 33 38  1  0  0  0  0
 34 35  2  0  0  0  0
 34 61  1  0  0  0  0
 35 28  1  0  0  0  0
 35 36  1  0  0  0  0
 36 37  2  0  0  0  0
 36 32  1  0  0  0  0
 37 29  1  0  0  0  0
 37 62  1  0  0  0  0
 39 40  1  0  0  0  0
 39 63  1  0  0  0  0
 39 64  1  0  0  0  0
 39 65  1  0  0  0  0
 40 29  1  0  0  0  0
M  END
>  <minimizedAffinity>
-10.16139

$$$$
