L2:Q8NER1:38542
     RDKit          3D

 65 68  0  0  0  0  0  0  0  0999 V2000
   -4.6834    3.4689    2.3937 C   0  0  0  0  0  0  0  0  0  0  0  0
   -5.6170    2.4147    2.2109 O   0  0  0  0  0  0  0  0  0  0  0  0
   -5.4711    1.6368    1.0934 C   0  0  0  0  0  0  0  0  0  0  0  0
   -6.4363    0.6378    0.9617 C   0  0  0  0  0  0  0  0  0  0  0  0
   -6.4450   -0.2361   -0.1303 C   0  0  0  0  0  0  0  0  0  0  0  0
   -5.4503   -0.0662   -1.0969 C   0  0  0  0  0  0  0  0  0  0  0  0
   -5.2334   -0.7499   -2.2678 N   0  0  0  0  0  0  0  0  0  0  0  0
   -4.1378   -0.2476   -2.9146 C   0  0  0  0  0  0  0  0  0  0  0  0
   -3.6187    0.7852   -2.1548 C   0  0  0  0  0  0  0  0  0  0  0  0
   -2.4167    1.6193   -2.4957 C   0  0  0  0  0  0  0  0  0  0  0  0
   -1.1323    0.8051   -2.6662 C   0  0  0  0  0  0  0  0  0  0  0  0
   -0.7417    0.0972   -1.4622 N   0  0  0  0  0  0  0  0  0  0  0  0
    0.4573   -0.5568   -1.3974 C   0  0  0  0  0  0  0  0  0  0  0  0
    1.2870   -0.5533   -2.2942 O   0  0  0  0  0  0  0  0  0  0  0  0
    0.6403   -1.1823   -0.1924 N   0  0  0  0  0  0  0  0  0  0  0  0
    1.7719   -2.1075    0.0645 C   0  0  0  0  0  0  0  0  0  0  0  0
    3.1530   -1.3708   -0.0082 C   0  0  0  0  0  0  0  0  0  0  0  0
    4.2016   -1.9894   -0.1847 O   0  0  0  0  0  0  0  0  0  0  0  0
    3.0638   -0.0315    0.3502 N   0  0  0  0  0  0  0  0  0  0  0  0
    4.1041    0.8987    0.5188 C   0  0  0  0  0  0  0  0  0  0  0  0
    5.4530    0.5997    0.3338 C   0  0  0  0  0  0  0  0  0  0  0  0
    6.4297    1.5785    0.5294 C   0  0  0  0  0  0  0  0  0  0  0  0
    6.0668    2.8667    0.9167 C   0  0  0  0  0  0  0  0  0  0  0  0
    4.7177    3.1915    1.1079 C   0  0  0  0  0  0  0  0  0  0  0  0
    4.3349    4.5867    1.5325 C   0  0  0  0  0  0  0  0  0  0  0  0
    4.7448    5.5368    0.6439 F   0  0  0  0  0  0  0  0  0  0  0  0
    2.9881    4.7614    1.6684 F   0  0  0  0  0  0  0  0  0  0  0  0
    4.8777    4.9365    2.7348 F   0  0  0  0  0  0  0  0  0  0  0  0
    3.7445    2.1980    0.9028 C   0  0  0  0  0  0  0  0  0  0  0  0
    1.7314   -3.2908   -0.9394 C   0  0  0  0  0  0  0  0  0  0  0  0
    2.1647   -4.6154   -0.3170 C   0  0  0  0  0  0  0  0  0  0  0  0
    1.2644   -5.0152    0.8502 C   0  0  0  0  0  0  0  0  0  0  0  0
    0.7410   -3.8239    1.6538 C   0  0  0  0  0  0  0  0  0  0  0  0
    1.6527   -2.6073    1.5339 C   0  0  0  0  0  0  0  0  0  0  0  0
   -4.4602    0.9126   -1.0002 C   0  0  0  0  0  0  0  0  0  0  0  0
   -4.4742    1.7779    0.1199 C   0  0  0  0  0  0  0  0  0  0  0  0
   -4.7298    4.1886    1.5693 H   0  0  0  0  0  0  0  0  0  0  0  0
   -3.6659    3.0821    2.5262 H   0  0  0  0  0  0  0  0  0  0  0  0
   -4.9575    4.0028    3.3101 H   0  0  0  0  0  0  0  0  0  0  0  0
   -7.2054    0.5384    1.7253 H   0  0  0  0  0  0  0  0  0  0  0  0
   -7.2038   -1.0067   -0.2165 H   0  0  0  0  0  0  0  0  0  0  0  0
   -5.8029   -1.5188   -2.5965 H   0  0  0  0  0  0  0  0  0  0  0  0
   -3.8132   -0.6752   -3.8546 H   0  0  0  0  0  0  0  0  0  0  0  0
   -2.6246    2.1580   -3.4301 H   0  0  0  0  0  0  0  0  0  0  0  0
   -2.2577    2.3804   -1.7226 H   0  0  0  0  0  0  0  0  0  0  0  0
   -0.3089    1.4718   -2.9496 H   0  0  0  0  0  0  0  0  0  0  0  0
   -1.2380    0.0623   -3.4651 H   0  0  0  0  0  0  0  0  0  0  0  0
   -1.4552   -0.1077   -0.7788 H   0  0  0  0  0  0  0  0  0  0  0  0
   -0.1570   -1.2229    0.4272 H   0  0  0  0  0  0  0  0  0  0  0  0
    2.1144    0.3102    0.4509 H   0  0  0  0  0  0  0  0  0  0  0  0
    5.7812   -0.3887    0.0268 H   0  0  0  0  0  0  0  0  0  0  0  0
    7.4764    1.3286    0.3773 H   0  0  0  0  0  0  0  0  0  0  0  0
    6.8400    3.6185    1.0666 H   0  0  0  0  0  0  0  0  0  0  0  0
    2.6953    2.4485    1.0510 H   0  0  0  0  0  0  0  0  0  0  0  0
    0.7121   -3.4221   -1.3282 H   0  0  0  0  0  0  0  0  0  0  0  0
    2.3604   -3.0782   -1.8142 H   0  0  0  0  0  0  0  0  0  0  0  0
    2.1548   -5.4097   -1.0738 H   0  0  0  0  0  0  0  0  0  0  0  0
    3.2018   -4.5379    0.0320 H   0  0  0  0  0  0  0  0  0  0  0  0
    1.8269   -5.6903    1.5075 H   0  0  0  0  0  0  0  0  0  0  0  0
    0.4085   -5.5926    0.4813 H   0  0  0  0  0  0  0  0  0  0  0  0
    0.6339   -4.1119    2.7071 H   0  0  0  0  0  0  0  0  0  0  0  0
   -0.2646   -3.5605    1.3026 H   0  0  0  0  0  0  0  0  0  0  0  0
    1.2780   -1.8034    2.1840 H   0  0  0  0  0  0  0  0  0  0  0  0
    2.6416   -2.8760    1.9330 H   0  0  0  0  0  0  0  0  0  0  0  0
   -3.7133    2.5458    0.1912 H   0  0  0  0  0  0  0  0  0  0  0  0
  1  2  1  0
  2  3  1  0
  3  4  2  0
  4  5  1  0
  5  6  2  0
  6  7  1  0
  7  8  1  0
  8  9  2  0
  9 10  1  0
 10 11  1  0
 11 12  1  0
 12 13  1  0
 13 14  2  0
 13 15  1  0
 15 16  1  0
 16 17  1  0
 17 18  2  0
 17 19  1  0
 19 20  1  0
 20 21  2  0
 21 22  1  0
 22 23  2  0
 23 24  1  0
 24 25  1  0
 25 26  1  0
 25 27  1  0
 25 28  1  0
 24 29  2  0
 16 30  1  0
 30 31  1  0
 31 32  1  0
 32 33  1  0
 33 34  1  0
  9 35  1  0
 35 36  2  0
 36  3  1  0
 35  6  1  0
 34 16  1  0
 29 20  1  0
  1 37  1  0
  1 38  1  0
  1 39  1  0
  4 40  1  0
  5 41  1  0
  7 42  1  0
  8 43  1  0
 10 44  1  0
 10 45  1  0
 11 46  1  0
 11 47  1  0
 12 48  1  0
 15 49  1  0
 19 50  1  0
 21 51  1  0
 22 52  1  0
 23 53  1  0
 29 54  1  0
 30 55  1  0
 30 56  1  0
 31 57  1  0
 31 58  1  0
 32 59  1  0
 32 60  1  0
 33 61  1  0
 33 62  1  0
 34 63  1  0
 34 64  1  0
 36 65  1  0
M  END
>  <mol_id>  (1) 
38542

>  <source_index>  (1) 
2

>  <layer>  (1) 
L2

>  <uniprot>  (1) 
Q8NER1

>  <paff>  (1) 
6.1593

>  <smiles>  (1) 
COc1ccc2[nH]cc(CCNC(=O)NC3(C(=O)Nc4cccc(C(F)(F)F)c4)CCCCC3)c2c1

$$$$
