L2:Q8NER1:52263


 35 38  0  0  0  0  0  0  0  0999 V2000
  143.4977  151.7658  170.6806 O   0  0  0  0  0  0  0  0  0  0  0  0
  142.4132  151.4148  170.2304 C   0  0  0  0  0  0  0  0  0  0  0  0
  142.1284  150.1443  169.8310 N   0  0  0  0  0  0  0  0  0  0  0  0
  141.3735  152.2729  170.0193 N   0  0  0  0  0  0  0  0  0  0  0  0
  141.2378  149.9417  169.4042 H   0  0  0  0  0  0  0  0  0  0  0  0
  140.6048  151.9239  169.4671 H   0  0  0  0  0  0  0  0  0  0  0  0
  141.4135  153.7389  170.2571 C   0  0  0  0  0  0  0  0  0  0  0  0
  141.9952  153.9493  171.6770 C   0  0  0  0  0  0  0  0  0  0  0  0
  142.1709  155.4165  172.0827 C   0  0  0  0  0  0  0  0  0  0  0  0
  142.4154  156.3509  170.9033 C   0  0  0  0  0  0  0  0  0  0  0  0
  143.1353  155.6314  169.7777 C   0  0  0  0  0  0  0  0  0  0  0  0
  142.3059  154.4717  169.2156 C   0  0  0  0  0  0  0  0  0  0  0  0
  139.9161  154.2301  170.2191 C   0  0  0  0  0  0  0  0  0  0  0  0
  139.5654  155.1641  169.4997 O   0  0  0  0  0  0  0  0  0  0  0  0
  139.0770  153.5465  171.0841 N   0  0  0  0  0  0  0  0  0  0  0  0
  139.5327  152.8617  171.6911 H   0  0  0  0  0  0  0  0  0  0  0  0
  137.6978  153.7308  171.2959 C   0  0  0  0  0  0  0  0  0  0  0  0
  137.3277  154.7556  172.1784 C   0  0  0  0  0  0  0  0  0  0  0  0
  135.9823  155.0203  172.4439 C   0  0  0  0  0  0  0  0  0  0  0  0
  134.9918  154.2587  171.8299 C   0  0  0  0  0  0  0  0  0  0  0  0
  135.3562  153.2371  170.9554 C   0  0  0  0  0  0  0  0  0  0  0  0
  134.0088  152.2023  170.1218 Br  0  0  0  0  0  0  0  0  0  0  0  0
  136.7006  152.9684  170.6861 C   0  0  0  0  0  0  0  0  0  0  0  0
  143.1317  149.0959  169.8220 C   0  0  0  0  0  0  0  0  0  0  0  0
  142.8164  147.9485  170.7905 C   0  0  0  0  0  0  0  0  0  0  0  0
  143.1441  148.2709  172.2173 C   0  0  0  0  0  0  0  0  0  0  0  0
  144.3788  148.1217  172.8197 C   0  0  0  0  0  0  0  0  0  0  0  0
  144.2733  148.5158  174.1251 N   0  0  0  0  0  0  0  0  0  0  0  0
  142.9865  148.9178  174.3967 C   0  0  0  0  0  0  0  0  0  0  0  0
  142.4230  149.3908  175.5879 C   0  0  0  0  0  0  0  0  0  0  0  0
  141.0692  149.7380  175.5715 C   0  0  0  0  0  0  0  0  0  0  0  0
  140.3123  149.6181  174.4088 C   0  0  0  0  0  0  0  0  0  0  0  0
  140.8916  149.1435  173.2261 C   0  0  0  0  0  0  0  0  0  0  0  0
  142.2550  148.7832  173.2158 C   0  0  0  0  0  0  0  0  0  0  0  0
  145.0297  148.5151  174.7956 H   0  0  0  0  0  0  0  0  0  0  0  0
  1  2  2  0  0  0
  2  3  1  0  0  0
  3 24  1  0  0  0
 24 25  1  0  0  0
 25 26  1  0  0  0
 26 27  2  0  0  0
 27 28  1  0  0  0
 28 29  1  0  0  0
 29 30  2  0  0  0
 30 31  1  0  0  0
 31 32  2  0  0  0
 32 33  1  0  0  0
 33 34  2  0  0  0
  2  4  1  0  0  0
  4  7  1  0  0  0
  7 13  1  0  0  0
 13 14  2  0  0  0
 13 15  1  0  0  0
 15 17  1  0  0  0
 17 18  2  0  0  0
 18 19  1  0  0  0
 19 20  2  0  0  0
 20 21  1  0  0  0
 21 22  1  0  0  0
 21 23  2  0  0  0
  7  8  1  0  0  0
  8  9  1  0  0  0
  9 10  1  0  0  0
 10 11  1  0  0  0
 11 12  1  0  0  0
 34 26  1  0  0  0
 12  7  1  0  0  0
 34 29  1  0  0  0
 23 17  1  0  0  0
  3  5  1  0  0  0
 28 35  1  0  0  0
  4  6  1  0  0  0
 15 16  1  0  0  0
M  END
> <minimizedAffinity>
-9.54419

$$$$
