L2:Q8NER1:52263
 OpenBabel09212617523D

 58 61  0  0  0  0  0  0  0  0999 V2000
  143.4977  151.7658  170.6806 O   0  0  0  0  0  0  0  0  0  0  0  0
  142.4132  151.4148  170.2304 C   0  0  0  0  0  0  0  0  0  0  0  0
  142.1284  150.1443  169.8310 N   0  0  0  0  0  0  0  0  0  0  0  0
  141.3735  152.2729  170.0193 N   0  0  0  0  0  0  0  0  0  0  0  0
  141.2378  149.9417  169.4042 H   0  0  0  0  0  0  0  0  0  0  0  0
  140.6048  151.9239  169.4671 H   0  0  0  0  0  0  0  0  0  0  0  0
  141.4135  153.7389  170.2571 C   0  0  0  0  0  0  0  0  0  0  0  0
  141.9952  153.9493  171.6770 C   0  0  0  0  0  0  0  0  0  0  0  0
  142.1709  155.4165  172.0827 C   0  0  0  0  0  0  0  0  0  0  0  0
  142.4154  156.3509  170.9033 C   0  0  0  0  0  0  0  0  0  0  0  0
  143.1353  155.6314  169.7777 C   0  0  0  0  0  0  0  0  0  0  0  0
  142.3059  154.4717  169.2156 C   0  0  0  0  0  0  0  0  0  0  0  0
  139.9161  154.2301  170.2191 C   0  0  0  0  0  0  0  0  0  0  0  0
  139.5654  155.1641  169.4997 O   0  0  0  0  0  0  0  0  0  0  0  0
  139.0770  153.5465  171.0841 N   0  0  0  0  0  0  0  0  0  0  0  0
  139.5327  152.8617  171.6911 H   0  0  0  0  0  0  0  0  0  0  0  0
  137.6978  153.7308  171.2959 C   0  0  0  0  0  0  0  0  0  0  0  0
  137.3277  154.7556  172.1784 C   0  0  0  0  0  0  0  0  0  0  0  0
  135.9823  155.0203  172.4439 C   0  0  0  0  0  0  0  0  0  0  0  0
  134.9918  154.2587  171.8299 C   0  0  0  0  0  0  0  0  0  0  0  0
  135.3562  153.2371  170.9554 C   0  0  0  0  0  0  0  0  0  0  0  0
  134.0088  152.2023  170.1218 Br  0  0  0  0  0  0  0  0  0  0  0  0
  136.7006  152.9684  170.6861 C   0  0  0  0  0  0  0  0  0  0  0  0
  143.1317  149.0959  169.8220 C   0  0  0  0  0  0  0  0  0  0  0  0
  142.8164  147.9485  170.7905 C   0  0  0  0  0  0  0  0  0  0  0  0
  143.1441  148.2709  172.2173 C   0  0  0  0  0  0  0  0  0  0  0  0
  144.3788  148.1217  172.8197 C   0  0  0  0  0  0  0  0  0  0  0  0
  144.2733  148.5158  174.1251 N   0  0  0  0  0  0  0  0  0  0  0  0
  142.9865  148.9178  174.3967 C   0  0  0  0  0  0  0  0  0  0  0  0
  142.4230  149.3908  175.5879 C   0  0  0  0  0  0  0  0  0  0  0  0
  141.0692  149.7380  175.5715 C   0  0  0  0  0  0  0  0  0  0  0  0
  140.3123  149.6181  174.4088 C   0  0  0  0  0  0  0  0  0  0  0  0
  140.8916  149.1435  173.2261 C   0  0  0  0  0  0  0  0  0  0  0  0
  142.2550  148.7832  173.2158 C   0  0  0  0  0  0  0  0  0  0  0  0
  145.0297  148.5151  174.7956 H   0  0  0  0  0  0  0  0  0  0  0  0
  142.9530  153.4742  171.7192 H   0  0  0  0  0  0  0  0  0  0  0  0
  141.2877  153.5281  172.3603 H   0  0  0  0  0  0  0  0  0  0  0  0
  143.0061  155.4858  172.7479 H   0  0  0  0  0  0  0  0  0  0  0  0
  141.2564  155.7261  172.5439 H   0  0  0  0  0  0  0  0  0  0  0  0
  143.0131  157.1764  171.2293 H   0  0  0  0  0  0  0  0  0  0  0  0
  141.4695  156.6930  170.5384 H   0  0  0  0  0  0  0  0  0  0  0  0
  144.0610  155.2454  170.1506 H   0  0  0  0  0  0  0  0  0  0  0  0
  143.2996  156.3340  168.9876 H   0  0  0  0  0  0  0  0  0  0  0  0
  142.9795  153.7558  168.7930 H   0  0  0  0  0  0  0  0  0  0  0  0
  141.6383  154.9009  168.4980 H   0  0  0  0  0  0  0  0  0  0  0  0
  138.0586  155.3214  172.6375 H   0  0  0  0  0  0  0  0  0  0  0  0
  135.7230  155.7788  173.0938 H   0  0  0  0  0  0  0  0  0  0  0  0
  133.9957  154.4493  172.0209 H   0  0  0  0  0  0  0  0  0  0  0  0
  136.9557  152.2074  170.0374 H   0  0  0  0  0  0  0  0  0  0  0  0
  144.0731  149.5238  170.0969 H   0  0  0  0  0  0  0  0  0  0  0  0
  143.1506  148.6826  168.8352 H   0  0  0  0  0  0  0  0  0  0  0  0
  143.3843  147.0904  170.4970 H   0  0  0  0  0  0  0  0  0  0  0  0
  141.7625  147.7708  170.7394 H   0  0  0  0  0  0  0  0  0  0  0  0
  145.2352  147.7722  172.3621 H   0  0  0  0  0  0  0  0  0  0  0  0
  142.9871  149.4799  176.4474 H   0  0  0  0  0  0  0  0  0  0  0  0
  140.6239  150.0885  176.4340 H   0  0  0  0  0  0  0  0  0  0  0  0
  139.3146  149.8817  174.4191 H   0  0  0  0  0  0  0  0  0  0  0  0
  140.3250  149.0579  172.3678 H   0  0  0  0  0  0  0  0  0  0  0  0
  1  2  2  0  0  0  0
  2  3  1  0  0  0  0
  2  4  1  0  0  0  0
  3 24  1  0  0  0  0
  3  5  1  0  0  0  0
  4  7  1  0  0  0  0
  4  6  1  0  0  0  0
  7 13  1  0  0  0  0
  7  8  1  0  0  0  0
  8  9  1  0  0  0  0
  8 36  1  0  0  0  0
  8 37  1  0  0  0  0
  9 10  1  0  0  0  0
  9 38  1  0  0  0  0
  9 39  1  0  0  0  0
 10 11  1  0  0  0  0
 10 40  1  0  0  0  0
 10 41  1  0  0  0  0
 11 12  1  0  0  0  0
 11 42  1  0  0  0  0
 11 43  1  0  0  0  0
 12  7  1  0  0  0  0
 12 44  1  0  0  0  0
 12 45  1  0  0  0  0
 13 14  2  0  0  0  0
 13 15  1  0  0  0  0
 15 17  1  0  0  0  0
 15 16  1  0  0  0  0
 17 18  2  0  0  0  0
 18 19  1  0  0  0  0
 18 46  1  0  0  0  0
 19 20  2  0  0  0  0
 19 47  1  0  0  0  0
 20 21  1  0  0  0  0
 20 48  1  0  0  0  0
 21 22  1  0  0  0  0
 21 23  2  0  0  0  0
 23 17  1  0  0  0  0
 23 49  1  0  0  0  0
 24 25  1  0  0  0  0
 24 50  1  0  0  0  0
 24 51  1  0  0  0  0
 25 26  1  0  0  0  0
 25 52  1  0  0  0  0
 25 53  1  0  0  0  0
 26 27  2  0  0  0  0
 27 28  1  0  0  0  0
 27 54  1  0  0  0  0
 28 29  1  0  0  0  0
 28 35  1  0  0  0  0
 29 30  2  0  0  0  0
 30 31  1  0  0  0  0
 30 55  1  0  0  0  0
 31 32  2  0  0  0  0
 31 56  1  0  0  0  0
 32 33  1  0  0  0  0
 32 57  1  0  0  0  0
 33 34  2  0  0  0  0
 33 58  1  0  0  0  0
 34 26  1  0  0  0  0
 34 29  1  0  0  0  0
M  END
>  <minimizedAffinity>
-9.54419

$$$$
