L2:Q8NER1:62450
     RDKit          3D

 62 65  0  0  0  0  0  0  0  0999 V2000
    8.2093   -3.0012   -0.6541 C   0  0  0  0  0  0  0  0  0  0  0  0
    7.9809   -1.7930    0.0596 O   0  0  0  0  0  0  0  0  0  0  0  0
    6.7078   -1.2966    0.0460 C   0  0  0  0  0  0  0  0  0  0  0  0
    6.5402   -0.0938    0.7333 C   0  0  0  0  0  0  0  0  0  0  0  0
    5.2883    0.5290    0.8012 C   0  0  0  0  0  0  0  0  0  0  0  0
    4.1828   -0.0475    0.1798 C   0  0  0  0  0  0  0  0  0  0  0  0
    2.8881    0.5026    0.2027 N   0  0  0  0  0  0  0  0  0  0  0  0
    2.4729    1.7032    0.7736 C   0  0  0  0  0  0  0  0  0  0  0  0
    3.2135    2.5354    1.2872 O   0  0  0  0  0  0  0  0  0  0  0  0
    0.9349    1.9489    0.5688 C   0  0  0  0  0  0  0  0  0  0  0  0
    0.3104    0.6414    0.8981 N   0  0  0  0  0  0  0  0  0  0  0  0
   -1.0073    0.3363    0.7017 C   0  0  0  0  0  0  0  0  0  0  0  0
   -1.8249    1.0848    0.1882 O   0  0  0  0  0  0  0  0  0  0  0  0
   -1.3041   -0.9286    1.1337 N   0  0  0  0  0  0  0  0  0  0  0  0
   -2.6507   -1.4640    1.0381 C   0  0  0  0  0  0  0  0  0  0  0  0
   -2.9792   -1.9627   -0.3714 C   0  0  0  0  0  0  0  0  0  0  0  0
   -4.3592   -2.5311   -0.4625 C   0  0  0  0  0  0  0  0  0  0  0  0
   -4.7055   -3.8682   -0.4475 C   0  0  0  0  0  0  0  0  0  0  0  0
   -6.0678   -3.9598   -0.5530 N   0  0  0  0  0  0  0  0  0  0  0  0
   -6.6256   -2.7057   -0.6338 C   0  0  0  0  0  0  0  0  0  0  0  0
   -7.9663   -2.3190   -0.7492 C   0  0  0  0  0  0  0  0  0  0  0  0
   -8.2422   -0.9499   -0.8136 C   0  0  0  0  0  0  0  0  0  0  0  0
   -7.2171   -0.0082   -0.7653 C   0  0  0  0  0  0  0  0  0  0  0  0
   -5.8822   -0.4123   -0.6504 C   0  0  0  0  0  0  0  0  0  0  0  0
   -5.5772   -1.7874   -0.5828 C   0  0  0  0  0  0  0  0  0  0  0  0
    0.4129    3.0479    1.5263 C   0  0  0  0  0  0  0  0  0  0  0  0
    0.1633    4.3969    0.8449 C   0  0  0  0  0  0  0  0  0  0  0  0
    1.2413    4.7374   -0.1733 C   0  0  0  0  0  0  0  0  0  0  0  0
    1.3672    3.6814   -1.2714 C   0  0  0  0  0  0  0  0  0  0  0  0
    0.7237    2.3383   -0.9127 C   0  0  0  0  0  0  0  0  0  0  0  0
    4.3513   -1.2558   -0.5076 C   0  0  0  0  0  0  0  0  0  0  0  0
    5.6052   -1.8774   -0.5759 C   0  0  0  0  0  0  0  0  0  0  0  0
    7.6310   -3.8269   -0.2265 H   0  0  0  0  0  0  0  0  0  0  0  0
    7.9933   -2.8773   -1.7204 H   0  0  0  0  0  0  0  0  0  0  0  0
    9.2700   -3.2521   -0.5562 H   0  0  0  0  0  0  0  0  0  0  0  0
    7.3934    0.3703    1.2230 H   0  0  0  0  0  0  0  0  0  0  0  0
    5.2179    1.4625    1.3502 H   0  0  0  0  0  0  0  0  0  0  0  0
    2.1611   -0.0220   -0.2719 H   0  0  0  0  0  0  0  0  0  0  0  0
    0.8105    0.0562    1.5524 H   0  0  0  0  0  0  0  0  0  0  0  0
   -0.5831   -1.5115    1.5271 H   0  0  0  0  0  0  0  0  0  0  0  0
   -3.3573   -0.6860    1.3503 H   0  0  0  0  0  0  0  0  0  0  0  0
   -2.7210   -2.2840    1.7618 H   0  0  0  0  0  0  0  0  0  0  0  0
   -2.2465   -2.7244   -0.6681 H   0  0  0  0  0  0  0  0  0  0  0  0
   -2.8741   -1.1471   -1.0976 H   0  0  0  0  0  0  0  0  0  0  0  0
   -4.0996   -4.7613   -0.3745 H   0  0  0  0  0  0  0  0  0  0  0  0
   -6.5953   -4.8213   -0.5709 H   0  0  0  0  0  0  0  0  0  0  0  0
   -8.7675   -3.0495   -0.7882 H   0  0  0  0  0  0  0  0  0  0  0  0
   -9.2732   -0.6156   -0.9037 H   0  0  0  0  0  0  0  0  0  0  0  0
   -7.4520    1.0521   -0.8174 H   0  0  0  0  0  0  0  0  0  0  0  0
   -5.0896    0.3311   -0.6138 H   0  0  0  0  0  0  0  0  0  0  0  0
    1.1097    3.1953    2.3607 H   0  0  0  0  0  0  0  0  0  0  0  0
   -0.5290    2.7428    1.9996 H   0  0  0  0  0  0  0  0  0  0  0  0
    0.1056    5.1837    1.6059 H   0  0  0  0  0  0  0  0  0  0  0  0
   -0.8136    4.3771    0.3455 H   0  0  0  0  0  0  0  0  0  0  0  0
    2.2034    4.8433    0.3425 H   0  0  0  0  0  0  0  0  0  0  0  0
    1.0327    5.7134   -0.6268 H   0  0  0  0  0  0  0  0  0  0  0  0
    2.4285    3.5376   -1.5082 H   0  0  0  0  0  0  0  0  0  0  0  0
    0.9036    4.0542   -2.1931 H   0  0  0  0  0  0  0  0  0  0  0  0
   -0.3461    2.4160   -1.1367 H   0  0  0  0  0  0  0  0  0  0  0  0
    1.1068    1.5654   -1.5905 H   0  0  0  0  0  0  0  0  0  0  0  0
    3.5119   -1.7326   -1.0074 H   0  0  0  0  0  0  0  0  0  0  0  0
    5.6837   -2.8108   -1.1229 H   0  0  0  0  0  0  0  0  0  0  0  0
  1  2  1  0
  2  3  1  0
  3  4  2  0
  4  5  1  0
  5  6  2  0
  6  7  1  0
  7  8  1  0
  8  9  2  0
  8 10  1  0
 10 11  1  0
 11 12  1  0
 12 13  2  0
 12 14  1  0
 14 15  1  0
 15 16  1  0
 16 17  1  0
 17 18  2  0
 18 19  1  0
 19 20  1  0
 20 21  2  0
 21 22  1  0
 22 23  2  0
 23 24  1  0
 24 25  2  0
 10 26  1  0
 26 27  1  0
 27 28  1  0
 28 29  1  0
 29 30  1  0
  6 31  1  0
 31 32  2  0
 32  3  1  0
 30 10  1  0
 25 17  1  0
 25 20  1  0
  1 33  1  0
  1 34  1  0
  1 35  1  0
  4 36  1  0
  5 37  1  0
  7 38  1  0
 11 39  1  0
 14 40  1  0
 15 41  1  0
 15 42  1  0
 16 43  1  0
 16 44  1  0
 18 45  1  0
 19 46  1  0
 21 47  1  0
 22 48  1  0
 23 49  1  0
 24 50  1  0
 26 51  1  0
 26 52  1  0
 27 53  1  0
 27 54  1  0
 28 55  1  0
 28 56  1  0
 29 57  1  0
 29 58  1  0
 30 59  1  0
 30 60  1  0
 31 61  1  0
 32 62  1  0
M  END
>  <mol_id>  (1) 
62450

>  <source_index>  (1) 
4

>  <layer>  (1) 
L2

>  <uniprot>  (1) 
Q8NER1

>  <paff>  (1) 
6.0297000000000001

>  <smiles>  (1) 
COc1ccc(NC(=O)C2(NC(=O)NCCc3c[nH]c4ccccc34)CCCCC2)cc1

$$$$
