L1:Q96MU7:23658
     RDKit          3D

 37 39  0  0  0  0  0  0  0  0999 V2000
    1.0781    9.0722    7.6142 C   0  0  0  0  0  0  0  0  0  0  0  0
    0.4015    9.7788    6.6984 N   0  0  0  0  0  0  0  0  0  0  0  0
   -0.4426    9.1501    5.8951 C   0  0  0  0  0  0  0  0  0  0  0  0
   -1.3408   10.2051    4.8049 Cl  0  0  0  0  0  0  0  0  0  0  0  0
   -0.6981    7.8478    5.7949 N   0  0  0  0  0  0  0  0  0  0  0  0
   -0.0104    7.1589    6.7237 C   0  0  0  0  0  0  0  0  0  0  0  0
    0.8788    7.6909    7.6695 C   0  0  0  0  0  0  0  0  0  0  0  0
    1.4201    6.6867    8.4371 N   0  0  0  0  0  0  0  0  0  0  0  0
    0.8562    5.5791    7.9821 C   0  0  0  0  0  0  0  0  0  0  0  0
   -0.0154    5.8098    6.9434 N   0  0  0  0  0  0  0  0  0  0  0  0
    1.8875   11.1655    8.5690 C   0  0  0  0  0  0  0  0  0  0  0  0
    2.0252    9.7231    8.3879 N   0  0  0  0  0  0  0  0  0  0  0  0
    2.1806    9.2199    9.2554 H   0  0  0  0  0  0  0  0  0  0  0  0
   -0.8229    4.8131    6.2531 C   0  0  0  0  0  0  0  0  0  0  0  0
   -0.0395    3.9756    5.2910 C   0  0  0  0  0  0  0  0  0  0  0  0
   -0.0309    4.2895    3.9345 C   0  0  0  0  0  0  0  0  0  0  0  0
    0.5196    3.4224    2.9965 C   0  0  0  0  0  0  0  0  0  0  0  0
    1.0805    2.2366    3.4196 C   0  0  0  0  0  0  0  0  0  0  0  0
    1.1379    1.9373    4.7806 C   0  0  0  0  0  0  0  0  0  0  0  0
    0.6108    2.8279    5.7096 C   0  0  0  0  0  0  0  0  0  0  0  0
    1.7240    0.6719    5.2672 C   0  0  0  0  0  0  0  0  0  0  0  0
    2.1935    0.5362    6.3901 O   0  0  0  0  0  0  0  0  0  0  0  0
    1.6583   -0.2807    4.3375 O   0  0  0  0  0  0  0  0  0  0  0  0
    2.0026   -1.6226    4.7474 C   0  0  0  0  0  0  0  0  0  0  0  0
    1.0247    4.5943    8.3649 H   0  0  0  0  0  0  0  0  0  0  0  0
    1.8578   11.6473    7.5973 H   0  0  0  0  0  0  0  0  0  0  0  0
    2.7446   11.5326    9.1258 H   0  0  0  0  0  0  0  0  0  0  0  0
    0.9744   11.4349    9.1015 H   0  0  0  0  0  0  0  0  0  0  0  0
   -1.6197    5.3436    5.7511 H   0  0  0  0  0  0  0  0  0  0  0  0
   -1.2690    4.1890    7.0250 H   0  0  0  0  0  0  0  0  0  0  0  0
   -0.5476    5.1718    3.5791 H   0  0  0  0  0  0  0  0  0  0  0  0
    0.4963    3.6759    1.9426 H   0  0  0  0  0  0  0  0  0  0  0  0
    1.4876    1.5452    2.6981 H   0  0  0  0  0  0  0  0  0  0  0  0
    0.6908    2.5777    6.7555 H   0  0  0  0  0  0  0  0  0  0  0  0
    1.3307   -1.9377    5.5418 H   0  0  0  0  0  0  0  0  0  0  0  0
    3.0332   -1.6534    5.0863 H   0  0  0  0  0  0  0  0  0  0  0  0
    1.8850   -2.2530    3.8773 H   0  0  0  0  0  0  0  0  0  0  0  0
  1  2  2  0
  2  3  1  0
  3  4  1  0
  3  5  2  0
  5  6  1  0
  6  7  2  0
  7  8  1  0
  7  1  1  0
  8  9  2  0
  9 10  1  0
  9 25  1  0
 10 14  1  0
 10  6  1  0
 11 12  1  0
 11 26  1  0
 11 27  1  0
 11 28  1  0
 12  1  1  0
 12 13  1  0
 14 15  1  0
 14 29  1  0
 14 30  1  0
 15 16  2  0
 16 17  1  0
 16 31  1  0
 17 18  2  0
 17 32  1  0
 18 19  1  0
 18 33  1  0
 19 21  1  0
 19 20  2  0
 20 15  1  0
 20 34  1  0
 21 22  2  0
 21 23  1  0
 23 24  1  0
 24 35  1  0
 24 36  1  0
 24 37  1  0
M  END
>  <minimizedAffinity>  (1) 
-6.93345

>  <mol_id>  (1) 
23658

>  <source_index>  (1) 
0

>  <layer>  (1) 
L1

>  <uniprot>  (1) 
Q96MU7

>  <paff>  (1) 
6

>  <smiles>  (1) 
CNc1c2c(nc(n1)Cl)n(cn2)Cc3cccc(c3)C(=O)OC

>  <aimnet_interaction_kcal_mol>  (1) 
-66.768601267268608

$$$$
L1:Q96MU7:24173
     RDKit          3D

 34 36  0  0  0  0  0  0  0  0999 V2000
    1.0927   -0.1367    5.0438 C   0  0  0  0  0  0  0  0  0  0  0  0
    1.5282    0.0186    3.7862 N   0  0  0  0  0  0  0  0  0  0  0  0
    1.4976    1.2173    3.2301 C   0  0  0  0  0  0  0  0  0  0  0  0
    1.8806    1.2702    1.5459 Cl  0  0  0  0  0  0  0  0  0  0  0  0
    1.1673    2.3816    3.7887 N   0  0  0  0  0  0  0  0  0  0  0  0
    0.7609    2.2006    5.0390 C   0  0  0  0  0  0  0  0  0  0  0  0
    0.6810    1.0136    5.7588 C   0  0  0  0  0  0  0  0  0  0  0  0
    0.1795    1.2578    7.0282 N   0  0  0  0  0  0  0  0  0  0  0  0
   -0.0530    2.5548    7.0547 C   0  0  0  0  0  0  0  0  0  0  0  0
    0.2909    3.1855    5.8734 N   0  0  0  0  0  0  0  0  0  0  0  0
    1.3323   -2.5643    4.7892 C   0  0  0  0  0  0  0  0  0  0  0  0
    1.0470   -1.3679    5.5725 N   0  0  0  0  0  0  0  0  0  0  0  0
    0.6520   -1.4572    6.4941 H   0  0  0  0  0  0  0  0  0  0  0  0
    0.3958    4.5649    5.4662 C   0  0  0  0  0  0  0  0  0  0  0  0
   -0.1360    5.5950    6.4110 C   0  0  0  0  0  0  0  0  0  0  0  0
   -1.4867    5.9533    6.3396 C   0  0  0  0  0  0  0  0  0  0  0  0
   -1.9065    7.1194    6.9717 C   0  0  0  0  0  0  0  0  0  0  0  0
   -3.5550    7.6840    6.7664 Cl  0  0  0  0  0  0  0  0  0  0  0  0
   -1.0675    7.8329    7.7974 C   0  0  0  0  0  0  0  0  0  0  0  0
    0.2510    7.3723    7.9841 C   0  0  0  0  0  0  0  0  0  0  0  0
    0.7193    6.2697    7.2529 C   0  0  0  0  0  0  0  0  0  0  0  0
    1.1291    7.9954    8.9307 C   0  0  0  0  0  0  0  0  0  0  0  0
    2.3217    7.6962    9.0853 O   0  0  0  0  0  0  0  0  0  0  0  0
    0.5541    8.9819    9.6662 O   0  0  0  0  0  0  0  0  0  0  0  0
    1.2328    9.2851   10.2886 H   0  0  0  0  0  0  0  0  0  0  0  0
   -0.4585    3.1384    7.8593 H   0  0  0  0  0  0  0  0  0  0  0  0
    0.8635   -2.4889    3.8144 H   0  0  0  0  0  0  0  0  0  0  0  0
    0.9598   -3.4420    5.3118 H   0  0  0  0  0  0  0  0  0  0  0  0
    2.4022   -2.6890    4.6381 H   0  0  0  0  0  0  0  0  0  0  0  0
   -0.0995    4.6201    4.4962 H   0  0  0  0  0  0  0  0  0  0  0  0
    1.4540    4.7357    5.2762 H   0  0  0  0  0  0  0  0  0  0  0  0
   -2.1816    5.3257    5.8191 H   0  0  0  0  0  0  0  0  0  0  0  0
   -1.4353    8.7083    8.3026 H   0  0  0  0  0  0  0  0  0  0  0  0
    1.7421    5.9346    7.3481 H   0  0  0  0  0  0  0  0  0  0  0  0
  1  2  2  0
  2  3  1  0
  3  4  1  0
  3  5  2  0
  5  6  1  0
  6  7  2  0
  7  8  1  0
  7  1  1  0
  8  9  2  0
  9 10  1  0
  9 26  1  0
 10 14  1  0
 10  6  1  0
 11 12  1  0
 11 27  1  0
 11 28  1  0
 11 29  1  0
 12  1  1  0
 12 13  1  0
 14 15  1  0
 14 30  1  0
 14 31  1  0
 15 16  2  0
 16 17  1  0
 16 32  1  0
 17 18  1  0
 17 19  2  0
 19 20  1  0
 19 33  1  0
 20 22  1  0
 20 21  2  0
 21 15  1  0
 21 34  1  0
 22 23  2  0
 22 24  1  0
 24 25  1  0
M  END
>  <minimizedAffinity>  (2) 
-6.32990

>  <mol_id>  (2) 
24173

>  <source_index>  (2) 
1

>  <layer>  (2) 
L1

>  <uniprot>  (2) 
Q96MU7

>  <paff>  (2) 
6.7446999999999999

>  <smiles>  (2) 
CNc1nc(Cl)nc2c1ncn2Cc1cc(Cl)cc(C(=O)O)c1

>  <aimnet_interaction_kcal_mol>  (2) 
-42.262744269610856

$$$$
L1:Q96MU7:43216
     RDKit          3D

 37 39  0  0  0  0  0  0  0  0999 V2000
   -0.7444    7.9237    8.9598 C   0  0  0  0  0  0  0  0  0  0  0  0
   -2.0712    8.0553    8.8279 N   0  0  0  0  0  0  0  0  0  0  0  0
   -2.6520    7.6285    7.7155 C   0  0  0  0  0  0  0  0  0  0  0  0
   -4.3946    7.8521    7.6653 Cl  0  0  0  0  0  0  0  0  0  0  0  0
   -2.1210    7.0139    6.6690 N   0  0  0  0  0  0  0  0  0  0  0  0
   -0.8089    6.8389    6.8533 C   0  0  0  0  0  0  0  0  0  0  0  0
   -0.0271    7.3548    7.8862 C   0  0  0  0  0  0  0  0  0  0  0  0
    1.2930    6.9548    7.7319 N   0  0  0  0  0  0  0  0  0  0  0  0
    1.2755    6.1539    6.6773 C   0  0  0  0  0  0  0  0  0  0  0  0
    0.0274    6.0562    6.0935 N   0  0  0  0  0  0  0  0  0  0  0  0
   -0.9075    8.2485   11.3779 C   0  0  0  0  0  0  0  0  0  0  0  0
   -0.1611    8.3043   10.1269 N   0  0  0  0  0  0  0  0  0  0  0  0
    0.7999    7.9983   10.1729 H   0  0  0  0  0  0  0  0  0  0  0  0
   -0.4645    5.0975    5.1053 C   0  0  0  0  0  0  0  0  0  0  0  0
    0.3193    3.8354    5.0394 C   0  0  0  0  0  0  0  0  0  0  0  0
    0.6886    3.2154    6.2335 C   0  0  0  0  0  0  0  0  0  0  0  0
    1.2566    1.9702    6.2124 C   0  0  0  0  0  0  0  0  0  0  0  0
    1.4380    1.2935    5.0081 C   0  0  0  0  0  0  0  0  0  0  0  0
    1.1410    1.9373    3.8066 C   0  0  0  0  0  0  0  0  0  0  0  0
    0.5953    3.2099    3.8228 C   0  0  0  0  0  0  0  0  0  0  0  0
    1.9028   -0.1040    5.1234 C   0  0  0  0  0  0  0  0  0  0  0  0
    2.4113   -0.5125    6.1569 O   0  0  0  0  0  0  0  0  0  0  0  0
    1.6731   -0.8052    4.0256 O   0  0  0  0  0  0  0  0  0  0  0  0
    1.7999   -2.2509    4.1191 C   0  0  0  0  0  0  0  0  0  0  0  0
    2.1074    5.5810    6.3093 H   0  0  0  0  0  0  0  0  0  0  0  0
   -1.9112    8.6193   11.1987 H   0  0  0  0  0  0  0  0  0  0  0  0
   -0.4216    8.8797   12.1183 H   0  0  0  0  0  0  0  0  0  0  0  0
   -0.9856    7.2329   11.7640 H   0  0  0  0  0  0  0  0  0  0  0  0
   -0.5204    5.5859    4.1292 H   0  0  0  0  0  0  0  0  0  0  0  0
   -1.4966    4.8918    5.3747 H   0  0  0  0  0  0  0  0  0  0  0  0
    0.4990    3.7070    7.1745 H   0  0  0  0  0  0  0  0  0  0  0  0
    1.5430    1.4634    7.1229 H   0  0  0  0  0  0  0  0  0  0  0  0
    1.3403    1.4578    2.8616 H   0  0  0  0  0  0  0  0  0  0  0  0
    0.3613    3.6950    2.8828 H   0  0  0  0  0  0  0  0  0  0  0  0
    1.6218   -2.6379    3.1276 H   0  0  0  0  0  0  0  0  0  0  0  0
    1.0561   -2.6295    4.8175 H   0  0  0  0  0  0  0  0  0  0  0  0
    2.7899   -2.5136    4.4611 H   0  0  0  0  0  0  0  0  0  0  0  0
  1  2  2  0
  2  3  1  0
  3  4  1  0
  3  5  2  0
  5  6  1  0
  6  7  2  0
  7  8  1  0
  7  1  1  0
  8  9  2  0
  9 10  1  0
  9 25  1  0
 10 14  1  0
 10  6  1  0
 11 12  1  0
 11 26  1  0
 11 27  1  0
 11 28  1  0
 12  1  1  0
 12 13  1  0
 14 15  1  0
 14 29  1  0
 14 30  1  0
 15 16  2  0
 16 17  1  0
 16 31  1  0
 17 18  2  0
 17 32  1  0
 18 21  1  0
 18 19  1  0
 19 20  2  0
 19 33  1  0
 20 15  1  0
 20 34  1  0
 21 22  2  0
 21 23  1  0
 23 24  1  0
 24 35  1  0
 24 36  1  0
 24 37  1  0
M  END
>  <minimizedAffinity>  (3) 
-6.77846

>  <mol_id>  (3) 
43216

>  <source_index>  (3) 
2

>  <layer>  (3) 
L1

>  <uniprot>  (3) 
Q96MU7

>  <paff>  (3) 
6.0132000000000003

>  <smiles>  (3) 
CNc1nc(Cl)nc2c1ncn2Cc1ccc(C(=O)OC)cc1

>  <aimnet_interaction_kcal_mol>  (3) 
-50.21265473486077

$$$$
L1:Q96MU7:58793
     RDKit          3D

 34 36  0  0  0  0  0  0  0  0999 V2000
   -0.7710    7.9578    9.0552 C   0  0  0  0  0  0  0  0  0  0  0  0
   -2.0981    8.1027    8.9314 N   0  0  0  0  0  0  0  0  0  0  0  0
   -2.6857    7.7067    7.8107 C   0  0  0  0  0  0  0  0  0  0  0  0
   -4.4272    7.9378    7.7724 Cl  0  0  0  0  0  0  0  0  0  0  0  0
   -2.1625    7.1201    6.7443 N   0  0  0  0  0  0  0  0  0  0  0  0
   -0.8512    6.9239    6.9231 C   0  0  0  0  0  0  0  0  0  0  0  0
   -0.0637    7.3963    7.9712 C   0  0  0  0  0  0  0  0  0  0  0  0
    1.2467    6.9651    7.8143 N   0  0  0  0  0  0  0  0  0  0  0  0
    1.2176    6.1947    6.7397 C   0  0  0  0  0  0  0  0  0  0  0  0
   -0.0308    6.1426    6.1472 N   0  0  0  0  0  0  0  0  0  0  0  0
   -0.9062    8.2815   11.4777 C   0  0  0  0  0  0  0  0  0  0  0  0
   -0.1740    8.3201   10.2197 N   0  0  0  0  0  0  0  0  0  0  0  0
    0.7861    8.0091   10.2538 H   0  0  0  0  0  0  0  0  0  0  0  0
   -0.5499    5.2252    5.1340 C   0  0  0  0  0  0  0  0  0  0  0  0
    0.2172    3.9593    5.0287 C   0  0  0  0  0  0  0  0  0  0  0  0
    0.6542    3.4606    3.8027 C   0  0  0  0  0  0  0  0  0  0  0  0
    1.3772    2.2832    3.7466 C   0  0  0  0  0  0  0  0  0  0  0  0
    1.6825    1.6130    4.9335 C   0  0  0  0  0  0  0  0  0  0  0  0
    1.2150    2.0988    6.1539 C   0  0  0  0  0  0  0  0  0  0  0  0
    0.4589    3.2385    6.1994 C   0  0  0  0  0  0  0  0  0  0  0  0
    2.4973    0.3937    4.9908 C   0  0  0  0  0  0  0  0  0  0  0  0
    3.1720    0.1010    5.9689 O   0  0  0  0  0  0  0  0  0  0  0  0
    2.3957   -0.3210    3.8761 O   0  0  0  0  0  0  0  0  0  0  0  0
    2.9183   -1.1408    3.9140 H   0  0  0  0  0  0  0  0  0  0  0  0
    2.0410    5.6208    6.3568 H   0  0  0  0  0  0  0  0  0  0  0  0
   -1.9243    8.6077   11.2950 H   0  0  0  0  0  0  0  0  0  0  0  0
   -0.4403    8.9570   12.1919 H   0  0  0  0  0  0  0  0  0  0  0  0
   -0.9432    7.2767   11.8957 H   0  0  0  0  0  0  0  0  0  0  0  0
   -0.5940    5.7470    4.1762 H   0  0  0  0  0  0  0  0  0  0  0  0
   -1.5840    5.0302    5.4002 H   0  0  0  0  0  0  0  0  0  0  0  0
    0.4105    3.9663    2.8750 H   0  0  0  0  0  0  0  0  0  0  0  0
    1.7101    1.9113    2.7890 H   0  0  0  0  0  0  0  0  0  0  0  0
    1.4533    1.5447    7.0499 H   0  0  0  0  0  0  0  0  0  0  0  0
    0.0374    3.5882    7.1341 H   0  0  0  0  0  0  0  0  0  0  0  0
  1  2  2  0
  2  3  1  0
  3  4  1  0
  3  5  2  0
  5  6  1  0
  6  7  2  0
  7  8  1  0
  7  1  1  0
  8  9  2  0
  9 10  1  0
  9 25  1  0
 10 14  1  0
 10  6  1  0
 11 12  1  0
 11 26  1  0
 11 27  1  0
 11 28  1  0
 12  1  1  0
 12 13  1  0
 14 15  1  0
 14 29  1  0
 14 30  1  0
 15 16  2  0
 16 17  1  0
 16 31  1  0
 17 18  2  0
 17 32  1  0
 18 21  1  0
 18 19  1  0
 19 20  2  0
 19 33  1  0
 20 15  1  0
 20 34  1  0
 21 22  2  0
 21 23  1  0
 23 24  1  0
M  END
>  <minimizedAffinity>  (4) 
-6.62311

>  <mol_id>  (4) 
58793

>  <source_index>  (4) 
3

>  <layer>  (4) 
L1

>  <uniprot>  (4) 
Q96MU7

>  <paff>  (4) 
6.0605000000000002

>  <smiles>  (4) 
CNc1c2c(nc(n1)Cl)n(cn2)Cc3ccc(cc3)C(=O)O

>  <aimnet_interaction_kcal_mol>  (4) 
-49.703195782599764

$$$$
L1:Q96MU7:73954
     RDKit          3D

 37 39  0  0  0  0  0  0  0  0999 V2000
    1.0326   -0.0673    5.0911 C   0  0  0  0  0  0  0  0  0  0  0  0
    1.4532    0.0814    3.8302 N   0  0  0  0  0  0  0  0  0  0  0  0
    1.4608    1.2794    3.2755 C   0  0  0  0  0  0  0  0  0  0  0  0
    1.8693    1.3134    1.5971 Cl  0  0  0  0  0  0  0  0  0  0  0  0
    1.1541    2.4505    3.8376 N   0  0  0  0  0  0  0  0  0  0  0  0
    0.7361    2.2724    5.0854 C   0  0  0  0  0  0  0  0  0  0  0  0
    0.6418    1.0864    5.8081 C   0  0  0  0  0  0  0  0  0  0  0  0
    0.1329    1.3353    7.0756 N   0  0  0  0  0  0  0  0  0  0  0  0
   -0.0949    2.6323    7.0948 C   0  0  0  0  0  0  0  0  0  0  0  0
    0.2615    3.2594    5.9145 N   0  0  0  0  0  0  0  0  0  0  0  0
    1.0724   -2.4698    4.7384 C   0  0  0  0  0  0  0  0  0  0  0  0
    0.9925   -1.3052    5.6117 N   0  0  0  0  0  0  0  0  0  0  0  0
    0.5776   -1.4008    6.5242 H   0  0  0  0  0  0  0  0  0  0  0  0
    0.3472    4.6361    5.4973 C   0  0  0  0  0  0  0  0  0  0  0  0
   -0.1788    5.6592    6.4505 C   0  0  0  0  0  0  0  0  0  0  0  0
   -1.5453    5.9381    6.4798 C   0  0  0  0  0  0  0  0  0  0  0  0
   -1.9763    7.0806    7.1331 C   0  0  0  0  0  0  0  0  0  0  0  0
   -3.6825    7.4743    7.1183 Cl  0  0  0  0  0  0  0  0  0  0  0  0
   -1.1077    7.8760    7.8587 C   0  0  0  0  0  0  0  0  0  0  0  0
    0.2499    7.5229    7.9165 C   0  0  0  0  0  0  0  0  0  0  0  0
    0.7045    6.3972    7.2186 C   0  0  0  0  0  0  0  0  0  0  0  0
    1.2089    8.3729    8.6745 C   0  0  0  0  0  0  0  0  0  0  0  0
    2.0483    9.0968    8.1406 O   0  0  0  0  0  0  0  0  0  0  0  0
    1.1713    8.3322   10.0127 O   0  0  0  0  0  0  0  0  0  0  0  0
    0.1987    7.4930   10.6710 C   0  0  0  0  0  0  0  0  0  0  0  0
   -0.5006    3.2214    7.8951 H   0  0  0  0  0  0  0  0  0  0  0  0
    0.2971   -2.4291    3.9789 H   0  0  0  0  0  0  0  0  0  0  0  0
    0.9645   -3.3795    5.3219 H   0  0  0  0  0  0  0  0  0  0  0  0
    2.0261   -2.4793    4.2263 H   0  0  0  0  0  0  0  0  0  0  0  0
   -0.1653    4.6866    4.5356 H   0  0  0  0  0  0  0  0  0  0  0  0
    1.4003    4.8147    5.2880 H   0  0  0  0  0  0  0  0  0  0  0  0
   -2.2465    5.2565    6.0359 H   0  0  0  0  0  0  0  0  0  0  0  0
   -1.4909    8.7480    8.3619 H   0  0  0  0  0  0  0  0  0  0  0  0
    1.7334    6.0674    7.2648 H   0  0  0  0  0  0  0  0  0  0  0  0
    0.5237    7.4353   11.7031 H   0  0  0  0  0  0  0  0  0  0  0  0
    0.1819    6.5006   10.2345 H   0  0  0  0  0  0  0  0  0  0  0  0
   -0.7915    7.9358   10.6189 H   0  0  0  0  0  0  0  0  0  0  0  0
  1  2  2  0
  2  3  1  0
  3  4  1  0
  3  5  2  0
  5  6  1  0
  6  7  2  0
  7  8  1  0
  7  1  1  0
  8  9  2  0
  9 10  1  0
  9 26  1  0
 10 14  1  0
 10  6  1  0
 11 12  1  0
 11 27  1  0
 11 28  1  0
 11 29  1  0
 12  1  1  0
 12 13  1  0
 14 15  1  0
 14 30  1  0
 14 31  1  0
 15 16  2  0
 16 17  1  0
 16 32  1  0
 17 18  1  0
 17 19  2  0
 19 20  1  0
 19 33  1  0
 20 22  1  0
 20 21  2  0
 21 15  1  0
 21 34  1  0
 22 23  2  0
 22 24  1  0
 24 25  1  0
 25 35  1  0
 25 36  1  0
 25 37  1  0
M  END
>  <minimizedAffinity>  (5) 
-6.12536

>  <mol_id>  (5) 
73954

>  <source_index>  (5) 
4

>  <layer>  (5) 
L1

>  <uniprot>  (5) 
Q96MU7

>  <paff>  (5) 
6

>  <smiles>  (5) 
CNc1nc(Cl)nc2c1ncn2Cc1cc(Cl)cc(C(=O)OC)c1

>  <aimnet_interaction_kcal_mol>  (5) 
-47.575645302435625

$$$$
L1:Q96MU7:75808
     RDKit          3D

 34 36  0  0  0  0  0  0  0  0999 V2000
    1.0447    9.0333    7.5985 C   0  0  0  0  0  0  0  0  0  0  0  0
    0.3536    9.7248    6.6833 N   0  0  0  0  0  0  0  0  0  0  0  0
   -0.4763    9.0745    5.8819 C   0  0  0  0  0  0  0  0  0  0  0  0
   -1.4028   10.1085    4.7943 Cl  0  0  0  0  0  0  0  0  0  0  0  0
   -0.6973    7.7659    5.7780 N   0  0  0  0  0  0  0  0  0  0  0  0
   -0.0019    7.0922    6.7114 C   0  0  0  0  0  0  0  0  0  0  0  0
    0.8605    7.6511    7.6663 C   0  0  0  0  0  0  0  0  0  0  0  0
    1.4020    6.6683    8.4586 N   0  0  0  0  0  0  0  0  0  0  0  0
    0.8699    5.5451    8.0077 C   0  0  0  0  0  0  0  0  0  0  0  0
    0.0202    5.7430    6.9426 N   0  0  0  0  0  0  0  0  0  0  0  0
    1.8527   11.1409    8.5221 C   0  0  0  0  0  0  0  0  0  0  0  0
    1.9932    9.6969    8.3601 N   0  0  0  0  0  0  0  0  0  0  0  0
    2.1518    9.2049    9.2336 H   0  0  0  0  0  0  0  0  0  0  0  0
   -0.7046    4.7121    6.2110 C   0  0  0  0  0  0  0  0  0  0  0  0
    0.1550    3.9366    5.2596 C   0  0  0  0  0  0  0  0  0  0  0  0
    0.0505    4.1571    3.8885 C   0  0  0  0  0  0  0  0  0  0  0  0
    0.6638    3.3123    2.9708 C   0  0  0  0  0  0  0  0  0  0  0  0
    1.4443    2.2678    3.4200 C   0  0  0  0  0  0  0  0  0  0  0  0
    1.6550    2.1071    4.7934 C   0  0  0  0  0  0  0  0  0  0  0  0
    1.0056    2.9386    5.7021 C   0  0  0  0  0  0  0  0  0  0  0  0
    2.6125    1.1382    5.3166 C   0  0  0  0  0  0  0  0  0  0  0  0
    3.1187    1.2093    6.4358 O   0  0  0  0  0  0  0  0  0  0  0  0
    2.9128    0.1720    4.4415 O   0  0  0  0  0  0  0  0  0  0  0  0
    3.6349   -0.3693    4.8019 H   0  0  0  0  0  0  0  0  0  0  0  0
    1.0394    4.5733    8.4205 H   0  0  0  0  0  0  0  0  0  0  0  0
    0.9418   11.4157    9.0558 H   0  0  0  0  0  0  0  0  0  0  0  0
    1.8169   11.6094    7.5440 H   0  0  0  0  0  0  0  0  0  0  0  0
    2.7120   11.5178    9.0693 H   0  0  0  0  0  0  0  0  0  0  0  0
   -1.5167    5.2034    5.6937 H   0  0  0  0  0  0  0  0  0  0  0  0
   -1.1390    4.0496    6.9578 H   0  0  0  0  0  0  0  0  0  0  0  0
   -0.5767    4.9530    3.5110 H   0  0  0  0  0  0  0  0  0  0  0  0
    0.5430    3.4997    1.9103 H   0  0  0  0  0  0  0  0  0  0  0  0
    1.9162    1.6108    2.7070 H   0  0  0  0  0  0  0  0  0  0  0  0
    1.1798    2.7689    6.7518 H   0  0  0  0  0  0  0  0  0  0  0  0
  1  2  2  0
  2  3  1  0
  3  4  1  0
  3  5  2  0
  5  6  1  0
  6  7  2  0
  7  8  1  0
  7  1  1  0
  8  9  2  0
  9 10  1  0
  9 25  1  0
 10 14  1  0
 10  6  1  0
 11 12  1  0
 11 26  1  0
 11 27  1  0
 11 28  1  0
 12  1  1  0
 12 13  1  0
 14 15  1  0
 14 29  1  0
 14 30  1  0
 15 16  2  0
 16 17  1  0
 16 31  1  0
 17 18  2  0
 17 32  1  0
 18 19  1  0
 18 33  1  0
 19 21  1  0
 19 20  2  0
 20 15  1  0
 20 34  1  0
 21 22  2  0
 21 23  1  0
 23 24  1  0
M  END
>  <minimizedAffinity>  (6) 
-6.94643

>  <mol_id>  (6) 
75808

>  <source_index>  (6) 
5

>  <layer>  (6) 
L1

>  <uniprot>  (6) 
Q96MU7

>  <paff>  (6) 
6.2923999999999998

>  <smiles>  (6) 
CNc1nc(Cl)nc2c1ncn2Cc1cccc(C(=O)O)c1

>  <aimnet_interaction_kcal_mol>  (6) 
-68.455858839215765

$$$$
L1:Q96MU7:76036
     RDKit          3D

 35 37  0  0  0  0  0  0  0  0999 V2000
   -0.3875    7.8916    8.8007 C   0  0  0  0  0  0  0  0  0  0  0  0
   -1.5607    8.4154    8.4139 N   0  0  0  0  0  0  0  0  0  0  0  0
   -2.0934    8.0353    7.2615 C   0  0  0  0  0  0  0  0  0  0  0  0
   -3.5843    8.8663    6.8293 Cl  0  0  0  0  0  0  0  0  0  0  0  0
   -1.6620    7.1182    6.4051 N   0  0  0  0  0  0  0  0  0  0  0  0
   -0.5200    6.5705    6.8451 C   0  0  0  0  0  0  0  0  0  0  0  0
    0.2488    6.9915    7.9294 C   0  0  0  0  0  0  0  0  0  0  0  0
    1.3795    6.2018    8.0494 N   0  0  0  0  0  0  0  0  0  0  0  0
    1.2401    5.2686    7.1195 C   0  0  0  0  0  0  0  0  0  0  0  0
    0.1087    5.4497    6.3483 N   0  0  0  0  0  0  0  0  0  0  0  0
   -0.7513    8.6381   11.1121 C   0  0  0  0  0  0  0  0  0  0  0  0
    0.1157    8.2170   10.0240 N   0  0  0  0  0  0  0  0  0  0  0  0
    0.8888    7.6209   10.2815 H   0  0  0  0  0  0  0  0  0  0  0  0
   -0.5194    4.5122    5.4279 C   0  0  0  0  0  0  0  0  0  0  0  0
   -0.0385    3.1090    5.6048 C   0  0  0  0  0  0  0  0  0  0  0  0
   -0.6259    2.2843    6.5580 C   0  0  0  0  0  0  0  0  0  0  0  0
   -0.1779    0.9900    6.7300 C   0  0  0  0  0  0  0  0  0  0  0  0
    0.8636    0.4761    5.9613 C   0  0  0  0  0  0  0  0  0  0  0  0
    1.4367    1.3115    5.0012 C   0  0  0  0  0  0  0  0  0  0  0  0
    2.7526    0.7291    4.0463 Cl  0  0  0  0  0  0  0  0  0  0  0  0
    0.9844    2.6091    4.8134 C   0  0  0  0  0  0  0  0  0  0  0  0
    1.3079   -0.7837    6.2008 O   0  0  0  0  0  0  0  0  0  0  0  0
    1.0140   -1.7660    5.1676 C   0  0  0  0  0  0  0  0  0  0  0  0
    1.8826    4.4253    6.9428 H   0  0  0  0  0  0  0  0  0  0  0  0
   -1.2525    7.7971   11.5978 H   0  0  0  0  0  0  0  0  0  0  0  0
   -1.5046    9.3172   10.7303 H   0  0  0  0  0  0  0  0  0  0  0  0
   -0.1479    9.1597   11.8515 H   0  0  0  0  0  0  0  0  0  0  0  0
   -0.3609    4.8543    4.4013 H   0  0  0  0  0  0  0  0  0  0  0  0
   -1.5863    4.5702    5.6090 H   0  0  0  0  0  0  0  0  0  0  0  0
   -1.4436    2.6637    7.1569 H   0  0  0  0  0  0  0  0  0  0  0  0
   -0.6258    0.3441    7.4679 H   0  0  0  0  0  0  0  0  0  0  0  0
    1.4278    3.2191    4.0357 H   0  0  0  0  0  0  0  0  0  0  0  0
    1.0457   -2.7435    5.6352 H   0  0  0  0  0  0  0  0  0  0  0  0
    1.7458   -1.7129    4.3697 H   0  0  0  0  0  0  0  0  0  0  0  0
    0.0261   -1.5760    4.7545 H   0  0  0  0  0  0  0  0  0  0  0  0
  1  2  2  0
  2  3  1  0
  3  4  1  0
  3  5  2  0
  5  6  1  0
  6  7  2  0
  7  8  1  0
  7  1  1  0
  8  9  2  0
  9 10  1  0
  9 24  1  0
 10 14  1  0
 10  6  1  0
 11 12  1  0
 11 25  1  0
 11 26  1  0
 11 27  1  0
 12  1  1  0
 12 13  1  0
 14 15  1  0
 14 28  1  0
 14 29  1  0
 15 16  2  0
 16 17  1  0
 16 30  1  0
 17 18  2  0
 17 31  1  0
 18 22  1  0
 18 19  1  0
 19 20  1  0
 19 21  2  0
 21 15  1  0
 21 32  1  0
 22 23  1  0
 23 33  1  0
 23 34  1  0
 23 35  1  0
M  END
>  <minimizedAffinity>  (7) 
-6.35241

>  <mol_id>  (7) 
76036

>  <source_index>  (7) 
6

>  <layer>  (7) 
L1

>  <uniprot>  (7) 
Q96MU7

>  <paff>  (7) 
6.2290999999999999

>  <smiles>  (7) 
CNc1nc(Cl)nc2c1ncn2Cc1ccc(OC)c(Cl)c1

>  <aimnet_interaction_kcal_mol>  (7) 
-43.630105269955941

$$$$
L1:Q96MU7:88977
     RDKit          3D

 39 41  0  0  0  0  0  0  0  0999 V2000
    7.9520   -1.5902   -0.7776 C   0  0  0  0  0  0  0  0  0  0  0  0
    5.7575   -5.3012   -3.0019 C   0  0  0  0  0  0  0  0  0  0  0  0
    5.5612   -4.6045   -4.1415 N   0  0  0  0  0  0  0  0  0  0  0  0
    6.0385   -3.3846   -4.2273 C   0  0  0  0  0  0  0  0  0  0  0  0
    5.7059   -2.5686   -5.7503 Cl  0  0  0  0  0  0  0  0  0  0  0  0
    6.7219   -2.6807   -3.3321 N   0  0  0  0  0  0  0  0  0  0  0  0
    6.8819   -3.3718   -2.1942 C   0  0  0  0  0  0  0  0  0  0  0  0
    6.4513   -4.6704   -1.9521 C   0  0  0  0  0  0  0  0  0  0  0  0
    6.8002   -5.0684   -0.6826 N   0  0  0  0  0  0  0  0  0  0  0  0
    7.3963   -4.0269   -0.1721 C   0  0  0  0  0  0  0  0  0  0  0  0
    7.4997   -2.9575   -1.0409 N   0  0  0  0  0  0  0  0  0  0  0  0
    4.5882   -7.1808   -4.0280 C   0  0  0  0  0  0  0  0  0  0  0  0
    5.2939   -6.5527   -2.9321 N   0  0  0  0  0  0  0  0  0  0  0  0
    5.3043   -7.0231   -2.0387 H   0  0  0  0  0  0  0  0  0  0  0  0
    9.4110   -1.3304   -1.0108 C   0  0  0  0  0  0  0  0  0  0  0  0
   10.2740   -1.3760    0.0722 C   0  0  0  0  0  0  0  0  0  0  0  0
   11.6352   -1.2313   -0.1089 C   0  0  0  0  0  0  0  0  0  0  0  0
   12.7113   -1.3083    1.2780 Cl  0  0  0  0  0  0  0  0  0  0  0  0
   12.1585   -0.9975   -1.3662 C   0  0  0  0  0  0  0  0  0  0  0  0
   11.3022   -0.8714   -2.4419 C   0  0  0  0  0  0  0  0  0  0  0  0
    9.9177   -0.9916   -2.2848 C   0  0  0  0  0  0  0  0  0  0  0  0
    9.0538   -0.7926   -3.3551 N   0  0  0  0  0  0  0  0  0  0  0  0
    8.2077   -1.3694   -3.4432 H   0  0  0  0  0  0  0  0  0  0  0  0
    9.2383    0.4739   -4.4740 S   0  0  0  0  0  0  0  0  0  0  0  0
    8.0122   -0.0052   -5.6621 C   0  0  0  0  0  0  0  0  0  0  0  0
   10.5751    0.4054   -5.0913 O   0  0  0  0  0  0  0  0  0  0  0  0
    8.8534    1.7541   -3.8364 O   0  0  0  0  0  0  0  0  0  0  0  0
    7.6866   -1.3457    0.2479 H   0  0  0  0  0  0  0  0  0  0  0  0
    7.3646   -0.9478   -1.4214 H   0  0  0  0  0  0  0  0  0  0  0  0
    7.7776   -3.9782    0.8287 H   0  0  0  0  0  0  0  0  0  0  0  0
    5.1596   -7.0672   -4.9443 H   0  0  0  0  0  0  0  0  0  0  0  0
    3.6115   -6.7239   -4.1837 H   0  0  0  0  0  0  0  0  0  0  0  0
    4.4513   -8.2336   -3.8060 H   0  0  0  0  0  0  0  0  0  0  0  0
    9.8805   -1.5138    1.0657 H   0  0  0  0  0  0  0  0  0  0  0  0
   13.2256   -0.9083   -1.5032 H   0  0  0  0  0  0  0  0  0  0  0  0
   11.6992   -0.6769   -3.4236 H   0  0  0  0  0  0  0  0  0  0  0  0
    8.3048   -0.9617   -6.0786 H   0  0  0  0  0  0  0  0  0  0  0  0
    7.9994    0.7682   -6.4205 H   0  0  0  0  0  0  0  0  0  0  0  0
    7.0417   -0.0522   -5.1886 H   0  0  0  0  0  0  0  0  0  0  0  0
  1 15  1  0
  1 28  1  0
  1 29  1  0
  2  3  2  0
  3  4  1  0
  4  5  1  0
  4  6  2  0
  6  7  1  0
  7  8  2  0
  8  9  1  0
  8  2  1  0
  9 10  2  0
 10 11  1  0
 10 30  1  0
 11  1  1  0
 11  7  1  0
 12 13  1  0
 12 31  1  0
 12 32  1  0
 12 33  1  0
 13  2  1  0
 13 14  1  0
 15 16  2  0
 16 17  1  0
 16 34  1  0
 17 18  1  0
 17 19  2  0
 19 20  1  0
 19 35  1  0
 20 21  2  0
 20 36  1  0
 21 22  1  0
 21 15  1  0
 22 24  1  0
 22 23  1  0
 24 25  1  0
 24 26  2  0
 24 27  2  0
 25 37  1  0
 25 38  1  0
 25 39  1  0
M  END
>  <minimizedAffinity>  (8) 
-5.07405

>  <mol_id>  (8) 
88977

>  <source_index>  (8) 
7

>  <layer>  (8) 
L1

>  <uniprot>  (8) 
Q96MU7

>  <paff>  (8) 
6.3468

>  <smiles>  (8) 
CNc1c2c(nc(n1)Cl)n(cn2)Cc3cc(ccc3NS(=O)(=O)C)Cl

>  <aimnet_interaction_kcal_mol>  (8) 
-36.751380202969855

$$$$
L1:Q96MU7:110901
     RDKit          3D

 38 40  0  0  0  0  0  0  0  0999 V2000
   -0.1615    5.0056    6.2123 N   0  0  0  0  0  0  0  0  0  0  0  0
    1.2102    4.9914    6.1922 C   0  0  0  0  0  0  0  0  0  0  0  0
    1.7452    6.1957    6.2968 N   0  0  0  0  0  0  0  0  0  0  0  0
    0.6649    7.0472    6.3774 C   0  0  0  0  0  0  0  0  0  0  0  0
    0.5556    8.4353    6.4739 C   0  0  0  0  0  0  0  0  0  0  0  0
   -0.6611    8.9785    6.5779 N   0  0  0  0  0  0  0  0  0  0  0  0
   -1.7230    8.1661    6.5676 C   0  0  0  0  0  0  0  0  0  0  0  0
   -3.2624    8.9809    6.7264 Cl  0  0  0  0  0  0  0  0  0  0  0  0
   -1.7676    6.8484    6.4304 N   0  0  0  0  0  0  0  0  0  0  0  0
   -0.5357    6.3216    6.3505 C   0  0  0  0  0  0  0  0  0  0  0  0
    1.6773    9.2658    6.5061 N   0  0  0  0  0  0  0  0  0  0  0  0
    1.4120   10.6948    6.4036 C   0  0  0  0  0  0  0  0  0  0  0  0
    2.3783    8.9165    5.8599 H   0  0  0  0  0  0  0  0  0  0  0  0
   -1.0042    3.8387    5.9926 C   0  0  0  0  0  0  0  0  0  0  0  0
    0.6734    0.7777    4.4974 C   0  0  0  0  0  0  0  0  0  0  0  0
    0.8295    1.1760    3.1703 C   0  0  0  0  0  0  0  0  0  0  0  0
    0.4459    2.4508    2.7744 C   0  0  0  0  0  0  0  0  0  0  0  0
   -0.1631    3.2935    3.6901 C   0  0  0  0  0  0  0  0  0  0  0  0
   -0.3576    2.9024    5.0151 C   0  0  0  0  0  0  0  0  0  0  0  0
    0.1017    1.6577    5.4116 C   0  0  0  0  0  0  0  0  0  0  0  0
    1.4053   -2.9248    4.5993 C   0  0  0  0  0  0  0  0  0  0  0  0
    1.0066   -1.5883    4.2145 N   0  0  0  0  0  0  0  0  0  0  0  0
    1.1536   -0.5308    5.0324 C   0  0  0  0  0  0  0  0  0  0  0  0
    1.6235   -0.5800    6.1783 O   0  0  0  0  0  0  0  0  0  0  0  0
    0.5944   -1.4914    3.2960 H   0  0  0  0  0  0  0  0  0  0  0  0
    1.7444    4.0682    6.0675 H   0  0  0  0  0  0  0  0  0  0  0  0
    0.8606   11.0285    7.2759 H   0  0  0  0  0  0  0  0  0  0  0  0
    0.8173   10.9469    5.5242 H   0  0  0  0  0  0  0  0  0  0  0  0
    2.3620   11.2263    6.3563 H   0  0  0  0  0  0  0  0  0  0  0  0
   -1.1817    3.3633    6.9552 H   0  0  0  0  0  0  0  0  0  0  0  0
   -1.9597    4.2068    5.6455 H   0  0  0  0  0  0  0  0  0  0  0  0
    1.2881    0.5047    2.4530 H   0  0  0  0  0  0  0  0  0  0  0  0
    0.6403    2.8140    1.7712 H   0  0  0  0  0  0  0  0  0  0  0  0
   -0.4757    4.2771    3.3646 H   0  0  0  0  0  0  0  0  0  0  0  0
    0.0389    1.3427    6.4449 H   0  0  0  0  0  0  0  0  0  0  0  0
    0.9814   -3.1726    5.5657 H   0  0  0  0  0  0  0  0  0  0  0  0
    2.4864   -2.9943    4.6656 H   0  0  0  0  0  0  0  0  0  0  0  0
    1.0685   -3.6545    3.8684 H   0  0  0  0  0  0  0  0  0  0  0  0
  1  2  1  0
  2  3  2  0
  2 26  1  0
  3  4  1  0
  4  5  2  0
  5 11  1  0
  5  6  1  0
  6  7  2  0
  7  8  1  0
  7  9  1  0
  9 10  2  0
 10  1  1  0
 10  4  1  0
 11 12  1  0
 11 13  1  0
 12 27  1  0
 12 28  1  0
 12 29  1  0
 14  1  1  0
 14 30  1  0
 14 31  1  0
 15 16  2  0
 16 17  1  0
 16 32  1  0
 17 18  2  0
 17 33  1  0
 18 19  1  0
 18 34  1  0
 19 14  1  0
 19 20  2  0
 20 15  1  0
 20 35  1  0
 21 22  1  0
 21 36  1  0
 21 37  1  0
 21 38  1  0
 22 23  1  0
 22 25  1  0
 23 24  2  0
 23 15  1  0
M  END
>  <minimizedAffinity>  (9) 
-7.11883

>  <mol_id>  (9) 
110901

>  <source_index>  (9) 
8

>  <layer>  (9) 
L1

>  <uniprot>  (9) 
Q96MU7

>  <paff>  (9) 
6

>  <smiles>  (9) 
CNc1c2c(nc(n1)Cl)n(cn2)Cc3cccc(c3)C(=O)NC

>  <aimnet_interaction_kcal_mol>  (9) 
-59.19982160063357

$$$$
L1:Q96MU7:140320
     RDKit          3D

 39 41  0  0  0  0  0  0  0  0999 V2000
   11.7970    2.1959   10.8321 C   0  0  0  0  0  0  0  0  0  0  0  0
   11.6307    3.4256   11.3720 N   0  0  0  0  0  0  0  0  0  0  0  0
   10.6683    3.6232   12.2329 C   0  0  0  0  0  0  0  0  0  0  0  0
   10.5746    5.2517   12.8901 Cl  0  0  0  0  0  0  0  0  0  0  0  0
    9.7707    2.7580   12.7050 N   0  0  0  0  0  0  0  0  0  0  0  0
   10.0511    1.5151   12.2905 C   0  0  0  0  0  0  0  0  0  0  0  0
   11.0062    1.1438   11.3516 C   0  0  0  0  0  0  0  0  0  0  0  0
   11.0333   -0.2334   11.2360 N   0  0  0  0  0  0  0  0  0  0  0  0
   10.1627   -0.6766   12.1228 C   0  0  0  0  0  0  0  0  0  0  0  0
    9.5165    0.3507   12.7766 N   0  0  0  0  0  0  0  0  0  0  0  0
   13.6447    3.0919    9.5159 C   0  0  0  0  0  0  0  0  0  0  0  0
   12.7074    2.0480    9.8744 N   0  0  0  0  0  0  0  0  0  0  0  0
   12.6908    1.2307    9.2851 H   0  0  0  0  0  0  0  0  0  0  0  0
    8.6863    0.2448   13.9753 C   0  0  0  0  0  0  0  0  0  0  0  0
    7.2166    0.0663   13.7503 C   0  0  0  0  0  0  0  0  0  0  0  0
    6.6722   -1.1712   14.0679 C   0  0  0  0  0  0  0  0  0  0  0  0
    5.3147   -1.3093   14.2960 C   0  0  0  0  0  0  0  0  0  0  0  0
    4.4725   -0.2275   14.0983 C   0  0  0  0  0  0  0  0  0  0  0  0
    4.9871    0.9800   13.6545 C   0  0  0  0  0  0  0  0  0  0  0  0
    6.3568    1.1368   13.4291 C   0  0  0  0  0  0  0  0  0  0  0  0
    6.8630    2.3111   12.8497 N   0  0  0  0  0  0  0  0  0  0  0  0
    7.8775    2.4890   12.8823 H   0  0  0  0  0  0  0  0  0  0  0  0
    5.9610    3.7508   12.8119 S   0  0  0  0  0  0  0  0  0  0  0  0
    7.1273    4.8396   12.0189 C   0  0  0  0  0  0  0  0  0  0  0  0
    4.8205    3.5190   11.8659 O   0  0  0  0  0  0  0  0  0  0  0  0
    5.6059    4.2502   14.1539 O   0  0  0  0  0  0  0  0  0  0  0  0
    9.9050   -1.7114   12.3341 H   0  0  0  0  0  0  0  0  0  0  0  0
   14.0192    3.5576   10.4203 H   0  0  0  0  0  0  0  0  0  0  0  0
   13.1645    3.8514    8.9059 H   0  0  0  0  0  0  0  0  0  0  0  0
   14.4633    2.6399    8.9682 H   0  0  0  0  0  0  0  0  0  0  0  0
    8.8794    1.1434   14.5614 H   0  0  0  0  0  0  0  0  0  0  0  0
    9.0541   -0.6071   14.5418 H   0  0  0  0  0  0  0  0  0  0  0  0
    7.3162   -2.0440   14.1493 H   0  0  0  0  0  0  0  0  0  0  0  0
    4.9249   -2.2601   14.6232 H   0  0  0  0  0  0  0  0  0  0  0  0
    3.4105   -0.3278   14.2837 H   0  0  0  0  0  0  0  0  0  0  0  0
    4.3248    1.8202   13.4979 H   0  0  0  0  0  0  0  0  0  0  0  0
    7.4372    4.3754   11.0906 H   0  0  0  0  0  0  0  0  0  0  0  0
    7.9703    5.0022   12.6760 H   0  0  0  0  0  0  0  0  0  0  0  0
    6.6019    5.7730   11.8443 H   0  0  0  0  0  0  0  0  0  0  0  0
  1  2  2  0
  2  3  1  0
  3  4  1  0
  3  5  2  0
  5  6  1  0
  6  7  2  0
  7  8  1  0
  7  1  1  0
  8  9  2  0
  9 10  1  0
  9 27  1  0
 10 14  1  0
 10  6  1  0
 11 12  1  0
 11 28  1  0
 11 29  1  0
 11 30  1  0
 12  1  1  0
 12 13  1  0
 14 15  1  0
 14 31  1  0
 14 32  1  0
 15 16  2  0
 16 17  1  0
 16 33  1  0
 17 18  2  0
 17 34  1  0
 18 19  1  0
 18 35  1  0
 19 20  2  0
 19 36  1  0
 20 21  1  0
 20 15  1  0
 21 23  1  0
 21 22  1  0
 23 24  1  0
 23 25  2  0
 23 26  2  0
 24 37  1  0
 24 38  1  0
 24 39  1  0
M  END
>  <minimizedAffinity>  (10) 
-5.08169

>  <mol_id>  (10) 
140320

>  <source_index>  (10) 
9

>  <layer>  (10) 
L1

>  <uniprot>  (10) 
Q96MU7

>  <paff>  (10) 
6.3372000000000002

>  <smiles>  (10) 
CNc1c2c(nc(n1)Cl)n(cn2)Cc3ccccc3NS(=O)(=O)C

>  <aimnet_interaction_kcal_mol>  (10) 
-66.54938553189362

$$$$
