L1:Q96MU7:23658
     RDKit          3D

 37 39  0  0  0  0  0  0  0  0999 V2000
    0.0046    8.1141    6.9735 C   0  0  0  0  0  0  0  0  0  0  0  0
   -1.3007    8.4541    7.1222 N   0  0  0  0  0  0  0  0  0  0  0  0
   -2.2298    7.4924    6.9638 C   0  0  0  0  0  0  0  0  0  0  0  0
   -3.8525    7.9981    7.1697 Cl  0  0  0  0  0  0  0  0  0  0  0  0
   -2.0697    6.1876    6.6672 N   0  0  0  0  0  0  0  0  0  0  0  0
   -0.7655    5.8995    6.5331 C   0  0  0  0  0  0  0  0  0  0  0  0
    0.3043    6.7714    6.6625 C   0  0  0  0  0  0  0  0  0  0  0  0
    1.4993    6.1126    6.4454 N   0  0  0  0  0  0  0  0  0  0  0  0
    1.1578    4.8655    6.1964 C   0  0  0  0  0  0  0  0  0  0  0  0
   -0.1995    4.6890    6.2430 N   0  0  0  0  0  0  0  0  0  0  0  0
    1.2210   10.0696    6.1285 C   0  0  0  0  0  0  0  0  0  0  0  0
    1.0003    9.0552    7.1217 N   0  0  0  0  0  0  0  0  0  0  0  0
    1.5628    9.0110    7.9630 H   0  0  0  0  0  0  0  0  0  0  0  0
   -0.9082    3.4520    5.9839 C   0  0  0  0  0  0  0  0  0  0  0  0
   -0.1108    2.5430    5.0824 C   0  0  0  0  0  0  0  0  0  0  0  0
   -0.0438    2.7941    3.7038 C   0  0  0  0  0  0  0  0  0  0  0  0
    0.6784    1.9480    2.8622 C   0  0  0  0  0  0  0  0  0  0  0  0
    1.3403    0.8384    3.3876 C   0  0  0  0  0  0  0  0  0  0  0  0
    1.2827    0.5659    4.7601 C   0  0  0  0  0  0  0  0  0  0  0  0
    0.5552    1.4207    5.6030 C   0  0  0  0  0  0  0  0  0  0  0  0
    2.0043   -0.6336    5.2680 C   0  0  0  0  0  0  0  0  0  0  0  0
    3.2189   -0.6978    5.3715 O   0  0  0  0  0  0  0  0  0  0  0  0
    1.1277   -1.6187    5.5883 O   0  0  0  0  0  0  0  0  0  0  0  0
    1.1692   -2.7392    4.7029 C   0  0  0  0  0  0  0  0  0  0  0  0
    1.8320    4.1117    5.9908 H   0  0  0  0  0  0  0  0  0  0  0  0
    0.5259    9.9397    5.3255 H   0  0  0  0  0  0  0  0  0  0  0  0
    2.2195    9.9893    5.7524 H   0  0  0  0  0  0  0  0  0  0  0  0
    1.0820   11.0352    6.5679 H   0  0  0  0  0  0  0  0  0  0  0  0
   -1.8425    3.6773    5.5136 H   0  0  0  0  0  0  0  0  0  0  0  0
   -1.0652    2.9507    6.9161 H   0  0  0  0  0  0  0  0  0  0  0  0
   -0.5333    3.6122    3.3087 H   0  0  0  0  0  0  0  0  0  0  0  0
    0.7230    2.1432    1.8498 H   0  0  0  0  0  0  0  0  0  0  0  0
    1.8749    0.2154    2.7622 H   0  0  0  0  0  0  0  0  0  0  0  0
    0.5091    1.2229    6.6148 H   0  0  0  0  0  0  0  0  0  0  0  0
    0.4541   -3.4699    5.0186 H   0  0  0  0  0  0  0  0  0  0  0  0
    2.1488   -3.1693    4.7176 H   0  0  0  0  0  0  0  0  0  0  0  0
    0.9357   -2.4176    3.7094 H   0  0  0  0  0  0  0  0  0  0  0  0
  1  2  2  0
  2  3  1  0
  3  4  1  0
  3  5  2  0
  5  6  1  0
  6  7  2  0
  7  8  1  0
  7  1  1  0
  8  9  2  0
  9 10  1  0
  9 25  1  0
 10 14  1  0
 10  6  1  0
 11 12  1  0
 11 26  1  0
 11 27  1  0
 11 28  1  0
 12  1  1  0
 12 13  1  0
 14 15  1  0
 14 29  1  0
 14 30  1  0
 15 16  2  0
 16 17  1  0
 16 31  1  0
 17 18  2  0
 17 32  1  0
 18 19  1  0
 18 33  1  0
 19 21  1  0
 19 20  2  0
 20 15  1  0
 20 34  1  0
 21 22  2  0
 21 23  1  0
 23 24  1  0
 24 35  1  0
 24 36  1  0
 24 37  1  0
M  END
>  <minimizedAffinity>  (1) 
-6.93345

>  <mol_id>  (1) 
23658

>  <source_index>  (1) 
0

>  <layer>  (1) 
L1

>  <uniprot>  (1) 
Q96MU7

>  <paff>  (1) 
6

>  <smiles>  (1) 
CNc1c2c(nc(n1)Cl)n(cn2)Cc3cccc(c3)C(=O)OC

$$$$
L1:Q96MU7:24173
     RDKit          3D

 34 36  0  0  0  0  0  0  0  0999 V2000
    0.8167    0.1816    4.9277 C   0  0  0  0  0  0  0  0  0  0  0  0
    1.2421    0.1426    3.6397 N   0  0  0  0  0  0  0  0  0  0  0  0
    1.2410    1.2897    2.9345 C   0  0  0  0  0  0  0  0  0  0  0  0
    1.7885    1.1591    1.3178 Cl  0  0  0  0  0  0  0  0  0  0  0  0
    0.8711    2.5283    3.3162 N   0  0  0  0  0  0  0  0  0  0  0  0
    0.4557    2.5154    4.5922 C   0  0  0  0  0  0  0  0  0  0  0  0
    0.3983    1.4250    5.4457 C   0  0  0  0  0  0  0  0  0  0  0  0
   -0.0770    1.8029    6.6867 N   0  0  0  0  0  0  0  0  0  0  0  0
   -0.3078    3.0950    6.5827 C   0  0  0  0  0  0  0  0  0  0  0  0
   -0.0067    3.5674    5.3331 N   0  0  0  0  0  0  0  0  0  0  0  0
    1.0295   -2.2546    5.1212 C   0  0  0  0  0  0  0  0  0  0  0  0
    0.7967   -0.9600    5.6993 N   0  0  0  0  0  0  0  0  0  0  0  0
    0.6022   -0.8526    6.6877 H   0  0  0  0  0  0  0  0  0  0  0  0
   -0.1189    4.9423    4.8897 C   0  0  0  0  0  0  0  0  0  0  0  0
   -0.4628    5.8596    6.0369 C   0  0  0  0  0  0  0  0  0  0  0  0
   -1.7821    6.2906    6.2396 C   0  0  0  0  0  0  0  0  0  0  0  0
   -2.0868    7.1555    7.2925 C   0  0  0  0  0  0  0  0  0  0  0  0
   -3.7129    7.6687    7.5233 Cl  0  0  0  0  0  0  0  0  0  0  0  0
   -1.0912    7.6062    8.1543 C   0  0  0  0  0  0  0  0  0  0  0  0
    0.2296    7.1883    7.9630 C   0  0  0  0  0  0  0  0  0  0  0  0
    0.5407    6.3188    6.9069 C   0  0  0  0  0  0  0  0  0  0  0  0
    1.2639    7.6921    8.8984 C   0  0  0  0  0  0  0  0  0  0  0  0
    1.5826    7.1726    9.9512 O   0  0  0  0  0  0  0  0  0  0  0  0
    1.8499    8.8210    8.4658 O   0  0  0  0  0  0  0  0  0  0  0  0
    2.4944    9.0442    9.1704 H   0  0  0  0  0  0  0  0  0  0  0  0
   -0.6717    3.6810    7.3503 H   0  0  0  0  0  0  0  0  0  0  0  0
    1.2146   -2.1489    4.0726 H   0  0  0  0  0  0  0  0  0  0  0  0
    0.1686   -2.8721    5.2709 H   0  0  0  0  0  0  0  0  0  0  0  0
    1.8787   -2.7069    5.5895 H   0  0  0  0  0  0  0  0  0  0  0  0
   -0.8872    5.0081    4.1479 H   0  0  0  0  0  0  0  0  0  0  0  0
    0.8239    5.2455    4.4846 H   0  0  0  0  0  0  0  0  0  0  0  0
   -2.5310    5.9670    5.6076 H   0  0  0  0  0  0  0  0  0  0  0  0
   -1.3263    8.2450    8.9300 H   0  0  0  0  0  0  0  0  0  0  0  0
    1.5165    6.0133    6.7675 H   0  0  0  0  0  0  0  0  0  0  0  0
  1  2  2  0
  2  3  1  0
  3  4  1  0
  3  5  2  0
  5  6  1  0
  6  7  2  0
  7  8  1  0
  7  1  1  0
  8  9  2  0
  9 10  1  0
  9 26  1  0
 10 14  1  0
 10  6  1  0
 11 12  1  0
 11 27  1  0
 11 28  1  0
 11 29  1  0
 12  1  1  0
 12 13  1  0
 14 15  1  0
 14 30  1  0
 14 31  1  0
 15 16  2  0
 16 17  1  0
 16 32  1  0
 17 18  1  0
 17 19  2  0
 19 20  1  0
 19 33  1  0
 20 22  1  0
 20 21  2  0
 21 15  1  0
 21 34  1  0
 22 23  2  0
 22 24  1  0
 24 25  1  0
M  END
>  <minimizedAffinity>  (2) 
-6.32990

>  <mol_id>  (2) 
24173

>  <source_index>  (2) 
1

>  <layer>  (2) 
L1

>  <uniprot>  (2) 
Q96MU7

>  <paff>  (2) 
6.7446999999999999

>  <smiles>  (2) 
CNc1nc(Cl)nc2c1ncn2Cc1cc(Cl)cc(C(=O)O)c1

$$$$
L1:Q96MU7:43216
     RDKit          3D

 37 39  0  0  0  0  0  0  0  0999 V2000
   -0.5997    8.0920    8.7291 C   0  0  0  0  0  0  0  0  0  0  0  0
   -1.9240    8.3435    8.5745 N   0  0  0  0  0  0  0  0  0  0  0  0
   -2.5917    7.6834    7.6103 C   0  0  0  0  0  0  0  0  0  0  0  0
   -4.2564    8.0603    7.4780 Cl  0  0  0  0  0  0  0  0  0  0  0  0
   -2.1399    6.7696    6.7314 N   0  0  0  0  0  0  0  0  0  0  0  0
   -0.8284    6.5539    6.9185 C   0  0  0  0  0  0  0  0  0  0  0  0
   -0.0022    7.1478    7.8626 C   0  0  0  0  0  0  0  0  0  0  0  0
    1.2867    6.6583    7.7444 N   0  0  0  0  0  0  0  0  0  0  0  0
    1.2396    5.7975    6.7503 C   0  0  0  0  0  0  0  0  0  0  0  0
   -0.0175    5.7038    6.2185 N   0  0  0  0  0  0  0  0  0  0  0  0
   -0.5570    9.0331   11.0169 C   0  0  0  0  0  0  0  0  0  0  0  0
    0.0361    8.7914    9.7290 N   0  0  0  0  0  0  0  0  0  0  0  0
    0.9647    9.1264    9.5146 H   0  0  0  0  0  0  0  0  0  0  0  0
   -0.4237    4.8259    5.1394 C   0  0  0  0  0  0  0  0  0  0  0  0
   -0.0428    3.3945    5.4250 C   0  0  0  0  0  0  0  0  0  0  0  0
   -0.7613    2.6354    6.3592 C   0  0  0  0  0  0  0  0  0  0  0  0
   -0.3936    1.3144    6.6306 C   0  0  0  0  0  0  0  0  0  0  0  0
    0.6993    0.7318    5.9758 C   0  0  0  0  0  0  0  0  0  0  0  0
    1.4216    1.4875    5.0446 C   0  0  0  0  0  0  0  0  0  0  0  0
    1.0527    2.8085    4.7728 C   0  0  0  0  0  0  0  0  0  0  0  0
    1.0456   -0.6780    6.3049 C   0  0  0  0  0  0  0  0  0  0  0  0
    0.6421   -1.2543    7.3029 O   0  0  0  0  0  0  0  0  0  0  0  0
    1.8535   -1.2088    5.3536 O   0  0  0  0  0  0  0  0  0  0  0  0
    1.2841   -2.3233    4.6652 C   0  0  0  0  0  0  0  0  0  0  0  0
    2.0523    5.2584    6.4127 H   0  0  0  0  0  0  0  0  0  0  0  0
   -1.5358    8.6018   11.0454 H   0  0  0  0  0  0  0  0  0  0  0  0
   -0.6268   10.0875   11.1852 H   0  0  0  0  0  0  0  0  0  0  0  0
    0.0504    8.5898   11.7781 H   0  0  0  0  0  0  0  0  0  0  0  0
    0.0547    5.1402    4.2354 H   0  0  0  0  0  0  0  0  0  0  0  0
   -1.4880    4.8795    5.0426 H   0  0  0  0  0  0  0  0  0  0  0  0
   -1.5668    3.0545    6.8497 H   0  0  0  0  0  0  0  0  0  0  0  0
   -0.9312    0.7642    7.3185 H   0  0  0  0  0  0  0  0  0  0  0  0
    2.2289    1.0682    4.5572 H   0  0  0  0  0  0  0  0  0  0  0  0
    1.5917    3.3582    4.0855 H   0  0  0  0  0  0  0  0  0  0  0  0
    1.9781   -2.6840    3.9350 H   0  0  0  0  0  0  0  0  0  0  0  0
    0.3809   -2.0187    4.1790 H   0  0  0  0  0  0  0  0  0  0  0  0
    1.0667   -3.1022    5.3659 H   0  0  0  0  0  0  0  0  0  0  0  0
  1  2  2  0
  2  3  1  0
  3  4  1  0
  3  5  2  0
  5  6  1  0
  6  7  2  0
  7  8  1  0
  7  1  1  0
  8  9  2  0
  9 10  1  0
  9 25  1  0
 10 14  1  0
 10  6  1  0
 11 12  1  0
 11 26  1  0
 11 27  1  0
 11 28  1  0
 12  1  1  0
 12 13  1  0
 14 15  1  0
 14 29  1  0
 14 30  1  0
 15 16  2  0
 16 17  1  0
 16 31  1  0
 17 18  2  0
 17 32  1  0
 18 21  1  0
 18 19  1  0
 19 20  2  0
 19 33  1  0
 20 15  1  0
 20 34  1  0
 21 22  2  0
 21 23  1  0
 23 24  1  0
 24 35  1  0
 24 36  1  0
 24 37  1  0
M  END
>  <minimizedAffinity>  (3) 
-6.77846

>  <mol_id>  (3) 
43216

>  <source_index>  (3) 
2

>  <layer>  (3) 
L1

>  <uniprot>  (3) 
Q96MU7

>  <paff>  (3) 
6.0132000000000003

>  <smiles>  (3) 
CNc1nc(Cl)nc2c1ncn2Cc1ccc(C(=O)OC)cc1

$$$$
L1:Q96MU7:58793
     RDKit          3D

 34 36  0  0  0  0  0  0  0  0999 V2000
   -0.6717    8.1246    8.7298 C   0  0  0  0  0  0  0  0  0  0  0  0
   -1.9960    8.3659    8.5597 N   0  0  0  0  0  0  0  0  0  0  0  0
   -2.6419    7.7038    7.5810 C   0  0  0  0  0  0  0  0  0  0  0  0
   -4.3086    8.0639    7.4271 Cl  0  0  0  0  0  0  0  0  0  0  0  0
   -2.1679    6.7984    6.7025 N   0  0  0  0  0  0  0  0  0  0  0  0
   -0.8570    6.5956    6.9079 C   0  0  0  0  0  0  0  0  0  0  0  0
   -0.0553    7.1938    7.8676 C   0  0  0  0  0  0  0  0  0  0  0  0
    1.2425    6.7285    7.7782 N   0  0  0  0  0  0  0  0  0  0  0  0
    1.2263    5.8712    6.7790 C   0  0  0  0  0  0  0  0  0  0  0  0
   -0.0195    5.7608    6.2209 N   0  0  0  0  0  0  0  0  0  0  0  0
   -0.0228    8.3421   11.0856 C   0  0  0  0  0  0  0  0  0  0  0  0
    0.0425    8.7704    9.7157 N   0  0  0  0  0  0  0  0  0  0  0  0
    0.6064    9.5651    9.4390 H   0  0  0  0  0  0  0  0  0  0  0  0
   -0.3911    4.8812    5.1310 C   0  0  0  0  0  0  0  0  0  0  0  0
   -0.0254    3.4493    5.4336 C   0  0  0  0  0  0  0  0  0  0  0  0
    1.1086    2.8679    4.8451 C   0  0  0  0  0  0  0  0  0  0  0  0
    1.4623    1.5467    5.1333 C   0  0  0  0  0  0  0  0  0  0  0  0
    0.6857    0.7894    6.0164 C   0  0  0  0  0  0  0  0  0  0  0  0
   -0.4449    1.3641    6.6088 C   0  0  0  0  0  0  0  0  0  0  0  0
   -0.7975    2.6854    6.3209 C   0  0  0  0  0  0  0  0  0  0  0  0
    1.0189   -0.6154    6.3543 C   0  0  0  0  0  0  0  0  0  0  0  0
    0.6487   -1.2157    7.3463 O   0  0  0  0  0  0  0  0  0  0  0  0
    1.8002   -1.2040    5.4319 O   0  0  0  0  0  0  0  0  0  0  0  0
    1.9386   -2.1089    5.7826 H   0  0  0  0  0  0  0  0  0  0  0  0
    2.0532    5.3455    6.4552 H   0  0  0  0  0  0  0  0  0  0  0  0
   -0.6684    7.4924   11.1632 H   0  0  0  0  0  0  0  0  0  0  0  0
   -0.4059    9.1375   11.6901 H   0  0  0  0  0  0  0  0  0  0  0  0
    0.9573    8.0775   11.4237 H   0  0  0  0  0  0  0  0  0  0  0  0
    0.1195    5.1912    4.2432 H   0  0  0  0  0  0  0  0  0  0  0  0
   -1.4512    4.9381    4.9973 H   0  0  0  0  0  0  0  0  0  0  0  0
    1.6867    3.4212    4.1934 H   0  0  0  0  0  0  0  0  0  0  0  0
    2.2976    1.1294    4.6939 H   0  0  0  0  0  0  0  0  0  0  0  0
   -1.0208    0.8094    7.2613 H   0  0  0  0  0  0  0  0  0  0  0  0
   -1.6314    3.1017    6.7641 H   0  0  0  0  0  0  0  0  0  0  0  0
  1  2  2  0
  2  3  1  0
  3  4  1  0
  3  5  2  0
  5  6  1  0
  6  7  2  0
  7  8  1  0
  7  1  1  0
  8  9  2  0
  9 10  1  0
  9 25  1  0
 10 14  1  0
 10  6  1  0
 11 12  1  0
 11 26  1  0
 11 27  1  0
 11 28  1  0
 12  1  1  0
 12 13  1  0
 14 15  1  0
 14 29  1  0
 14 30  1  0
 15 16  2  0
 16 17  1  0
 16 31  1  0
 17 18  2  0
 17 32  1  0
 18 21  1  0
 18 19  1  0
 19 20  2  0
 19 33  1  0
 20 15  1  0
 20 34  1  0
 21 22  2  0
 21 23  1  0
 23 24  1  0
M  END
>  <minimizedAffinity>  (4) 
-6.62311

>  <mol_id>  (4) 
58793

>  <source_index>  (4) 
3

>  <layer>  (4) 
L1

>  <uniprot>  (4) 
Q96MU7

>  <paff>  (4) 
6.0605000000000002

>  <smiles>  (4) 
CNc1c2c(nc(n1)Cl)n(cn2)Cc3ccc(cc3)C(=O)O

$$$$
L1:Q96MU7:73954
     RDKit          3D

 37 39  0  0  0  0  0  0  0  0999 V2000
    0.8179    0.2092    4.9625 C   0  0  0  0  0  0  0  0  0  0  0  0
    1.2514    0.1603    3.6776 N   0  0  0  0  0  0  0  0  0  0  0  0
    1.2539    1.3017    2.9633 C   0  0  0  0  0  0  0  0  0  0  0  0
    1.8157    1.1594    1.3525 Cl  0  0  0  0  0  0  0  0  0  0  0  0
    0.8780    2.5427    3.3315 N   0  0  0  0  0  0  0  0  0  0  0  0
    0.4604    2.5407    4.6069 C   0  0  0  0  0  0  0  0  0  0  0  0
    0.3970    1.4569    5.4684 C   0  0  0  0  0  0  0  0  0  0  0  0
   -0.0915    1.8430    6.7017 N   0  0  0  0  0  0  0  0  0  0  0  0
   -0.3144    3.1358    6.5887 C   0  0  0  0  0  0  0  0  0  0  0  0
    0.0096    3.6017    5.3425 N   0  0  0  0  0  0  0  0  0  0  0  0
    0.9600   -2.2312    5.1649 C   0  0  0  0  0  0  0  0  0  0  0  0
    0.7914   -0.9265    5.7424 N   0  0  0  0  0  0  0  0  0  0  0  0
    0.6571   -0.8057    6.7392 H   0  0  0  0  0  0  0  0  0  0  0  0
   -0.1379    4.9651    4.8751 C   0  0  0  0  0  0  0  0  0  0  0  0
   -0.5088    5.8919    6.0058 C   0  0  0  0  0  0  0  0  0  0  0  0
   -1.8473    6.2490    6.2254 C   0  0  0  0  0  0  0  0  0  0  0  0
   -2.1831    7.1235    7.2597 C   0  0  0  0  0  0  0  0  0  0  0  0
   -3.8319    7.5464    7.5128 Cl  0  0  0  0  0  0  0  0  0  0  0  0
   -1.1998    7.6585    8.0891 C   0  0  0  0  0  0  0  0  0  0  0  0
    0.1408    7.3159    7.8818 C   0  0  0  0  0  0  0  0  0  0  0  0
    0.4800    6.4354    6.8409 C   0  0  0  0  0  0  0  0  0  0  0  0
    1.2411    7.8519    8.7279 C   0  0  0  0  0  0  0  0  0  0  0  0
    1.7817    8.9263    8.5177 O   0  0  0  0  0  0  0  0  0  0  0  0
    1.5389    6.9923    9.7319 O   0  0  0  0  0  0  0  0  0  0  0  0
    0.8994    7.3021   10.9714 C   0  0  0  0  0  0  0  0  0  0  0  0
   -0.6882    3.7266    7.3478 H   0  0  0  0  0  0  0  0  0  0  0  0
    1.0864   -2.1391    4.1064 H   0  0  0  0  0  0  0  0  0  0  0  0
    0.0951   -2.8267    5.3703 H   0  0  0  0  0  0  0  0  0  0  0  0
    1.8241   -2.6995    5.5879 H   0  0  0  0  0  0  0  0  0  0  0  0
   -0.9059    4.9978    4.1308 H   0  0  0  0  0  0  0  0  0  0  0  0
    0.7973    5.2864    4.4664 H   0  0  0  0  0  0  0  0  0  0  0  0
   -2.5877    5.8630    5.6189 H   0  0  0  0  0  0  0  0  0  0  0  0
   -1.4587    8.3037    8.8518 H   0  0  0  0  0  0  0  0  0  0  0  0
    1.4694    6.1848    6.6882 H   0  0  0  0  0  0  0  0  0  0  0  0
    1.1837    6.5813   11.7093 H   0  0  0  0  0  0  0  0  0  0  0  0
   -0.1623    7.2789   10.8405 H   0  0  0  0  0  0  0  0  0  0  0  0
    1.1979    8.2781   11.2926 H   0  0  0  0  0  0  0  0  0  0  0  0
  1  2  2  0
  2  3  1  0
  3  4  1  0
  3  5  2  0
  5  6  1  0
  6  7  2  0
  7  8  1  0
  7  1  1  0
  8  9  2  0
  9 10  1  0
  9 26  1  0
 10 14  1  0
 10  6  1  0
 11 12  1  0
 11 27  1  0
 11 28  1  0
 11 29  1  0
 12  1  1  0
 12 13  1  0
 14 15  1  0
 14 30  1  0
 14 31  1  0
 15 16  2  0
 16 17  1  0
 16 32  1  0
 17 18  1  0
 17 19  2  0
 19 20  1  0
 19 33  1  0
 20 22  1  0
 20 21  2  0
 21 15  1  0
 21 34  1  0
 22 23  2  0
 22 24  1  0
 24 25  1  0
 25 35  1  0
 25 36  1  0
 25 37  1  0
M  END
>  <minimizedAffinity>  (5) 
-6.12536

>  <mol_id>  (5) 
73954

>  <source_index>  (5) 
4

>  <layer>  (5) 
L1

>  <uniprot>  (5) 
Q96MU7

>  <paff>  (5) 
6

>  <smiles>  (5) 
CNc1nc(Cl)nc2c1ncn2Cc1cc(Cl)cc(C(=O)OC)c1

$$$$
L1:Q96MU7:75808
     RDKit          3D

 34 36  0  0  0  0  0  0  0  0999 V2000
   -0.2975    7.7992    6.6739 C   0  0  0  0  0  0  0  0  0  0  0  0
   -1.6144    8.0715    6.8558 N   0  0  0  0  0  0  0  0  0  0  0  0
   -2.4855    7.0451    6.8258 C   0  0  0  0  0  0  0  0  0  0  0  0
   -4.1277    7.4687    7.0602 Cl  0  0  0  0  0  0  0  0  0  0  0  0
   -2.2542    5.7309    6.6371 N   0  0  0  0  0  0  0  0  0  0  0  0
   -0.9418    5.5122    6.4593 C   0  0  0  0  0  0  0  0  0  0  0  0
    0.0744    6.4548    6.4637 C   0  0  0  0  0  0  0  0  0  0  0  0
    1.2999    5.8520    6.2553 N   0  0  0  0  0  0  0  0  0  0  0  0
    1.0282    4.5708    6.1206 C   0  0  0  0  0  0  0  0  0  0  0  0
   -0.3134    4.3190    6.2326 N   0  0  0  0  0  0  0  0  0  0  0  0
    1.1437    9.3317    7.9358 C   0  0  0  0  0  0  0  0  0  0  0  0
    0.6413    8.8077    6.6959 N   0  0  0  0  0  0  0  0  0  0  0  0
    0.9552    9.1724    5.8045 H   0  0  0  0  0  0  0  0  0  0  0  0
   -0.9451    3.0165    6.1693 C   0  0  0  0  0  0  0  0  0  0  0  0
   -0.2404    2.1141    5.1878 C   0  0  0  0  0  0  0  0  0  0  0  0
   -0.3933    2.3106    3.8069 C   0  0  0  0  0  0  0  0  0  0  0  0
    0.2697    1.4894    2.8940 C   0  0  0  0  0  0  0  0  0  0  0  0
    1.0962    0.4626    3.3498 C   0  0  0  0  0  0  0  0  0  0  0  0
    1.2644    0.2544    4.7231 C   0  0  0  0  0  0  0  0  0  0  0  0
    0.5969    1.0805    5.6388 C   0  0  0  0  0  0  0  0  0  0  0  0
    2.1559   -0.8467    5.1624 C   0  0  0  0  0  0  0  0  0  0  0  0
    3.3324   -0.7411    5.4537 O   0  0  0  0  0  0  0  0  0  0  0  0
    1.5275   -2.0349    5.2169 O   0  0  0  0  0  0  0  0  0  0  0  0
    2.2272   -2.6516    5.5207 H   0  0  0  0  0  0  0  0  0  0  0  0
    1.7406    3.8436    5.9510 H   0  0  0  0  0  0  0  0  0  0  0  0
    0.6879    8.8128    8.7531 H   0  0  0  0  0  0  0  0  0  0  0  0
    0.9128   10.3744    8.0020 H   0  0  0  0  0  0  0  0  0  0  0  0
    2.2046    9.1981    7.9757 H   0  0  0  0  0  0  0  0  0  0  0  0
   -1.9632    3.1372    5.8632 H   0  0  0  0  0  0  0  0  0  0  0  0
   -0.8927    2.5677    7.1392 H   0  0  0  0  0  0  0  0  0  0  0  0
   -1.0020    3.0698    3.4631 H   0  0  0  0  0  0  0  0  0  0  0  0
    0.1483    1.6420    1.8806 H   0  0  0  0  0  0  0  0  0  0  0  0
    1.5845   -0.1446    2.6731 H   0  0  0  0  0  0  0  0  0  0  0  0
    0.7218    0.9278    6.6518 H   0  0  0  0  0  0  0  0  0  0  0  0
  1  2  2  0
  2  3  1  0
  3  4  1  0
  3  5  2  0
  5  6  1  0
  6  7  2  0
  7  8  1  0
  7  1  1  0
  8  9  2  0
  9 10  1  0
  9 25  1  0
 10 14  1  0
 10  6  1  0
 11 12  1  0
 11 26  1  0
 11 27  1  0
 11 28  1  0
 12  1  1  0
 12 13  1  0
 14 15  1  0
 14 29  1  0
 14 30  1  0
 15 16  2  0
 16 17  1  0
 16 31  1  0
 17 18  2  0
 17 32  1  0
 18 19  1  0
 18 33  1  0
 19 21  1  0
 19 20  2  0
 20 15  1  0
 20 34  1  0
 21 22  2  0
 21 23  1  0
 23 24  1  0
M  END
>  <minimizedAffinity>  (6) 
-6.94643

>  <mol_id>  (6) 
75808

>  <source_index>  (6) 
5

>  <layer>  (6) 
L1

>  <uniprot>  (6) 
Q96MU7

>  <paff>  (6) 
6.2923999999999998

>  <smiles>  (6) 
CNc1nc(Cl)nc2c1ncn2Cc1cccc(C(=O)O)c1

$$$$
L1:Q96MU7:76036
     RDKit          3D

 35 37  0  0  0  0  0  0  0  0999 V2000
   -0.5448    8.1340    8.6413 C   0  0  0  0  0  0  0  0  0  0  0  0
   -1.8703    8.3897    8.5033 N   0  0  0  0  0  0  0  0  0  0  0  0
   -2.5609    7.6865    7.5860 C   0  0  0  0  0  0  0  0  0  0  0  0
   -4.2277    8.0615    7.4752 Cl  0  0  0  0  0  0  0  0  0  0  0  0
   -2.1329    6.7255    6.7434 N   0  0  0  0  0  0  0  0  0  0  0  0
   -0.8202    6.5069    6.9184 C   0  0  0  0  0  0  0  0  0  0  0  0
    0.0249    7.1442    7.8134 C   0  0  0  0  0  0  0  0  0  0  0  0
    1.3123    6.6560    7.7004 N   0  0  0  0  0  0  0  0  0  0  0  0
    1.2447    5.7368    6.7601 C   0  0  0  0  0  0  0  0  0  0  0  0
   -0.0243    5.6099    6.2610 N   0  0  0  0  0  0  0  0  0  0  0  0
    0.3543    8.3551   10.9132 C   0  0  0  0  0  0  0  0  0  0  0  0
    0.2148    8.8227    9.5619 N   0  0  0  0  0  0  0  0  0  0  0  0
    0.6777    9.6671    9.2469 H   0  0  0  0  0  0  0  0  0  0  0  0
   -0.4372    4.7186    5.1958 C   0  0  0  0  0  0  0  0  0  0  0  0
   -0.0383    3.2944    5.4883 C   0  0  0  0  0  0  0  0  0  0  0  0
   -0.7951    2.5083    6.3672 C   0  0  0  0  0  0  0  0  0  0  0  0
   -0.4208    1.1904    6.6567 C   0  0  0  0  0  0  0  0  0  0  0  0
    0.7198    0.6303    6.0743 C   0  0  0  0  0  0  0  0  0  0  0  0
    1.4790    1.4178    5.1948 C   0  0  0  0  0  0  0  0  0  0  0  0
    2.9042    0.8008    4.4319 Cl  0  0  0  0  0  0  0  0  0  0  0  0
    1.1064    2.7361    4.9058 C   0  0  0  0  0  0  0  0  0  0  0  0
    1.1594   -0.6480    6.2978 O   0  0  0  0  0  0  0  0  0  0  0  0
    0.8384   -1.6359    5.3279 C   0  0  0  0  0  0  0  0  0  0  0  0
    2.0510    5.1790    6.4379 H   0  0  0  0  0  0  0  0  0  0  0  0
   -0.2099    7.4547   11.0391 H   0  0  0  0  0  0  0  0  0  0  0  0
   -0.0096    9.1013   11.5882 H   0  0  0  0  0  0  0  0  0  0  0  0
    1.3863    8.1610   11.1187 H   0  0  0  0  0  0  0  0  0  0  0  0
    0.0250    5.0295    4.2822 H   0  0  0  0  0  0  0  0  0  0  0  0
   -1.5032    4.7609    5.1140 H   0  0  0  0  0  0  0  0  0  0  0  0
   -1.6397    2.9059    6.8071 H   0  0  0  0  0  0  0  0  0  0  0  0
   -0.9923    0.6275    7.3060 H   0  0  0  0  0  0  0  0  0  0  0  0
    1.6793    3.3004    4.2590 H   0  0  0  0  0  0  0  0  0  0  0  0
    1.2430   -2.5787    5.6317 H   0  0  0  0  0  0  0  0  0  0  0  0
    1.2554   -1.3567    4.3829 H   0  0  0  0  0  0  0  0  0  0  0  0
   -0.2249   -1.7161    5.2389 H   0  0  0  0  0  0  0  0  0  0  0  0
  1  2  2  0
  2  3  1  0
  3  4  1  0
  3  5  2  0
  5  6  1  0
  6  7  2  0
  7  8  1  0
  7  1  1  0
  8  9  2  0
  9 10  1  0
  9 24  1  0
 10 14  1  0
 10  6  1  0
 11 12  1  0
 11 25  1  0
 11 26  1  0
 11 27  1  0
 12  1  1  0
 12 13  1  0
 14 15  1  0
 14 28  1  0
 14 29  1  0
 15 16  2  0
 16 17  1  0
 16 30  1  0
 17 18  2  0
 17 31  1  0
 18 22  1  0
 18 19  1  0
 19 20  1  0
 19 21  2  0
 21 15  1  0
 21 32  1  0
 22 23  1  0
 23 33  1  0
 23 34  1  0
 23 35  1  0
M  END
>  <minimizedAffinity>  (7) 
-6.35241

>  <mol_id>  (7) 
76036

>  <source_index>  (7) 
6

>  <layer>  (7) 
L1

>  <uniprot>  (7) 
Q96MU7

>  <paff>  (7) 
6.2290999999999999

>  <smiles>  (7) 
CNc1nc(Cl)nc2c1ncn2Cc1ccc(OC)c(Cl)c1

$$$$
L1:Q96MU7:88977
     RDKit          3D

 39 41  0  0  0  0  0  0  0  0999 V2000
    7.8962   -1.4643   -0.5887 C   0  0  0  0  0  0  0  0  0  0  0  0
    5.6338   -5.4110   -2.2855 C   0  0  0  0  0  0  0  0  0  0  0  0
    5.0704   -4.7717   -3.3415 N   0  0  0  0  0  0  0  0  0  0  0  0
    5.3162   -3.4563   -3.4927 C   0  0  0  0  0  0  0  0  0  0  0  0
    4.5735   -2.7214   -4.8488 Cl  0  0  0  0  0  0  0  0  0  0  0  0
    6.0657   -2.6330   -2.7339 N   0  0  0  0  0  0  0  0  0  0  0  0
    6.6047   -3.3100   -1.7079 C   0  0  0  0  0  0  0  0  0  0  0  0
    6.4461   -4.6553   -1.4145 C   0  0  0  0  0  0  0  0  0  0  0  0
    7.1487   -4.9926   -0.2737 N   0  0  0  0  0  0  0  0  0  0  0  0
    7.7169   -3.8705    0.1173 C   0  0  0  0  0  0  0  0  0  0  0  0
    7.4327   -2.8323   -0.7298 N   0  0  0  0  0  0  0  0  0  0  0  0
    5.2510   -7.6641   -3.1767 C   0  0  0  0  0  0  0  0  0  0  0  0
    5.4155   -6.7556   -2.0760 N   0  0  0  0  0  0  0  0  0  0  0  0
    5.3578   -7.0744   -1.1161 H   0  0  0  0  0  0  0  0  0  0  0  0
    9.3908   -1.3739   -0.7951 C   0  0  0  0  0  0  0  0  0  0  0  0
   10.2236   -1.2592    0.3355 C   0  0  0  0  0  0  0  0  0  0  0  0
   11.6005   -1.0929    0.1928 C   0  0  0  0  0  0  0  0  0  0  0  0
   12.5962   -0.9535    1.5874 Cl  0  0  0  0  0  0  0  0  0  0  0  0
   12.1728   -1.0280   -1.0734 C   0  0  0  0  0  0  0  0  0  0  0  0
   11.3629   -1.1377   -2.2044 C   0  0  0  0  0  0  0  0  0  0  0  0
    9.9812   -1.3166   -2.0689 C   0  0  0  0  0  0  0  0  0  0  0  0
    9.2010   -1.4715   -3.2515 N   0  0  0  0  0  0  0  0  0  0  0  0
    8.3268   -1.9920   -3.1558 H   0  0  0  0  0  0  0  0  0  0  0  0
    9.0444   -0.1498   -4.2951 S   0  0  0  0  0  0  0  0  0  0  0  0
    7.5847   -0.5518   -5.2349 C   0  0  0  0  0  0  0  0  0  0  0  0
   10.1759   -0.2322   -5.1926 O   0  0  0  0  0  0  0  0  0  0  0  0
    8.7832    1.0423   -3.5201 O   0  0  0  0  0  0  0  0  0  0  0  0
    7.6569   -1.1135    0.3934 H   0  0  0  0  0  0  0  0  0  0  0  0
    7.4130   -0.8628   -1.3301 H   0  0  0  0  0  0  0  0  0  0  0  0
    8.3055   -3.7839    0.9606 H   0  0  0  0  0  0  0  0  0  0  0  0
    5.3478   -7.1291   -4.0983 H   0  0  0  0  0  0  0  0  0  0  0  0
    4.2816   -8.1143   -3.1258 H   0  0  0  0  0  0  0  0  0  0  0  0
    6.0010   -8.4256   -3.1258 H   0  0  0  0  0  0  0  0  0  0  0  0
    9.8097   -1.2987    1.2800 H   0  0  0  0  0  0  0  0  0  0  0  0
   13.1916   -0.8993   -1.1758 H   0  0  0  0  0  0  0  0  0  0  0  0
   11.7845   -1.0867   -3.1450 H   0  0  0  0  0  0  0  0  0  0  0  0
    7.7648   -1.4335   -5.8138 H   0  0  0  0  0  0  0  0  0  0  0  0
    7.3460    0.2613   -5.8882 H   0  0  0  0  0  0  0  0  0  0  0  0
    6.7668   -0.7246   -4.5670 H   0  0  0  0  0  0  0  0  0  0  0  0
  1 15  1  0
  1 28  1  0
  1 29  1  0
  2  3  2  0
  3  4  1  0
  4  5  1  0
  4  6  2  0
  6  7  1  0
  7  8  2  0
  8  9  1  0
  8  2  1  0
  9 10  2  0
 10 11  1  0
 10 30  1  0
 11  1  1  0
 11  7  1  0
 12 13  1  0
 12 31  1  0
 12 32  1  0
 12 33  1  0
 13  2  1  0
 13 14  1  0
 15 16  2  0
 16 17  1  0
 16 34  1  0
 17 18  1  0
 17 19  2  0
 19 20  1  0
 19 35  1  0
 20 21  2  0
 20 36  1  0
 21 22  1  0
 21 15  1  0
 22 24  1  0
 22 23  1  0
 24 25  1  0
 24 26  2  0
 24 27  2  0
 25 37  1  0
 25 38  1  0
 25 39  1  0
M  END
>  <minimizedAffinity>  (8) 
-5.07405

>  <mol_id>  (8) 
88977

>  <source_index>  (8) 
7

>  <layer>  (8) 
L1

>  <uniprot>  (8) 
Q96MU7

>  <paff>  (8) 
6.3468

>  <smiles>  (8) 
CNc1c2c(nc(n1)Cl)n(cn2)Cc3cc(ccc3NS(=O)(=O)C)Cl

$$$$
L1:Q96MU7:110901
     RDKit          3D

 38 40  0  0  0  0  0  0  0  0999 V2000
   -0.2891    4.9299    6.3618 N   0  0  0  0  0  0  0  0  0  0  0  0
    1.0713    5.0685    6.2847 C   0  0  0  0  0  0  0  0  0  0  0  0
    1.4436    6.3263    6.3997 N   0  0  0  0  0  0  0  0  0  0  0  0
    0.2666    7.0316    6.5599 C   0  0  0  0  0  0  0  0  0  0  0  0
    0.0011    8.4064    6.7308 C   0  0  0  0  0  0  0  0  0  0  0  0
   -1.2933    8.7900    6.8667 N   0  0  0  0  0  0  0  0  0  0  0  0
   -2.2449    7.8378    6.8324 C   0  0  0  0  0  0  0  0  0  0  0  0
   -3.8528    8.4003    7.0050 Cl  0  0  0  0  0  0  0  0  0  0  0  0
   -2.1178    6.5052    6.6777 N   0  0  0  0  0  0  0  0  0  0  0  0
   -0.8234    6.1754    6.5448 C   0  0  0  0  0  0  0  0  0  0  0  0
    1.0192    9.3347    6.7601 N   0  0  0  0  0  0  0  0  0  0  0  0
    1.4567    9.9231    7.9956 C   0  0  0  0  0  0  0  0  0  0  0  0
    1.4473    9.5849    5.8767 H   0  0  0  0  0  0  0  0  0  0  0  0
   -1.0239    3.6824    6.3027 C   0  0  0  0  0  0  0  0  0  0  0  0
    0.5912    0.6861    4.5661 C   0  0  0  0  0  0  0  0  0  0  0  0
    0.5700    1.0990    3.2292 C   0  0  0  0  0  0  0  0  0  0  0  0
    0.0450    2.3483    2.8943 C   0  0  0  0  0  0  0  0  0  0  0  0
   -0.4685    3.1837    3.8876 C   0  0  0  0  0  0  0  0  0  0  0  0
   -0.4750    2.7770    5.2297 C   0  0  0  0  0  0  0  0  0  0  0  0
    0.0586    1.5216    5.5587 C   0  0  0  0  0  0  0  0  0  0  0  0
    1.3464   -3.0256    4.4736 C   0  0  0  0  0  0  0  0  0  0  0  0
    0.8590   -1.7064    4.1602 N   0  0  0  0  0  0  0  0  0  0  0  0
    1.1375   -0.6354    4.9822 C   0  0  0  0  0  0  0  0  0  0  0  0
    1.8255   -0.7211    5.9935 O   0  0  0  0  0  0  0  0  0  0  0  0
    0.3977   -1.5631    3.2732 H   0  0  0  0  0  0  0  0  0  0  0  0
    1.7259    4.2817    6.1524 H   0  0  0  0  0  0  0  0  0  0  0  0
    0.8791    9.5259    8.8040 H   0  0  0  0  0  0  0  0  0  0  0  0
    1.3258   10.9841    7.9514 H   0  0  0  0  0  0  0  0  0  0  0  0
    2.4909    9.6975    8.1516 H   0  0  0  0  0  0  0  0  0  0  0  0
   -0.9489    3.1880    7.2486 H   0  0  0  0  0  0  0  0  0  0  0  0
   -2.0454    3.9014    6.0715 H   0  0  0  0  0  0  0  0  0  0  0  0
    0.9421    0.4805    2.4916 H   0  0  0  0  0  0  0  0  0  0  0  0
    0.0365    2.6553    1.9090 H   0  0  0  0  0  0  0  0  0  0  0  0
   -0.8469    4.1092    3.6320 H   0  0  0  0  0  0  0  0  0  0  0  0
    0.0591    1.2095    6.5424 H   0  0  0  0  0  0  0  0  0  0  0  0
    1.8064   -3.0157    5.4396 H   0  0  0  0  0  0  0  0  0  0  0  0
    2.0652   -3.3240    3.7393 H   0  0  0  0  0  0  0  0  0  0  0  0
    0.5296   -3.7167    4.4746 H   0  0  0  0  0  0  0  0  0  0  0  0
  1  2  1  0
  2  3  2  0
  2 26  1  0
  3  4  1  0
  4  5  2  0
  5 11  1  0
  5  6  1  0
  6  7  2  0
  7  8  1  0
  7  9  1  0
  9 10  2  0
 10  1  1  0
 10  4  1  0
 11 12  1  0
 11 13  1  0
 12 27  1  0
 12 28  1  0
 12 29  1  0
 14  1  1  0
 14 30  1  0
 14 31  1  0
 15 16  2  0
 16 17  1  0
 16 32  1  0
 17 18  2  0
 17 33  1  0
 18 19  1  0
 18 34  1  0
 19 14  1  0
 19 20  2  0
 20 15  1  0
 20 35  1  0
 21 22  1  0
 21 36  1  0
 21 37  1  0
 21 38  1  0
 22 23  1  0
 22 25  1  0
 23 24  2  0
 23 15  1  0
M  END
>  <minimizedAffinity>  (9) 
-7.11883

>  <mol_id>  (9) 
110901

>  <source_index>  (9) 
8

>  <layer>  (9) 
L1

>  <uniprot>  (9) 
Q96MU7

>  <paff>  (9) 
6

>  <smiles>  (9) 
CNc1c2c(nc(n1)Cl)n(cn2)Cc3cccc(c3)C(=O)NC

$$$$
L1:Q96MU7:140320
     RDKit          3D

 39 41  0  0  0  0  0  0  0  0999 V2000
   11.9817    3.4703   10.6185 C   0  0  0  0  0  0  0  0  0  0  0  0
   11.9793    4.7735   10.9963 N   0  0  0  0  0  0  0  0  0  0  0  0
   11.1717    5.1397   12.0100 C   0  0  0  0  0  0  0  0  0  0  0  0
   11.2215    6.7996   12.4261 Cl  0  0  0  0  0  0  0  0  0  0  0  0
   10.3292    4.3893   12.7452 N   0  0  0  0  0  0  0  0  0  0  0  0
   10.3737    3.1099   12.3436 C   0  0  0  0  0  0  0  0  0  0  0  0
   11.1402    2.5801   11.3176 C   0  0  0  0  0  0  0  0  0  0  0  0
   10.9049    1.2256   11.1835 N   0  0  0  0  0  0  0  0  0  0  0  0
    9.9997    0.9460   12.0978 C   0  0  0  0  0  0  0  0  0  0  0  0
    9.6856    2.0437   12.8549 N   0  0  0  0  0  0  0  0  0  0  0  0
   14.1960    3.2890    9.5790 C   0  0  0  0  0  0  0  0  0  0  0  0
   12.7815    3.0368    9.5834 N   0  0  0  0  0  0  0  0  0  0  0  0
   12.3312    2.5505    8.8172 H   0  0  0  0  0  0  0  0  0  0  0  0
    8.7437    2.0770   13.9580 C   0  0  0  0  0  0  0  0  0  0  0  0
    7.3499    1.6752   13.5355 C   0  0  0  0  0  0  0  0  0  0  0  0
    6.8246    0.4652   14.0280 C   0  0  0  0  0  0  0  0  0  0  0  0
    5.5375    0.0449   13.6885 C   0  0  0  0  0  0  0  0  0  0  0  0
    4.7498    0.8261   12.8501 C   0  0  0  0  0  0  0  0  0  0  0  0
    5.2526    2.0242   12.3470 C   0  0  0  0  0  0  0  0  0  0  0  0
    6.5439    2.4459   12.6806 C   0  0  0  0  0  0  0  0  0  0  0  0
    6.9825    3.6739   12.1108 N   0  0  0  0  0  0  0  0  0  0  0  0
    7.9727    3.7543   11.8742 H   0  0  0  0  0  0  0  0  0  0  0  0
    6.3228    5.1123   12.6806 S   0  0  0  0  0  0  0  0  0  0  0  0
    7.4390    6.3128   11.9893 C   0  0  0  0  0  0  0  0  0  0  0  0
    5.0037    5.3077   12.1231 O   0  0  0  0  0  0  0  0  0  0  0  0
    6.5283    5.0798   14.1131 O   0  0  0  0  0  0  0  0  0  0  0  0
    9.5780    0.0132   12.2283 H   0  0  0  0  0  0  0  0  0  0  0  0
   14.4681    3.8107   10.4727 H   0  0  0  0  0  0  0  0  0  0  0  0
   14.4494    3.8848    8.7271 H   0  0  0  0  0  0  0  0  0  0  0  0
   14.7239    2.3594    9.5339 H   0  0  0  0  0  0  0  0  0  0  0  0
    8.7104    3.0713   14.3519 H   0  0  0  0  0  0  0  0  0  0  0  0
    9.0772    1.3755   14.6939 H   0  0  0  0  0  0  0  0  0  0  0  0
    7.4014   -0.1214   14.6511 H   0  0  0  0  0  0  0  0  0  0  0  0
    5.1706   -0.8454   14.0596 H   0  0  0  0  0  0  0  0  0  0  0  0
    3.7963    0.5196   12.6014 H   0  0  0  0  0  0  0  0  0  0  0  0
    4.6686    2.6041   11.7243 H   0  0  0  0  0  0  0  0  0  0  0  0
    7.3053    6.3548   10.9285 H   0  0  0  0  0  0  0  0  0  0  0  0
    8.4473    6.0314   12.2108 H   0  0  0  0  0  0  0  0  0  0  0  0
    7.2358    7.2742   12.4128 H   0  0  0  0  0  0  0  0  0  0  0  0
  1  2  2  0
  2  3  1  0
  3  4  1  0
  3  5  2  0
  5  6  1  0
  6  7  2  0
  7  8  1  0
  7  1  1  0
  8  9  2  0
  9 10  1  0
  9 27  1  0
 10 14  1  0
 10  6  1  0
 11 12  1  0
 11 28  1  0
 11 29  1  0
 11 30  1  0
 12  1  1  0
 12 13  1  0
 14 15  1  0
 14 31  1  0
 14 32  1  0
 15 16  2  0
 16 17  1  0
 16 33  1  0
 17 18  2  0
 17 34  1  0
 18 19  1  0
 18 35  1  0
 19 20  2  0
 19 36  1  0
 20 21  1  0
 20 15  1  0
 21 23  1  0
 21 22  1  0
 23 24  1  0
 23 25  2  0
 23 26  2  0
 24 37  1  0
 24 38  1  0
 24 39  1  0
M  END
>  <minimizedAffinity>  (10) 
-5.08169

>  <mol_id>  (10) 
140320

>  <source_index>  (10) 
9

>  <layer>  (10) 
L1

>  <uniprot>  (10) 
Q96MU7

>  <paff>  (10) 
6.3372000000000002

>  <smiles>  (10) 
CNc1c2c(nc(n1)Cl)n(cn2)Cc3ccccc3NS(=O)(=O)C

$$$$
