L1:P08922:1812
     RDKit          3D

 61 68  0  0  0  0  0  0  0  0999 V2000
   40.2781  -23.3381   -2.3137 C   0  0  0  0  0  0  0  0  0  0  0  0
   40.9746  -22.0062   -2.6804 C   0  0  1  0  0  0  0  0  0  0  0  0
   40.9498  -21.0407   -1.4482 C   0  0  1  0  0  0  0  0  0  0  0  0
   42.1710  -21.3658   -0.5518 C   0  0  1  0  0  0  0  0  0  0  0  0
   43.4372  -21.0299   -1.3506 C   0  0  0  0  0  0  0  0  0  0  0  0
   43.4081  -21.6437   -2.7562 C   0  0  1  0  0  0  0  0  0  0  0  0
   42.2972  -22.5028   -3.0048 O   0  0  0  0  0  0  0  0  0  0  0  0
   43.6047  -20.7186   -3.8661 N   0  0  0  0  0  0  0  0  0  0  0  0
   44.8256  -20.1688   -4.2288 C   0  0  0  0  0  0  0  0  0  0  0  0
   46.0855  -20.2387   -3.6067 C   0  0  0  0  0  0  0  0  0  0  0  0
   47.1624  -19.5862   -4.2109 C   0  0  0  0  0  0  0  0  0  0  0  0
   46.9941  -18.8873   -5.3991 C   0  0  0  0  0  0  0  0  0  0  0  0
   45.7393  -18.8231   -6.0139 C   0  0  0  0  0  0  0  0  0  0  0  0
   44.6273  -19.4692   -5.4312 C   0  0  0  0  0  0  0  0  0  0  0  0
   43.2486  -19.5988   -5.7836 C   0  0  0  0  0  0  0  0  0  0  0  0
   42.6657  -20.3561   -4.7813 C   0  0  0  0  0  0  0  0  0  0  0  0
   41.1422  -20.6821   -4.7996 C   0  0  0  0  0  0  0  0  0  0  0  0
   40.3963  -21.3797   -3.8836 N   0  0  0  0  0  0  0  0  0  0  0  0
   39.0533  -21.2677   -4.2433 C   0  0  0  0  0  0  0  0  0  0  0  0
   37.8603  -21.6617   -3.6075 C   0  0  0  0  0  0  0  0  0  0  0  0
   36.6384  -21.4417   -4.2526 C   0  0  0  0  0  0  0  0  0  0  0  0
   36.5870  -20.8304   -5.4963 C   0  0  0  0  0  0  0  0  0  0  0  0
   37.7617  -20.4024   -6.1157 C   0  0  0  0  0  0  0  0  0  0  0  0
   39.0099  -20.6072   -5.4866 C   0  0  0  0  0  0  0  0  0  0  0  0
   40.3368  -20.2172   -5.8168 C   0  0  0  0  0  0  0  0  0  0  0  0
   40.9689  -19.4829   -6.8339 C   0  0  0  0  0  0  0  0  0  0  0  0
   42.3688  -19.1933   -6.7991 C   0  0  0  0  0  0  0  0  0  0  0  0
   42.6728  -18.3958   -7.9969 C   0  0  0  0  0  0  0  0  0  0  0  0
   43.7458  -17.9481   -8.3474 O   0  0  0  0  0  0  0  0  0  0  0  0
   41.4933  -18.2316   -8.6899 N   0  0  0  0  0  0  0  0  0  0  0  0
   40.3665  -18.8550   -8.0555 C   0  0  0  0  0  0  0  0  0  0  0  0
   41.4688  -17.7035   -9.5511 H   0  0  0  0  0  0  0  0  0  0  0  0
   42.1176  -20.6334    0.7328 N   0  0  0  0  0  0  0  0  0  0  0  0
   40.8738  -20.8382    1.4637 C   0  0  0  0  0  0  0  0  0  0  0  0
   42.2408  -19.6350    0.5680 H   0  0  0  0  0  0  0  0  0  0  0  0
   41.0694  -19.6668   -1.8703 O   0  0  0  0  0  0  0  0  0  0  0  0
   39.8934  -18.9025   -1.6534 C   0  0  0  0  0  0  0  0  0  0  0  0
   40.7338  -23.7494   -1.4373 H   0  0  0  0  0  0  0  0  0  0  0  0
   40.3784  -24.0283   -3.1252 H   0  0  0  0  0  0  0  0  0  0  0  0
   39.2404  -23.1578   -2.1250 H   0  0  0  0  0  0  0  0  0  0  0  0
   40.0253  -21.1721   -0.9258 H   0  0  0  0  0  0  0  0  0  0  0  0
   42.1699  -22.4038   -0.2922 H   0  0  0  0  0  0  0  0  0  0  0  0
   44.2884  -21.4097   -0.8251 H   0  0  0  0  0  0  0  0  0  0  0  0
   43.4904  -19.9663   -1.4549 H   0  0  0  0  0  0  0  0  0  0  0  0
   44.2880  -22.2519   -2.7292 H   0  0  0  0  0  0  0  0  0  0  0  0
   46.2110  -20.7598   -2.7248 H   0  0  0  0  0  0  0  0  0  0  0  0
   48.0943  -19.6239   -3.7691 H   0  0  0  0  0  0  0  0  0  0  0  0
   47.8012  -18.4115   -5.8319 H   0  0  0  0  0  0  0  0  0  0  0  0
   45.6258  -18.3013   -6.8970 H   0  0  0  0  0  0  0  0  0  0  0  0
   37.8869  -22.1073   -2.6770 H   0  0  0  0  0  0  0  0  0  0  0  0
   35.7620  -21.7389   -3.7959 H   0  0  0  0  0  0  0  0  0  0  0  0
   35.6779  -20.6918   -5.9647 H   0  0  0  0  0  0  0  0  0  0  0  0
   37.7187  -19.9354   -7.0350 H   0  0  0  0  0  0  0  0  0  0  0  0
   39.9285  -19.5954   -8.6917 H   0  0  0  0  0  0  0  0  0  0  0  0
   39.5775  -18.1683   -7.8301 H   0  0  0  0  0  0  0  0  0  0  0  0
   40.7334  -21.8837    1.6428 H   0  0  0  0  0  0  0  0  0  0  0  0
   40.0550  -20.4620    0.8867 H   0  0  0  0  0  0  0  0  0  0  0  0
   40.9197  -20.3192    2.3983 H   0  0  0  0  0  0  0  0  0  0  0  0
   40.0535  -17.8989   -1.9882 H   0  0  0  0  0  0  0  0  0  0  0  0
   39.6590  -18.8971   -0.6094 H   0  0  0  0  0  0  0  0  0  0  0  0
   39.0811  -19.3352   -2.1991 H   0  0  0  0  0  0  0  0  0  0  0  0
  1 38  1  0
  1 39  1  0
  1 40  1  0
  2  1  1  1
  2  3  1  0
  3  4  1  0
  3 36  1  0
  3 41  1  1
  4  5  1  0
  4 33  1  0
  4 42  1  1
  5  6  1  0
  5 43  1  0
  5 44  1  0
  6  7  1  0
  6  8  1  0
  6 45  1  1
  7  2  1  0
  8  9  1  0
  9 10  2  0
 10 11  1  0
 10 46  1  0
 11 12  2  0
 11 47  1  0
 12 13  1  0
 12 48  1  0
 13 14  2  0
 13 49  1  0
 14 15  1  0
 14  9  1  0
 15 16  2  0
 16 17  1  0
 16  8  1  0
 17 18  1  0
 18 19  1  0
 18  2  1  0
 19 20  2  0
 20 21  1  0
 20 50  1  0
 21 22  2  0
 21 51  1  0
 22 23  1  0
 22 52  1  0
 23 24  2  0
 23 53  1  0
 24 25  1  0
 24 19  1  0
 25 26  1  0
 25 17  2  0
 26 27  2  0
 27 28  1  0
 27 15  1  0
 28 29  2  0
 28 30  1  0
 30 31  1  0
 30 32  1  0
 31 26  1  0
 31 54  1  0
 31 55  1  0
 33 34  1  0
 33 35  1  0
 34 56  1  0
 34 57  1  0
 34 58  1  0
 36 37  1  0
 37 59  1  0
 37 60  1  0
 37 61  1  0
M  END
>  <minimizedAffinity>  (1) 
-10.18988

>  <mol_id>  (1) 
1812

>  <source_index>  (1) 
0

>  <layer>  (1) 
L1

>  <uniprot>  (1) 
P08922

>  <paff>  (1) 
8.8538999999999994

>  <smiles>  (1) 
C[C@@]12[C@@H]([C@@H](C[C@@H](O1)n3c4ccccc4c5c3c6n2c7ccccc7c6c8c5C(=O)NC8)NC)OC

$$$$
L1:P08922:1814
     RDKit          3D

 53 56  0  0  0  0  0  0  0  0999 V2000
   41.1729  -19.3995   -6.7055 C   0  0  0  0  0  0  0  0  0  0  0  0
   40.8242  -19.0283   -7.9874 C   0  0  0  0  0  0  0  0  0  0  0  0
   41.7622  -18.3062   -8.6799 C   0  0  0  0  0  0  0  0  0  0  0  0
   42.9566  -17.9640   -8.1722 N   0  0  0  0  0  0  0  0  0  0  0  0
   43.2276  -18.3507   -6.9192 C   0  0  0  0  0  0  0  0  0  0  0  0
   42.3664  -19.0574   -6.1685 N   0  0  0  0  0  0  0  0  0  0  0  0
   38.5842  -21.6740   -4.1051 C   0  0  0  0  0  0  0  0  0  0  0  0
   38.4156  -21.7392   -5.4917 C   0  0  0  0  0  0  0  0  0  0  0  0
   39.2567  -21.0025   -6.3381 C   0  0  0  0  0  0  0  0  0  0  0  0
   40.2788  -20.1811   -5.8256 C   0  0  0  0  0  0  0  0  0  0  0  0
   40.4249  -20.1289   -4.4269 C   0  0  0  0  0  0  0  0  0  0  0  0
   39.5845  -20.8553   -3.5751 C   0  0  0  0  0  0  0  0  0  0  0  0
   36.8796  -23.2254   -3.5844 O   0  0  0  0  0  0  0  0  0  0  0  0
   37.7142  -22.4325   -3.1644 C   0  0  0  0  0  0  0  0  0  0  0  0
   37.8753  -22.1648   -1.8224 N   0  0  0  0  0  0  0  0  0  0  0  0
   38.3618  -21.3203   -1.5478 H   0  0  0  0  0  0  0  0  0  0  0  0
   36.9765  -22.7770   -0.8593 C   0  0  0  0  0  0  0  0  0  0  0  0
   35.8844  -21.8680   -0.4821 C   0  0  0  0  0  0  0  0  0  0  0  0
   34.9964  -21.1727   -0.2049 N   0  0  0  0  0  0  0  0  0  0  0  0
   44.4315  -18.0430   -6.2929 N   0  0  0  0  0  0  0  0  0  0  0  0
   44.6334  -17.0650   -6.4376 H   0  0  0  0  0  0  0  0  0  0  0  0
   45.3333  -18.7665   -5.5094 C   0  0  0  0  0  0  0  0  0  0  0  0
   46.6941  -18.7212   -5.8307 C   0  0  0  0  0  0  0  0  0  0  0  0
   47.6489  -19.4334   -5.0864 C   0  0  0  0  0  0  0  0  0  0  0  0
   47.2950  -20.2259   -3.9875 C   0  0  0  0  0  0  0  0  0  0  0  0
   45.9280  -20.2740   -3.6851 C   0  0  0  0  0  0  0  0  0  0  0  0
   44.9689  -19.5614   -4.4265 C   0  0  0  0  0  0  0  0  0  0  0  0
   48.2383  -20.9285   -3.2602 N   0  0  0  0  0  0  0  0  0  0  0  0
   47.9105  -21.5863   -1.9855 C   0  0  0  0  0  0  0  0  0  0  0  0
   48.9724  -22.6492   -1.6546 C   0  0  0  0  0  0  0  0  0  0  0  0
   50.3041  -22.1284   -1.5330 O   0  0  0  0  0  0  0  0  0  0  0  0
   50.5201  -20.9421   -2.3100 C   0  0  0  0  0  0  0  0  0  0  0  0
   49.6722  -20.8665   -3.5922 C   0  0  0  0  0  0  0  0  0  0  0  0
   39.9123  -19.2789   -8.4005 H   0  0  0  0  0  0  0  0  0  0  0  0
   41.5377  -18.0102   -9.6427 H   0  0  0  0  0  0  0  0  0  0  0  0
   37.6709  -22.3305   -5.8928 H   0  0  0  0  0  0  0  0  0  0  0  0
   39.1234  -21.0638   -7.3596 H   0  0  0  0  0  0  0  0  0  0  0  0
   41.1691  -19.5413   -4.0196 H   0  0  0  0  0  0  0  0  0  0  0  0
   39.7042  -20.7858   -2.5524 H   0  0  0  0  0  0  0  0  0  0  0  0
   37.5318  -23.0351    0.0182 H   0  0  0  0  0  0  0  0  0  0  0  0
   36.5464  -23.6470   -1.3099 H   0  0  0  0  0  0  0  0  0  0  0  0
   47.0037  -18.1512   -6.6334 H   0  0  0  0  0  0  0  0  0  0  0  0
   48.6426  -19.3706   -5.3580 H   0  0  0  0  0  0  0  0  0  0  0  0
   45.6139  -20.8526   -2.8904 H   0  0  0  0  0  0  0  0  0  0  0  0
   43.9737  -19.6292   -4.1621 H   0  0  0  0  0  0  0  0  0  0  0  0
   46.9521  -22.0554   -2.0648 H   0  0  0  0  0  0  0  0  0  0  0  0
   47.8919  -20.8533   -1.2062 H   0  0  0  0  0  0  0  0  0  0  0  0
   48.9681  -23.3825   -2.4338 H   0  0  0  0  0  0  0  0  0  0  0  0
   48.7127  -23.0586   -0.7007 H   0  0  0  0  0  0  0  0  0  0  0  0
   51.5528  -20.9059   -2.5877 H   0  0  0  0  0  0  0  0  0  0  0  0
   50.2270  -20.1151   -1.6976 H   0  0  0  0  0  0  0  0  0  0  0  0
   49.9228  -21.6881   -4.2303 H   0  0  0  0  0  0  0  0  0  0  0  0
   49.8749  -19.9413   -4.0900 H   0  0  0  0  0  0  0  0  0  0  0  0
  1  2  2  0
  2  3  1  0
  2 34  1  0
  3  4  2  0
  3 35  1  0
  4  5  1  0
  5 20  1  0
  5  6  2  0
  6  1  1  0
  7  8  2  0
  8  9  1  0
  8 36  1  0
  9 10  2  0
  9 37  1  0
 10 11  1  0
 10  1  1  0
 11 12  2  0
 11 38  1  0
 12  7  1  0
 12 39  1  0
 13 14  2  0
 14 15  1  0
 14  7  1  0
 15 17  1  0
 15 16  1  0
 17 18  1  0
 17 40  1  0
 17 41  1  0
 18 19  3  0
 20 22  1  0
 20 21  1  0
 22 23  2  0
 23 24  1  0
 23 42  1  0
 24 25  2  0
 24 43  1  0
 25 26  1  0
 25 28  1  0
 26 27  2  0
 26 44  1  0
 27 22  1  0
 27 45  1  0
 28 29  1  0
 29 30  1  0
 29 46  1  0
 29 47  1  0
 30 31  1  0
 30 48  1  0
 30 49  1  0
 31 32  1  0
 32 33  1  0
 32 50  1  0
 32 51  1  0
 33 28  1  0
 33 52  1  0
 33 53  1  0
M  END
>  <minimizedAffinity>  (2) 
-7.16417

>  <mol_id>  (2) 
1814

>  <source_index>  (2) 
1

>  <layer>  (2) 
L1

>  <uniprot>  (2) 
P08922

>  <paff>  (2) 
6

>  <smiles>  (2) 
O=C(NCC#N)c1ccc(cc1)-c1ccnc(Nc2ccc(cc2)N2CCOCC2)n1

$$$$
L1:P08922:16940
     RDKit          3D

 79 83  0  0  0  0  0  0  0  0999 V2000
   45.3386  -19.3803   -5.1459 C   0  0  0  0  0  0  0  0  0  0  0  0
   44.8299  -20.2368   -4.1634 C   0  0  0  0  0  0  0  0  0  0  0  0
   43.4731  -20.5865   -4.1227 C   0  0  0  0  0  0  0  0  0  0  0  0
   42.5703  -20.0876   -5.0606 C   0  0  0  0  0  0  0  0  0  0  0  0
   43.0648  -19.2201   -6.0575 C   0  0  0  0  0  0  0  0  0  0  0  0
   44.4233  -18.8718   -6.0842 C   0  0  0  0  0  0  0  0  0  0  0  0
   49.5679  -18.8207   -5.5430 C   0  0  0  0  0  0  0  0  0  0  0  0
   48.8933  -18.6564   -4.1688 C   0  0  0  0  0  0  0  0  0  0  0  0
   47.5719  -19.4243   -4.1180 C   0  0  0  0  0  0  0  0  0  0  0  0
   46.6922  -18.9960   -5.2170 N   0  0  0  0  0  0  0  0  0  0  0  0
   47.2830  -19.1807   -6.5569 C   0  0  0  0  0  0  0  0  0  0  0  0
   48.5911  -18.3969   -6.6534 C   0  0  0  0  0  0  0  0  0  0  0  0
   53.2682  -15.8244   -5.3995 C   0  0  0  0  0  0  0  0  0  0  0  0
   53.5369  -17.1008   -6.0635 N   0  0  0  0  0  0  0  0  0  0  0  0
   53.3585  -18.2268   -5.1305 C   0  0  0  0  0  0  0  0  0  0  0  0
   51.8944  -18.4971   -4.6844 C   0  0  0  0  0  0  0  0  0  0  0  0
   50.8751  -18.1539   -5.6929 N   0  0  0  0  0  0  0  0  0  0  0  0
   51.4306  -18.2212   -7.0496 C   0  0  0  0  0  0  0  0  0  0  0  0
   52.6534  -17.2800   -7.2386 C   0  0  0  0  0  0  0  0  0  0  0  0
   42.1198  -18.7669   -6.9518 O   0  0  0  0  0  0  0  0  0  0  0  0
   42.5886  -18.0339   -8.0759 C   0  0  0  0  0  0  0  0  0  0  0  0
   41.2032  -20.4053   -5.0676 N   0  0  0  0  0  0  0  0  0  0  0  0
   40.8619  -20.7311   -5.9651 H   0  0  0  0  0  0  0  0  0  0  0  0
   40.1389  -20.1269   -4.2218 C   0  0  0  0  0  0  0  0  0  0  0  0
   39.1774  -19.2548   -4.5561 N   0  0  0  0  0  0  0  0  0  0  0  0
   38.1644  -19.0967   -3.6822 C   0  0  0  0  0  0  0  0  0  0  0  0
   38.0680  -19.7736   -2.4907 C   0  0  0  0  0  0  0  0  0  0  0  0
   39.1069  -20.6474   -2.2058 C   0  0  0  0  0  0  0  0  0  0  0  0
   40.1397  -20.8088   -3.0646 N   0  0  0  0  0  0  0  0  0  0  0  0
   36.7252  -19.5095   -1.4475 Cl  0  0  0  0  0  0  0  0  0  0  0  0
   39.0898  -21.3737   -0.9856 N   0  0  0  0  0  0  0  0  0  0  0  0
   39.0028  -22.3774   -1.1973 H   0  0  0  0  0  0  0  0  0  0  0  0
   39.8220  -21.1142    0.1965 C   0  0  0  0  0  0  0  0  0  0  0  0
   39.5221  -19.9980    0.9948 C   0  0  0  0  0  0  0  0  0  0  0  0
   40.1900  -19.7627    2.1984 C   0  0  0  0  0  0  0  0  0  0  0  0
   41.1698  -20.6483    2.6305 C   0  0  0  0  0  0  0  0  0  0  0  0
   41.4820  -21.7645    1.8547 C   0  0  0  0  0  0  0  0  0  0  0  0
   40.8132  -22.0141    0.6411 C   0  0  0  0  0  0  0  0  0  0  0  0
   41.2479  -23.4438   -0.3134 P   0  0  0  0  0  0  0  0  0  0  0  0
   40.1314  -24.0134   -1.1601 O   0  0  0  0  0  0  0  0  0  0  0  0
   42.6594  -23.0546   -1.3559 C   0  0  0  0  0  0  0  0  0  0  0  0
   41.8860  -24.7161    0.7838 C   0  0  0  0  0  0  0  0  0  0  0  0
   45.4698  -20.6208   -3.4506 H   0  0  0  0  0  0  0  0  0  0  0  0
   43.1364  -21.2249   -3.3851 H   0  0  0  0  0  0  0  0  0  0  0  0
   44.7605  -18.2239   -6.8133 H   0  0  0  0  0  0  0  0  0  0  0  0
   49.8011  -19.8614   -5.6293 H   0  0  0  0  0  0  0  0  0  0  0  0
   48.7028  -17.6182   -3.9933 H   0  0  0  0  0  0  0  0  0  0  0  0
   49.5465  -19.0472   -3.4168 H   0  0  0  0  0  0  0  0  0  0  0  0
   47.0879  -19.2333   -3.1830 H   0  0  0  0  0  0  0  0  0  0  0  0
   47.7722  -20.4705   -4.2189 H   0  0  0  0  0  0  0  0  0  0  0  0
   46.5994  -18.8253   -7.2994 H   0  0  0  0  0  0  0  0  0  0  0  0
   47.4791  -20.2201   -6.7183 H   0  0  0  0  0  0  0  0  0  0  0  0
   48.3816  -17.3522   -6.5558 H   0  0  0  0  0  0  0  0  0  0  0  0
   49.0425  -18.6004   -7.6019 H   0  0  0  0  0  0  0  0  0  0  0  0
   53.9172  -15.7178   -4.5555 H   0  0  0  0  0  0  0  0  0  0  0  0
   52.2499  -15.8003   -5.0717 H   0  0  0  0  0  0  0  0  0  0  0  0
   53.4410  -15.0220   -6.0859 H   0  0  0  0  0  0  0  0  0  0  0  0
   53.9386  -18.0247   -4.2544 H   0  0  0  0  0  0  0  0  0  0  0  0
   53.6715  -19.1018   -5.6610 H   0  0  0  0  0  0  0  0  0  0  0  0
   51.7012  -17.9202   -3.8042 H   0  0  0  0  0  0  0  0  0  0  0  0
   51.8162  -19.5513   -4.5190 H   0  0  0  0  0  0  0  0  0  0  0  0
   50.6693  -17.9392   -7.7466 H   0  0  0  0  0  0  0  0  0  0  0  0
   51.7633  -19.2245   -7.2157 H   0  0  0  0  0  0  0  0  0  0  0  0
   52.2817  -16.3157   -7.5160 H   0  0  0  0  0  0  0  0  0  0  0  0
   53.2621  -17.7520   -7.9813 H   0  0  0  0  0  0  0  0  0  0  0  0
   41.7576  -17.7440   -8.6845 H   0  0  0  0  0  0  0  0  0  0  0  0
   43.2538  -18.6459   -8.6486 H   0  0  0  0  0  0  0  0  0  0  0  0
   43.1073  -17.1601   -7.7408 H   0  0  0  0  0  0  0  0  0  0  0  0
   37.4164  -18.4274   -3.9221 H   0  0  0  0  0  0  0  0  0  0  0  0
   38.7922  -19.3374    0.6851 H   0  0  0  0  0  0  0  0  0  0  0  0
   39.9564  -18.9329    2.7658 H   0  0  0  0  0  0  0  0  0  0  0  0
   41.6639  -20.4809    3.5209 H   0  0  0  0  0  0  0  0  0  0  0  0
   42.2143  -22.4173    2.1750 H   0  0  0  0  0  0  0  0  0  0  0  0
   42.3856  -22.2950   -2.0580 H   0  0  0  0  0  0  0  0  0  0  0  0
   42.9666  -23.9336   -1.8831 H   0  0  0  0  0  0  0  0  0  0  0  0
   43.4663  -22.7035   -0.7472 H   0  0  0  0  0  0  0  0  0  0  0  0
   41.1148  -25.0253    1.4580 H   0  0  0  0  0  0  0  0  0  0  0  0
   42.7114  -24.3252    1.3413 H   0  0  0  0  0  0  0  0  0  0  0  0
   42.2117  -25.5553    0.2054 H   0  0  0  0  0  0  0  0  0  0  0  0
  1  2  2  0
  2  3  1  0
  2 43  1  0
  3  4  2  0
  3 44  1  0
  4  5  1  0
  4 22  1  0
  5  6  2  0
  5 20  1  0
  6  1  1  0
  6 45  1  0
  7  8  1  0
  7 46  1  0
  8  9  1  0
  8 47  1  0
  8 48  1  0
  9 10  1  0
  9 49  1  0
  9 50  1  0
 10 11  1  0
 10  1  1  0
 11 12  1  0
 11 51  1  0
 11 52  1  0
 12  7  1  0
 12 53  1  0
 12 54  1  0
 13 14  1  0
 13 55  1  0
 13 56  1  0
 13 57  1  0
 14 15  1  0
 15 16  1  0
 15 58  1  0
 15 59  1  0
 16 17  1  0
 16 60  1  0
 16 61  1  0
 17 18  1  0
 17  7  1  0
 18 19  1  0
 18 62  1  0
 18 63  1  0
 19 14  1  0
 19 64  1  0
 19 65  1  0
 20 21  1  0
 21 66  1  0
 21 67  1  0
 21 68  1  0
 22 24  1  0
 22 23  1  0
 24 25  2  0
 25 26  1  0
 26 27  2  0
 26 69  1  0
 27 28  1  0
 27 30  1  0
 28 29  2  0
 28 31  1  0
 29 24  1  0
 31 33  1  0
 31 32  1  0
 33 34  2  0
 34 35  1  0
 34 70  1  0
 35 36  2  0
 35 71  1  0
 36 37  1  0
 36 72  1  0
 37 38  2  0
 37 73  1  0
 38 39  1  0
 38 33  1  0
 39 40  2  0
 39 41  1  0
 39 42  1  0
 41 74  1  0
 41 75  1  0
 41 76  1  0
 42 77  1  0
 42 78  1  0
 42 79  1  0
M  END
>  <minimizedAffinity>  (3) 
-7.16876

>  <mol_id>  (3) 
16940

>  <source_index>  (3) 
2

>  <layer>  (3) 
L1

>  <uniprot>  (3) 
P08922

>  <paff>  (3) 
8.7211999999999996

>  <smiles>  (3) 
CN1CCN(CC1)C2CCN(CC2)c3ccc(c(c3)OC)Nc4ncc(c(n4)Nc5ccccc5P(=O)(C)C)Cl

$$$$
L1:P08922:38653
     RDKit          3D

 44 47  0  0  0  0  0  0  0  0999 V2000
   40.3762  -22.0427   -3.4919 C   0  0  0  0  0  0  0  0  0  0  0  0
   40.4845  -20.7399   -2.6968 C   0  0  1  0  0  0  0  0  0  0  0  0
   41.8902  -20.3226   -2.6056 N   0  0  0  0  0  0  0  0  0  0  0  0
   42.6697  -19.9233   -3.6684 C   0  0  0  0  0  0  0  0  0  0  0  0
   44.1472  -19.7219   -3.4366 C   0  0  0  0  0  0  0  0  0  0  0  0
   44.8836  -19.3293   -4.4867 C   0  0  0  0  0  0  0  0  0  0  0  0
   44.2865  -19.1249   -5.7230 N   0  0  0  0  0  0  0  0  0  0  0  0
   44.8632  -18.7233   -6.8828 N   0  0  0  0  0  0  0  0  0  0  0  0
   43.8484  -18.6658   -7.7520 C   0  0  0  0  0  0  0  0  0  0  0  0
   42.6150  -19.0448   -7.1907 C   0  0  0  0  0  0  0  0  0  0  0  0
   42.9216  -19.3320   -5.8747 C   0  0  0  0  0  0  0  0  0  0  0  0
   42.1207  -19.7301   -4.8403 N   0  0  0  0  0  0  0  0  0  0  0  0
   41.3012  -19.0981   -7.8029 C   0  0  0  0  0  0  0  0  0  0  0  0
   41.0696  -18.6484   -8.9192 O   0  0  0  0  0  0  0  0  0  0  0  0
   40.3418  -19.6792   -7.0036 N   0  0  0  0  0  0  0  0  0  0  0  0
   38.9277  -19.4357   -7.1745 C   0  0  0  0  0  0  0  0  0  0  0  0
   38.0752  -20.3741   -6.2994 C   0  0  2  0  0  0  0  0  0  0  0  0
   38.6275  -20.5243   -4.9722 O   0  0  0  0  0  0  0  0  0  0  0  0
   38.6587  -19.4773   -4.0971 C   0  0  0  0  0  0  0  0  0  0  0  0
   37.8195  -18.3587   -4.2256 C   0  0  0  0  0  0  0  0  0  0  0  0
   37.8921  -17.3005   -3.3193 C   0  0  0  0  0  0  0  0  0  0  0  0
   38.7958  -17.3623   -2.2742 C   0  0  0  0  0  0  0  0  0  0  0  0
   38.8685  -16.3514   -1.3990 F   0  0  0  0  0  0  0  0  0  0  0  0
   39.6171  -18.4698   -2.1130 C   0  0  0  0  0  0  0  0  0  0  0  0
   39.5661  -19.5584   -3.0149 C   0  0  0  0  0  0  0  0  0  0  0  0
   42.3722  -20.6894   -1.7946 H   0  0  0  0  0  0  0  0  0  0  0  0
   40.6412  -19.8473   -6.0397 H   0  0  0  0  0  0  0  0  0  0  0  0
   38.0568  -21.7720   -6.9228 C   0  0  0  0  0  0  0  0  0  0  0  0
   37.9781  -22.6983   -5.9234 F   0  0  0  0  0  0  0  0  0  0  0  0
   41.0955  -22.7450   -3.1255 H   0  0  0  0  0  0  0  0  0  0  0  0
   40.5649  -21.8458   -4.5266 H   0  0  0  0  0  0  0  0  0  0  0  0
   39.3925  -22.4483   -3.3796 H   0  0  0  0  0  0  0  0  0  0  0  0
   40.0783  -21.0311   -1.7507 H   0  0  0  0  0  0  0  0  0  0  0  0
   44.5728  -19.8795   -2.5098 H   0  0  0  0  0  0  0  0  0  0  0  0
   45.8984  -19.1786   -4.3750 H   0  0  0  0  0  0  0  0  0  0  0  0
   43.9588  -18.3729   -8.7354 H   0  0  0  0  0  0  0  0  0  0  0  0
   38.6711  -19.5919   -8.2015 H   0  0  0  0  0  0  0  0  0  0  0  0
   38.7255  -18.4282   -6.8762 H   0  0  0  0  0  0  0  0  0  0  0  0
   37.0980  -19.9424   -6.2390 H   0  0  0  0  0  0  0  0  0  0  0  0
   37.1397  -18.3189   -5.0011 H   0  0  0  0  0  0  0  0  0  0  0  0
   37.2770  -16.4790   -3.4278 H   0  0  0  0  0  0  0  0  0  0  0  0
   40.2773  -18.4995   -1.3203 H   0  0  0  0  0  0  0  0  0  0  0  0
   38.9532  -21.9263   -7.4863 H   0  0  0  0  0  0  0  0  0  0  0  0
   37.2139  -21.8682   -7.5749 H   0  0  0  0  0  0  0  0  0  0  0  0
  1  2  1  0
  1 30  1  0
  1 31  1  0
  1 32  1  0
  2  3  1  0
  2 33  1  1
  3  4  1  0
  3 26  1  0
  4  5  1  0
  5  6  2  0
  5 34  1  0
  6  7  1  0
  6 35  1  0
  7  8  1  0
  8  9  2  0
  9 10  1  0
  9 36  1  0
 10 11  2  0
 10 13  1  0
 11 12  1  0
 11  7  1  0
 12  4  2  0
 13 14  2  0
 13 15  1  0
 15 16  1  0
 15 27  1  0
 16 17  1  0
 16 37  1  0
 16 38  1  0
 17 28  1  0
 17 18  1  0
 17 39  1  1
 18 19  1  0
 19 20  2  0
 20 21  1  0
 20 40  1  0
 21 22  2  0
 21 41  1  0
 22 23  1  0
 22 24  1  0
 24 25  2  0
 24 42  1  0
 25  2  1  0
 25 19  1  0
 28 29  1  0
 28 43  1  0
 28 44  1  0
M  END
>  <minimizedAffinity>  (4) 
-7.00059

>  <mol_id>  (4) 
38653

>  <source_index>  (4) 
3

>  <layer>  (4) 
L1

>  <uniprot>  (4) 
P08922

>  <paff>  (4) 
8.6989999999999998

>  <smiles>  (4) 
C[C@H]1Nc2ccn3ncc(c3n2)C(=O)NC[C@@H](CF)Oc2ccc(F)cc21

$$$$
L1:P08922:44625
     RDKit          3D

 52 57  0  0  0  0  0  0  0  0999 V2000
   41.0089  -18.4007   -8.5459 C   0  0  0  0  0  0  0  0  0  0  0  0
   42.2952  -17.9374   -8.3779 C   0  0  0  0  0  0  0  0  0  0  0  0
   42.7887  -18.6402   -7.3133 N   0  0  0  0  0  0  0  0  0  0  0  0
   44.0244  -18.6321   -6.7051 C   0  0  0  0  0  0  0  0  0  0  0  0
   44.2303  -19.4693   -5.6699 C   0  0  0  0  0  0  0  0  0  0  0  0
   43.2501  -20.3206   -5.1783 N   0  0  0  0  0  0  0  0  0  0  0  0
   42.0451  -20.3318   -5.7250 C   0  0  0  0  0  0  0  0  0  0  0  0
   41.7877  -19.4644   -6.8689 C   0  0  0  0  0  0  0  0  0  0  0  0
   40.7019  -19.3554   -7.6083 N   0  0  0  0  0  0  0  0  0  0  0  0
   45.5440  -19.4763   -4.9848 C   0  0  0  0  0  0  0  0  0  0  0  0
   45.6844  -20.1844   -3.7805 C   0  0  0  0  0  0  0  0  0  0  0  0
   46.9050  -20.2290   -3.0905 C   0  0  0  0  0  0  0  0  0  0  0  0
   48.0093  -19.5536   -3.6328 C   0  0  0  0  0  0  0  0  0  0  0  0
   49.3614  -19.3566   -3.2749 C   0  0  0  0  0  0  0  0  0  0  0  0
   50.0277  -18.6133   -4.1626 N   0  0  0  0  0  0  0  0  0  0  0  0
   49.1002  -18.3400   -5.0976 N   0  0  0  0  0  0  0  0  0  0  0  0
   47.8637  -18.8680   -4.8326 C   0  0  0  0  0  0  0  0  0  0  0  0
   46.6541  -18.8092   -5.5364 C   0  0  0  0  0  0  0  0  0  0  0  0
   49.3764  -17.7824   -5.8974 H   0  0  0  0  0  0  0  0  0  0  0  0
   41.1683  -21.2321   -5.1605 N   0  0  0  0  0  0  0  0  0  0  0  0
   41.5499  -22.1708   -5.1786 H   0  0  0  0  0  0  0  0  0  0  0  0
   40.3051  -21.0503   -4.0642 C   0  0  0  0  0  0  0  0  0  0  0  0
   39.7433  -19.8331   -3.6920 C   0  0  0  0  0  0  0  0  0  0  0  0
   38.8679  -19.7416   -2.5962 C   0  0  0  0  0  0  0  0  0  0  0  0
   38.5053  -20.8575   -1.8297 C   0  0  0  0  0  0  0  0  0  0  0  0
   39.0715  -22.0773   -2.2199 C   0  0  0  0  0  0  0  0  0  0  0  0
   39.9446  -22.1750   -3.3146 C   0  0  0  0  0  0  0  0  0  0  0  0
   37.6460  -20.7559   -0.7519 N   0  0  0  0  0  0  0  0  0  0  0  0
   38.0530  -21.1139    0.6152 C   0  0  0  0  0  0  0  0  0  0  0  0
   37.1566  -20.3912    1.6351 C   0  0  0  0  0  0  0  0  0  0  0  0
   35.7608  -20.6993    1.5112 O   0  0  0  0  0  0  0  0  0  0  0  0
   35.3788  -21.0666    0.1783 C   0  0  0  0  0  0  0  0  0  0  0  0
   36.2258  -20.4063   -0.9234 C   0  0  0  0  0  0  0  0  0  0  0  0
   40.3614  -18.0733   -9.2798 H   0  0  0  0  0  0  0  0  0  0  0  0
   42.7810  -17.2167   -8.9343 H   0  0  0  0  0  0  0  0  0  0  0  0
   44.7725  -18.0016   -7.0336 H   0  0  0  0  0  0  0  0  0  0  0  0
   44.8691  -20.6847   -3.3932 H   0  0  0  0  0  0  0  0  0  0  0  0
   46.9892  -20.7478   -2.2024 H   0  0  0  0  0  0  0  0  0  0  0  0
   49.7886  -19.7451   -2.4196 H   0  0  0  0  0  0  0  0  0  0  0  0
   46.5793  -18.2949   -6.4280 H   0  0  0  0  0  0  0  0  0  0  0  0
   39.9733  -18.9828   -4.2297 H   0  0  0  0  0  0  0  0  0  0  0  0
   38.4780  -18.8192   -2.3470 H   0  0  0  0  0  0  0  0  0  0  0  0
   38.8399  -22.9300   -1.6867 H   0  0  0  0  0  0  0  0  0  0  0  0
   40.3292  -23.0973   -3.5722 H   0  0  0  0  0  0  0  0  0  0  0  0
   39.0713  -20.8237    0.7696 H   0  0  0  0  0  0  0  0  0  0  0  0
   37.9541  -22.1712    0.7465 H   0  0  0  0  0  0  0  0  0  0  0  0
   37.2807  -19.3366    1.5035 H   0  0  0  0  0  0  0  0  0  0  0  0
   37.4612  -20.7258    2.6047 H   0  0  0  0  0  0  0  0  0  0  0  0
   34.3574  -20.7836    0.0316 H   0  0  0  0  0  0  0  0  0  0  0  0
   35.5319  -22.1222    0.0937 H   0  0  0  0  0  0  0  0  0  0  0  0
   36.1140  -19.3437   -0.8659 H   0  0  0  0  0  0  0  0  0  0  0  0
   35.8927  -20.7578   -1.8775 H   0  0  0  0  0  0  0  0  0  0  0  0
  1  2  2  0
  1 34  1  0
  2  3  1  0
  2 35  1  0
  3  4  1  0
  4  5  2  0
  4 36  1  0
  5 10  1  0
  5  6  1  0
  6  7  2  0
  7 20  1  0
  7  8  1  0
  8  9  2  0
  8  3  1  0
  9  1  1  0
 10 11  2  0
 11 12  1  0
 11 37  1  0
 12 13  2  0
 12 38  1  0
 13 14  1  0
 14 15  2  0
 14 39  1  0
 15 16  1  0
 16 17  1  0
 16 19  1  0
 17 18  2  0
 17 13  1  0
 18 10  1  0
 18 40  1  0
 20 22  1  0
 20 21  1  0
 22 23  2  0
 23 24  1  0
 23 41  1  0
 24 25  2  0
 24 42  1  0
 25 28  1  0
 25 26  1  0
 26 27  2  0
 26 43  1  0
 27 22  1  0
 27 44  1  0
 28 29  1  0
 29 30  1  0
 29 45  1  0
 29 46  1  0
 30 31  1  0
 30 47  1  0
 30 48  1  0
 31 32  1  0
 32 33  1  0
 32 49  1  0
 32 50  1  0
 33 28  1  0
 33 51  1  0
 33 52  1  0
M  END
>  <minimizedAffinity>  (5) 
-7.94317

>  <mol_id>  (5) 
44625

>  <source_index>  (5) 
4

>  <layer>  (5) 
L1

>  <uniprot>  (5) 
P08922

>  <paff>  (5) 
6.0670000000000002

>  <smiles>  (5) 
c1cn2cc(-c3ccc4cn[nH]c4c3)nc(Nc3ccc(N4CCOCC4)cc3)c2n1

$$$$
L1:P08922:52639
     RDKit          3D

 69 73  0  0  0  0  0  0  0  0999 V2000
   44.0434  -18.6515   -6.2195 C   0  0  0  0  0  0  0  0  0  0  0  0
   44.0505  -17.9674   -7.3743 N   0  0  0  0  0  0  0  0  0  0  0  0
   42.9320  -18.0128   -8.1257 C   0  0  0  0  0  0  0  0  0  0  0  0
   41.8044  -18.7036   -7.7659 C   0  0  0  0  0  0  0  0  0  0  0  0
   40.7272  -18.7085   -8.5622 F   0  0  0  0  0  0  0  0  0  0  0  0
   41.8604  -19.3820   -6.5659 C   0  0  0  0  0  0  0  0  0  0  0  0
   42.9819  -19.3634   -5.7988 N   0  0  0  0  0  0  0  0  0  0  0  0
   40.7345  -20.1673   -6.0145 C   0  0  0  0  0  0  0  0  0  0  0  0
   39.9259  -20.9370   -6.8701 C   0  0  0  0  0  0  0  0  0  0  0  0
   38.8557  -21.6939   -6.3846 C   0  0  0  0  0  0  0  0  0  0  0  0
   38.1118  -22.3986   -7.2497 F   0  0  0  0  0  0  0  0  0  0  0  0
   38.5732  -21.7041   -5.0106 C   0  0  0  0  0  0  0  0  0  0  0  0
   37.5899  -22.3498   -4.3067 N   0  0  0  0  0  0  0  0  0  0  0  0
   37.7610  -22.0244   -3.0416 C   0  0  0  0  0  0  0  0  0  0  0  0
   36.8859  -22.5147   -1.9466 C   0  0  0  0  0  0  0  0  0  0  0  0
   38.8539  -21.1909   -2.8920 N   0  0  0  0  0  0  0  0  0  0  0  0
   39.3769  -20.9581   -4.1548 C   0  0  0  0  0  0  0  0  0  0  0  0
   40.4540  -20.1843   -4.6285 C   0  0  0  0  0  0  0  0  0  0  0  0
   39.3876  -20.6063   -1.6627 C   0  0  0  0  0  0  0  0  0  0  0  0
   40.6668  -21.3095   -1.2093 C   0  0  0  0  0  0  0  0  0  0  0  0
   39.5519  -19.0859   -1.7048 C   0  0  0  0  0  0  0  0  0  0  0  0
   45.1329  -18.6576   -5.3705 N   0  0  0  0  0  0  0  0  0  0  0  0
   44.9033  -18.3233   -4.4483 H   0  0  0  0  0  0  0  0  0  0  0  0
   49.2227  -19.4053   -5.5951 C   0  0  0  0  0  0  0  0  0  0  0  0
   48.5654  -18.9609   -6.7395 C   0  0  0  0  0  0  0  0  0  0  0  0
   47.1911  -18.7103   -6.7022 C   0  0  0  0  0  0  0  0  0  0  0  0
   46.4860  -18.8964   -5.5203 C   0  0  0  0  0  0  0  0  0  0  0  0
   47.1085  -19.3337   -4.4030 N   0  0  0  0  0  0  0  0  0  0  0  0
   48.4398  -19.5746   -4.4609 C   0  0  0  0  0  0  0  0  0  0  0  0
   50.7062  -19.6689   -5.5613 C   0  0  0  0  0  0  0  0  0  0  0  0
   54.1534  -17.7085   -7.3147 N   0  0  0  0  0  0  0  0  0  0  0  0
   54.0491  -19.0857   -6.7869 C   0  0  0  0  0  0  0  0  0  0  0  0
   52.6936  -19.7838   -7.0464 C   0  0  0  0  0  0  0  0  0  0  0  0
   51.5210  -19.0256   -6.5910 N   0  0  0  0  0  0  0  0  0  0  0  0
   51.8197  -17.6069   -6.3528 C   0  0  0  0  0  0  0  0  0  0  0  0
   52.8219  -17.0653   -7.3945 C   0  0  0  0  0  0  0  0  0  0  0  0
   53.8556  -17.4974   -9.7755 C   0  0  0  0  0  0  0  0  0  0  0  0
   54.8334  -17.6293   -8.6126 C   0  0  0  0  0  0  0  0  0  0  0  0
   42.9246  -17.4992   -9.0208 H   0  0  0  0  0  0  0  0  0  0  0  0
   40.1279  -20.9431   -7.8821 H   0  0  0  0  0  0  0  0  0  0  0  0
   36.1213  -23.1421   -2.3549 H   0  0  0  0  0  0  0  0  0  0  0  0
   36.4356  -21.6810   -1.4495 H   0  0  0  0  0  0  0  0  0  0  0  0
   37.4703  -23.0743   -1.2464 H   0  0  0  0  0  0  0  0  0  0  0  0
   41.0317  -19.6362   -3.9721 H   0  0  0  0  0  0  0  0  0  0  0  0
   38.6361  -20.7801   -0.9211 H   0  0  0  0  0  0  0  0  0  0  0  0
   41.4371  -21.1515   -1.9350 H   0  0  0  0  0  0  0  0  0  0  0  0
   40.4809  -22.3585   -1.1092 H   0  0  0  0  0  0  0  0  0  0  0  0
   40.9779  -20.9108   -0.2663 H   0  0  0  0  0  0  0  0  0  0  0  0
   40.2944  -18.8274   -2.4306 H   0  0  0  0  0  0  0  0  0  0  0  0
   39.8566  -18.7333   -0.7416 H   0  0  0  0  0  0  0  0  0  0  0  0
   38.6196  -18.6337   -1.9717 H   0  0  0  0  0  0  0  0  0  0  0  0
   49.0929  -18.8167   -7.6147 H   0  0  0  0  0  0  0  0  0  0  0  0
   46.7012  -18.3876   -7.5512 H   0  0  0  0  0  0  0  0  0  0  0  0
   48.9051  -19.9073   -3.6019 H   0  0  0  0  0  0  0  0  0  0  0  0
   51.0703  -19.3403   -4.6103 H   0  0  0  0  0  0  0  0  0  0  0  0
   50.8050  -20.7182   -5.7458 H   0  0  0  0  0  0  0  0  0  0  0  0
   54.2063  -19.0487   -5.7292 H   0  0  0  0  0  0  0  0  0  0  0  0
   54.7865  -19.6617   -7.3059 H   0  0  0  0  0  0  0  0  0  0  0  0
   52.7002  -20.7258   -6.5389 H   0  0  0  0  0  0  0  0  0  0  0  0
   52.5997  -19.8811   -8.1078 H   0  0  0  0  0  0  0  0  0  0  0  0
   52.2398  -17.4980   -5.3748 H   0  0  0  0  0  0  0  0  0  0  0  0
   50.9098  -17.0502   -6.4365 H   0  0  0  0  0  0  0  0  0  0  0  0
   52.9423  -16.0140   -7.2356 H   0  0  0  0  0  0  0  0  0  0  0  0
   52.4219  -17.2831   -8.3627 H   0  0  0  0  0  0  0  0  0  0  0  0
   54.4001  -17.4437  -10.6950 H   0  0  0  0  0  0  0  0  0  0  0  0
   53.2737  -16.6078   -9.6531 H   0  0  0  0  0  0  0  0  0  0  0  0
   53.2069  -18.3481   -9.7943 H   0  0  0  0  0  0  0  0  0  0  0  0
   55.4806  -16.7772   -8.6098 H   0  0  0  0  0  0  0  0  0  0  0  0
   55.3813  -18.5381   -8.7492 H   0  0  0  0  0  0  0  0  0  0  0  0
  1  2  2  0
  2  3  1  0
  3  4  2  0
  3 39  1  0
  4  5  1  0
  4  6  1  0
  6  7  2  0
  6  8  1  0
  7  1  1  0
  8  9  2  0
  9 10  1  0
  9 40  1  0
 10 11  1  0
 10 12  2  0
 12 13  1  0
 13 14  2  0
 14 15  1  0
 14 16  1  0
 15 41  1  0
 15 42  1  0
 15 43  1  0
 16 19  1  0
 16 17  1  0
 17 18  2  0
 17 12  1  0
 18  8  1  0
 18 44  1  0
 19 20  1  0
 19 21  1  0
 19 45  1  0
 20 46  1  0
 20 47  1  0
 20 48  1  0
 21 49  1  0
 21 50  1  0
 21 51  1  0
 22  1  1  0
 22 23  1  0
 24 25  2  0
 25 26  1  0
 25 52  1  0
 26 27  2  0
 26 53  1  0
 27 22  1  0
 27 28  1  0
 28 29  2  0
 29 24  1  0
 29 54  1  0
 30 24  1  0
 30 55  1  0
 30 56  1  0
 31 32  1  0
 32 33  1  0
 32 57  1  0
 32 58  1  0
 33 34  1  0
 33 59  1  0
 33 60  1  0
 34 30  1  0
 34 35  1  0
 35 36  1  0
 35 61  1  0
 35 62  1  0
 36 31  1  0
 36 63  1  0
 36 64  1  0
 37 38  1  0
 37 65  1  0
 37 66  1  0
 37 67  1  0
 38 31  1  0
 38 68  1  0
 38 69  1  0
M  END
>  <minimizedAffinity>  (6) 
-8.21303

>  <mol_id>  (6) 
52639

>  <source_index>  (6) 
5

>  <layer>  (6) 
L1

>  <uniprot>  (6) 
P08922

>  <paff>  (6) 
6

>  <smiles>  (6) 
CCN1CCN(Cc2ccc(Nc3ncc(F)c(n3)-c3cc(F)c4nc(C)n(C(C)C)c4c3)nc2)CC1

$$$$
L1:P08922:62123
     RDKit          3D

 45 47  0  0  0  0  0  0  0  0999 V2000
   41.6672  -20.3409   -4.5362 N   0  0  0  0  0  0  0  0  0  0  0  0
   42.8271  -19.8340   -5.1777 C   0  0  0  0  0  0  0  0  0  0  0  0
   44.0273  -19.6559   -4.4491 C   0  0  0  0  0  0  0  0  0  0  0  0
   45.1929  -19.1386   -5.0224 C   0  0  0  0  0  0  0  0  0  0  0  0
   45.1964  -18.7673   -6.3540 C   0  0  0  0  0  0  0  0  0  0  0  0
   44.0341  -18.9170   -7.1014 C   0  0  0  0  0  0  0  0  0  0  0  0
   42.8471  -19.4510   -6.5405 C   0  0  0  0  0  0  0  0  0  0  0  0
   41.6832  -19.5426   -7.5099 C   0  0  0  0  0  0  0  0  0  0  0  0
   40.4790  -20.3923   -7.1261 C   0  0  0  0  0  0  0  0  0  0  0  0
   39.7533  -19.7861   -5.9576 C   0  0  0  0  0  0  0  0  0  0  0  0
   40.3771  -19.7685   -4.6986 C   0  0  0  0  0  0  0  0  0  0  0  0
   39.6948  -19.1709   -3.6251 C   0  0  0  0  0  0  0  0  0  0  0  0
   38.4224  -18.6274   -3.8014 C   0  0  0  0  0  0  0  0  0  0  0  0
   37.8046  -18.6628   -5.0460 C   0  0  0  0  0  0  0  0  0  0  0  0
   38.4707  -19.2390   -6.1252 C   0  0  0  0  0  0  0  0  0  0  0  0
   37.6109  -17.9043   -2.4663 Cl  0  0  0  0  0  0  0  0  0  0  0  0
   41.8028  -21.1665   -3.3132 C   0  0  0  0  0  0  0  0  0  0  0  0
   40.9761  -22.4621   -3.3612 C   0  0  0  0  0  0  0  0  0  0  0  0
   40.1508  -22.6673   -2.0826 C   0  0  0  0  0  0  0  0  0  0  0  0
   38.2532  -22.5892   -3.6261 C   0  0  0  0  0  0  0  0  0  0  0  0
   38.6867  -22.6550   -2.2348 N   0  0  0  0  0  0  0  0  0  0  0  0
   38.0472  -21.6158   -1.4323 C   0  0  0  0  0  0  0  0  0  0  0  0
   44.0428  -19.9193   -3.4514 H   0  0  0  0  0  0  0  0  0  0  0  0
   46.0476  -19.0343   -4.4535 H   0  0  0  0  0  0  0  0  0  0  0  0
   46.0509  -18.3840   -6.7875 H   0  0  0  0  0  0  0  0  0  0  0  0
   44.0355  -18.6312   -8.0930 H   0  0  0  0  0  0  0  0  0  0  0  0
   42.0674  -19.9366   -8.4275 H   0  0  0  0  0  0  0  0  0  0  0  0
   41.2969  -18.5455   -7.5482 H   0  0  0  0  0  0  0  0  0  0  0  0
   40.8116  -21.3744   -6.8621 H   0  0  0  0  0  0  0  0  0  0  0  0
   39.8105  -20.4391   -7.9602 H   0  0  0  0  0  0  0  0  0  0  0  0
   40.1406  -19.1337   -2.6951 H   0  0  0  0  0  0  0  0  0  0  0  0
   36.8602  -18.2655   -5.1695 H   0  0  0  0  0  0  0  0  0  0  0  0
   38.0193  -19.2640   -7.0529 H   0  0  0  0  0  0  0  0  0  0  0  0
   42.8337  -21.4254   -3.1905 H   0  0  0  0  0  0  0  0  0  0  0  0
   41.4339  -20.5845   -2.4946 H   0  0  0  0  0  0  0  0  0  0  0  0
   40.3107  -22.4162   -4.1979 H   0  0  0  0  0  0  0  0  0  0  0  0
   41.6555  -23.2838   -3.4507 H   0  0  0  0  0  0  0  0  0  0  0  0
   40.4261  -23.6140   -1.6668 H   0  0  0  0  0  0  0  0  0  0  0  0
   40.3773  -21.8255   -1.4622 H   0  0  0  0  0  0  0  0  0  0  0  0
   37.1840  -22.5835   -3.6666 H   0  0  0  0  0  0  0  0  0  0  0  0
   38.6257  -23.4406   -4.1564 H   0  0  0  0  0  0  0  0  0  0  0  0
   38.6320  -21.6952   -4.0758 H   0  0  0  0  0  0  0  0  0  0  0  0
   36.9881  -21.6520   -1.5803 H   0  0  0  0  0  0  0  0  0  0  0  0
   38.4165  -20.6569   -1.7307 H   0  0  0  0  0  0  0  0  0  0  0  0
   38.2685  -21.7771   -0.3979 H   0  0  0  0  0  0  0  0  0  0  0  0
  1  2  1  0
  2  3  2  0
  3  4  1  0
  3 23  1  0
  4  5  2  0
  4 24  1  0
  5  6  1  0
  5 25  1  0
  6  7  2  0
  6 26  1  0
  7  8  1  0
  7  2  1  0
  8  9  1  0
  8 27  1  0
  8 28  1  0
  9 10  1  0
  9 29  1  0
  9 30  1  0
 10 11  2  0
 11 12  1  0
 11  1  1  0
 12 13  2  0
 12 31  1  0
 13 14  1  0
 13 16  1  0
 14 15  2  0
 14 32  1  0
 15 10  1  0
 15 33  1  0
 17  1  1  0
 17 34  1  0
 17 35  1  0
 18 17  1  0
 18 36  1  0
 18 37  1  0
 19 18  1  0
 19 38  1  0
 19 39  1  0
 20 21  1  0
 20 40  1  0
 20 41  1  0
 20 42  1  0
 21 22  1  0
 21 19  1  0
 22 43  1  0
 22 44  1  0
 22 45  1  0
M  END
>  <minimizedAffinity>  (7) 
-6.60707

>  <mol_id>  (7) 
62123

>  <source_index>  (7) 
6

>  <layer>  (7) 
L1

>  <uniprot>  (7) 
P08922

>  <paff>  (7) 
6

>  <smiles>  (7) 
CN(C)CCCN1c2ccccc2CCc3c1cc(cc3)Cl

$$$$
L1:P08922:62474
     RDKit          3D

 58 65  0  0  0  0  0  0  0  0999 V2000
   39.2688  -19.3497   -2.7259 C   0  0  2  0  0  0  0  0  0  0  0  0
   38.8606  -19.5332   -4.1900 C   0  0  0  0  0  0  0  0  0  0  0  0
   39.6748  -20.6462   -4.8564 C   0  0  2  0  0  0  0  0  0  0  0  0
   39.7346  -21.8715   -4.1231 O   0  0  0  0  0  0  0  0  0  0  0  0
   39.9402  -21.7793   -2.7034 C   0  0  2  0  0  0  0  0  0  0  0  0
   39.0794  -20.7055   -1.9967 C   0  0  2  0  0  0  0  0  0  0  0  0
   41.3642  -21.6878   -2.3831 N   0  0  0  0  0  0  0  0  0  0  0  0
   41.9589  -22.1735   -1.2272 C   0  0  0  0  0  0  0  0  0  0  0  0
   41.4140  -22.8579   -0.1270 C   0  0  0  0  0  0  0  0  0  0  0  0
   42.2716  -23.2287    0.9123 C   0  0  0  0  0  0  0  0  0  0  0  0
   43.6287  -22.9301    0.8620 C   0  0  0  0  0  0  0  0  0  0  0  0
   44.1669  -22.2495   -0.2346 C   0  0  0  0  0  0  0  0  0  0  0  0
   43.3266  -21.8611   -1.2995 C   0  0  0  0  0  0  0  0  0  0  0  0
   43.5444  -21.1708   -2.5274 C   0  0  0  0  0  0  0  0  0  0  0  0
   44.6244  -20.5907   -3.2128 C   0  0  0  0  0  0  0  0  0  0  0  0
   46.0688  -20.5216   -2.8133 C   0  0  0  0  0  0  0  0  0  0  0  0
   46.6709  -19.8021   -3.9006 N   0  0  0  0  0  0  0  0  0  0  0  0
   45.7784  -19.4512   -4.8898 C   0  0  0  0  0  0  0  0  0  0  0  0
   46.0681  -18.8432   -5.9000 O   0  0  0  0  0  0  0  0  0  0  0  0
   44.4554  -19.9431   -4.4791 C   0  0  0  0  0  0  0  0  0  0  0  0
   43.2348  -19.8172   -5.1629 C   0  0  0  0  0  0  0  0  0  0  0  0
   42.7179  -19.2600   -6.3725 C   0  0  0  0  0  0  0  0  0  0  0  0
   43.2867  -18.5536   -7.4543 C   0  0  0  0  0  0  0  0  0  0  0  0
   42.4837  -18.1260   -8.5166 C   0  0  0  0  0  0  0  0  0  0  0  0
   41.1202  -18.3897   -8.5210 C   0  0  0  0  0  0  0  0  0  0  0  0
   40.5226  -19.0863   -7.4682 C   0  0  0  0  0  0  0  0  0  0  0  0
   41.3346  -19.5159   -6.4028 C   0  0  0  0  0  0  0  0  0  0  0  0
   41.0192  -20.2126   -5.2465 N   0  0  0  0  0  0  0  0  0  0  0  0
   42.1519  -20.3833   -4.5154 C   0  0  0  0  0  0  0  0  0  0  0  0
   42.3149  -21.0865   -3.1466 C   0  0  0  0  0  0  0  0  0  0  0  0
   47.6516  -19.5710   -3.9835 H   0  0  0  0  0  0  0  0  0  0  0  0
   37.6556  -17.5630   -3.1305 C   0  0  0  0  0  0  0  0  0  0  0  0
   38.5229  -18.2094   -2.1497 N   0  0  0  0  0  0  0  0  0  0  0  0
   37.9371  -18.5416   -1.3811 H   0  0  0  0  0  0  0  0  0  0  0  0
   37.7219  -21.2006   -2.0504 O   0  0  0  0  0  0  0  0  0  0  0  0
   37.5192  -22.4485   -1.4037 C   0  0  0  0  0  0  0  0  0  0  0  0
   40.3012  -19.0917   -2.6141 H   0  0  0  0  0  0  0  0  0  0  0  0
   39.0265  -18.6164   -4.7162 H   0  0  0  0  0  0  0  0  0  0  0  0
   37.8261  -19.8045   -4.2220 H   0  0  0  0  0  0  0  0  0  0  0  0
   39.1180  -20.8614   -5.7444 H   0  0  0  0  0  0  0  0  0  0  0  0
   39.5768  -22.6969   -2.2902 H   0  0  0  0  0  0  0  0  0  0  0  0
   39.3547  -20.5338   -0.9771 H   0  0  0  0  0  0  0  0  0  0  0  0
   40.4071  -23.0807   -0.0877 H   0  0  0  0  0  0  0  0  0  0  0  0
   41.8919  -23.7318    1.7295 H   0  0  0  0  0  0  0  0  0  0  0  0
   44.2440  -23.2132    1.6406 H   0  0  0  0  0  0  0  0  0  0  0  0
   45.1753  -22.0320   -0.2649 H   0  0  0  0  0  0  0  0  0  0  0  0
   46.4894  -21.5011   -2.7206 H   0  0  0  0  0  0  0  0  0  0  0  0
   46.2214  -20.0544   -1.8628 H   0  0  0  0  0  0  0  0  0  0  0  0
   44.2988  -18.3520   -7.4613 H   0  0  0  0  0  0  0  0  0  0  0  0
   42.9078  -17.6104   -9.3035 H   0  0  0  0  0  0  0  0  0  0  0  0
   40.5413  -18.0669   -9.3120 H   0  0  0  0  0  0  0  0  0  0  0  0
   39.5092  -19.2813   -7.4718 H   0  0  0  0  0  0  0  0  0  0  0  0
   38.2462  -17.2052   -3.9479 H   0  0  0  0  0  0  0  0  0  0  0  0
   37.1478  -16.7410   -2.6707 H   0  0  0  0  0  0  0  0  0  0  0  0
   36.9373  -18.2691   -3.4916 H   0  0  0  0  0  0  0  0  0  0  0  0
   36.4920  -22.7343   -1.4939 H   0  0  0  0  0  0  0  0  0  0  0  0
   37.7751  -22.3595   -0.3686 H   0  0  0  0  0  0  0  0  0  0  0  0
   38.1378  -23.1920   -1.8614 H   0  0  0  0  0  0  0  0  0  0  0  0
  1  2  1  0
  1 37  1  6
  2  3  1  0
  2 38  1  0
  2 39  1  0
  3  4  1  0
  3 40  1  6
  4  5  1  0
  5  6  1  0
  5  7  1  0
  5 41  1  1
  6 35  1  0
  6  1  1  0
  6 42  1  1
  7  8  1  0
  8  9  2  0
  9 10  1  0
  9 43  1  0
 10 11  2  0
 10 44  1  0
 11 12  1  0
 11 45  1  0
 12 13  2  0
 12 46  1  0
 13 14  1  0
 13  8  1  0
 14 15  2  0
 15 16  1  0
 16 17  1  0
 16 47  1  0
 16 48  1  0
 17 18  1  0
 17 31  1  0
 18 19  2  0
 18 20  1  0
 20 21  2  0
 20 15  1  0
 21 22  1  0
 22 23  2  0
 23 24  1  0
 23 49  1  0
 24 25  2  0
 24 50  1  0
 25 26  1  0
 25 51  1  0
 26 27  2  0
 26 52  1  0
 27 28  1  0
 27 22  1  0
 28 29  1  0
 28  3  1  0
 29 30  2  0
 29 21  1  0
 30  7  1  0
 30 14  1  0
 32 33  1  0
 32 53  1  0
 32 54  1  0
 32 55  1  0
 33  1  1  0
 33 34  1  0
 35 36  1  0
 36 56  1  0
 36 57  1  0
 36 58  1  0
M  END
>  <minimizedAffinity>  (8) 
-9.61735

>  <mol_id>  (8) 
62474

>  <source_index>  (8) 
7

>  <layer>  (8) 
L1

>  <uniprot>  (8) 
P08922

>  <paff>  (8) 
9.6090999999999998

>  <smiles>  (8) 
CN[C@@H]1CC2OC([C@@H]1OC)n1c3ccccc3c3c4CNC(=O)c4c4c5ccccc5n2c4c13 |r|

$$$$
L1:P08922:70772
     RDKit          3D

 65 68  0  0  0  0  0  0  0  0999 V2000
   45.3024  -19.0987   -5.3984 C   0  0  0  0  0  0  0  0  0  0  0  0
   44.3379  -18.8200   -6.3685 C   0  0  0  0  0  0  0  0  0  0  0  0
   43.0813  -19.4170   -6.3582 C   0  0  0  0  0  0  0  0  0  0  0  0
   42.7554  -20.3397   -5.3390 C   0  0  0  0  0  0  0  0  0  0  0  0
   43.7249  -20.6189   -4.3521 C   0  0  0  0  0  0  0  0  0  0  0  0
   44.9702  -19.9913   -4.3778 C   0  0  0  0  0  0  0  0  0  0  0  0
   41.4602  -20.9311   -5.3695 C   0  0  0  0  0  0  0  0  0  0  0  0
   40.5654  -20.5671   -6.3849 C   0  0  0  0  0  0  0  0  0  0  0  0
   40.9942  -19.6556   -7.3318 C   0  0  0  0  0  0  0  0  0  0  0  0
   42.2202  -19.0861   -7.3333 N   0  0  0  0  0  0  0  0  0  0  0  0
   45.8778  -20.3514   -3.4142 O   0  0  0  0  0  0  0  0  0  0  0  0
   45.2651  -20.3218   -2.1234 C   0  0  0  0  0  0  0  0  0  0  0  0
   39.2422  -21.0988   -6.4786 C   0  0  0  0  0  0  0  0  0  0  0  0
   38.1854  -21.5683   -6.5800 N   0  0  0  0  0  0  0  0  0  0  0  0
   41.0546  -21.8519   -4.3615 N   0  0  0  0  0  0  0  0  0  0  0  0
   41.7313  -22.6141   -4.2664 H   0  0  0  0  0  0  0  0  0  0  0  0
   40.5763  -21.4971   -3.0634 C   0  0  0  0  0  0  0  0  0  0  0  0
   39.4512  -20.6728   -2.8903 C   0  0  0  0  0  0  0  0  0  0  0  0
   38.9476  -20.3906   -1.6119 C   0  0  0  0  0  0  0  0  0  0  0  0
   39.5889  -20.9357   -0.4892 C   0  0  0  0  0  0  0  0  0  0  0  0
   40.6922  -21.7746   -0.6382 C   0  0  0  0  0  0  0  0  0  0  0  0
   41.1696  -22.0618   -1.9163 C   0  0  0  0  0  0  0  0  0  0  0  0
   42.5473  -23.0996   -2.0615 Cl  0  0  0  0  0  0  0  0  0  0  0  0
   39.0334  -20.6083    1.1146 Cl  0  0  0  0  0  0  0  0  0  0  0  0
   37.8667  -19.5798   -1.3784 O   0  0  0  0  0  0  0  0  0  0  0  0
   36.5816  -20.1912   -1.3992 C   0  0  0  0  0  0  0  0  0  0  0  0
   46.5625  -18.5694   -5.3517 O   0  0  0  0  0  0  0  0  0  0  0  0
   47.4183  -18.6972   -6.4910 C   0  0  0  0  0  0  0  0  0  0  0  0
   48.8772  -18.8317   -6.0574 C   0  0  0  0  0  0  0  0  0  0  0  0
   49.0233  -19.4457   -4.6613 C   0  0  0  0  0  0  0  0  0  0  0  0
   48.5749  -20.8339   -0.2319 C   0  0  0  0  0  0  0  0  0  0  0  0
   48.8489  -20.1472   -1.4888 N   0  0  0  0  0  0  0  0  0  0  0  0
   48.5839  -18.7067   -1.3981 C   0  0  0  0  0  0  0  0  0  0  0  0
   48.8043  -17.9615   -2.7448 C   0  0  0  0  0  0  0  0  0  0  0  0
   49.7475  -18.5845   -3.7086 N   0  0  0  0  0  0  0  0  0  0  0  0
   50.7699  -19.3264   -2.9414 C   0  0  0  0  0  0  0  0  0  0  0  0
   50.2290  -20.3911   -1.9490 C   0  0  0  0  0  0  0  0  0  0  0  0
   44.5647  -18.1485   -7.1186 H   0  0  0  0  0  0  0  0  0  0  0  0
   43.5099  -21.2952   -3.6028 H   0  0  0  0  0  0  0  0  0  0  0  0
   40.3378  -19.3938   -8.0839 H   0  0  0  0  0  0  0  0  0  0  0  0
   45.9825  -20.6043   -1.3815 H   0  0  0  0  0  0  0  0  0  0  0  0
   44.4428  -21.0061   -2.1031 H   0  0  0  0  0  0  0  0  0  0  0  0
   44.9113  -19.3329   -1.9191 H   0  0  0  0  0  0  0  0  0  0  0  0
   38.9873  -20.2679   -3.7185 H   0  0  0  0  0  0  0  0  0  0  0  0
   41.1524  -22.1802    0.1917 H   0  0  0  0  0  0  0  0  0  0  0  0
   35.8322  -19.4529   -1.2039 H   0  0  0  0  0  0  0  0  0  0  0  0
   36.5366  -20.9523   -0.6485 H   0  0  0  0  0  0  0  0  0  0  0  0
   36.4100  -20.6280   -2.3608 H   0  0  0  0  0  0  0  0  0  0  0  0
   47.1355  -19.5665   -7.0471 H   0  0  0  0  0  0  0  0  0  0  0  0
   47.3185  -17.8207   -7.0966 H   0  0  0  0  0  0  0  0  0  0  0  0
   49.3876  -19.4555   -6.7611 H   0  0  0  0  0  0  0  0  0  0  0  0
   49.2972  -17.8481   -6.0242 H   0  0  0  0  0  0  0  0  0  0  0  0
   48.0450  -19.6336   -4.2707 H   0  0  0  0  0  0  0  0  0  0  0  0
   49.5974  -20.3418   -4.7720 H   0  0  0  0  0  0  0  0  0  0  0  0
   47.5681  -20.6352    0.0710 H   0  0  0  0  0  0  0  0  0  0  0  0
   49.2496  -20.4829    0.5207 H   0  0  0  0  0  0  0  0  0  0  0  0
   48.7060  -21.8875   -0.3651 H   0  0  0  0  0  0  0  0  0  0  0  0
   49.2387  -18.2853   -0.6643 H   0  0  0  0  0  0  0  0  0  0  0  0
   47.5546  -18.5872   -1.1314 H   0  0  0  0  0  0  0  0  0  0  0  0
   49.1735  -16.9834   -2.5169 H   0  0  0  0  0  0  0  0  0  0  0  0
   47.8526  -17.9790   -3.2334 H   0  0  0  0  0  0  0  0  0  0  0  0
   51.3403  -18.6152   -2.3813 H   0  0  0  0  0  0  0  0  0  0  0  0
   51.3410  -19.8681   -3.6662 H   0  0  0  0  0  0  0  0  0  0  0  0
   50.8699  -20.4068   -1.0923 H   0  0  0  0  0  0  0  0  0  0  0  0
   50.2159  -21.3222   -2.4761 H   0  0  0  0  0  0  0  0  0  0  0  0
  1  2  2  0
  2  3  1  0
  2 38  1  0
  3  4  2  0
  4  5  1  0
  4  7  1  0
  5  6  2  0
  5 39  1  0
  6 11  1  0
  6  1  1  0
  7  8  2  0
  7 15  1  0
  8  9  1  0
  8 13  1  0
  9 10  2  0
  9 40  1  0
 10  3  1  0
 11 12  1  0
 12 41  1  0
 12 42  1  0
 12 43  1  0
 13 14  3  0
 15 17  1  0
 15 16  1  0
 17 18  2  0
 18 19  1  0
 18 44  1  0
 19 20  2  0
 19 25  1  0
 20 21  1  0
 20 24  1  0
 21 22  2  0
 21 45  1  0
 22 23  1  0
 22 17  1  0
 25 26  1  0
 26 46  1  0
 26 47  1  0
 26 48  1  0
 27  1  1  0
 28 27  1  0
 28 49  1  0
 28 50  1  0
 29 28  1  0
 29 51  1  0
 29 52  1  0
 30 29  1  0
 30 53  1  0
 30 54  1  0
 31 32  1  0
 31 55  1  0
 31 56  1  0
 31 57  1  0
 32 33  1  0
 33 34  1  0
 33 58  1  0
 33 59  1  0
 34 35  1  0
 34 60  1  0
 34 61  1  0
 35 36  1  0
 35 30  1  0
 36 37  1  0
 36 62  1  0
 36 63  1  0
 37 32  1  0
 37 64  1  0
 37 65  1  0
M  END
>  <minimizedAffinity>  (9) 
-6.49028

>  <mol_id>  (9) 
70772

>  <source_index>  (9) 
8

>  <layer>  (9) 
L1

>  <uniprot>  (9) 
P08922

>  <paff>  (9) 
6.6989999999999998

>  <smiles>  (9) 
CN1CCN(CC1)CCCOc2cc3c(cc2OC)c(c(cn3)C#N)Nc4cc(c(cc4Cl)Cl)OC

$$$$
L1:P08922:100526
     RDKit          3D

 75 80  0  0  0  0  0  0  0  0999 V2000
   43.8868  -19.5483   -2.5120 C   0  0  0  0  0  0  0  0  0  0  0  0
   43.0624  -18.6635   -2.3233 O   0  0  0  0  0  0  0  0  0  0  0  0
   44.5077  -19.9251   -3.6837 N   0  0  0  0  0  0  0  0  0  0  0  0
   45.0922  -20.7465   -3.6781 H   0  0  0  0  0  0  0  0  0  0  0  0
   44.2714  -19.3715   -4.9256 C   0  0  0  0  0  0  0  0  0  0  0  0
   45.1465  -18.6499   -5.6261 N   0  0  0  0  0  0  0  0  0  0  0  0
   44.4905  -18.3190   -6.7457 N   0  0  0  0  0  0  0  0  0  0  0  0
   43.2075  -18.7905   -6.8048 C   0  0  0  0  0  0  0  0  0  0  0  0
   42.2108  -18.6552   -7.7750 C   0  0  0  0  0  0  0  0  0  0  0  0
   40.9778  -19.2620   -7.5121 C   0  0  0  0  0  0  0  0  0  0  0  0
   40.7491  -19.9805   -6.3281 C   0  0  0  0  0  0  0  0  0  0  0  0
   41.7794  -20.1010   -5.3741 C   0  0  0  0  0  0  0  0  0  0  0  0
   43.0289  -19.4943   -5.6200 C   0  0  0  0  0  0  0  0  0  0  0  0
   44.9761  -17.7549   -7.4348 H   0  0  0  0  0  0  0  0  0  0  0  0
   39.3929  -20.5943   -6.0602 C   0  0  0  0  0  0  0  0  0  0  0  0
   38.6855  -19.9781   -4.8760 C   0  0  0  0  0  0  0  0  0  0  0  0
   38.4264  -18.5993   -4.8358 C   0  0  0  0  0  0  0  0  0  0  0  0
   37.7935  -18.0377   -3.7269 C   0  0  0  0  0  0  0  0  0  0  0  0
   37.5502  -16.7205   -3.7087 F   0  0  0  0  0  0  0  0  0  0  0  0
   37.4078  -18.8184   -2.6462 C   0  0  0  0  0  0  0  0  0  0  0  0
   37.6697  -20.1805   -2.6835 C   0  0  0  0  0  0  0  0  0  0  0  0
   37.3092  -20.9505   -1.6470 F   0  0  0  0  0  0  0  0  0  0  0  0
   38.3011  -20.7667   -3.7801 C   0  0  0  0  0  0  0  0  0  0  0  0
   44.9805  -22.1438    0.7526 C   0  0  0  0  0  0  0  0  0  0  0  0
   45.9438  -21.6084   -0.1111 C   0  0  0  0  0  0  0  0  0  0  0  0
   45.5850  -20.7595   -1.1634 C   0  0  0  0  0  0  0  0  0  0  0  0
   44.2415  -20.4267   -1.3714 C   0  0  0  0  0  0  0  0  0  0  0  0
   43.2455  -20.9256   -0.5218 C   0  0  0  0  0  0  0  0  0  0  0  0
   43.6366  -21.7868    0.5164 C   0  0  0  0  0  0  0  0  0  0  0  0
   45.7401  -26.9957    1.4610 C   0  0  0  0  0  0  0  0  0  0  0  0
   45.4870  -25.9400    2.4413 N   0  0  0  0  0  0  0  0  0  0  0  0
   46.6299  -25.0013    2.5448 C   0  0  0  0  0  0  0  0  0  0  0  0
   46.5532  -23.7623    1.6225 C   0  0  0  0  0  0  0  0  0  0  0  0
   45.2887  -23.0013    1.8144 N   0  0  0  0  0  0  0  0  0  0  0  0
   44.2329  -23.7400    2.5367 C   0  0  0  0  0  0  0  0  0  0  0  0
   44.2264  -25.2251    2.1197 C   0  0  0  0  0  0  0  0  0  0  0  0
   41.8599  -20.6690   -0.6854 N   0  0  0  0  0  0  0  0  0  0  0  0
   41.8132  -19.7645   -1.1827 H   0  0  0  0  0  0  0  0  0  0  0  0
   41.1236  -21.6547   -1.5189 C   0  0  0  0  0  0  0  0  0  0  0  0
   40.1455  -22.4299   -0.6221 C   0  0  0  0  0  0  0  0  0  0  0  0
   40.7240  -23.7830   -0.2431 C   0  0  0  0  0  0  0  0  0  0  0  0
   40.9520  -24.6127   -1.3862 O   0  0  0  0  0  0  0  0  0  0  0  0
   41.3713  -23.9213   -2.5618 C   0  0  0  0  0  0  0  0  0  0  0  0
   42.0738  -22.6069   -2.2639 C   0  0  0  0  0  0  0  0  0  0  0  0
   42.3771  -18.1303   -8.6478 H   0  0  0  0  0  0  0  0  0  0  0  0
   40.2180  -19.1793   -8.2055 H   0  0  0  0  0  0  0  0  0  0  0  0
   41.6209  -20.6293   -4.5019 H   0  0  0  0  0  0  0  0  0  0  0  0
   39.5236  -21.6396   -5.8724 H   0  0  0  0  0  0  0  0  0  0  0  0
   38.7859  -20.4143   -6.9228 H   0  0  0  0  0  0  0  0  0  0  0  0
   38.7047  -17.9997   -5.6283 H   0  0  0  0  0  0  0  0  0  0  0  0
   36.9361  -18.3947   -1.8319 H   0  0  0  0  0  0  0  0  0  0  0  0
   38.4861  -21.7820   -3.7860 H   0  0  0  0  0  0  0  0  0  0  0  0
   46.9382  -21.8448    0.0315 H   0  0  0  0  0  0  0  0  0  0  0  0
   46.3126  -20.3777   -1.7878 H   0  0  0  0  0  0  0  0  0  0  0  0
   42.9076  -22.1761    1.1345 H   0  0  0  0  0  0  0  0  0  0  0  0
   46.6510  -27.5002    1.7073 H   0  0  0  0  0  0  0  0  0  0  0  0
   45.8239  -26.5640    0.4855 H   0  0  0  0  0  0  0  0  0  0  0  0
   44.9305  -27.6952    1.4731 H   0  0  0  0  0  0  0  0  0  0  0  0
   47.5225  -25.5392    2.3022 H   0  0  0  0  0  0  0  0  0  0  0  0
   46.6145  -24.6258    3.5466 H   0  0  0  0  0  0  0  0  0  0  0  0
   46.6105  -24.0857    0.6042 H   0  0  0  0  0  0  0  0  0  0  0  0
   47.3688  -23.1154    1.8699 H   0  0  0  0  0  0  0  0  0  0  0  0
   43.2816  -23.3066    2.3084 H   0  0  0  0  0  0  0  0  0  0  0  0
   44.4258  -23.6778    3.5873 H   0  0  0  0  0  0  0  0  0  0  0  0
   44.0677  -25.2787    1.0629 H   0  0  0  0  0  0  0  0  0  0  0  0
   43.4456  -25.7025    2.6741 H   0  0  0  0  0  0  0  0  0  0  0  0
   40.5780  -21.1281   -2.2738 H   0  0  0  0  0  0  0  0  0  0  0  0
   39.2258  -22.5759   -1.1490 H   0  0  0  0  0  0  0  0  0  0  0  0
   39.9753  -21.8655    0.2708 H   0  0  0  0  0  0  0  0  0  0  0  0
   40.0388  -24.2795    0.4119 H   0  0  0  0  0  0  0  0  0  0  0  0
   41.6668  -23.6151    0.2342 H   0  0  0  0  0  0  0  0  0  0  0  0
   40.5095  -23.7179   -3.1625 H   0  0  0  0  0  0  0  0  0  0  0  0
   42.0739  -24.5503   -3.0675 H   0  0  0  0  0  0  0  0  0  0  0  0
   42.3797  -22.1532   -3.1834 H   0  0  0  0  0  0  0  0  0  0  0  0
   42.9285  -22.7989   -1.6495 H   0  0  0  0  0  0  0  0  0  0  0  0
  1  2  2  0
  1  3  1  0
  3  5  1  0
  3  4  1  0
  5  6  2  0
  6  7  1  0
  7  8  1  0
  7 14  1  0
  8  9  2  0
  9 10  1  0
  9 45  1  0
 10 11  2  0
 10 46  1  0
 11 15  1  0
 11 12  1  0
 12 13  2  0
 12 47  1  0
 13  5  1  0
 13  8  1  0
 15 16  1  0
 15 48  1  0
 15 49  1  0
 16 17  2  0
 17 18  1  0
 17 50  1  0
 18 19  1  0
 18 20  2  0
 20 21  1  0
 20 51  1  0
 21 22  1  0
 21 23  2  0
 23 16  1  0
 23 52  1  0
 24 25  2  0
 25 26  1  0
 25 53  1  0
 26 27  2  0
 26 54  1  0
 27  1  1  0
 27 28  1  0
 28 37  1  0
 28 29  2  0
 29 24  1  0
 29 55  1  0
 30 31  1  0
 30 56  1  0
 30 57  1  0
 30 58  1  0
 31 32  1  0
 32 33  1  0
 32 59  1  0
 32 60  1  0
 33 34  1  0
 33 61  1  0
 33 62  1  0
 34 24  1  0
 34 35  1  0
 35 36  1  0
 35 63  1  0
 35 64  1  0
 36 31  1  0
 36 65  1  0
 36 66  1  0
 37 39  1  0
 37 38  1  0
 39 40  1  0
 39 67  1  0
 40 41  1  0
 40 68  1  0
 40 69  1  0
 41 42  1  0
 41 70  1  0
 41 71  1  0
 42 43  1  0
 43 44  1  0
 43 72  1  0
 43 73  1  0
 44 39  1  0
 44 74  1  0
 44 75  1  0
M  END
>  <minimizedAffinity>  (10) 
-8.62624

>  <mol_id>  (10) 
100526

>  <source_index>  (10) 
9

>  <layer>  (10) 
L1

>  <uniprot>  (10) 
P08922

>  <paff>  (10) 
7.9207999999999998

>  <smiles>  (10) 
CN1CCN(c2ccc(C(=O)Nc3n[nH]c4ccc(Cc5cc(F)cc(F)c5)cc34)c(NC3CCOCC3)c2)CC1

$$$$
