L4:Q13094:2037
     RDKit          3D

 63 67  0  0  0  0  0  0  0  0999 V2000
   25.0828    0.8501   -9.9166 N   0  0  0  0  0  0  0  0  0  0  0  0
   26.0163   -0.2586  -10.0275 C   0  0  0  0  0  0  0  0  0  0  0  0
   25.1210   -1.4372  -10.1470 C   0  0  0  0  0  0  0  0  0  0  0  0
   23.7995   -1.0419  -10.0506 C   0  0  0  0  0  0  0  0  0  0  0  0
   22.7465   -1.9268  -10.1288 C   0  0  0  0  0  0  0  0  0  0  0  0
   23.0624   -3.2659  -10.3153 C   0  0  0  0  0  0  0  0  0  0  0  0
   24.3582   -3.6608  -10.4322 N   0  0  0  0  0  0  0  0  0  0  0  0
   25.3834   -2.7670  -10.3397 C   0  0  0  0  0  0  0  0  0  0  0  0
   23.7625    0.4183   -9.9126 C   0  0  0  0  0  0  0  0  0  0  0  0
   22.7199    1.0390   -9.8419 O   0  0  0  0  0  0  0  0  0  0  0  0
   25.8933    4.1160   -8.6522 C   0  0  0  0  0  0  0  0  0  0  0  0
   26.5502    4.7362   -9.7032 C   0  0  0  0  0  0  0  0  0  0  0  0
   26.6920    4.0419  -10.8944 C   0  0  0  0  0  0  0  0  0  0  0  0
   26.1936    2.7452  -10.9914 C   0  0  0  0  0  0  0  0  0  0  0  0
   25.5589    2.1745   -9.8933 C   0  0  0  0  0  0  0  0  0  0  0  0
   25.3931    2.8571   -8.7336 N   0  0  0  0  0  0  0  0  0  0  0  0
   26.6977    5.0922   -6.4461 N   0  0  0  0  0  0  0  0  0  0  0  0
   26.0673    5.7162   -5.4071 C   0  0  0  0  0  0  0  0  0  0  0  0
   24.7836    5.7857   -5.6492 N   0  0  0  0  0  0  0  0  0  0  0  0
   24.5657    5.2230   -6.8821 N   0  0  0  0  0  0  0  0  0  0  0  0
   25.7227    4.8066   -7.3766 C   0  0  0  0  0  0  0  0  0  0  0  0
   28.1039    4.7513   -6.4651 C   0  0  0  0  0  0  0  0  0  0  0  0
   28.8316    2.4586   -7.3079 C   0  0  0  0  0  0  0  0  0  0  0  0
   28.4026    3.2936   -6.1072 C   0  0  0  0  0  0  0  0  0  0  0  0
   22.0527   -4.2137  -10.4361 N   0  0  0  0  0  0  0  0  0  0  0  0
   21.9553   -5.2308   -9.3845 C   0  0  0  0  0  0  0  0  0  0  0  0
   21.0820   -6.3111  -10.0126 C   0  0  0  0  0  0  0  0  0  0  0  0
   21.5526   -6.3076  -11.4577 C   0  0  0  0  0  0  0  0  0  0  0  0
   21.8143   -4.8215  -11.7586 C   0  0  1  0  0  0  0  0  0  0  0  0
   20.6030   -4.1504  -12.4040 C   0  0  0  0  0  0  0  0  0  0  0  0
   26.7944   -3.3033  -10.4815 C   0  0  0  0  0  0  0  0  0  0  0  0
   27.3106   -4.0160   -9.3019 N   0  0  0  0  0  0  0  0  0  0  0  0
   28.2270   -3.2219   -8.4972 C   0  0  0  0  0  0  0  0  0  0  0  0
   27.7722   -4.8725   -9.5976 H   0  0  0  0  0  0  0  0  0  0  0  0
   26.6331   -0.3308   -9.1562 H   0  0  0  0  0  0  0  0  0  0  0  0
   26.6944   -0.1587  -10.8491 H   0  0  0  0  0  0  0  0  0  0  0  0
   21.7677   -1.6089  -10.0523 H   0  0  0  0  0  0  0  0  0  0  0  0
   26.9249    5.6924   -9.6013 H   0  0  0  0  0  0  0  0  0  0  0  0
   27.1621    4.4814  -11.7012 H   0  0  0  0  0  0  0  0  0  0  0  0
   26.2942    2.2128  -11.8697 H   0  0  0  0  0  0  0  0  0  0  0  0
   26.5329    6.0778   -4.5601 H   0  0  0  0  0  0  0  0  0  0  0  0
   28.4811    4.9391   -7.4486 H   0  0  0  0  0  0  0  0  0  0  0  0
   28.5757    5.3537   -5.7172 H   0  0  0  0  0  0  0  0  0  0  0  0
   29.0249    1.4544   -6.9932 H   0  0  0  0  0  0  0  0  0  0  0  0
   29.7200    2.8762   -7.7336 H   0  0  0  0  0  0  0  0  0  0  0  0
   28.0511    2.4590   -8.0398 H   0  0  0  0  0  0  0  0  0  0  0  0
   29.1887    3.2754   -5.3815 H   0  0  0  0  0  0  0  0  0  0  0  0
   27.4976    2.8663   -5.7286 H   0  0  0  0  0  0  0  0  0  0  0  0
   21.4945   -4.8296   -8.5061 H   0  0  0  0  0  0  0  0  0  0  0  0
   22.9101   -5.5977   -9.0704 H   0  0  0  0  0  0  0  0  0  0  0  0
   20.0443   -6.0600   -9.9423 H   0  0  0  0  0  0  0  0  0  0  0  0
   21.1701   -7.2647   -9.5354 H   0  0  0  0  0  0  0  0  0  0  0  0
   20.7963   -6.6996  -12.1052 H   0  0  0  0  0  0  0  0  0  0  0  0
   22.4178   -6.9181  -11.6112 H   0  0  0  0  0  0  0  0  0  0  0  0
   22.6304   -4.7049  -12.4408 H   0  0  0  0  0  0  0  0  0  0  0  0
   19.7570   -4.2415  -11.7552 H   0  0  0  0  0  0  0  0  0  0  0  0
   20.3884   -4.6248  -13.3388 H   0  0  0  0  0  0  0  0  0  0  0  0
   20.8153   -3.1149  -12.5700 H   0  0  0  0  0  0  0  0  0  0  0  0
   27.4448   -2.4775  -10.6812 H   0  0  0  0  0  0  0  0  0  0  0  0
   26.7631   -4.0211  -11.2744 H   0  0  0  0  0  0  0  0  0  0  0  0
   27.7402   -2.3211   -8.1867 H   0  0  0  0  0  0  0  0  0  0  0  0
   29.0920   -2.9780   -9.0779 H   0  0  0  0  0  0  0  0  0  0  0  0
   28.5226   -3.7828   -7.6353 H   0  0  0  0  0  0  0  0  0  0  0  0
  1  2  1  0
  2  3  1  0
  2 35  1  0
  2 36  1  0
  3  4  2  0
  4  5  1  0
  4  9  1  0
  5  6  2  0
  5 37  1  0
  6  7  1  0
  6 25  1  0
  7  8  2  0
  8 31  1  0
  8  3  1  0
  9 10  2  0
  9  1  1  0
 11 12  2  0
 12 13  1  0
 12 38  1  0
 13 14  2  0
 13 39  1  0
 14 15  1  0
 14 40  1  0
 15 16  2  0
 15  1  1  0
 16 11  1  0
 17 18  1  0
 18 19  2  0
 18 41  1  0
 19 20  1  0
 20 21  2  0
 21 11  1  0
 21 17  1  0
 22 17  1  0
 22 42  1  0
 22 43  1  0
 23 24  1  0
 23 44  1  0
 23 45  1  0
 23 46  1  0
 24 22  1  0
 24 47  1  0
 24 48  1  0
 25 26  1  0
 26 27  1  0
 26 49  1  0
 26 50  1  0
 27 28  1  0
 27 51  1  0
 27 52  1  0
 28 29  1  0
 28 53  1  0
 28 54  1  0
 29 30  1  0
 29 25  1  0
 29 55  1  6
 30 56  1  0
 30 57  1  0
 30 58  1  0
 31 32  1  0
 31 59  1  0
 31 60  1  0
 32 33  1  0
 32 34  1  0
 33 61  1  0
 33 62  1  0
 33 63  1  0
M  END
>  <minimizedAffinity>  (1) 
-6.28596

>  <mol_id>  (1) 
2037

>  <source_index>  (1) 
0

>  <layer>  (1) 
L4

>  <uniprot>  (1) 
Q13094

>  <paff>  (1) 
7.4684999999999997

>  <smiles>  (1) 
CCCn1cnnc1-c1cccc(n1)N1Cc2c(cc(nc2CNC)N2CCC[C@H]2C)C1=O |r|

$$$$
L4:Q13094:10005
     RDKit          3D

 63 67  0  0  0  0  0  0  0  0999 V2000
   23.8052   -4.9756   -7.6986 C   0  0  0  0  0  0  0  0  0  0  0  0
   23.5963   -6.2183   -8.2209 N   0  0  0  0  0  0  0  0  0  0  0  0
   23.0730   -6.3971   -9.4655 C   0  0  0  0  0  0  0  0  0  0  0  0
   22.7402   -5.2854  -10.2315 C   0  0  0  0  0  0  0  0  0  0  0  0
   22.9699   -4.0366   -9.6860 C   0  0  0  0  0  0  0  0  0  0  0  0
   22.7350   -2.7159  -10.2837 C   0  0  0  0  0  0  0  0  0  0  0  0
   22.2479   -2.6000  -11.3907 O   0  0  0  0  0  0  0  0  0  0  0  0
   23.1554   -1.7758   -9.3426 N   0  0  0  0  0  0  0  0  0  0  0  0
   23.6397   -2.4109   -8.1300 C   0  0  0  0  0  0  0  0  0  0  0  0
   23.4985   -3.8568   -8.4250 C   0  0  0  0  0  0  0  0  0  0  0  0
   23.1564   -0.3779   -9.5345 C   0  0  0  0  0  0  0  0  0  0  0  0
   22.0092    0.3700   -9.2617 C   0  0  0  0  0  0  0  0  0  0  0  0
   22.0290    1.7533   -9.4392 C   0  0  0  0  0  0  0  0  0  0  0  0
   23.1936    2.3619   -9.8810 C   0  0  0  0  0  0  0  0  0  0  0  0
   24.3012    1.5621  -10.1344 C   0  0  0  0  0  0  0  0  0  0  0  0
   24.2869    0.2163   -9.9683 N   0  0  0  0  0  0  0  0  0  0  0  0
   25.5566    2.1515  -10.5850 C   0  0  0  0  0  0  0  0  0  0  0  0
   25.7089    3.0396  -11.5664 N   0  0  0  0  0  0  0  0  0  0  0  0
   27.0566    3.3598  -11.6895 N   0  0  0  0  0  0  0  0  0  0  0  0
   27.6765    2.6715  -10.7740 C   0  0  0  0  0  0  0  0  0  0  0  0
   29.0596    2.4539  -10.3266 C   0  0  0  0  0  0  0  0  0  0  0  0
   28.8432    1.6951   -8.9919 C   0  0  0  0  0  0  0  0  0  0  0  0
   27.4110    1.0883   -9.0645 C   0  0  2  0  0  0  0  0  0  0  0  0
   27.4513   -0.3798   -9.4544 C   0  0  0  0  0  0  0  0  0  0  0  0
   26.7886    1.9195  -10.0748 N   0  0  0  0  0  0  0  0  0  0  0  0
   22.8827   -7.6930   -9.9205 N   0  0  0  0  0  0  0  0  0  0  0  0
   23.9939   -8.6343   -9.9501 C   0  0  0  0  0  0  0  0  0  0  0  0
   21.5425   -8.2157  -10.2458 C   0  0  0  0  0  0  0  0  0  0  0  0
   20.5763   -8.1326   -9.0651 C   0  0  0  0  0  0  0  0  0  0  0  0
   21.5951   -9.6111  -10.8663 C   0  0  0  0  0  0  0  0  0  0  0  0
   24.3731   -4.9044   -6.2975 C   0  0  0  0  0  0  0  0  0  0  0  0
   23.7850   -3.6301   -4.3197 C   0  0  0  0  0  0  0  0  0  0  0  0
   23.3622   -4.6569   -5.2628 N   0  0  0  0  0  0  0  0  0  0  0  0
   23.2437   -5.5395   -4.7580 H   0  0  0  0  0  0  0  0  0  0  0  0
   22.3355   -5.3893  -11.1751 H   0  0  0  0  0  0  0  0  0  0  0  0
   23.0439   -2.1315   -7.2863 H   0  0  0  0  0  0  0  0  0  0  0  0
   24.6414   -2.1295   -7.8804 H   0  0  0  0  0  0  0  0  0  0  0  0
   21.1513   -0.0983   -8.9305 H   0  0  0  0  0  0  0  0  0  0  0  0
   21.1869    2.3170   -9.2440 H   0  0  0  0  0  0  0  0  0  0  0  0
   23.2368    3.3838  -10.0183 H   0  0  0  0  0  0  0  0  0  0  0  0
   29.5692    3.3816  -10.1696 H   0  0  0  0  0  0  0  0  0  0  0  0
   29.6663    1.9262  -11.0325 H   0  0  0  0  0  0  0  0  0  0  0  0
   28.9186    2.3700   -8.1651 H   0  0  0  0  0  0  0  0  0  0  0  0
   29.5824    0.9343   -8.8516 H   0  0  0  0  0  0  0  0  0  0  0  0
   26.8815    1.0911   -8.1347 H   0  0  0  0  0  0  0  0  0  0  0  0
   27.9682   -0.4876  -10.3850 H   0  0  0  0  0  0  0  0  0  0  0  0
   26.4523   -0.7493   -9.5564 H   0  0  0  0  0  0  0  0  0  0  0  0
   27.9617   -0.9363   -8.6963 H   0  0  0  0  0  0  0  0  0  0  0  0
   24.8999   -8.1247   -9.6962 H   0  0  0  0  0  0  0  0  0  0  0  0
   24.0822   -9.0511  -10.9316 H   0  0  0  0  0  0  0  0  0  0  0  0
   23.8159   -9.4185   -9.2443 H   0  0  0  0  0  0  0  0  0  0  0  0
   21.1439   -7.5687  -10.9991 H   0  0  0  0  0  0  0  0  0  0  0  0
   20.9246   -8.7635   -8.2742 H   0  0  0  0  0  0  0  0  0  0  0  0
   19.6044   -8.4543   -9.3762 H   0  0  0  0  0  0  0  0  0  0  0  0
   20.5233   -7.1218   -8.7181 H   0  0  0  0  0  0  0  0  0  0  0  0
   21.9887  -10.3043  -10.1525 H   0  0  0  0  0  0  0  0  0  0  0  0
   22.2250   -9.5934  -11.7310 H   0  0  0  0  0  0  0  0  0  0  0  0
   20.6084   -9.9128  -11.1499 H   0  0  0  0  0  0  0  0  0  0  0  0
   24.8569   -5.8340   -6.0815 H   0  0  0  0  0  0  0  0  0  0  0  0
   25.0509   -4.0767   -6.2766 H   0  0  0  0  0  0  0  0  0  0  0  0
   23.9123   -2.7018   -4.8364 H   0  0  0  0  0  0  0  0  0  0  0  0
   24.7124   -3.9184   -3.8706 H   0  0  0  0  0  0  0  0  0  0  0  0
   23.0408   -3.5160   -3.5594 H   0  0  0  0  0  0  0  0  0  0  0  0
  1  2  2  0
  2  3  1  0
  3  4  2  0
  3 26  1  0
  4  5  1  0
  4 35  1  0
  5  6  1  0
  6  7  2  0
  6  8  1  0
  8  9  1  0
  8 11  1  0
  9 10  1  0
  9 36  1  0
  9 37  1  0
 10  1  1  0
 10  5  2  0
 11 12  2  0
 12 13  1  0
 12 38  1  0
 13 14  2  0
 13 39  1  0
 14 15  1  0
 14 40  1  0
 15 16  2  0
 15 17  1  0
 16 11  1  0
 17 18  2  0
 18 19  1  0
 19 20  2  0
 20 21  1  0
 21 22  1  0
 21 41  1  0
 21 42  1  0
 22 23  1  0
 22 43  1  0
 22 44  1  0
 23 24  1  0
 23 25  1  0
 23 45  1  1
 24 46  1  0
 24 47  1  0
 24 48  1  0
 25 17  1  0
 25 20  1  0
 26 27  1  0
 26 28  1  0
 27 49  1  0
 27 50  1  0
 27 51  1  0
 28 29  1  0
 28 30  1  0
 28 52  1  0
 29 53  1  0
 29 54  1  0
 29 55  1  0
 30 56  1  0
 30 57  1  0
 30 58  1  0
 31  1  1  0
 31 59  1  0
 31 60  1  0
 32 33  1  0
 32 61  1  0
 32 62  1  0
 32 63  1  0
 33 31  1  0
 33 34  1  0
M  END
>  <minimizedAffinity>  (2) 
-6.28603

>  <mol_id>  (2) 
10005

>  <source_index>  (2) 
1

>  <layer>  (2) 
L4

>  <uniprot>  (2) 
Q13094

>  <paff>  (2) 
7.3278999999999996

>  <smiles>  (2) 
CNCc1nc(cc2C(=O)N(Cc12)c1cccc(n1)-c1nnc2CC[C@H](C)n12)N(C)C(C)C |r|

$$$$
L4:Q13094:14800
     RDKit          3D

 57 61  0  0  0  0  0  0  0  0999 V2000
   26.3494   -2.5814   -9.7744 C   0  0  0  0  0  0  0  0  0  0  0  0
   25.3873   -1.4373   -9.8754 C   0  0  0  0  0  0  0  0  0  0  0  0
   25.9313   -0.1880   -9.8124 N   0  0  0  0  0  0  0  0  0  0  0  0
   25.1063    0.8872   -9.9016 C   0  0  0  0  0  0  0  0  0  0  0  0
   23.7287    0.6569  -10.0840 C   0  0  0  0  0  0  0  0  0  0  0  0
   23.1599   -0.5879  -10.1959 N   0  0  0  0  0  0  0  0  0  0  0  0
   24.0145   -1.6360  -10.0674 C   0  0  0  0  0  0  0  0  0  0  0  0
   23.4034   -2.9482  -10.1776 C   0  0  0  0  0  0  0  0  0  0  0  0
   23.0270   -3.5312  -11.3822 C   0  0  0  0  0  0  0  0  0  0  0  0
   22.5012   -4.7762  -11.5188 N   0  0  0  0  0  0  0  0  0  0  0  0
   22.2847   -5.5289  -10.4150 C   0  0  0  0  0  0  0  0  0  0  0  0
   22.6148   -5.0050   -9.1710 C   0  0  0  0  0  0  0  0  0  0  0  0
   23.1769   -3.7360   -9.0335 C   0  0  0  0  0  0  0  0  0  0  0  0
   23.4362   -3.4651   -7.7056 N   0  0  0  0  0  0  0  0  0  0  0  0
   23.0381   -4.5286   -7.0469 C   0  0  0  0  0  0  0  0  0  0  0  0
   22.5194   -5.4780   -7.8830 N   0  0  0  0  0  0  0  0  0  0  0  0
   21.9991   -6.7543   -7.4565 C   0  0  0  0  0  0  0  0  0  0  0  0
   22.7472    1.7901  -10.0905 C   0  0  0  0  0  0  0  0  0  0  0  0
   21.8468    1.8002   -9.0574 N   0  0  0  0  0  0  0  0  0  0  0  0
   22.7630    2.6847  -10.9300 O   0  0  0  0  0  0  0  0  0  0  0  0
   21.2163    2.5841   -8.9519 H   0  0  0  0  0  0  0  0  0  0  0  0
   21.9461    1.1174   -8.3160 H   0  0  0  0  0  0  0  0  0  0  0  0
   25.6356    2.1946   -9.8532 N   0  0  0  0  0  0  0  0  0  0  0  0
   25.5496    2.6775  -10.7458 H   0  0  0  0  0  0  0  0  0  0  0  0
   25.9196    3.0467   -8.7670 C   0  0  0  0  0  0  0  0  0  0  0  0
   27.1670    2.9457   -8.1356 C   0  0  0  0  0  0  0  0  0  0  0  0
   27.5047    3.7571   -7.0374 C   0  0  0  0  0  0  0  0  0  0  0  0
   26.6102    4.7025   -6.5306 C   0  0  0  0  0  0  0  0  0  0  0  0
   25.3516    4.7722   -7.1476 C   0  0  0  0  0  0  0  0  0  0  0  0
   25.0100    3.9604   -8.2387 C   0  0  0  0  0  0  0  0  0  0  0  0
   26.8939    5.5405   -5.4418 N   0  0  0  0  0  0  0  0  0  0  0  0
   27.8807    6.6253   -5.6234 C   0  0  0  0  0  0  0  0  0  0  0  0
   28.2332    7.2353   -4.2550 C   0  0  0  0  0  0  0  0  0  0  0  0
   27.0553    7.7490   -3.6067 O   0  0  0  0  0  0  0  0  0  0  0  0
   26.1134    6.6827   -3.3907 C   0  0  0  0  0  0  0  0  0  0  0  0
   25.6884    6.0140   -4.7118 C   0  0  0  0  0  0  0  0  0  0  0  0
   27.3397   -2.2029   -9.6297 H   0  0  0  0  0  0  0  0  0  0  0  0
   26.3155   -3.1565  -10.6760 H   0  0  0  0  0  0  0  0  0  0  0  0
   26.0800   -3.2018   -8.9453 H   0  0  0  0  0  0  0  0  0  0  0  0
   23.1574   -2.9738  -12.2409 H   0  0  0  0  0  0  0  0  0  0  0  0
   21.8815   -6.4754  -10.4958 H   0  0  0  0  0  0  0  0  0  0  0  0
   23.1081   -4.6351   -6.0228 H   0  0  0  0  0  0  0  0  0  0  0  0
   22.0597   -6.8260   -6.3906 H   0  0  0  0  0  0  0  0  0  0  0  0
   22.5741   -7.5401   -7.9001 H   0  0  0  0  0  0  0  0  0  0  0  0
   20.9776   -6.8433   -7.7625 H   0  0  0  0  0  0  0  0  0  0  0  0
   27.8541    2.2595   -8.4849 H   0  0  0  0  0  0  0  0  0  0  0  0
   28.4322    3.6517   -6.5972 H   0  0  0  0  0  0  0  0  0  0  0  0
   24.6550    5.4426   -6.7866 H   0  0  0  0  0  0  0  0  0  0  0  0
   24.0700    4.0410   -8.6570 H   0  0  0  0  0  0  0  0  0  0  0  0
   27.4654    7.3827   -6.2548 H   0  0  0  0  0  0  0  0  0  0  0  0
   28.7661    6.2290   -6.0751 H   0  0  0  0  0  0  0  0  0  0  0  0
   28.9324    8.0329   -4.3959 H   0  0  0  0  0  0  0  0  0  0  0  0
   28.6593    6.4718   -3.6382 H   0  0  0  0  0  0  0  0  0  0  0  0
   25.2446    7.0810   -2.9096 H   0  0  0  0  0  0  0  0  0  0  0  0
   26.5865    5.9412   -2.7814 H   0  0  0  0  0  0  0  0  0  0  0  0
   25.1616    6.7226   -5.3162 H   0  0  0  0  0  0  0  0  0  0  0  0
   25.0516    5.1807   -4.4994 H   0  0  0  0  0  0  0  0  0  0  0  0
  1  2  1  0
  1 37  1  0
  1 38  1  0
  1 39  1  0
  2  3  2  0
  3  4  1  0
  4 23  1  0
  4  5  2  0
  5 18  1  0
  5  6  1  0
  6  7  2  0
  7  8  1  0
  7  2  1  0
  8  9  2  0
  9 10  1  0
  9 40  1  0
 10 11  2  0
 11 12  1  0
 11 41  1  0
 12 13  2  0
 13 14  1  0
 13  8  1  0
 14 15  2  0
 15 16  1  0
 15 42  1  0
 16 17  1  0
 16 12  1  0
 17 43  1  0
 17 44  1  0
 17 45  1  0
 18 19  1  0
 18 20  2  0
 19 21  1  0
 19 22  1  0
 23 25  1  0
 23 24  1  0
 25 26  2  0
 26 27  1  0
 26 46  1  0
 27 28  2  0
 27 47  1  0
 28 31  1  0
 28 29  1  0
 29 30  2  0
 29 48  1  0
 30 25  1  0
 30 49  1  0
 31 32  1  0
 32 33  1  0
 32 50  1  0
 32 51  1  0
 33 34  1  0
 33 52  1  0
 33 53  1  0
 34 35  1  0
 35 36  1  0
 35 54  1  0
 35 55  1  0
 36 31  1  0
 36 56  1  0
 36 57  1  0
M  END
>  <minimizedAffinity>  (3) 
-6.82736

>  <mol_id>  (3) 
14800

>  <source_index>  (3) 
2

>  <layer>  (3) 
L4

>  <uniprot>  (3) 
Q13094

>  <paff>  (3) 
7.1805000000000003

>  <smiles>  (3) 
Cc1nc(Nc2ccc(N3CCOCC3)cc2)c(C(N)=O)nc1-c1cncc2c1ncn2C

$$$$
L4:Q13094:21300
     RDKit          3D

 54 58  0  0  0  0  0  0  0  0999 V2000
   24.8572    1.3300  -10.3171 C   0  0  0  0  0  0  0  0  0  0  0  0
   23.5386    1.0278   -9.9475 C   0  0  0  0  0  0  0  0  0  0  0  0
   23.1228   -0.2094   -9.5452 N   0  0  0  0  0  0  0  0  0  0  0  0
   24.0966   -1.1526   -9.4498 C   0  0  0  0  0  0  0  0  0  0  0  0
   25.4386   -0.8876   -9.7940 C   0  0  0  0  0  0  0  0  0  0  0  0
   25.7971    0.3517  -10.2522 N   0  0  0  0  0  0  0  0  0  0  0  0
   23.6199   -2.4481   -8.9906 C   0  0  0  0  0  0  0  0  0  0  0  0
   23.8017   -2.9168   -7.6923 C   0  0  0  0  0  0  0  0  0  0  0  0
   23.3845   -4.1191   -7.2206 N   0  0  0  0  0  0  0  0  0  0  0  0
   22.7524   -4.9707   -8.0585 C   0  0  0  0  0  0  0  0  0  0  0  0
   22.5572   -4.5847   -9.3756 C   0  0  0  0  0  0  0  0  0  0  0  0
   22.9782   -3.3464   -9.8556 C   0  0  0  0  0  0  0  0  0  0  0  0
   22.6706   -3.2243  -11.1952 N   0  0  0  0  0  0  0  0  0  0  0  0
   22.0843   -4.3518  -11.5283 C   0  0  0  0  0  0  0  0  0  0  0  0
   21.9910   -5.2005  -10.4637 N   0  0  0  0  0  0  0  0  0  0  0  0
   21.4094   -6.5195  -10.4922 C   0  0  0  0  0  0  0  0  0  0  0  0
   22.4830    2.0877   -9.9045 C   0  0  0  0  0  0  0  0  0  0  0  0
   22.1653    2.7523  -10.8842 O   0  0  0  0  0  0  0  0  0  0  0  0
   21.9199    2.3107   -8.6738 N   0  0  0  0  0  0  0  0  0  0  0  0
   22.3369    1.8721   -7.8588 H   0  0  0  0  0  0  0  0  0  0  0  0
   21.3138    3.1106   -8.5549 H   0  0  0  0  0  0  0  0  0  0  0  0
   26.5234   -1.9449   -9.6920 C   0  0  0  0  0  0  0  0  0  0  0  0
   27.7830   -1.8659  -10.5222 C   0  0  0  0  0  0  0  0  0  0  0  0
   26.7429   -2.8957  -10.8494 C   0  0  0  0  0  0  0  0  0  0  0  0
   25.2030    2.6148  -10.8081 N   0  0  0  0  0  0  0  0  0  0  0  0
   24.4235    2.9738  -11.3688 H   0  0  0  0  0  0  0  0  0  0  0  0
   25.0253    4.1154   -7.9239 C   0  0  0  0  0  0  0  0  0  0  0  0
   26.0091    4.2069   -9.0284 C   0  0  0  0  0  0  0  0  0  0  0  0
   26.0514    3.5165  -10.2681 C   0  0  0  0  0  0  0  0  0  0  0  0
   27.2471    3.8791  -10.8391 C   0  0  0  0  0  0  0  0  0  0  0  0
   27.7953    4.8038   -9.9998 N   0  0  0  0  0  0  0  0  0  0  0  0
   27.0930    4.9855   -8.8687 N   0  0  0  0  0  0  0  0  0  0  0  0
   29.0547    5.4895  -10.1708 C   0  0  0  0  0  0  0  0  0  0  0  0
   28.9959    6.4792  -11.3011 C   0  0  0  0  0  0  0  0  0  0  0  0
   27.7814    7.0448  -11.4523 F   0  0  0  0  0  0  0  0  0  0  0  0
   29.3514    5.9196  -12.4807 F   0  0  0  0  0  0  0  0  0  0  0  0
   29.8746    7.4885  -11.0733 F   0  0  0  0  0  0  0  0  0  0  0  0
   24.2961   -2.2968   -7.0319 H   0  0  0  0  0  0  0  0  0  0  0  0
   22.4218   -5.8895   -7.7246 H   0  0  0  0  0  0  0  0  0  0  0  0
   21.7378   -4.5685  -12.4760 H   0  0  0  0  0  0  0  0  0  0  0  0
   21.0482   -6.7288  -11.4774 H   0  0  0  0  0  0  0  0  0  0  0  0
   20.5972   -6.5663   -9.7972 H   0  0  0  0  0  0  0  0  0  0  0  0
   22.1511   -7.2423  -10.2232 H   0  0  0  0  0  0  0  0  0  0  0  0
   26.3230   -2.0363   -8.6449 H   0  0  0  0  0  0  0  0  0  0  0  0
   28.7195   -2.1677  -10.1017 H   0  0  0  0  0  0  0  0  0  0  0  0
   28.2773   -1.0919  -11.0713 H   0  0  0  0  0  0  0  0  0  0  0  0
   26.9378   -3.9308  -10.6613 H   0  0  0  0  0  0  0  0  0  0  0  0
   26.1896   -3.1587  -11.7267 H   0  0  0  0  0  0  0  0  0  0  0  0
   24.2287    3.4605   -8.2092 H   0  0  0  0  0  0  0  0  0  0  0  0
   24.6305    5.0880   -7.7164 H   0  0  0  0  0  0  0  0  0  0  0  0
   25.5064    3.7316   -7.0486 H   0  0  0  0  0  0  0  0  0  0  0  0
   27.6480    3.5247  -11.7215 H   0  0  0  0  0  0  0  0  0  0  0  0
   29.8173    4.7685  -10.3796 H   0  0  0  0  0  0  0  0  0  0  0  0
   29.2708    6.0232   -9.2690 H   0  0  0  0  0  0  0  0  0  0  0  0
  1  2  2  0
  2  3  1  0
  2 17  1  0
  3  4  2  0
  4  5  1  0
  4  7  1  0
  5  6  2  0
  5 22  1  0
  6  1  1  0
  7  8  2  0
  8  9  1  0
  8 38  1  0
  9 10  2  0
 10 11  1  0
 10 39  1  0
 11 12  2  0
 12 13  1  0
 12  7  1  0
 13 14  2  0
 14 15  1  0
 14 40  1  0
 15 16  1  0
 15 11  1  0
 16 41  1  0
 16 42  1  0
 16 43  1  0
 17 18  2  0
 17 19  1  0
 19 20  1  0
 19 21  1  0
 22 23  1  0
 22 44  1  0
 23 24  1  0
 23 45  1  0
 23 46  1  0
 24 22  1  0
 24 47  1  0
 24 48  1  0
 25  1  1  0
 25 26  1  0
 27 28  1  0
 27 49  1  0
 27 50  1  0
 27 51  1  0
 28 29  1  0
 29 30  2  0
 29 25  1  0
 30 31  1  0
 30 52  1  0
 31 32  1  0
 31 33  1  0
 32 28  2  0
 33 34  1  0
 33 53  1  0
 33 54  1  0
 34 35  1  0
 34 36  1  0
 34 37  1  0
M  END
>  <minimizedAffinity>  (4) 
-6.56604

>  <mol_id>  (4) 
21300

>  <source_index>  (4) 
3

>  <layer>  (4) 
L4

>  <uniprot>  (4) 
Q13094

>  <paff>  (4) 
7.0861999999999998

>  <smiles>  (4) 
Cc1c(cn(n1)CC(F)(F)F)Nc2c(nc(c(n2)C3CC3)c4cncc5c4ncn5C)C(=O)N

$$$$
L4:Q13094:32544
     RDKit          3D

 57 61  0  0  0  0  0  0  0  0999 V2000
   23.9745   -1.4671  -10.0985 C   0  0  0  0  0  0  0  0  0  0  0  0
   23.1234   -0.4056  -10.1124 N   0  0  0  0  0  0  0  0  0  0  0  0
   23.6925    0.8383  -10.0207 C   0  0  0  0  0  0  0  0  0  0  0  0
   25.0730    1.0658   -9.9330 C   0  0  0  0  0  0  0  0  0  0  0  0
   25.8943   -0.0098   -9.9419 N   0  0  0  0  0  0  0  0  0  0  0  0
   25.3577   -1.2701  -10.0406 C   0  0  0  0  0  0  0  0  0  0  0  0
   22.0445   -6.6100   -7.4574 C   0  0  0  0  0  0  0  0  0  0  0  0
   22.5952   -5.3461   -7.8779 N   0  0  0  0  0  0  0  0  0  0  0  0
   23.3004   -4.4833   -7.0891 C   0  0  0  0  0  0  0  0  0  0  0  0
   23.6731   -3.4141   -7.7560 N   0  0  0  0  0  0  0  0  0  0  0  0
   23.1852   -3.5884   -9.0353 C   0  0  0  0  0  0  0  0  0  0  0  0
   23.2932   -2.7537  -10.1577 C   0  0  0  0  0  0  0  0  0  0  0  0
   22.6477   -3.2322  -11.2969 C   0  0  0  0  0  0  0  0  0  0  0  0
   21.9797   -4.4104  -11.3937 N   0  0  0  0  0  0  0  0  0  0  0  0
   21.9022   -5.2140  -10.3103 C   0  0  0  0  0  0  0  0  0  0  0  0
   22.5003   -4.7972   -9.1316 C   0  0  0  0  0  0  0  0  0  0  0  0
   22.7177    1.9754  -10.0402 C   0  0  0  0  0  0  0  0  0  0  0  0
   21.8742    2.0512   -8.9629 N   0  0  0  0  0  0  0  0  0  0  0  0
   22.6589    2.7877  -10.9565 O   0  0  0  0  0  0  0  0  0  0  0  0
   21.1937    2.7957   -8.9080 H   0  0  0  0  0  0  0  0  0  0  0  0
   21.9425    1.3664   -8.2175 H   0  0  0  0  0  0  0  0  0  0  0  0
   26.3381   -2.4200  -10.0947 C   0  0  0  0  0  0  0  0  0  0  0  0
   26.8837   -2.7187   -8.8750 F   0  0  0  0  0  0  0  0  0  0  0  0
   27.4163   -2.1797  -10.8986 F   0  0  0  0  0  0  0  0  0  0  0  0
   25.5974    2.3641   -9.7745 N   0  0  0  0  0  0  0  0  0  0  0  0
   25.9723    2.7350  -10.6523 H   0  0  0  0  0  0  0  0  0  0  0  0
   25.9802    3.1116   -8.6490 C   0  0  0  0  0  0  0  0  0  0  0  0
   25.0662    4.0284   -8.1169 C   0  0  0  0  0  0  0  0  0  0  0  0
   25.3624    4.7817   -6.9695 C   0  0  0  0  0  0  0  0  0  0  0  0
   26.5791    4.6506   -6.2898 C   0  0  0  0  0  0  0  0  0  0  0  0
   27.4783    3.7177   -6.8225 C   0  0  0  0  0  0  0  0  0  0  0  0
   27.1846    2.9584   -7.9690 C   0  0  0  0  0  0  0  0  0  0  0  0
   26.8738    5.3935   -5.1622 N   0  0  0  0  0  0  0  0  0  0  0  0
   27.6054    4.8258   -4.0195 C   0  0  0  0  0  0  0  0  0  0  0  0
   28.3707    5.9362   -3.2789 C   0  0  0  0  0  0  0  0  0  0  0  0
   27.5363    6.9898   -2.7773 O   0  0  0  0  0  0  0  0  0  0  0  0
   26.3492    7.1909   -3.5578 C   0  0  0  0  0  0  0  0  0  0  0  0
   26.4990    6.8109   -5.0409 C   0  0  0  0  0  0  0  0  0  0  0  0
   22.2771   -6.7750   -6.4261 H   0  0  0  0  0  0  0  0  0  0  0  0
   22.4652   -7.3966   -8.0482 H   0  0  0  0  0  0  0  0  0  0  0  0
   20.9823   -6.5966   -7.5857 H   0  0  0  0  0  0  0  0  0  0  0  0
   23.5141   -4.6500   -6.0933 H   0  0  0  0  0  0  0  0  0  0  0  0
   22.6804   -2.6389  -12.1407 H   0  0  0  0  0  0  0  0  0  0  0  0
   21.4082   -6.1188  -10.3594 H   0  0  0  0  0  0  0  0  0  0  0  0
   25.7368   -3.2207  -10.4718 H   0  0  0  0  0  0  0  0  0  0  0  0
   24.1521    4.1538   -8.5792 H   0  0  0  0  0  0  0  0  0  0  0  0
   24.6619    5.4523   -6.6166 H   0  0  0  0  0  0  0  0  0  0  0  0
   28.3892    3.5829   -6.3566 H   0  0  0  0  0  0  0  0  0  0  0  0
   27.8760    2.2739   -8.3130 H   0  0  0  0  0  0  0  0  0  0  0  0
   28.2997    4.0922   -4.3727 H   0  0  0  0  0  0  0  0  0  0  0  0
   26.9078    4.3720   -3.3469 H   0  0  0  0  0  0  0  0  0  0  0  0
   29.0807    6.3635   -3.9557 H   0  0  0  0  0  0  0  0  0  0  0  0
   28.8325    5.4781   -2.4293 H   0  0  0  0  0  0  0  0  0  0  0  0
   26.0817    8.2254   -3.5016 H   0  0  0  0  0  0  0  0  0  0  0  0
   25.5991    6.5465   -3.1491 H   0  0  0  0  0  0  0  0  0  0  0  0
   27.2590    7.4177   -5.4871 H   0  0  0  0  0  0  0  0  0  0  0  0
   25.5664    6.9714   -5.5403 H   0  0  0  0  0  0  0  0  0  0  0  0
  1  2  2  0
  2  3  1  0
  3 17  1  0
  3  4  2  0
  4 25  1  0
  4  5  1  0
  5  6  2  0
  6 22  1  0
  6  1  1  0
  7  8  1  0
  7 39  1  0
  7 40  1  0
  7 41  1  0
  8  9  1  0
  9 10  2  0
  9 42  1  0
 10 11  1  0
 11 12  2  0
 12  1  1  0
 12 13  1  0
 13 14  2  0
 13 43  1  0
 14 15  1  0
 15 16  2  0
 15 44  1  0
 16  8  1  0
 16 11  1  0
 17 18  1  0
 17 19  2  0
 18 20  1  0
 18 21  1  0
 22 23  1  0
 22 24  1  0
 22 45  1  0
 25 27  1  0
 25 26  1  0
 27 28  2  0
 28 29  1  0
 28 46  1  0
 29 30  2  0
 29 47  1  0
 30 33  1  0
 30 31  1  0
 31 32  2  0
 31 48  1  0
 32 27  1  0
 32 49  1  0
 33 34  1  0
 34 35  1  0
 34 50  1  0
 34 51  1  0
 35 36  1  0
 35 52  1  0
 35 53  1  0
 36 37  1  0
 37 38  1  0
 37 54  1  0
 37 55  1  0
 38 33  1  0
 38 56  1  0
 38 57  1  0
M  END
>  <minimizedAffinity>  (5) 
-7.07516

>  <mol_id>  (5) 
32544

>  <source_index>  (5) 
4

>  <layer>  (5) 
L4

>  <uniprot>  (5) 
Q13094

>  <paff>  (5) 
7.4949000000000003

>  <smiles>  (5) 
Cn1cnc2c(-c3nc(C(N)=O)c(Nc4ccc(N5CCOCC5)cc4)nc3C(F)F)cncc21

$$$$
L4:Q13094:34941
     RDKit          3D

 62 65  0  0  0  0  0  0  0  0999 V2000
   23.4003   -1.6367   -9.4512 N   0  0  0  0  0  0  0  0  0  0  0  0
   23.9692   -2.3151   -8.3013 C   0  0  0  0  0  0  0  0  0  0  0  0
   23.6396   -3.7398   -8.5499 C   0  0  0  0  0  0  0  0  0  0  0  0
   22.9911   -3.8749   -9.7588 C   0  0  0  0  0  0  0  0  0  0  0  0
   22.5525   -5.0905  -10.2457 C   0  0  0  0  0  0  0  0  0  0  0  0
   22.7875   -6.2165   -9.4730 C   0  0  0  0  0  0  0  0  0  0  0  0
   23.4252   -6.0779   -8.2716 N   0  0  0  0  0  0  0  0  0  0  0  0
   23.8531   -4.8705   -7.8098 C   0  0  0  0  0  0  0  0  0  0  0  0
   22.8457   -2.5413  -10.3565 C   0  0  0  0  0  0  0  0  0  0  0  0
   22.3227   -2.3871  -11.4436 O   0  0  0  0  0  0  0  0  0  0  0  0
   24.5377    1.7385  -10.1003 C   0  0  0  0  0  0  0  0  0  0  0  0
   23.3936    2.5070   -9.9207 C   0  0  0  0  0  0  0  0  0  0  0  0
   22.2170    1.8720   -9.5583 C   0  0  0  0  0  0  0  0  0  0  0  0
   22.2184    0.4892   -9.3973 C   0  0  0  0  0  0  0  0  0  0  0  0
   23.3980   -0.2317   -9.5945 C   0  0  0  0  0  0  0  0  0  0  0  0
   24.5438    0.3931   -9.9392 N   0  0  0  0  0  0  0  0  0  0  0  0
   26.8897    2.6557   -9.6945 N   0  0  0  0  0  0  0  0  0  0  0  0
   27.8041    3.2676  -10.5014 C   0  0  0  0  0  0  0  0  0  0  0  0
   27.3150    3.3980  -11.7097 N   0  0  0  0  0  0  0  0  0  0  0  0
   26.0602    2.8465  -11.7032 N   0  0  0  0  0  0  0  0  0  0  0  0
   25.7975    2.3801  -10.4885 C   0  0  0  0  0  0  0  0  0  0  0  0
   27.0555    2.4714   -8.2664 C   0  0  0  0  0  0  0  0  0  0  0  0
   25.4963    4.3334   -7.5059 C   0  0  0  0  0  0  0  0  0  0  0  0
   26.9114    3.7677   -7.4611 C   0  0  0  0  0  0  0  0  0  0  0  0
   22.3675   -7.4929   -9.8304 N   0  0  0  0  0  0  0  0  0  0  0  0
   23.1408   -8.0960  -10.9212 C   0  0  0  0  0  0  0  0  0  0  0  0
   21.0233   -8.0590   -9.6102 C   0  0  0  0  0  0  0  0  0  0  0  0
   21.0832   -9.5080   -9.1261 C   0  0  0  0  0  0  0  0  0  0  0  0
   20.1134   -7.1655   -8.7701 C   0  0  0  0  0  0  0  0  0  0  0  0
   24.5336   -4.8407   -6.4585 C   0  0  0  0  0  0  0  0  0  0  0  0
   23.6546   -4.3614   -5.3832 N   0  0  0  0  0  0  0  0  0  0  0  0
   24.2633   -3.2433   -4.6765 C   0  0  0  0  0  0  0  0  0  0  0  0
   23.4486   -5.1079   -4.7253 H   0  0  0  0  0  0  0  0  0  0  0  0
   23.5214   -1.9708   -7.3926 H   0  0  0  0  0  0  0  0  0  0  0  0
   25.0189   -2.1411   -8.1888 H   0  0  0  0  0  0  0  0  0  0  0  0
   22.0665   -5.1580  -11.1536 H   0  0  0  0  0  0  0  0  0  0  0  0
   23.4201    3.5299  -10.0546 H   0  0  0  0  0  0  0  0  0  0  0  0
   21.3525    2.4158   -9.4099 H   0  0  0  0  0  0  0  0  0  0  0  0
   21.3500   -0.0018   -9.1329 H   0  0  0  0  0  0  0  0  0  0  0  0
   28.7414    3.5810  -10.2042 H   0  0  0  0  0  0  0  0  0  0  0  0
   26.3153    1.7776   -7.9264 H   0  0  0  0  0  0  0  0  0  0  0  0
   28.0512    2.1126   -8.1092 H   0  0  0  0  0  0  0  0  0  0  0  0
   25.4538    5.2339   -6.9296 H   0  0  0  0  0  0  0  0  0  0  0  0
   24.8129    3.6173   -7.0996 H   0  0  0  0  0  0  0  0  0  0  0  0
   25.2291    4.5460   -8.5200 H   0  0  0  0  0  0  0  0  0  0  0  0
   27.1682    3.5679   -6.4418 H   0  0  0  0  0  0  0  0  0  0  0  0
   27.5641    4.4942   -7.8982 H   0  0  0  0  0  0  0  0  0  0  0  0
   24.0931   -7.6134  -10.9925 H   0  0  0  0  0  0  0  0  0  0  0  0
   22.6105   -7.9765  -11.8428 H   0  0  0  0  0  0  0  0  0  0  0  0
   23.2829   -9.1380  -10.7239 H   0  0  0  0  0  0  0  0  0  0  0  0
   20.5494   -8.0872  -10.5691 H   0  0  0  0  0  0  0  0  0  0  0  0
   21.5507   -9.5437   -8.1643 H   0  0  0  0  0  0  0  0  0  0  0  0
   21.6500  -10.0928   -9.8201 H   0  0  0  0  0  0  0  0  0  0  0  0
   20.0908   -9.9016   -9.0551 H   0  0  0  0  0  0  0  0  0  0  0  0
   20.5133   -7.0782   -7.7815 H   0  0  0  0  0  0  0  0  0  0  0  0
   19.1353   -7.5968   -8.7224 H   0  0  0  0  0  0  0  0  0  0  0  0
   20.0540   -6.1955   -9.2178 H   0  0  0  0  0  0  0  0  0  0  0  0
   25.3830   -4.1928   -6.5188 H   0  0  0  0  0  0  0  0  0  0  0  0
   24.8135   -5.8453   -6.2190 H   0  0  0  0  0  0  0  0  0  0  0  0
   24.4797   -2.4581   -5.3704 H   0  0  0  0  0  0  0  0  0  0  0  0
   25.1703   -3.5673   -4.2103 H   0  0  0  0  0  0  0  0  0  0  0  0
   23.5873   -2.8829   -3.9295 H   0  0  0  0  0  0  0  0  0  0  0  0
  1  2  1  0
  2  3  1  0
  2 34  1  0
  2 35  1  0
  3  4  2  0
  4  5  1  0
  4  9  1  0
  5  6  2  0
  5 36  1  0
  6  7  1  0
  6 25  1  0
  7  8  2  0
  8 30  1  0
  8  3  1  0
  9 10  2  0
  9  1  1  0
 11 12  2  0
 12 13  1  0
 12 37  1  0
 13 14  2  0
 13 38  1  0
 14 15  1  0
 14 39  1  0
 15 16  2  0
 15  1  1  0
 16 11  1  0
 17 18  1  0
 18 19  2  0
 18 40  1  0
 19 20  1  0
 20 21  2  0
 21 11  1  0
 21 17  1  0
 22 17  1  0
 22 41  1  0
 22 42  1  0
 23 24  1  0
 23 43  1  0
 23 44  1  0
 23 45  1  0
 24 22  1  0
 24 46  1  0
 24 47  1  0
 25 26  1  0
 25 27  1  0
 26 48  1  0
 26 49  1  0
 26 50  1  0
 27 28  1  0
 27 29  1  0
 27 51  1  0
 28 52  1  0
 28 53  1  0
 28 54  1  0
 29 55  1  0
 29 56  1  0
 29 57  1  0
 30 31  1  0
 30 58  1  0
 30 59  1  0
 31 32  1  0
 31 33  1  0
 32 60  1  0
 32 61  1  0
 32 62  1  0
M  END
>  <minimizedAffinity>  (6) 
-6.00498

>  <mol_id>  (6) 
34941

>  <source_index>  (6) 
5

>  <layer>  (6) 
L4

>  <uniprot>  (6) 
Q13094

>  <paff>  (6) 
7.0605000000000002

>  <smiles>  (6) 
CCCn1cnnc1-c1cccc(n1)N1Cc2c(cc(nc2CNC)N(C)C(C)C)C1=O

$$$$
L4:Q13094:55190
     RDKit          3D

 53 56  0  0  0  0  0  0  0  0999 V2000
   22.6828   -3.3982  -10.2346 C   0  0  0  0  0  0  0  0  0  0  0  0
   21.8423   -3.6486  -11.3148 C   0  0  0  0  0  0  0  0  0  0  0  0
   21.1282   -4.8409  -11.3652 C   0  0  0  0  0  0  0  0  0  0  0  0
   21.2690   -5.7564  -10.3346 C   0  0  0  0  0  0  0  0  0  0  0  0
   22.1126   -5.4463   -9.2739 C   0  0  0  0  0  0  0  0  0  0  0  0
   22.8161   -4.2880   -9.2120 N   0  0  0  0  0  0  0  0  0  0  0  0
   25.1000    2.1220   -9.8434 C   0  0  0  0  0  0  0  0  0  0  0  0
   26.3098    1.3958   -9.8107 C   0  0  0  0  0  0  0  0  0  0  0  0
   26.3143   -0.0000   -9.8840 C   0  0  0  0  0  0  0  0  0  0  0  0
   25.0954   -0.6380   -9.9839 C   0  0  0  0  0  0  0  0  0  0  0  0
   23.8899    0.0539  -10.0187 C   0  0  0  0  0  0  0  0  0  0  0  0
   23.8624    1.4474   -9.9609 C   0  0  0  0  0  0  0  0  0  0  0  0
   22.7637   -0.9236  -10.1165 C   0  0  0  0  0  0  0  0  0  0  0  0
   23.4338   -2.2087  -10.1497 N   0  0  0  0  0  0  0  0  0  0  0  0
   24.8144   -2.0776  -10.0675 C   0  0  0  0  0  0  0  0  0  0  0  0
   25.6985   -2.9133  -10.0629 O   0  0  0  0  0  0  0  0  0  0  0  0
   22.5499    2.1882   -9.9854 C   0  0  0  0  0  0  0  0  0  0  0  0
   22.1299    2.5866   -8.6475 N   0  0  0  0  0  0  0  0  0  0  0  0
   22.1957    1.7942   -8.0123 H   0  0  0  0  0  0  0  0  0  0  0  0
   22.8056    3.2698   -8.3006 H   0  0  0  0  0  0  0  0  0  0  0  0
   25.8770    4.2535  -10.5986 C   0  0  0  0  0  0  0  0  0  0  0  0
   25.0198    3.4889   -9.7596 O   0  0  0  0  0  0  0  0  0  0  0  0
   22.2900   -6.4160   -8.1897 C   0  0  0  0  0  0  0  0  0  0  0  0
   22.2690   -7.7287   -8.3832 N   0  0  0  0  0  0  0  0  0  0  0  0
   22.4379   -8.3688   -7.1879 N   0  0  0  0  0  0  0  0  0  0  0  0
   22.5458   -7.4458   -6.2693 C   0  0  0  0  0  0  0  0  0  0  0  0
   22.4508   -6.2002   -6.8363 N   0  0  0  0  0  0  0  0  0  0  0  0
   22.5169   -4.9832   -6.0418 C   0  0  1  0  0  0  0  0  0  0  0  0
   21.4312   -4.9727   -4.9620 C   0  0  0  0  0  0  0  0  0  0  0  0
   23.8951   -4.5730   -5.5025 C   0  0  0  0  0  0  0  0  0  0  0  0
   24.2422   -3.1391   -5.8283 C   0  0  0  0  0  0  0  0  0  0  0  0
   24.1081   -2.3636   -4.7306 F   0  0  0  0  0  0  0  0  0  0  0  0
   23.4166   -2.6499   -6.7780 F   0  0  0  0  0  0  0  0  0  0  0  0
   25.5081   -3.0127   -6.2665 F   0  0  0  0  0  0  0  0  0  0  0  0
   21.7495   -2.9547  -12.0730 H   0  0  0  0  0  0  0  0  0  0  0  0
   20.5013   -5.0413  -12.1601 H   0  0  0  0  0  0  0  0  0  0  0  0
   20.7569   -6.6522  -10.3540 H   0  0  0  0  0  0  0  0  0  0  0  0
   27.2049    1.9032   -9.7314 H   0  0  0  0  0  0  0  0  0  0  0  0
   27.1973   -0.5338   -9.8641 H   0  0  0  0  0  0  0  0  0  0  0  0
   22.1959   -0.7650  -11.0095 H   0  0  0  0  0  0  0  0  0  0  0  0
   22.0659   -0.8379   -9.3099 H   0  0  0  0  0  0  0  0  0  0  0  0
   21.8008    1.5523  -10.4089 H   0  0  0  0  0  0  0  0  0  0  0  0
   22.6779    3.0738  -10.5721 H   0  0  0  0  0  0  0  0  0  0  0  0
   25.7066    5.2959  -10.4274 H   0  0  0  0  0  0  0  0  0  0  0  0
   25.6725    4.0222  -11.6231 H   0  0  0  0  0  0  0  0  0  0  0  0
   26.8967    4.0176  -10.3764 H   0  0  0  0  0  0  0  0  0  0  0  0
   22.6827   -7.6276   -5.2627 H   0  0  0  0  0  0  0  0  0  0  0  0
   22.3190   -4.2043   -6.7483 H   0  0  0  0  0  0  0  0  0  0  0  0
   21.6255   -5.7504   -4.2533 H   0  0  0  0  0  0  0  0  0  0  0  0
   20.4756   -5.1340   -5.4155 H   0  0  0  0  0  0  0  0  0  0  0  0
   21.4339   -4.0263   -4.4627 H   0  0  0  0  0  0  0  0  0  0  0  0
   24.6365   -5.2120   -5.9348 H   0  0  0  0  0  0  0  0  0  0  0  0
   23.8674   -4.6661   -4.4369 H   0  0  0  0  0  0  0  0  0  0  0  0
  1  2  2  0
  2  3  1  0
  2 35  1  0
  3  4  2  0
  3 36  1  0
  4  5  1  0
  4 37  1  0
  5 23  1  0
  5  6  2  0
  6  1  1  0
  7  8  2  0
  8  9  1  0
  8 38  1  0
  9 10  2  0
  9 39  1  0
 10 11  1  0
 11 12  2  0
 11 13  1  0
 12 17  1  0
 12  7  1  0
 13 14  1  0
 13 40  1  0
 13 41  1  0
 14  1  1  0
 14 15  1  0
 15 16  2  0
 15 10  1  0
 17 18  1  0
 17 42  1  0
 17 43  1  0
 18 19  1  0
 18 20  1  0
 21 22  1  0
 21 44  1  0
 21 45  1  0
 21 46  1  0
 22  7  1  0
 23 24  2  0
 24 25  1  0
 25 26  2  0
 26 27  1  0
 26 47  1  0
 27 28  1  0
 27 23  1  0
 28 29  1  0
 28 30  1  0
 28 48  1  6
 29 49  1  0
 29 50  1  0
 29 51  1  0
 30 31  1  0
 30 52  1  0
 30 53  1  0
 31 32  1  0
 31 33  1  0
 31 34  1  0
M  END
>  <minimizedAffinity>  (7) 
-6.92719

>  <mol_id>  (7) 
55190

>  <source_index>  (7) 
6

>  <layer>  (7) 
L4

>  <uniprot>  (7) 
Q13094

>  <paff>  (7) 
6.2839999999999998

>  <smiles>  (7) 
COc1ccc2c(c1CN)CN(c1cccc(-c3nncn3[C@@H](C)CC(F)(F)F)n1)C2=O

$$$$
L4:Q13094:118817
     RDKit          3D

 63 67  0  0  0  0  0  0  0  0999 V2000
   26.5681   -0.4457   -9.7242 C   0  0  0  0  0  0  0  0  0  0  0  0
   26.3385    0.8953   -9.7855 N   0  0  0  0  0  0  0  0  0  0  0  0
   25.0681    1.3678   -9.9343 C   0  0  0  0  0  0  0  0  0  0  0  0
   23.9912    0.5019  -10.0936 C   0  0  0  0  0  0  0  0  0  0  0  0
   24.2616   -0.8460  -10.0329 C   0  0  0  0  0  0  0  0  0  0  0  0
   23.3294   -1.9748  -10.0839 C   0  0  0  0  0  0  0  0  0  0  0  0
   22.1341   -1.8013  -10.2418 O   0  0  0  0  0  0  0  0  0  0  0  0
   24.0817   -3.1297   -9.8474 N   0  0  0  0  0  0  0  0  0  0  0  0
   25.4984   -2.8264   -9.7295 C   0  0  0  0  0  0  0  0  0  0  0  0
   25.5309   -1.3404   -9.8259 C   0  0  0  0  0  0  0  0  0  0  0  0
   23.5048   -4.3628   -9.4683 C   0  0  0  0  0  0  0  0  0  0  0  0
   23.5652   -5.4761  -10.3019 C   0  0  0  0  0  0  0  0  0  0  0  0
   23.2220   -6.7311   -9.7963 C   0  0  0  0  0  0  0  0  0  0  0  0
   22.7910   -6.8398   -8.4793 C   0  0  0  0  0  0  0  0  0  0  0  0
   22.6554   -5.6777   -7.7442 C   0  0  0  0  0  0  0  0  0  0  0  0
   22.9917   -4.4627   -8.2281 N   0  0  0  0  0  0  0  0  0  0  0  0
   22.1953   -5.6758   -6.3640 C   0  0  0  0  0  0  0  0  0  0  0  0
   21.0694   -5.1572   -5.8782 N   0  0  0  0  0  0  0  0  0  0  0  0
   21.0218   -5.3843   -4.5046 N   0  0  0  0  0  0  0  0  0  0  0  0
   22.1251   -6.0172   -4.1998 C   0  0  0  0  0  0  0  0  0  0  0  0
   22.8316   -6.4224   -2.9765 C   0  0  0  0  0  0  0  0  0  0  0  0
   24.1472   -7.0393   -3.5288 C   0  0  0  0  0  0  0  0  0  0  0  0
   24.2209   -6.6683   -5.0379 C   0  0  1  0  0  0  0  0  0  0  0  0
   22.8709   -6.2089   -5.3155 N   0  0  0  0  0  0  0  0  0  0  0  0
   25.2440   -5.5757   -5.3020 C   0  0  0  0  0  0  0  0  0  0  0  0
   24.7656   -4.3711   -4.8814 F   0  0  0  0  0  0  0  0  0  0  0  0
   24.8301    2.7589   -9.9298 N   0  0  0  0  0  0  0  0  0  0  0  0
   24.2689    3.2496  -11.1866 C   0  0  0  0  0  0  0  0  0  0  0  0
   25.9332    3.5395   -9.3165 C   0  0  0  0  0  0  0  0  0  0  0  0
   26.4542    4.6435  -10.2406 C   0  0  0  0  0  0  0  0  0  0  0  0
   25.4744    4.1150   -7.9700 C   0  0  0  0  0  0  0  0  0  0  0  0
   27.9954   -0.9070   -9.5275 C   0  0  0  0  0  0  0  0  0  0  0  0
   28.9823   -2.3087  -11.2192 C   0  0  0  0  0  0  0  0  0  0  0  0
   28.7374   -0.9336  -10.8012 N   0  0  0  0  0  0  0  0  0  0  0  0
   29.6362   -0.4706  -10.6419 H   0  0  0  0  0  0  0  0  0  0  0  0
   23.0338    0.8540  -10.2501 H   0  0  0  0  0  0  0  0  0  0  0  0
   26.0556   -3.2758  -10.5248 H   0  0  0  0  0  0  0  0  0  0  0  0
   25.9366   -3.2006   -8.8279 H   0  0  0  0  0  0  0  0  0  0  0  0
   23.8612   -5.3744  -11.2853 H   0  0  0  0  0  0  0  0  0  0  0  0
   23.2876   -7.5697  -10.3942 H   0  0  0  0  0  0  0  0  0  0  0  0
   22.5788   -7.7601   -8.0633 H   0  0  0  0  0  0  0  0  0  0  0  0
   22.2671   -7.1465   -2.4270 H   0  0  0  0  0  0  0  0  0  0  0  0
   22.9956   -5.6147   -2.2941 H   0  0  0  0  0  0  0  0  0  0  0  0
   24.1327   -8.1028   -3.4115 H   0  0  0  0  0  0  0  0  0  0  0  0
   24.9981   -6.6638   -2.9998 H   0  0  0  0  0  0  0  0  0  0  0  0
   24.5315   -7.4836   -5.6573 H   0  0  0  0  0  0  0  0  0  0  0  0
   25.4475   -5.5283   -6.3514 H   0  0  0  0  0  0  0  0  0  0  0  0
   26.1419   -5.8013   -4.7655 H   0  0  0  0  0  0  0  0  0  0  0  0
   23.4884    2.5927  -11.5092 H   0  0  0  0  0  0  0  0  0  0  0  0
   25.0368    3.2837  -11.9309 H   0  0  0  0  0  0  0  0  0  0  0  0
   23.8705    4.2318  -11.0399 H   0  0  0  0  0  0  0  0  0  0  0  0
   26.7541    2.8729   -9.1535 H   0  0  0  0  0  0  0  0  0  0  0  0
   25.6692    5.3432  -10.4383 H   0  0  0  0  0  0  0  0  0  0  0  0
   26.7865    4.2108  -11.1611 H   0  0  0  0  0  0  0  0  0  0  0  0
   27.2711    5.1480   -9.7683 H   0  0  0  0  0  0  0  0  0  0  0  0
   24.6533    4.7824   -8.1286 H   0  0  0  0  0  0  0  0  0  0  0  0
   26.2837    4.6470   -7.5151 H   0  0  0  0  0  0  0  0  0  0  0  0
   25.1663    3.3169   -7.3274 H   0  0  0  0  0  0  0  0  0  0  0  0
   28.4870   -0.2373   -8.8531 H   0  0  0  0  0  0  0  0  0  0  0  0
   27.9744   -1.9008   -9.1315 H   0  0  0  0  0  0  0  0  0  0  0  0
   28.0479   -2.8018  -11.3884 H   0  0  0  0  0  0  0  0  0  0  0  0
   29.5236   -2.8234  -10.4530 H   0  0  0  0  0  0  0  0  0  0  0  0
   29.5552   -2.3101  -12.1229 H   0  0  0  0  0  0  0  0  0  0  0  0
  1  2  2  0
  2  3  1  0
  3  4  2  0
  3 27  1  0
  4  5  1  0
  4 36  1  0
  5  6  1  0
  6  7  2  0
  6  8  1  0
  8  9  1  0
  8 11  1  0
  9 10  1  0
  9 37  1  0
  9 38  1  0
 10  1  1  0
 10  5  2  0
 11 12  2  0
 12 13  1  0
 12 39  1  0
 13 14  2  0
 13 40  1  0
 14 15  1  0
 14 41  1  0
 15 16  2  0
 15 17  1  0
 16 11  1  0
 17 18  2  0
 18 19  1  0
 19 20  2  0
 20 21  1  0
 21 22  1  0
 21 42  1  0
 21 43  1  0
 22 23  1  0
 22 44  1  0
 22 45  1  0
 23 25  1  0
 23 24  1  0
 23 46  1  6
 24 17  1  0
 24 20  1  0
 25 26  1  0
 25 47  1  0
 25 48  1  0
 27 28  1  0
 27 29  1  0
 28 49  1  0
 28 50  1  0
 28 51  1  0
 29 30  1  0
 29 31  1  0
 29 52  1  0
 30 53  1  0
 30 54  1  0
 30 55  1  0
 31 56  1  0
 31 57  1  0
 31 58  1  0
 32  1  1  0
 32 59  1  0
 32 60  1  0
 33 34  1  0
 33 61  1  0
 33 62  1  0
 33 63  1  0
 34 32  1  0
 34 35  1  0
M  END
>  <minimizedAffinity>  (8) 
-5.89028

>  <mol_id>  (8) 
118817

>  <source_index>  (8) 
7

>  <layer>  (8) 
L4

>  <uniprot>  (8) 
Q13094

>  <paff>  (8) 
7.2839999999999998

>  <smiles>  (8) 
CNCc1nc(cc2C(=O)N(Cc12)c1cccc(n1)-c1nnc2CC[C@H](CF)n12)N(C)C(C)C |r|

$$$$
L4:Q13094:128356
     RDKit          3D

 56 61  0  0  0  0  0  0  0  0999 V2000
   24.9760    1.3893  -10.0684 C   0  0  0  0  0  0  0  0  0  0  0  0
   25.9165    0.4085  -10.0280 N   0  0  0  0  0  0  0  0  0  0  0  0
   25.5218   -0.8905   -9.8787 C   0  0  0  0  0  0  0  0  0  0  0  0
   24.1542   -1.2042   -9.7610 C   0  0  0  0  0  0  0  0  0  0  0  0
   23.1822   -0.2521   -9.7597 N   0  0  0  0  0  0  0  0  0  0  0  0
   23.6222    1.0317   -9.9317 C   0  0  0  0  0  0  0  0  0  0  0  0
   23.6762   -2.5654   -9.6077 C   0  0  0  0  0  0  0  0  0  0  0  0
   23.2887   -3.3764  -10.6699 C   0  0  0  0  0  0  0  0  0  0  0  0
   22.7962   -4.6354  -10.5550 N   0  0  0  0  0  0  0  0  0  0  0  0
   22.6859   -5.1905   -9.3270 C   0  0  0  0  0  0  0  0  0  0  0  0
   23.0765   -4.4492   -8.2198 C   0  0  0  0  0  0  0  0  0  0  0  0
   23.5596   -3.1465   -8.3366 C   0  0  0  0  0  0  0  0  0  0  0  0
   23.8593   -2.6282   -7.0931 N   0  0  0  0  0  0  0  0  0  0  0  0
   23.6006   -3.5924   -6.2400 C   0  0  0  0  0  0  0  0  0  0  0  0
   23.1185   -4.7065   -6.8725 N   0  0  0  0  0  0  0  0  0  0  0  0
   22.7517   -5.9302   -6.2040 C   0  0  0  0  0  0  0  0  0  0  0  0
   22.5394    2.0592  -10.0244 C   0  0  0  0  0  0  0  0  0  0  0  0
   21.6603    2.0951   -8.9710 N   0  0  0  0  0  0  0  0  0  0  0  0
   22.4233    2.8107  -10.9850 O   0  0  0  0  0  0  0  0  0  0  0  0
   20.8295    2.6665   -9.0387 H   0  0  0  0  0  0  0  0  0  0  0  0
   21.7097    1.3650   -8.2663 H   0  0  0  0  0  0  0  0  0  0  0  0
   26.6096   -1.9477   -9.8235 C   0  0  0  0  0  0  0  0  0  0  0  0
   27.3834   -2.1610   -8.5387 C   0  0  0  0  0  0  0  0  0  0  0  0
   28.0610   -1.5338   -9.7202 C   0  0  0  0  0  0  0  0  0  0  0  0
   25.3756    2.7431  -10.1885 N   0  0  0  0  0  0  0  0  0  0  0  0
   25.2676    3.0674  -11.1565 H   0  0  0  0  0  0  0  0  0  0  0  0
   27.7061    4.7506  -10.8495 C   0  0  0  0  0  0  0  0  0  0  0  0
   27.0174    4.4894   -9.5615 C   0  0  0  0  0  0  0  0  0  0  0  0
   27.3674    5.1704   -8.4595 N   0  0  0  0  0  0  0  0  0  0  0  0
   26.5354    4.6936   -7.5175 N   0  0  0  0  0  0  0  0  0  0  0  0
   25.7001    3.7129   -7.9598 C   0  0  0  0  0  0  0  0  0  0  0  0
   25.9704    3.5640   -9.2956 C   0  0  0  0  0  0  0  0  0  0  0  0
   26.5589    5.1873   -6.1138 C   0  0  0  0  0  0  0  0  0  0  0  0
   27.4013    4.4765   -5.0582 C   0  0  0  0  0  0  0  0  0  0  0  0
   27.8190    5.8301   -5.5454 C   0  0  0  0  0  0  0  0  0  0  0  0
   25.2870    5.7187   -5.6837 C   0  0  0  0  0  0  0  0  0  0  0  0
   24.2927    6.2131   -5.3495 N   0  0  0  0  0  0  0  0  0  0  0  0
   23.3835   -2.9891  -11.6217 H   0  0  0  0  0  0  0  0  0  0  0  0
   22.3179   -6.1481   -9.2147 H   0  0  0  0  0  0  0  0  0  0  0  0
   23.7429   -3.5194   -5.2205 H   0  0  0  0  0  0  0  0  0  0  0  0
   22.8956   -5.8176   -5.1497 H   0  0  0  0  0  0  0  0  0  0  0  0
   23.3638   -6.7306   -6.5641 H   0  0  0  0  0  0  0  0  0  0  0  0
   21.7235   -6.1505   -6.4021 H   0  0  0  0  0  0  0  0  0  0  0  0
   26.0437   -2.5705  -10.4844 H   0  0  0  0  0  0  0  0  0  0  0  0
   27.6498   -3.1514   -8.2335 H   0  0  0  0  0  0  0  0  0  0  0  0
   27.2394   -1.8834   -7.5154 H   0  0  0  0  0  0  0  0  0  0  0  0
   28.8107   -2.0773  -10.2564 H   0  0  0  0  0  0  0  0  0  0  0  0
   28.5997   -0.6243   -9.8859 H   0  0  0  0  0  0  0  0  0  0  0  0
   28.4481    5.5088  -10.7099 H   0  0  0  0  0  0  0  0  0  0  0  0
   26.9922    5.0796  -11.5754 H   0  0  0  0  0  0  0  0  0  0  0  0
   28.1747    3.8518  -11.1921 H   0  0  0  0  0  0  0  0  0  0  0  0
   25.0062    3.1894   -7.4036 H   0  0  0  0  0  0  0  0  0  0  0  0
   27.9741    3.6131   -5.3253 H   0  0  0  0  0  0  0  0  0  0  0  0
   27.2024    4.0498   -4.0973 H   0  0  0  0  0  0  0  0  0  0  0  0
   28.6897    5.9307   -6.1591 H   0  0  0  0  0  0  0  0  0  0  0  0
   28.0404    6.7647   -5.0739 H   0  0  0  0  0  0  0  0  0  0  0  0
  1  2  2  0
  2  3  1  0
  3 22  1  0
  3  4  2  0
  4  7  1  0
  4  5  1  0
  5  6  2  0
  6 17  1  0
  6  1  1  0
  7  8  2  0
  8  9  1  0
  8 38  1  0
  9 10  2  0
 10 11  1  0
 10 39  1  0
 11 12  2  0
 12 13  1  0
 12  7  1  0
 13 14  2  0
 14 15  1  0
 14 40  1  0
 15 16  1  0
 15 11  1  0
 16 41  1  0
 16 42  1  0
 16 43  1  0
 17 18  1  0
 17 19  2  0
 18 20  1  0
 18 21  1  0
 22 23  1  0
 22 44  1  0
 23 24  1  0
 23 45  1  0
 23 46  1  0
 24 22  1  0
 24 47  1  0
 24 48  1  0
 25  1  1  0
 25 26  1  0
 27 28  1  0
 27 49  1  0
 27 50  1  0
 27 51  1  0
 28 29  2  0
 29 30  1  0
 30 33  1  0
 30 31  1  0
 31 32  2  0
 31 52  1  0
 32 25  1  0
 32 28  1  0
 33 36  1  0
 33 34  1  0
 34 35  1  0
 34 53  1  0
 34 54  1  0
 35 33  1  0
 35 55  1  0
 35 56  1  0
 36 37  3  0
M  END
>  <minimizedAffinity>  (9) 
-6.87402

>  <mol_id>  (9) 
128356

>  <source_index>  (9) 
8

>  <layer>  (9) 
L4

>  <uniprot>  (9) 
Q13094

>  <paff>  (9) 
6.7032999999999996

>  <smiles>  (9) 
Cc1nn(C2(C#N)CC2)cc1Nc1nc(C2CC2)c(-c2cncc3c2ncn3C)nc1C(N)=O

$$$$
L4:Q13094:144515
     RDKit          3D

 56 59  0  0  0  0  0  0  0  0999 V2000
   23.4257   -1.4613  -10.1452 N   0  0  0  0  0  0  0  0  0  0  0  0
   22.4576   -2.0803  -11.0302 C   0  0  0  0  0  0  0  0  0  0  0  0
   22.8269   -3.5163  -10.9716 C   0  0  0  0  0  0  0  0  0  0  0  0
   23.9087   -3.7000  -10.1330 C   0  0  0  0  0  0  0  0  0  0  0  0
   24.4532   -4.9400   -9.8781 C   0  0  0  0  0  0  0  0  0  0  0  0
   23.8749   -6.0296  -10.5206 C   0  0  0  0  0  0  0  0  0  0  0  0
   22.8030   -5.8540  -11.3467 N   0  0  0  0  0  0  0  0  0  0  0  0
   22.2838   -4.6180  -11.5774 C   0  0  0  0  0  0  0  0  0  0  0  0
   24.3036   -2.3907   -9.6008 C   0  0  0  0  0  0  0  0  0  0  0  0
   25.2372   -2.2525   -8.8332 O   0  0  0  0  0  0  0  0  0  0  0  0
   24.5594    1.9542  -10.0528 C   0  0  0  0  0  0  0  0  0  0  0  0
   23.4686    2.6552   -9.5521 C   0  0  0  0  0  0  0  0  0  0  0  0
   22.3089    1.9565   -9.2532 C   0  0  0  0  0  0  0  0  0  0  0  0
   22.2731    0.5795   -9.4526 C   0  0  0  0  0  0  0  0  0  0  0  0
   23.4018   -0.0682   -9.9423 C   0  0  0  0  0  0  0  0  0  0  0  0
   24.5393    0.6108  -10.2464 N   0  0  0  0  0  0  0  0  0  0  0  0
   26.7924    3.0807   -9.5173 N   0  0  0  0  0  0  0  0  0  0  0  0
   27.7583    3.6540  -10.2926 C   0  0  0  0  0  0  0  0  0  0  0  0
   27.3932    3.6245  -11.5494 N   0  0  0  0  0  0  0  0  0  0  0  0
   26.1734    3.0013  -11.6062 N   0  0  0  0  0  0  0  0  0  0  0  0
   25.8004    2.6637  -10.3782 C   0  0  0  0  0  0  0  0  0  0  0  0
   26.9016    2.8978   -8.0879 C   0  0  0  0  0  0  0  0  0  0  0  0
   25.2995    4.6355   -7.1347 C   0  0  0  0  0  0  0  0  0  0  0  0
   26.7470    4.1899   -7.2848 C   0  0  0  0  0  0  0  0  0  0  0  0
   24.3397   -7.3348  -10.2945 N   0  0  0  0  0  0  0  0  0  0  0  0
   25.7845   -7.4928  -10.1540 C   0  0  0  0  0  0  0  0  0  0  0  0
   23.6836   -8.3519  -11.1147 C   0  0  0  0  0  0  0  0  0  0  0  0
   21.0646   -4.5214  -12.4678 C   0  0  0  0  0  0  0  0  0  0  0  0
   21.3292   -3.9424  -13.7949 N   0  0  0  0  0  0  0  0  0  0  0  0
   21.6415   -4.9830  -14.7716 C   0  0  0  0  0  0  0  0  0  0  0  0
   20.5095   -3.4337  -14.1184 H   0  0  0  0  0  0  0  0  0  0  0  0
   22.5478   -1.6998  -12.0262 H   0  0  0  0  0  0  0  0  0  0  0  0
   21.4435   -1.8925  -10.7453 H   0  0  0  0  0  0  0  0  0  0  0  0
   25.2549   -5.0551   -9.2385 H   0  0  0  0  0  0  0  0  0  0  0  0
   23.5208    3.6754   -9.4057 H   0  0  0  0  0  0  0  0  0  0  0  0
   21.4812    2.4521   -8.8868 H   0  0  0  0  0  0  0  0  0  0  0  0
   21.4170    0.0443   -9.2390 H   0  0  0  0  0  0  0  0  0  0  0  0
   28.6435    4.0511   -9.9409 H   0  0  0  0  0  0  0  0  0  0  0  0
   26.1396    2.2142   -7.7764 H   0  0  0  0  0  0  0  0  0  0  0  0
   27.8875    2.5288   -7.8962 H   0  0  0  0  0  0  0  0  0  0  0  0
   25.2622    5.5408   -6.5655 H   0  0  0  0  0  0  0  0  0  0  0  0
   24.7423    3.8739   -6.6303 H   0  0  0  0  0  0  0  0  0  0  0  0
   24.8763    4.8051   -8.1027 H   0  0  0  0  0  0  0  0  0  0  0  0
   27.1575    4.0345   -6.3090 H   0  0  0  0  0  0  0  0  0  0  0  0
   27.2618    4.9598   -7.8207 H   0  0  0  0  0  0  0  0  0  0  0  0
   26.1713   -6.7061   -9.5405 H   0  0  0  0  0  0  0  0  0  0  0  0
   26.2435   -7.4506  -11.1196 H   0  0  0  0  0  0  0  0  0  0  0  0
   25.9974   -8.4375   -9.6989 H   0  0  0  0  0  0  0  0  0  0  0  0
   22.6333   -8.1522  -11.1579 H   0  0  0  0  0  0  0  0  0  0  0  0
   23.8456   -9.3174  -10.6829 H   0  0  0  0  0  0  0  0  0  0  0  0
   24.0917   -8.3304  -12.1036 H   0  0  0  0  0  0  0  0  0  0  0  0
   20.3369   -3.9112  -11.9748 H   0  0  0  0  0  0  0  0  0  0  0  0
   20.7246   -5.5225  -12.6321 H   0  0  0  0  0  0  0  0  0  0  0  0
   22.5025   -5.5295  -14.4476 H   0  0  0  0  0  0  0  0  0  0  0  0
   21.8416   -4.5324  -15.7212 H   0  0  0  0  0  0  0  0  0  0  0  0
   20.8091   -5.6493  -14.8613 H   0  0  0  0  0  0  0  0  0  0  0  0
  1  2  1  0
  2  3  1  0
  2 32  1  0
  2 33  1  0
  3  4  2  0
  4  5  1  0
  4  9  1  0
  5  6  2  0
  5 34  1  0
  6  7  1  0
  6 25  1  0
  7  8  2  0
  8 28  1  0
  8  3  1  0
  9 10  2  0
  9  1  1  0
 11 12  2  0
 12 13  1  0
 12 35  1  0
 13 14  2  0
 13 36  1  0
 14 15  1  0
 14 37  1  0
 15 16  2  0
 15  1  1  0
 16 11  1  0
 17 18  1  0
 18 19  2  0
 18 38  1  0
 19 20  1  0
 20 21  2  0
 21 11  1  0
 21 17  1  0
 22 17  1  0
 22 39  1  0
 22 40  1  0
 23 24  1  0
 23 41  1  0
 23 42  1  0
 23 43  1  0
 24 22  1  0
 24 44  1  0
 24 45  1  0
 25 26  1  0
 25 27  1  0
 26 46  1  0
 26 47  1  0
 26 48  1  0
 27 49  1  0
 27 50  1  0
 27 51  1  0
 28 29  1  0
 28 52  1  0
 28 53  1  0
 29 30  1  0
 29 31  1  0
 30 54  1  0
 30 55  1  0
 30 56  1  0
M  END
>  <minimizedAffinity>  (10) 
-6.14150

>  <mol_id>  (10) 
144515

>  <source_index>  (10) 
9

>  <layer>  (10) 
L4

>  <uniprot>  (10) 
Q13094

>  <paff>  (10) 
6.9172000000000002

>  <smiles>  (10) 
CCCn1cnnc1-c1cccc(n1)N1Cc2c(cc(nc2CNC)N(C)C)C1=O

$$$$
