L3:Q96LB1:11497
     RDKit          3D

 52 56  0  0  0  0  0  0  0  0999 V2000
   99.8702   63.5995   87.2303 C   0  0  0  0  0  0  0  0  0  0  0  0
   99.7227   62.3823   87.2694 O   0  0  0  0  0  0  0  0  0  0  0  0
  100.3612   64.4135   88.2284 N   0  0  0  0  0  0  0  0  0  0  0  0
  100.3496   65.4132   88.0758 H   0  0  0  0  0  0  0  0  0  0  0  0
  100.7870   63.9441   89.4346 C   0  0  0  0  0  0  0  0  0  0  0  0
  100.1032   63.7256   90.5241 N   0  0  0  0  0  0  0  0  0  0  0  0
  100.9420   63.2458   91.5135 C   0  0  0  0  0  0  0  0  0  0  0  0
  100.5479   62.9032   92.8260 C   0  0  0  0  0  0  0  0  0  0  0  0
  101.5294   62.4381   93.6805 C   0  0  0  0  0  0  0  0  0  0  0  0
  102.8401   62.3069   93.2902 C   0  0  0  0  0  0  0  0  0  0  0  0
  103.2763   62.6283   92.0183 C   0  0  0  0  0  0  0  0  0  0  0  0
  102.2880   63.1037   91.1359 C   0  0  0  0  0  0  0  0  0  0  0  0
  102.4539   63.5972   89.4904 S   0  0  0  0  0  0  0  0  0  0  0  0
  103.6348   61.8322   94.2889 O   0  0  0  0  0  0  0  0  0  0  0  0
  102.6655   61.6864   95.3364 C   0  0  0  0  0  0  0  0  0  0  0  0
  103.0563   62.4407   96.3925 F   0  0  0  0  0  0  0  0  0  0  0  0
  102.6557   60.3915   95.7364 F   0  0  0  0  0  0  0  0  0  0  0  0
  101.3307   62.0633   94.9740 O   0  0  0  0  0  0  0  0  0  0  0  0
  100.4910   65.5990   85.9241 C   0  0  0  0  0  0  0  0  0  0  0  0
   99.5381   64.3958   85.9439 C   0  0  2  0  0  0  0  0  0  0  0  0
   98.0843   64.7649   85.9292 N   0  0  0  0  0  0  0  0  0  0  0  0
   97.3975   64.0799   84.7951 C   0  0  0  0  0  0  0  0  0  0  0  0
   96.1812   64.8314   84.2461 C   0  0  2  0  0  0  0  0  0  0  0  0
   95.6123   64.1051   83.2468 F   0  0  0  0  0  0  0  0  0  0  0  0
   96.5789   66.1952   83.6910 C   0  0  0  0  0  0  0  0  0  0  0  0
   97.7414   66.8257   84.4823 C   0  0  2  0  0  0  0  0  0  0  0  0
   97.8388   66.2244   85.9030 C   0  0  0  0  0  0  0  0  0  0  0  0
   97.6858   68.3435   84.4868 C   0  0  0  0  0  0  0  0  0  0  0  0
   97.7501   69.0728   83.2277 C   0  0  0  0  0  0  0  0  0  0  0  0
   97.6911   70.4123   83.1947 C   0  0  0  0  0  0  0  0  0  0  0  0
   97.5583   71.1750   84.4598 C   0  0  0  0  0  0  0  0  0  0  0  0
   97.4980   72.3980   84.4634 O   0  0  0  0  0  0  0  0  0  0  0  0
   97.5080   70.4190   85.6045 N   0  0  0  0  0  0  0  0  0  0  0  0
   97.5687   69.0490   85.6261 C   0  0  0  0  0  0  0  0  0  0  0  0
   97.4206   70.9404   86.4684 H   0  0  0  0  0  0  0  0  0  0  0  0
   99.5674   62.9964   93.1341 H   0  0  0  0  0  0  0  0  0  0  0  0
  104.2631   62.5262   91.7341 H   0  0  0  0  0  0  0  0  0  0  0  0
  101.5033   65.2525   85.9362 H   0  0  0  0  0  0  0  0  0  0  0  0
  100.3127   66.2094   86.7846 H   0  0  0  0  0  0  0  0  0  0  0  0
  100.3213   66.1738   85.0377 H   0  0  0  0  0  0  0  0  0  0  0  0
   99.6863   63.8255   85.0508 H   0  0  0  0  0  0  0  0  0  0  0  0
   97.0724   63.1179   85.1325 H   0  0  0  0  0  0  0  0  0  0  0  0
   98.1078   64.0235   83.9968 H   0  0  0  0  0  0  0  0  0  0  0  0
   95.4896   64.9732   85.0502 H   0  0  0  0  0  0  0  0  0  0  0  0
   95.7329   66.8484   83.7412 H   0  0  0  0  0  0  0  0  0  0  0  0
   96.9036   66.0582   82.6807 H   0  0  0  0  0  0  0  0  0  0  0  0
   98.6485   66.5750   83.9731 H   0  0  0  0  0  0  0  0  0  0  0  0
   96.9188   66.4190   86.4134 H   0  0  0  0  0  0  0  0  0  0  0  0
   98.6808   66.6861   86.3750 H   0  0  0  0  0  0  0  0  0  0  0  0
   97.8429   68.5486   82.3436 H   0  0  0  0  0  0  0  0  0  0  0  0
   97.7379   70.9106   82.2922 H   0  0  0  0  0  0  0  0  0  0  0  0
   97.5239   68.5522   86.5295 H   0  0  0  0  0  0  0  0  0  0  0  0
  1  2  2  0
  1  3  1  0
  3  5  1  0
  3  4  1  0
  5  6  2  0
  6  7  1  0
  7  8  2  0
  8  9  1  0
  8 36  1  0
  9 10  2  0
 10 11  1  0
 10 14  1  0
 11 12  2  0
 11 37  1  0
 12 13  1  0
 12  7  1  0
 13  5  1  0
 14 15  1  0
 15 16  1  0
 15 17  1  0
 15 18  1  0
 18  9  1  0
 19 20  1  0
 19 38  1  0
 19 39  1  0
 19 40  1  0
 20  1  1  0
 20 21  1  0
 20 41  1  6
 21 22  1  0
 22 23  1  0
 22 42  1  0
 22 43  1  0
 23 24  1  0
 23 25  1  0
 23 44  1  1
 25 26  1  0
 25 45  1  0
 25 46  1  0
 26 28  1  0
 26 27  1  0
 26 47  1  6
 27 21  1  0
 27 48  1  0
 27 49  1  0
 28 29  1  0
 29 30  2  0
 29 50  1  0
 30 31  1  0
 30 51  1  0
 31 32  2  0
 31 33  1  0
 33 34  1  0
 33 35  1  0
 34 28  2  0
 34 52  1  0
M  END
>  <minimizedAffinity>  (1) 
-7.54687

>  <mol_id>  (1) 
11497

>  <source_index>  (1) 
0

>  <layer>  (1) 
L3

>  <uniprot>  (1) 
Q96LB1

>  <paff>  (1) 
7.0457999999999998

>  <smiles>  (1) 
FC1(OC=2C(=CC3=C(N=C(S3)NC([C@H](C)N3C[C@@H](C[C@H](C3)C3=CNC(C=C3)=O)F)=O)C2)O1)F

$$$$
L3:Q96LB1:38418
     RDKit          3D

 54 58  0  0  0  0  0  0  0  0999 V2000
  104.6747   67.8998   83.6080 N   0  0  0  0  0  0  0  0  0  0  0  0
  103.5119   68.4153   84.3934 C   0  0  0  0  0  0  0  0  0  0  0  0
  102.6026   67.3070   83.7776 C   0  0  0  0  0  0  0  0  0  0  0  0
  103.7092   67.2291   82.6857 C   0  0  0  0  0  0  0  0  0  0  0  0
  101.1555   67.7616   83.3607 C   0  0  0  0  0  0  0  0  0  0  0  0
  100.6694   67.8103   82.0556 C   0  0  0  0  0  0  0  0  0  0  0  0
   99.3584   68.2153   81.8279 C   0  0  0  0  0  0  0  0  0  0  0  0
   98.5441   68.5671   82.9071 C   0  0  0  0  0  0  0  0  0  0  0  0
   97.2129   68.9830   82.7273 C   0  0  0  0  0  0  0  0  0  0  0  0
   96.4294   69.3260   83.8270 C   0  0  0  0  0  0  0  0  0  0  0  0
   96.9717   69.2548   85.1049 C   0  0  0  0  0  0  0  0  0  0  0  0
   98.2961   68.8406   85.2771 C   0  0  0  0  0  0  0  0  0  0  0  0
   99.0989   68.4932   84.1988 C   0  0  0  0  0  0  0  0  0  0  0  0
  100.3684   68.0986   84.4149 N   0  0  0  0  0  0  0  0  0  0  0  0
  107.1922   67.9813   83.8340 N   0  0  0  0  0  0  0  0  0  0  0  0
  105.9631   68.8258   83.0891 S   0  0  0  0  0  0  0  0  0  0  0  0
  105.9011   70.1311   83.6920 O   0  0  0  0  0  0  0  0  0  0  0  0
  106.1410   68.6229   81.6744 O   0  0  0  0  0  0  0  0  0  0  0  0
  107.3565   67.1235   83.3077 H   0  0  0  0  0  0  0  0  0  0  0  0
  108.0294   68.5637   83.8474 H   0  0  0  0  0  0  0  0  0  0  0  0
  102.5586   66.0497   84.6690 C   0  0  0  0  0  0  0  0  0  0  0  0
  101.4181   65.1829   84.3639 N   0  0  0  0  0  0  0  0  0  0  0  0
  101.0568   65.2566   83.4175 H   0  0  0  0  0  0  0  0  0  0  0  0
  100.4986   64.7238   85.3063 C   0  0  0  0  0  0  0  0  0  0  0  0
  100.9043   64.2557   86.5578 C   0  0  0  0  0  0  0  0  0  0  0  0
   99.9637   63.7796   87.4681 C   0  0  0  0  0  0  0  0  0  0  0  0
   98.6368   63.7479   87.1786 N   0  0  0  0  0  0  0  0  0  0  0  0
   98.2288   64.1603   85.9729 C   0  0  0  0  0  0  0  0  0  0  0  0
   96.8700   64.0899   85.6945 C   0  0  0  0  0  0  0  0  0  0  0  0
   96.3478   64.4789   84.4596 C   0  0  0  0  0  0  0  0  0  0  0  0
   97.2073   64.9448   83.4779 C   0  0  0  0  0  0  0  0  0  0  0  0
   96.5878   65.4176   81.9451 Cl  0  0  0  0  0  0  0  0  0  0  0  0
   98.5747   65.0294   83.7302 C   0  0  0  0  0  0  0  0  0  0  0  0
   99.1145   64.6498   84.9850 C   0  0  0  0  0  0  0  0  0  0  0  0
  100.4425   63.3162   88.8367 C   0  0  0  0  0  0  0  0  0  0  0  0
   99.7618   62.2480   89.3397 F   0  0  0  0  0  0  0  0  0  0  0  0
  100.3493   64.2981   89.7805 F   0  0  0  0  0  0  0  0  0  0  0  0
  101.7577   62.9438   88.8320 F   0  0  0  0  0  0  0  0  0  0  0  0
  103.2195   69.4122   84.1372 H   0  0  0  0  0  0  0  0  0  0  0  0
  103.5835   68.5284   85.4550 H   0  0  0  0  0  0  0  0  0  0  0  0
  103.4894   67.7901   81.8015 H   0  0  0  0  0  0  0  0  0  0  0  0
  103.9568   66.2911   82.2344 H   0  0  0  0  0  0  0  0  0  0  0  0
  101.2775   67.5479   81.2641 H   0  0  0  0  0  0  0  0  0  0  0  0
   98.9886   68.2558   80.8653 H   0  0  0  0  0  0  0  0  0  0  0  0
   96.8146   69.0344   81.7766 H   0  0  0  0  0  0  0  0  0  0  0  0
   95.4526   69.6310   83.6937 H   0  0  0  0  0  0  0  0  0  0  0  0
   96.3981   69.5071   85.9248 H   0  0  0  0  0  0  0  0  0  0  0  0
   98.6872   68.7918   86.2309 H   0  0  0  0  0  0  0  0  0  0  0  0
  102.4917   66.3569   85.6918 H   0  0  0  0  0  0  0  0  0  0  0  0
  103.4508   65.4891   84.4830 H   0  0  0  0  0  0  0  0  0  0  0  0
  101.9052   64.2625   86.8093 H   0  0  0  0  0  0  0  0  0  0  0  0
   96.2273   63.7397   86.4220 H   0  0  0  0  0  0  0  0  0  0  0  0
   95.3332   64.4201   84.2800 H   0  0  0  0  0  0  0  0  0  0  0  0
   99.2061   65.3746   82.9905 H   0  0  0  0  0  0  0  0  0  0  0  0
  1  2  1  0
  2  3  1  0
  2 39  1  0
  2 40  1  0
  3 21  1  0
  3  5  1  0
  3  4  1  0
  4  1  1  0
  4 41  1  0
  4 42  1  0
  5  6  2  0
  6  7  1  0
  6 43  1  0
  7  8  2  0
  7 44  1  0
  8  9  1  0
  9 10  2  0
  9 45  1  0
 10 11  1  0
 10 46  1  0
 11 12  2  0
 11 47  1  0
 12 13  1  0
 12 48  1  0
 13 14  2  0
 13  8  1  0
 14  5  1  0
 15 16  1  0
 15 19  1  0
 15 20  1  0
 16 17  2  0
 16 18  2  0
 16  1  1  0
 21 22  1  0
 21 49  1  0
 21 50  1  0
 22 24  1  0
 22 23  1  0
 24 25  2  0
 25 26  1  0
 25 51  1  0
 26 35  1  0
 26 27  2  0
 27 28  1  0
 28 29  2  0
 29 30  1  0
 29 52  1  0
 30 31  2  0
 30 53  1  0
 31 32  1  0
 31 33  1  0
 33 34  2  0
 33 54  1  0
 34 24  1  0
 34 28  1  0
 35 36  1  0
 35 37  1  0
 35 38  1  0
M  END
>  <minimizedAffinity>  (2) 
-7.87148

>  <mol_id>  (2) 
38418

>  <source_index>  (2) 
1

>  <layer>  (2) 
L3

>  <uniprot>  (2) 
Q96LB1

>  <paff>  (2) 
10

>  <smiles>  (2) 
NS(=O)(=O)N1CC(CNc2cc(C(F)(F)F)nc3ccc(Cl)cc23)(c2ccc3ccccc3n2)C1

$$$$
L3:Q96LB1:39087
     RDKit          3D

 52 56  0  0  0  0  0  0  0  0999 V2000
   97.1808   63.4179   83.8002 C   0  0  0  0  0  0  0  0  0  0  0  0
   98.0154   62.5707   83.4978 O   0  0  0  0  0  0  0  0  0  0  0  0
   97.0048   63.9751   85.0548 N   0  0  0  0  0  0  0  0  0  0  0  0
   96.2886   64.6616   85.2227 H   0  0  0  0  0  0  0  0  0  0  0  0
   97.7940   63.6497   86.1221 C   0  0  0  0  0  0  0  0  0  0  0  0
   97.6814   62.6674   86.9717 N   0  0  0  0  0  0  0  0  0  0  0  0
   98.7161   62.7178   87.8876 C   0  0  0  0  0  0  0  0  0  0  0  0
   98.9131   61.8102   88.9516 C   0  0  0  0  0  0  0  0  0  0  0  0
  100.0077   62.0207   89.7686 C   0  0  0  0  0  0  0  0  0  0  0  0
  100.8805   63.0631   89.5712 C   0  0  0  0  0  0  0  0  0  0  0  0
  100.7322   63.9776   88.5450 C   0  0  0  0  0  0  0  0  0  0  0  0
   99.6213   63.7770   87.7042 C   0  0  0  0  0  0  0  0  0  0  0  0
   99.1174   64.7024   86.3369 S   0  0  0  0  0  0  0  0  0  0  0  0
  101.8846   63.0815   90.4908 O   0  0  0  0  0  0  0  0  0  0  0  0
  101.5303   61.9339   91.2760 C   0  0  0  0  0  0  0  0  0  0  0  0
  101.3476   62.3310   92.5590 F   0  0  0  0  0  0  0  0  0  0  0  0
  102.5682   61.0627   91.2582 F   0  0  0  0  0  0  0  0  0  0  0  0
  100.3498   61.2495   90.8367 O   0  0  0  0  0  0  0  0  0  0  0  0
   95.3698   62.8254   82.2141 C   0  0  0  0  0  0  0  0  0  0  0  0
   96.1870   64.0055   82.7578 C   0  0  2  0  0  0  0  0  0  0  0  0
   96.9210   64.7438   81.6948 N   0  0  0  0  0  0  0  0  0  0  0  0
   96.1460   65.0093   80.4728 C   0  0  0  0  0  0  0  0  0  0  0  0
   95.1071   66.1198   80.6395 C   0  0  0  0  0  0  0  0  0  0  0  0
   95.7677   67.4037   81.1278 C   0  0  2  0  0  0  0  0  0  0  0  0
   96.5719   67.8603   80.1249 F   0  0  0  0  0  0  0  0  0  0  0  0
   96.6042   67.1487   82.3916 C   0  0  1  0  0  0  0  0  0  0  0  0
   97.5863   65.9847   82.1386 C   0  0  0  0  0  0  0  0  0  0  0  0
   97.3031   68.3981   82.9081 C   0  0  0  0  0  0  0  0  0  0  0  0
   96.6406   69.3341   83.7114 C   0  0  0  0  0  0  0  0  0  0  0  0
   97.3101   70.4724   84.1649 C   0  0  0  0  0  0  0  0  0  0  0  0
   98.6313   70.7090   83.8400 N   0  0  0  0  0  0  0  0  0  0  0  0
   99.2322   71.7435   84.2567 O   0  0  0  0  0  0  0  0  0  0  0  0
   99.2856   69.7844   83.0473 C   0  0  0  0  0  0  0  0  0  0  0  0
   98.6431   68.6365   82.5793 C   0  0  0  0  0  0  0  0  0  0  0  0
   98.2663   61.0223   89.1124 H   0  0  0  0  0  0  0  0  0  0  0  0
  101.3935   64.7573   88.4045 H   0  0  0  0  0  0  0  0  0  0  0  0
   94.8674   62.3369   83.0227 H   0  0  0  0  0  0  0  0  0  0  0  0
   96.0244   62.1314   81.7296 H   0  0  0  0  0  0  0  0  0  0  0  0
   94.6479   63.1853   81.5110 H   0  0  0  0  0  0  0  0  0  0  0  0
   95.5256   64.7227   83.1972 H   0  0  0  0  0  0  0  0  0  0  0  0
   95.6388   64.1102   80.1912 H   0  0  0  0  0  0  0  0  0  0  0  0
   96.8385   65.3352   79.7250 H   0  0  0  0  0  0  0  0  0  0  0  0
   94.3720   65.8095   81.3524 H   0  0  0  0  0  0  0  0  0  0  0  0
   94.6475   66.3073   79.6916 H   0  0  0  0  0  0  0  0  0  0  0  0
   95.0178   68.1249   81.3775 H   0  0  0  0  0  0  0  0  0  0  0  0
   95.9350   66.8659   83.1771 H   0  0  0  0  0  0  0  0  0  0  0  0
   98.1127   65.7811   83.0476 H   0  0  0  0  0  0  0  0  0  0  0  0
   98.2433   66.2905   81.3513 H   0  0  0  0  0  0  0  0  0  0  0  0
   95.6530   69.1820   83.9695 H   0  0  0  0  0  0  0  0  0  0  0  0
   96.8064   71.1520   84.7560 H   0  0  0  0  0  0  0  0  0  0  0  0
  100.2731   69.9466   82.7953 H   0  0  0  0  0  0  0  0  0  0  0  0
   99.1567   67.9627   81.9901 H   0  0  0  0  0  0  0  0  0  0  0  0
  1  2  2  0
  1  3  1  0
  3  5  1  0
  3  4  1  0
  5  6  2  0
  6  7  1  0
  7  8  2  0
  8  9  1  0
  8 35  1  0
  9 10  2  0
 10 11  1  0
 10 14  1  0
 11 12  2  0
 11 36  1  0
 12 13  1  0
 12  7  1  0
 13  5  1  0
 14 15  1  0
 15 16  1  0
 15 17  1  0
 15 18  1  0
 18  9  1  0
 19 20  1  0
 19 37  1  0
 19 38  1  0
 19 39  1  0
 20  1  1  0
 20 21  1  0
 20 40  1  1
 21 22  1  0
 22 23  1  0
 22 41  1  0
 22 42  1  0
 23 24  1  0
 23 43  1  0
 23 44  1  0
 24 25  1  0
 24 26  1  0
 24 45  1  1
 26 28  1  0
 26 27  1  0
 26 46  1  1
 27 21  1  0
 27 47  1  0
 27 48  1  0
 28 29  2  0
 29 30  1  0
 29 49  1  0
 30 31  2  0
 30 50  1  0
 31 32  1  0
 31 33  1  0
 33 34  2  0
 33 51  1  0
 34 28  1  0
 34 52  1  0
M  CHG  2  31   1  32  -1
M  END
>  <minimizedAffinity>  (3) 
-7.39896

>  <mol_id>  (3) 
39087

>  <source_index>  (3) 
2

>  <layer>  (3) 
L3

>  <uniprot>  (3) 
Q96LB1

>  <paff>  (3) 
6.6516999999999999

>  <smiles>  (3) 
FC1(OC=2C(=CC3=C(N=C(S3)NC([C@H](C)N3C[C@H]([C@H](CC3)F)C3=CC=[N+](C=C3)[O-])=O)C2)O1)F

$$$$
L3:Q96LB1:43063
     RDKit          3D

 42 45  0  0  0  0  0  0  0  0999 V2000
   97.9577   65.7863   84.1603 C   0  0  0  0  0  0  0  0  0  0  0  0
   98.7390   65.1092   83.5011 O   0  0  0  0  0  0  0  0  0  0  0  0
   97.6410   65.6202   85.4924 N   0  0  0  0  0  0  0  0  0  0  0  0
   97.0261   66.3037   85.9153 H   0  0  0  0  0  0  0  0  0  0  0  0
   98.1704   64.6413   86.2775 C   0  0  0  0  0  0  0  0  0  0  0  0
   99.3610   64.5569   86.8044 N   0  0  0  0  0  0  0  0  0  0  0  0
   99.4671   63.3845   87.5323 C   0  0  0  0  0  0  0  0  0  0  0  0
  100.6126   62.9613   88.2416 C   0  0  0  0  0  0  0  0  0  0  0  0
  100.5311   61.7562   88.9126 C   0  0  0  0  0  0  0  0  0  0  0  0
   99.3950   60.9865   88.9038 C   0  0  0  0  0  0  0  0  0  0  0  0
   98.2486   61.3551   88.2260 C   0  0  0  0  0  0  0  0  0  0  0  0
   98.3144   62.5804   87.5369 C   0  0  0  0  0  0  0  0  0  0  0  0
   97.0968   63.3565   86.5921 S   0  0  0  0  0  0  0  0  0  0  0  0
   99.5383   59.8431   89.6294 O   0  0  0  0  0  0  0  0  0  0  0  0
  100.8962   59.9827   90.0963 C   0  0  0  0  0  0  0  0  0  0  0  0
  101.5323   61.1950   89.6444 O   0  0  0  0  0  0  0  0  0  0  0  0
   97.2215   66.9150   82.0011 C   0  0  0  0  0  0  0  0  0  0  0  0
   97.1322   66.9410   83.5292 C   0  0  2  0  0  0  0  0  0  0  0  0
   97.5037   68.2378   84.1710 N   0  0  0  0  0  0  0  0  0  0  0  0
   98.9009   68.6522   83.9477 C   0  0  0  0  0  0  0  0  0  0  0  0
   99.0327   69.8533   83.0240 C   0  0  0  0  0  0  0  0  0  0  0  0
   98.2551   71.0292   83.5850 C   0  0  0  0  0  0  0  0  0  0  0  0
   99.0659   71.7726   84.3836 F   0  0  0  0  0  0  0  0  0  0  0  0
   97.8989   71.8415   82.5539 F   0  0  0  0  0  0  0  0  0  0  0  0
   97.0175   70.6442   84.3745 C   0  0  0  0  0  0  0  0  0  0  0  0
   96.5086   69.2887   83.9082 C   0  0  0  0  0  0  0  0  0  0  0  0
  101.4746   63.5285   88.2581 H   0  0  0  0  0  0  0  0  0  0  0  0
   97.3988   60.7695   88.2252 H   0  0  0  0  0  0  0  0  0  0  0  0
  101.4647   59.1483   89.7420 H   0  0  0  0  0  0  0  0  0  0  0  0
  100.8616   60.0221   91.1650 H   0  0  0  0  0  0  0  0  0  0  0  0
   96.9366   65.9476   81.6436 H   0  0  0  0  0  0  0  0  0  0  0  0
   98.2262   67.1253   81.6989 H   0  0  0  0  0  0  0  0  0  0  0  0
   96.5641   67.6540   81.5928 H   0  0  0  0  0  0  0  0  0  0  0  0
   96.0900   66.8070   83.7309 H   0  0  0  0  0  0  0  0  0  0  0  0
   99.4335   67.8312   83.5151 H   0  0  0  0  0  0  0  0  0  0  0  0
   99.3021   68.9379   84.8976 H   0  0  0  0  0  0  0  0  0  0  0  0
   98.6463   69.6015   82.0585 H   0  0  0  0  0  0  0  0  0  0  0  0
  100.0653   70.1221   82.9436 H   0  0  0  0  0  0  0  0  0  0  0  0
   96.2562   71.3806   84.2227 H   0  0  0  0  0  0  0  0  0  0  0  0
   97.2649   70.5897   85.4141 H   0  0  0  0  0  0  0  0  0  0  0  0
   96.3120   69.3305   82.8573 H   0  0  0  0  0  0  0  0  0  0  0  0
   95.6135   69.0552   84.4459 H   0  0  0  0  0  0  0  0  0  0  0  0
  1  2  2  0
  1  3  1  0
  3  5  1  0
  3  4  1  0
  5  6  2  0
  6  7  1  0
  7  8  2  0
  8  9  1  0
  8 27  1  0
  9 10  2  0
 10 11  1  0
 10 14  1  0
 11 12  2  0
 11 28  1  0
 12 13  1  0
 12  7  1  0
 13  5  1  0
 14 15  1  0
 15 16  1  0
 15 29  1  0
 15 30  1  0
 16  9  1  0
 17 18  1  0
 17 31  1  0
 17 32  1  0
 17 33  1  0
 18  1  1  0
 18 19  1  0
 18 34  1  6
 19 20  1  0
 20 21  1  0
 20 35  1  0
 20 36  1  0
 21 22  1  0
 21 37  1  0
 21 38  1  0
 22 23  1  0
 22 24  1  0
 22 25  1  0
 25 26  1  0
 25 39  1  0
 25 40  1  0
 26 19  1  0
 26 41  1  0
 26 42  1  0
M  END
>  <minimizedAffinity>  (4) 
-6.21606

>  <mol_id>  (4) 
43063

>  <source_index>  (4) 
3

>  <layer>  (4) 
L3

>  <uniprot>  (4) 
Q96LB1

>  <paff>  (4) 
7.7695999999999996

>  <smiles>  (4) 
O1COC2=CC3=C(N=C(S3)NC([C@H](C)N3CCC(CC3)(F)F)=O)C=C21

$$$$
L3:Q96LB1:78428
     RDKit          3D

 27 29  0  0  0  0  0  0  0  0999 V2000
   97.8107   66.0324   85.6428 O   0  0  0  0  0  0  0  0  0  0  0  0
   97.7562   65.9784   84.4151 C   0  0  0  0  0  0  0  0  0  0  0  0
   96.8413   65.0078   83.7878 C   0  0  0  0  0  0  0  0  0  0  0  0
   96.0155   64.1854   84.5620 C   0  0  0  0  0  0  0  0  0  0  0  0
   95.1634   63.2743   83.9362 C   0  0  0  0  0  0  0  0  0  0  0  0
   95.1385   63.1867   82.5433 C   0  0  0  0  0  0  0  0  0  0  0  0
   95.9641   64.0091   81.7731 C   0  0  0  0  0  0  0  0  0  0  0  0
   96.8141   64.9187   82.4032 C   0  0  0  0  0  0  0  0  0  0  0  0
   97.6405   65.7410   81.6421 N   0  0  0  0  0  0  0  0  0  0  0  0
   98.4946   66.6714   82.1716 C   0  0  0  0  0  0  0  0  0  0  0  0
   99.3984   67.5543   81.0650 S   0  0  0  0  0  0  0  0  0  0  0  0
   98.5320   66.7726   83.5599 N   0  0  0  0  0  0  0  0  0  0  0  0
   97.6149   65.6787   80.6306 H   0  0  0  0  0  0  0  0  0  0  0  0
   99.3582   67.7794   84.2358 C   0  0  0  0  0  0  0  0  0  0  0  0
   98.6828   69.1286   84.1943 C   0  0  0  0  0  0  0  0  0  0  0  0
   97.4224   69.3732   84.5031 N   0  0  0  0  0  0  0  0  0  0  0  0
   97.1523   70.7169   84.3448 C   0  0  0  0  0  0  0  0  0  0  0  0
   98.2065   71.4889   83.9108 C   0  0  0  0  0  0  0  0  0  0  0  0
   99.5913   70.5059   83.6900 S   0  0  0  0  0  0  0  0  0  0  0  0
   96.0364   64.2523   85.5916 H   0  0  0  0  0  0  0  0  0  0  0  0
   94.5522   62.6658   84.5029 H   0  0  0  0  0  0  0  0  0  0  0  0
   94.5084   62.5125   82.0813 H   0  0  0  0  0  0  0  0  0  0  0  0
   95.9455   63.9443   80.7433 H   0  0  0  0  0  0  0  0  0  0  0  0
  100.3066   67.8447   83.7447 H   0  0  0  0  0  0  0  0  0  0  0  0
   99.4921   67.4896   85.2571 H   0  0  0  0  0  0  0  0  0  0  0  0
   96.2211   71.1171   84.5390 H   0  0  0  0  0  0  0  0  0  0  0  0
   98.1680   72.5066   83.7437 H   0  0  0  0  0  0  0  0  0  0  0  0
  1  2  2  0
  2  3  1  0
  3  4  2  0
  4  5  1  0
  4 20  1  0
  5  6  2  0
  5 21  1  0
  6  7  1  0
  6 22  1  0
  7  8  2  0
  7 23  1  0
  8  9  1  0
  8  3  1  0
  9 10  1  0
  9 13  1  0
 10 11  2  0
 10 12  1  0
 12 14  1  0
 12  2  1  0
 14 15  1  0
 14 24  1  0
 14 25  1  0
 15 16  2  0
 16 17  1  0
 17 18  2  0
 17 26  1  0
 18 19  1  0
 18 27  1  0
 19 15  1  0
M  END
>  <minimizedAffinity>  (5) 
-5.47115

>  <mol_id>  (5) 
78428

>  <source_index>  (5) 
4

>  <layer>  (5) 
L3

>  <uniprot>  (5) 
Q96LB1

>  <paff>  (5) 
7.4949000000000003

>  <smiles>  (5) 
O=c1c2ccccc2[nH]c(=S)n1Cc1nccs1

$$$$
L3:Q96LB1:82343
     RDKit          3D

 52 56  0  0  0  0  0  0  0  0999 V2000
   96.7425   63.3854   84.0223 C   0  0  0  0  0  0  0  0  0  0  0  0
   97.7261   62.9638   83.4208 O   0  0  0  0  0  0  0  0  0  0  0  0
   96.6666   63.6501   85.3754 N   0  0  0  0  0  0  0  0  0  0  0  0
   95.8002   63.9879   85.7698 H   0  0  0  0  0  0  0  0  0  0  0  0
   97.6618   63.5214   86.3083 C   0  0  0  0  0  0  0  0  0  0  0  0
   97.5993   62.5771   87.2151 N   0  0  0  0  0  0  0  0  0  0  0  0
   98.7072   62.6467   88.0442 C   0  0  0  0  0  0  0  0  0  0  0  0
   98.9736   61.7856   89.1318 C   0  0  0  0  0  0  0  0  0  0  0  0
  100.1351   62.0106   89.8466 C   0  0  0  0  0  0  0  0  0  0  0  0
  101.0078   63.0234   89.5307 C   0  0  0  0  0  0  0  0  0  0  0  0
  100.7915   63.8918   88.4775 C   0  0  0  0  0  0  0  0  0  0  0  0
   99.6125   63.6752   87.7395 C   0  0  0  0  0  0  0  0  0  0  0  0
   99.0156   64.5437   86.3781 S   0  0  0  0  0  0  0  0  0  0  0  0
  102.0835   63.0617   90.3644 O   0  0  0  0  0  0  0  0  0  0  0  0
  101.7750   61.9587   91.2280 C   0  0  0  0  0  0  0  0  0  0  0  0
  101.7074   62.4143   92.5024 F   0  0  0  0  0  0  0  0  0  0  0  0
  102.7904   61.0635   91.1634 F   0  0  0  0  0  0  0  0  0  0  0  0
  100.5490   61.2816   90.9191 O   0  0  0  0  0  0  0  0  0  0  0  0
   94.9715   62.5006   82.4478 C   0  0  0  0  0  0  0  0  0  0  0  0
   95.4119   63.7019   83.2901 C   0  0  2  0  0  0  0  0  0  0  0  0
   95.4892   64.9461   82.4844 N   0  0  0  0  0  0  0  0  0  0  0  0
   95.8335   64.7414   81.0687 C   0  0  0  0  0  0  0  0  0  0  0  0
   96.4619   65.9685   80.3930 C   0  0  0  0  0  0  0  0  0  0  0  0
   95.8399   67.2688   80.8885 C   0  0  0  0  0  0  0  0  0  0  0  0
   95.9021   67.3824   82.4267 C   0  0  1  0  0  0  0  0  0  0  0  0
   96.2462   66.0329   83.1039 C   0  0  0  0  0  0  0  0  0  0  0  0
   96.8448   68.4810   82.8991 C   0  0  0  0  0  0  0  0  0  0  0  0
   98.1549   68.5852   82.4168 C   0  0  0  0  0  0  0  0  0  0  0  0
   98.9923   69.6016   82.8795 C   0  0  0  0  0  0  0  0  0  0  0  0
   98.5618   70.5229   83.8154 N   0  0  0  0  0  0  0  0  0  0  0  0
   99.3341   71.4390   84.2290 O   0  0  0  0  0  0  0  0  0  0  0  0
   97.2685   70.4181   84.2909 C   0  0  0  0  0  0  0  0  0  0  0  0
   96.4076   69.4126   83.8479 C   0  0  0  0  0  0  0  0  0  0  0  0
   98.3280   61.0204   89.3823 H   0  0  0  0  0  0  0  0  0  0  0  0
  101.4520   64.6504   88.2469 H   0  0  0  0  0  0  0  0  0  0  0  0
   94.9292   61.6281   83.0657 H   0  0  0  0  0  0  0  0  0  0  0  0
   95.6740   62.3433   81.6561 H   0  0  0  0  0  0  0  0  0  0  0  0
   94.0037   62.6913   82.0332 H   0  0  0  0  0  0  0  0  0  0  0  0
   94.6651   63.8819   84.0350 H   0  0  0  0  0  0  0  0  0  0  0  0
   94.9394   64.4869   80.5388 H   0  0  0  0  0  0  0  0  0  0  0  0
   96.5671   63.9630   81.0388 H   0  0  0  0  0  0  0  0  0  0  0  0
   96.3145   65.8950   79.3358 H   0  0  0  0  0  0  0  0  0  0  0  0
   97.5038   65.9847   80.6361 H   0  0  0  0  0  0  0  0  0  0  0  0
   94.8161   67.3031   80.5795 H   0  0  0  0  0  0  0  0  0  0  0  0
   96.3942   68.0835   80.4715 H   0  0  0  0  0  0  0  0  0  0  0  0
   94.9148   67.6580   82.7336 H   0  0  0  0  0  0  0  0  0  0  0  0
   95.9995   66.0868   84.1437 H   0  0  0  0  0  0  0  0  0  0  0  0
   97.2920   65.8405   82.9845 H   0  0  0  0  0  0  0  0  0  0  0  0
   98.5020   67.9096   81.7182 H   0  0  0  0  0  0  0  0  0  0  0  0
   99.9553   69.6666   82.5142 H   0  0  0  0  0  0  0  0  0  0  0  0
   96.9315   71.0988   84.9895 H   0  0  0  0  0  0  0  0  0  0  0  0
   95.4469   69.3560   84.2206 H   0  0  0  0  0  0  0  0  0  0  0  0
  1  2  2  0
  1  3  1  0
  3  5  1  0
  3  4  1  0
  5  6  2  0
  6  7  1  0
  7  8  2  0
  8  9  1  0
  8 34  1  0
  9 10  2  0
 10 11  1  0
 10 14  1  0
 11 12  2  0
 11 35  1  0
 12 13  1  0
 12  7  1  0
 13  5  1  0
 14 15  1  0
 15 16  1  0
 15 17  1  0
 15 18  1  0
 18  9  1  0
 19 20  1  0
 19 36  1  0
 19 37  1  0
 19 38  1  0
 20  1  1  0
 20 21  1  0
 20 39  1  1
 21 22  1  0
 22 23  1  0
 22 40  1  0
 22 41  1  0
 23 24  1  0
 23 42  1  0
 23 43  1  0
 24 25  1  0
 24 44  1  0
 24 45  1  0
 25 27  1  0
 25 26  1  0
 25 46  1  1
 26 21  1  0
 26 47  1  0
 26 48  1  0
 27 28  2  0
 28 29  1  0
 28 49  1  0
 29 30  2  0
 29 50  1  0
 30 31  1  0
 30 32  1  0
 32 33  2  0
 32 51  1  0
 33 27  1  0
 33 52  1  0
M  CHG  2  30   1  31  -1
M  END
>  <minimizedAffinity>  (6) 
-7.73940

>  <mol_id>  (6) 
82343

>  <source_index>  (6) 
5

>  <layer>  (6) 
L3

>  <uniprot>  (6) 
Q96LB1

>  <paff>  (6) 
6.6536

>  <smiles>  (6) 
FC1(OC=2C(=CC3=C(N=C(S3)NC([C@H](C)N3C[C@H](CCC3)C3=CC=[N+](C=C3)[O-])=O)C2)O1)F

$$$$
L3:Q96LB1:115856
     RDKit          3D

 41 44  0  0  0  0  0  0  0  0999 V2000
   99.3177   66.0626   83.5736 C   0  0  0  0  0  0  0  0  0  0  0  0
  100.2518   65.3660   83.1801 O   0  0  0  0  0  0  0  0  0  0  0  0
   98.6449   65.9138   84.7653 N   0  0  0  0  0  0  0  0  0  0  0  0
   97.8562   66.5059   84.9776 H   0  0  0  0  0  0  0  0  0  0  0  0
   98.8919   64.9976   85.7547 C   0  0  0  0  0  0  0  0  0  0  0  0
   99.8194   65.2295   86.6524 N   0  0  0  0  0  0  0  0  0  0  0  0
   99.8847   64.1697   87.5412 C   0  0  0  0  0  0  0  0  0  0  0  0
  100.7545   64.0603   88.6380 C   0  0  0  0  0  0  0  0  0  0  0  0
  100.6829   62.9256   89.4238 C   0  0  0  0  0  0  0  0  0  0  0  0
  101.4219   62.6111   90.5254 O   0  0  0  0  0  0  0  0  0  0  0  0
  100.9354   61.3905   90.8938 C   0  0  0  0  0  0  0  0  0  0  0  0
   99.9711   60.9107   90.1369 N   0  0  0  0  0  0  0  0  0  0  0  0
   99.7994   61.8866   89.1903 C   0  0  0  0  0  0  0  0  0  0  0  0
   98.9327   61.9874   88.1035 C   0  0  0  0  0  0  0  0  0  0  0  0
   98.9841   63.1275   87.2902 C   0  0  0  0  0  0  0  0  0  0  0  0
   98.0544   63.5267   85.9004 S   0  0  0  0  0  0  0  0  0  0  0  0
   99.6494   67.4927   81.4467 C   0  0  0  0  0  0  0  0  0  0  0  0
   98.7703   67.1943   82.6650 C   0  0  2  0  0  0  0  0  0  0  0  0
   98.4046   68.4286   83.4148 N   0  0  0  0  0  0  0  0  0  0  0  0
   97.0894   68.9951   83.0944 C   0  0  0  0  0  0  0  0  0  0  0  0
   96.7427   70.1132   84.0706 C   0  0  0  0  0  0  0  0  0  0  0  0
   97.8251   71.1694   84.0571 C   0  0  0  0  0  0  0  0  0  0  0  0
   97.7975   71.8210   82.8641 F   0  0  0  0  0  0  0  0  0  0  0  0
   97.5602   72.1037   85.0050 F   0  0  0  0  0  0  0  0  0  0  0  0
   99.2042   70.5926   84.2821 C   0  0  0  0  0  0  0  0  0  0  0  0
   99.4613   69.4526   83.3050 C   0  0  0  0  0  0  0  0  0  0  0  0
  101.4312   64.8094   88.8523 H   0  0  0  0  0  0  0  0  0  0  0  0
  101.2995   60.8774   91.7118 H   0  0  0  0  0  0  0  0  0  0  0  0
   98.2607   61.2311   87.9000 H   0  0  0  0  0  0  0  0  0  0  0  0
   99.8841   66.5780   80.9436 H   0  0  0  0  0  0  0  0  0  0  0  0
  100.5541   67.9659   81.7670 H   0  0  0  0  0  0  0  0  0  0  0  0
   99.1242   68.1427   80.7785 H   0  0  0  0  0  0  0  0  0  0  0  0
   97.8567   66.8005   82.2712 H   0  0  0  0  0  0  0  0  0  0  0  0
   96.3483   68.2262   83.1608 H   0  0  0  0  0  0  0  0  0  0  0  0
   97.1151   69.3949   82.1023 H   0  0  0  0  0  0  0  0  0  0  0  0
   96.6563   69.7076   85.0570 H   0  0  0  0  0  0  0  0  0  0  0  0
   95.8151   70.5587   83.7775 H   0  0  0  0  0  0  0  0  0  0  0  0
   99.2738   70.2226   85.2837 H   0  0  0  0  0  0  0  0  0  0  0  0
   99.9340   71.3592   84.1253 H   0  0  0  0  0  0  0  0  0  0  0  0
  100.4083   69.0063   83.5262 H   0  0  0  0  0  0  0  0  0  0  0  0
   99.4612   69.8441   82.3092 H   0  0  0  0  0  0  0  0  0  0  0  0
  1  2  2  0
  1  3  1  0
  3  5  1  0
  3  4  1  0
  5  6  2  0
  6  7  1  0
  7  8  2  0
  8  9  1  0
  8 27  1  0
  9 10  1  0
 10 11  1  0
 11 12  2  0
 11 28  1  0
 12 13  1  0
 13 14  1  0
 13  9  2  0
 14 15  2  0
 14 29  1  0
 15 16  1  0
 15  7  1  0
 16  5  1  0
 17 18  1  0
 17 30  1  0
 17 31  1  0
 17 32  1  0
 18  1  1  0
 18 19  1  0
 18 33  1  6
 19 20  1  0
 20 21  1  0
 20 34  1  0
 20 35  1  0
 21 22  1  0
 21 36  1  0
 21 37  1  0
 22 23  1  0
 22 24  1  0
 22 25  1  0
 25 26  1  0
 25 38  1  0
 25 39  1  0
 26 19  1  0
 26 40  1  0
 26 41  1  0
M  END
>  <minimizedAffinity>  (7) 
-6.31492

>  <mol_id>  (7) 
115856

>  <source_index>  (7) 
6

>  <layer>  (7) 
L3

>  <uniprot>  (7) 
Q96LB1

>  <paff>  (7) 
6.4802

>  <smiles>  (7) 
FC1(CCN(CC1)[C@H](C(=O)NC=1SC=2C(=CC3=C(N=CO3)C2)N1)C)F

$$$$
L3:Q96LB1:128174
     RDKit          3D

 60 64  0  0  0  0  0  0  0  0999 V2000
   97.5233   67.7353   83.3424 N   0  0  0  0  0  0  0  0  0  0  0  0
   97.0904   68.9724   82.6800 C   0  0  0  0  0  0  0  0  0  0  0  0
   97.8741   70.1672   83.2247 C   0  0  0  0  0  0  0  0  0  0  0  0
   99.3142   69.8069   83.5625 C   0  0  0  0  0  0  0  0  0  0  0  0
   99.3937   69.5076   84.8877 F   0  0  0  0  0  0  0  0  0  0  0  0
  100.0917   70.9060   83.3770 F   0  0  0  0  0  0  0  0  0  0  0  0
   99.8243   68.6385   82.7184 C   0  0  2  0  0  0  0  0  0  0  0  0
   98.9224   67.4095   82.9848 C   0  0  0  0  0  0  0  0  0  0  0  0
  101.2966   68.2637   82.8514 C   0  0  0  0  0  0  0  0  0  0  0  0
  101.9278   68.0724   84.0808 C   0  0  0  0  0  0  0  0  0  0  0  0
  103.2728   67.7040   84.1262 C   0  0  0  0  0  0  0  0  0  0  0  0
  104.0208   67.5126   82.9765 N   0  0  0  0  0  0  0  0  0  0  0  0
  105.2431   67.1687   83.0661 O   0  0  0  0  0  0  0  0  0  0  0  0
  103.4104   67.7017   81.7425 C   0  0  0  0  0  0  0  0  0  0  0  0
  102.0531   68.0716   81.6847 C   0  0  0  0  0  0  0  0  0  0  0  0
  104.2636   67.4536   80.5303 C   0  0  2  0  0  0  0  0  0  0  0  0
  105.3567   68.3919   80.4868 O   0  0  0  0  0  0  0  0  0  0  0  0
  106.0272   67.9992   79.8986 H   0  0  0  0  0  0  0  0  0  0  0  0
  103.4591   67.6069   79.2283 C   0  0  0  0  0  0  0  0  0  0  0  0
  103.7061   68.8893   78.6360 O   0  0  0  0  0  0  0  0  0  0  0  0
  104.6617   69.0535   78.7529 H   0  0  0  0  0  0  0  0  0  0  0  0
   96.4037   66.2869   81.5877 C   0  0  0  0  0  0  0  0  0  0  0  0
   96.5851   66.6010   83.0791 C   0  0  1  0  0  0  0  0  0  0  0  0
   97.1214   65.3065   83.7392 C   0  0  0  0  0  0  0  0  0  0  0  0
   97.4396   64.3405   83.0526 O   0  0  0  0  0  0  0  0  0  0  0  0
   97.2123   65.4247   85.1092 N   0  0  0  0  0  0  0  0  0  0  0  0
   96.8314   66.2679   85.5245 H   0  0  0  0  0  0  0  0  0  0  0  0
   97.6918   64.5085   86.0037 C   0  0  0  0  0  0  0  0  0  0  0  0
   98.9170   64.5923   86.4615 N   0  0  0  0  0  0  0  0  0  0  0  0
   99.1636   63.5527   87.3425 C   0  0  0  0  0  0  0  0  0  0  0  0
  100.3782   63.3295   88.0283 C   0  0  0  0  0  0  0  0  0  0  0  0
  100.4370   62.2348   88.8703 C   0  0  0  0  0  0  0  0  0  0  0  0
   99.3712   61.3863   89.0475 C   0  0  0  0  0  0  0  0  0  0  0  0
   98.1631   61.5620   88.3995 C   0  0  0  0  0  0  0  0  0  0  0  0
   98.0877   62.6730   87.5385 C   0  0  0  0  0  0  0  0  0  0  0  0
   96.7638   63.2046   86.5747 S   0  0  0  0  0  0  0  0  0  0  0  0
   99.6490   60.3776   89.9189 O   0  0  0  0  0  0  0  0  0  0  0  0
  101.0047   60.7014   90.2576 C   0  0  0  0  0  0  0  0  0  0  0  0
  101.0822   60.8843   91.5983 F   0  0  0  0  0  0  0  0  0  0  0  0
  101.7927   59.6456   89.9398 F   0  0  0  0  0  0  0  0  0  0  0  0
  101.5220   61.8698   89.6068 O   0  0  0  0  0  0  0  0  0  0  0  0
   96.0465   69.1229   82.8604 H   0  0  0  0  0  0  0  0  0  0  0  0
   97.2717   68.8867   81.6290 H   0  0  0  0  0  0  0  0  0  0  0  0
   97.3906   70.5207   84.1114 H   0  0  0  0  0  0  0  0  0  0  0  0
   97.8943   70.9200   82.4646 H   0  0  0  0  0  0  0  0  0  0  0  0
   99.7632   68.9823   81.7070 H   0  0  0  0  0  0  0  0  0  0  0  0
   99.3507   66.8500   83.7901 H   0  0  0  0  0  0  0  0  0  0  0  0
   98.8800   66.8609   82.0671 H   0  0  0  0  0  0  0  0  0  0  0  0
  101.3994   68.2035   84.9575 H   0  0  0  0  0  0  0  0  0  0  0  0
  103.7240   67.5700   85.0446 H   0  0  0  0  0  0  0  0  0  0  0  0
  101.6047   68.2044   80.7647 H   0  0  0  0  0  0  0  0  0  0  0  0
  104.6276   66.4504   80.6071 H   0  0  0  0  0  0  0  0  0  0  0  0
  102.4155   67.5141   79.4457 H   0  0  0  0  0  0  0  0  0  0  0  0
  103.7610   66.8436   78.5419 H   0  0  0  0  0  0  0  0  0  0  0  0
   95.7229   65.4690   81.4757 H   0  0  0  0  0  0  0  0  0  0  0  0
   97.3492   66.0249   81.1608 H   0  0  0  0  0  0  0  0  0  0  0  0
   96.0125   67.1478   81.0869 H   0  0  0  0  0  0  0  0  0  0  0  0
   95.6449   66.9108   83.4851 H   0  0  0  0  0  0  0  0  0  0  0  0
  101.1879   63.9575   87.9058 H   0  0  0  0  0  0  0  0  0  0  0  0
   97.3673   60.9198   88.5380 H   0  0  0  0  0  0  0  0  0  0  0  0
  1  2  1  0
  2  3  1  0
  2 42  1  0
  2 43  1  0
  3  4  1  0
  3 44  1  0
  3 45  1  0
  4  5  1  0
  4  6  1  0
  4  7  1  0
  7  9  1  0
  7  8  1  0
  7 46  1  6
  8  1  1  0
  8 47  1  0
  8 48  1  0
  9 10  2  0
 10 11  1  0
 10 49  1  0
 11 12  2  0
 11 50  1  0
 12 13  1  0
 12 14  1  0
 14 16  1  0
 14 15  2  0
 15  9  1  0
 15 51  1  0
 16 17  1  0
 16 19  1  0
 16 52  1  1
 17 18  1  0
 19 20  1  0
 19 53  1  0
 19 54  1  0
 20 21  1  0
 22 23  1  0
 22 55  1  0
 22 56  1  0
 22 57  1  0
 23 24  1  0
 23  1  1  0
 23 58  1  1
 24 25  2  0
 24 26  1  0
 26 28  1  0
 26 27  1  0
 28 29  2  0
 29 30  1  0
 30 31  2  0
 31 32  1  0
 31 59  1  0
 32 33  2  0
 33 34  1  0
 33 37  1  0
 34 35  2  0
 34 60  1  0
 35 36  1  0
 35 30  1  0
 36 28  1  0
 37 38  1  0
 38 39  1  0
 38 40  1  0
 38 41  1  0
 41 32  1  0
M  CHG  2  12   1  13  -1
M  END
>  <minimizedAffinity>  (8) 
-7.75306

>  <mol_id>  (8) 
128174

>  <source_index>  (8) 
7

>  <layer>  (8) 
L3

>  <uniprot>  (8) 
Q96LB1

>  <paff>  (8) 
7.5228999999999999

>  <smiles>  (8) 
FC1(OC=2C(=CC3=C(N=C(S3)NC([C@H](C)N3C[C@@H](C(CC3)(F)F)C3=CC(=[N+](C=C3)[O-])[C@@H](CO)O)=O)C2)O1)F

$$$$
L3:Q96LB1:129454
     RDKit          3D

 55 59  0  0  0  0  0  0  0  0999 V2000
   98.0572   67.7853   81.3521 C   0  0  0  0  0  0  0  0  0  0  0  0
   97.4947   66.7301   82.3136 C   0  0  2  0  0  0  0  0  0  0  0  0
   98.5295   65.9472   83.0524 N   0  0  0  0  0  0  0  0  0  0  0  0
   97.9359   65.0822   84.0926 C   0  0  0  0  0  0  0  0  0  0  0  0
   97.5742   65.8060   85.3845 C   0  0  0  0  0  0  0  0  0  0  0  0
   98.7948   66.5101   85.9347 C   0  0  0  0  0  0  0  0  0  0  0  0
   98.4819   67.1701   87.0796 F   0  0  0  0  0  0  0  0  0  0  0  0
   99.6935   65.5491   86.3163 F   0  0  0  0  0  0  0  0  0  0  0  0
   99.4959   67.4364   84.9451 C   0  0  1  0  0  0  0  0  0  0  0  0
   99.6698   66.7089   83.5939 C   0  0  0  0  0  0  0  0  0  0  0  0
   98.9034   68.8366   84.8383 C   0  0  0  0  0  0  0  0  0  0  0  0
   97.6639   69.0851   85.3072 C   0  0  0  0  0  0  0  0  0  0  0  0
   97.1074   70.3302   85.1972 N   0  0  0  0  0  0  0  0  0  0  0  0
   97.7807   71.3640   84.5983 C   0  0  0  0  0  0  0  0  0  0  0  0
   97.3569   72.4987   84.4613 O   0  0  0  0  0  0  0  0  0  0  0  0
   99.1574   70.9887   84.0966 C   0  0  0  0  0  0  0  0  0  0  0  0
   99.6734   69.8010   84.2209 N   0  0  0  0  0  0  0  0  0  0  0  0
   96.1766   70.5245   85.5447 H   0  0  0  0  0  0  0  0  0  0  0  0
   96.6491   65.7693   81.4335 C   0  0  0  0  0  0  0  0  0  0  0  0
   95.4799   65.5248   81.7156 O   0  0  0  0  0  0  0  0  0  0  0  0
   97.3551   65.3195   80.3392 N   0  0  0  0  0  0  0  0  0  0  0  0
   98.3399   65.5583   80.3061 H   0  0  0  0  0  0  0  0  0  0  0  0
   96.9180   64.5217   79.3191 C   0  0  0  0  0  0  0  0  0  0  0  0
   97.2868   63.2663   79.2424 N   0  0  0  0  0  0  0  0  0  0  0  0
   96.7180   62.6791   78.1226 C   0  0  0  0  0  0  0  0  0  0  0  0
   96.8883   61.3344   77.7261 C   0  0  0  0  0  0  0  0  0  0  0  0
   96.2506   60.9085   76.5680 C   0  0  0  0  0  0  0  0  0  0  0  0
   95.4518   61.7705   75.8165 C   0  0  0  0  0  0  0  0  0  0  0  0
   95.2530   63.0942   76.1853 C   0  0  0  0  0  0  0  0  0  0  0  0
   95.9108   63.5262   77.3518 C   0  0  0  0  0  0  0  0  0  0  0  0
   95.8948   65.0841   78.0851 S   0  0  0  0  0  0  0  0  0  0  0  0
   94.8449   61.0512   74.6502 C   0  0  0  0  0  0  0  0  0  0  0  0
   95.7523   59.8166   74.5556 C   0  0  0  0  0  0  0  0  0  0  0  0
   96.2549   59.5322   75.9778 C   0  0  0  0  0  0  0  0  0  0  0  0
   97.2495   68.2945   80.8692 H   0  0  0  0  0  0  0  0  0  0  0  0
   98.6684   67.3070   80.6156 H   0  0  0  0  0  0  0  0  0  0  0  0
   98.6459   68.4903   81.9010 H   0  0  0  0  0  0  0  0  0  0  0  0
   96.9322   67.2271   83.0762 H   0  0  0  0  0  0  0  0  0  0  0  0
   98.6391   64.3106   84.3272 H   0  0  0  0  0  0  0  0  0  0  0  0
   97.0201   64.7042   83.6884 H   0  0  0  0  0  0  0  0  0  0  0  0
   97.2195   65.0962   86.1023 H   0  0  0  0  0  0  0  0  0  0  0  0
   96.8099   66.5274   85.1839 H   0  0  0  0  0  0  0  0  0  0  0  0
  100.4689   67.6472   85.3373 H   0  0  0  0  0  0  0  0  0  0  0  0
  100.4827   66.0225   83.7072 H   0  0  0  0  0  0  0  0  0  0  0  0
   99.8151   67.4996   82.8878 H   0  0  0  0  0  0  0  0  0  0  0  0
   97.1276   68.3257   85.7552 H   0  0  0  0  0  0  0  0  0  0  0  0
   99.7197   71.7167   83.6288 H   0  0  0  0  0  0  0  0  0  0  0  0
   97.4698   60.6869   78.2808 H   0  0  0  0  0  0  0  0  0  0  0  0
   94.6543   63.7279   75.6330 H   0  0  0  0  0  0  0  0  0  0  0  0
   94.8912   61.6410   73.7586 H   0  0  0  0  0  0  0  0  0  0  0  0
   93.8058   60.8243   74.7668 H   0  0  0  0  0  0  0  0  0  0  0  0
   96.5782   60.0144   73.9047 H   0  0  0  0  0  0  0  0  0  0  0  0
   95.2213   58.9767   74.1587 H   0  0  0  0  0  0  0  0  0  0  0  0
   97.2390   59.1122   75.9693 H   0  0  0  0  0  0  0  0  0  0  0  0
   95.6658   58.8207   76.5179 H   0  0  0  0  0  0  0  0  0  0  0  0
  1  2  1  0
  1 35  1  0
  1 36  1  0
  1 37  1  0
  2 19  1  0
  2  3  1  0
  2 38  1  1
  3  4  1  0
  4  5  1  0
  4 39  1  0
  4 40  1  0
  5  6  1  0
  5 41  1  0
  5 42  1  0
  6  7  1  0
  6  8  1  0
  6  9  1  0
  9 11  1  0
  9 10  1  0
  9 43  1  1
 10  3  1  0
 10 44  1  0
 10 45  1  0
 11 12  2  0
 12 13  1  0
 12 46  1  0
 13 14  1  0
 13 18  1  0
 14 15  2  0
 14 16  1  0
 16 17  2  0
 16 47  1  0
 17 11  1  0
 19 20  2  0
 19 21  1  0
 21 23  1  0
 21 22  1  0
 23 24  2  0
 24 25  1  0
 25 26  2  0
 26 27  1  0
 26 48  1  0
 27 28  2  0
 28 29  1  0
 28 32  1  0
 29 30  2  0
 29 49  1  0
 30 31  1  0
 30 25  1  0
 31 23  1  0
 32 33  1  0
 32 50  1  0
 32 51  1  0
 33 34  1  0
 33 52  1  0
 33 53  1  0
 34 27  1  0
 34 54  1  0
 34 55  1  0
M  END
>  <minimizedAffinity>  (9) 
-7.48202

>  <mol_id>  (9) 
129454

>  <source_index>  (9) 
8

>  <layer>  (9) 
L3

>  <uniprot>  (9) 
Q96LB1

>  <paff>  (9) 
7.5376000000000003

>  <smiles>  (9) 
FC1([C@@H](CN(CC1)[C@H](C(=O)NC=1SC2=C(N1)C=C1CCCC1=C2)C)C=2N=CC(NC2)=O)F

$$$$
L3:Q96LB1:145185
     RDKit          3D

 28 30  0  0  0  0  0  0  0  0999 V2000
   97.7216   65.9688   85.6608 O   0  0  0  0  0  0  0  0  0  0  0  0
   97.6974   65.9253   84.4316 C   0  0  0  0  0  0  0  0  0  0  0  0
   96.8000   64.9517   83.7845 C   0  0  0  0  0  0  0  0  0  0  0  0
   95.9658   64.1199   84.5398 C   0  0  0  0  0  0  0  0  0  0  0  0
   95.1286   63.2086   83.8946 C   0  0  0  0  0  0  0  0  0  0  0  0
   95.1270   63.1295   82.5012 C   0  0  0  0  0  0  0  0  0  0  0  0
   95.9617   63.9603   81.7502 C   0  0  0  0  0  0  0  0  0  0  0  0
   96.7959   64.8702   82.4004 C   0  0  0  0  0  0  0  0  0  0  0  0
   97.6341   65.6977   81.6604 N   0  0  0  0  0  0  0  0  0  0  0  0
   98.4798   66.6255   82.2072 C   0  0  0  0  0  0  0  0  0  0  0  0
   99.4136   67.4861   81.1101 S   0  0  0  0  0  0  0  0  0  0  0  0
   98.4768   66.7413   83.5966 N   0  0  0  0  0  0  0  0  0  0  0  0
   97.6376   65.6304   80.6483 H   0  0  0  0  0  0  0  0  0  0  0  0
   99.3196   67.7245   84.2923 C   0  0  0  0  0  0  0  0  0  0  0  0
   98.6949   69.0954   84.2162 C   0  0  0  0  0  0  0  0  0  0  0  0
   97.4095   69.4768   84.5571 C   0  0  0  0  0  0  0  0  0  0  0  0
   97.1812   70.8693   84.3629 C   0  0  0  0  0  0  0  0  0  0  0  0
   98.3032   71.5133   83.8948 C   0  0  0  0  0  0  0  0  0  0  0  0
   99.6219   70.4447   83.7012 S   0  0  0  0  0  0  0  0  0  0  0  0
   95.9697   64.1801   85.5700 H   0  0  0  0  0  0  0  0  0  0  0  0
   94.5111   62.5937   84.4474 H   0  0  0  0  0  0  0  0  0  0  0  0
   94.5076   62.4555   82.0246 H   0  0  0  0  0  0  0  0  0  0  0  0
   95.9614   63.9014   80.7199 H   0  0  0  0  0  0  0  0  0  0  0  0
  100.2852   67.7504   83.8320 H   0  0  0  0  0  0  0  0  0  0  0  0
   99.4112   67.4399   85.3197 H   0  0  0  0  0  0  0  0  0  0  0  0
   96.6942   68.8237   84.9132 H   0  0  0  0  0  0  0  0  0  0  0  0
   96.2817   71.3390   84.5509 H   0  0  0  0  0  0  0  0  0  0  0  0
   98.3435   72.5230   83.6853 H   0  0  0  0  0  0  0  0  0  0  0  0
  1  2  2  0
  2  3  1  0
  3  4  2  0
  4  5  1  0
  4 20  1  0
  5  6  2  0
  5 21  1  0
  6  7  1  0
  6 22  1  0
  7  8  2  0
  7 23  1  0
  8  9  1  0
  8  3  1  0
  9 10  1  0
  9 13  1  0
 10 11  2  0
 10 12  1  0
 12 14  1  0
 12  2  1  0
 14 15  1  0
 14 24  1  0
 14 25  1  0
 15 16  2  0
 16 17  1  0
 16 26  1  0
 17 18  2  0
 17 27  1  0
 18 19  1  0
 18 28  1  0
 19 15  1  0
M  END
>  <minimizedAffinity>  (10) 
-5.74099

>  <mol_id>  (10) 
145185

>  <source_index>  (10) 
9

>  <layer>  (10) 
L3

>  <uniprot>  (10) 
Q96LB1

>  <paff>  (10) 
6.2889999999999997

>  <smiles>  (10) 
O=c1c2ccccc2[nH]c(=S)n1Cc1cccs1

$$$$
