L4:Q9HB14:19275
     RDKit          3D

 33 36  0  0  0  0  0  0  0  0999 V2000
   94.9887  100.7179  125.3624 C   0  0  0  0  0  0  0  0  0  0  0  0
   94.5620   99.8507  124.4561 N   0  0  0  0  0  0  0  0  0  0  0  0
   95.4597   99.9056  123.4258 C   0  0  0  0  0  0  0  0  0  0  0  0
   95.4710   99.1982  122.2124 C   0  0  0  0  0  0  0  0  0  0  0  0
   96.5067   99.4323  121.2980 C   0  0  0  0  0  0  0  0  0  0  0  0
   97.5117  100.3546  121.5874 C   0  0  0  0  0  0  0  0  0  0  0  0
   97.5032  101.0571  122.7920 C   0  0  0  0  0  0  0  0  0  0  0  0
   98.4736  101.9416  123.0536 F   0  0  0  0  0  0  0  0  0  0  0  0
   96.4697  100.8186  123.6990 C   0  0  0  0  0  0  0  0  0  0  0  0
   96.1647  101.3110  124.9514 N   0  0  0  0  0  0  0  0  0  0  0  0
   92.8250  102.8856  125.9926 N   0  0  0  0  0  0  0  0  0  0  0  0
   93.2191  101.9712  126.9035 C   0  0  0  0  0  0  0  0  0  0  0  0
   92.7399  101.8683  128.1413 N   0  0  0  0  0  0  0  0  0  0  0  0
   93.4427  100.8142  128.7144 O   0  0  0  0  0  0  0  0  0  0  0  0
   94.3565  100.2648  127.8202 N   0  0  0  0  0  0  0  0  0  0  0  0
   94.1987  100.9687  126.6978 C   0  0  0  0  0  0  0  0  0  0  0  0
   93.1009  102.7474  125.0194 H   0  0  0  0  0  0  0  0  0  0  0  0
   91.9308  103.3442  126.1187 H   0  0  0  0  0  0  0  0  0  0  0  0
   96.9684  102.2829  125.6733 C   0  0  0  0  0  0  0  0  0  0  0  0
   96.3310  103.6494  125.6334 C   0  0  0  0  0  0  0  0  0  0  0  0
   96.1953  104.3313  124.4370 C   0  0  0  0  0  0  0  0  0  0  0  0
   95.6008  105.5718  124.5018 C   0  0  0  0  0  0  0  0  0  0  0  0
   95.1574  106.1247  125.6436 N   0  0  0  0  0  0  0  0  0  0  0  0
   95.3307  105.3871  126.7484 C   0  0  0  0  0  0  0  0  0  0  0  0
   95.8980  104.1720  126.8028 N   0  0  0  0  0  0  0  0  0  0  0  0
   94.7272   98.5158  121.9974 H   0  0  0  0  0  0  0  0  0  0  0  0
   96.5258   98.9181  120.4034 H   0  0  0  0  0  0  0  0  0  0  0  0
   98.2679  100.5186  120.9046 H   0  0  0  0  0  0  0  0  0  0  0  0
   97.9386  102.3363  125.2252 H   0  0  0  0  0  0  0  0  0  0  0  0
   97.0431  101.9718  126.6943 H   0  0  0  0  0  0  0  0  0  0  0  0
   96.5223  103.9315  123.5436 H   0  0  0  0  0  0  0  0  0  0  0  0
   95.4897  106.1059  123.6258 H   0  0  0  0  0  0  0  0  0  0  0  0
   94.9978  105.7898  127.6384 H   0  0  0  0  0  0  0  0  0  0  0  0
  1  2  2  0
  2  3  1  0
  3  4  2  0
  4  5  1  0
  4 26  1  0
  5  6  2  0
  5 27  1  0
  6  7  1  0
  6 28  1  0
  7  8  1  0
  7  9  2  0
  9 10  1  0
  9  3  1  0
 10 19  1  0
 10  1  1  0
 11 12  1  0
 11 17  1  0
 11 18  1  0
 12 13  2  0
 13 14  1  0
 14 15  1  0
 15 16  2  0
 16  1  1  0
 16 12  1  0
 19 20  1  0
 19 29  1  0
 19 30  1  0
 20 21  2  0
 21 22  1  0
 21 31  1  0
 22 23  2  0
 22 32  1  0
 23 24  1  0
 24 25  2  0
 24 33  1  0
 25 20  1  0
M  END
>  <minimizedAffinity>  (1) 
-5.76021

>  <mol_id>  (1) 
19275

>  <source_index>  (1) 
0

>  <layer>  (1) 
L4

>  <uniprot>  (1) 
Q9HB14

>  <paff>  (1) 
7.3372000000000002

>  <smiles>  (1) 
Nc1nonc1-c1nc2cccc(F)c2n1Cc1ccncn1

$$$$
L4:Q9HB14:25543
     RDKit          3D

 33 36  0  0  0  0  0  0  0  0999 V2000
   94.9782  100.7147  125.3135 C   0  0  0  0  0  0  0  0  0  0  0  0
   94.5513   99.8230  124.4338 N   0  0  0  0  0  0  0  0  0  0  0  0
   95.4284   99.8726  123.3863 C   0  0  0  0  0  0  0  0  0  0  0  0
   95.4233   99.1455  122.1846 C   0  0  0  0  0  0  0  0  0  0  0  0
   96.4281   99.3876  121.2390 C   0  0  0  0  0  0  0  0  0  0  0  0
   97.4158  100.3398  121.4852 C   0  0  0  0  0  0  0  0  0  0  0  0
   97.4243  101.0609  122.6790 C   0  0  0  0  0  0  0  0  0  0  0  0
   98.3716  101.9824  122.8887 F   0  0  0  0  0  0  0  0  0  0  0  0
   96.4273  100.8084  123.6232 C   0  0  0  0  0  0  0  0  0  0  0  0
   96.1478  101.3079  124.8800 N   0  0  0  0  0  0  0  0  0  0  0  0
   92.6377  102.7185  125.8676 N   0  0  0  0  0  0  0  0  0  0  0  0
   93.1326  101.9026  126.8198 C   0  0  0  0  0  0  0  0  0  0  0  0
   92.6915  101.8308  128.0734 N   0  0  0  0  0  0  0  0  0  0  0  0
   93.4994  100.8833  128.6903 O   0  0  0  0  0  0  0  0  0  0  0  0
   94.4338  100.3552  127.8025 N   0  0  0  0  0  0  0  0  0  0  0  0
   94.1961  100.9829  126.6492 C   0  0  0  0  0  0  0  0  0  0  0  0
   92.9036  102.5570  124.8951 H   0  0  0  0  0  0  0  0  0  0  0  0
   91.7170  103.1220  125.9948 H   0  0  0  0  0  0  0  0  0  0  0  0
   96.9428  102.3174  125.5646 C   0  0  0  0  0  0  0  0  0  0  0  0
   96.3514  103.6940  125.4346 C   0  0  0  0  0  0  0  0  0  0  0  0
   96.2966  104.3480  124.2035 C   0  0  0  0  0  0  0  0  0  0  0  0
   95.7442  105.6138  124.1466 C   0  0  0  0  0  0  0  0  0  0  0  0
   95.2503  106.2392  125.2316 N   0  0  0  0  0  0  0  0  0  0  0  0
   95.2893  105.6111  126.4348 N   0  0  0  0  0  0  0  0  0  0  0  0
   95.8252  104.3742  126.5236 C   0  0  0  0  0  0  0  0  0  0  0  0
   94.6899   98.4431  122.0009 H   0  0  0  0  0  0  0  0  0  0  0  0
   96.4371   98.8572  120.3538 H   0  0  0  0  0  0  0  0  0  0  0  0
   98.1472  100.5127  120.7780 H   0  0  0  0  0  0  0  0  0  0  0  0
   97.9266  102.3243  125.1439 H   0  0  0  0  0  0  0  0  0  0  0  0
   96.9645  102.0672  126.6047 H   0  0  0  0  0  0  0  0  0  0  0  0
   96.6617  103.8951  123.3511 H   0  0  0  0  0  0  0  0  0  0  0  0
   95.7090  106.0986  123.2363 H   0  0  0  0  0  0  0  0  0  0  0  0
   95.8442  103.9126  127.4464 H   0  0  0  0  0  0  0  0  0  0  0  0
  1  2  2  0
  2  3  1  0
  3  4  2  0
  4  5  1  0
  4 26  1  0
  5  6  2  0
  5 27  1  0
  6  7  1  0
  6 28  1  0
  7  8  1  0
  7  9  2  0
  9 10  1  0
  9  3  1  0
 10 19  1  0
 10  1  1  0
 11 12  1  0
 11 17  1  0
 11 18  1  0
 12 13  2  0
 13 14  1  0
 14 15  1  0
 15 16  2  0
 16  1  1  0
 16 12  1  0
 19 20  1  0
 19 29  1  0
 19 30  1  0
 20 21  2  0
 21 22  1  0
 21 31  1  0
 22 23  2  0
 22 32  1  0
 23 24  1  0
 24 25  2  0
 25 20  1  0
 25 33  1  0
M  END
>  <minimizedAffinity>  (2) 
-5.68005

>  <mol_id>  (2) 
25543

>  <source_index>  (2) 
1

>  <layer>  (2) 
L4

>  <uniprot>  (2) 
Q9HB14

>  <paff>  (2) 
7.3010000000000002

>  <smiles>  (2) 
Nc1nonc1-c1nc2cccc(F)c2n1Cc1ccnnc1

$$$$
L4:Q9HB14:37384
     RDKit          3D

 33 36  0  0  0  0  0  0  0  0999 V2000
   95.0297  100.8910  125.3528 C   0  0  0  0  0  0  0  0  0  0  0  0
   94.5145  100.1714  124.3661 N   0  0  0  0  0  0  0  0  0  0  0  0
   95.4619  100.0949  123.3821 C   0  0  0  0  0  0  0  0  0  0  0  0
   95.4507   99.4289  122.1425 C   0  0  0  0  0  0  0  0  0  0  0  0
   94.3927   98.7027  121.7560 F   0  0  0  0  0  0  0  0  0  0  0  0
   96.5554   99.5246  121.2909 C   0  0  0  0  0  0  0  0  0  0  0  0
   97.6637  100.2838  121.6628 C   0  0  0  0  0  0  0  0  0  0  0  0
   97.6840  100.9509  122.8884 C   0  0  0  0  0  0  0  0  0  0  0  0
   98.7480  101.6908  123.2237 F   0  0  0  0  0  0  0  0  0  0  0  0
   96.5799  100.8375  123.7386 C   0  0  0  0  0  0  0  0  0  0  0  0
   96.2761  101.3608  124.9839 N   0  0  0  0  0  0  0  0  0  0  0  0
   92.8551  103.2084  126.3986 N   0  0  0  0  0  0  0  0  0  0  0  0
   93.2344  102.0899  127.0600 C   0  0  0  0  0  0  0  0  0  0  0  0
   92.7488  101.7851  128.2621 N   0  0  0  0  0  0  0  0  0  0  0  0
   93.4546  100.6656  128.6694 O   0  0  0  0  0  0  0  0  0  0  0  0
   94.3624  100.2703  127.7044 N   0  0  0  0  0  0  0  0  0  0  0  0
   94.1941  101.1179  126.6798 C   0  0  0  0  0  0  0  0  0  0  0  0
   92.2809  103.8305  126.9648 H   0  0  0  0  0  0  0  0  0  0  0  0
   93.6128  103.7699  125.9944 H   0  0  0  0  0  0  0  0  0  0  0  0
   97.0856  102.3830  125.6276 C   0  0  0  0  0  0  0  0  0  0  0  0
   96.4062  103.7248  125.6107 C   0  0  0  0  0  0  0  0  0  0  0  0
   96.1838  104.4091  124.4230 C   0  0  0  0  0  0  0  0  0  0  0  0
   95.5069  105.6211  124.4668 C   0  0  0  0  0  0  0  0  0  0  0  0
   95.0717  106.0801  125.6929 C   0  0  0  0  0  0  0  0  0  0  0  0
   95.2792  105.3960  126.8343 N   0  0  0  0  0  0  0  0  0  0  0  0
   95.9550  104.2145  126.7910 N   0  0  0  0  0  0  0  0  0  0  0  0
   96.5503   99.0317  120.3842 H   0  0  0  0  0  0  0  0  0  0  0  0
   98.4743  100.3530  121.0278 H   0  0  0  0  0  0  0  0  0  0  0  0
   98.0198  102.4611  125.1117 H   0  0  0  0  0  0  0  0  0  0  0  0
   97.2332  102.0973  126.6481 H   0  0  0  0  0  0  0  0  0  0  0  0
   96.5153  104.0243  123.5246 H   0  0  0  0  0  0  0  0  0  0  0  0
   95.3342  106.1634  123.6059 H   0  0  0  0  0  0  0  0  0  0  0  0
   94.5689  106.9803  125.7370 H   0  0  0  0  0  0  0  0  0  0  0  0
  1  2  2  0
  2  3  1  0
  3  4  2  0
  4  5  1  0
  4  6  1  0
  6  7  2  0
  6 27  1  0
  7  8  1  0
  7 28  1  0
  8  9  1  0
  8 10  2  0
 10 11  1  0
 10  3  1  0
 11 20  1  0
 11  1  1  0
 12 13  1  0
 12 18  1  0
 12 19  1  0
 13 14  2  0
 14 15  1  0
 15 16  1  0
 16 17  2  0
 17  1  1  0
 17 13  1  0
 20 21  1  0
 20 29  1  0
 20 30  1  0
 21 22  2  0
 22 23  1  0
 22 31  1  0
 23 24  2  0
 23 32  1  0
 24 25  1  0
 24 33  1  0
 25 26  2  0
 26 21  1  0
M  END
>  <minimizedAffinity>  (3) 
-5.79432

>  <mol_id>  (3) 
37384

>  <source_index>  (3) 
2

>  <layer>  (3) 
L4

>  <uniprot>  (3) 
Q9HB14

>  <paff>  (3) 
7.4318

>  <smiles>  (3) 
Nc1nonc1-c1nc2c(F)ccc(F)c2n1Cc1cccnn1

$$$$
L4:Q9HB14:39465
     RDKit          3D

 34 37  0  0  0  0  0  0  0  0999 V2000
   95.1371  102.7954  125.9379 C   0  0  0  0  0  0  0  0  0  0  0  0
   94.8843  103.8113  126.7495 N   0  0  0  0  0  0  0  0  0  0  0  0
   95.1331  104.9541  126.0500 C   0  0  0  0  0  0  0  0  0  0  0  0
   95.0404  106.2924  126.4639 C   0  0  0  0  0  0  0  0  0  0  0  0
   95.3470  107.3032  125.5459 C   0  0  0  0  0  0  0  0  0  0  0  0
   95.7323  106.9774  124.2499 C   0  0  0  0  0  0  0  0  0  0  0  0
   96.0206  107.9632  123.3893 F   0  0  0  0  0  0  0  0  0  0  0  0
   95.8287  105.6543  123.8142 C   0  0  0  0  0  0  0  0  0  0  0  0
   95.5218  104.6571  124.7510 C   0  0  0  0  0  0  0  0  0  0  0  0
   95.4926  103.2724  124.6904 N   0  0  0  0  0  0  0  0  0  0  0  0
   93.1934  100.2087  125.1023 N   0  0  0  0  0  0  0  0  0  0  0  0
   94.0907  100.2604  126.1151 C   0  0  0  0  0  0  0  0  0  0  0  0
   94.2978   99.2221  126.9224 N   0  0  0  0  0  0  0  0  0  0  0  0
   95.3631   99.5905  127.7270 O   0  0  0  0  0  0  0  0  0  0  0  0
   95.8014  100.8657  127.4201 N   0  0  0  0  0  0  0  0  0  0  0  0
   94.9769  101.3105  126.4619 C   0  0  0  0  0  0  0  0  0  0  0  0
   92.7650   99.2885  125.0046 H   0  0  0  0  0  0  0  0  0  0  0  0
   93.5365  100.4883  124.1854 H   0  0  0  0  0  0  0  0  0  0  0  0
   95.6104  102.5350  123.4414 C   0  0  0  0  0  0  0  0  0  0  0  0
   97.0039  102.0368  123.1293 C   0  0  0  0  0  0  0  0  0  0  0  0
   97.9567  101.6945  124.0968 C   0  0  0  0  0  0  0  0  0  0  0  0
   99.2014  101.2422  123.6830 C   0  0  0  0  0  0  0  0  0  0  0  0
   99.5583  101.1068  122.3900 N   0  0  0  0  0  0  0  0  0  0  0  0
   98.6417  101.4561  121.4664 C   0  0  0  0  0  0  0  0  0  0  0  0
   97.3743  101.9204  121.7817 C   0  0  0  0  0  0  0  0  0  0  0  0
   94.7517  106.5263  127.4267 H   0  0  0  0  0  0  0  0  0  0  0  0
   95.2870  108.2931  125.8314 H   0  0  0  0  0  0  0  0  0  0  0  0
   96.1121  105.4216  122.8495 H   0  0  0  0  0  0  0  0  0  0  0  0
   95.3003  103.1781  122.6444 H   0  0  0  0  0  0  0  0  0  0  0  0
   94.9954  101.6656  123.5452 H   0  0  0  0  0  0  0  0  0  0  0  0
   97.7365  101.7773  125.1016 H   0  0  0  0  0  0  0  0  0  0  0  0
   99.8941  100.9951  124.4069 H   0  0  0  0  0  0  0  0  0  0  0  0
   98.8971  101.3735  120.4699 H   0  0  0  0  0  0  0  0  0  0  0  0
   96.7112  102.1773  121.0338 H   0  0  0  0  0  0  0  0  0  0  0  0
  1  2  2  0
  2  3  1  0
  3  4  2  0
  4  5  1  0
  4 26  1  0
  5  6  2  0
  5 27  1  0
  6  7  1  0
  6  8  1  0
  8  9  2  0
  8 28  1  0
  9 10  1  0
  9  3  1  0
 10 19  1  0
 10  1  1  0
 11 12  1  0
 11 17  1  0
 11 18  1  0
 12 13  2  0
 13 14  1  0
 14 15  1  0
 15 16  2  0
 16  1  1  0
 16 12  1  0
 19 20  1  0
 19 29  1  0
 19 30  1  0
 20 21  2  0
 21 22  1  0
 21 31  1  0
 22 23  2  0
 22 32  1  0
 23 24  1  0
 24 25  2  0
 24 33  1  0
 25 20  1  0
 25 34  1  0
M  END
>  <minimizedAffinity>  (4) 
-5.80703

>  <mol_id>  (4) 
39465

>  <source_index>  (4) 
3

>  <layer>  (4) 
L4

>  <uniprot>  (4) 
Q9HB14

>  <paff>  (4) 
7.4684999999999997

>  <smiles>  (4) 
Nc1nonc1-c1nc2ccc(F)cc2n1Cc1ccncc1

$$$$
L4:Q9HB14:45253
     RDKit          3D

 33 36  0  0  0  0  0  0  0  0999 V2000
   94.9346  100.7623  125.4016 C   0  0  0  0  0  0  0  0  0  0  0  0
   94.5163   99.9102  124.4797 N   0  0  0  0  0  0  0  0  0  0  0  0
   95.4543   99.9445  123.4831 C   0  0  0  0  0  0  0  0  0  0  0  0
   95.4969   99.2302  122.2742 C   0  0  0  0  0  0  0  0  0  0  0  0
   96.5766   99.4298  121.4039 C   0  0  0  0  0  0  0  0  0  0  0  0
   97.5954  100.3225  121.7338 C   0  0  0  0  0  0  0  0  0  0  0  0
   97.5561  101.0333  122.9333 C   0  0  0  0  0  0  0  0  0  0  0  0
   98.5492  101.8779  123.2364 F   0  0  0  0  0  0  0  0  0  0  0  0
   96.4769  100.8319  123.7952 C   0  0  0  0  0  0  0  0  0  0  0  0
   96.1177  101.3593  125.0171 N   0  0  0  0  0  0  0  0  0  0  0  0
   92.8721  103.0180  126.0702 N   0  0  0  0  0  0  0  0  0  0  0  0
   93.2184  102.0663  126.9610 C   0  0  0  0  0  0  0  0  0  0  0  0
   92.7571  101.9758  128.2064 N   0  0  0  0  0  0  0  0  0  0  0  0
   93.3657  100.8455  128.7384 O   0  0  0  0  0  0  0  0  0  0  0  0
   94.2172  100.2418  127.8157 N   0  0  0  0  0  0  0  0  0  0  0  0
   94.1313  101.0098  126.7269 C   0  0  0  0  0  0  0  0  0  0  0  0
   93.4341  103.1176  125.2232 H   0  0  0  0  0  0  0  0  0  0  0  0
   92.4642  103.8810  126.4094 H   0  0  0  0  0  0  0  0  0  0  0  0
   96.8816  102.3473  125.7639 C   0  0  0  0  0  0  0  0  0  0  0  0
   96.2891  103.7254  125.6516 C   0  0  0  0  0  0  0  0  0  0  0  0
   96.2344  104.3863  124.4299 C   0  0  0  0  0  0  0  0  0  0  0  0
   95.6481  105.6440  124.3723 C   0  0  0  0  0  0  0  0  0  0  0  0
   95.1322  106.1748  125.5361 C   0  0  0  0  0  0  0  0  0  0  0  0
   95.1755  105.5160  126.7087 N   0  0  0  0  0  0  0  0  0  0  0  0
   95.7527  104.2793  126.7636 N   0  0  0  0  0  0  0  0  0  0  0  0
   94.7438   98.5680  122.0307 H   0  0  0  0  0  0  0  0  0  0  0  0
   96.6180   98.9122  120.5121 H   0  0  0  0  0  0  0  0  0  0  0  0
   98.3859  100.4587  121.0845 H   0  0  0  0  0  0  0  0  0  0  0  0
   97.8814  102.3698  125.3833 H   0  0  0  0  0  0  0  0  0  0  0  0
   96.8646  102.0650  126.7958 H   0  0  0  0  0  0  0  0  0  0  0  0
   96.6231  103.9495  123.5795 H   0  0  0  0  0  0  0  0  0  0  0  0
   95.5998  106.1667  123.4838 H   0  0  0  0  0  0  0  0  0  0  0  0
   94.6976  107.1104  125.5066 H   0  0  0  0  0  0  0  0  0  0  0  0
  1  2  2  0
  2  3  1  0
  3  4  2  0
  4  5  1  0
  4 26  1  0
  5  6  2  0
  5 27  1  0
  6  7  1  0
  6 28  1  0
  7  8  1  0
  7  9  2  0
  9 10  1  0
  9  3  1  0
 10 19  1  0
 10  1  1  0
 11 12  1  0
 11 17  1  0
 11 18  1  0
 12 13  2  0
 13 14  1  0
 14 15  1  0
 15 16  2  0
 16  1  1  0
 16 12  1  0
 19 20  1  0
 19 29  1  0
 19 30  1  0
 20 21  2  0
 21 22  1  0
 21 31  1  0
 22 23  2  0
 22 32  1  0
 23 24  1  0
 23 33  1  0
 24 25  2  0
 25 20  1  0
M  END
>  <minimizedAffinity>  (5) 
-5.81235

>  <mol_id>  (5) 
45253

>  <source_index>  (5) 
4

>  <layer>  (5) 
L4

>  <uniprot>  (5) 
Q9HB14

>  <paff>  (5) 
7.3872

>  <smiles>  (5) 
Nc1nonc1-c1nc2cccc(F)c2n1Cc1cccnn1

$$$$
L4:Q9HB14:46211
     RDKit          3D

 34 37  0  0  0  0  0  0  0  0999 V2000
   94.8848  100.8321  125.3243 C   0  0  0  0  0  0  0  0  0  0  0  0
   94.5696   99.8130  124.5374 N   0  0  0  0  0  0  0  0  0  0  0  0
   95.4215   99.8498  123.4739 C   0  0  0  0  0  0  0  0  0  0  0  0
   95.4941   99.0071  122.3533 C   0  0  0  0  0  0  0  0  0  0  0  0
   96.4783   99.2473  121.3852 C   0  0  0  0  0  0  0  0  0  0  0  0
   97.3740  100.3053  121.5346 C   0  0  0  0  0  0  0  0  0  0  0  0
   97.3036  101.1407  122.6489 C   0  0  0  0  0  0  0  0  0  0  0  0
   98.1699  102.1526  122.7787 F   0  0  0  0  0  0  0  0  0  0  0  0
   96.3163  100.8992  123.6062 C   0  0  0  0  0  0  0  0  0  0  0  0
   95.9735  101.5062  124.8021 N   0  0  0  0  0  0  0  0  0  0  0  0
   92.3419  102.8362  126.1713 N   0  0  0  0  0  0  0  0  0  0  0  0
   93.0212  101.9916  126.9823 C   0  0  0  0  0  0  0  0  0  0  0  0
   92.7227  101.8696  128.2742 N   0  0  0  0  0  0  0  0  0  0  0  0
   93.5174  100.8349  128.7380 O   0  0  0  0  0  0  0  0  0  0  0  0
   94.3160  100.3300  127.7286 N   0  0  0  0  0  0  0  0  0  0  0  0
   94.0569  101.0829  126.6504 C   0  0  0  0  0  0  0  0  0  0  0  0
   91.5662  103.2972  126.6458 H   0  0  0  0  0  0  0  0  0  0  0  0
   91.9803  102.4344  125.3085 H   0  0  0  0  0  0  0  0  0  0  0  0
   96.7942  102.5292  125.4331 C   0  0  0  0  0  0  0  0  0  0  0  0
   96.2002  103.9200  125.4123 C   0  0  0  0  0  0  0  0  0  0  0  0
   96.1913  104.6141  124.1936 C   0  0  0  0  0  0  0  0  0  0  0  0
   95.6665  105.8963  124.1491 C   0  0  0  0  0  0  0  0  0  0  0  0
   95.1515  106.5287  125.2216 N   0  0  0  0  0  0  0  0  0  0  0  0
   95.1386  105.8429  126.3825 C   0  0  0  0  0  0  0  0  0  0  0  0
   95.6432  104.5584  126.5268 C   0  0  0  0  0  0  0  0  0  0  0  0
   94.8326   98.2226  122.2442 H   0  0  0  0  0  0  0  0  0  0  0  0
   96.5406   98.6366  120.5556 H   0  0  0  0  0  0  0  0  0  0  0  0
   98.0947  100.4715  120.8149 H   0  0  0  0  0  0  0  0  0  0  0  0
   97.7353  102.5614  124.9249 H   0  0  0  0  0  0  0  0  0  0  0  0
   96.8804  102.2535  126.4634 H   0  0  0  0  0  0  0  0  0  0  0  0
   96.5710  104.1754  123.3401 H   0  0  0  0  0  0  0  0  0  0  0  0
   95.6705  106.3938  123.2449 H   0  0  0  0  0  0  0  0  0  0  0  0
   94.7295  106.3001  127.2123 H   0  0  0  0  0  0  0  0  0  0  0  0
   95.6084  104.0812  127.4412 H   0  0  0  0  0  0  0  0  0  0  0  0
  1  2  2  0
  2  3  1  0
  3  4  2  0
  4  5  1  0
  4 26  1  0
  5  6  2  0
  5 27  1  0
  6  7  1  0
  6 28  1  0
  7  8  1  0
  7  9  2  0
  9 10  1  0
  9  3  1  0
 10 19  1  0
 10  1  1  0
 11 12  1  0
 11 17  1  0
 11 18  1  0
 12 13  2  0
 13 14  1  0
 14 15  1  0
 15 16  2  0
 16  1  1  0
 16 12  1  0
 19 20  1  0
 19 29  1  0
 19 30  1  0
 20 21  2  0
 21 22  1  0
 21 31  1  0
 22 23  2  0
 22 32  1  0
 23 24  1  0
 24 25  2  0
 24 33  1  0
 25 20  1  0
 25 34  1  0
M  END
>  <minimizedAffinity>  (6) 
-5.71552

>  <mol_id>  (6) 
46211

>  <source_index>  (6) 
5

>  <layer>  (6) 
L4

>  <uniprot>  (6) 
Q9HB14

>  <paff>  (6) 
7.3372000000000002

>  <smiles>  (6) 
Nc1nonc1-c1nc2cccc(F)c2n1Cc1ccncc1

$$$$
L4:Q9HB14:59899
     RDKit          3D

 33 36  0  0  0  0  0  0  0  0999 V2000
   94.9380  100.7301  125.3518 C   0  0  0  0  0  0  0  0  0  0  0  0
   94.5195   99.8533  124.4533 N   0  0  0  0  0  0  0  0  0  0  0  0
   95.4254   99.8969  123.4301 C   0  0  0  0  0  0  0  0  0  0  0  0
   95.4615   99.1547  122.2381 C   0  0  0  0  0  0  0  0  0  0  0  0
   96.5073   99.3734  121.3316 C   0  0  0  0  0  0  0  0  0  0  0  0
   97.4977  100.3147  121.6077 C   0  0  0  0  0  0  0  0  0  0  0  0
   97.4630  101.0531  122.7899 C   0  0  0  0  0  0  0  0  0  0  0  0
   98.4140  101.9625  123.0343 F   0  0  0  0  0  0  0  0  0  0  0  0
   96.4190  100.8323  123.6901 C   0  0  0  0  0  0  0  0  0  0  0  0
   96.0773  101.3746  124.9123 N   0  0  0  0  0  0  0  0  0  0  0  0
   92.5600  102.6610  126.0009 N   0  0  0  0  0  0  0  0  0  0  0  0
   93.1125  101.8536  126.9289 C   0  0  0  0  0  0  0  0  0  0  0  0
   92.7416  101.7861  128.2053 N   0  0  0  0  0  0  0  0  0  0  0  0
   93.5633  100.8193  128.7725 O   0  0  0  0  0  0  0  0  0  0  0  0
   94.4522  100.2936  127.8374 N   0  0  0  0  0  0  0  0  0  0  0  0
   94.1782  100.9479  126.7074 C   0  0  0  0  0  0  0  0  0  0  0  0
   92.0176  103.4604  126.3065 H   0  0  0  0  0  0  0  0  0  0  0  0
   93.0424  102.7867  125.1102 H   0  0  0  0  0  0  0  0  0  0  0  0
   96.8356  102.4025  125.6132 C   0  0  0  0  0  0  0  0  0  0  0  0
   96.2486  103.7689  125.4452 C   0  0  0  0  0  0  0  0  0  0  0  0
   95.6965  104.4681  126.5018 C   0  0  0  0  0  0  0  0  0  0  0  0
   95.1826  105.7099  126.3994 N   0  0  0  0  0  0  0  0  0  0  0  0
   95.2337  106.2636  125.1803 C   0  0  0  0  0  0  0  0  0  0  0  0
   95.7536  105.6964  124.0831 N   0  0  0  0  0  0  0  0  0  0  0  0
   96.2565  104.4566  124.2459 C   0  0  0  0  0  0  0  0  0  0  0  0
   94.7282   98.4582  122.0329 H   0  0  0  0  0  0  0  0  0  0  0  0
   96.5446   98.8335  120.4529 H   0  0  0  0  0  0  0  0  0  0  0  0
   98.2626  100.4662  120.9317 H   0  0  0  0  0  0  0  0  0  0  0  0
   97.8353  102.4102  125.2319 H   0  0  0  0  0  0  0  0  0  0  0  0
   96.8118  102.1666  126.6566 H   0  0  0  0  0  0  0  0  0  0  0  0
   95.6765  104.0109  127.4268 H   0  0  0  0  0  0  0  0  0  0  0  0
   94.8375  107.2109  125.0772 H   0  0  0  0  0  0  0  0  0  0  0  0
   96.6734  103.9917  123.4242 H   0  0  0  0  0  0  0  0  0  0  0  0
  1  2  2  0
  2  3  1  0
  3  4  2  0
  4  5  1  0
  4 26  1  0
  5  6  2  0
  5 27  1  0
  6  7  1  0
  6 28  1  0
  7  8  1  0
  7  9  2  0
  9 10  1  0
  9  3  1  0
 10 19  1  0
 10  1  1  0
 11 12  1  0
 11 17  1  0
 11 18  1  0
 12 13  2  0
 13 14  1  0
 14 15  1  0
 15 16  2  0
 16  1  1  0
 16 12  1  0
 19 20  1  0
 19 29  1  0
 19 30  1  0
 20 21  2  0
 21 22  1  0
 21 31  1  0
 22 23  2  0
 23 24  1  0
 23 32  1  0
 24 25  2  0
 25 20  1  0
 25 33  1  0
M  END
>  <minimizedAffinity>  (7) 
-5.56116

>  <mol_id>  (7) 
59899

>  <source_index>  (7) 
6

>  <layer>  (7) 
L4

>  <uniprot>  (7) 
Q9HB14

>  <paff>  (7) 
7.3098000000000001

>  <smiles>  (7) 
Nc1nonc1-c1nc2cccc(F)c2n1Cc1cncnc1

$$$$
L4:Q9HB14:66226
     RDKit          3D

 34 37  0  0  0  0  0  0  0  0999 V2000
   95.0705  100.7338  125.2483 C   0  0  0  0  0  0  0  0  0  0  0  0
   94.6363   99.8825  124.3334 N   0  0  0  0  0  0  0  0  0  0  0  0
   95.5217   99.9609  123.2932 C   0  0  0  0  0  0  0  0  0  0  0  0
   95.5241   99.2662  122.0746 C   0  0  0  0  0  0  0  0  0  0  0  0
   96.5445   99.5249  121.1528 C   0  0  0  0  0  0  0  0  0  0  0  0
   97.5416  100.4576  121.4389 C   0  0  0  0  0  0  0  0  0  0  0  0
   97.5535  101.1597  122.6498 C   0  0  0  0  0  0  0  0  0  0  0  0
   96.5246  100.8855  123.5609 C   0  0  0  0  0  0  0  0  0  0  0  0
   96.2210  101.3651  124.8218 N   0  0  0  0  0  0  0  0  0  0  0  0
   92.6356  102.5897  125.8800 N   0  0  0  0  0  0  0  0  0  0  0  0
   93.2114  101.8105  126.8173 C   0  0  0  0  0  0  0  0  0  0  0  0
   92.8415  101.7451  128.0942 N   0  0  0  0  0  0  0  0  0  0  0  0
   93.6896  100.8072  128.6707 O   0  0  0  0  0  0  0  0  0  0  0  0
   94.5973  100.3024  127.7429 N   0  0  0  0  0  0  0  0  0  0  0  0
   94.3043  100.9349  126.6048 C   0  0  0  0  0  0  0  0  0  0  0  0
   93.1087  102.7094  124.9827 H   0  0  0  0  0  0  0  0  0  0  0  0
   92.0615  103.3724  126.1690 H   0  0  0  0  0  0  0  0  0  0  0  0
   96.9771  102.4003  125.5105 C   0  0  0  0  0  0  0  0  0  0  0  0
   96.3316  103.7593  125.3963 C   0  0  0  0  0  0  0  0  0  0  0  0
   96.2878  104.4513  124.1812 C   0  0  0  0  0  0  0  0  0  0  0  0
   95.6906  105.7026  124.1441 C   0  0  0  0  0  0  0  0  0  0  0  0
   95.1471  106.3077  125.2202 N   0  0  0  0  0  0  0  0  0  0  0  0
   95.2036  105.6328  126.3858 C   0  0  0  0  0  0  0  0  0  0  0  0
   95.7787  104.3783  126.5236 C   0  0  0  0  0  0  0  0  0  0  0  0
   94.7864   98.5766  121.8617 H   0  0  0  0  0  0  0  0  0  0  0  0
   96.5596   99.0208  120.2524 H   0  0  0  0  0  0  0  0  0  0  0  0
   98.2846  100.6333  120.7446 H   0  0  0  0  0  0  0  0  0  0  0  0
   98.2897  101.8508  122.8628 H   0  0  0  0  0  0  0  0  0  0  0  0
   97.9578  102.4493  125.0854 H   0  0  0  0  0  0  0  0  0  0  0  0
   97.0109  102.1424  126.5484 H   0  0  0  0  0  0  0  0  0  0  0  0
   96.6930  104.0377  123.3269 H   0  0  0  0  0  0  0  0  0  0  0  0
   95.6603  106.1998  123.2403 H   0  0  0  0  0  0  0  0  0  0  0  0
   94.7953  106.0752  127.2240 H   0  0  0  0  0  0  0  0  0  0  0  0
   95.7987  103.9087  127.4424 H   0  0  0  0  0  0  0  0  0  0  0  0
  1  2  2  0
  2  3  1  0
  3  4  2  0
  4  5  1  0
  4 25  1  0
  5  6  2  0
  5 26  1  0
  6  7  1  0
  6 27  1  0
  7  8  2  0
  7 28  1  0
  8  9  1  0
  8  3  1  0
  9 18  1  0
  9  1  1  0
 10 11  1  0
 10 16  1  0
 10 17  1  0
 11 12  2  0
 12 13  1  0
 13 14  1  0
 14 15  2  0
 15  1  1  0
 15 11  1  0
 18 19  1  0
 18 29  1  0
 18 30  1  0
 19 20  2  0
 20 21  1  0
 20 31  1  0
 21 22  2  0
 21 32  1  0
 22 23  1  0
 23 24  2  0
 23 33  1  0
 24 19  1  0
 24 34  1  0
M  END
>  <minimizedAffinity>  (8) 
-5.67689

>  <mol_id>  (8) 
66226

>  <source_index>  (8) 
7

>  <layer>  (8) 
L4

>  <uniprot>  (8) 
Q9HB14

>  <paff>  (8) 
7.3372000000000002

>  <smiles>  (8) 
Nc1nonc1-c1nc2ccccc2n1Cc1ccncc1

$$$$
L4:Q9HB14:71681
     RDKit          3D

 34 37  0  0  0  0  0  0  0  0999 V2000
   95.0397  100.6768  125.2750 C   0  0  0  0  0  0  0  0  0  0  0  0
   94.5680   99.8307  124.3740 N   0  0  0  0  0  0  0  0  0  0  0  0
   95.4227   99.8940  123.3076 C   0  0  0  0  0  0  0  0  0  0  0  0
   95.3738   99.1993  122.0925 C   0  0  0  0  0  0  0  0  0  0  0  0
   96.3753   99.4483  121.1570 C   0  0  0  0  0  0  0  0  0  0  0  0
   96.3503   98.7961  119.9866 F   0  0  0  0  0  0  0  0  0  0  0  0
   97.4009  100.3559  121.4028 C   0  0  0  0  0  0  0  0  0  0  0  0
   97.4619  101.0575  122.6111 C   0  0  0  0  0  0  0  0  0  0  0  0
   96.4510  100.8001  123.5482 C   0  0  0  0  0  0  0  0  0  0  0  0
   96.1898  101.2865  124.8169 N   0  0  0  0  0  0  0  0  0  0  0  0
   92.6064  102.5041  126.0004 N   0  0  0  0  0  0  0  0  0  0  0  0
   93.2140  101.7150  126.9090 C   0  0  0  0  0  0  0  0  0  0  0  0
   92.8543  101.5964  128.1849 N   0  0  0  0  0  0  0  0  0  0  0  0
   93.7629  100.7018  128.7375 O   0  0  0  0  0  0  0  0  0  0  0  0
   94.6760  100.2511  127.7875 N   0  0  0  0  0  0  0  0  0  0  0  0
   94.3284  100.8766  126.6612 C   0  0  0  0  0  0  0  0  0  0  0  0
   91.6710  102.8452  126.1878 H   0  0  0  0  0  0  0  0  0  0  0  0
   92.8266  102.3757  125.0116 H   0  0  0  0  0  0  0  0  0  0  0  0
   96.9734  102.3198  125.4786 C   0  0  0  0  0  0  0  0  0  0  0  0
   96.3467  103.6868  125.3578 C   0  0  0  0  0  0  0  0  0  0  0  0
   95.7772  104.3054  126.4772 C   0  0  0  0  0  0  0  0  0  0  0  0
   95.2209  105.5679  126.3356 C   0  0  0  0  0  0  0  0  0  0  0  0
   95.1984  106.2507  125.1736 N   0  0  0  0  0  0  0  0  0  0  0  0
   95.7607  105.6476  124.1060 C   0  0  0  0  0  0  0  0  0  0  0  0
   96.3412  104.3888  124.1476 C   0  0  0  0  0  0  0  0  0  0  0  0
   94.6189   98.5236  121.8963 H   0  0  0  0  0  0  0  0  0  0  0  0
   98.1253  100.5132  120.6848 H   0  0  0  0  0  0  0  0  0  0  0  0
   98.2168  101.7341  122.8043 H   0  0  0  0  0  0  0  0  0  0  0  0
   97.9471  102.3484  125.0358 H   0  0  0  0  0  0  0  0  0  0  0  0
   97.0213  102.0750  126.5191 H   0  0  0  0  0  0  0  0  0  0  0  0
   95.7714  103.8296  127.3930 H   0  0  0  0  0  0  0  0  0  0  0  0
   94.8000  106.0100  127.1677 H   0  0  0  0  0  0  0  0  0  0  0  0
   95.7588  106.1523  123.2059 H   0  0  0  0  0  0  0  0  0  0  0  0
   96.7620  103.9768  123.3001 H   0  0  0  0  0  0  0  0  0  0  0  0
  1  2  2  0
  2  3  1  0
  3  4  2  0
  4  5  1  0
  4 26  1  0
  5  6  1  0
  5  7  2  0
  7  8  1  0
  7 27  1  0
  8  9  2  0
  8 28  1  0
  9 10  1  0
  9  3  1  0
 10 19  1  0
 10  1  1  0
 11 12  1  0
 11 17  1  0
 11 18  1  0
 12 13  2  0
 13 14  1  0
 14 15  1  0
 15 16  2  0
 16  1  1  0
 16 12  1  0
 19 20  1  0
 19 29  1  0
 19 30  1  0
 20 21  2  0
 21 22  1  0
 21 31  1  0
 22 23  2  0
 22 32  1  0
 23 24  1  0
 24 25  2  0
 24 33  1  0
 25 20  1  0
 25 34  1  0
M  END
>  <minimizedAffinity>  (9) 
-5.81676

>  <mol_id>  (9) 
71681

>  <source_index>  (9) 
8

>  <layer>  (9) 
L4

>  <uniprot>  (9) 
Q9HB14

>  <paff>  (9) 
7.3768000000000002

>  <smiles>  (9) 
Nc1nonc1-c1nc2cc(F)ccc2n1Cc1ccncc1

$$$$
L4:Q9HB14:74053
     RDKit          3D

 35 38  0  0  0  0  0  0  0  0999 V2000
   95.2289  100.8143  125.2337 C   0  0  0  0  0  0  0  0  0  0  0  0
   94.7144  100.1218  124.2306 N   0  0  0  0  0  0  0  0  0  0  0  0
   95.6402  100.1340  123.2288 C   0  0  0  0  0  0  0  0  0  0  0  0
   95.6086   99.4950  121.9811 C   0  0  0  0  0  0  0  0  0  0  0  0
   96.6894   99.6640  121.1095 C   0  0  0  0  0  0  0  0  0  0  0  0
   97.7765  100.4587  121.4726 C   0  0  0  0  0  0  0  0  0  0  0  0
   97.8195  101.1097  122.7116 C   0  0  0  0  0  0  0  0  0  0  0  0
   96.7306  100.9209  123.5752 C   0  0  0  0  0  0  0  0  0  0  0  0
   96.4036  101.4205  124.8259 N   0  0  0  0  0  0  0  0  0  0  0  0
   92.4870  102.6113  126.3802 C   0  0  0  0  0  0  0  0  0  0  0  0
   93.3151  101.5819  127.0345 C   0  0  0  0  0  0  0  0  0  0  0  0
   93.0519  101.2816  128.3111 N   0  0  0  0  0  0  0  0  0  0  0  0
   94.0800  100.4416  128.7065 O   0  0  0  0  0  0  0  0  0  0  0  0
   94.9755  100.2375  127.6740 N   0  0  0  0  0  0  0  0  0  0  0  0
   94.4691  100.8851  126.6173 C   0  0  0  0  0  0  0  0  0  0  0  0
   97.0804  102.5611  125.4282 C   0  0  0  0  0  0  0  0  0  0  0  0
   96.3194  103.8631  125.3336 C   0  0  0  0  0  0  0  0  0  0  0  0
   96.2126  104.5945  124.1438 C   0  0  0  0  0  0  0  0  0  0  0  0
   95.5323  105.8033  124.1559 C   0  0  0  0  0  0  0  0  0  0  0  0
   94.9786  106.3407  125.2618 N   0  0  0  0  0  0  0  0  0  0  0  0
   95.1104  105.6420  126.4059 C   0  0  0  0  0  0  0  0  0  0  0  0
   95.7685  104.4240  126.4929 C   0  0  0  0  0  0  0  0  0  0  0  0
   94.8023   98.9104  121.7107 H   0  0  0  0  0  0  0  0  0  0  0  0
   96.6824   99.1965  120.1895 H   0  0  0  0  0  0  0  0  0  0  0  0
   98.5645  100.5691  120.8154 H   0  0  0  0  0  0  0  0  0  0  0  0
   98.6198  101.7042  122.9784 H   0  0  0  0  0  0  0  0  0  0  0  0
   91.6869  102.8930  127.0324 H   0  0  0  0  0  0  0  0  0  0  0  0
   92.0839  102.2192  125.4699 H   0  0  0  0  0  0  0  0  0  0  0  0
   93.0892  103.4688  126.1635 H   0  0  0  0  0  0  0  0  0  0  0  0
   98.0225  102.6882  124.9370 H   0  0  0  0  0  0  0  0  0  0  0  0
   97.1783  102.3410  126.4707 H   0  0  0  0  0  0  0  0  0  0  0  0
   96.6338  104.2393  123.2712 H   0  0  0  0  0  0  0  0  0  0  0  0
   95.4449  106.3211  123.2675 H   0  0  0  0  0  0  0  0  0  0  0  0
   94.6984  106.0352  127.2665 H   0  0  0  0  0  0  0  0  0  0  0  0
   95.8511  103.9377  127.3994 H   0  0  0  0  0  0  0  0  0  0  0  0
  1  2  2  0
  2  3  1  0
  3  4  2  0
  4  5  1  0
  4 23  1  0
  5  6  2  0
  5 24  1  0
  6  7  1  0
  6 25  1  0
  7  8  2  0
  7 26  1  0
  8  9  1  0
  8  3  1  0
  9 16  1  0
  9  1  1  0
 10 11  1  0
 10 27  1  0
 10 28  1  0
 10 29  1  0
 11 12  2  0
 12 13  1  0
 13 14  1  0
 14 15  2  0
 15  1  1  0
 15 11  1  0
 16 17  1  0
 16 30  1  0
 16 31  1  0
 17 18  2  0
 18 19  1  0
 18 32  1  0
 19 20  2  0
 19 33  1  0
 20 21  1  0
 21 22  2  0
 21 34  1  0
 22 17  1  0
 22 35  1  0
M  END
>  <minimizedAffinity>  (10) 
-5.76733

>  <mol_id>  (10) 
74053

>  <source_index>  (10) 
9

>  <layer>  (10) 
L4

>  <uniprot>  (10) 
Q9HB14

>  <paff>  (10) 
7.0506000000000002

>  <smiles>  (10) 
Cc1nonc1-c1nc2ccccc2n1Cc1ccncc1

$$$$
