L3:P40879:14931
     RDKit          3D

 43 45  0  0  0  0  0  0  0  0999 V2000
  125.5380   90.9402  121.8423 C   0  0  0  0  0  0  0  0  0  0  0  0
  124.5959   90.9318  123.0195 C   0  0  0  0  0  0  0  0  0  0  0  0
  123.8873   89.8495  123.4108 C   0  0  0  0  0  0  0  0  0  0  0  0
  122.9174   89.9140  124.5410 C   0  0  0  0  0  0  0  0  0  0  0  0
  122.2754   88.9274  124.8873 O   0  0  0  0  0  0  0  0  0  0  0  0
  122.7749   91.1233  125.1908 O   0  0  0  0  0  0  0  0  0  0  0  0
  123.5239   92.2488  124.8177 C   0  0  0  0  0  0  0  0  0  0  0  0
  123.3198   93.4156  125.5572 C   0  0  0  0  0  0  0  0  0  0  0  0
  122.4329   93.4112  126.5655 F   0  0  0  0  0  0  0  0  0  0  0  0
  124.0239   94.5825  125.2590 C   0  0  0  0  0  0  0  0  0  0  0  0
  124.9406   94.5529  124.2092 C   0  0  0  0  0  0  0  0  0  0  0  0
  125.1391   93.3729  123.4721 C   0  0  0  0  0  0  0  0  0  0  0  0
  124.4285   92.1978  123.7626 C   0  0  0  0  0  0  0  0  0  0  0  0
  123.9571   88.4723  122.7901 C   0  0  0  0  0  0  0  0  0  0  0  0
  123.3326   88.4872  121.4134 C   0  0  0  0  0  0  0  0  0  0  0  0
  122.3570   89.1222  121.0477 O   0  0  0  0  0  0  0  0  0  0  0  0
  124.0259   87.7355  120.5336 O   0  0  0  0  0  0  0  0  0  0  0  0
  123.5118   87.8071  119.7016 H   0  0  0  0  0  0  0  0  0  0  0  0
  123.7480   95.6632  126.0490 O   0  0  0  0  0  0  0  0  0  0  0  0
  122.8089   96.6188  125.5585 C   0  0  0  0  0  0  0  0  0  0  0  0
  123.1223   97.9830  126.1326 C   0  0  0  0  0  0  0  0  0  0  0  0
  124.0047   98.1250  127.2129 C   0  0  0  0  0  0  0  0  0  0  0  0
  124.2664   99.3817  127.7587 C   0  0  0  0  0  0  0  0  0  0  0  0
  123.6388  100.5135  127.2403 C   0  0  0  0  0  0  0  0  0  0  0  0
  122.7346  100.3985  126.1749 C   0  0  0  0  0  0  0  0  0  0  0  0
  122.4862   99.1278  125.6267 C   0  0  0  0  0  0  0  0  0  0  0  0
  122.0667  101.6234  125.6004 C   0  0  0  0  0  0  0  0  0  0  0  0
  122.6234  102.7800  126.0539 F   0  0  0  0  0  0  0  0  0  0  0  0
  120.7398  101.7031  125.8992 F   0  0  0  0  0  0  0  0  0  0  0  0
  122.1428  101.6814  124.2404 F   0  0  0  0  0  0  0  0  0  0  0  0
  125.5641   89.9665  121.3994 H   0  0  0  0  0  0  0  0  0  0  0  0
  126.5197   91.2080  122.1730 H   0  0  0  0  0  0  0  0  0  0  0  0
  125.1987   91.6520  121.1190 H   0  0  0  0  0  0  0  0  0  0  0  0
  125.4765   95.4023  123.9719 H   0  0  0  0  0  0  0  0  0  0  0  0
  125.8231   93.3703  122.6994 H   0  0  0  0  0  0  0  0  0  0  0  0
  123.4292   87.7782  123.4101 H   0  0  0  0  0  0  0  0  0  0  0  0
  124.9828   88.1796  122.7048 H   0  0  0  0  0  0  0  0  0  0  0  0
  121.8211   96.3287  125.8500 H   0  0  0  0  0  0  0  0  0  0  0  0
  122.8709   96.6608  124.4911 H   0  0  0  0  0  0  0  0  0  0  0  0
  124.4656   97.2907  127.6085 H   0  0  0  0  0  0  0  0  0  0  0  0
  124.9256   99.4738  128.5474 H   0  0  0  0  0  0  0  0  0  0  0  0
  123.8410  101.4418  127.6433 H   0  0  0  0  0  0  0  0  0  0  0  0
  121.8254   99.0351  124.8395 H   0  0  0  0  0  0  0  0  0  0  0  0
  1  2  1  0
  1 31  1  0
  1 32  1  0
  1 33  1  0
  2  3  2  0
  3 14  1  0
  3  4  1  0
  4  5  2  0
  4  6  1  0
  6  7  1  0
  7  8  2  0
  8  9  1  0
  8 10  1  0
 10 19  1  0
 10 11  2  0
 11 12  1  0
 11 34  1  0
 12 13  2  0
 12 35  1  0
 13  2  1  0
 13  7  1  0
 14 15  1  0
 14 36  1  0
 14 37  1  0
 15 16  2  0
 15 17  1  0
 17 18  1  0
 19 20  1  0
 20 21  1  0
 20 38  1  0
 20 39  1  0
 21 22  2  0
 22 23  1  0
 22 40  1  0
 23 24  2  0
 23 41  1  0
 24 25  1  0
 24 42  1  0
 25 27  1  0
 25 26  2  0
 26 21  1  0
 26 43  1  0
 27 28  1  0
 27 29  1  0
 27 30  1  0
M  END
>  <minimizedAffinity>  (1) 
-10.22600

>  <mol_id>  (1) 
14931

>  <source_index>  (1) 
0

>  <layer>  (1) 
L3

>  <uniprot>  (1) 
P40879

>  <paff>  (1) 
7.0605000000000002

>  <smiles>  (1) 
Cc1c(CC(=O)O)c(=O)oc2c(F)c(OCc3cccc(C(F)(F)F)c3)ccc12

$$$$
L3:P40879:35122
     RDKit          3D

 46 48  0  0  0  0  0  0  0  0999 V2000
  122.4105   92.1564  120.3753 C   0  0  0  0  0  0  0  0  0  0  0  0
  123.4253   91.8835  121.4570 C   0  0  0  0  0  0  0  0  0  0  0  0
  124.2112   90.7851  121.4902 C   0  0  0  0  0  0  0  0  0  0  0  0
  125.2458   90.5990  122.5438 C   0  0  0  0  0  0  0  0  0  0  0  0
  125.9485   89.5936  122.5815 O   0  0  0  0  0  0  0  0  0  0  0  0
  125.3802   91.5987  123.4857 O   0  0  0  0  0  0  0  0  0  0  0  0
  124.5544   92.7393  123.4969 C   0  0  0  0  0  0  0  0  0  0  0  0
  124.7692   93.6709  124.5322 C   0  0  0  0  0  0  0  0  0  0  0  0
  125.8390   93.4343  125.5648 C   0  0  0  0  0  0  0  0  0  0  0  0
  123.9196   94.7841  124.6169 C   0  0  0  0  0  0  0  0  0  0  0  0
  122.9375   94.9730  123.6434 C   0  0  0  0  0  0  0  0  0  0  0  0
  122.7662   94.0425  122.6101 C   0  0  0  0  0  0  0  0  0  0  0  0
  123.5713   92.9010  122.5205 C   0  0  0  0  0  0  0  0  0  0  0  0
  124.1689   89.6325  120.5131 C   0  0  0  0  0  0  0  0  0  0  0  0
  123.0814   88.6551  120.8976 C   0  0  0  0  0  0  0  0  0  0  0  0
  122.3773   88.6785  121.8935 O   0  0  0  0  0  0  0  0  0  0  0  0
  122.9795   87.6383  120.0164 O   0  0  0  0  0  0  0  0  0  0  0  0
  122.2374   87.0994  120.3635 H   0  0  0  0  0  0  0  0  0  0  0  0
  124.1500   95.6515  125.6517 O   0  0  0  0  0  0  0  0  0  0  0  0
  123.0165   96.1961  126.3337 C   0  0  0  0  0  0  0  0  0  0  0  0
  123.1722   97.6594  126.6889 C   0  0  0  0  0  0  0  0  0  0  0  0
  124.2937   98.0754  127.4207 C   0  0  0  0  0  0  0  0  0  0  0  0
  124.4747   99.4211  127.7403 C   0  0  0  0  0  0  0  0  0  0  0  0
  123.5414  100.3698  127.3248 C   0  0  0  0  0  0  0  0  0  0  0  0
  122.4158   99.9819  126.5863 C   0  0  0  0  0  0  0  0  0  0  0  0
  122.2476   98.6259  126.2632 C   0  0  0  0  0  0  0  0  0  0  0  0
  121.4238  101.0078  126.1017 C   0  0  0  0  0  0  0  0  0  0  0  0
  121.2044  102.0058  127.0027 F   0  0  0  0  0  0  0  0  0  0  0  0
  121.8131  101.6294  124.9522 F   0  0  0  0  0  0  0  0  0  0  0  0
  122.4079   91.3464  119.6761 H   0  0  0  0  0  0  0  0  0  0  0  0
  122.6645   93.0640  119.8688 H   0  0  0  0  0  0  0  0  0  0  0  0
  121.4391   92.2523  120.8136 H   0  0  0  0  0  0  0  0  0  0  0  0
  126.3754   92.5402  125.3243 H   0  0  0  0  0  0  0  0  0  0  0  0
  125.3872   93.3307  126.5292 H   0  0  0  0  0  0  0  0  0  0  0  0
  126.5148   94.2639  125.5748 H   0  0  0  0  0  0  0  0  0  0  0  0
  122.3310   95.8070  123.6851 H   0  0  0  0  0  0  0  0  0  0  0  0
  122.0327   94.2017  121.9018 H   0  0  0  0  0  0  0  0  0  0  0  0
  125.1134   89.1297  120.5200 H   0  0  0  0  0  0  0  0  0  0  0  0
  123.9626   90.0141  119.5350 H   0  0  0  0  0  0  0  0  0  0  0  0
  122.8662   95.6423  127.2368 H   0  0  0  0  0  0  0  0  0  0  0  0
  122.1821   96.1205  125.6682 H   0  0  0  0  0  0  0  0  0  0  0  0
  124.9919   97.3793  127.7257 H   0  0  0  0  0  0  0  0  0  0  0  0
  125.3005   99.7148  128.2850 H   0  0  0  0  0  0  0  0  0  0  0  0
  123.6806  101.3643  127.5628 H   0  0  0  0  0  0  0  0  0  0  0  0
  121.4308   98.3351  125.7035 H   0  0  0  0  0  0  0  0  0  0  0  0
  120.5361  100.4319  125.9430 H   0  0  0  0  0  0  0  0  0  0  0  0
  1  2  1  0
  1 30  1  0
  1 31  1  0
  1 32  1  0
  2  3  2  0
  3 14  1  0
  3  4  1  0
  4  5  2  0
  4  6  1  0
  6  7  1  0
  7  8  2  0
  8  9  1  0
  8 10  1  0
  9 33  1  0
  9 34  1  0
  9 35  1  0
 10 19  1  0
 10 11  2  0
 11 12  1  0
 11 36  1  0
 12 13  2  0
 12 37  1  0
 13  2  1  0
 13  7  1  0
 14 15  1  0
 14 38  1  0
 14 39  1  0
 15 16  2  0
 15 17  1  0
 17 18  1  0
 19 20  1  0
 20 21  1  0
 20 40  1  0
 20 41  1  0
 21 22  2  0
 22 23  1  0
 22 42  1  0
 23 24  2  0
 23 43  1  0
 24 25  1  0
 24 44  1  0
 25 27  1  0
 25 26  2  0
 26 21  1  0
 26 45  1  0
 27 28  1  0
 27 29  1  0
 27 46  1  0
M  END
>  <minimizedAffinity>  (2) 
-10.14824

>  <mol_id>  (2) 
35122

>  <source_index>  (2) 
1

>  <layer>  (2) 
L3

>  <uniprot>  (2) 
P40879

>  <paff>  (2) 
6.4949000000000003

>  <smiles>  (2) 
Cc1c(CC(=O)O)c(=O)oc2c(C)c(OCc3cccc(C(F)F)c3)ccc12

$$$$
L3:P40879:53728
     RDKit          3D

 43 45  0  0  0  0  0  0  0  0999 V2000
  122.4146   92.4693  120.4588 C   0  0  0  0  0  0  0  0  0  0  0  0
  123.3852   92.1627  121.5720 C   0  0  0  0  0  0  0  0  0  0  0  0
  124.1430   91.0451  121.6193 C   0  0  0  0  0  0  0  0  0  0  0  0
  125.1384   90.8221  122.7036 C   0  0  0  0  0  0  0  0  0  0  0  0
  125.8255   89.8067  122.7427 O   0  0  0  0  0  0  0  0  0  0  0  0
  125.2512   91.8006  123.6695 O   0  0  0  0  0  0  0  0  0  0  0  0
  124.4531   92.9603  123.6658 C   0  0  0  0  0  0  0  0  0  0  0  0
  124.6309   93.8786  124.7138 C   0  0  0  0  0  0  0  0  0  0  0  0
  125.8117   93.5637  125.9459 Cl  0  0  0  0  0  0  0  0  0  0  0  0
  123.8573   95.0476  124.7599 C   0  0  0  0  0  0  0  0  0  0  0  0
  122.9134   95.2640  123.7548 C   0  0  0  0  0  0  0  0  0  0  0  0
  122.7499   94.3352  122.7159 C   0  0  0  0  0  0  0  0  0  0  0  0
  123.5215   93.1665  122.6497 C   0  0  0  0  0  0  0  0  0  0  0  0
  124.1087   89.9056  120.6256 C   0  0  0  0  0  0  0  0  0  0  0  0
  123.2073   88.8009  121.1280 C   0  0  0  0  0  0  0  0  0  0  0  0
  121.9945   88.8340  121.2577 O   0  0  0  0  0  0  0  0  0  0  0  0
  123.9047   87.7118  121.5115 O   0  0  0  0  0  0  0  0  0  0  0  0
  123.2147   87.0715  121.7865 H   0  0  0  0  0  0  0  0  0  0  0  0
  124.0769   95.8954  125.8123 O   0  0  0  0  0  0  0  0  0  0  0  0
  122.9441   96.4124  126.5085 C   0  0  0  0  0  0  0  0  0  0  0  0
  123.1724   97.8794  126.7895 C   0  0  0  0  0  0  0  0  0  0  0  0
  124.2937   98.3019  127.5154 C   0  0  0  0  0  0  0  0  0  0  0  0
  124.4890   99.6555  127.7924 C   0  0  0  0  0  0  0  0  0  0  0  0
  123.5632  100.6016  127.3528 C   0  0  0  0  0  0  0  0  0  0  0  0
  122.4261  100.2030  126.6386 C   0  0  0  0  0  0  0  0  0  0  0  0
  122.2414   98.8396  126.3615 C   0  0  0  0  0  0  0  0  0  0  0  0
  121.4374  101.2201  126.1306 C   0  0  0  0  0  0  0  0  0  0  0  0
  121.3897  102.3440  126.9002 F   0  0  0  0  0  0  0  0  0  0  0  0
  121.7140  101.6532  124.8673 F   0  0  0  0  0  0  0  0  0  0  0  0
  122.4159   91.6652  119.7529 H   0  0  0  0  0  0  0  0  0  0  0  0
  122.7079   93.3743  119.9690 H   0  0  0  0  0  0  0  0  0  0  0  0
  121.4315   92.5859  120.8648 H   0  0  0  0  0  0  0  0  0  0  0  0
  122.3302   96.1152  123.7759 H   0  0  0  0  0  0  0  0  0  0  0  0
  122.0455   94.5165  121.9837 H   0  0  0  0  0  0  0  0  0  0  0  0
  125.0987   89.5215  120.4941 H   0  0  0  0  0  0  0  0  0  0  0  0
  123.7301   90.2676  119.6926 H   0  0  0  0  0  0  0  0  0  0  0  0
  122.8176   95.8851  127.4309 H   0  0  0  0  0  0  0  0  0  0  0  0
  122.0640   96.2893  125.9125 H   0  0  0  0  0  0  0  0  0  0  0  0
  124.9804   97.6069  127.8477 H   0  0  0  0  0  0  0  0  0  0  0  0
  125.3205   99.9573  128.3239 H   0  0  0  0  0  0  0  0  0  0  0  0
  123.7170  101.6018  127.5551 H   0  0  0  0  0  0  0  0  0  0  0  0
  121.4072   98.5376  125.8343 H   0  0  0  0  0  0  0  0  0  0  0  0
  120.5069  100.6926  126.1582 H   0  0  0  0  0  0  0  0  0  0  0  0
  1  2  1  0
  1 30  1  0
  1 31  1  0
  1 32  1  0
  2  3  2  0
  3 14  1  0
  3  4  1  0
  4  5  2  0
  4  6  1  0
  6  7  1  0
  7  8  2  0
  8  9  1  0
  8 10  1  0
 10 19  1  0
 10 11  2  0
 11 12  1  0
 11 33  1  0
 12 13  2  0
 12 34  1  0
 13  2  1  0
 13  7  1  0
 14 15  1  0
 14 35  1  0
 14 36  1  0
 15 16  2  0
 15 17  1  0
 17 18  1  0
 19 20  1  0
 20 21  1  0
 20 37  1  0
 20 38  1  0
 21 22  2  0
 22 23  1  0
 22 39  1  0
 23 24  2  0
 23 40  1  0
 24 25  1  0
 24 41  1  0
 25 27  1  0
 25 26  2  0
 26 21  1  0
 26 42  1  0
 27 28  1  0
 27 29  1  0
 27 43  1  0
M  END
>  <minimizedAffinity>  (3) 
-9.73912

>  <mol_id>  (3) 
53728

>  <source_index>  (3) 
2

>  <layer>  (3) 
L3

>  <uniprot>  (3) 
P40879

>  <paff>  (3) 
6.6737000000000002

>  <smiles>  (3) 
Cc1c(CC(=O)O)c(=O)oc2c(Cl)c(OCc3cccc(C(F)F)c3)ccc12

$$$$
L3:P40879:81480
     RDKit          3D

 46 48  0  0  0  0  0  0  0  0999 V2000
  124.2187   92.6305  122.1146 C   0  0  0  0  0  0  0  0  0  0  0  0
  123.7382   93.0253  123.4878 C   0  0  0  0  0  0  0  0  0  0  0  0
  123.8034   94.4134  123.7830 C   0  0  0  0  0  0  0  0  0  0  0  0
  123.3192   94.9321  124.9804 C   0  0  0  0  0  0  0  0  0  0  0  0
  122.7388   94.0629  125.8889 C   0  0  0  0  0  0  0  0  0  0  0  0
  122.6860   92.6946  125.6098 C   0  0  0  0  0  0  0  0  0  0  0  0
  122.0008   91.9345  126.5728 O   0  0  0  0  0  0  0  0  0  0  0  0
  121.6910   90.6133  126.3421 C   0  0  0  0  0  0  0  0  0  0  0  0
  120.8990   90.0070  127.0562 O   0  0  0  0  0  0  0  0  0  0  0  0
  122.4121   89.9417  125.2315 C   0  0  0  0  0  0  0  0  0  0  0  0
  123.1848   90.6354  124.3641 C   0  0  0  0  0  0  0  0  0  0  0  0
  124.0870   89.9239  123.3905 C   0  0  0  0  0  0  0  0  0  0  0  0
  123.2210   92.1217  124.4485 C   0  0  0  0  0  0  0  0  0  0  0  0
  123.3273   96.2427  125.3612 O   0  0  0  0  0  0  0  0  0  0  0  0
  122.8841   96.5438  126.6822 C   0  0  0  0  0  0  0  0  0  0  0  0
  123.0933   98.0193  126.9203 C   0  0  0  0  0  0  0  0  0  0  0  0
  124.2541   98.4878  127.5488 C   0  0  0  0  0  0  0  0  0  0  0  0
  124.4429   99.8543  127.7568 C   0  0  0  0  0  0  0  0  0  0  0  0
  123.4773  100.7672  127.3329 C   0  0  0  0  0  0  0  0  0  0  0  0
  122.3104  100.3229  126.6971 C   0  0  0  0  0  0  0  0  0  0  0  0
  122.1323   98.9466  126.4881 C   0  0  0  0  0  0  0  0  0  0  0  0
  121.2873  101.3084  126.1953 C   0  0  0  0  0  0  0  0  0  0  0  0
  121.1217  102.3750  127.0279 F   0  0  0  0  0  0  0  0  0  0  0  0
  121.6047  101.8379  124.9798 F   0  0  0  0  0  0  0  0  0  0  0  0
  122.2013   88.4436  125.2308 C   0  0  0  0  0  0  0  0  0  0  0  0
  123.2336   87.7620  126.1002 C   0  0  0  0  0  0  0  0  0  0  0  0
  124.3131   87.3092  125.7569 O   0  0  0  0  0  0  0  0  0  0  0  0
  122.8140   87.6295  127.3755 O   0  0  0  0  0  0  0  0  0  0  0  0
  123.5698   87.2017  127.8308 H   0  0  0  0  0  0  0  0  0  0  0  0
  124.5581   93.5002  121.5918 H   0  0  0  0  0  0  0  0  0  0  0  0
  123.4148   92.1790  121.5716 H   0  0  0  0  0  0  0  0  0  0  0  0
  125.0242   91.9321  122.2057 H   0  0  0  0  0  0  0  0  0  0  0  0
  124.2212   95.0547  123.0907 H   0  0  0  0  0  0  0  0  0  0  0  0
  122.3455   94.4254  126.7715 H   0  0  0  0  0  0  0  0  0  0  0  0
  123.9295   88.8681  123.4643 H   0  0  0  0  0  0  0  0  0  0  0  0
  125.1076   90.1491  123.6199 H   0  0  0  0  0  0  0  0  0  0  0  0
  123.8650   90.2489  122.3955 H   0  0  0  0  0  0  0  0  0  0  0  0
  123.4496   95.9777  127.3926 H   0  0  0  0  0  0  0  0  0  0  0  0
  121.8499   96.2927  126.7932 H   0  0  0  0  0  0  0  0  0  0  0  0
  124.9745   97.8176  127.8601 H   0  0  0  0  0  0  0  0  0  0  0  0
  125.2988  100.1904  128.2253 H   0  0  0  0  0  0  0  0  0  0  0  0
  123.6233  101.7769  127.4886 H   0  0  0  0  0  0  0  0  0  0  0  0
  121.2818   98.6112  126.0093 H   0  0  0  0  0  0  0  0  0  0  0  0
  120.3930  100.7238  126.1362 H   0  0  0  0  0  0  0  0  0  0  0  0
  122.2870   88.0766  124.2294 H   0  0  0  0  0  0  0  0  0  0  0  0
  121.2274   88.2315  125.6199 H   0  0  0  0  0  0  0  0  0  0  0  0
  1  2  1  0
  1 30  1  0
  1 31  1  0
  1 32  1  0
  2  3  2  0
  3  4  1  0
  3 33  1  0
  4 14  1  0
  4  5  2  0
  5  6  1  0
  5 34  1  0
  6  7  1  0
  7  8  1  0
  8  9  2  0
  8 10  1  0
 10 25  1  0
 10 11  2  0
 11 12  1  0
 11 13  1  0
 12 35  1  0
 12 36  1  0
 12 37  1  0
 13  2  1  0
 13  6  2  0
 14 15  1  0
 15 16  1  0
 15 38  1  0
 15 39  1  0
 16 17  2  0
 17 18  1  0
 17 40  1  0
 18 19  2  0
 18 41  1  0
 19 20  1  0
 19 42  1  0
 20 22  1  0
 20 21  2  0
 21 16  1  0
 21 43  1  0
 22 23  1  0
 22 24  1  0
 22 44  1  0
 25 26  1  0
 25 45  1  0
 25 46  1  0
 26 27  2  0
 26 28  1  0
 28 29  1  0
M  END
>  <minimizedAffinity>  (4) 
-9.01234

>  <mol_id>  (4) 
81480

>  <source_index>  (4) 
3

>  <layer>  (4) 
L3

>  <uniprot>  (4) 
P40879

>  <paff>  (4) 
6.0814000000000004

>  <smiles>  (4) 
Cc1cc(OCc2cccc(C(F)F)c2)cc2oc(=O)c(CC(=O)O)c(C)c12

$$$$
L3:P40879:105680
     RDKit          3D

 46 48  0  0  0  0  0  0  0  0999 V2000
  126.5638   93.3670  123.2588 C   0  0  0  0  0  0  0  0  0  0  0  0
  125.2668   93.2466  124.0147 C   0  0  0  0  0  0  0  0  0  0  0  0
  124.9040   94.3762  124.7891 C   0  0  0  0  0  0  0  0  0  0  0  0
  123.7733   94.3907  125.6042 C   0  0  0  0  0  0  0  0  0  0  0  0
  122.9964   93.2493  125.6732 C   0  0  0  0  0  0  0  0  0  0  0  0
  123.3432   92.1352  124.8980 C   0  0  0  0  0  0  0  0  0  0  0  0
  122.5283   91.0097  125.1168 O   0  0  0  0  0  0  0  0  0  0  0  0
  122.8591   89.7811  124.5902 C   0  0  0  0  0  0  0  0  0  0  0  0
  122.3013   88.7548  124.9640 O   0  0  0  0  0  0  0  0  0  0  0  0
  123.8715   89.7704  123.5047 C   0  0  0  0  0  0  0  0  0  0  0  0
  124.5821   90.8766  123.1857 C   0  0  0  0  0  0  0  0  0  0  0  0
  125.4376   90.9188  121.9467 C   0  0  0  0  0  0  0  0  0  0  0  0
  124.4333   92.1036  124.0159 C   0  0  0  0  0  0  0  0  0  0  0  0
  123.5687   95.5556  126.2857 O   0  0  0  0  0  0  0  0  0  0  0  0
  122.7925   96.5622  125.6347 C   0  0  0  0  0  0  0  0  0  0  0  0
  123.1096   97.9033  126.2569 C   0  0  0  0  0  0  0  0  0  0  0  0
  124.1469   98.0287  127.1903 C   0  0  0  0  0  0  0  0  0  0  0  0
  124.4200   99.2608  127.7856 C   0  0  0  0  0  0  0  0  0  0  0  0
  123.6576  100.3816  127.4577 C   0  0  0  0  0  0  0  0  0  0  0  0
  122.6146  100.2841  126.5255 C   0  0  0  0  0  0  0  0  0  0  0  0
  122.3422   99.0362  125.9408 C   0  0  0  0  0  0  0  0  0  0  0  0
  121.7720  101.4880  126.1848 C   0  0  0  0  0  0  0  0  0  0  0  0
  121.6745  101.7132  124.8440 F   0  0  0  0  0  0  0  0  0  0  0  0
  122.2711  102.6367  126.7198 F   0  0  0  0  0  0  0  0  0  0  0  0
  120.4903  101.3917  126.6370 F   0  0  0  0  0  0  0  0  0  0  0  0
  123.9639   88.4261  122.8167 C   0  0  0  0  0  0  0  0  0  0  0  0
  123.3293   88.4873  121.4458 C   0  0  0  0  0  0  0  0  0  0  0  0
  122.3472   89.1274  121.1081 O   0  0  0  0  0  0  0  0  0  0  0  0
  124.0174   87.7657  120.5368 O   0  0  0  0  0  0  0  0  0  0  0  0
  123.5004   87.8695  119.7101 H   0  0  0  0  0  0  0  0  0  0  0  0
  126.9893   94.3333  123.4322 H   0  0  0  0  0  0  0  0  0  0  0  0
  126.3797   93.2409  122.2123 H   0  0  0  0  0  0  0  0  0  0  0  0
  127.2438   92.6123  123.5948 H   0  0  0  0  0  0  0  0  0  0  0  0
  125.4984   95.2188  124.7482 H   0  0  0  0  0  0  0  0  0  0  0  0
  122.1693   93.2183  126.2896 H   0  0  0  0  0  0  0  0  0  0  0  0
  125.4319   89.9577  121.4764 H   0  0  0  0  0  0  0  0  0  0  0  0
  126.4404   91.1790  122.2144 H   0  0  0  0  0  0  0  0  0  0  0  0
  125.0482   91.6497  121.2691 H   0  0  0  0  0  0  0  0  0  0  0  0
  121.7513   96.3472  125.7556 H   0  0  0  0  0  0  0  0  0  0  0  0
  123.0266   96.5822  124.5908 H   0  0  0  0  0  0  0  0  0  0  0  0
  124.7136   97.2030  127.4396 H   0  0  0  0  0  0  0  0  0  0  0  0
  125.1879   99.3429  128.4701 H   0  0  0  0  0  0  0  0  0  0  0  0
  123.8625  101.2891  127.9043 H   0  0  0  0  0  0  0  0  0  0  0  0
  121.5649   98.9505  125.2674 H   0  0  0  0  0  0  0  0  0  0  0  0
  123.4558   87.6927  123.4074 H   0  0  0  0  0  0  0  0  0  0  0  0
  124.9955   88.1631  122.7087 H   0  0  0  0  0  0  0  0  0  0  0  0
  1  2  1  0
  1 31  1  0
  1 32  1  0
  1 33  1  0
  2  3  2  0
  3  4  1  0
  3 34  1  0
  4 14  1  0
  4  5  2  0
  5  6  1  0
  5 35  1  0
  6  7  1  0
  7  8  1  0
  8  9  2  0
  8 10  1  0
 10 26  1  0
 10 11  2  0
 11 12  1  0
 11 13  1  0
 12 36  1  0
 12 37  1  0
 12 38  1  0
 13  2  1  0
 13  6  2  0
 14 15  1  0
 15 16  1  0
 15 39  1  0
 15 40  1  0
 16 17  2  0
 17 18  1  0
 17 41  1  0
 18 19  2  0
 18 42  1  0
 19 20  1  0
 19 43  1  0
 20 22  1  0
 20 21  2  0
 21 16  1  0
 21 44  1  0
 22 23  1  0
 22 24  1  0
 22 25  1  0
 26 27  1  0
 26 45  1  0
 26 46  1  0
 27 28  2  0
 27 29  1  0
 29 30  1  0
M  END
>  <minimizedAffinity>  (5) 
-10.44589

>  <mol_id>  (5) 
105680

>  <source_index>  (5) 
4

>  <layer>  (5) 
L3

>  <uniprot>  (5) 
P40879

>  <paff>  (5) 
6.0457999999999998

>  <smiles>  (5) 
Cc1cc(OCc2cccc(C(F)(F)F)c2)cc2oc(=O)c(CC(=O)O)c(C)c12

$$$$
L3:P40879:109901
     RDKit          3D

 43 45  0  0  0  0  0  0  0  0999 V2000
  125.5035   90.9072  121.7668 C   0  0  0  0  0  0  0  0  0  0  0  0
  124.5838   90.8706  122.9618 C   0  0  0  0  0  0  0  0  0  0  0  0
  123.8989   89.7715  123.3472 C   0  0  0  0  0  0  0  0  0  0  0  0
  122.9487   89.8055  124.4927 C   0  0  0  0  0  0  0  0  0  0  0  0
  122.3261   88.8064  124.8374 O   0  0  0  0  0  0  0  0  0  0  0  0
  122.8034   91.0051  125.1582 O   0  0  0  0  0  0  0  0  0  0  0  0
  123.5260   92.1592  124.8007 C   0  0  0  0  0  0  0  0  0  0  0  0
  123.3200   93.3210  125.5630 C   0  0  0  0  0  0  0  0  0  0  0  0
  122.2042   93.2941  126.8914 Cl  0  0  0  0  0  0  0  0  0  0  0  0
  124.0216   94.4958  125.2542 C   0  0  0  0  0  0  0  0  0  0  0  0
  124.9167   94.4766  124.1833 C   0  0  0  0  0  0  0  0  0  0  0  0
  125.1096   93.3063  123.4334 C   0  0  0  0  0  0  0  0  0  0  0  0
  124.4137   92.1250  123.7266 C   0  0  0  0  0  0  0  0  0  0  0  0
  123.9780   88.4047  122.7049 C   0  0  0  0  0  0  0  0  0  0  0  0
  123.3707   88.4417  121.3210 C   0  0  0  0  0  0  0  0  0  0  0  0
  122.3796   89.0562  120.9617 O   0  0  0  0  0  0  0  0  0  0  0  0
  124.0992   87.7406  120.4281 O   0  0  0  0  0  0  0  0  0  0  0  0
  123.5931   87.8205  119.5920 H   0  0  0  0  0  0  0  0  0  0  0  0
  123.7697   95.5914  126.0360 O   0  0  0  0  0  0  0  0  0  0  0  0
  122.8381   96.5615  125.5612 C   0  0  0  0  0  0  0  0  0  0  0  0
  123.1310   97.8996  126.2031 C   0  0  0  0  0  0  0  0  0  0  0  0
  124.1474   98.0141  127.1614 C   0  0  0  0  0  0  0  0  0  0  0  0
  124.3997   99.2354  127.7872 C   0  0  0  0  0  0  0  0  0  0  0  0
  123.6340  100.3563  127.4684 C   0  0  0  0  0  0  0  0  0  0  0  0
  122.6086  100.2695  126.5159 C   0  0  0  0  0  0  0  0  0  0  0  0
  122.3581   99.0325  125.8992 C   0  0  0  0  0  0  0  0  0  0  0  0
  121.7598  101.4740  126.1907 C   0  0  0  0  0  0  0  0  0  0  0  0
  122.2339  102.6310  126.7303 F   0  0  0  0  0  0  0  0  0  0  0  0
  120.4752  101.3585  126.6315 F   0  0  0  0  0  0  0  0  0  0  0  0
  121.6732  101.6954  124.8493 F   0  0  0  0  0  0  0  0  0  0  0  0
  125.5336   89.9400  121.3101 H   0  0  0  0  0  0  0  0  0  0  0  0
  126.4878   91.1833  122.0826 H   0  0  0  0  0  0  0  0  0  0  0  0
  125.1415   91.6243  121.0599 H   0  0  0  0  0  0  0  0  0  0  0  0
  125.4417   95.3313  123.9407 H   0  0  0  0  0  0  0  0  0  0  0  0
  125.7791   93.3154  122.6481 H   0  0  0  0  0  0  0  0  0  0  0  0
  123.4432   87.7000  123.3067 H   0  0  0  0  0  0  0  0  0  0  0  0
  125.0050   88.1144  122.6276 H   0  0  0  0  0  0  0  0  0  0  0  0
  121.8445   96.2549  125.8135 H   0  0  0  0  0  0  0  0  0  0  0  0
  122.9257   96.6493  124.4984 H   0  0  0  0  0  0  0  0  0  0  0  0
  124.7144   97.1874  127.4064 H   0  0  0  0  0  0  0  0  0  0  0  0
  125.1544   99.3093  128.4873 H   0  0  0  0  0  0  0  0  0  0  0  0
  123.8233  101.2562  127.9368 H   0  0  0  0  0  0  0  0  0  0  0  0
  121.5930   98.9547  125.2110 H   0  0  0  0  0  0  0  0  0  0  0  0
  1  2  1  0
  1 31  1  0
  1 32  1  0
  1 33  1  0
  2  3  2  0
  3 14  1  0
  3  4  1  0
  4  5  2  0
  4  6  1  0
  6  7  1  0
  7  8  2  0
  8  9  1  0
  8 10  1  0
 10 19  1  0
 10 11  2  0
 11 12  1  0
 11 34  1  0
 12 13  2  0
 12 35  1  0
 13  2  1  0
 13  7  1  0
 14 15  1  0
 14 36  1  0
 14 37  1  0
 15 16  2  0
 15 17  1  0
 17 18  1  0
 19 20  1  0
 20 21  1  0
 20 38  1  0
 20 39  1  0
 21 22  2  0
 22 23  1  0
 22 40  1  0
 23 24  2  0
 23 41  1  0
 24 25  1  0
 24 42  1  0
 25 27  1  0
 25 26  2  0
 26 21  1  0
 26 43  1  0
 27 28  1  0
 27 29  1  0
 27 30  1  0
M  END
>  <minimizedAffinity>  (6) 
-10.30368

>  <mol_id>  (6) 
109901

>  <source_index>  (6) 
5

>  <layer>  (6) 
L3

>  <uniprot>  (6) 
P40879

>  <paff>  (6) 
7.6021000000000001

>  <smiles>  (6) 
Cc1c(CC(=O)O)c(=O)oc2c(Cl)c(OCc3cccc(C(F)(F)F)c3)ccc12

$$$$
L3:P40879:111688
     RDKit          3D

 43 45  0  0  0  0  0  0  0  0999 V2000
  126.5618   93.3951  123.3409 C   0  0  0  0  0  0  0  0  0  0  0  0
  125.2471   93.3316  124.0756 C   0  0  0  0  0  0  0  0  0  0  0  0
  124.8929   94.5025  124.7977 C   0  0  0  0  0  0  0  0  0  0  0  0
  123.7485   94.5586  125.5880 C   0  0  0  0  0  0  0  0  0  0  0  0
  122.9565   93.4266  125.6834 C   0  0  0  0  0  0  0  0  0  0  0  0
  123.2920   92.2777  124.9621 C   0  0  0  0  0  0  0  0  0  0  0  0
  122.4541   91.1766  125.2074 O   0  0  0  0  0  0  0  0  0  0  0  0
  122.7710   89.9252  124.7293 C   0  0  0  0  0  0  0  0  0  0  0  0
  122.1850   88.9219  125.1226 O   0  0  0  0  0  0  0  0  0  0  0  0
  123.8064   89.8578  123.6672 C   0  0  0  0  0  0  0  0  0  0  0  0
  124.5414   90.9400  123.3217 C   0  0  0  0  0  0  0  0  0  0  0  0
  125.4196   90.9211  122.0984 C   0  0  0  0  0  0  0  0  0  0  0  0
  124.3960   92.1994  124.1030 C   0  0  0  0  0  0  0  0  0  0  0  0
  123.3203   95.6254  126.3240 O   0  0  0  0  0  0  0  0  0  0  0  0
  122.6636   96.6824  125.6261 C   0  0  0  0  0  0  0  0  0  0  0  0
  123.0281   97.9960  126.2772 C   0  0  0  0  0  0  0  0  0  0  0  0
  124.1260   98.0760  127.1484 C   0  0  0  0  0  0  0  0  0  0  0  0
  124.4564   99.2820  127.7694 C   0  0  0  0  0  0  0  0  0  0  0  0
  123.6904  100.4221  127.5312 C   0  0  0  0  0  0  0  0  0  0  0  0
  122.5967  100.3494  126.6715 C   0  0  0  0  0  0  0  0  0  0  0  0
  121.5545  101.8942  126.3492 Br  0  0  0  0  0  0  0  0  0  0  0  0
  122.2608   99.1472  126.0469 C   0  0  0  0  0  0  0  0  0  0  0  0
  123.8916   88.4871  123.0327 C   0  0  0  0  0  0  0  0  0  0  0  0
  123.3063   88.5103  121.6388 C   0  0  0  0  0  0  0  0  0  0  0  0
  122.2741   89.0488  121.2746 O   0  0  0  0  0  0  0  0  0  0  0  0
  124.1039   87.8912  120.7441 O   0  0  0  0  0  0  0  0  0  0  0  0
  123.6083   87.9546  119.9003 H   0  0  0  0  0  0  0  0  0  0  0  0
  127.0029   94.3597  123.4819 H   0  0  0  0  0  0  0  0  0  0  0  0
  126.3955   93.2280  122.2972 H   0  0  0  0  0  0  0  0  0  0  0  0
  127.2201   92.6427  123.7221 H   0  0  0  0  0  0  0  0  0  0  0  0
  125.5006   95.3342  124.7346 H   0  0  0  0  0  0  0  0  0  0  0  0
  122.1192   93.4315  126.2867 H   0  0  0  0  0  0  0  0  0  0  0  0
  125.4069   89.9428  121.6653 H   0  0  0  0  0  0  0  0  0  0  0  0
  126.4215   91.1759  122.3746 H   0  0  0  0  0  0  0  0  0  0  0  0
  125.0544   91.6312  121.3862 H   0  0  0  0  0  0  0  0  0  0  0  0
  121.6041   96.5400  125.6722 H   0  0  0  0  0  0  0  0  0  0  0  0
  122.9707   96.6871  124.6011 H   0  0  0  0  0  0  0  0  0  0  0  0
  124.6948   97.2346  127.3317 H   0  0  0  0  0  0  0  0  0  0  0  0
  125.2680   99.3294  128.4050 H   0  0  0  0  0  0  0  0  0  0  0  0
  123.9322  101.3148  127.9891 H   0  0  0  0  0  0  0  0  0  0  0  0
  121.4464   99.1053  125.4145 H   0  0  0  0  0  0  0  0  0  0  0  0
  123.3467   87.7876  123.6316 H   0  0  0  0  0  0  0  0  0  0  0  0
  124.9200   88.1982  122.9709 H   0  0  0  0  0  0  0  0  0  0  0  0
  1  2  1  0
  1 28  1  0
  1 29  1  0
  1 30  1  0
  2  3  2  0
  3  4  1  0
  3 31  1  0
  4 14  1  0
  4  5  2  0
  5  6  1  0
  5 32  1  0
  6  7  1  0
  7  8  1  0
  8  9  2  0
  8 10  1  0
 10 23  1  0
 10 11  2  0
 11 12  1  0
 11 13  1  0
 12 33  1  0
 12 34  1  0
 12 35  1  0
 13  2  1  0
 13  6  2  0
 14 15  1  0
 15 16  1  0
 15 36  1  0
 15 37  1  0
 16 17  2  0
 17 18  1  0
 17 38  1  0
 18 19  2  0
 18 39  1  0
 19 20  1  0
 19 40  1  0
 20 21  1  0
 20 22  2  0
 22 16  1  0
 22 41  1  0
 23 24  1  0
 23 42  1  0
 23 43  1  0
 24 25  2  0
 24 26  1  0
 26 27  1  0
M  END
>  <minimizedAffinity>  (7) 
-9.43718

>  <mol_id>  (7) 
111688

>  <source_index>  (7) 
6

>  <layer>  (7) 
L3

>  <uniprot>  (7) 
P40879

>  <paff>  (7) 
6.2518000000000002

>  <smiles>  (7) 
Cc1cc(OCc2cccc(Br)c2)cc2oc(=O)c(CC(=O)O)c(C)c12

$$$$
L3:P40879:116771
     RDKit          3D

 43 45  0  0  0  0  0  0  0  0999 V2000
  122.4696   92.3284  120.4053 C   0  0  0  0  0  0  0  0  0  0  0  0
  123.4348   91.9787  121.5097 C   0  0  0  0  0  0  0  0  0  0  0  0
  124.1736   90.8475  121.5356 C   0  0  0  0  0  0  0  0  0  0  0  0
  125.1642   90.5826  122.6178 C   0  0  0  0  0  0  0  0  0  0  0  0
  125.8317   89.5532  122.6331 O   0  0  0  0  0  0  0  0  0  0  0  0
  125.2962   91.5344  123.6085 O   0  0  0  0  0  0  0  0  0  0  0  0
  124.5160   92.6997  123.6142 C   0  0  0  0  0  0  0  0  0  0  0  0
  124.7106   93.5839  124.6772 C   0  0  0  0  0  0  0  0  0  0  0  0
  125.6184   93.2899  125.6223 F   0  0  0  0  0  0  0  0  0  0  0  0
  123.9740   94.7652  124.7678 C   0  0  0  0  0  0  0  0  0  0  0  0
  123.0359   95.0386  123.7736 C   0  0  0  0  0  0  0  0  0  0  0  0
  122.8477   94.1418  122.7080 C   0  0  0  0  0  0  0  0  0  0  0  0
  123.5901   92.9547  122.6082 C   0  0  0  0  0  0  0  0  0  0  0  0
  124.1204   89.7302  120.5178 C   0  0  0  0  0  0  0  0  0  0  0  0
  123.0202   88.7548  120.8692 C   0  0  0  0  0  0  0  0  0  0  0  0
  122.2172   88.8396  121.7839 O   0  0  0  0  0  0  0  0  0  0  0  0
  123.0329   87.6668  120.0719 O   0  0  0  0  0  0  0  0  0  0  0  0
  122.2688   87.1359  120.3813 H   0  0  0  0  0  0  0  0  0  0  0  0
  124.2448   95.5543  125.8506 O   0  0  0  0  0  0  0  0  0  0  0  0
  123.1389   96.0357  126.6124 C   0  0  0  0  0  0  0  0  0  0  0  0
  123.3046   97.5218  126.8284 C   0  0  0  0  0  0  0  0  0  0  0  0
  124.4131   98.0253  127.5212 C   0  0  0  0  0  0  0  0  0  0  0  0
  124.5503   99.3973  127.7362 C   0  0  0  0  0  0  0  0  0  0  0  0
  123.5791  100.2809  127.2657 C   0  0  0  0  0  0  0  0  0  0  0  0
  122.4548   99.8010  126.5818 C   0  0  0  0  0  0  0  0  0  0  0  0
  122.3286   98.4199  126.3668 C   0  0  0  0  0  0  0  0  0  0  0  0
  121.4184  100.7506  126.0394 C   0  0  0  0  0  0  0  0  0  0  0  0
  121.0140  101.6751  126.9556 F   0  0  0  0  0  0  0  0  0  0  0  0
  121.8573  101.4673  124.9654 F   0  0  0  0  0  0  0  0  0  0  0  0
  122.4552   91.5405  119.6814 H   0  0  0  0  0  0  0  0  0  0  0  0
  122.7794   93.2386  119.9357 H   0  0  0  0  0  0  0  0  0  0  0  0
  121.4892   92.4542  120.8150 H   0  0  0  0  0  0  0  0  0  0  0  0
  122.4764   95.9045  123.8203 H   0  0  0  0  0  0  0  0  0  0  0  0
  122.1476   94.3611  121.9822 H   0  0  0  0  0  0  0  0  0  0  0  0
  125.0587   89.2160  120.5083 H   0  0  0  0  0  0  0  0  0  0  0  0
  123.9219   90.1469  119.5525 H   0  0  0  0  0  0  0  0  0  0  0  0
  123.1094   95.5362  127.5582 H   0  0  0  0  0  0  0  0  0  0  0  0
  122.2262   95.8448  126.0877 H   0  0  0  0  0  0  0  0  0  0  0  0
  125.1336   97.3768  127.8752 H   0  0  0  0  0  0  0  0  0  0  0  0
  125.3724   99.7590  128.2446 H   0  0  0  0  0  0  0  0  0  0  0  0
  123.6896  101.2949  127.4225 H   0  0  0  0  0  0  0  0  0  0  0  0
  121.5049   98.0583  125.8611 H   0  0  0  0  0  0  0  0  0  0  0  0
  120.6130  100.1027  125.7630 H   0  0  0  0  0  0  0  0  0  0  0  0
  1  2  1  0
  1 30  1  0
  1 31  1  0
  1 32  1  0
  2  3  2  0
  3 14  1  0
  3  4  1  0
  4  5  2  0
  4  6  1  0
  6  7  1  0
  7  8  2  0
  8  9  1  0
  8 10  1  0
 10 19  1  0
 10 11  2  0
 11 12  1  0
 11 33  1  0
 12 13  2  0
 12 34  1  0
 13  2  1  0
 13  7  1  0
 14 15  1  0
 14 35  1  0
 14 36  1  0
 15 16  2  0
 15 17  1  0
 17 18  1  0
 19 20  1  0
 20 21  1  0
 20 37  1  0
 20 38  1  0
 21 22  2  0
 22 23  1  0
 22 39  1  0
 23 24  2  0
 23 40  1  0
 24 25  1  0
 24 41  1  0
 25 27  1  0
 25 26  2  0
 26 21  1  0
 26 42  1  0
 27 28  1  0
 27 29  1  0
 27 43  1  0
M  END
>  <minimizedAffinity>  (8) 
-9.96594

>  <mol_id>  (8) 
116771

>  <source_index>  (8) 
7

>  <layer>  (8) 
L3

>  <uniprot>  (8) 
P40879

>  <paff>  (8) 
6.5621999999999998

>  <smiles>  (8) 
Cc1c(CC(=O)O)c(=O)oc2c(F)c(OCc3cccc(C(F)F)c3)ccc12

$$$$
L3:P40879:121141
     RDKit          3D

 43 45  0  0  0  0  0  0  0  0999 V2000
  122.3459   92.1922  120.4025 C   0  0  0  0  0  0  0  0  0  0  0  0
  123.3561   91.9437  121.4944 C   0  0  0  0  0  0  0  0  0  0  0  0
  124.1734   90.8685  121.5304 C   0  0  0  0  0  0  0  0  0  0  0  0
  125.2017   90.7069  122.5940 C   0  0  0  0  0  0  0  0  0  0  0  0
  125.9471   89.7323  122.6219 O   0  0  0  0  0  0  0  0  0  0  0  0
  125.2795   91.6925  123.5568 O   0  0  0  0  0  0  0  0  0  0  0  0
  124.4159   92.8046  123.5691 C   0  0  0  0  0  0  0  0  0  0  0  0
  124.5734   93.7232  124.6263 C   0  0  0  0  0  0  0  0  0  0  0  0
  125.6434   93.5197  125.6670 C   0  0  0  0  0  0  0  0  0  0  0  0
  123.7555   94.8642  124.6530 C   0  0  0  0  0  0  0  0  0  0  0  0
  122.7863   95.0338  123.6627 C   0  0  0  0  0  0  0  0  0  0  0  0
  122.6393   94.0904  122.6363 C   0  0  0  0  0  0  0  0  0  0  0  0
  123.4605   92.9591  122.5649 C   0  0  0  0  0  0  0  0  0  0  0  0
  124.1777   89.7221  120.5451 C   0  0  0  0  0  0  0  0  0  0  0  0
  123.1092   88.7150  120.9057 C   0  0  0  0  0  0  0  0  0  0  0  0
  122.4378   88.6749  121.9236 O   0  0  0  0  0  0  0  0  0  0  0  0
  122.9864   87.7499  119.9709 O   0  0  0  0  0  0  0  0  0  0  0  0
  122.2581   87.1858  120.3071 H   0  0  0  0  0  0  0  0  0  0  0  0
  123.9830   95.7405  125.6798 O   0  0  0  0  0  0  0  0  0  0  0  0
  122.8545   96.2838  126.3572 C   0  0  0  0  0  0  0  0  0  0  0  0
  123.1685   97.7191  126.6998 C   0  0  0  0  0  0  0  0  0  0  0  0
  124.3218   98.0385  127.4320 C   0  0  0  0  0  0  0  0  0  0  0  0
  124.6057   99.3642  127.7665 C   0  0  0  0  0  0  0  0  0  0  0  0
  123.7359  100.3835  127.3810 C   0  0  0  0  0  0  0  0  0  0  0  0
  122.5810  100.0706  126.6671 C   0  0  0  0  0  0  0  0  0  0  0  0
  121.3939  101.4504  126.1545 Br  0  0  0  0  0  0  0  0  0  0  0  0
  122.2909   98.7485  126.3292 C   0  0  0  0  0  0  0  0  0  0  0  0
  122.3752   91.3862  119.6994 H   0  0  0  0  0  0  0  0  0  0  0  0
  122.5786   93.1096  119.9034 H   0  0  0  0  0  0  0  0  0  0  0  0
  121.3672   92.2571  120.8301 H   0  0  0  0  0  0  0  0  0  0  0  0
  126.1548   92.5991  125.4775 H   0  0  0  0  0  0  0  0  0  0  0  0
  125.1948   93.4852  126.6378 H   0  0  0  0  0  0  0  0  0  0  0  0
  126.3406   94.3303  125.6249 H   0  0  0  0  0  0  0  0  0  0  0  0
  122.1716   95.8624  123.6865 H   0  0  0  0  0  0  0  0  0  0  0  0
  121.9111   94.2328  121.9190 H   0  0  0  0  0  0  0  0  0  0  0  0
  125.1345   89.2436  120.5647 H   0  0  0  0  0  0  0  0  0  0  0  0
  123.9786   90.1046  119.5658 H   0  0  0  0  0  0  0  0  0  0  0  0
  122.6656   95.7290  127.2524 H   0  0  0  0  0  0  0  0  0  0  0  0
  121.9846   96.2297  125.7365 H   0  0  0  0  0  0  0  0  0  0  0  0
  124.9657   97.2875  127.7258 H   0  0  0  0  0  0  0  0  0  0  0  0
  125.4601   99.5897  128.2995 H   0  0  0  0  0  0  0  0  0  0  0  0
  123.9464  101.3644  127.6231 H   0  0  0  0  0  0  0  0  0  0  0  0
  121.4293   98.5276  125.8058 H   0  0  0  0  0  0  0  0  0  0  0  0
  1  2  1  0
  1 28  1  0
  1 29  1  0
  1 30  1  0
  2  3  2  0
  3 14  1  0
  3  4  1  0
  4  5  2  0
  4  6  1  0
  6  7  1  0
  7  8  2  0
  8  9  1  0
  8 10  1  0
  9 31  1  0
  9 32  1  0
  9 33  1  0
 10 19  1  0
 10 11  2  0
 11 12  1  0
 11 34  1  0
 12 13  2  0
 12 35  1  0
 13  2  1  0
 13  7  1  0
 14 15  1  0
 14 36  1  0
 14 37  1  0
 15 16  2  0
 15 17  1  0
 17 18  1  0
 19 20  1  0
 20 21  1  0
 20 38  1  0
 20 39  1  0
 21 22  2  0
 22 23  1  0
 22 40  1  0
 23 24  2  0
 23 41  1  0
 24 25  1  0
 24 42  1  0
 25 26  1  0
 25 27  2  0
 27 21  1  0
 27 43  1  0
M  END
>  <minimizedAffinity>  (9) 
-9.49679

>  <mol_id>  (9) 
121141

>  <source_index>  (9) 
8

>  <layer>  (9) 
L3

>  <uniprot>  (9) 
P40879

>  <paff>  (9) 
6.8539000000000003

>  <smiles>  (9) 
Cc1c(ccc2c1OC(=O)C(=C2C)CC(=O)O)OCc3cccc(c3)Br

$$$$
L3:P40879:145984
     RDKit          3D

 40 42  0  0  0  0  0  0  0  0999 V2000
  122.4660   92.2045  120.4051 C   0  0  0  0  0  0  0  0  0  0  0  0
  123.4610   91.9032  121.4973 C   0  0  0  0  0  0  0  0  0  0  0  0
  124.2036   90.7754  121.5513 C   0  0  0  0  0  0  0  0  0  0  0  0
  125.1239   90.4966  122.6905 C   0  0  0  0  0  0  0  0  0  0  0  0
  125.7901   89.4670  122.7344 O   0  0  0  0  0  0  0  0  0  0  0  0
  125.2063   91.4439  123.6907 O   0  0  0  0  0  0  0  0  0  0  0  0
  124.4657   92.6338  123.6359 C   0  0  0  0  0  0  0  0  0  0  0  0
  124.6421   93.5355  124.6874 C   0  0  0  0  0  0  0  0  0  0  0  0
  125.4913   93.2310  125.6823 F   0  0  0  0  0  0  0  0  0  0  0  0
  123.9463   94.7443  124.7170 C   0  0  0  0  0  0  0  0  0  0  0  0
  123.0837   95.0358  123.6622 C   0  0  0  0  0  0  0  0  0  0  0  0
  122.9147   94.1228  122.6074 C   0  0  0  0  0  0  0  0  0  0  0  0
  123.6014   92.8993  122.5794 C   0  0  0  0  0  0  0  0  0  0  0  0
  124.2129   89.6700  120.5196 C   0  0  0  0  0  0  0  0  0  0  0  0
  123.0993   88.6859  120.7975 C   0  0  0  0  0  0  0  0  0  0  0  0
  122.2468   88.7556  121.6677 O   0  0  0  0  0  0  0  0  0  0  0  0
  123.0782   87.6774  119.9018 O   0  0  0  0  0  0  0  0  0  0  0  0
  122.3408   87.1061  120.2039 H   0  0  0  0  0  0  0  0  0  0  0  0
  124.2076   95.5550  125.7862 O   0  0  0  0  0  0  0  0  0  0  0  0
  123.1186   96.2145  126.4350 C   0  0  0  0  0  0  0  0  0  0  0  0
  123.3710   97.6861  126.6784 C   0  0  0  0  0  0  0  0  0  0  0  0
  124.0693   98.0948  127.8254 C   0  0  0  0  0  0  0  0  0  0  0  0
  124.3323   99.4471  128.0540 C   0  0  0  0  0  0  0  0  0  0  0  0
  123.9104  100.4062  127.1343 C   0  0  0  0  0  0  0  0  0  0  0  0
  123.2319  100.0070  125.9850 C   0  0  0  0  0  0  0  0  0  0  0  0
  122.6678  101.3057  124.7322 Br  0  0  0  0  0  0  0  0  0  0  0  0
  122.9674   98.6577  125.7497 C   0  0  0  0  0  0  0  0  0  0  0  0
  122.4662   91.4065  119.6923 H   0  0  0  0  0  0  0  0  0  0  0  0
  122.7368   93.1179  119.9179 H   0  0  0  0  0  0  0  0  0  0  0  0
  121.4889   92.3030  120.8300 H   0  0  0  0  0  0  0  0  0  0  0  0
  122.5655   95.9282  123.6556 H   0  0  0  0  0  0  0  0  0  0  0  0
  122.2709   94.3574  121.8357 H   0  0  0  0  0  0  0  0  0  0  0  0
  125.1527   89.1598  120.5569 H   0  0  0  0  0  0  0  0  0  0  0  0
  124.0669   90.0971  119.5495 H   0  0  0  0  0  0  0  0  0  0  0  0
  122.9463   95.7388  127.3778 H   0  0  0  0  0  0  0  0  0  0  0  0
  122.2710   96.1410  125.7861 H   0  0  0  0  0  0  0  0  0  0  0  0
  124.3914   97.3893  128.5062 H   0  0  0  0  0  0  0  0  0  0  0  0
  124.8396   99.7369  128.9047 H   0  0  0  0  0  0  0  0  0  0  0  0
  124.0997  101.4064  127.3040 H   0  0  0  0  0  0  0  0  0  0  0  0
  122.4732   98.3730  124.8896 H   0  0  0  0  0  0  0  0  0  0  0  0
  1  2  1  0
  1 28  1  0
  1 29  1  0
  1 30  1  0
  2  3  2  0
  3 14  1  0
  3  4  1  0
  4  5  2  0
  4  6  1  0
  6  7  1  0
  7  8  2  0
  8  9  1  0
  8 10  1  0
 10 19  1  0
 10 11  2  0
 11 12  1  0
 11 31  1  0
 12 13  2  0
 12 32  1  0
 13  2  1  0
 13  7  1  0
 14 15  1  0
 14 33  1  0
 14 34  1  0
 15 16  2  0
 15 17  1  0
 17 18  1  0
 19 20  1  0
 20 21  1  0
 20 35  1  0
 20 36  1  0
 21 22  2  0
 22 23  1  0
 22 37  1  0
 23 24  2  0
 23 38  1  0
 24 25  1  0
 24 39  1  0
 25 26  1  0
 25 27  2  0
 27 21  1  0
 27 40  1  0
M  END
>  <minimizedAffinity>  (10) 
-9.40868

>  <mol_id>  (10) 
145984

>  <source_index>  (10) 
9

>  <layer>  (10) 
L3

>  <uniprot>  (10) 
P40879

>  <paff>  (10) 
7.1078999999999999

>  <smiles>  (10) 
Cc1c(CC(=O)O)c(=O)oc2c(F)c(OCc3cccc(Br)c3)ccc12

$$$$
