L1:Q96MU7:110901
     RDKit          3D

 38 40  0  0  0  0  0  0  0  0999 V2000
    6.3061   -1.7104    0.0063 C   0  0  0  0  0  0  0  0  0  0  0  0
    5.1550   -0.9079    0.3335 N   0  0  0  0  0  0  0  0  0  0  0  0
    4.3833   -0.3403   -0.6577 C   0  0  0  0  0  0  0  0  0  0  0  0
    4.5978   -0.4982   -1.8546 O   0  0  0  0  0  0  0  0  0  0  0  0
    3.2130    0.4668   -0.2137 C   0  0  0  0  0  0  0  0  0  0  0  0
    3.1913    1.1403    1.0127 C   0  0  0  0  0  0  0  0  0  0  0  0
    2.0683    1.8840    1.3791 C   0  0  0  0  0  0  0  0  0  0  0  0
    0.9700    1.9666    0.5217 C   0  0  0  0  0  0  0  0  0  0  0  0
    0.9833    1.3157   -0.7204 C   0  0  0  0  0  0  0  0  0  0  0  0
   -0.2057    1.4001   -1.6432 C   0  0  0  0  0  0  0  0  0  0  0  0
   -1.2199    0.4308   -1.2805 N   0  0  0  0  0  0  0  0  0  0  0  0
   -1.2792   -0.8705   -1.7036 C   0  0  0  0  0  0  0  0  0  0  0  0
   -2.3367   -1.4937   -1.2268 N   0  0  0  0  0  0  0  0  0  0  0  0
   -2.9906   -0.5481   -0.4609 C   0  0  0  0  0  0  0  0  0  0  0  0
   -4.1753   -0.6013    0.3030 C   0  0  0  0  0  0  0  0  0  0  0  0
   -4.9203   -1.7573    0.3905 N   0  0  0  0  0  0  0  0  0  0  0  0
   -6.1276   -1.8095    1.1675 C   0  0  0  0  0  0  0  0  0  0  0  0
   -4.5619    0.5256    0.9524 N   0  0  0  0  0  0  0  0  0  0  0  0
   -3.7950    1.6254    0.8277 C   0  0  0  0  0  0  0  0  0  0  0  0
   -4.3451    3.0045    1.6803 Cl  0  0  0  0  0  0  0  0  0  0  0  0
   -2.6536    1.7993    0.1327 N   0  0  0  0  0  0  0  0  0  0  0  0
   -2.3110    0.6597   -0.4884 C   0  0  0  0  0  0  0  0  0  0  0  0
    2.1141    0.5665   -1.0795 C   0  0  0  0  0  0  0  0  0  0  0  0
    5.9645   -2.6805   -0.3642 H   0  0  0  0  0  0  0  0  0  0  0  0
    6.9045   -1.8478    0.9098 H   0  0  0  0  0  0  0  0  0  0  0  0
    6.9022   -1.2148   -0.7647 H   0  0  0  0  0  0  0  0  0  0  0  0
    4.8649   -0.8557    1.2996 H   0  0  0  0  0  0  0  0  0  0  0  0
    4.0457    1.1206    1.6824 H   0  0  0  0  0  0  0  0  0  0  0  0
    2.0494    2.4075    2.3325 H   0  0  0  0  0  0  0  0  0  0  0  0
    0.1015    2.5489    0.8288 H   0  0  0  0  0  0  0  0  0  0  0  0
    0.0855    1.2086   -2.6829 H   0  0  0  0  0  0  0  0  0  0  0  0
   -0.6496    2.4020   -1.6178 H   0  0  0  0  0  0  0  0  0  0  0  0
   -0.5306   -1.3101   -2.3514 H   0  0  0  0  0  0  0  0  0  0  0  0
   -4.5837   -2.5681   -0.1151 H   0  0  0  0  0  0  0  0  0  0  0  0
   -6.5627   -2.8118    1.1042 H   0  0  0  0  0  0  0  0  0  0  0  0
   -5.9292   -1.5984    2.2235 H   0  0  0  0  0  0  0  0  0  0  0  0
   -6.8717   -1.0989    0.7928 H   0  0  0  0  0  0  0  0  0  0  0  0
    2.1490    0.0506   -2.0385 H   0  0  0  0  0  0  0  0  0  0  0  0
  1  2  1  0
  2  3  1  0
  3  4  2  0
  3  5  1  0
  5  6  2  0
  6  7  1  0
  7  8  2  0
  8  9  1  0
  9 10  1  0
 10 11  1  0
 11 12  1  0
 12 13  2  0
 13 14  1  0
 14 15  2  0
 15 16  1  0
 16 17  1  0
 15 18  1  0
 18 19  2  0
 19 20  1  0
 19 21  1  0
 21 22  2  0
  9 23  2  0
 23  5  1  0
 22 11  1  0
 22 14  1  0
  1 24  1  0
  1 25  1  0
  1 26  1  0
  2 27  1  0
  6 28  1  0
  7 29  1  0
  8 30  1  0
 10 31  1  0
 10 32  1  0
 12 33  1  0
 16 34  1  0
 17 35  1  0
 17 36  1  0
 17 37  1  0
 23 38  1  0
M  END
>  <mol_id>  (1) 
110901

>  <source_index>  (1) 
8

>  <layer>  (1) 
L1

>  <uniprot>  (1) 
Q96MU7

>  <paff>  (1) 
6

>  <smiles>  (1) 
CNc1c2c(nc(n1)Cl)n(cn2)Cc3cccc(c3)C(=O)NC

$$$$
