L1:Q96MU7:110901


 25 27  0  0  0  0  0  0  0  0999 V2000
   -0.2891    4.9299    6.3618 N   0  0  0  0  0  0  0  0  0  0  0  0
    1.0713    5.0685    6.2847 C   0  0  0  0  0  0  0  0  0  0  0  0
    1.4436    6.3263    6.3997 N   0  0  0  0  0  0  0  0  0  0  0  0
    0.2666    7.0316    6.5599 C   0  0  0  0  0  0  0  0  0  0  0  0
    0.0011    8.4064    6.7308 C   0  0  0  0  0  0  0  0  0  0  0  0
   -1.2933    8.7900    6.8667 N   0  0  0  0  0  0  0  0  0  0  0  0
   -2.2449    7.8378    6.8324 C   0  0  0  0  0  0  0  0  0  0  0  0
   -3.8528    8.4003    7.0050 Cl  0  0  0  0  0  0  0  0  0  0  0  0
   -2.1178    6.5052    6.6777 N   0  0  0  0  0  0  0  0  0  0  0  0
   -0.8234    6.1754    6.5448 C   0  0  0  0  0  0  0  0  0  0  0  0
    1.0192    9.3347    6.7601 N   0  0  0  0  0  0  0  0  0  0  0  0
    1.4567    9.9231    7.9956 C   0  0  0  0  0  0  0  0  0  0  0  0
    1.4473    9.5849    5.8767 H   0  0  0  0  0  0  0  0  0  0  0  0
   -1.0239    3.6824    6.3027 C   0  0  0  0  0  0  0  0  0  0  0  0
    0.5912    0.6861    4.5661 C   0  0  0  0  0  0  0  0  0  0  0  0
    0.5700    1.0990    3.2292 C   0  0  0  0  0  0  0  0  0  0  0  0
    0.0450    2.3483    2.8943 C   0  0  0  0  0  0  0  0  0  0  0  0
   -0.4685    3.1837    3.8876 C   0  0  0  0  0  0  0  0  0  0  0  0
   -0.4750    2.7770    5.2297 C   0  0  0  0  0  0  0  0  0  0  0  0
    0.0586    1.5216    5.5587 C   0  0  0  0  0  0  0  0  0  0  0  0
    1.3464   -3.0256    4.4736 C   0  0  0  0  0  0  0  0  0  0  0  0
    0.8590   -1.7064    4.1602 N   0  0  0  0  0  0  0  0  0  0  0  0
    1.1375   -0.6354    4.9822 C   0  0  0  0  0  0  0  0  0  0  0  0
    1.8255   -0.7211    5.9935 O   0  0  0  0  0  0  0  0  0  0  0  0
    0.3977   -1.5631    3.2732 H   0  0  0  0  0  0  0  0  0  0  0  0
 21 22  1  0  0  0
 22 23  1  0  0  0
 23 24  2  0  0  0
 23 15  1  0  0  0
 15 16  2  0  0  0
 16 17  1  0  0  0
 17 18  2  0  0  0
 18 19  1  0  0  0
 19 14  1  0  0  0
 14  1  1  0  0  0
  1  2  1  0  0  0
  2  3  2  0  0  0
  3  4  1  0  0  0
  4  5  2  0  0  0
  5 11  1  0  0  0
 11 12  1  0  0  0
  5  6  1  0  0  0
  6  7  2  0  0  0
  7  8  1  0  0  0
  7  9  1  0  0  0
  9 10  2  0  0  0
 19 20  2  0  0  0
 20 15  1  0  0  0
 10  1  1  0  0  0
 10  4  1  0  0  0
 22 25  1  0  0  0
 11 13  1  0  0  0
M  END
> <minimizedAffinity>
-7.11883

$$$$
