L1:Q96MU7:140320


 26 28  0  0  0  0  0  0  0  0999 V2000
   11.9817    3.4703   10.6185 C   0  0  0  0  0  0  0  0  0  0  0  0
   11.9793    4.7735   10.9963 N   0  0  0  0  0  0  0  0  0  0  0  0
   11.1717    5.1397   12.0100 C   0  0  0  0  0  0  0  0  0  0  0  0
   11.2215    6.7996   12.4261 Cl  0  0  0  0  0  0  0  0  0  0  0  0
   10.3292    4.3893   12.7452 N   0  0  0  0  0  0  0  0  0  0  0  0
   10.3737    3.1099   12.3436 C   0  0  0  0  0  0  0  0  0  0  0  0
   11.1402    2.5801   11.3176 C   0  0  0  0  0  0  0  0  0  0  0  0
   10.9049    1.2256   11.1835 N   0  0  0  0  0  0  0  0  0  0  0  0
    9.9997    0.9460   12.0978 C   0  0  0  0  0  0  0  0  0  0  0  0
    9.6856    2.0437   12.8549 N   0  0  0  0  0  0  0  0  0  0  0  0
   14.1960    3.2890    9.5790 C   0  0  0  0  0  0  0  0  0  0  0  0
   12.7815    3.0368    9.5834 N   0  0  0  0  0  0  0  0  0  0  0  0
   12.3312    2.5505    8.8172 H   0  0  0  0  0  0  0  0  0  0  0  0
    8.7437    2.0770   13.9580 C   0  0  0  0  0  0  0  0  0  0  0  0
    7.3499    1.6752   13.5355 C   0  0  0  0  0  0  0  0  0  0  0  0
    6.8246    0.4652   14.0280 C   0  0  0  0  0  0  0  0  0  0  0  0
    5.5375    0.0449   13.6885 C   0  0  0  0  0  0  0  0  0  0  0  0
    4.7498    0.8261   12.8501 C   0  0  0  0  0  0  0  0  0  0  0  0
    5.2526    2.0242   12.3470 C   0  0  0  0  0  0  0  0  0  0  0  0
    6.5439    2.4459   12.6806 C   0  0  0  0  0  0  0  0  0  0  0  0
    6.9825    3.6739   12.1108 N   0  0  0  0  0  0  0  0  0  0  0  0
    7.9727    3.7543   11.8742 H   0  0  0  0  0  0  0  0  0  0  0  0
    6.3228    5.1123   12.6806 S   0  0  0  0  0  0  0  0  0  0  0  0
    7.4390    6.3128   11.9893 C   0  0  0  0  0  0  0  0  0  0  0  0
    5.0037    5.3077   12.1231 O   0  0  0  0  0  0  0  0  0  0  0  0
    6.5283    5.0798   14.1131 O   0  0  0  0  0  0  0  0  0  0  0  0
 11 12  1  0  0  0
 12  1  1  0  0  0
  1  2  2  0  0  0
  2  3  1  0  0  0
  3  4  1  0  0  0
  3  5  2  0  0  0
  5  6  1  0  0  0
  6  7  2  0  0  0
  7  8  1  0  0  0
  8  9  2  0  0  0
  9 10  1  0  0  0
 10 14  1  0  0  0
 14 15  1  0  0  0
 15 16  2  0  0  0
 16 17  1  0  0  0
 17 18  2  0  0  0
 18 19  1  0  0  0
 19 20  2  0  0  0
 20 21  1  0  0  0
 21 23  1  0  0  0
 23 24  1  0  0  0
 23 25  2  0  0  0
 23 26  2  0  0  0
  7  1  1  0  0  0
 20 15  1  0  0  0
 10  6  1  0  0  0
 12 13  1  0  0  0
 21 22  1  0  0  0
M  END
> <minimizedAffinity>
-5.08169

$$$$
