L1:Q96MU7:140320
     RDKit          3D

 39 41  0  0  0  0  0  0  0  0999 V2000
    5.5976    1.6465    1.9198 C   0  0  0  0  0  0  0  0  0  0  0  0
    4.2940    1.0768    2.1209 N   0  0  0  0  0  0  0  0  0  0  0  0
    3.6091    0.4770    1.0864 C   0  0  0  0  0  0  0  0  0  0  0  0
    4.1444    0.4164   -0.1589 N   0  0  0  0  0  0  0  0  0  0  0  0
    3.4313   -0.1884   -1.1283 C   0  0  0  0  0  0  0  0  0  0  0  0
    4.1739   -0.2283   -2.6703 Cl  0  0  0  0  0  0  0  0  0  0  0  0
    2.2173   -0.7673   -1.0614 N   0  0  0  0  0  0  0  0  0  0  0  0
    1.7245   -0.6735    0.1830 C   0  0  0  0  0  0  0  0  0  0  0  0
    2.3345   -0.0938    1.2842 C   0  0  0  0  0  0  0  0  0  0  0  0
    1.5302   -0.2058    2.4016 N   0  0  0  0  0  0  0  0  0  0  0  0
    0.4635   -0.8575    1.9883 C   0  0  0  0  0  0  0  0  0  0  0  0
    0.5151   -1.1170    0.6440 N   0  0  0  0  0  0  0  0  0  0  0  0
   -0.5045   -1.7971   -0.1324 C   0  0  0  0  0  0  0  0  0  0  0  0
   -1.1658   -0.8834   -1.1376 C   0  0  0  0  0  0  0  0  0  0  0  0
   -0.8837   -1.0764   -2.5036 C   0  0  0  0  0  0  0  0  0  0  0  0
   -1.4743   -0.2766   -3.4834 C   0  0  0  0  0  0  0  0  0  0  0  0
   -2.3590    0.7318   -3.1172 C   0  0  0  0  0  0  0  0  0  0  0  0
   -2.6474    0.9434   -1.7706 C   0  0  0  0  0  0  0  0  0  0  0  0
   -2.0533    0.1476   -0.7856 C   0  0  0  0  0  0  0  0  0  0  0  0
   -2.3925    0.4421    0.5647 N   0  0  0  0  0  0  0  0  0  0  0  0
   -3.5820   -0.4766    1.3197 S   0  0  0  0  0  6  0  0  0  0  0  0
   -4.9948    0.5968    1.1899 C   0  0  0  0  0  0  0  0  0  0  0  0
   -3.8277   -1.6852    0.5660 O   0  0  0  0  0  0  0  0  0  0  0  0
   -3.1873   -0.5341    2.7112 O   0  0  0  0  0  0  0  0  0  0  0  0
    6.3161    0.8878    1.5926 H   0  0  0  0  0  0  0  0  0  0  0  0
    5.9639    2.0683    2.8610 H   0  0  0  0  0  0  0  0  0  0  0  0
    5.5679    2.4549    1.1818 H   0  0  0  0  0  0  0  0  0  0  0  0
    3.8515    1.0837    3.0322 H   0  0  0  0  0  0  0  0  0  0  0  0
   -0.3715   -1.1543    2.6135 H   0  0  0  0  0  0  0  0  0  0  0  0
   -1.2399   -2.2243    0.5557 H   0  0  0  0  0  0  0  0  0  0  0  0
   -0.0137   -2.6460   -0.6241 H   0  0  0  0  0  0  0  0  0  0  0  0
   -0.1876   -1.8537   -2.8170 H   0  0  0  0  0  0  0  0  0  0  0  0
   -1.2389   -0.4413   -4.5323 H   0  0  0  0  0  0  0  0  0  0  0  0
   -2.8178    1.3568   -3.8789 H   0  0  0  0  0  0  0  0  0  0  0  0
   -3.3282    1.7439   -1.4943 H   0  0  0  0  0  0  0  0  0  0  0  0
   -1.6316    0.7053    1.1930 H   0  0  0  0  0  0  0  0  0  0  0  0
   -5.8259    0.1227    1.7166 H   0  0  0  0  0  0  0  0  0  0  0  0
   -5.2496    0.7247    0.1366 H   0  0  0  0  0  0  0  0  0  0  0  0
   -4.7577    1.5542    1.6574 H   0  0  0  0  0  0  0  0  0  0  0  0
  1  2  1  0
  2  3  1  0
  3  4  2  0
  4  5  1  0
  5  6  1  0
  5  7  2  0
  7  8  1  0
  8  9  2  0
  9 10  1  0
 10 11  2  0
 11 12  1  0
 12 13  1  0
 13 14  1  0
 14 15  2  0
 15 16  1  0
 16 17  2  0
 17 18  1  0
 18 19  2  0
 19 20  1  0
 20 21  1  0
 21 22  1  0
 21 23  2  0
 21 24  2  0
  9  3  1  0
 19 14  1  0
 12  8  1  0
  1 25  1  0
  1 26  1  0
  1 27  1  0
  2 28  1  0
 11 29  1  0
 13 30  1  0
 13 31  1  0
 15 32  1  0
 16 33  1  0
 17 34  1  0
 18 35  1  0
 20 36  1  0
 22 37  1  0
 22 38  1  0
 22 39  1  0
M  END
>  <mol_id>  (1) 
140320

>  <source_index>  (1) 
9

>  <layer>  (1) 
L1

>  <uniprot>  (1) 
Q96MU7

>  <paff>  (1) 
6.3372000000000002

>  <smiles>  (1) 
CNc1c2c(nc(n1)Cl)n(cn2)Cc3ccccc3NS(=O)(=O)C

$$$$
