L1:Q96MU7:23658


 24 26  0  0  0  0  0  0  0  0999 V2000
    0.0046    8.1141    6.9735 C   0  0  0  0  0  0  0  0  0  0  0  0
   -1.3007    8.4541    7.1222 N   0  0  0  0  0  0  0  0  0  0  0  0
   -2.2298    7.4924    6.9638 C   0  0  0  0  0  0  0  0  0  0  0  0
   -3.8525    7.9981    7.1697 Cl  0  0  0  0  0  0  0  0  0  0  0  0
   -2.0697    6.1876    6.6672 N   0  0  0  0  0  0  0  0  0  0  0  0
   -0.7655    5.8995    6.5331 C   0  0  0  0  0  0  0  0  0  0  0  0
    0.3043    6.7714    6.6625 C   0  0  0  0  0  0  0  0  0  0  0  0
    1.4993    6.1126    6.4454 N   0  0  0  0  0  0  0  0  0  0  0  0
    1.1578    4.8655    6.1964 C   0  0  0  0  0  0  0  0  0  0  0  0
   -0.1995    4.6890    6.2430 N   0  0  0  0  0  0  0  0  0  0  0  0
    1.2210   10.0696    6.1285 C   0  0  0  0  0  0  0  0  0  0  0  0
    1.0003    9.0552    7.1217 N   0  0  0  0  0  0  0  0  0  0  0  0
    1.5628    9.0110    7.9630 H   0  0  0  0  0  0  0  0  0  0  0  0
   -0.9082    3.4520    5.9839 C   0  0  0  0  0  0  0  0  0  0  0  0
   -0.1108    2.5430    5.0824 C   0  0  0  0  0  0  0  0  0  0  0  0
   -0.0438    2.7941    3.7038 C   0  0  0  0  0  0  0  0  0  0  0  0
    0.6784    1.9480    2.8622 C   0  0  0  0  0  0  0  0  0  0  0  0
    1.3403    0.8384    3.3876 C   0  0  0  0  0  0  0  0  0  0  0  0
    1.2827    0.5659    4.7601 C   0  0  0  0  0  0  0  0  0  0  0  0
    0.5552    1.4207    5.6030 C   0  0  0  0  0  0  0  0  0  0  0  0
    2.0043   -0.6336    5.2680 C   0  0  0  0  0  0  0  0  0  0  0  0
    3.2189   -0.6978    5.3715 O   0  0  0  0  0  0  0  0  0  0  0  0
    1.1277   -1.6187    5.5883 O   0  0  0  0  0  0  0  0  0  0  0  0
    1.1692   -2.7392    4.7029 C   0  0  0  0  0  0  0  0  0  0  0  0
 11 12  1  0  0  0
 12  1  1  0  0  0
  1  2  2  0  0  0
  2  3  1  0  0  0
  3  4  1  0  0  0
  3  5  2  0  0  0
  5  6  1  0  0  0
  6  7  2  0  0  0
  7  8  1  0  0  0
  8  9  2  0  0  0
  9 10  1  0  0  0
 10 14  1  0  0  0
 14 15  1  0  0  0
 15 16  2  0  0  0
 16 17  1  0  0  0
 17 18  2  0  0  0
 18 19  1  0  0  0
 19 21  1  0  0  0
 21 22  2  0  0  0
 21 23  1  0  0  0
 23 24  1  0  0  0
 19 20  2  0  0  0
  7  1  1  0  0  0
 20 15  1  0  0  0
 10  6  1  0  0  0
 12 13  1  0  0  0
M  END
> <minimizedAffinity>
-6.93345

$$$$
