L1:Q96MU7:23658
     RDKit          3D

 37 39  0  0  0  0  0  0  0  0999 V2000
   -6.0381    1.1658    1.7266 C   0  0  0  0  0  0  0  0  0  0  0  0
   -4.7231    1.4748    1.2372 N   0  0  0  0  0  0  0  0  0  0  0  0
   -3.9949    0.5550    0.5141 C   0  0  0  0  0  0  0  0  0  0  0  0
   -4.5052   -0.6711    0.2354 N   0  0  0  0  0  0  0  0  0  0  0  0
   -3.7484   -1.5275   -0.4766 C   0  0  0  0  0  0  0  0  0  0  0  0
   -4.4595   -3.0540   -0.7852 Cl  0  0  0  0  0  0  0  0  0  0  0  0
   -2.5105   -1.3595   -0.9822 N   0  0  0  0  0  0  0  0  0  0  0  0
   -2.0481   -0.1364   -0.6789 C   0  0  0  0  0  0  0  0  0  0  0  0
   -2.7007    0.8534    0.0393 C   0  0  0  0  0  0  0  0  0  0  0  0
   -1.9110    1.9825    0.1420 N   0  0  0  0  0  0  0  0  0  0  0  0
   -0.8002    1.6777   -0.4960 C   0  0  0  0  0  0  0  0  0  0  0  0
   -0.8361    0.4066   -1.0046 N   0  0  0  0  0  0  0  0  0  0  0  0
    0.2047   -0.2287   -1.7873 C   0  0  0  0  0  0  0  0  0  0  0  0
    1.2406   -0.8726   -0.9000 C   0  0  0  0  0  0  0  0  0  0  0  0
    1.0148   -2.1462   -0.3568 C   0  0  0  0  0  0  0  0  0  0  0  0
    1.9615   -2.7402    0.4778 C   0  0  0  0  0  0  0  0  0  0  0  0
    3.1447   -2.0674    0.7824 C   0  0  0  0  0  0  0  0  0  0  0  0
    3.3885   -0.7931    0.2553 C   0  0  0  0  0  0  0  0  0  0  0  0
    4.6659   -0.1177    0.6154 C   0  0  0  0  0  0  0  0  0  0  0  0
    5.5214   -0.6239    1.3239 O   0  0  0  0  0  0  0  0  0  0  0  0
    4.7306    1.1147    0.0510 O   0  0  0  0  0  0  0  0  0  0  0  0
    5.9298    1.8282    0.3577 C   0  0  0  0  0  0  0  0  0  0  0  0
    2.4331   -0.1997   -0.5846 C   0  0  0  0  0  0  0  0  0  0  0  0
   -6.4389    2.0257    2.2723 H   0  0  0  0  0  0  0  0  0  0  0  0
   -6.0153    0.3149    2.4154 H   0  0  0  0  0  0  0  0  0  0  0  0
   -6.7256    0.9435    0.9038 H   0  0  0  0  0  0  0  0  0  0  0  0
   -4.2909    2.3725    1.4200 H   0  0  0  0  0  0  0  0  0  0  0  0
    0.0532    2.3333   -0.6169 H   0  0  0  0  0  0  0  0  0  0  0  0
   -0.2543   -0.9696   -2.4519 H   0  0  0  0  0  0  0  0  0  0  0  0
    0.6554    0.5371   -2.4299 H   0  0  0  0  0  0  0  0  0  0  0  0
    0.0934   -2.6848   -0.5775 H   0  0  0  0  0  0  0  0  0  0  0  0
    1.7757   -3.7276    0.8946 H   0  0  0  0  0  0  0  0  0  0  0  0
    3.8754   -2.5406    1.4363 H   0  0  0  0  0  0  0  0  0  0  0  0
    6.8040    1.2891   -0.0207 H   0  0  0  0  0  0  0  0  0  0  0  0
    6.0120    1.9943    1.4364 H   0  0  0  0  0  0  0  0  0  0  0  0
    5.8811    2.8009   -0.1395 H   0  0  0  0  0  0  0  0  0  0  0  0
    2.6148    0.7905   -0.9971 H   0  0  0  0  0  0  0  0  0  0  0  0
  1  2  1  0
  2  3  1  0
  3  4  2  0
  4  5  1  0
  5  6  1  0
  5  7  2  0
  7  8  1  0
  8  9  2  0
  9 10  1  0
 10 11  2  0
 11 12  1  0
 12 13  1  0
 13 14  1  0
 14 15  2  0
 15 16  1  0
 16 17  2  0
 17 18  1  0
 18 19  1  0
 19 20  2  0
 19 21  1  0
 21 22  1  0
 18 23  2  0
  9  3  1  0
 23 14  1  0
 12  8  1  0
  1 24  1  0
  1 25  1  0
  1 26  1  0
  2 27  1  0
 11 28  1  0
 13 29  1  0
 13 30  1  0
 15 31  1  0
 16 32  1  0
 17 33  1  0
 22 34  1  0
 22 35  1  0
 22 36  1  0
 23 37  1  0
M  END
>  <mol_id>  (1) 
23658

>  <source_index>  (1) 
0

>  <layer>  (1) 
L1

>  <uniprot>  (1) 
Q96MU7

>  <paff>  (1) 
6

>  <smiles>  (1) 
CNc1c2c(nc(n1)Cl)n(cn2)Cc3cccc(c3)C(=O)OC

$$$$
