L1:Q96MU7:24173
     RDKit          3D

 34 36  0  0  0  0  0  0  0  0999 V2000
    5.5360   -0.3142    1.4217 C   0  0  0  0  0  0  0  0  0  0  0  0
    4.4350    0.4746    0.9421 N   0  0  0  0  0  0  0  0  0  0  0  0
    3.3295   -0.1151    0.3684 C   0  0  0  0  0  0  0  0  0  0  0  0
    3.2522   -1.4632    0.2335 N   0  0  0  0  0  0  0  0  0  0  0  0
    2.1483   -1.9831   -0.3360 C   0  0  0  0  0  0  0  0  0  0  0  0
    2.1240   -3.6897   -0.4685 Cl  0  0  0  0  0  0  0  0  0  0  0  0
    1.0575   -1.3551   -0.8179 N   0  0  0  0  0  0  0  0  0  0  0  0
    1.1786   -0.0281   -0.6590 C   0  0  0  0  0  0  0  0  0  0  0  0
    2.2444    0.6566   -0.0969 C   0  0  0  0  0  0  0  0  0  0  0  0
    2.0112    2.0183   -0.1134 N   0  0  0  0  0  0  0  0  0  0  0  0
    0.8252    2.1527   -0.6691 C   0  0  0  0  0  0  0  0  0  0  0  0
    0.2815    0.9427   -1.0089 N   0  0  0  0  0  0  0  0  0  0  0  0
   -0.9959    0.7326   -1.6597 C   0  0  0  0  0  0  0  0  0  0  0  0
   -2.1143    0.6435   -0.6512 C   0  0  0  0  0  0  0  0  0  0  0  0
   -2.8893    1.7700   -0.3386 C   0  0  0  0  0  0  0  0  0  0  0  0
   -3.9093    1.6821    0.6108 C   0  0  0  0  0  0  0  0  0  0  0  0
   -4.8489    3.0766    0.9759 Cl  0  0  0  0  0  0  0  0  0  0  0  0
   -4.1724    0.4814    1.2637 C   0  0  0  0  0  0  0  0  0  0  0  0
   -3.4059   -0.6497    0.9656 C   0  0  0  0  0  0  0  0  0  0  0  0
   -3.7124   -1.9101    1.6839 C   0  0  0  0  0  0  0  0  0  0  0  0
   -4.5768   -2.0542    2.5277 O   0  0  0  0  0  0  0  0  0  0  0  0
   -2.9219   -2.9286    1.3064 O   0  0  0  0  0  0  0  0  0  0  0  0
   -2.3804   -0.5666    0.0119 C   0  0  0  0  0  0  0  0  0  0  0  0
    6.3055    0.3431    1.8384 H   0  0  0  0  0  0  0  0  0  0  0  0
    5.2177   -0.9991    2.2145 H   0  0  0  0  0  0  0  0  0  0  0  0
    5.9936   -0.8910    0.6112 H   0  0  0  0  0  0  0  0  0  0  0  0
    4.4376    1.4845    1.0214 H   0  0  0  0  0  0  0  0  0  0  0  0
    0.3189    3.0937   -0.8450 H   0  0  0  0  0  0  0  0  0  0  0  0
   -1.1585    1.5629   -2.3572 H   0  0  0  0  0  0  0  0  0  0  0  0
   -0.9394   -0.1814   -2.2622 H   0  0  0  0  0  0  0  0  0  0  0  0
   -2.7023    2.7216   -0.8323 H   0  0  0  0  0  0  0  0  0  0  0  0
   -4.9685    0.4238    2.0032 H   0  0  0  0  0  0  0  0  0  0  0  0
   -3.2214   -3.6837    1.8557 H   0  0  0  0  0  0  0  0  0  0  0  0
   -1.7794   -1.4477   -0.2143 H   0  0  0  0  0  0  0  0  0  0  0  0
  1  2  1  0
  2  3  1  0
  3  4  2  0
  4  5  1  0
  5  6  1  0
  5  7  2  0
  7  8  1  0
  8  9  2  0
  9 10  1  0
 10 11  2  0
 11 12  1  0
 12 13  1  0
 13 14  1  0
 14 15  2  0
 15 16  1  0
 16 17  1  0
 16 18  2  0
 18 19  1  0
 19 20  1  0
 20 21  2  0
 20 22  1  0
 19 23  2  0
  9  3  1  0
 23 14  1  0
 12  8  1  0
  1 24  1  0
  1 25  1  0
  1 26  1  0
  2 27  1  0
 11 28  1  0
 13 29  1  0
 13 30  1  0
 15 31  1  0
 18 32  1  0
 22 33  1  0
 23 34  1  0
M  END
>  <mol_id>  (1) 
24173

>  <source_index>  (1) 
1

>  <layer>  (1) 
L1

>  <uniprot>  (1) 
Q96MU7

>  <paff>  (1) 
6.7446999999999999

>  <smiles>  (1) 
CNc1nc(Cl)nc2c1ncn2Cc1cc(Cl)cc(C(=O)O)c1

$$$$
