L1:Q96MU7:24173
 OpenBabel09212617413D

 34 36  0  0  0  0  0  0  0  0999 V2000
    0.8167    0.1816    4.9277 C   0  0  0  0  0  0  0  0  0  0  0  0
    1.2421    0.1426    3.6397 N   0  0  0  0  0  0  0  0  0  0  0  0
    1.2410    1.2897    2.9345 C   0  0  0  0  0  0  0  0  0  0  0  0
    1.7885    1.1591    1.3178 Cl  0  0  0  0  0  0  0  0  0  0  0  0
    0.8711    2.5283    3.3162 N   0  0  0  0  0  0  0  0  0  0  0  0
    0.4557    2.5154    4.5922 C   0  0  0  0  0  0  0  0  0  0  0  0
    0.3983    1.4250    5.4457 C   0  0  0  0  0  0  0  0  0  0  0  0
   -0.0770    1.8029    6.6867 N   0  0  0  0  0  0  0  0  0  0  0  0
   -0.3078    3.0950    6.5827 C   0  0  0  0  0  0  0  0  0  0  0  0
   -0.0067    3.5674    5.3331 N   0  0  0  0  0  0  0  0  0  0  0  0
    1.0295   -2.2546    5.1212 C   0  0  0  0  0  0  0  0  0  0  0  0
    0.7967   -0.9600    5.6993 N   0  0  0  0  0  0  0  0  0  0  0  0
    0.6022   -0.8526    6.6877 H   0  0  0  0  0  0  0  0  0  0  0  0
   -0.1189    4.9423    4.8897 C   0  0  0  0  0  0  0  0  0  0  0  0
   -0.4628    5.8596    6.0369 C   0  0  0  0  0  0  0  0  0  0  0  0
   -1.7821    6.2906    6.2396 C   0  0  0  0  0  0  0  0  0  0  0  0
   -2.0868    7.1555    7.2925 C   0  0  0  0  0  0  0  0  0  0  0  0
   -3.7129    7.6687    7.5233 Cl  0  0  0  0  0  0  0  0  0  0  0  0
   -1.0912    7.6062    8.1543 C   0  0  0  0  0  0  0  0  0  0  0  0
    0.2296    7.1883    7.9630 C   0  0  0  0  0  0  0  0  0  0  0  0
    0.5407    6.3188    6.9069 C   0  0  0  0  0  0  0  0  0  0  0  0
    1.2639    7.6921    8.8984 C   0  0  0  0  0  0  0  0  0  0  0  0
    1.5826    7.1726    9.9512 O   0  0  0  0  0  0  0  0  0  0  0  0
    1.8499    8.8210    8.4658 O   0  0  0  0  0  0  0  0  0  0  0  0
    2.4944    9.0442    9.1704 H   0  0  0  0  0  0  0  0  0  0  0  0
   -0.6717    3.6810    7.3503 H   0  0  0  0  0  0  0  0  0  0  0  0
    1.2146   -2.1489    4.0726 H   0  0  0  0  0  0  0  0  0  0  0  0
    0.1686   -2.8721    5.2709 H   0  0  0  0  0  0  0  0  0  0  0  0
    1.8787   -2.7069    5.5895 H   0  0  0  0  0  0  0  0  0  0  0  0
   -0.8872    5.0081    4.1479 H   0  0  0  0  0  0  0  0  0  0  0  0
    0.8239    5.2455    4.4846 H   0  0  0  0  0  0  0  0  0  0  0  0
   -2.5310    5.9670    5.6076 H   0  0  0  0  0  0  0  0  0  0  0  0
   -1.3263    8.2450    8.9300 H   0  0  0  0  0  0  0  0  0  0  0  0
    1.5165    6.0133    6.7675 H   0  0  0  0  0  0  0  0  0  0  0  0
  1  2  2  0  0  0  0
  2  3  1  0  0  0  0
  3  4  1  0  0  0  0
  3  5  2  0  0  0  0
  5  6  1  0  0  0  0
  6  7  2  0  0  0  0
  7  8  1  0  0  0  0
  7  1  1  0  0  0  0
  8  9  2  0  0  0  0
  9 10  1  0  0  0  0
  9 26  1  0  0  0  0
 10 14  1  0  0  0  0
 10  6  1  0  0  0  0
 11 12  1  0  0  0  0
 11 27  1  0  0  0  0
 11 28  1  0  0  0  0
 11 29  1  0  0  0  0
 12  1  1  0  0  0  0
 12 13  1  0  0  0  0
 14 15  1  0  0  0  0
 14 30  1  0  0  0  0
 14 31  1  0  0  0  0
 15 16  2  0  0  0  0
 16 17  1  0  0  0  0
 16 32  1  0  0  0  0
 17 18  1  0  0  0  0
 17 19  2  0  0  0  0
 19 20  1  0  0  0  0
 19 33  1  0  0  0  0
 20 22  1  0  0  0  0
 20 21  2  0  0  0  0
 21 15  1  0  0  0  0
 21 34  1  0  0  0  0
 22 23  2  0  0  0  0
 22 24  1  0  0  0  0
 24 25  1  0  0  0  0
M  END
>  <minimizedAffinity>
-6.32990

$$$$
