L1:Q96MU7:43216
 OpenBabel09212617413D

 37 39  0  0  0  0  0  0  0  0999 V2000
   -0.5997    8.0920    8.7291 C   0  0  0  0  0  0  0  0  0  0  0  0
   -1.9240    8.3435    8.5745 N   0  0  0  0  0  0  0  0  0  0  0  0
   -2.5917    7.6834    7.6103 C   0  0  0  0  0  0  0  0  0  0  0  0
   -4.2564    8.0603    7.4780 Cl  0  0  0  0  0  0  0  0  0  0  0  0
   -2.1399    6.7696    6.7314 N   0  0  0  0  0  0  0  0  0  0  0  0
   -0.8284    6.5539    6.9185 C   0  0  0  0  0  0  0  0  0  0  0  0
   -0.0022    7.1478    7.8626 C   0  0  0  0  0  0  0  0  0  0  0  0
    1.2867    6.6583    7.7444 N   0  0  0  0  0  0  0  0  0  0  0  0
    1.2396    5.7975    6.7503 C   0  0  0  0  0  0  0  0  0  0  0  0
   -0.0175    5.7038    6.2185 N   0  0  0  0  0  0  0  0  0  0  0  0
   -0.5570    9.0331   11.0169 C   0  0  0  0  0  0  0  0  0  0  0  0
    0.0361    8.7914    9.7290 N   0  0  0  0  0  0  0  0  0  0  0  0
    0.9647    9.1264    9.5146 H   0  0  0  0  0  0  0  0  0  0  0  0
   -0.4237    4.8259    5.1394 C   0  0  0  0  0  0  0  0  0  0  0  0
   -0.0428    3.3945    5.4250 C   0  0  0  0  0  0  0  0  0  0  0  0
   -0.7613    2.6354    6.3592 C   0  0  0  0  0  0  0  0  0  0  0  0
   -0.3936    1.3144    6.6306 C   0  0  0  0  0  0  0  0  0  0  0  0
    0.6993    0.7318    5.9758 C   0  0  0  0  0  0  0  0  0  0  0  0
    1.4216    1.4875    5.0446 C   0  0  0  0  0  0  0  0  0  0  0  0
    1.0527    2.8085    4.7728 C   0  0  0  0  0  0  0  0  0  0  0  0
    1.0456   -0.6780    6.3049 C   0  0  0  0  0  0  0  0  0  0  0  0
    0.6421   -1.2543    7.3029 O   0  0  0  0  0  0  0  0  0  0  0  0
    1.8535   -1.2088    5.3536 O   0  0  0  0  0  0  0  0  0  0  0  0
    1.2841   -2.3233    4.6652 C   0  0  0  0  0  0  0  0  0  0  0  0
    2.0523    5.2584    6.4127 H   0  0  0  0  0  0  0  0  0  0  0  0
   -1.5358    8.6018   11.0454 H   0  0  0  0  0  0  0  0  0  0  0  0
   -0.6268   10.0875   11.1852 H   0  0  0  0  0  0  0  0  0  0  0  0
    0.0504    8.5898   11.7781 H   0  0  0  0  0  0  0  0  0  0  0  0
    0.0547    5.1402    4.2354 H   0  0  0  0  0  0  0  0  0  0  0  0
   -1.4880    4.8795    5.0426 H   0  0  0  0  0  0  0  0  0  0  0  0
   -1.5668    3.0545    6.8497 H   0  0  0  0  0  0  0  0  0  0  0  0
   -0.9312    0.7642    7.3185 H   0  0  0  0  0  0  0  0  0  0  0  0
    2.2289    1.0682    4.5572 H   0  0  0  0  0  0  0  0  0  0  0  0
    1.5917    3.3582    4.0855 H   0  0  0  0  0  0  0  0  0  0  0  0
    1.9781   -2.6840    3.9350 H   0  0  0  0  0  0  0  0  0  0  0  0
    0.3809   -2.0187    4.1790 H   0  0  0  0  0  0  0  0  0  0  0  0
    1.0667   -3.1022    5.3659 H   0  0  0  0  0  0  0  0  0  0  0  0
  1  2  2  0  0  0  0
  2  3  1  0  0  0  0
  3  4  1  0  0  0  0
  3  5  2  0  0  0  0
  5  6  1  0  0  0  0
  6  7  2  0  0  0  0
  7  8  1  0  0  0  0
  7  1  1  0  0  0  0
  8  9  2  0  0  0  0
  9 10  1  0  0  0  0
  9 25  1  0  0  0  0
 10 14  1  0  0  0  0
 10  6  1  0  0  0  0
 11 12  1  0  0  0  0
 11 26  1  0  0  0  0
 11 27  1  0  0  0  0
 11 28  1  0  0  0  0
 12  1  1  0  0  0  0
 12 13  1  0  0  0  0
 14 15  1  0  0  0  0
 14 29  1  0  0  0  0
 14 30  1  0  0  0  0
 15 16  2  0  0  0  0
 16 17  1  0  0  0  0
 16 31  1  0  0  0  0
 17 18  2  0  0  0  0
 17 32  1  0  0  0  0
 18 21  1  0  0  0  0
 18 19  1  0  0  0  0
 19 20  2  0  0  0  0
 19 33  1  0  0  0  0
 20 15  1  0  0  0  0
 20 34  1  0  0  0  0
 21 22  2  0  0  0  0
 21 23  1  0  0  0  0
 23 24  1  0  0  0  0
 24 35  1  0  0  0  0
 24 36  1  0  0  0  0
 24 37  1  0  0  0  0
M  END
>  <minimizedAffinity>
-6.77846

$$$$
