L1:Q96MU7:43216
     RDKit          3D

 37 39  0  0  0  0  0  0  0  0999 V2000
    5.2957    0.9716    1.9625 C   0  0  0  0  0  0  0  0  0  0  0  0
    5.2726    0.3715    0.6555 N   0  0  0  0  0  0  0  0  0  0  0  0
    4.1810    0.4336   -0.1798 C   0  0  0  0  0  0  0  0  0  0  0  0
    4.3105   -0.1898   -1.3779 N   0  0  0  0  0  0  0  0  0  0  0  0
    3.2705   -0.1566   -2.2315 C   0  0  0  0  0  0  0  0  0  0  0  0
    3.5128   -0.9695   -3.7185 Cl  0  0  0  0  0  0  0  0  0  0  0  0
    2.0641    0.4219   -2.0851 N   0  0  0  0  0  0  0  0  0  0  0  0
    1.9794    1.0231   -0.8881 C   0  0  0  0  0  0  0  0  0  0  0  0
    2.9550    1.0813    0.0975 C   0  0  0  0  0  0  0  0  0  0  0  0
    2.4916    1.7987    1.1862 N   0  0  0  0  0  0  0  0  0  0  0  0
    1.2662    2.1570    0.8677 C   0  0  0  0  0  0  0  0  0  0  0  0
    0.9124    1.7079   -0.3753 N   0  0  0  0  0  0  0  0  0  0  0  0
   -0.3489    1.9556   -1.0445 C   0  0  0  0  0  0  0  0  0  0  0  0
   -1.3947    0.9498   -0.6318 C   0  0  0  0  0  0  0  0  0  0  0  0
   -2.3452    1.2669    0.3486 C   0  0  0  0  0  0  0  0  0  0  0  0
   -3.3020    0.3251    0.7377 C   0  0  0  0  0  0  0  0  0  0  0  0
   -3.3226   -0.9493    0.1561 C   0  0  0  0  0  0  0  0  0  0  0  0
   -4.3635   -1.9118    0.6096 C   0  0  0  0  0  0  0  0  0  0  0  0
   -5.2041   -1.6450    1.4542 O   0  0  0  0  0  0  0  0  0  0  0  0
   -4.2393   -3.0955   -0.0407 O   0  0  0  0  0  0  0  0  0  0  0  0
   -5.2056   -4.0737    0.3459 C   0  0  0  0  0  0  0  0  0  0  0  0
   -2.3730   -1.2712   -0.8210 C   0  0  0  0  0  0  0  0  0  0  0  0
   -1.4168   -0.3283   -1.2104 C   0  0  0  0  0  0  0  0  0  0  0  0
    6.2665    0.7844    2.4323 H   0  0  0  0  0  0  0  0  0  0  0  0
    4.5272    0.5411    2.6126 H   0  0  0  0  0  0  0  0  0  0  0  0
    5.1620    2.0566    1.9055 H   0  0  0  0  0  0  0  0  0  0  0  0
    6.0722   -0.1358    0.3036 H   0  0  0  0  0  0  0  0  0  0  0  0
    0.5985    2.7347    1.4946 H   0  0  0  0  0  0  0  0  0  0  0  0
   -0.6626    2.9770   -0.7979 H   0  0  0  0  0  0  0  0  0  0  0  0
   -0.1878    1.9262   -2.1282 H   0  0  0  0  0  0  0  0  0  0  0  0
   -2.3532    2.2476    0.8204 H   0  0  0  0  0  0  0  0  0  0  0  0
   -4.0332    0.5892    1.5003 H   0  0  0  0  0  0  0  0  0  0  0  0
   -5.1058   -4.3120    1.4095 H   0  0  0  0  0  0  0  0  0  0  0  0
   -6.2175   -3.7234    0.1194 H   0  0  0  0  0  0  0  0  0  0  0  0
   -5.0167   -4.9829   -0.2317 H   0  0  0  0  0  0  0  0  0  0  0  0
   -2.3614   -2.2532   -1.2882 H   0  0  0  0  0  0  0  0  0  0  0  0
   -0.6841   -0.6026   -1.9691 H   0  0  0  0  0  0  0  0  0  0  0  0
  1  2  1  0
  2  3  1  0
  3  4  2  0
  4  5  1  0
  5  6  1  0
  5  7  2  0
  7  8  1  0
  8  9  2  0
  9 10  1  0
 10 11  2  0
 11 12  1  0
 12 13  1  0
 13 14  1  0
 14 15  2  0
 15 16  1  0
 16 17  2  0
 17 18  1  0
 18 19  2  0
 18 20  1  0
 20 21  1  0
 17 22  1  0
 22 23  2  0
  9  3  1  0
 23 14  1  0
 12  8  1  0
  1 24  1  0
  1 25  1  0
  1 26  1  0
  2 27  1  0
 11 28  1  0
 13 29  1  0
 13 30  1  0
 15 31  1  0
 16 32  1  0
 21 33  1  0
 21 34  1  0
 21 35  1  0
 22 36  1  0
 23 37  1  0
M  END
>  <mol_id>  (1) 
43216

>  <source_index>  (1) 
2

>  <layer>  (1) 
L1

>  <uniprot>  (1) 
Q96MU7

>  <paff>  (1) 
6.0132000000000003

>  <smiles>  (1) 
CNc1nc(Cl)nc2c1ncn2Cc1ccc(C(=O)OC)cc1

$$$$
