L1:Q96MU7:58793
 OpenBabel09212617413D

 34 36  0  0  0  0  0  0  0  0999 V2000
   -0.6717    8.1246    8.7298 C   0  0  0  0  0  0  0  0  0  0  0  0
   -1.9960    8.3659    8.5597 N   0  0  0  0  0  0  0  0  0  0  0  0
   -2.6419    7.7038    7.5810 C   0  0  0  0  0  0  0  0  0  0  0  0
   -4.3086    8.0639    7.4271 Cl  0  0  0  0  0  0  0  0  0  0  0  0
   -2.1679    6.7984    6.7025 N   0  0  0  0  0  0  0  0  0  0  0  0
   -0.8570    6.5956    6.9079 C   0  0  0  0  0  0  0  0  0  0  0  0
   -0.0553    7.1938    7.8676 C   0  0  0  0  0  0  0  0  0  0  0  0
    1.2425    6.7285    7.7782 N   0  0  0  0  0  0  0  0  0  0  0  0
    1.2263    5.8712    6.7790 C   0  0  0  0  0  0  0  0  0  0  0  0
   -0.0195    5.7608    6.2209 N   0  0  0  0  0  0  0  0  0  0  0  0
   -0.0228    8.3421   11.0856 C   0  0  0  0  0  0  0  0  0  0  0  0
    0.0425    8.7704    9.7157 N   0  0  0  0  0  0  0  0  0  0  0  0
    0.6064    9.5651    9.4390 H   0  0  0  0  0  0  0  0  0  0  0  0
   -0.3911    4.8812    5.1310 C   0  0  0  0  0  0  0  0  0  0  0  0
   -0.0254    3.4493    5.4336 C   0  0  0  0  0  0  0  0  0  0  0  0
    1.1086    2.8679    4.8451 C   0  0  0  0  0  0  0  0  0  0  0  0
    1.4623    1.5467    5.1333 C   0  0  0  0  0  0  0  0  0  0  0  0
    0.6857    0.7894    6.0164 C   0  0  0  0  0  0  0  0  0  0  0  0
   -0.4449    1.3641    6.6088 C   0  0  0  0  0  0  0  0  0  0  0  0
   -0.7975    2.6854    6.3209 C   0  0  0  0  0  0  0  0  0  0  0  0
    1.0189   -0.6154    6.3543 C   0  0  0  0  0  0  0  0  0  0  0  0
    0.6487   -1.2157    7.3463 O   0  0  0  0  0  0  0  0  0  0  0  0
    1.8002   -1.2040    5.4319 O   0  0  0  0  0  0  0  0  0  0  0  0
    1.9386   -2.1089    5.7826 H   0  0  0  0  0  0  0  0  0  0  0  0
    2.0532    5.3455    6.4552 H   0  0  0  0  0  0  0  0  0  0  0  0
   -0.6684    7.4924   11.1632 H   0  0  0  0  0  0  0  0  0  0  0  0
   -0.4059    9.1375   11.6901 H   0  0  0  0  0  0  0  0  0  0  0  0
    0.9573    8.0775   11.4237 H   0  0  0  0  0  0  0  0  0  0  0  0
    0.1195    5.1912    4.2432 H   0  0  0  0  0  0  0  0  0  0  0  0
   -1.4512    4.9381    4.9973 H   0  0  0  0  0  0  0  0  0  0  0  0
    1.6867    3.4212    4.1934 H   0  0  0  0  0  0  0  0  0  0  0  0
    2.2976    1.1294    4.6939 H   0  0  0  0  0  0  0  0  0  0  0  0
   -1.0208    0.8094    7.2613 H   0  0  0  0  0  0  0  0  0  0  0  0
   -1.6314    3.1017    6.7641 H   0  0  0  0  0  0  0  0  0  0  0  0
  1  2  2  0  0  0  0
  2  3  1  0  0  0  0
  3  4  1  0  0  0  0
  3  5  2  0  0  0  0
  5  6  1  0  0  0  0
  6  7  2  0  0  0  0
  7  8  1  0  0  0  0
  7  1  1  0  0  0  0
  8  9  2  0  0  0  0
  9 10  1  0  0  0  0
  9 25  1  0  0  0  0
 10 14  1  0  0  0  0
 10  6  1  0  0  0  0
 11 12  1  0  0  0  0
 11 26  1  0  0  0  0
 11 27  1  0  0  0  0
 11 28  1  0  0  0  0
 12  1  1  0  0  0  0
 12 13  1  0  0  0  0
 14 15  1  0  0  0  0
 14 29  1  0  0  0  0
 14 30  1  0  0  0  0
 15 16  2  0  0  0  0
 16 17  1  0  0  0  0
 16 31  1  0  0  0  0
 17 18  2  0  0  0  0
 17 32  1  0  0  0  0
 18 21  1  0  0  0  0
 18 19  1  0  0  0  0
 19 20  2  0  0  0  0
 19 33  1  0  0  0  0
 20 15  1  0  0  0  0
 20 34  1  0  0  0  0
 21 22  2  0  0  0  0
 21 23  1  0  0  0  0
 23 24  1  0  0  0  0
M  END
>  <minimizedAffinity>
-6.62311

$$$$
