L1:Q96MU7:58793
     RDKit          3D

 34 36  0  0  0  0  0  0  0  0999 V2000
    5.8274    0.0988   -0.8392 C   0  0  0  0  0  0  0  0  0  0  0  0
    4.6446   -0.5275   -0.3166 N   0  0  0  0  0  0  0  0  0  0  0  0
    3.5637    0.2198    0.0984 C   0  0  0  0  0  0  0  0  0  0  0  0
    3.5891    1.5748    0.0323 N   0  0  0  0  0  0  0  0  0  0  0  0
    2.5042    2.2520    0.4538 C   0  0  0  0  0  0  0  0  0  0  0  0
    2.6112    3.9567    0.3363 Cl  0  0  0  0  0  0  0  0  0  0  0  0
    1.3438    1.7840    0.9545 N   0  0  0  0  0  0  0  0  0  0  0  0
    1.3652    0.4426    0.9977 C   0  0  0  0  0  0  0  0  0  0  0  0
    2.3989   -0.3935    0.6052 C   0  0  0  0  0  0  0  0  0  0  0  0
    2.0583   -1.7174    0.8052 N   0  0  0  0  0  0  0  0  0  0  0  0
    0.8395   -1.6817    1.3023 C   0  0  0  0  0  0  0  0  0  0  0  0
    0.3788   -0.3986    1.4332 N   0  0  0  0  0  0  0  0  0  0  0  0
   -0.9039   -0.0045    1.9801 C   0  0  0  0  0  0  0  0  0  0  0  0
   -1.9841   -0.0463    0.9280 C   0  0  0  0  0  0  0  0  0  0  0  0
   -2.1265    1.0112    0.0160 C   0  0  0  0  0  0  0  0  0  0  0  0
   -3.1150    0.9719   -0.9714 C   0  0  0  0  0  0  0  0  0  0  0  0
   -3.9742   -0.1283   -1.0603 C   0  0  0  0  0  0  0  0  0  0  0  0
   -5.0381   -0.2173   -2.0893 C   0  0  0  0  0  0  0  0  0  0  0  0
   -5.8214   -1.1390   -2.2251 O   0  0  0  0  0  0  0  0  0  0  0  0
   -5.0722    0.8544   -2.9005 O   0  0  0  0  0  0  0  0  0  0  0  0
   -3.8358   -1.1875   -0.1557 C   0  0  0  0  0  0  0  0  0  0  0  0
   -2.8467   -1.1479    0.8309 C   0  0  0  0  0  0  0  0  0  0  0  0
    6.2905    0.7553   -0.0951 H   0  0  0  0  0  0  0  0  0  0  0  0
    5.6039    0.6790   -1.7405 H   0  0  0  0  0  0  0  0  0  0  0  0
    6.5606   -0.6675   -1.1095 H   0  0  0  0  0  0  0  0  0  0  0  0
    4.5687   -1.5354   -0.2491 H   0  0  0  0  0  0  0  0  0  0  0  0
    0.2503   -2.5465    1.5806 H   0  0  0  0  0  0  0  0  0  0  0  0
   -1.1344   -0.6813    2.8115 H   0  0  0  0  0  0  0  0  0  0  0  0
   -0.8145    1.0016    2.4054 H   0  0  0  0  0  0  0  0  0  0  0  0
   -1.4638    1.8749    0.0649 H   0  0  0  0  0  0  0  0  0  0  0  0
   -3.2032    1.8036   -1.6667 H   0  0  0  0  0  0  0  0  0  0  0  0
   -5.8069    0.6587   -3.5192 H   0  0  0  0  0  0  0  0  0  0  0  0
   -4.4984   -2.0493   -0.2180 H   0  0  0  0  0  0  0  0  0  0  0  0
   -2.7596   -1.9857    1.5199 H   0  0  0  0  0  0  0  0  0  0  0  0
  1  2  1  0
  2  3  1  0
  3  4  2  0
  4  5  1  0
  5  6  1  0
  5  7  2  0
  7  8  1  0
  8  9  2  0
  9 10  1  0
 10 11  2  0
 11 12  1  0
 12 13  1  0
 13 14  1  0
 14 15  2  0
 15 16  1  0
 16 17  2  0
 17 18  1  0
 18 19  2  0
 18 20  1  0
 17 21  1  0
 21 22  2  0
  9  3  1  0
 22 14  1  0
 12  8  1  0
  1 23  1  0
  1 24  1  0
  1 25  1  0
  2 26  1  0
 11 27  1  0
 13 28  1  0
 13 29  1  0
 15 30  1  0
 16 31  1  0
 20 32  1  0
 21 33  1  0
 22 34  1  0
M  END
>  <mol_id>  (1) 
58793

>  <source_index>  (1) 
3

>  <layer>  (1) 
L1

>  <uniprot>  (1) 
Q96MU7

>  <paff>  (1) 
6.0605000000000002

>  <smiles>  (1) 
CNc1c2c(nc(n1)Cl)n(cn2)Cc3ccc(cc3)C(=O)O

$$$$
