L1:Q96MU7:73954
 OpenBabel09212617413D

 37 39  0  0  0  0  0  0  0  0999 V2000
    0.8179    0.2092    4.9625 C   0  0  0  0  0  0  0  0  0  0  0  0
    1.2514    0.1603    3.6776 N   0  0  0  0  0  0  0  0  0  0  0  0
    1.2539    1.3017    2.9633 C   0  0  0  0  0  0  0  0  0  0  0  0
    1.8157    1.1594    1.3525 Cl  0  0  0  0  0  0  0  0  0  0  0  0
    0.8780    2.5427    3.3315 N   0  0  0  0  0  0  0  0  0  0  0  0
    0.4604    2.5407    4.6069 C   0  0  0  0  0  0  0  0  0  0  0  0
    0.3970    1.4569    5.4684 C   0  0  0  0  0  0  0  0  0  0  0  0
   -0.0915    1.8430    6.7017 N   0  0  0  0  0  0  0  0  0  0  0  0
   -0.3144    3.1358    6.5887 C   0  0  0  0  0  0  0  0  0  0  0  0
    0.0096    3.6017    5.3425 N   0  0  0  0  0  0  0  0  0  0  0  0
    0.9600   -2.2312    5.1649 C   0  0  0  0  0  0  0  0  0  0  0  0
    0.7914   -0.9265    5.7424 N   0  0  0  0  0  0  0  0  0  0  0  0
    0.6571   -0.8057    6.7392 H   0  0  0  0  0  0  0  0  0  0  0  0
   -0.1379    4.9651    4.8751 C   0  0  0  0  0  0  0  0  0  0  0  0
   -0.5088    5.8919    6.0058 C   0  0  0  0  0  0  0  0  0  0  0  0
   -1.8473    6.2490    6.2254 C   0  0  0  0  0  0  0  0  0  0  0  0
   -2.1831    7.1235    7.2597 C   0  0  0  0  0  0  0  0  0  0  0  0
   -3.8319    7.5464    7.5128 Cl  0  0  0  0  0  0  0  0  0  0  0  0
   -1.1998    7.6585    8.0891 C   0  0  0  0  0  0  0  0  0  0  0  0
    0.1408    7.3159    7.8818 C   0  0  0  0  0  0  0  0  0  0  0  0
    0.4800    6.4354    6.8409 C   0  0  0  0  0  0  0  0  0  0  0  0
    1.2411    7.8519    8.7279 C   0  0  0  0  0  0  0  0  0  0  0  0
    1.7817    8.9263    8.5177 O   0  0  0  0  0  0  0  0  0  0  0  0
    1.5389    6.9923    9.7319 O   0  0  0  0  0  0  0  0  0  0  0  0
    0.8994    7.3021   10.9714 C   0  0  0  0  0  0  0  0  0  0  0  0
   -0.6882    3.7266    7.3478 H   0  0  0  0  0  0  0  0  0  0  0  0
    1.0864   -2.1391    4.1064 H   0  0  0  0  0  0  0  0  0  0  0  0
    0.0951   -2.8267    5.3703 H   0  0  0  0  0  0  0  0  0  0  0  0
    1.8241   -2.6995    5.5879 H   0  0  0  0  0  0  0  0  0  0  0  0
   -0.9059    4.9978    4.1308 H   0  0  0  0  0  0  0  0  0  0  0  0
    0.7973    5.2864    4.4664 H   0  0  0  0  0  0  0  0  0  0  0  0
   -2.5877    5.8630    5.6189 H   0  0  0  0  0  0  0  0  0  0  0  0
   -1.4587    8.3037    8.8518 H   0  0  0  0  0  0  0  0  0  0  0  0
    1.4694    6.1848    6.6882 H   0  0  0  0  0  0  0  0  0  0  0  0
    1.1837    6.5813   11.7093 H   0  0  0  0  0  0  0  0  0  0  0  0
   -0.1623    7.2789   10.8405 H   0  0  0  0  0  0  0  0  0  0  0  0
    1.1979    8.2781   11.2926 H   0  0  0  0  0  0  0  0  0  0  0  0
  1  2  2  0  0  0  0
  2  3  1  0  0  0  0
  3  4  1  0  0  0  0
  3  5  2  0  0  0  0
  5  6  1  0  0  0  0
  6  7  2  0  0  0  0
  7  8  1  0  0  0  0
  7  1  1  0  0  0  0
  8  9  2  0  0  0  0
  9 10  1  0  0  0  0
  9 26  1  0  0  0  0
 10 14  1  0  0  0  0
 10  6  1  0  0  0  0
 11 12  1  0  0  0  0
 11 27  1  0  0  0  0
 11 28  1  0  0  0  0
 11 29  1  0  0  0  0
 12  1  1  0  0  0  0
 12 13  1  0  0  0  0
 14 15  1  0  0  0  0
 14 30  1  0  0  0  0
 14 31  1  0  0  0  0
 15 16  2  0  0  0  0
 16 17  1  0  0  0  0
 16 32  1  0  0  0  0
 17 18  1  0  0  0  0
 17 19  2  0  0  0  0
 19 20  1  0  0  0  0
 19 33  1  0  0  0  0
 20 22  1  0  0  0  0
 20 21  2  0  0  0  0
 21 15  1  0  0  0  0
 21 34  1  0  0  0  0
 22 23  2  0  0  0  0
 22 24  1  0  0  0  0
 24 25  1  0  0  0  0
 25 35  1  0  0  0  0
 25 36  1  0  0  0  0
 25 37  1  0  0  0  0
M  END
>  <minimizedAffinity>
-6.12536

$$$$
