L1:Q96MU7:73954
     RDKit          3D

 37 39  0  0  0  0  0  0  0  0999 V2000
   -6.1142    0.4429    1.8268 C   0  0  0  0  0  0  0  0  0  0  0  0
   -4.8595    0.9889    1.3888 N   0  0  0  0  0  0  0  0  0  0  0  0
   -4.0822    0.3360    0.4569 C   0  0  0  0  0  0  0  0  0  0  0  0
   -4.4848   -0.8430   -0.0809 N   0  0  0  0  0  0  0  0  0  0  0  0
   -3.6844   -1.4346   -0.9878 C   0  0  0  0  0  0  0  0  0  0  0  0
   -4.2596   -2.9184   -1.6186 Cl  0  0  0  0  0  0  0  0  0  0  0  0
   -2.4940   -1.0288   -1.4728 N   0  0  0  0  0  0  0  0  0  0  0  0
   -2.1383    0.1370   -0.9111 C   0  0  0  0  0  0  0  0  0  0  0  0
   -2.8471    0.8669    0.0299 C   0  0  0  0  0  0  0  0  0  0  0  0
   -2.1641    2.0194    0.3676 N   0  0  0  0  0  0  0  0  0  0  0  0
   -1.0621    1.9839   -0.3521 C   0  0  0  0  0  0  0  0  0  0  0  0
   -1.0009    0.8623   -1.1353 N   0  0  0  0  0  0  0  0  0  0  0  0
    0.0585    0.5259   -2.0646 C   0  0  0  0  0  0  0  0  0  0  0  0
    1.1635   -0.2377   -1.3783 C   0  0  0  0  0  0  0  0  0  0  0  0
    1.0604   -1.6233   -1.1866 C   0  0  0  0  0  0  0  0  0  0  0  0
    2.0758   -2.3220   -0.5322 C   0  0  0  0  0  0  0  0  0  0  0  0
    1.9299   -4.0222   -0.3099 Cl  0  0  0  0  0  0  0  0  0  0  0  0
    3.2054   -1.6597   -0.0565 C   0  0  0  0  0  0  0  0  0  0  0  0
    3.3227   -0.2771   -0.2358 C   0  0  0  0  0  0  0  0  0  0  0  0
    4.5000    0.4931    0.2488 C   0  0  0  0  0  0  0  0  0  0  0  0
    4.6215    1.6973    0.0884 O   0  0  0  0  0  0  0  0  0  0  0  0
    5.3844   -0.3215    0.8733 O   0  0  0  0  0  0  0  0  0  0  0  0
    6.5429    0.3506    1.3706 C   0  0  0  0  0  0  0  0  0  0  0  0
    2.3011    0.4273   -0.8946 C   0  0  0  0  0  0  0  0  0  0  0  0
   -5.9775   -0.5340    2.3022 H   0  0  0  0  0  0  0  0  0  0  0  0
   -6.8157    0.3411    0.9921 H   0  0  0  0  0  0  0  0  0  0  0  0
   -6.5690    1.1115    2.5643 H   0  0  0  0  0  0  0  0  0  0  0  0
   -4.5084    1.8639    1.7594 H   0  0  0  0  0  0  0  0  0  0  0  0
   -0.2827    2.7362   -0.3425 H   0  0  0  0  0  0  0  0  0  0  0  0
   -0.3672   -0.0584   -2.8885 H   0  0  0  0  0  0  0  0  0  0  0  0
    0.4346    1.4597   -2.4991 H   0  0  0  0  0  0  0  0  0  0  0  0
    0.1829   -2.1617   -1.5435 H   0  0  0  0  0  0  0  0  0  0  0  0
    3.9828   -2.2251    0.4508 H   0  0  0  0  0  0  0  0  0  0  0  0
    6.2602    1.1014    2.1152 H   0  0  0  0  0  0  0  0  0  0  0  0
    7.1839   -0.3920    1.8536 H   0  0  0  0  0  0  0  0  0  0  0  0
    7.1018    0.8094    0.5490 H   0  0  0  0  0  0  0  0  0  0  0  0
    2.3996    1.5050   -1.0273 H   0  0  0  0  0  0  0  0  0  0  0  0
  1  2  1  0
  2  3  1  0
  3  4  2  0
  4  5  1  0
  5  6  1  0
  5  7  2  0
  7  8  1  0
  8  9  2  0
  9 10  1  0
 10 11  2  0
 11 12  1  0
 12 13  1  0
 13 14  1  0
 14 15  2  0
 15 16  1  0
 16 17  1  0
 16 18  2  0
 18 19  1  0
 19 20  1  0
 20 21  2  0
 20 22  1  0
 22 23  1  0
 19 24  2  0
  9  3  1  0
 24 14  1  0
 12  8  1  0
  1 25  1  0
  1 26  1  0
  1 27  1  0
  2 28  1  0
 11 29  1  0
 13 30  1  0
 13 31  1  0
 15 32  1  0
 18 33  1  0
 23 34  1  0
 23 35  1  0
 23 36  1  0
 24 37  1  0
M  END
>  <mol_id>  (1) 
73954

>  <source_index>  (1) 
4

>  <layer>  (1) 
L1

>  <uniprot>  (1) 
Q96MU7

>  <paff>  (1) 
6

>  <smiles>  (1) 
CNc1nc(Cl)nc2c1ncn2Cc1cc(Cl)cc(C(=O)OC)c1

$$$$
