L1:Q96MU7:75808
 OpenBabel09212617413D

 34 36  0  0  0  0  0  0  0  0999 V2000
   -0.2975    7.7992    6.6739 C   0  0  0  0  0  0  0  0  0  0  0  0
   -1.6144    8.0715    6.8558 N   0  0  0  0  0  0  0  0  0  0  0  0
   -2.4855    7.0451    6.8258 C   0  0  0  0  0  0  0  0  0  0  0  0
   -4.1277    7.4687    7.0602 Cl  0  0  0  0  0  0  0  0  0  0  0  0
   -2.2542    5.7309    6.6371 N   0  0  0  0  0  0  0  0  0  0  0  0
   -0.9418    5.5122    6.4593 C   0  0  0  0  0  0  0  0  0  0  0  0
    0.0744    6.4548    6.4637 C   0  0  0  0  0  0  0  0  0  0  0  0
    1.2999    5.8520    6.2553 N   0  0  0  0  0  0  0  0  0  0  0  0
    1.0282    4.5708    6.1206 C   0  0  0  0  0  0  0  0  0  0  0  0
   -0.3134    4.3190    6.2326 N   0  0  0  0  0  0  0  0  0  0  0  0
    1.1437    9.3317    7.9358 C   0  0  0  0  0  0  0  0  0  0  0  0
    0.6413    8.8077    6.6959 N   0  0  0  0  0  0  0  0  0  0  0  0
    0.9552    9.1724    5.8045 H   0  0  0  0  0  0  0  0  0  0  0  0
   -0.9451    3.0165    6.1693 C   0  0  0  0  0  0  0  0  0  0  0  0
   -0.2404    2.1141    5.1878 C   0  0  0  0  0  0  0  0  0  0  0  0
   -0.3933    2.3106    3.8069 C   0  0  0  0  0  0  0  0  0  0  0  0
    0.2697    1.4894    2.8940 C   0  0  0  0  0  0  0  0  0  0  0  0
    1.0962    0.4626    3.3498 C   0  0  0  0  0  0  0  0  0  0  0  0
    1.2644    0.2544    4.7231 C   0  0  0  0  0  0  0  0  0  0  0  0
    0.5969    1.0805    5.6388 C   0  0  0  0  0  0  0  0  0  0  0  0
    2.1559   -0.8467    5.1624 C   0  0  0  0  0  0  0  0  0  0  0  0
    3.3324   -0.7411    5.4537 O   0  0  0  0  0  0  0  0  0  0  0  0
    1.5275   -2.0349    5.2169 O   0  0  0  0  0  0  0  0  0  0  0  0
    2.2272   -2.6516    5.5207 H   0  0  0  0  0  0  0  0  0  0  0  0
    1.7406    3.8436    5.9510 H   0  0  0  0  0  0  0  0  0  0  0  0
    0.6879    8.8128    8.7531 H   0  0  0  0  0  0  0  0  0  0  0  0
    0.9128   10.3744    8.0020 H   0  0  0  0  0  0  0  0  0  0  0  0
    2.2046    9.1981    7.9757 H   0  0  0  0  0  0  0  0  0  0  0  0
   -1.9632    3.1372    5.8632 H   0  0  0  0  0  0  0  0  0  0  0  0
   -0.8927    2.5677    7.1392 H   0  0  0  0  0  0  0  0  0  0  0  0
   -1.0020    3.0698    3.4631 H   0  0  0  0  0  0  0  0  0  0  0  0
    0.1483    1.6420    1.8806 H   0  0  0  0  0  0  0  0  0  0  0  0
    1.5845   -0.1446    2.6731 H   0  0  0  0  0  0  0  0  0  0  0  0
    0.7218    0.9278    6.6518 H   0  0  0  0  0  0  0  0  0  0  0  0
  1  2  2  0  0  0  0
  2  3  1  0  0  0  0
  3  4  1  0  0  0  0
  3  5  2  0  0  0  0
  5  6  1  0  0  0  0
  6  7  2  0  0  0  0
  7  8  1  0  0  0  0
  7  1  1  0  0  0  0
  8  9  2  0  0  0  0
  9 10  1  0  0  0  0
  9 25  1  0  0  0  0
 10 14  1  0  0  0  0
 10  6  1  0  0  0  0
 11 12  1  0  0  0  0
 11 26  1  0  0  0  0
 11 27  1  0  0  0  0
 11 28  1  0  0  0  0
 12  1  1  0  0  0  0
 12 13  1  0  0  0  0
 14 15  1  0  0  0  0
 14 29  1  0  0  0  0
 14 30  1  0  0  0  0
 15 16  2  0  0  0  0
 16 17  1  0  0  0  0
 16 31  1  0  0  0  0
 17 18  2  0  0  0  0
 17 32  1  0  0  0  0
 18 19  1  0  0  0  0
 18 33  1  0  0  0  0
 19 21  1  0  0  0  0
 19 20  2  0  0  0  0
 20 15  1  0  0  0  0
 20 34  1  0  0  0  0
 21 22  2  0  0  0  0
 21 23  1  0  0  0  0
 23 24  1  0  0  0  0
M  END
>  <minimizedAffinity>
-6.94643

$$$$
