L1:Q96MU7:76036
     RDKit          3D

 35 37  0  0  0  0  0  0  0  0999 V2000
    5.4050    2.5557    0.3618 C   0  0  0  0  0  0  0  0  0  0  0  0
    4.3230    1.8965    1.0393 N   0  0  0  0  0  0  0  0  0  0  0  0
    3.5435    0.9581    0.3986 C   0  0  0  0  0  0  0  0  0  0  0  0
    3.7799    0.6245   -0.8953 N   0  0  0  0  0  0  0  0  0  0  0  0
    2.9865   -0.3003   -1.4682 C   0  0  0  0  0  0  0  0  0  0  0  0
    3.3433   -0.6633   -3.1028 Cl  0  0  0  0  0  0  0  0  0  0  0  0
    1.9476   -0.9805   -0.9442 N   0  0  0  0  0  0  0  0  0  0  0  0
    1.7517   -0.6157    0.3326 C   0  0  0  0  0  0  0  0  0  0  0  0
    2.4778    0.3136    1.0609 C   0  0  0  0  0  0  0  0  0  0  0  0
    1.9849    0.4178    2.3472 N   0  0  0  0  0  0  0  0  0  0  0  0
    0.9762   -0.4273    2.3930 C   0  0  0  0  0  0  0  0  0  0  0  0
    0.7961   -1.0718    1.1981 N   0  0  0  0  0  0  0  0  0  0  0  0
   -0.1983   -2.0878    0.9179 C   0  0  0  0  0  0  0  0  0  0  0  0
   -1.5076   -1.4706    0.4963 C   0  0  0  0  0  0  0  0  0  0  0  0
   -1.6970   -1.0302   -0.8203 C   0  0  0  0  0  0  0  0  0  0  0  0
   -2.9043   -0.4404   -1.2143 C   0  0  0  0  0  0  0  0  0  0  0  0
   -3.9484   -0.2769   -0.2994 C   0  0  0  0  0  0  0  0  0  0  0  0
   -5.1616    0.2864   -0.5962 O   0  0  0  0  0  0  0  0  0  0  0  0
   -5.3585    0.7731   -1.9169 C   0  0  0  0  0  0  0  0  0  0  0  0
   -3.7587   -0.7167    1.0199 C   0  0  0  0  0  0  0  0  0  0  0  0
   -5.0002   -0.5517    2.2139 Cl  0  0  0  0  0  0  0  0  0  0  0  0
   -2.5514   -1.3052    1.4153 C   0  0  0  0  0  0  0  0  0  0  0  0
    5.8924    3.2590    1.0442 H   0  0  0  0  0  0  0  0  0  0  0  0
    5.0446    3.1246   -0.5017 H   0  0  0  0  0  0  0  0  0  0  0  0
    6.1608    1.8370    0.0282 H   0  0  0  0  0  0  0  0  0  0  0  0
    4.0986    2.1096    2.0040 H   0  0  0  0  0  0  0  0  0  0  0  0
    0.3487   -0.6083    3.2570 H   0  0  0  0  0  0  0  0  0  0  0  0
   -0.3198   -2.6956    1.8225 H   0  0  0  0  0  0  0  0  0  0  0  0
    0.1867   -2.7542    0.1375 H   0  0  0  0  0  0  0  0  0  0  0  0
   -0.9001   -1.1386   -1.5563 H   0  0  0  0  0  0  0  0  0  0  0  0
   -2.9929   -0.1185   -2.2473 H   0  0  0  0  0  0  0  0  0  0  0  0
   -4.6458    1.5695   -2.1552 H   0  0  0  0  0  0  0  0  0  0  0  0
   -6.3644    1.2009   -1.9689 H   0  0  0  0  0  0  0  0  0  0  0  0
   -5.3047   -0.0397   -2.6485 H   0  0  0  0  0  0  0  0  0  0  0  0
   -2.4336   -1.6333    2.4458 H   0  0  0  0  0  0  0  0  0  0  0  0
  1  2  1  0
  2  3  1  0
  3  4  2  0
  4  5  1  0
  5  6  1  0
  5  7  2  0
  7  8  1  0
  8  9  2  0
  9 10  1  0
 10 11  2  0
 11 12  1  0
 12 13  1  0
 13 14  1  0
 14 15  2  0
 15 16  1  0
 16 17  2  0
 17 18  1  0
 18 19  1  0
 17 20  1  0
 20 21  1  0
 20 22  2  0
  9  3  1  0
 22 14  1  0
 12  8  1  0
  1 23  1  0
  1 24  1  0
  1 25  1  0
  2 26  1  0
 11 27  1  0
 13 28  1  0
 13 29  1  0
 15 30  1  0
 16 31  1  0
 19 32  1  0
 19 33  1  0
 19 34  1  0
 22 35  1  0
M  END
>  <mol_id>  (1) 
76036

>  <source_index>  (1) 
6

>  <layer>  (1) 
L1

>  <uniprot>  (1) 
Q96MU7

>  <paff>  (1) 
6.2290999999999999

>  <smiles>  (1) 
CNc1nc(Cl)nc2c1ncn2Cc1ccc(OC)c(Cl)c1

$$$$
