L1:Q96MU7:76036


 23 25  0  0  0  0  0  0  0  0999 V2000
   -0.5448    8.1340    8.6413 C   0  0  0  0  0  0  0  0  0  0  0  0
   -1.8703    8.3897    8.5033 N   0  0  0  0  0  0  0  0  0  0  0  0
   -2.5609    7.6865    7.5860 C   0  0  0  0  0  0  0  0  0  0  0  0
   -4.2277    8.0615    7.4752 Cl  0  0  0  0  0  0  0  0  0  0  0  0
   -2.1329    6.7255    6.7434 N   0  0  0  0  0  0  0  0  0  0  0  0
   -0.8202    6.5069    6.9184 C   0  0  0  0  0  0  0  0  0  0  0  0
    0.0249    7.1442    7.8134 C   0  0  0  0  0  0  0  0  0  0  0  0
    1.3123    6.6560    7.7004 N   0  0  0  0  0  0  0  0  0  0  0  0
    1.2447    5.7368    6.7601 C   0  0  0  0  0  0  0  0  0  0  0  0
   -0.0243    5.6099    6.2610 N   0  0  0  0  0  0  0  0  0  0  0  0
    0.3543    8.3551   10.9132 C   0  0  0  0  0  0  0  0  0  0  0  0
    0.2148    8.8227    9.5619 N   0  0  0  0  0  0  0  0  0  0  0  0
    0.6777    9.6671    9.2469 H   0  0  0  0  0  0  0  0  0  0  0  0
   -0.4372    4.7186    5.1958 C   0  0  0  0  0  0  0  0  0  0  0  0
   -0.0383    3.2944    5.4883 C   0  0  0  0  0  0  0  0  0  0  0  0
   -0.7951    2.5083    6.3672 C   0  0  0  0  0  0  0  0  0  0  0  0
   -0.4208    1.1904    6.6567 C   0  0  0  0  0  0  0  0  0  0  0  0
    0.7198    0.6303    6.0743 C   0  0  0  0  0  0  0  0  0  0  0  0
    1.4790    1.4178    5.1948 C   0  0  0  0  0  0  0  0  0  0  0  0
    2.9042    0.8008    4.4319 Cl  0  0  0  0  0  0  0  0  0  0  0  0
    1.1064    2.7361    4.9058 C   0  0  0  0  0  0  0  0  0  0  0  0
    1.1594   -0.6480    6.2978 O   0  0  0  0  0  0  0  0  0  0  0  0
    0.8384   -1.6359    5.3279 C   0  0  0  0  0  0  0  0  0  0  0  0
 11 12  1  0  0  0
 12  1  1  0  0  0
  1  2  2  0  0  0
  2  3  1  0  0  0
  3  4  1  0  0  0
  3  5  2  0  0  0
  5  6  1  0  0  0
  6  7  2  0  0  0
  7  8  1  0  0  0
  8  9  2  0  0  0
  9 10  1  0  0  0
 10 14  1  0  0  0
 14 15  1  0  0  0
 15 16  2  0  0  0
 16 17  1  0  0  0
 17 18  2  0  0  0
 18 22  1  0  0  0
 22 23  1  0  0  0
 18 19  1  0  0  0
 19 20  1  0  0  0
 19 21  2  0  0  0
  7  1  1  0  0  0
 21 15  1  0  0  0
 10  6  1  0  0  0
 12 13  1  0  0  0
M  END
> <minimizedAffinity>
-6.35241

$$$$
