L1:Q96MU7:88977
 OpenBabel09212617423D

 39 41  0  0  0  0  0  0  0  0999 V2000
    7.8962   -1.4643   -0.5887 C   0  0  0  0  0  0  0  0  0  0  0  0
    5.6338   -5.4110   -2.2855 C   0  0  0  0  0  0  0  0  0  0  0  0
    5.0704   -4.7717   -3.3415 N   0  0  0  0  0  0  0  0  0  0  0  0
    5.3162   -3.4563   -3.4927 C   0  0  0  0  0  0  0  0  0  0  0  0
    4.5735   -2.7214   -4.8488 Cl  0  0  0  0  0  0  0  0  0  0  0  0
    6.0657   -2.6330   -2.7339 N   0  0  0  0  0  0  0  0  0  0  0  0
    6.6047   -3.3100   -1.7079 C   0  0  0  0  0  0  0  0  0  0  0  0
    6.4461   -4.6553   -1.4145 C   0  0  0  0  0  0  0  0  0  0  0  0
    7.1487   -4.9926   -0.2737 N   0  0  0  0  0  0  0  0  0  0  0  0
    7.7169   -3.8705    0.1173 C   0  0  0  0  0  0  0  0  0  0  0  0
    7.4327   -2.8323   -0.7298 N   0  0  0  0  0  0  0  0  0  0  0  0
    5.2510   -7.6641   -3.1767 C   0  0  0  0  0  0  0  0  0  0  0  0
    5.4155   -6.7556   -2.0760 N   0  0  0  0  0  0  0  0  0  0  0  0
    5.3578   -7.0744   -1.1161 H   0  0  0  0  0  0  0  0  0  0  0  0
    9.3908   -1.3739   -0.7951 C   0  0  0  0  0  0  0  0  0  0  0  0
   10.2236   -1.2592    0.3355 C   0  0  0  0  0  0  0  0  0  0  0  0
   11.6005   -1.0929    0.1928 C   0  0  0  0  0  0  0  0  0  0  0  0
   12.5962   -0.9535    1.5874 Cl  0  0  0  0  0  0  0  0  0  0  0  0
   12.1728   -1.0280   -1.0734 C   0  0  0  0  0  0  0  0  0  0  0  0
   11.3629   -1.1377   -2.2044 C   0  0  0  0  0  0  0  0  0  0  0  0
    9.9812   -1.3166   -2.0689 C   0  0  0  0  0  0  0  0  0  0  0  0
    9.2010   -1.4715   -3.2515 N   0  0  0  0  0  0  0  0  0  0  0  0
    8.3268   -1.9920   -3.1558 H   0  0  0  0  0  0  0  0  0  0  0  0
    9.0444   -0.1498   -4.2951 S   0  0  0  0  0  0  0  0  0  0  0  0
    7.5847   -0.5518   -5.2349 C   0  0  0  0  0  0  0  0  0  0  0  0
   10.1759   -0.2322   -5.1926 O   0  0  0  0  0  0  0  0  0  0  0  0
    8.7832    1.0423   -3.5201 O   0  0  0  0  0  0  0  0  0  0  0  0
    7.6569   -1.1135    0.3934 H   0  0  0  0  0  0  0  0  0  0  0  0
    7.4130   -0.8628   -1.3301 H   0  0  0  0  0  0  0  0  0  0  0  0
    8.3055   -3.7839    0.9606 H   0  0  0  0  0  0  0  0  0  0  0  0
    5.3478   -7.1291   -4.0983 H   0  0  0  0  0  0  0  0  0  0  0  0
    4.2816   -8.1143   -3.1258 H   0  0  0  0  0  0  0  0  0  0  0  0
    6.0010   -8.4256   -3.1258 H   0  0  0  0  0  0  0  0  0  0  0  0
    9.8097   -1.2987    1.2800 H   0  0  0  0  0  0  0  0  0  0  0  0
   13.1916   -0.8993   -1.1758 H   0  0  0  0  0  0  0  0  0  0  0  0
   11.7845   -1.0867   -3.1450 H   0  0  0  0  0  0  0  0  0  0  0  0
    7.7648   -1.4335   -5.8138 H   0  0  0  0  0  0  0  0  0  0  0  0
    7.3460    0.2613   -5.8882 H   0  0  0  0  0  0  0  0  0  0  0  0
    6.7668   -0.7246   -4.5670 H   0  0  0  0  0  0  0  0  0  0  0  0
  1 15  1  0  0  0  0
  1 28  1  0  0  0  0
  1 29  1  0  0  0  0
  2  3  2  0  0  0  0
  3  4  1  0  0  0  0
  4  5  1  0  0  0  0
  4  6  2  0  0  0  0
  6  7  1  0  0  0  0
  7  8  2  0  0  0  0
  8  9  1  0  0  0  0
  8  2  1  0  0  0  0
  9 10  2  0  0  0  0
 10 11  1  0  0  0  0
 10 30  1  0  0  0  0
 11  1  1  0  0  0  0
 11  7  1  0  0  0  0
 12 13  1  0  0  0  0
 12 31  1  0  0  0  0
 12 32  1  0  0  0  0
 12 33  1  0  0  0  0
 13  2  1  0  0  0  0
 13 14  1  0  0  0  0
 15 16  2  0  0  0  0
 16 17  1  0  0  0  0
 16 34  1  0  0  0  0
 17 18  1  0  0  0  0
 17 19  2  0  0  0  0
 19 20  1  0  0  0  0
 19 35  1  0  0  0  0
 20 21  2  0  0  0  0
 20 36  1  0  0  0  0
 21 22  1  0  0  0  0
 21 15  1  0  0  0  0
 22 24  1  0  0  0  0
 22 23  1  0  0  0  0
 24 25  1  0  0  0  0
 24 26  2  0  0  0  0
 24 27  2  0  0  0  0
 25 37  1  0  0  0  0
 25 38  1  0  0  0  0
 25 39  1  0  0  0  0
M  END
>  <minimizedAffinity>
-5.07405

$$$$
