L1:Q96MU7:88977
     RDKit          3D

 39 41  0  0  0  0  0  0  0  0999 V2000
    5.5327    3.0836   -0.2361 C   0  0  0  0  0  0  0  0  0  0  0  0
    4.2224    2.7940    0.2768 N   0  0  0  0  0  0  0  0  0  0  0  0
    3.6659    1.5396    0.1492 C   0  0  0  0  0  0  0  0  0  0  0  0
    4.3383    0.5416   -0.4778 N   0  0  0  0  0  0  0  0  0  0  0  0
    3.7457   -0.6643   -0.5686 C   0  0  0  0  0  0  0  0  0  0  0  0
    4.6543   -1.8703   -1.3754 Cl  0  0  0  0  0  0  0  0  0  0  0  0
    2.5385   -1.0606   -0.1203 N   0  0  0  0  0  0  0  0  0  0  0  0
    1.9111   -0.0407    0.4861 C   0  0  0  0  0  0  0  0  0  0  0  0
    2.3846    1.2499    0.6629 C   0  0  0  0  0  0  0  0  0  0  0  0
    1.4597    2.0211    1.3400 N   0  0  0  0  0  0  0  0  0  0  0  0
    0.4485    1.2097    1.5723 C   0  0  0  0  0  0  0  0  0  0  0  0
    0.6683   -0.0403    1.0569 N   0  0  0  0  0  0  0  0  0  0  0  0
   -0.2400   -1.1692    1.1392 C   0  0  0  0  0  0  0  0  0  0  0  0
   -1.0240   -1.3293   -0.1431 C   0  0  0  0  0  0  0  0  0  0  0  0
   -0.5442   -2.2220   -1.1218 C   0  0  0  0  0  0  0  0  0  0  0  0
   -1.1884   -2.3444   -2.3522 C   0  0  0  0  0  0  0  0  0  0  0  0
   -0.5831   -3.4393   -3.5315 Cl  0  0  0  0  0  0  0  0  0  0  0  0
   -2.3131   -1.5766   -2.6358 C   0  0  0  0  0  0  0  0  0  0  0  0
   -2.8010   -0.6857   -1.6790 C   0  0  0  0  0  0  0  0  0  0  0  0
   -2.1665   -0.5660   -0.4370 C   0  0  0  0  0  0  0  0  0  0  0  0
   -2.7289    0.3215    0.5259 N   0  0  0  0  0  0  0  0  0  0  0  0
   -3.8122   -0.3030    1.6648 S   0  0  0  0  0  6  0  0  0  0  0  0
   -5.2650   -0.6446    0.6911 C   0  0  0  0  0  0  0  0  0  0  0  0
   -4.1271    0.8027    2.5428 O   0  0  0  0  0  0  0  0  0  0  0  0
   -3.2959   -1.5509    2.1808 O   0  0  0  0  0  0  0  0  0  0  0  0
    5.7852    4.1287   -0.0313 H   0  0  0  0  0  0  0  0  0  0  0  0
    6.2932    2.4572    0.2417 H   0  0  0  0  0  0  0  0  0  0  0  0
    5.5759    2.9368   -1.3203 H   0  0  0  0  0  0  0  0  0  0  0  0
    3.6788    3.4979    0.7620 H   0  0  0  0  0  0  0  0  0  0  0  0
   -0.4606    1.4719    2.1004 H   0  0  0  0  0  0  0  0  0  0  0  0
    0.3572   -2.0641    1.3520 H   0  0  0  0  0  0  0  0  0  0  0  0
   -0.8820   -1.0181    2.0098 H   0  0  0  0  0  0  0  0  0  0  0  0
    0.3513   -2.8120   -0.9289 H   0  0  0  0  0  0  0  0  0  0  0  0
   -2.8100   -1.6651   -3.5987 H   0  0  0  0  0  0  0  0  0  0  0  0
   -3.6769   -0.0890   -1.9193 H   0  0  0  0  0  0  0  0  0  0  0  0
   -3.0166    1.2409    0.1849 H   0  0  0  0  0  0  0  0  0  0  0  0
   -5.0592   -1.4690    0.0075 H   0  0  0  0  0  0  0  0  0  0  0  0
   -6.0644   -0.9325    1.3779 H   0  0  0  0  0  0  0  0  0  0  0  0
   -5.5525    0.2599    0.1521 H   0  0  0  0  0  0  0  0  0  0  0  0
  1  2  1  0
  2  3  1  0
  3  4  2  0
  4  5  1  0
  5  6  1  0
  5  7  2  0
  7  8  1  0
  8  9  2  0
  9 10  1  0
 10 11  2  0
 11 12  1  0
 12 13  1  0
 13 14  1  0
 14 15  2  0
 15 16  1  0
 16 17  1  0
 16 18  2  0
 18 19  1  0
 19 20  2  0
 20 21  1  0
 21 22  1  0
 22 23  1  0
 22 24  2  0
 22 25  2  0
  9  3  1  0
 20 14  1  0
 12  8  1  0
  1 26  1  0
  1 27  1  0
  1 28  1  0
  2 29  1  0
 11 30  1  0
 13 31  1  0
 13 32  1  0
 15 33  1  0
 18 34  1  0
 19 35  1  0
 21 36  1  0
 23 37  1  0
 23 38  1  0
 23 39  1  0
M  END
>  <mol_id>  (1) 
88977

>  <source_index>  (1) 
7

>  <layer>  (1) 
L1

>  <uniprot>  (1) 
Q96MU7

>  <paff>  (1) 
6.3468

>  <smiles>  (1) 
CNc1c2c(nc(n1)Cl)n(cn2)Cc3cc(ccc3NS(=O)(=O)C)Cl

$$$$
