L2:P56817:107160
     RDKit          3D

 55 59  0  0  0  0  0  0  0  0999 V2000
    8.2926    2.8258   -2.5349 C   0  0  0  0  0  0  0  0  0  0  0  0
    8.2696    1.8962   -1.7746 C   0  0  0  0  0  0  0  0  0  0  0  0
    8.2381    0.7592   -0.8449 C   0  0  0  0  0  0  0  0  0  0  0  0
    7.3729    1.0186    0.2653 O   0  0  0  0  0  0  0  0  0  0  0  0
    6.0385    0.7823    0.1124 C   0  0  0  0  0  0  0  0  0  0  0  0
    5.3653    0.4685   -1.0559 C   0  0  0  0  0  0  0  0  0  0  0  0
    4.0291    0.2430   -1.1300 N   0  0  0  0  0  0  0  0  0  0  0  0
    3.2941    0.3383    0.0106 C   0  0  0  0  0  0  0  0  0  0  0  0
    1.8990    0.1203    0.0175 C   0  0  0  0  0  0  0  0  0  0  0  0
    1.3100   -0.2086   -1.2329 N   0  0  0  0  0  0  0  0  0  0  0  0
    0.0174   -0.5747   -1.6255 C   0  0  0  0  0  0  0  0  0  0  0  0
   -0.2780   -0.6039   -2.9954 C   0  0  0  0  0  0  0  0  0  0  0  0
   -1.5578   -0.9195   -3.4477 C   0  0  0  0  0  0  0  0  0  0  0  0
   -2.5605   -1.2198   -2.5323 C   0  0  0  0  0  0  0  0  0  0  0  0
   -3.7848   -1.4717   -3.0152 F   0  0  0  0  0  0  0  0  0  0  0  0
   -2.3192   -1.2331   -1.1539 C   0  0  0  0  0  0  0  0  0  0  0  0
   -3.4319   -1.5477   -0.1268 C   0  0  1  0  0  0  0  0  0  0  0  0
   -4.2286   -2.8179   -0.5542 C   0  0  0  0  0  0  0  0  0  0  0  0
   -5.1742   -3.1322    0.3799 F   0  0  0  0  0  0  0  0  0  0  0  0
   -2.8185   -1.8642    1.1713 N   0  0  0  0  0  0  0  0  0  0  0  0
   -3.3709   -1.6465    2.3030 C   0  0  0  0  0  0  0  0  0  0  0  0
   -2.7318   -2.0143    3.4353 N   0  0  0  0  0  0  0  0  0  0  0  0
   -4.9071   -0.8915    2.6058 S   0  0  0  0  0  0  0  0  0  0  0  0
   -5.1187    0.0338    1.1369 C   0  0  1  0  0  0  0  0  0  0  0  0
   -6.5352    0.5369    0.9440 C   0  0  0  0  0  0  0  0  0  0  0  0
   -6.8588    1.4929    1.9512 O   0  0  0  0  0  0  0  0  0  0  0  0
   -3.9874    0.9225    0.6547 C   0  0  0  0  0  0  0  0  0  0  0  0
   -4.3418   -0.3413   -0.0977 C   0  0  1  0  0  0  0  0  0  0  0  0
   -1.0152   -0.8842   -0.7281 C   0  0  0  0  0  0  0  0  0  0  0  0
    1.1402    0.2203    1.1384 N   0  0  0  0  0  0  0  0  0  0  0  0
    1.7535    0.5413    2.2918 C   0  0  0  0  0  0  0  0  0  0  0  0
    3.1102    0.7704    2.3960 C   0  0  0  0  0  0  0  0  0  0  0  0
    3.8915    0.6675    1.2410 C   0  0  0  0  0  0  0  0  0  0  0  0
    5.2770    0.8884    1.2724 C   0  0  0  0  0  0  0  0  0  0  0  0
    8.3107    3.6555   -3.2040 H   0  0  0  0  0  0  0  0  0  0  0  0
    9.2413    0.6170   -0.4272 H   0  0  0  0  0  0  0  0  0  0  0  0
    7.9827   -0.1835   -1.3424 H   0  0  0  0  0  0  0  0  0  0  0  0
    5.8674    0.3864   -2.0140 H   0  0  0  0  0  0  0  0  0  0  0  0
    2.0051   -0.1338   -1.9716 H   0  0  0  0  0  0  0  0  0  0  0  0
    0.4896   -0.3610   -3.7260 H   0  0  0  0  0  0  0  0  0  0  0  0
   -1.7830   -0.9199   -4.5094 H   0  0  0  0  0  0  0  0  0  0  0  0
   -3.5672   -3.6857   -0.6516 H   0  0  0  0  0  0  0  0  0  0  0  0
   -4.7705   -2.6897   -1.4931 H   0  0  0  0  0  0  0  0  0  0  0  0
   -3.1578   -1.8768    4.3381 H   0  0  0  0  0  0  0  0  0  0  0  0
   -1.8320   -2.4638    3.3534 H   0  0  0  0  0  0  0  0  0  0  0  0
   -7.2602   -0.2836    0.9908 H   0  0  0  0  0  0  0  0  0  0  0  0
   -6.6601    1.0298   -0.0262 H   0  0  0  0  0  0  0  0  0  0  0  0
   -6.6183    1.0752    2.7979 H   0  0  0  0  0  0  0  0  0  0  0  0
   -3.0530    0.9558    1.2044 H   0  0  0  0  0  0  0  0  0  0  0  0
   -4.2397    1.8727    0.1955 H   0  0  0  0  0  0  0  0  0  0  0  0
   -4.8455   -0.2058   -1.0517 H   0  0  0  0  0  0  0  0  0  0  0  0
   -0.8068   -0.8634    0.3381 H   0  0  0  0  0  0  0  0  0  0  0  0
    1.1018    0.6121    3.1581 H   0  0  0  0  0  0  0  0  0  0  0  0
    3.5439    1.0258    3.3570 H   0  0  0  0  0  0  0  0  0  0  0  0
    5.7727    1.1454    2.2061 H   0  0  0  0  0  0  0  0  0  0  0  0
  1  2  3  0
  2  3  1  0
  3  4  1  0
  4  5  1  0
  5  6  2  0
  6  7  1  0
  7  8  2  0
  8  9  1  0
  9 10  1  0
 10 11  1  0
 11 12  2  0
 12 13  1  0
 13 14  2  0
 14 15  1  0
 14 16  1  0
 16 17  1  0
 17 18  1  6
 18 19  1  0
 17 20  1  0
 20 21  2  0
 21 22  1  0
 21 23  1  0
 23 24  1  0
 24 25  1  6
 25 26  1  0
 24 27  1  0
 27 28  1  0
 16 29  2  0
  9 30  2  0
 30 31  1  0
 31 32  2  0
 32 33  1  0
 33 34  2  0
 34  5  1  0
 33  8  1  0
 29 11  1  0
 28 17  1  0
 28 24  1  0
  1 35  1  0
  3 36  1  0
  3 37  1  0
  6 38  1  0
 10 39  1  0
 12 40  1  0
 13 41  1  0
 18 42  1  0
 18 43  1  0
 22 44  1  0
 22 45  1  0
 25 46  1  0
 25 47  1  0
 26 48  1  0
 27 49  1  0
 27 50  1  0
 28 51  1  6
 29 52  1  0
 31 53  1  0
 32 54  1  0
 34 55  1  0
M  END
>  <mol_id>  (1) 
107160

>  <source_index>  (1) 
9

>  <layer>  (1) 
L2

>  <uniprot>  (1) 
P56817

>  <paff>  (1) 
7.9787999999999997

>  <smiles>  (1) 
C#CCOc1cnc2c(Nc3ccc(F)c([C@@]4(CF)N=C(N)S[C@@]5(CO)C[C@H]54)c3)nccc2c1

$$$$
