L2:P56817:13349
     RDKit          3D

 59 63  0  0  0  0  0  0  0  0999 V2000
   -5.8598    0.1598   -3.1645 C   0  0  0  0  0  0  0  0  0  0  0  0
   -5.2644    1.2741   -2.5161 O   0  0  0  0  0  0  0  0  0  0  0  0
   -6.0798    1.8153   -1.4695 C   0  0  0  0  0  0  0  0  0  0  0  0
   -5.7768    1.1518   -0.1341 C   0  0  2  0  0  0  0  0  0  0  0  0
   -5.1869    2.0214    0.9663 C   0  0  0  0  0  0  0  0  0  0  0  0
   -4.3263    1.0013    0.2608 C   0  0  1  0  0  0  0  0  0  0  0  0
   -3.8381   -0.2738    0.9018 C   0  0  1  0  0  0  0  0  0  0  0  0
   -3.5623   -1.3230   -0.2066 C   0  0  0  0  0  0  0  0  0  0  0  0
   -2.5622    0.0863    1.6904 C   0  0  0  0  0  0  0  0  0  0  0  0
   -1.2645   -0.0915    1.1554 C   0  0  0  0  0  0  0  0  0  0  0  0
   -0.1100    0.2520    1.8746 C   0  0  0  0  0  0  0  0  0  0  0  0
    1.1974    0.0849    1.3838 N   0  0  0  0  0  0  0  0  0  0  0  0
    1.5994   -0.4245    0.1629 C   0  0  0  0  0  0  0  0  0  0  0  0
    0.8867   -0.8340   -0.7444 O   0  0  0  0  0  0  0  0  0  0  0  0
    3.0820   -0.4476    0.0026 C   0  0  0  0  0  0  0  0  0  0  0  0
    3.6549   -0.9266   -1.1677 C   0  0  0  0  0  0  0  0  0  0  0  0
    5.0006   -0.9674   -1.3565 N   0  0  0  0  0  0  0  0  0  0  0  0
    5.7437   -0.5048   -0.3248 C   0  0  0  0  0  0  0  0  0  0  0  0
    7.1187   -0.5066   -0.4016 O   0  0  0  0  0  0  0  0  0  0  0  0
    7.6085   -0.9278   -1.6752 C   0  0  0  0  0  0  0  0  0  0  0  0
    9.1003   -0.8762   -1.6327 C   0  0  1  0  0  0  0  0  0  0  0  0
    9.9073   -0.7184   -2.9064 C   0  0  0  0  0  0  0  0  0  0  0  0
    9.7953    0.3966   -1.9328 C   0  0  0  0  0  0  0  0  0  0  0  0
    9.0974    1.5327   -2.2671 F   0  0  0  0  0  0  0  0  0  0  0  0
   10.8930    0.7833   -1.2012 F   0  0  0  0  0  0  0  0  0  0  0  0
    5.1682   -0.0272    0.8484 C   0  0  0  0  0  0  0  0  0  0  0  0
    3.8260    0.0173    1.0497 N   0  0  0  0  0  0  0  0  0  0  0  0
   -0.2423    0.7958    3.1518 C   0  0  0  0  0  0  0  0  0  0  0  0
   -1.5081    0.9957    3.6867 C   0  0  0  0  0  0  0  0  0  0  0  0
   -1.6182    1.5357    4.9093 F   0  0  0  0  0  0  0  0  0  0  0  0
   -2.6515    0.6541    2.9717 C   0  0  0  0  0  0  0  0  0  0  0  0
   -3.8425    0.9012    3.5382 F   0  0  0  0  0  0  0  0  0  0  0  0
   -4.7982   -0.9085    1.8056 N   0  0  0  0  0  0  0  0  0  0  0  0
   -6.0646   -0.8745    1.6245 C   0  0  0  0  0  0  0  0  0  0  0  0
   -6.8828   -1.5011    2.4980 N   0  0  0  0  0  0  0  0  0  0  0  0
   -6.9257   -0.0902    0.3277 S   0  0  0  0  0  0  0  0  0  0  0  0
   -5.9697   -0.6822   -2.4777 H   0  0  0  0  0  0  0  0  0  0  0  0
   -5.2015   -0.1506   -3.9806 H   0  0  0  0  0  0  0  0  0  0  0  0
   -6.8305    0.4327   -3.5894 H   0  0  0  0  0  0  0  0  0  0  0  0
   -5.8244    2.8798   -1.4118 H   0  0  0  0  0  0  0  0  0  0  0  0
   -7.1434    1.7773   -1.7375 H   0  0  0  0  0  0  0  0  0  0  0  0
   -5.4748    1.8473    1.9969 H   0  0  0  0  0  0  0  0  0  0  0  0
   -4.9841    3.0672    0.7617 H   0  0  0  0  0  0  0  0  0  0  0  0
   -3.5857    1.3975   -0.4313 H   0  0  0  0  0  0  0  0  0  0  0  0
   -3.0710   -2.2142    0.2019 H   0  0  0  0  0  0  0  0  0  0  0  0
   -2.9379   -0.9208   -1.0125 H   0  0  0  0  0  0  0  0  0  0  0  0
   -4.4893   -1.6625   -0.6816 H   0  0  0  0  0  0  0  0  0  0  0  0
   -1.1596   -0.5024    0.1574 H   0  0  0  0  0  0  0  0  0  0  0  0
    1.9678    0.3670    1.9884 H   0  0  0  0  0  0  0  0  0  0  0  0
    3.0501   -1.2933   -1.9910 H   0  0  0  0  0  0  0  0  0  0  0  0
    7.3061   -1.9637   -1.8727 H   0  0  0  0  0  0  0  0  0  0  0  0
    7.2208   -0.2759   -2.4687 H   0  0  0  0  0  0  0  0  0  0  0  0
    9.5118   -1.4963   -0.8469 H   0  0  0  0  0  0  0  0  0  0  0  0
    9.3855   -0.6056   -3.8477 H   0  0  0  0  0  0  0  0  0  0  0  0
   10.8622   -1.2233   -2.9708 H   0  0  0  0  0  0  0  0  0  0  0  0
    5.7853    0.3360    1.6633 H   0  0  0  0  0  0  0  0  0  0  0  0
    0.6212    1.0779    3.7451 H   0  0  0  0  0  0  0  0  0  0  0  0
   -6.4695   -1.9572    3.2981 H   0  0  0  0  0  0  0  0  0  0  0  0
   -7.8838   -1.4704    2.3869 H   0  0  0  0  0  0  0  0  0  0  0  0
  1  2  1  0
  2  3  1  0
  4  3  1  6
  4  5  1  0
  5  6  1  0
  6  7  1  0
  7  8  1  6
  7  9  1  0
  9 10  2  0
 10 11  1  0
 11 12  1  0
 12 13  1  0
 13 14  2  0
 13 15  1  0
 15 16  2  0
 16 17  1  0
 17 18  2  0
 18 19  1  0
 19 20  1  0
 20 21  1  0
 21 22  1  0
 22 23  1  0
 23 24  1  0
 23 25  1  0
 18 26  1  0
 26 27  2  0
 11 28  2  0
 28 29  1  0
 29 30  1  0
 29 31  2  0
 31 32  1  0
  7 33  1  0
 33 34  2  0
 34 35  1  0
 34 36  1  0
  6  4  1  0
 31  9  1  0
 36  4  1  0
 27 15  1  0
 23 21  1  0
  1 37  1  0
  1 38  1  0
  1 39  1  0
  3 40  1  0
  3 41  1  0
  5 42  1  0
  5 43  1  0
  6 44  1  6
  8 45  1  0
  8 46  1  0
  8 47  1  0
 10 48  1  0
 12 49  1  0
 16 50  1  0
 20 51  1  0
 20 52  1  0
 21 53  1  1
 22 54  1  0
 22 55  1  0
 26 56  1  0
 28 57  1  0
 35 58  1  0
 35 59  1  0
M  END
>  <mol_id>  (1) 
13349

>  <source_index>  (1) 
1

>  <layer>  (1) 
L2

>  <uniprot>  (1) 
P56817

>  <paff>  (1) 
8.5884

>  <smiles>  (1) 
COC[C@]12C[C@H]1[C@@](C)(c1cc(NC(=O)c3cnc(OCC4CC4(F)F)cn3)cc(F)c1F)N=C(N)S2

$$$$
