L2:P56817:13349


 39 43  0  0  0  0  0  0  0  0999 V2000
   70.2750   48.0775    9.5392 C   0  0  0  0  0  0  0  0  0  0  0  0
   68.9200   48.2225    9.9196 C   0  0  0  0  0  0  0  0  0  0  0  0
   68.1874   49.3842    9.6334 C   0  0  0  0  0  0  0  0  0  0  0  0
   68.8141   50.4344    8.9634 C   0  0  0  0  0  0  0  0  0  0  0  0
   70.1489   50.3186    8.5986 C   0  0  0  0  0  0  0  0  0  0  0  0
   70.7414   51.3446    7.9703 F   0  0  0  0  0  0  0  0  0  0  0  0
   70.8733   49.1656    8.8833 C   0  0  0  0  0  0  0  0  0  0  0  0
   72.1666   49.1336    8.5272 F   0  0  0  0  0  0  0  0  0  0  0  0
   71.4348   45.3951   12.0407 C   0  0  0  0  0  0  0  0  0  0  0  0
   71.0197   46.7767   12.5244 C   0  0  0  0  0  0  0  0  0  0  0  0
   70.5690   46.2780   11.1727 C   0  0  0  0  0  0  0  0  0  0  0  0
   71.0935   46.8107    9.8627 C   0  0  0  0  0  0  0  0  0  0  0  0
   70.9336   45.7187    8.7730 C   0  0  0  0  0  0  0  0  0  0  0  0
   72.5177   47.1473    9.8676 N   0  0  0  0  0  0  0  0  0  0  0  0
   73.3903   46.5069   10.5503 C   0  0  0  0  0  0  0  0  0  0  0  0
   74.6896   46.8716   10.4865 N   0  0  0  0  0  0  0  0  0  0  0  0
   73.1159   45.1478   11.6066 S   0  0  0  0  0  0  0  0  0  0  0  0
   74.9351   47.6703    9.9201 H   0  0  0  0  0  0  0  0  0  0  0  0
   75.3909   46.3952   11.0309 H   0  0  0  0  0  0  0  0  0  0  0  0
   70.7781   44.1915   12.7005 C   0  0  0  0  0  0  0  0  0  0  0  0
   70.3945   42.2734   11.3456 C   0  0  0  0  0  0  0  0  0  0  0  0
   71.3076   42.9633   12.1864 O   0  0  0  0  0  0  0  0  0  0  0  0
   66.8382   49.5664    9.9863 N   0  0  0  0  0  0  0  0  0  0  0  0
   65.8099   48.6425    9.9601 C   0  0  0  0  0  0  0  0  0  0  0  0
   65.8726   47.4675    9.6220 O   0  0  0  0  0  0  0  0  0  0  0  0
   66.5548   50.4920   10.3049 H   0  0  0  0  0  0  0  0  0  0  0  0
   64.5058   49.2116   10.4072 C   0  0  0  0  0  0  0  0  0  0  0  0
   63.3951   48.3920   10.5548 C   0  0  0  0  0  0  0  0  0  0  0  0
   62.1871   48.8677   10.9584 N   0  0  0  0  0  0  0  0  0  0  0  0
   62.1434   50.1963   11.2100 C   0  0  0  0  0  0  0  0  0  0  0  0
   63.2568   51.0169   11.0594 C   0  0  0  0  0  0  0  0  0  0  0  0
   64.4681   50.5543   10.6557 N   0  0  0  0  0  0  0  0  0  0  0  0
   60.9689   50.7895   11.6166 O   0  0  0  0  0  0  0  0  0  0  0  0
   60.5657   51.8699   10.7744 C   0  0  0  0  0  0  0  0  0  0  0  0
   59.1317   52.1680   11.0659 C   0  0  0  0  0  0  0  0  0  0  0  0
   58.5504   53.5382   10.7776 C   0  0  0  0  0  0  0  0  0  0  0  0
   58.1848   52.3652    9.9444 C   0  0  0  0  0  0  0  0  0  0  0  0
   58.5996   52.2963    8.6357 F   0  0  0  0  0  0  0  0  0  0  0  0
   56.9122   51.8489   10.0048 F   0  0  0  0  0  0  0  0  0  0  0  0
 21 22  1  0  0  0
 22 20  1  0  0  0
  9 20  1  0  0  0
  9 10  1  0  0  0
 10 11  1  0  0  0
 11 12  1  0  0  0
 12 13  1  0  0  0
 12  1  1  0  0  0
  1  2  2  0  0  0
  2  3  1  0  0  0
  3 23  1  0  0  0
 23 24  1  0  0  0
 24 25  2  0  0  0
 24 27  1  0  0  0
 27 28  2  0  0  0
 28 29  1  0  0  0
 29 30  2  0  0  0
 30 33  1  0  0  0
 33 34  1  0  0  0
 34 35  1  0  0  0
 35 36  1  0  0  0
 36 37  1  0  0  0
 37 38  1  0  0  0
 37 39  1  0  0  0
 30 31  1  0  0  0
 31 32  2  0  0  0
  3  4  2  0  0  0
  4  5  1  0  0  0
  5  6  1  0  0  0
  5  7  2  0  0  0
  7  8  1  0  0  0
 12 14  1  0  0  0
 14 15  2  0  0  0
 15 16  1  0  0  0
 15 17  1  0  0  0
 11  9  1  0  0  0
  7  1  1  0  0  0
 17  9  1  0  0  0
 32 27  1  0  0  0
 37 35  1  0  0  0
 23 26  1  0  0  0
 16 18  1  0  0  0
 16 19  1  0  0  0
M  END
> <minimizedAffinity>
-7.95742

$$$$
