L2:P56817:17219


 34 38  0  0  0  0  0  0  0  0999 V2000
   70.2438   48.6173    8.8485 C   0  0  0  0  0  0  0  0  0  0  0  0
   70.8510   48.5855    7.5747 C   0  0  0  0  0  0  0  0  0  0  0  0
   72.2479   48.5012    7.4138 C   0  0  0  0  0  0  0  0  0  0  0  0
   73.0614   48.4483    8.5492 C   0  0  0  0  0  0  0  0  0  0  0  0
   72.4836   48.5006    9.8101 C   0  0  0  0  0  0  0  0  0  0  0  0
   73.2756   48.4692   10.8919 F   0  0  0  0  0  0  0  0  0  0  0  0
   71.1016   48.5899    9.9621 C   0  0  0  0  0  0  0  0  0  0  0  0
   70.6124   48.6625   11.2100 F   0  0  0  0  0  0  0  0  0  0  0  0
   68.2860   50.1147    9.5574 C   0  0  0  0  0  0  0  0  0  0  0  0
   68.7169   48.7182    9.0358 C   0  0  0  0  0  0  0  0  0  0  0  0
   68.0602   48.5693    7.7373 N   0  0  0  0  0  0  0  0  0  0  0  0
   66.8688   48.1247    7.5970 C   0  0  0  0  0  0  0  0  0  0  0  0
   66.3291   48.0307    6.3624 N   0  0  0  0  0  0  0  0  0  0  0  0
   65.7848   47.6017    8.8577 S   0  0  0  0  0  0  0  0  0  0  0  0
   66.9248   47.1345   10.1102 C   0  0  0  0  0  0  0  0  0  0  0  0
   68.0770   46.2222    9.7232 C   0  0  0  0  0  0  0  0  0  0  0  0
   68.3327   47.6772   10.0579 C   0  0  0  0  0  0  0  0  0  0  0  0
   65.4002   47.6642    6.2264 H   0  0  0  0  0  0  0  0  0  0  0  0
   66.9016   48.2822    5.5698 H   0  0  0  0  0  0  0  0  0  0  0  0
   66.2588   46.9841   11.4675 C   0  0  0  0  0  0  0  0  0  0  0  0
   64.9833   46.3492   11.3837 O   0  0  0  0  0  0  0  0  0  0  0  0
   64.3683   47.0037   11.0131 H   0  0  0  0  0  0  0  0  0  0  0  0
   72.8589   48.4291    6.0303 C   0  0  0  0  0  0  0  0  0  0  0  0
   72.9638   47.0166    5.4961 C   0  0  0  0  0  0  0  0  0  0  0  0
   73.6689   46.1398    6.2748 N   0  0  0  0  0  0  0  0  0  0  0  0
   73.7502   44.8664    5.8521 C   0  0  0  0  0  0  0  0  0  0  0  0
   73.1633   44.4161    4.6864 C   0  0  0  0  0  0  0  0  0  0  0  0
   72.4477   45.3267    3.8984 C   0  0  0  0  0  0  0  0  0  0  0  0
   71.8315   44.9179    2.7052 C   0  0  0  0  0  0  0  0  0  0  0  0
   71.1273   45.8388    1.9431 C   0  0  0  0  0  0  0  0  0  0  0  0
   70.3629   45.3673    0.4821 Cl  0  0  0  0  0  0  0  0  0  0  0  0
   71.0624   47.1424    2.3933 C   0  0  0  0  0  0  0  0  0  0  0  0
   71.6473   47.5741    3.5371 N   0  0  0  0  0  0  0  0  0  0  0  0
   72.3312   46.6769    4.2927 C   0  0  0  0  0  0  0  0  0  0  0  0
 10  9  1  0  0  0
 10  1  1  0  0  0
  1  2  2  0  0  0
  2  3  1  0  0  0
  3 23  1  0  0  0
 23 24  1  0  0  0
 24 25  2  0  0  0
 25 26  1  0  0  0
 26 27  2  0  0  0
 27 28  1  0  0  0
 28 29  2  0  0  0
 29 30  1  0  0  0
 30 31  1  0  0  0
 30 32  2  0  0  0
 32 33  1  0  0  0
 33 34  2  0  0  0
  3  4  2  0  0  0
  4  5  1  0  0  0
  5  6  1  0  0  0
  5  7  2  0  0  0
  7  8  1  0  0  0
 10 11  1  0  0  0
 11 12  2  0  0  0
 12 13  1  0  0  0
 12 14  1  0  0  0
 14 15  1  0  0  0
 15 20  1  0  0  0
 20 21  1  0  0  0
 15 16  1  0  0  0
 16 17  1  0  0  0
 17 10  1  0  0  0
  7  1  1  0  0  0
 17 15  1  0  0  0
 34 24  1  0  0  0
 34 28  1  0  0  0
 13 18  1  0  0  0
 13 19  1  0  0  0
 21 22  1  0  0  0
M  END
> <minimizedAffinity>
-8.85277

$$$$
