L2:P56817:37944
     RDKit          3D

 59 63  0  0  0  0  0  0  0  0999 V2000
    9.1780    2.4370    0.3719 C   0  0  0  0  0  0  0  0  0  0  0  0
    9.0334    1.3082    0.7565 C   0  0  0  0  0  0  0  0  0  0  0  0
    8.8544   -0.0741    1.2258 C   0  0  0  0  0  0  0  0  0  0  0  0
    8.2451   -0.8836    0.2166 O   0  0  0  0  0  0  0  0  0  0  0  0
    6.8703   -0.8236    0.1844 C   0  0  0  0  0  0  0  0  0  0  0  0
    6.2304   -1.4559   -0.8652 C   0  0  0  0  0  0  0  0  0  0  0  0
    4.8827   -1.4728   -0.9921 N   0  0  0  0  0  0  0  0  0  0  0  0
    4.1776   -0.8285   -0.0194 C   0  0  0  0  0  0  0  0  0  0  0  0
    2.7717   -0.7684   -0.0351 C   0  0  0  0  0  0  0  0  0  0  0  0
    2.1236   -1.4205   -1.1171 N   0  0  0  0  0  0  0  0  0  0  0  0
    0.7817   -1.6303   -1.4483 C   0  0  0  0  0  0  0  0  0  0  0  0
    0.4528   -2.2025   -2.6787 C   0  0  0  0  0  0  0  0  0  0  0  0
   -0.8005   -2.4491   -3.1208 N   0  0  0  0  0  0  0  0  0  0  0  0
   -1.8036   -2.0999   -2.2893 C   0  0  0  0  0  0  0  0  0  0  0  0
   -3.0459   -2.3392   -2.7384 F   0  0  0  0  0  0  0  0  0  0  0  0
   -1.6304   -1.5092   -1.0384 C   0  0  0  0  0  0  0  0  0  0  0  0
   -2.8275   -1.1508   -0.1585 C   0  0  1  0  0  0  0  0  0  0  0  0
   -3.5436   -2.4802    0.2151 C   0  0  0  0  0  0  0  0  0  0  0  0
   -2.4568   -0.6051    1.1580 N   0  0  0  0  0  0  0  0  0  0  0  0
   -2.2415    0.6388    1.3681 C   0  0  0  0  0  0  0  0  0  0  0  0
   -1.8776    1.0765    2.5925 N   0  0  0  0  0  0  0  0  0  0  0  0
   -2.3588    1.9022    0.1780 S   0  0  0  0  0  0  0  0  0  0  0  0
   -3.7701    1.2718   -0.6754 C   0  0  1  0  0  0  0  0  0  0  0  0
   -5.0800    1.9909   -0.3053 C   0  0  2  0  0  0  0  0  0  0  0  0
   -5.6269    1.3006    0.8442 O   0  0  0  0  0  0  0  0  0  0  0  0
   -6.6561    2.0133    1.5139 C   0  0  0  0  0  0  0  0  0  0  0  0
   -6.0666    2.1479   -1.4775 C   0  0  0  0  0  0  0  0  0  0  0  0
   -7.1158    2.9353   -1.1292 F   0  0  0  0  0  0  0  0  0  0  0  0
   -5.4829    2.7522   -2.5404 F   0  0  0  0  0  0  0  0  0  0  0  0
   -6.5728    0.9684   -1.8980 F   0  0  0  0  0  0  0  0  0  0  0  0
   -3.5028    0.6605   -2.0380 C   0  0  0  0  0  0  0  0  0  0  0  0
   -3.8275   -0.2434   -0.8670 C   0  0  1  0  0  0  0  0  0  0  0  0
   -0.2992   -1.2904   -0.6327 C   0  0  0  0  0  0  0  0  0  0  0  0
    2.0561   -0.1267    0.9181 N   0  0  0  0  0  0  0  0  0  0  0  0
    2.7277    0.4703    1.9173 C   0  0  0  0  0  0  0  0  0  0  0  0
    4.1016    0.4615    2.0191 C   0  0  0  0  0  0  0  0  0  0  0  0
    4.8405   -0.1879    1.0512 C   0  0  0  0  0  0  0  0  0  0  0  0
    6.1850   -0.1898    1.1582 N   0  0  0  0  0  0  0  0  0  0  0  0
    9.3019    3.4379    0.0278 H   0  0  0  0  0  0  0  0  0  0  0  0
    8.3310   -0.1281    2.1877 H   0  0  0  0  0  0  0  0  0  0  0  0
    9.8445   -0.5088    1.4069 H   0  0  0  0  0  0  0  0  0  0  0  0
    6.7903   -1.9688   -1.6390 H   0  0  0  0  0  0  0  0  0  0  0  0
    2.8152   -1.7890   -1.7674 H   0  0  0  0  0  0  0  0  0  0  0  0
    1.2308   -2.4930   -3.3802 H   0  0  0  0  0  0  0  0  0  0  0  0
   -4.3730   -2.2941    0.9094 H   0  0  0  0  0  0  0  0  0  0  0  0
   -2.8559   -3.1774    0.7099 H   0  0  0  0  0  0  0  0  0  0  0  0
   -3.9679   -2.9902   -0.6564 H   0  0  0  0  0  0  0  0  0  0  0  0
   -1.7848    0.3996    3.3350 H   0  0  0  0  0  0  0  0  0  0  0  0
   -1.6920    2.0524    2.7591 H   0  0  0  0  0  0  0  0  0  0  0  0
   -4.8273    3.0116    0.0131 H   0  0  0  0  0  0  0  0  0  0  0  0
   -6.8455    1.5164    2.4695 H   0  0  0  0  0  0  0  0  0  0  0  0
   -6.3567    3.0461    1.7147 H   0  0  0  0  0  0  0  0  0  0  0  0
   -7.5818    1.9867    0.9341 H   0  0  0  0  0  0  0  0  0  0  0  0
   -2.4915    0.7096   -2.4301 H   0  0  0  0  0  0  0  0  0  0  0  0
   -4.2385    0.7068   -2.8331 H   0  0  0  0  0  0  0  0  0  0  0  0
   -4.8189   -0.6910   -0.8826 H   0  0  0  0  0  0  0  0  0  0  0  0
   -0.1137   -0.8608    0.3458 H   0  0  0  0  0  0  0  0  0  0  0  0
    2.1110    0.9719    2.6576 H   0  0  0  0  0  0  0  0  0  0  0  0
    4.5970    0.9589    2.8454 H   0  0  0  0  0  0  0  0  0  0  0  0
  1  2  3  0
  2  3  1  0
  3  4  1  0
  4  5  1  0
  5  6  2  0
  6  7  1  0
  7  8  2  0
  8  9  1  0
  9 10  1  0
 10 11  1  0
 11 12  2  0
 12 13  1  0
 13 14  2  0
 14 15  1  0
 14 16  1  0
 16 17  1  0
 17 18  1  1
 17 19  1  0
 19 20  2  0
 20 21  1  0
 20 22  1  0
 23 22  1  1
 23 24  1  0
 24 25  1  0
 25 26  1  0
 24 27  1  0
 27 28  1  0
 27 29  1  0
 27 30  1  0
 23 31  1  0
 31 32  1  0
 16 33  2  0
  9 34  2  0
 34 35  1  0
 35 36  2  0
 36 37  1  0
 37 38  2  0
 38  5  1  0
 37  8  1  0
 33 11  1  0
 32 17  1  0
 32 23  1  0
  1 39  1  0
  3 40  1  0
  3 41  1  0
  6 42  1  0
 10 43  1  0
 12 44  1  0
 18 45  1  0
 18 46  1  0
 18 47  1  0
 21 48  1  0
 21 49  1  0
 24 50  1  1
 26 51  1  0
 26 52  1  0
 26 53  1  0
 31 54  1  0
 31 55  1  0
 32 56  1  6
 33 57  1  0
 35 58  1  0
 36 59  1  0
M  END
>  <mol_id>  (1) 
37944

>  <source_index>  (1) 
3

>  <layer>  (1) 
L2

>  <uniprot>  (1) 
P56817

>  <paff>  (1) 
8.8096999999999994

>  <smiles>  (1) 
C#CCOc1cnc2c(Nc3cnc(F)c([C@@]4(C)N=C(N)S[C@@]5([C@H](OC)C(F)(F)F)C[C@H]54)c3)nccc2n1

$$$$
