L2:P56817:37944
 OpenBabel09212617433D

 59 63  0  0  0  0  0  0  0  0999 V2000
   71.6491   48.4988    6.9691 C   0  0  0  0  0  0  0  0  0  0  0  0
   72.5779   48.7200    7.9878 C   0  0  0  0  0  0  0  0  0  0  0  0
   72.2844   49.1144    9.2469 N   0  0  0  0  0  0  0  0  0  0  0  0
   70.9769   49.2986    9.5225 C   0  0  0  0  0  0  0  0  0  0  0  0
   70.6918   49.6814   10.7773 F   0  0  0  0  0  0  0  0  0  0  0  0
   69.9376   49.1048    8.6137 C   0  0  0  0  0  0  0  0  0  0  0  0
   70.3126   48.7055    7.3158 C   0  0  0  0  0  0  0  0  0  0  0  0
   68.4815   49.3430    9.0121 C   0  0  1  0  0  0  0  0  0  0  0  0
   68.3284   50.8586    9.3271 C   0  0  0  0  0  0  0  0  0  0  0  0
   67.5231   49.1456    7.9117 N   0  0  0  0  0  0  0  0  0  0  0  0
   67.0035   48.0113    7.6271 C   0  0  0  0  0  0  0  0  0  0  0  0
   66.1504   47.8870    6.5878 N   0  0  0  0  0  0  0  0  0  0  0  0
   67.3022   46.5198    8.4713 S   0  0  0  0  0  0  0  0  0  0  0  0
   67.3694   47.1974   10.1003 C   0  0  1  0  0  0  0  0  0  0  0  0
   68.7482   47.2803   10.7278 C   0  0  0  0  0  0  0  0  0  0  0  0
   68.0717   48.5470   10.2465 C   0  0  1  0  0  0  0  0  0  0  0  0
   65.9313   48.7102    6.0471 H   0  0  0  0  0  0  0  0  0  0  0  0
   65.7509   46.9934    6.3503 H   0  0  0  0  0  0  0  0  0  0  0  0
   66.0768   46.9785   10.9073 C   0  0  1  0  0  0  0  0  0  0  0  0
   64.9140   47.9024   10.4993 C   0  0  0  0  0  0  0  0  0  0  0  0
   64.2847   47.4337    9.3919 F   0  0  0  0  0  0  0  0  0  0  0  0
   63.9681   47.9672   11.4671 F   0  0  0  0  0  0  0  0  0  0  0  0
   65.3165   49.1629   10.2285 F   0  0  0  0  0  0  0  0  0  0  0  0
   65.7690   45.5656   10.8308 O   0  0  0  0  0  0  0  0  0  0  0  0
   66.0348   44.8479   12.0265 C   0  0  0  0  0  0  0  0  0  0  0  0
   72.0874   48.0819    5.7088 N   0  0  0  0  0  0  0  0  0  0  0  0
   72.0495   48.7738    4.9626 H   0  0  0  0  0  0  0  0  0  0  0  0
   71.6474   45.6550    1.4078 C   0  0  0  0  0  0  0  0  0  0  0  0
   71.1430   46.8443    1.9000 C   0  0  0  0  0  0  0  0  0  0  0  0
   71.4238   47.2941    3.1456 N   0  0  0  0  0  0  0  0  0  0  0  0
   72.2381   46.5047    3.9021 C   0  0  0  0  0  0  0  0  0  0  0  0
   72.6102   46.8587    5.2123 C   0  0  0  0  0  0  0  0  0  0  0  0
   73.4237   46.0908    5.9746 N   0  0  0  0  0  0  0  0  0  0  0  0
   73.8850   44.9436    5.4483 C   0  0  0  0  0  0  0  0  0  0  0  0
   73.5726   44.5125    4.1776 C   0  0  0  0  0  0  0  0  0  0  0  0
   72.7460   45.2892    3.3915 C   0  0  0  0  0  0  0  0  0  0  0  0
   72.4469   44.8600    2.1483 N   0  0  0  0  0  0  0  0  0  0  0  0
   71.2827   45.2925    0.1310 O   0  0  0  0  0  0  0  0  0  0  0  0
   71.9680   44.1475   -0.3831 C   0  0  0  0  0  0  0  0  0  0  0  0
   74.0375   44.8757   -1.9082 C   0  0  0  0  0  0  0  0  0  0  0  0
   73.1070   44.5474   -1.2232 C   0  0  0  0  0  0  0  0  0  0  0  0
   73.5732   48.5696    7.7601 H   0  0  0  0  0  0  0  0  0  0  0  0
   69.5804   48.5621    6.6028 H   0  0  0  0  0  0  0  0  0  0  0  0
   68.6126   51.4316    8.4693 H   0  0  0  0  0  0  0  0  0  0  0  0
   68.9579   51.1166   10.1530 H   0  0  0  0  0  0  0  0  0  0  0  0
   67.3094   51.0701    9.5757 H   0  0  0  0  0  0  0  0  0  0  0  0
   69.5975   46.8963   10.2023 H   0  0  0  0  0  0  0  0  0  0  0  0
   69.1744   46.9595   11.6553 H   0  0  0  0  0  0  0  0  0  0  0  0
   67.8701   49.4904   10.7093 H   0  0  0  0  0  0  0  0  0  0  0  0
   66.2318   47.2616   11.9275 H   0  0  0  0  0  0  0  0  0  0  0  0
   65.7819   43.8175   11.8877 H   0  0  0  0  0  0  0  0  0  0  0  0
   65.4491   45.2546   12.8243 H   0  0  0  0  0  0  0  0  0  0  0  0
   67.0737   44.9307   12.2687 H   0  0  0  0  0  0  0  0  0  0  0  0
   70.5288   47.4111    1.2946 H   0  0  0  0  0  0  0  0  0  0  0  0
   74.5054   44.3550    6.0259 H   0  0  0  0  0  0  0  0  0  0  0  0
   73.9511   43.6219    3.8189 H   0  0  0  0  0  0  0  0  0  0  0  0
   72.3265   43.5580    0.4347 H   0  0  0  0  0  0  0  0  0  0  0  0
   71.2849   43.5821   -0.9820 H   0  0  0  0  0  0  0  0  0  0  0  0
   74.8075   45.1474   -2.4751 H   0  0  0  0  0  0  0  0  0  0  0  0
  1  2  2  0  0  0  0
  2  3  1  0  0  0  0
  2 42  1  0  0  0  0
  3  4  2  0  0  0  0
  4  5  1  0  0  0  0
  4  6  1  0  0  0  0
  6  8  1  0  0  0  0
  6  7  2  0  0  0  0
  7  1  1  0  0  0  0
  7 43  1  0  0  0  0
  8  9  1  1  0  0  0
  8 10  1  0  0  0  0
  9 44  1  0  0  0  0
  9 45  1  0  0  0  0
  9 46  1  0  0  0  0
 10 11  2  0  0  0  0
 11 12  1  0  0  0  0
 11 13  1  0  0  0  0
 12 17  1  0  0  0  0
 12 18  1  0  0  0  0
 14 13  1  0  0  0  0
 14 19  1  1  0  0  0
 14 15  1  0  0  0  0
 15 16  1  0  0  0  0
 15 47  1  0  0  0  0
 15 48  1  0  0  0  0
 16  8  1  0  0  0  0
 16 14  1  0  0  0  0
 16 49  1  1  0  0  0
 19 24  1  0  0  0  0
 19 20  1  0  0  0  0
 19 50  1  1  0  0  0
 20 21  1  0  0  0  0
 20 22  1  0  0  0  0
 20 23  1  0  0  0  0
 24 25  1  0  0  0  0
 25 51  1  0  0  0  0
 25 52  1  0  0  0  0
 25 53  1  0  0  0  0
 26  1  1  0  0  0  0
 26 27  1  0  0  0  0
 28 29  2  0  0  0  0
 29 30  1  0  0  0  0
 29 54  1  0  0  0  0
 30 31  2  0  0  0  0
 31 32  1  0  0  0  0
 32 26  1  0  0  0  0
 32 33  2  0  0  0  0
 33 34  1  0  0  0  0
 34 35  2  0  0  0  0
 34 55  1  0  0  0  0
 35 36  1  0  0  0  0
 35 56  1  0  0  0  0
 36 37  2  0  0  0  0
 36 31  1  0  0  0  0
 37 28  1  0  0  0  0
 38 28  1  0  0  0  0
 39 38  1  0  0  0  0
 39 57  1  0  0  0  0
 39 58  1  0  0  0  0
 40 41  3  0  0  0  0
 40 59  1  0  0  0  0
 41 39  1  0  0  0  0
M  END
>  <minimizedAffinity>
-8.33501

$$$$
