L2:P56817:46757
 OpenBabel09212617433D

 47 50  0  0  0  0  0  0  0  0999 V2000
   71.7590   44.8853   11.6053 N   0  0  0  0  0  0  0  0  0  0  0  0
   72.1098   45.3009   10.3463 N   0  0  0  0  0  0  0  0  0  0  0  0
   71.6016   46.4210    9.9312 C   0  0  0  0  0  0  0  0  0  0  0  0
   70.5833   47.1434   10.7880 C   0  0  0  0  0  0  0  0  0  0  0  0
   70.3555   46.7624   12.0053 N   0  0  0  0  0  0  0  0  0  0  0  0
   70.9532   45.6251   12.4727 C   0  0  0  0  0  0  0  0  0  0  0  0
   70.7417   45.2254   13.6190 O   0  0  0  0  0  0  0  0  0  0  0  0
   72.0738   46.9668    8.6383 C   0  0  0  0  0  0  0  0  0  0  0  0
   73.3036   47.6341    8.5981 C   0  0  0  0  0  0  0  0  0  0  0  0
   73.7665   48.1647    7.3939 C   0  0  0  0  0  0  0  0  0  0  0  0
   72.9974   48.0422    6.2366 C   0  0  0  0  0  0  0  0  0  0  0  0
   71.7596   47.3996    6.2817 C   0  0  0  0  0  0  0  0  0  0  0  0
   71.2902   46.8676    7.4838 C   0  0  0  0  0  0  0  0  0  0  0  0
   69.7922   48.2793   10.2585 C   0  0  0  0  0  0  0  0  0  0  0  0
   68.4072   48.1317   10.1215 C   0  0  0  0  0  0  0  0  0  0  0  0
   67.6433   49.1847    9.6178 C   0  0  0  0  0  0  0  0  0  0  0  0
   68.2623   50.3758    9.2380 C   0  0  0  0  0  0  0  0  0  0  0  0
   69.6464   50.5134    9.3491 C   0  0  0  0  0  0  0  0  0  0  0  0
   70.4164   49.4629    9.8510 C   0  0  0  0  0  0  0  0  0  0  0  0
   72.3599   43.6409   12.0723 C   0  0  0  0  0  0  0  0  0  0  0  0
   74.2525   42.5241   11.0944 O   0  0  0  0  0  0  0  0  0  0  0  0
   73.8224   43.5423   11.6313 C   0  0  0  0  0  0  0  0  0  0  0  0
   74.5466   44.6974   11.8869 N   0  0  0  0  0  0  0  0  0  0  0  0
   74.0495   45.4378   12.3859 H   0  0  0  0  0  0  0  0  0  0  0  0
   75.8968   44.9593   11.5869 C   0  0  0  0  0  0  0  0  0  0  0  0
   76.1518   45.7830   10.4799 C   0  0  0  0  0  0  0  0  0  0  0  0
   77.4628   46.0930   10.1109 C   0  0  0  0  0  0  0  0  0  0  0  0
   78.5195   45.5781   10.8490 C   0  0  0  0  0  0  0  0  0  0  0  0
   79.7775   45.8735   10.4976 F   0  0  0  0  0  0  0  0  0  0  0  0
   78.2874   44.7605   11.9472 C   0  0  0  0  0  0  0  0  0  0  0  0
   76.9746   44.4504   12.3168 C   0  0  0  0  0  0  0  0  0  0  0  0
   73.8665   47.7333    9.4573 H   0  0  0  0  0  0  0  0  0  0  0  0
   74.6778   48.6478    7.3592 H   0  0  0  0  0  0  0  0  0  0  0  0
   73.3448   48.4279    5.3446 H   0  0  0  0  0  0  0  0  0  0  0  0
   71.1903   47.3175    5.4249 H   0  0  0  0  0  0  0  0  0  0  0  0
   70.3693   46.4032    7.5206 H   0  0  0  0  0  0  0  0  0  0  0  0
   67.9521   47.2460   10.3925 H   0  0  0  0  0  0  0  0  0  0  0  0
   66.6205   49.0826    9.5262 H   0  0  0  0  0  0  0  0  0  0  0  0
   67.6950   51.1572    8.8739 H   0  0  0  0  0  0  0  0  0  0  0  0
   70.1015   51.3933    9.0597 H   0  0  0  0  0  0  0  0  0  0  0  0
   71.4415   49.5590    9.9211 H   0  0  0  0  0  0  0  0  0  0  0  0
   72.3131   43.6085   13.1408 H   0  0  0  0  0  0  0  0  0  0  0  0
   71.8190   42.8200   11.6498 H   0  0  0  0  0  0  0  0  0  0  0  0
   75.3634   46.1633    9.9333 H   0  0  0  0  0  0  0  0  0  0  0  0
   77.6443   46.6999    9.2962 H   0  0  0  0  0  0  0  0  0  0  0  0
   79.0807   44.3831   12.4887 H   0  0  0  0  0  0  0  0  0  0  0  0
   76.8009   43.8427   13.1326 H   0  0  0  0  0  0  0  0  0  0  0  0
  1  2  1  0  0  0  0
  2  3  2  0  0  0  0
  3  8  1  0  0  0  0
  3  4  1  0  0  0  0
  4 14  1  0  0  0  0
  4  5  2  0  0  0  0
  5  6  1  0  0  0  0
  6  7  2  0  0  0  0
  6  1  1  0  0  0  0
  8  9  2  0  0  0  0
  9 10  1  0  0  0  0
  9 32  1  0  0  0  0
 10 11  2  0  0  0  0
 10 33  1  0  0  0  0
 11 12  1  0  0  0  0
 11 34  1  0  0  0  0
 12 13  2  0  0  0  0
 12 35  1  0  0  0  0
 13  8  1  0  0  0  0
 13 36  1  0  0  0  0
 14 15  2  0  0  0  0
 15 16  1  0  0  0  0
 15 37  1  0  0  0  0
 16 17  2  0  0  0  0
 16 38  1  0  0  0  0
 17 18  1  0  0  0  0
 17 39  1  0  0  0  0
 18 19  2  0  0  0  0
 18 40  1  0  0  0  0
 19 14  1  0  0  0  0
 19 41  1  0  0  0  0
 20  1  1  0  0  0  0
 20 42  1  0  0  0  0
 20 43  1  0  0  0  0
 21 22  2  0  0  0  0
 22 20  1  0  0  0  0
 22 23  1  0  0  0  0
 23 25  1  0  0  0  0
 23 24  1  0  0  0  0
 25 26  2  0  0  0  0
 26 27  1  0  0  0  0
 26 44  1  0  0  0  0
 27 28  2  0  0  0  0
 27 45  1  0  0  0  0
 28 29  1  0  0  0  0
 28 30  1  0  0  0  0
 30 31  2  0  0  0  0
 30 46  1  0  0  0  0
 31 25  1  0  0  0  0
 31 47  1  0  0  0  0
M  END
>  <minimizedAffinity>
-8.05482

$$$$
