L2:P56817:46757
     RDKit          3D

 47 50  0  0  0  0  0  0  0  0999 V2000
    3.1490    1.3223   -2.1472 O   0  0  0  0  0  0  0  0  0  0  0  0
    2.9215    1.4163   -0.9433 C   0  0  0  0  0  0  0  0  0  0  0  0
    1.8252    2.3479   -0.4207 C   0  0  0  0  0  0  0  0  0  0  0  0
    0.6835    1.5835    0.0691 N   0  0  0  0  0  0  0  0  0  0  0  0
   -0.4183    1.5368   -0.7462 N   0  0  0  0  0  0  0  0  0  0  0  0
   -1.4498    0.8815   -0.3080 C   0  0  0  0  0  0  0  0  0  0  0  0
   -2.7004    0.9354   -1.0990 C   0  0  0  0  0  0  0  0  0  0  0  0
   -2.6323    0.7255   -2.4812 C   0  0  0  0  0  0  0  0  0  0  0  0
   -3.7953    0.7796   -3.2497 C   0  0  0  0  0  0  0  0  0  0  0  0
   -5.0201    1.0567   -2.6423 C   0  0  0  0  0  0  0  0  0  0  0  0
   -5.0845    1.2914   -1.2683 C   0  0  0  0  0  0  0  0  0  0  0  0
   -3.9243    1.2400   -0.4939 C   0  0  0  0  0  0  0  0  0  0  0  0
   -1.3543    0.1235    0.9993 C   0  0  0  0  0  0  0  0  0  0  0  0
   -2.4039   -0.8361    1.4165 C   0  0  0  0  0  0  0  0  0  0  0  0
   -2.8841   -0.7825    2.7300 C   0  0  0  0  0  0  0  0  0  0  0  0
   -3.8662   -1.6811    3.1473 C   0  0  0  0  0  0  0  0  0  0  0  0
   -4.3563   -2.6398    2.2603 C   0  0  0  0  0  0  0  0  0  0  0  0
   -3.8582   -2.7109    0.9588 C   0  0  0  0  0  0  0  0  0  0  0  0
   -2.8745   -1.8156    0.5357 C   0  0  0  0  0  0  0  0  0  0  0  0
   -0.3286    0.2743    1.7765 N   0  0  0  0  0  0  0  0  0  0  0  0
    0.7274    1.0310    1.3505 C   0  0  0  0  0  0  0  0  0  0  0  0
    1.7258    1.1776    2.0577 O   0  0  0  0  0  0  0  0  0  0  0  0
    3.5957    0.7485    0.0684 N   0  0  0  0  0  0  0  0  0  0  0  0
    4.6696   -0.1535   -0.0529 C   0  0  0  0  0  0  0  0  0  0  0  0
    5.1421   -0.7393    1.1313 C   0  0  0  0  0  0  0  0  0  0  0  0
    6.2055   -1.6446    1.1021 C   0  0  0  0  0  0  0  0  0  0  0  0
    6.7971   -1.9635   -0.1123 C   0  0  0  0  0  0  0  0  0  0  0  0
    7.8168   -2.8311   -0.1435 F   0  0  0  0  0  0  0  0  0  0  0  0
    6.3442   -1.3937   -1.2948 C   0  0  0  0  0  0  0  0  0  0  0  0
    5.2792   -0.4874   -1.2655 C   0  0  0  0  0  0  0  0  0  0  0  0
    2.2339    2.9661    0.3866 H   0  0  0  0  0  0  0  0  0  0  0  0
    1.5032    3.0142   -1.2286 H   0  0  0  0  0  0  0  0  0  0  0  0
   -1.6780    0.5212   -2.9629 H   0  0  0  0  0  0  0  0  0  0  0  0
   -3.7453    0.6132   -4.3232 H   0  0  0  0  0  0  0  0  0  0  0  0
   -5.9252    1.1023   -3.2437 H   0  0  0  0  0  0  0  0  0  0  0  0
   -6.0396    1.5230   -0.8025 H   0  0  0  0  0  0  0  0  0  0  0  0
   -3.9911    1.4521    0.5698 H   0  0  0  0  0  0  0  0  0  0  0  0
   -2.4944   -0.0472    3.4307 H   0  0  0  0  0  0  0  0  0  0  0  0
   -4.2428   -1.6402    4.1666 H   0  0  0  0  0  0  0  0  0  0  0  0
   -5.1183   -3.3430    2.5886 H   0  0  0  0  0  0  0  0  0  0  0  0
   -4.2304   -3.4719    0.2767 H   0  0  0  0  0  0  0  0  0  0  0  0
   -2.4787   -1.9052   -0.4726 H   0  0  0  0  0  0  0  0  0  0  0  0
    3.2485    0.9026    1.0171 H   0  0  0  0  0  0  0  0  0  0  0  0
    4.6849   -0.5008    2.0893 H   0  0  0  0  0  0  0  0  0  0  0  0
    6.5717   -2.1004    2.0161 H   0  0  0  0  0  0  0  0  0  0  0  0
    6.8189   -1.6544   -2.2353 H   0  0  0  0  0  0  0  0  0  0  0  0
    4.9513   -0.0591   -2.2074 H   0  0  0  0  0  0  0  0  0  0  0  0
  1  2  2  0
  2  3  1  0
  3  4  1  0
  4  5  1  0
  5  6  2  0
  6  7  1  0
  7  8  2  0
  8  9  1  0
  9 10  2  0
 10 11  1  0
 11 12  2  0
  6 13  1  0
 13 14  1  0
 14 15  2  0
 15 16  1  0
 16 17  2  0
 17 18  1  0
 18 19  2  0
 13 20  2  0
 20 21  1  0
 21 22  2  0
  2 23  1  0
 23 24  1  0
 24 25  2  0
 25 26  1  0
 26 27  2  0
 27 28  1  0
 27 29  1  0
 29 30  2  0
 21  4  1  0
 30 24  1  0
 12  7  1  0
 19 14  1  0
  3 31  1  0
  3 32  1  0
  8 33  1  0
  9 34  1  0
 10 35  1  0
 11 36  1  0
 12 37  1  0
 15 38  1  0
 16 39  1  0
 17 40  1  0
 18 41  1  0
 19 42  1  0
 23 43  1  0
 25 44  1  0
 26 45  1  0
 29 46  1  0
 30 47  1  0
M  END
>  <mol_id>  (1) 
46757

>  <source_index>  (1) 
4

>  <layer>  (1) 
L2

>  <uniprot>  (1) 
P56817

>  <paff>  (1) 
6.1585999999999999

>  <smiles>  (1) 
O=C(Cn1nc(-c2ccccc2)c(-c2ccccc2)nc1=O)Nc1ccc(F)cc1

$$$$
