L2:P56817:66568


 41 45  0  0  0  0  0  0  0  0999 V2000
   71.7506   48.9461    7.1891 C   0  0  0  0  0  0  0  0  0  0  0  0
   71.8080   50.3010    7.5223 C   0  0  0  0  0  0  0  0  0  0  0  0
   70.9681   50.9388    8.3677 N   0  0  0  0  0  0  0  0  0  0  0  0
   70.0047   50.1819    8.9316 C   0  0  0  0  0  0  0  0  0  0  0  0
   69.1768   50.8197    9.7741 F   0  0  0  0  0  0  0  0  0  0  0  0
   69.8312   48.8173    8.7052 C   0  0  0  0  0  0  0  0  0  0  0  0
   70.7309   48.2167    7.8028 C   0  0  0  0  0  0  0  0  0  0  0  0
   68.7043   48.0398    9.3826 C   0  0  0  0  0  0  0  0  0  0  0  0
   67.5428   49.0407    9.6462 C   0  0  0  0  0  0  0  0  0  0  0  0
   68.0671   47.0315    8.5176 N   0  0  0  0  0  0  0  0  0  0  0  0
   68.5043   45.8369    8.3831 C   0  0  0  0  0  0  0  0  0  0  0  0
   67.8997   44.9719    7.5418 N   0  0  0  0  0  0  0  0  0  0  0  0
   69.8691   45.1622    9.2204 S   0  0  0  0  0  0  0  0  0  0  0  0
   69.5916   45.9662   10.7694 C   0  0  0  0  0  0  0  0  0  0  0  0
   70.5528   47.0906   11.0984 C   0  0  0  0  0  0  0  0  0  0  0  0
   69.1269   47.4238   10.7134 C   0  0  0  0  0  0  0  0  0  0  0  0
   68.2760   44.0487    7.3923 H   0  0  0  0  0  0  0  0  0  0  0  0
   67.1169   45.3003    6.9955 H   0  0  0  0  0  0  0  0  0  0  0  0
   69.1785   45.0009   11.8957 C   0  0  0  0  0  0  0  0  0  0  0  0
   70.3584   44.3011   12.5946 C   0  0  0  0  0  0  0  0  0  0  0  0
   69.9801   43.1238   13.1482 F   0  0  0  0  0  0  0  0  0  0  0  0
   70.9136   45.0560   13.5673 F   0  0  0  0  0  0  0  0  0  0  0  0
   71.3408   43.9999   11.7080 F   0  0  0  0  0  0  0  0  0  0  0  0
   68.1985   44.0930   11.3359 O   0  0  0  0  0  0  0  0  0  0  0  0
   66.8526   44.5034   11.5280 C   0  0  0  0  0  0  0  0  0  0  0  0
   72.6873   48.4105    6.3001 N   0  0  0  0  0  0  0  0  0  0  0  0
   73.2507   49.0791    5.7776 H   0  0  0  0  0  0  0  0  0  0  0  0
   71.5353   45.3959    2.5376 C   0  0  0  0  0  0  0  0  0  0  0  0
   71.1767   46.6848    2.8855 C   0  0  0  0  0  0  0  0  0  0  0  0
   71.6455   47.2952    3.9992 N   0  0  0  0  0  0  0  0  0  0  0  0
   72.4995   46.5661    4.7721 C   0  0  0  0  0  0  0  0  0  0  0  0
   73.0614   47.0852    5.9536 C   0  0  0  0  0  0  0  0  0  0  0  0
   73.9146   46.3772    6.7306 N   0  0  0  0  0  0  0  0  0  0  0  0
   74.2284   45.1279    6.3471 C   0  0  0  0  0  0  0  0  0  0  0  0
   73.7267   44.5346    5.2094 C   0  0  0  0  0  0  0  0  0  0  0  0
   72.8571   45.2482    4.4101 C   0  0  0  0  0  0  0  0  0  0  0  0
   72.3716   44.6596    3.2979 N   0  0  0  0  0  0  0  0  0  0  0  0
   70.9850   44.8735    1.3891 O   0  0  0  0  0  0  0  0  0  0  0  0
   71.4691   45.4568    0.1764 C   0  0  0  0  0  0  0  0  0  0  0  0
   72.9127   43.6986   -1.2250 C   0  0  0  0  0  0  0  0  0  0  0  0
   72.2643   44.4886   -0.5940 C   0  0  0  0  0  0  0  0  0  0  0  0
 40 41  3  0  0  0
 41 39  1  0  0  0
 39 38  1  0  0  0
 38 28  1  0  0  0
 28 29  2  0  0  0
 29 30  1  0  0  0
 30 31  2  0  0  0
 31 32  1  0  0  0
 32 26  1  0  0  0
 26  1  1  0  0  0
  1  2  2  0  0  0
  2  3  1  0  0  0
  3  4  2  0  0  0
  4  5  1  0  0  0
  4  6  1  0  0  0
  6  8  1  0  0  0
  8  9  1  0  0  0
  8 10  1  0  0  0
 10 11  2  0  0  0
 11 12  1  0  0  0
 11 13  1  0  0  0
 14 13  1  0  0  0
 14 19  1  0  0  0
 19 24  1  0  0  0
 24 25  1  0  0  0
 19 20  1  0  0  0
 20 21  1  0  0  0
 20 22  1  0  0  0
 20 23  1  0  0  0
 14 15  1  0  0  0
 15 16  1  0  0  0
  6  7  2  0  0  0
 32 33  2  0  0  0
 33 34  1  0  0  0
 34 35  2  0  0  0
 35 36  1  0  0  0
 36 37  2  0  0  0
 37 28  1  0  0  0
 36 31  1  0  0  0
  7  1  1  0  0  0
 16  8  1  0  0  0
 16 14  1  0  0  0
 26 27  1  0  0  0
 12 17  1  0  0  0
 12 18  1  0  0  0
M  END
> <minimizedAffinity>
-8.15579

$$$$
