L2:P56817:66568
     RDKit          3D

 59 63  0  0  0  0  0  0  0  0999 V2000
    8.8229    2.9909    1.3792 C   0  0  0  0  0  0  0  0  0  0  0  0
    8.8344    1.7933    1.2879 C   0  0  0  0  0  0  0  0  0  0  0  0
    8.8462    0.3269    1.1746 C   0  0  0  0  0  0  0  0  0  0  0  0
    8.2771   -0.0962   -0.0673 O   0  0  0  0  0  0  0  0  0  0  0  0
    6.9051   -0.2074   -0.0622 C   0  0  0  0  0  0  0  0  0  0  0  0
    6.2825   -0.4553   -1.2712 C   0  0  0  0  0  0  0  0  0  0  0  0
    4.9408   -0.5961   -1.3836 N   0  0  0  0  0  0  0  0  0  0  0  0
    4.2238   -0.4811   -0.2299 C   0  0  0  0  0  0  0  0  0  0  0  0
    2.8217   -0.6023   -0.2097 C   0  0  0  0  0  0  0  0  0  0  0  0
    2.1929   -0.8551   -1.4576 N   0  0  0  0  0  0  0  0  0  0  0  0
    0.8662   -1.0713   -1.8418 C   0  0  0  0  0  0  0  0  0  0  0  0
    0.5492   -1.1983   -3.1958 C   0  0  0  0  0  0  0  0  0  0  0  0
   -0.6887   -1.4053   -3.6973 N   0  0  0  0  0  0  0  0  0  0  0  0
   -1.6890   -1.4856   -2.7962 C   0  0  0  0  0  0  0  0  0  0  0  0
   -2.9169   -1.6862   -3.3004 F   0  0  0  0  0  0  0  0  0  0  0  0
   -1.5280   -1.3659   -1.4166 C   0  0  0  0  0  0  0  0  0  0  0  0
   -2.7199   -1.4789   -0.4680 C   0  0  1  0  0  0  0  0  0  0  0  0
   -3.2733   -2.9279   -0.5883 C   0  0  0  0  0  0  0  0  0  0  0  0
   -2.3614   -1.3911    0.9584 N   0  0  0  0  0  0  0  0  0  0  0  0
   -2.2504   -0.2861    1.5932 C   0  0  0  0  0  0  0  0  0  0  0  0
   -1.8775   -0.2703    2.8902 N   0  0  0  0  0  0  0  0  0  0  0  0
   -2.5523    1.2919    0.9315 S   0  0  0  0  0  0  0  0  0  0  0  0
   -3.9315    0.8428   -0.0780 C   0  0  1  0  0  0  0  0  0  0  0  0
   -5.2651    1.4429    0.4040 C   0  0  1  0  0  0  0  0  0  0  0  0
   -5.4204    2.7187   -0.2641 O   0  0  0  0  0  0  0  0  0  0  0  0
   -6.4226    3.5506    0.3018 C   0  0  0  0  0  0  0  0  0  0  0  0
   -6.4743    0.5018    0.2535 C   0  0  0  0  0  0  0  0  0  0  0  0
   -6.2414   -0.7019    0.8301 F   0  0  0  0  0  0  0  0  0  0  0  0
   -6.8115    0.2842   -1.0362 F   0  0  0  0  0  0  0  0  0  0  0  0
   -7.5679    1.0103    0.8758 F   0  0  0  0  0  0  0  0  0  0  0  0
   -3.6574    0.7957   -1.5677 C   0  0  0  0  0  0  0  0  0  0  0  0
   -3.8409   -0.5004   -0.8069 C   0  0  1  0  0  0  0  0  0  0  0  0
   -0.2108   -1.1657   -0.9588 C   0  0  0  0  0  0  0  0  0  0  0  0
    2.0935   -0.4864    0.9257 N   0  0  0  0  0  0  0  0  0  0  0  0
    2.7492   -0.2472    2.0742 C   0  0  0  0  0  0  0  0  0  0  0  0
    4.1184   -0.1160    2.1533 C   0  0  0  0  0  0  0  0  0  0  0  0
    4.8696   -0.2315    1.0016 C   0  0  0  0  0  0  0  0  0  0  0  0
    6.2092   -0.1009    1.0885 N   0  0  0  0  0  0  0  0  0  0  0  0
    8.8084    4.0537    1.4572 H   0  0  0  0  0  0  0  0  0  0  0  0
    8.3904   -0.1664    2.0412 H   0  0  0  0  0  0  0  0  0  0  0  0
    9.8893   -0.0105    1.1611 H   0  0  0  0  0  0  0  0  0  0  0  0
    6.8518   -0.5465   -2.1894 H   0  0  0  0  0  0  0  0  0  0  0  0
    2.8875   -0.8607   -2.2025 H   0  0  0  0  0  0  0  0  0  0  0  0
    1.3249   -1.1340   -3.9548 H   0  0  0  0  0  0  0  0  0  0  0  0
   -4.0945   -3.0912    0.1214 H   0  0  0  0  0  0  0  0  0  0  0  0
   -2.4971   -3.6702   -0.3642 H   0  0  0  0  0  0  0  0  0  0  0  0
   -3.6678   -3.1475   -1.5862 H   0  0  0  0  0  0  0  0  0  0  0  0
   -1.7350    0.6015    3.3759 H   0  0  0  0  0  0  0  0  0  0  0  0
   -1.6542   -1.1476    3.3369 H   0  0  0  0  0  0  0  0  0  0  0  0
   -5.1755    1.6447    1.4802 H   0  0  0  0  0  0  0  0  0  0  0  0
   -6.3042    3.6311    1.3863 H   0  0  0  0  0  0  0  0  0  0  0  0
   -6.3191    4.5490   -0.1323 H   0  0  0  0  0  0  0  0  0  0  0  0
   -7.4185    3.1780    0.0502 H   0  0  0  0  0  0  0  0  0  0  0  0
   -2.6783    1.1003   -1.9207 H   0  0  0  0  0  0  0  0  0  0  0  0
   -4.4483    1.0908   -2.2516 H   0  0  0  0  0  0  0  0  0  0  0  0
   -4.7533   -1.0331   -1.0551 H   0  0  0  0  0  0  0  0  0  0  0  0
   -0.0317   -1.0970    0.1086 H   0  0  0  0  0  0  0  0  0  0  0  0
    2.1235   -0.1614    2.9580 H   0  0  0  0  0  0  0  0  0  0  0  0
    4.6003    0.0773    3.1052 H   0  0  0  0  0  0  0  0  0  0  0  0
  1  2  3  0
  2  3  1  0
  3  4  1  0
  4  5  1  0
  5  6  2  0
  6  7  1  0
  7  8  2  0
  8  9  1  0
  9 10  1  0
 10 11  1  0
 11 12  2  0
 12 13  1  0
 13 14  2  0
 14 15  1  0
 14 16  1  0
 16 17  1  0
 17 18  1  1
 17 19  1  0
 19 20  2  0
 20 21  1  0
 20 22  1  0
 23 22  1  1
 23 24  1  0
 24 25  1  0
 25 26  1  0
 24 27  1  0
 27 28  1  0
 27 29  1  0
 27 30  1  0
 23 31  1  0
 31 32  1  0
 16 33  2  0
  9 34  2  0
 34 35  1  0
 35 36  2  0
 36 37  1  0
 37 38  2  0
 38  5  1  0
 37  8  1  0
 33 11  1  0
 32 17  1  0
 32 23  1  0
  1 39  1  0
  3 40  1  0
  3 41  1  0
  6 42  1  0
 10 43  1  0
 12 44  1  0
 18 45  1  0
 18 46  1  0
 18 47  1  0
 21 48  1  0
 21 49  1  0
 24 50  1  1
 26 51  1  0
 26 52  1  0
 26 53  1  0
 31 54  1  0
 31 55  1  0
 32 56  1  6
 33 57  1  0
 35 58  1  0
 36 59  1  0
M  END
>  <mol_id>  (1) 
66568

>  <source_index>  (1) 
5

>  <layer>  (1) 
L2

>  <uniprot>  (1) 
P56817

>  <paff>  (1) 
8.7958999999999996

>  <smiles>  (1) 
C#CCOc1cnc2c(Nc3cnc(F)c([C@@]4(C)N=C(N)S[C@@]5([C@@H](OC)C(F)(F)F)C[C@H]54)c3)nccc2n1

$$$$
