L2:P56817:67242
     RDKit          3D

 44 47  0  0  0  0  0  0  0  0999 V2000
   -1.9167   -0.2461   -1.6722 C   0  0  0  0  0  0  0  0  0  0  0  0
   -2.2209   -0.5189   -0.1753 C   0  0  2  0  0  0  0  0  0  0  0  0
   -0.9481   -0.8443    0.6197 C   0  0  0  0  0  0  0  0  0  0  0  0
    0.3401   -0.4520    0.2022 C   0  0  0  0  0  0  0  0  0  0  0  0
    1.4672   -0.7494    0.9683 C   0  0  0  0  0  0  0  0  0  0  0  0
    2.7825   -0.3984    0.6158 N   0  0  0  0  0  0  0  0  0  0  0  0
    3.2120    0.3040   -0.4942 C   0  0  0  0  0  0  0  0  0  0  0  0
    2.5173    0.7745   -1.3861 O   0  0  0  0  0  0  0  0  0  0  0  0
    4.7033    0.4717   -0.5339 C   0  0  0  0  0  0  0  0  0  0  0  0
    5.3053    1.1459   -1.5913 C   0  0  0  0  0  0  0  0  0  0  0  0
    6.6937    1.2777   -1.5867 C   0  0  0  0  0  0  0  0  0  0  0  0
    7.4248    0.7355   -0.5345 C   0  0  0  0  0  0  0  0  0  0  0  0
    9.1338    0.8777   -0.4943 Cl  0  0  0  0  0  0  0  0  0  0  0  0
    6.7411    0.0785    0.4802 C   0  0  0  0  0  0  0  0  0  0  0  0
    5.3928   -0.0708    0.5132 N   0  0  0  0  0  0  0  0  0  0  0  0
    1.2589   -1.4374    2.1581 C   0  0  0  0  0  0  0  0  0  0  0  0
    0.0499   -1.8191    2.6186 N   0  0  0  0  0  0  0  0  0  0  0  0
   -1.0176   -1.5163    1.8430 C   0  0  0  0  0  0  0  0  0  0  0  0
   -2.2090   -1.8768    2.3447 F   0  0  0  0  0  0  0  0  0  0  0  0
   -3.1122   -1.6767   -0.1620 N   0  0  0  0  0  0  0  0  0  0  0  0
   -4.3817   -1.5930   -0.3016 C   0  0  0  0  0  0  0  0  0  0  0  0
   -5.1346   -2.7137   -0.2988 N   0  0  0  0  0  0  0  0  0  0  0  0
   -5.3193   -0.1412   -0.5087 S   0  0  0  0  0  0  0  0  0  0  0  0
   -4.2811    1.0431    0.2696 C   0  0  1  0  0  0  0  0  0  0  0  0
   -4.6502    2.4797   -0.0281 C   0  0  0  0  0  0  0  0  0  0  0  0
   -5.9425    2.7226    0.3143 F   0  0  0  0  0  0  0  0  0  0  0  0
   -4.5359    2.7255   -1.3601 F   0  0  0  0  0  0  0  0  0  0  0  0
   -3.7228    0.7224    1.6460 C   0  0  0  0  0  0  0  0  0  0  0  0
   -2.8116    0.7286    0.4373 C   0  0  1  0  0  0  0  0  0  0  0  0
   -1.3310    0.6690   -1.8156 H   0  0  0  0  0  0  0  0  0  0  0  0
   -2.8348   -0.1113   -2.2552 H   0  0  0  0  0  0  0  0  0  0  0  0
   -1.3711   -1.0821   -2.1262 H   0  0  0  0  0  0  0  0  0  0  0  0
    0.4584    0.0879   -0.7296 H   0  0  0  0  0  0  0  0  0  0  0  0
    3.5366   -0.6835    1.2397 H   0  0  0  0  0  0  0  0  0  0  0  0
    4.7095    1.5585   -2.4000 H   0  0  0  0  0  0  0  0  0  0  0  0
    7.1925    1.7989   -2.3995 H   0  0  0  0  0  0  0  0  0  0  0  0
    7.2736   -0.3597    1.3205 H   0  0  0  0  0  0  0  0  0  0  0  0
    2.0868   -1.7075    2.8077 H   0  0  0  0  0  0  0  0  0  0  0  0
   -6.1366   -2.6656   -0.4010 H   0  0  0  0  0  0  0  0  0  0  0  0
   -4.6774   -3.6034   -0.1634 H   0  0  0  0  0  0  0  0  0  0  0  0
   -4.0181    3.1973    0.5041 H   0  0  0  0  0  0  0  0  0  0  0  0
   -3.6130    1.5273    2.3653 H   0  0  0  0  0  0  0  0  0  0  0  0
   -3.9784   -0.2213    2.1155 H   0  0  0  0  0  0  0  0  0  0  0  0
   -2.1156    1.5620    0.3658 H   0  0  0  0  0  0  0  0  0  0  0  0
  2  1  1  6
  2  3  1  0
  3  4  2  0
  4  5  1  0
  5  6  1  0
  6  7  1  0
  7  8  2  0
  7  9  1  0
  9 10  2  0
 10 11  1  0
 11 12  2  0
 12 13  1  0
 12 14  1  0
 14 15  2  0
  5 16  2  0
 16 17  1  0
 17 18  2  0
 18 19  1  0
  2 20  1  0
 20 21  2  0
 21 22  1  0
 21 23  1  0
 23 24  1  0
 24 25  1  1
 25 26  1  0
 25 27  1  0
 24 28  1  0
 28 29  1  0
 29  2  1  0
 18  3  1  0
 29 24  1  0
 15  9  1  0
  1 30  1  0
  1 31  1  0
  1 32  1  0
  4 33  1  0
  6 34  1  0
 10 35  1  0
 11 36  1  0
 14 37  1  0
 16 38  1  0
 22 39  1  0
 22 40  1  0
 25 41  1  0
 28 42  1  0
 28 43  1  0
 29 44  1  1
M  END
>  <mol_id>  (1) 
67242

>  <source_index>  (1) 
6

>  <layer>  (1) 
L2

>  <uniprot>  (1) 
P56817

>  <paff>  (1) 
8.7958999999999996

>  <smiles>  (1) 
C[C@]1(c2cc(NC(=O)c3ccc(Cl)cn3)cnc2F)N=C(N)S[C@@]2(C(F)F)C[C@@H]12

$$$$
