L2:P56817:67242


 32 35  0  0  0  0  0  0  0  0999 V2000
   71.0126   48.2568    7.1821 C   0  0  0  0  0  0  0  0  0  0  0  0
   70.9097   47.6293    5.9238 C   0  0  0  0  0  0  0  0  0  0  0  0
   72.0276   47.4697    5.1050 C   0  0  0  0  0  0  0  0  0  0  0  0
   73.2361   47.9640    5.5822 C   0  0  0  0  0  0  0  0  0  0  0  0
   73.3910   48.5914    6.7661 N   0  0  0  0  0  0  0  0  0  0  0  0
   72.2830   48.7211    7.5332 C   0  0  0  0  0  0  0  0  0  0  0  0
   72.4616   49.3810    8.6881 F   0  0  0  0  0  0  0  0  0  0  0  0
   69.9554   49.7706    8.9539 C   0  0  0  0  0  0  0  0  0  0  0  0
   69.8078   48.4782    8.1080 C   0  0  0  0  0  0  0  0  0  0  0  0
   68.6044   48.6734    7.3024 N   0  0  0  0  0  0  0  0  0  0  0  0
   67.4233   48.4142    7.7219 C   0  0  0  0  0  0  0  0  0  0  0  0
   66.3597   48.6422    6.9221 N   0  0  0  0  0  0  0  0  0  0  0  0
   66.9819   47.7716    9.2781 S   0  0  0  0  0  0  0  0  0  0  0  0
   68.4498   46.9110    9.7149 C   0  0  0  0  0  0  0  0  0  0  0  0
   69.0753   45.9804    8.6893 C   0  0  0  0  0  0  0  0  0  0  0  0
   69.7480   47.2906    9.0388 C   0  0  0  0  0  0  0  0  0  0  0  0
   65.4229   48.4376    7.2341 H   0  0  0  0  0  0  0  0  0  0  0  0
   66.5218   48.9963    5.9908 H   0  0  0  0  0  0  0  0  0  0  0  0
   68.5216   46.5103   11.1719 C   0  0  0  0  0  0  0  0  0  0  0  0
   67.3788   46.8566   11.8203 F   0  0  0  0  0  0  0  0  0  0  0  0
   69.5439   47.1621   11.7864 F   0  0  0  0  0  0  0  0  0  0  0  0
   72.0059   46.8498    3.8429 N   0  0  0  0  0  0  0  0  0  0  0  0
   71.5955   45.5688    3.5262 C   0  0  0  0  0  0  0  0  0  0  0  0
   71.1515   44.7236    4.2930 O   0  0  0  0  0  0  0  0  0  0  0  0
   72.3268   47.3897    3.0399 H   0  0  0  0  0  0  0  0  0  0  0  0
   71.7338   45.2597    2.0637 C   0  0  0  0  0  0  0  0  0  0  0  0
   70.7139   45.5905    1.1774 C   0  0  0  0  0  0  0  0  0  0  0  0
   70.8857   45.2845   -0.1724 C   0  0  0  0  0  0  0  0  0  0  0  0
   72.0606   44.6639   -0.5848 C   0  0  0  0  0  0  0  0  0  0  0  0
   72.3076   44.2722   -2.2365 Cl  0  0  0  0  0  0  0  0  0  0  0  0
   73.0265   44.3699    0.3687 C   0  0  0  0  0  0  0  0  0  0  0  0
   72.8984   44.6512    1.6900 N   0  0  0  0  0  0  0  0  0  0  0  0
  9  8  1  0  0  0
  9  1  1  0  0  0
  1  2  2  0  0  0
  2  3  1  0  0  0
  3 22  1  0  0  0
 22 23  1  0  0  0
 23 24  2  0  0  0
 23 26  1  0  0  0
 26 27  2  0  0  0
 27 28  1  0  0  0
 28 29  2  0  0  0
 29 30  1  0  0  0
 29 31  1  0  0  0
 31 32  2  0  0  0
  3  4  2  0  0  0
  4  5  1  0  0  0
  5  6  2  0  0  0
  6  7  1  0  0  0
  9 10  1  0  0  0
 10 11  2  0  0  0
 11 12  1  0  0  0
 11 13  1  0  0  0
 13 14  1  0  0  0
 14 19  1  0  0  0
 19 20  1  0  0  0
 19 21  1  0  0  0
 14 15  1  0  0  0
 15 16  1  0  0  0
 16  9  1  0  0  0
  6  1  1  0  0  0
 16 14  1  0  0  0
 32 26  1  0  0  0
 22 25  1  0  0  0
 12 17  1  0  0  0
 12 18  1  0  0  0
M  END
> <minimizedAffinity>
-7.82347

$$$$
