L2:P56817:84180
 OpenBabel09212617443D

 48 52  0  0  0  0  0  0  0  0999 V2000
   72.4194   47.9891    7.6584 C   0  0  0  0  0  0  0  0  0  0  0  0
   73.1797   48.0097    8.8258 C   0  0  0  0  0  0  0  0  0  0  0  0
   72.6033   48.3937   10.0321 C   0  0  0  0  0  0  0  0  0  0  0  0
   73.3541   48.3931   11.1437 F   0  0  0  0  0  0  0  0  0  0  0  0
   71.2660   48.7684   10.1028 C   0  0  0  0  0  0  0  0  0  0  0  0
   70.7592   49.1001   11.2995 F   0  0  0  0  0  0  0  0  0  0  0  0
   70.4587   48.7780    8.9603 C   0  0  0  0  0  0  0  0  0  0  0  0
   71.0641   48.3711    7.7495 C   0  0  0  0  0  0  0  0  0  0  0  0
   68.9707   49.1735    9.0161 C   0  0  1  0  0  0  0  0  0  0  0  0
   68.8295   50.7121    9.0838 C   0  0  0  0  0  0  0  0  0  0  0  0
   68.2980   48.7698    7.7715 N   0  0  0  0  0  0  0  0  0  0  0  0
   67.0466   48.5131    7.6878 C   0  0  0  0  0  0  0  0  0  0  0  0
   66.5007   48.1944    6.4941 N   0  0  0  0  0  0  0  0  0  0  0  0
   65.8889   48.5161    8.9888 S   0  0  0  0  0  0  0  0  0  0  0  0
   66.9282   48.1851   10.3258 C   0  0  1  0  0  0  0  0  0  0  0  0
   67.9560   47.0835   10.2871 C   0  0  0  0  0  0  0  0  0  0  0  0
   68.3825   48.5344   10.2539 C   0  0  1  0  0  0  0  0  0  0  0  0
   65.5138   48.0026    6.4144 H   0  0  0  0  0  0  0  0  0  0  0  0
   67.0897   48.1856    5.6751 H   0  0  0  0  0  0  0  0  0  0  0  0
   72.9160   47.6053    6.4061 N   0  0  0  0  0  0  0  0  0  0  0  0
   73.3818   48.3330    5.8664 H   0  0  0  0  0  0  0  0  0  0  0  0
   71.1932   46.2353    1.9203 C   0  0  0  0  0  0  0  0  0  0  0  0
   71.2098   47.4047    2.6634 C   0  0  0  0  0  0  0  0  0  0  0  0
   71.7588   47.5136    3.8942 N   0  0  0  0  0  0  0  0  0  0  0  0
   72.3277   46.3925    4.4226 C   0  0  0  0  0  0  0  0  0  0  0  0
   72.9286   46.3784    5.6884 C   0  0  0  0  0  0  0  0  0  0  0  0
   73.4931   45.2737    6.2213 N   0  0  0  0  0  0  0  0  0  0  0  0
   73.4591   44.1649    5.4785 C   0  0  0  0  0  0  0  0  0  0  0  0
   72.9179   44.0525    4.2608 N   0  0  0  0  0  0  0  0  0  0  0  0
   72.3626   45.1625    3.7531 C   0  0  0  0  0  0  0  0  0  0  0  0
   71.7828   45.1105    2.4911 C   0  0  0  0  0  0  0  0  0  0  0  0
   71.0102   45.3613   -0.2802 C   0  0  0  0  0  0  0  0  0  0  0  0
   70.5955   46.3095    0.6969 O   0  0  0  0  0  0  0  0  0  0  0  0
   74.1750   47.7388    8.7954 H   0  0  0  0  0  0  0  0  0  0  0  0
   70.4886   48.3526    6.8931 H   0  0  0  0  0  0  0  0  0  0  0  0
   69.2500   51.1480    8.2017 H   0  0  0  0  0  0  0  0  0  0  0  0
   69.3469   51.0802    9.9450 H   0  0  0  0  0  0  0  0  0  0  0  0
   67.7939   50.9726    9.1515 H   0  0  0  0  0  0  0  0  0  0  0  0
   66.1163   48.4214   10.9814 H   0  0  0  0  0  0  0  0  0  0  0  0
   68.0570   46.4745    9.4131 H   0  0  0  0  0  0  0  0  0  0  0  0
   68.1866   46.2377   10.9006 H   0  0  0  0  0  0  0  0  0  0  0  0
   69.0534   49.1320   10.8350 H   0  0  0  0  0  0  0  0  0  0  0  0
   70.7758   48.2455    2.2515 H   0  0  0  0  0  0  0  0  0  0  0  0
   73.8896   43.3175    5.8806 H   0  0  0  0  0  0  0  0  0  0  0  0
   71.7894   44.2214    1.9672 H   0  0  0  0  0  0  0  0  0  0  0  0
   70.4695   45.5257   -1.1888 H   0  0  0  0  0  0  0  0  0  0  0  0
   70.8145   44.3720    0.0773 H   0  0  0  0  0  0  0  0  0  0  0  0
   72.0584   45.4734   -0.4636 H   0  0  0  0  0  0  0  0  0  0  0  0
  1  2  2  0  0  0  0
  2  3  1  0  0  0  0
  2 34  1  0  0  0  0
  3  4  1  0  0  0  0
  3  5  2  0  0  0  0
  5  6  1  0  0  0  0
  5  7  1  0  0  0  0
  7  9  1  0  0  0  0
  7  8  2  0  0  0  0
  8  1  1  0  0  0  0
  8 35  1  0  0  0  0
  9 10  1  1  0  0  0
  9 11  1  0  0  0  0
 10 36  1  0  0  0  0
 10 37  1  0  0  0  0
 10 38  1  0  0  0  0
 11 12  2  0  0  0  0
 12 13  1  0  0  0  0
 12 14  1  0  0  0  0
 13 18  1  0  0  0  0
 13 19  1  0  0  0  0
 14 15  1  0  0  0  0
 15 16  1  0  0  0  0
 15 39  1  1  0  0  0
 16 17  1  0  0  0  0
 16 40  1  0  0  0  0
 16 41  1  0  0  0  0
 17  9  1  0  0  0  0
 17 15  1  0  0  0  0
 17 42  1  1  0  0  0
 20  1  1  0  0  0  0
 20 21  1  0  0  0  0
 22 23  2  0  0  0  0
 23 24  1  0  0  0  0
 23 43  1  0  0  0  0
 24 25  2  0  0  0  0
 25 26  1  0  0  0  0
 26 20  1  0  0  0  0
 26 27  2  0  0  0  0
 27 28  1  0  0  0  0
 28 29  2  0  0  0  0
 28 44  1  0  0  0  0
 29 30  1  0  0  0  0
 30 31  2  0  0  0  0
 30 25  1  0  0  0  0
 31 22  1  0  0  0  0
 31 45  1  0  0  0  0
 32 33  1  0  0  0  0
 32 46  1  0  0  0  0
 32 47  1  0  0  0  0
 32 48  1  0  0  0  0
 33 22  1  0  0  0  0
M  END
>  <minimizedAffinity>
-8.66795

$$$$
