L2:P56817:9611


 38 41  0  0  0  0  0  0  0  0999 V2000
   71.3184   47.5594    9.4820 C   0  0  0  0  0  0  0  0  0  0  0  0
   71.4684   46.9318    8.2281 C   0  0  0  0  0  0  0  0  0  0  0  0
   71.2029   47.6185    7.0434 C   0  0  0  0  0  0  0  0  0  0  0  0
   70.7761   48.9366    7.1593 C   0  0  0  0  0  0  0  0  0  0  0  0
   70.5951   49.5821    8.3295 N   0  0  0  0  0  0  0  0  0  0  0  0
   70.8695   48.8823    9.4560 C   0  0  0  0  0  0  0  0  0  0  0  0
   70.6496   49.5411   10.6044 F   0  0  0  0  0  0  0  0  0  0  0  0
   72.6665   44.5513   11.4554 C   0  0  0  0  0  0  0  0  0  0  0  0
   72.1988   44.3683   10.0227 C   0  0  0  0  0  0  0  0  0  0  0  0
   72.5711   45.7423   10.5339 C   0  0  0  0  0  0  0  0  0  0  0  0
   71.5760   46.8411   10.8153 C   0  0  0  0  0  0  0  0  0  0  0  0
   72.1731   47.7957   11.8835 C   0  0  0  0  0  0  0  0  0  0  0  0
   70.3024   46.3822   11.3704 N   0  0  0  0  0  0  0  0  0  0  0  0
   70.2050   45.3875   12.1707 C   0  0  0  0  0  0  0  0  0  0  0  0
   68.9955   45.0383   12.6607 N   0  0  0  0  0  0  0  0  0  0  0  0
   71.4940   44.3662   12.7461 S   0  0  0  0  0  0  0  0  0  0  0  0
   68.1867   45.5647   12.3652 H   0  0  0  0  0  0  0  0  0  0  0  0
   68.8974   44.2572   13.2899 H   0  0  0  0  0  0  0  0  0  0  0  0
   74.0599   44.0746   11.8205 C   0  0  0  0  0  0  0  0  0  0  0  0
   74.8100   42.2958   13.6182 H   0  0  0  0  0  0  0  0  0  0  0  0
   75.1890   43.3144   13.7457 C   0  0  0  0  0  0  0  0  0  0  0  0
   75.3138   43.5086   14.8143 H   0  0  0  0  0  0  0  0  0  0  0  0
   76.1618   43.4191   13.2555 H   0  0  0  0  0  0  0  0  0  0  0  0
   74.2646   44.2580   13.2244 O   0  0  0  0  0  0  0  0  0  0  0  0
   71.3362   47.0665    5.7561 N   0  0  0  0  0  0  0  0  0  0  0  0
   72.3277   47.3044    4.8230 C   0  0  0  0  0  0  0  0  0  0  0  0
   73.2978   48.0412    4.9428 O   0  0  0  0  0  0  0  0  0  0  0  0
   70.6245   46.4050    5.4477 H   0  0  0  0  0  0  0  0  0  0  0  0
   72.1298   46.5407    3.5576 C   0  0  0  0  0  0  0  0  0  0  0  0
   72.9745   45.4893    3.2305 C   0  0  0  0  0  0  0  0  0  0  0  0
   72.8276   44.7665    2.0890 N   0  0  0  0  0  0  0  0  0  0  0  0
   71.8088   45.1480    1.2864 C   0  0  0  0  0  0  0  0  0  0  0  0
   70.9591   46.1982    1.6202 C   0  0  0  0  0  0  0  0  0  0  0  0
   71.0905   46.9261    2.7595 N   0  0  0  0  0  0  0  0  0  0  0  0
   71.5537   44.4813    0.1097 O   0  0  0  0  0  0  0  0  0  0  0  0
   72.6346   43.6717   -0.3623 C   0  0  0  0  0  0  0  0  0  0  0  0
   73.4676   44.4149   -1.3199 C   0  0  0  0  0  0  0  0  0  0  0  0
   74.1485   45.0231   -2.1005 C   0  0  0  0  0  0  0  0  0  0  0  0
 20 21  1  0  0  0
 21 22  1  0  0  0
 21 23  1  0  0  0
 21 24  1  0  0  0
 24 19  1  0  0  0
  8 19  1  0  0  0
  8  9  1  0  0  0
  9 10  1  0  0  0
 10 11  1  0  0  0
 11 12  1  0  0  0
 11  1  1  0  0  0
  1  2  2  0  0  0
  2  3  1  0  0  0
  3 25  1  0  0  0
 25 26  1  0  0  0
 26 27  2  0  0  0
 26 29  1  0  0  0
 29 30  2  0  0  0
 30 31  1  0  0  0
 31 32  2  0  0  0
 32 35  1  0  0  0
 35 36  1  0  0  0
 36 37  1  0  0  0
 37 38  3  0  0  0
 32 33  1  0  0  0
 33 34  2  0  0  0
  3  4  2  0  0  0
  4  5  1  0  0  0
  5  6  2  0  0  0
  6  7  1  0  0  0
 11 13  1  0  0  0
 13 14  2  0  0  0
 14 15  1  0  0  0
 14 16  1  0  0  0
 10  8  1  0  0  0
  6  1  1  0  0  0
 16  8  1  0  0  0
 34 29  1  0  0  0
 25 28  1  0  0  0
 15 17  1  0  0  0
 15 18  1  0  0  0
M  ISO 1  20   2
M  ISO 1  22   2
M  ISO 1  23   2
M  END
> <minimizedAffinity>
-7.70420

$$$$
