L2:P56817:9611
     RDKit          3D

 53 56  0  0  0  0  0  0  0  0999 V2000
   -5.8079    3.7458   -2.9461 H   0  0  0  0  0  0  0  0  0  0  0  0
   -4.7680    3.6944   -2.6095 C   0  0  0  0  0  0  0  0  0  0  0  0
   -4.1182    3.9832   -3.4399 H   0  0  0  0  0  0  0  0  0  0  0  0
   -4.6051    4.3896   -1.7802 H   0  0  0  0  0  0  0  0  0  0  0  0
   -4.4357    2.3695   -2.2212 O   0  0  0  0  0  0  0  0  0  0  0  0
   -5.2391    1.9249   -1.1242 C   0  0  0  0  0  0  0  0  0  0  0  0
   -4.9011    0.4784   -0.8153 C   0  0  2  0  0  0  0  0  0  0  0  0
   -4.7335    0.0763    0.6391 C   0  0  0  0  0  0  0  0  0  0  0  0
   -3.5250    0.2012   -0.2619 C   0  0  1  0  0  0  0  0  0  0  0  0
   -2.7237   -0.9705   -0.7737 C   0  0  1  0  0  0  0  0  0  0  0  0
   -2.0371   -0.5642   -2.1049 C   0  0  0  0  0  0  0  0  0  0  0  0
   -1.7006   -1.3197    0.3178 C   0  0  0  0  0  0  0  0  0  0  0  0
   -0.3662   -0.8639    0.2962 C   0  0  0  0  0  0  0  0  0  0  0  0
    0.5221   -1.1898    1.3210 C   0  0  0  0  0  0  0  0  0  0  0  0
    1.8678   -0.7819    1.3679 N   0  0  0  0  0  0  0  0  0  0  0  0
    2.5553    0.0014    0.4600 C   0  0  0  0  0  0  0  0  0  0  0  0
    2.1174    0.5060   -0.5657 O   0  0  0  0  0  0  0  0  0  0  0  0
    3.9808    0.2168    0.8410 C   0  0  0  0  0  0  0  0  0  0  0  0
    4.8187    0.9731    0.0336 C   0  0  0  0  0  0  0  0  0  0  0  0
    6.1228    1.1954    0.3452 N   0  0  0  0  0  0  0  0  0  0  0  0
    6.5530    0.6202    1.4905 C   0  0  0  0  0  0  0  0  0  0  0  0
    7.8512    0.7871    1.9160 O   0  0  0  0  0  0  0  0  0  0  0  0
    8.7235    1.3784    0.9486 C   0  0  0  0  0  0  0  0  0  0  0  0
    9.2679    0.3581    0.0398 C   0  0  0  0  0  0  0  0  0  0  0  0
    9.7108   -0.4752   -0.7034 C   0  0  0  0  0  0  0  0  0  0  0  0
    5.7088   -0.1319    2.3017 C   0  0  0  0  0  0  0  0  0  0  0  0
    4.4026   -0.3584    2.0059 N   0  0  0  0  0  0  0  0  0  0  0  0
    0.0284   -1.9695    2.3609 C   0  0  0  0  0  0  0  0  0  0  0  0
   -1.2411   -2.4166    2.4458 N   0  0  0  0  0  0  0  0  0  0  0  0
   -2.0700   -2.0834    1.4280 C   0  0  0  0  0  0  0  0  0  0  0  0
   -3.3339   -2.5161    1.5568 F   0  0  0  0  0  0  0  0  0  0  0  0
   -3.5164   -2.1589   -1.0903 N   0  0  0  0  0  0  0  0  0  0  0  0
   -4.7022   -2.1024   -1.5700 C   0  0  0  0  0  0  0  0  0  0  0  0
   -5.3624   -3.2449   -1.8595 N   0  0  0  0  0  0  0  0  0  0  0  0
   -5.6317   -0.6709   -1.9199 S   0  0  0  0  0  0  0  0  0  0  0  0
   -5.0274    2.5638   -0.2578 H   0  0  0  0  0  0  0  0  0  0  0  0
   -6.3040    2.0325   -1.3664 H   0  0  0  0  0  0  0  0  0  0  0  0
   -4.8616    0.8285    1.4099 H   0  0  0  0  0  0  0  0  0  0  0  0
   -5.0550   -0.9084    0.9592 H   0  0  0  0  0  0  0  0  0  0  0  0
   -2.8851    1.0647   -0.0922 H   0  0  0  0  0  0  0  0  0  0  0  0
   -2.7670   -0.4111   -2.9078 H   0  0  0  0  0  0  0  0  0  0  0  0
   -1.3440   -1.3414   -2.4488 H   0  0  0  0  0  0  0  0  0  0  0  0
   -1.4848    0.3781   -2.0150 H   0  0  0  0  0  0  0  0  0  0  0  0
   -0.0260   -0.2504   -0.5294 H   0  0  0  0  0  0  0  0  0  0  0  0
    2.4294   -1.0898    2.1610 H   0  0  0  0  0  0  0  0  0  0  0  0
    4.4688    1.4254   -0.8889 H   0  0  0  0  0  0  0  0  0  0  0  0
    8.2628    2.2170    0.4137 H   0  0  0  0  0  0  0  0  0  0  0  0
    9.5541    1.8146    1.5159 H   0  0  0  0  0  0  0  0  0  0  0  0
   10.0989   -1.2152   -1.3648 H   0  0  0  0  0  0  0  0  0  0  0  0
    6.0731   -0.5767    3.2217 H   0  0  0  0  0  0  0  0  0  0  0  0
    0.6593   -2.2662    3.1941 H   0  0  0  0  0  0  0  0  0  0  0  0
   -4.9063   -4.1251   -1.6705 H   0  0  0  0  0  0  0  0  0  0  0  0
   -6.2972   -3.2219   -2.2355 H   0  0  0  0  0  0  0  0  0  0  0  0
  1  2  1  0
  2  3  1  0
  2  4  1  0
  2  5  1  0
  5  6  1  0
  7  6  1  1
  7  8  1  0
  8  9  1  0
  9 10  1  0
 10 11  1  6
 10 12  1  0
 12 13  2  0
 13 14  1  0
 14 15  1  0
 15 16  1  0
 16 17  2  0
 16 18  1  0
 18 19  2  0
 19 20  1  0
 20 21  2  0
 21 22  1  0
 22 23  1  0
 23 24  1  0
 24 25  3  0
 21 26  1  0
 26 27  2  0
 14 28  2  0
 28 29  1  0
 29 30  2  0
 30 31  1  0
 10 32  1  0
 32 33  2  0
 33 34  1  0
 33 35  1  0
  9  7  1  0
 30 12  1  0
 35  7  1  0
 27 18  1  0
  6 36  1  0
  6 37  1  0
  8 38  1  0
  8 39  1  0
  9 40  1  1
 11 41  1  0
 11 42  1  0
 11 43  1  0
 13 44  1  0
 15 45  1  0
 19 46  1  0
 23 47  1  0
 23 48  1  0
 25 49  1  0
 26 50  1  0
 28 51  1  0
 34 52  1  0
 34 53  1  0
M  ISO  3   1   2   3   2   4   2
M  END
>  <mol_id>  (1) 
9611

>  <source_index>  (1) 
0

>  <layer>  (1) 
L2

>  <uniprot>  (1) 
P56817

>  <paff>  (1) 
9.2410999999999994

>  <smiles>  (1) 
[2H]C([2H])([2H])OC[C@]12C[C@H]1[C@@](C)(c1cc(NC(=O)c3cnc(OCC#C)cn3)cnc1F)N=C(N)S2

$$$$
