L2:P56817:97357
     RDKit          3D

 63 68  0  0  0  0  0  0  0  0999 V2000
   -6.0789   -2.7838   -2.6823 C   0  0  0  0  0  0  0  0  0  0  0  0
   -5.6542   -1.6286   -1.9727 O   0  0  0  0  0  0  0  0  0  0  0  0
   -6.5721   -1.2868   -0.9269 C   0  0  0  0  0  0  0  0  0  0  0  0
   -6.1338   -0.0277   -0.1916 C   0  0  2  0  0  0  0  0  0  0  0  0
   -5.5223    1.1085   -0.9904 C   0  0  0  0  0  0  0  0  0  0  0  0
   -4.6586    0.2730   -0.0680 C   0  0  1  0  0  0  0  0  0  0  0  0
   -4.0843    0.7801    1.2309 C   0  0  1  0  0  0  0  0  0  0  0  0
   -3.8246   -0.4304    2.1662 C   0  0  0  0  0  0  0  0  0  0  0  0
   -2.7847    1.5318    0.8829 C   0  0  0  0  0  0  0  0  0  0  0  0
   -1.5085    0.9294    0.9656 C   0  0  0  0  0  0  0  0  0  0  0  0
   -0.3154    1.6076    0.6316 C   0  0  0  0  0  0  0  0  0  0  0  0
    0.8966    0.9147    0.7531 N   0  0  0  0  0  0  0  0  0  0  0  0
    2.2477    1.2501    0.4711 C   0  0  0  0  0  0  0  0  0  0  0  0
    2.5689    2.4568   -0.0524 N   0  0  0  0  0  0  0  0  0  0  0  0
    3.8650    2.7141   -0.2994 C   0  0  0  0  0  0  0  0  0  0  0  0
    4.8780    1.8160   -0.0442 C   0  0  0  0  0  0  0  0  0  0  0  0
    4.5610    0.5844    0.4912 C   0  0  0  0  0  0  0  0  0  0  0  0
    5.5598   -0.2875    0.7394 N   0  0  0  0  0  0  0  0  0  0  0  0
    5.2087   -1.4841    1.2485 C   0  0  0  0  0  0  0  0  0  0  0  0
    6.1694   -2.4317    1.5189 O   0  0  0  0  0  0  0  0  0  0  0  0
    7.4987   -2.0582    1.1294 C   0  0  0  0  0  0  0  0  0  0  0  0
    7.7003   -2.3221   -0.3178 C   0  0  0  0  0  0  0  0  0  0  0  0
    8.2493   -1.5681   -1.2467 N   0  0  0  0  0  0  0  0  0  0  0  0
    8.1570   -2.3678   -2.3560 C   0  0  0  0  0  0  0  0  0  0  0  0
    8.6360   -1.9432   -3.6840 C   0  0  0  0  0  0  0  0  0  0  0  0
    7.6066   -3.5697   -2.1442 N   0  0  0  0  0  0  0  0  0  0  0  0
    7.3033   -3.5449   -0.7817 O   0  0  0  0  0  0  0  0  0  0  0  0
    3.8924   -1.8055    1.5200 C   0  0  0  0  0  0  0  0  0  0  0  0
    2.8733   -0.9456    1.2891 N   0  0  0  0  0  0  0  0  0  0  0  0
    3.2117    0.2671    0.7641 C   0  0  0  0  0  0  0  0  0  0  0  0
   -0.4167    2.9252    0.1910 C   0  0  0  0  0  0  0  0  0  0  0  0
   -1.6614    3.5358    0.0861 C   0  0  0  0  0  0  0  0  0  0  0  0
   -1.7307    4.8020   -0.3520 F   0  0  0  0  0  0  0  0  0  0  0  0
   -2.8272    2.8550    0.4200 C   0  0  0  0  0  0  0  0  0  0  0  0
   -3.9954    3.4985    0.2716 F   0  0  0  0  0  0  0  0  0  0  0  0
   -4.9664    1.6693    1.9855 N   0  0  0  0  0  0  0  0  0  0  0  0
   -6.2410    1.5575    1.9923 C   0  0  0  0  0  0  0  0  0  0  0  0
   -6.9852    2.4156    2.7233 N   0  0  0  0  0  0  0  0  0  0  0  0
   -7.1990    0.3728    1.1462 S   0  0  0  0  0  0  0  0  0  0  0  0
   -7.0481   -2.6068   -3.1583 H   0  0  0  0  0  0  0  0  0  0  0  0
   -6.1400   -3.6456   -2.0107 H   0  0  0  0  0  0  0  0  0  0  0  0
   -5.3423   -2.9996   -3.4608 H   0  0  0  0  0  0  0  0  0  0  0  0
   -7.5647   -1.1268   -1.3662 H   0  0  0  0  0  0  0  0  0  0  0  0
   -6.6232   -2.1265   -0.2226 H   0  0  0  0  0  0  0  0  0  0  0  0
   -5.3818    0.9769   -2.0583 H   0  0  0  0  0  0  0  0  0  0  0  0
   -5.7464    2.1337   -0.7207 H   0  0  0  0  0  0  0  0  0  0  0  0
   -3.9674   -0.4089   -0.5581 H   0  0  0  0  0  0  0  0  0  0  0  0
   -4.7608   -0.8992    2.4900 H   0  0  0  0  0  0  0  0  0  0  0  0
   -3.2466   -1.2194    1.6719 H   0  0  0  0  0  0  0  0  0  0  0  0
   -3.2902   -0.1252    3.0739 H   0  0  0  0  0  0  0  0  0  0  0  0
   -1.4221   -0.1030    1.2948 H   0  0  0  0  0  0  0  0  0  0  0  0
    0.8410   -0.0343    1.1168 H   0  0  0  0  0  0  0  0  0  0  0  0
    4.0736    3.6933   -0.7217 H   0  0  0  0  0  0  0  0  0  0  0  0
    5.9092    2.0707   -0.2629 H   0  0  0  0  0  0  0  0  0  0  0  0
    7.7469   -1.0278    1.4091 H   0  0  0  0  0  0  0  0  0  0  0  0
    8.1824   -2.7012    1.6951 H   0  0  0  0  0  0  0  0  0  0  0  0
    7.8207   -1.9668   -4.4136 H   0  0  0  0  0  0  0  0  0  0  0  0
    9.0302   -0.9228   -3.6492 H   0  0  0  0  0  0  0  0  0  0  0  0
    9.4350   -2.6039   -4.0343 H   0  0  0  0  0  0  0  0  0  0  0  0
    3.6199   -2.7708    1.9310 H   0  0  0  0  0  0  0  0  0  0  0  0
    0.4548    3.5071   -0.0828 H   0  0  0  0  0  0  0  0  0  0  0  0
   -6.5118    3.1607    3.2131 H   0  0  0  0  0  0  0  0  0  0  0  0
   -7.9917    2.3666    2.7171 H   0  0  0  0  0  0  0  0  0  0  0  0
  1  2  1  0
  2  3  1  0
  4  3  1  6
  4  5  1  0
  5  6  1  0
  6  7  1  0
  7  8  1  1
  7  9  1  0
  9 10  2  0
 10 11  1  0
 11 12  1  0
 12 13  1  0
 13 14  2  0
 14 15  1  0
 15 16  2  0
 16 17  1  0
 17 18  2  0
 18 19  1  0
 19 20  1  0
 20 21  1  0
 21 22  1  0
 22 23  2  0
 23 24  1  0
 24 25  1  0
 24 26  2  0
 26 27  1  0
 19 28  2  0
 28 29  1  0
 29 30  2  0
 11 31  2  0
 31 32  1  0
 32 33  1  0
 32 34  2  0
 34 35  1  0
  7 36  1  0
 36 37  2  0
 37 38  1  0
 37 39  1  0
  6  4  1  0
 34  9  1  0
 39  4  1  0
 30 13  1  0
 30 17  1  0
 27 22  1  0
  1 40  1  0
  1 41  1  0
  1 42  1  0
  3 43  1  0
  3 44  1  0
  5 45  1  0
  5 46  1  0
  6 47  1  6
  8 48  1  0
  8 49  1  0
  8 50  1  0
 10 51  1  0
 12 52  1  0
 15 53  1  0
 16 54  1  0
 21 55  1  0
 21 56  1  0
 25 57  1  0
 25 58  1  0
 25 59  1  0
 28 60  1  0
 31 61  1  0
 38 62  1  0
 38 63  1  0
M  END
>  <mol_id>  (1) 
97357

>  <source_index>  (1) 
8

>  <layer>  (1) 
L2

>  <uniprot>  (1) 
P56817

>  <paff>  (1) 
8.109

>  <smiles>  (1) 
COC[C@]12C[C@H]1[C@@](C)(c1cc(Nc3nccc4nc(OCc5nc(C)no5)cnc34)cc(F)c1F)N=C(N)S2

$$$$
