L2:P56817:97357
 OpenBabel09212617453D

 63 68  0  0  0  0  0  0  0  0999 V2000
   68.4962   48.3375    8.6884 C   0  0  0  0  0  0  0  0  0  0  0  0
   69.6395   47.6902    8.1666 C   0  0  0  0  0  0  0  0  0  0  0  0
   70.8847   48.3380    8.0091 C   0  0  0  0  0  0  0  0  0  0  0  0
   70.9726   49.6786    8.3775 C   0  0  0  0  0  0  0  0  0  0  0  0
   69.8587   50.3425    8.8789 C   0  0  0  0  0  0  0  0  0  0  0  0
   69.9687   51.6367    9.2150 F   0  0  0  0  0  0  0  0  0  0  0  0
   68.6396   49.6904    9.0293 C   0  0  0  0  0  0  0  0  0  0  0  0
   67.6008   50.3995    9.4969 F   0  0  0  0  0  0  0  0  0  0  0  0
   65.7825   46.7522   10.9078 C   0  0  1  0  0  0  0  0  0  0  0  0
   67.2268   46.7971   11.3714 C   0  0  0  0  0  0  0  0  0  0  0  0
   66.7423   47.7426   10.2916 C   0  0  1  0  0  0  0  0  0  0  0  0
   67.1355   47.6301    8.8401 C   0  0  1  0  0  0  0  0  0  0  0  0
   66.0334   48.2947    7.9732 C   0  0  0  0  0  0  0  0  0  0  0  0
   67.2474   46.2607    8.3397 N   0  0  0  0  0  0  0  0  0  0  0  0
   66.5134   45.2975    8.7529 C   0  0  0  0  0  0  0  0  0  0  0  0
   66.6744   44.0613    8.2329 N   0  0  0  0  0  0  0  0  0  0  0  0
   65.2551   45.3734    9.9562 S   0  0  0  0  0  0  0  0  0  0  0  0
   67.4113   43.9195    7.5576 H   0  0  0  0  0  0  0  0  0  0  0  0
   66.1302   43.2817    8.5668 H   0  0  0  0  0  0  0  0  0  0  0  0
   64.6963   47.2612   11.8454 C   0  0  0  0  0  0  0  0  0  0  0  0
   62.9910   48.4050   10.6838 C   0  0  0  0  0  0  0  0  0  0  0  0
   64.1964   48.5362   11.4241 O   0  0  0  0  0  0  0  0  0  0  0  0
   71.9537   47.5997    7.4839 N   0  0  0  0  0  0  0  0  0  0  0  0
   72.8791   48.0127    7.5788 H   0  0  0  0  0  0  0  0  0  0  0  0
   72.0447   46.3481    6.8185 C   0  0  0  0  0  0  0  0  0  0  0  0
   72.2653   45.2069    7.5130 N   0  0  0  0  0  0  0  0  0  0  0  0
   72.3438   44.0539    6.8263 C   0  0  0  0  0  0  0  0  0  0  0  0
   72.2080   43.9763    5.4576 C   0  0  0  0  0  0  0  0  0  0  0  0
   71.9809   45.1335    4.7411 C   0  0  0  0  0  0  0  0  0  0  0  0
   71.8474   45.0472    3.4017 N   0  0  0  0  0  0  0  0  0  0  0  0
   71.6410   46.2001    2.7365 C   0  0  0  0  0  0  0  0  0  0  0  0
   71.5543   47.4153    3.3889 C   0  0  0  0  0  0  0  0  0  0  0  0
   71.6753   47.5277    4.7320 N   0  0  0  0  0  0  0  0  0  0  0  0
   71.8946   46.3699    5.4191 C   0  0  0  0  0  0  0  0  0  0  0  0
   71.5055   46.1961    1.3670 O   0  0  0  0  0  0  0  0  0  0  0  0
   71.0486   44.9515    0.8187 C   0  0  0  0  0  0  0  0  0  0  0  0
   72.0034   44.4647   -0.2090 C   0  0  0  0  0  0  0  0  0  0  0  0
   72.8024   45.1394   -1.0085 N   0  0  0  0  0  0  0  0  0  0  0  0
   73.4345   44.1356   -1.6951 C   0  0  0  0  0  0  0  0  0  0  0  0
   74.4375   44.3988   -2.7430 C   0  0  0  0  0  0  0  0  0  0  0  0
   73.0807   42.8947   -1.3383 N   0  0  0  0  0  0  0  0  0  0  0  0
   72.1268   43.1100   -0.3420 O   0  0  0  0  0  0  0  0  0  0  0  0
   69.5608   46.6996    7.8882 H   0  0  0  0  0  0  0  0  0  0  0  0
   71.8685   50.1811    8.2778 H   0  0  0  0  0  0  0  0  0  0  0  0
   67.8939   45.9980   11.1238 H   0  0  0  0  0  0  0  0  0  0  0  0
   67.7165   46.9121   12.3158 H   0  0  0  0  0  0  0  0  0  0  0  0
   66.7853   48.8045   10.1675 H   0  0  0  0  0  0  0  0  0  0  0  0
   65.8964   49.3086    8.2863 H   0  0  0  0  0  0  0  0  0  0  0  0
   65.1152   47.7580    8.0906 H   0  0  0  0  0  0  0  0  0  0  0  0
   66.3286   48.2758    6.9449 H   0  0  0  0  0  0  0  0  0  0  0  0
   63.8899   46.5581   11.8579 H   0  0  0  0  0  0  0  0  0  0  0  0
   65.1194   47.3717   12.8220 H   0  0  0  0  0  0  0  0  0  0  0  0
   62.6478   49.3739   10.3865 H   0  0  0  0  0  0  0  0  0  0  0  0
   62.2477   47.9347   11.2930 H   0  0  0  0  0  0  0  0  0  0  0  0
   63.1697   47.8076    9.8143 H   0  0  0  0  0  0  0  0  0  0  0  0
   72.5146   43.1821    7.3514 H   0  0  0  0  0  0  0  0  0  0  0  0
   72.2751   43.0664    4.9754 H   0  0  0  0  0  0  0  0  0  0  0  0
   71.3913   48.2683    2.8314 H   0  0  0  0  0  0  0  0  0  0  0  0
   70.0879   45.0942    0.3697 H   0  0  0  0  0  0  0  0  0  0  0  0
   70.9801   44.2275    1.6036 H   0  0  0  0  0  0  0  0  0  0  0  0
   74.5613   45.4550   -2.8609 H   0  0  0  0  0  0  0  0  0  0  0  0
   74.1076   43.9729   -3.6675 H   0  0  0  0  0  0  0  0  0  0  0  0
   75.3715   43.9594   -2.4611 H   0  0  0  0  0  0  0  0  0  0  0  0
  1  2  2  0  0  0  0
  2  3  1  0  0  0  0
  2 43  1  0  0  0  0
  3 23  1  0  0  0  0
  3  4  2  0  0  0  0
  4  5  1  0  0  0  0
  4 44  1  0  0  0  0
  5  6  1  0  0  0  0
  5  7  2  0  0  0  0
  7  8  1  0  0  0  0
  7  1  1  0  0  0  0
  9 20  1  1  0  0  0
  9 10  1  0  0  0  0
 10 11  1  0  0  0  0
 10 45  1  0  0  0  0
 10 46  1  0  0  0  0
 11 12  1  0  0  0  0
 11  9  1  0  0  0  0
 11 47  1  1  0  0  0
 12 13  1  6  0  0  0
 12  1  1  0  0  0  0
 12 14  1  0  0  0  0
 13 48  1  0  0  0  0
 13 49  1  0  0  0  0
 13 50  1  0  0  0  0
 14 15  2  0  0  0  0
 15 16  1  0  0  0  0
 15 17  1  0  0  0  0
 16 18  1  0  0  0  0
 16 19  1  0  0  0  0
 17  9  1  0  0  0  0
 20 51  1  0  0  0  0
 20 52  1  0  0  0  0
 21 22  1  0  0  0  0
 21 53  1  0  0  0  0
 21 54  1  0  0  0  0
 21 55  1  0  0  0  0
 22 20  1  0  0  0  0
 23 25  1  0  0  0  0
 23 24  1  0  0  0  0
 25 26  2  0  0  0  0
 26 27  1  0  0  0  0
 27 28  2  0  0  0  0
 27 56  1  0  0  0  0
 28 29  1  0  0  0  0
 28 57  1  0  0  0  0
 29 30  2  0  0  0  0
 30 31  1  0  0  0  0
 31 35  1  0  0  0  0
 31 32  2  0  0  0  0
 32 33  1  0  0  0  0
 32 58  1  0  0  0  0
 33 34  2  0  0  0  0
 34 25  1  0  0  0  0
 34 29  1  0  0  0  0
 35 36  1  0  0  0  0
 36 37  1  0  0  0  0
 36 59  1  0  0  0  0
 36 60  1  0  0  0  0
 37 38  2  0  0  0  0
 38 39  1  0  0  0  0
 39 40  1  0  0  0  0
 39 41  2  0  0  0  0
 40 61  1  0  0  0  0
 40 62  1  0  0  0  0
 40 63  1  0  0  0  0
 41 42  1  0  0  0  0
 42 37  1  0  0  0  0
M  END
>  <minimizedAffinity>
-9.05602

$$$$
