L3:Q96LB1:11497
     RDKit          3D

 52 56  0  0  0  0  0  0  0  0999 V2000
   -0.5583   -0.3649   -2.4941 C   0  0  0  0  0  0  0  0  0  0  0  0
   -0.5494   -0.8639   -1.0425 C   0  0  1  0  0  0  0  0  0  0  0  0
    0.9344   -1.1227   -0.6810 C   0  0  0  0  0  0  0  0  0  0  0  0
    1.3987   -2.2577   -0.7148 O   0  0  0  0  0  0  0  0  0  0  0  0
    1.6037    0.0447   -0.3825 N   0  0  0  0  0  0  0  0  0  0  0  0
    2.9349    0.0912   -0.0958 C   0  0  0  0  0  0  0  0  0  0  0  0
    3.8139   -0.8731   -0.0946 N   0  0  0  0  0  0  0  0  0  0  0  0
    5.0544   -0.3738    0.2582 C   0  0  0  0  0  0  0  0  0  0  0  0
    6.2416   -1.1316    0.3659 C   0  0  0  0  0  0  0  0  0  0  0  0
    7.3915   -0.4579    0.7316 C   0  0  0  0  0  0  0  0  0  0  0  0
    7.4017    0.8924    0.9845 C   0  0  0  0  0  0  0  0  0  0  0  0
    6.2678    1.6779    0.8930 C   0  0  0  0  0  0  0  0  0  0  0  0
    5.0880    1.0061    0.5215 C   0  0  0  0  0  0  0  0  0  0  0  0
    3.4997    1.6468    0.3079 S   0  0  0  0  0  0  0  0  0  0  0  0
    8.6384    1.3476    1.3277 O   0  0  0  0  0  0  0  0  0  0  0  0
    9.3867    0.1256    1.2572 C   0  0  0  0  0  0  0  0  0  0  0  0
    9.9499   -0.1047    2.4683 F   0  0  0  0  0  0  0  0  0  0  0  0
   10.3901    0.2867    0.3604 F   0  0  0  0  0  0  0  0  0  0  0  0
    8.6193   -1.0260    0.8830 O   0  0  0  0  0  0  0  0  0  0  0  0
   -1.1575    0.0940   -0.0614 N   0  0  0  0  0  0  0  0  0  0  0  0
   -1.1205   -0.4920    1.3106 C   0  0  0  0  0  0  0  0  0  0  0  0
   -2.2403   -0.0064    2.2357 C   0  0  2  0  0  0  0  0  0  0  0  0
   -2.0906   -0.5707    3.4641 F   0  0  0  0  0  0  0  0  0  0  0  0
   -3.6123   -0.3870    1.6890 C   0  0  0  0  0  0  0  0  0  0  0  0
   -3.6481   -0.3652    0.1485 C   0  0  1  0  0  0  0  0  0  0  0  0
   -5.0205   -0.0093   -0.3962 C   0  0  0  0  0  0  0  0  0  0  0  0
   -5.5656    1.3220   -0.1680 C   0  0  0  0  0  0  0  0  0  0  0  0
   -6.7686    1.6734   -0.6455 C   0  0  0  0  0  0  0  0  0  0  0  0
   -7.5675    0.6942   -1.4219 C   0  0  0  0  0  0  0  0  0  0  0  0
   -8.6675    0.9850   -1.8746 O   0  0  0  0  0  0  0  0  0  0  0  0
   -6.9897   -0.5394   -1.5918 N   0  0  0  0  0  0  0  0  0  0  0  0
   -5.7580   -0.8875   -1.0991 C   0  0  0  0  0  0  0  0  0  0  0  0
   -2.5251    0.5307   -0.4221 C   0  0  0  0  0  0  0  0  0  0  0  0
    0.1197   -0.9602   -3.1170 H   0  0  0  0  0  0  0  0  0  0  0  0
   -1.5537   -0.4446   -2.9416 H   0  0  0  0  0  0  0  0  0  0  0  0
   -0.2295    0.6783   -2.5639 H   0  0  0  0  0  0  0  0  0  0  0  0
   -1.0754   -1.8266   -1.0018 H   0  0  0  0  0  0  0  0  0  0  0  0
    1.0654    0.8984   -0.3177 H   0  0  0  0  0  0  0  0  0  0  0  0
    6.2364   -2.1970    0.1674 H   0  0  0  0  0  0  0  0  0  0  0  0
    6.2853    2.7424    1.0944 H   0  0  0  0  0  0  0  0  0  0  0  0
   -1.1793   -1.5886    1.2738 H   0  0  0  0  0  0  0  0  0  0  0  0
   -0.1580   -0.2553    1.7785 H   0  0  0  0  0  0  0  0  0  0  0  0
   -2.1711    1.0792    2.3699 H   0  0  0  0  0  0  0  0  0  0  0  0
   -4.3572    0.2832    2.1345 H   0  0  0  0  0  0  0  0  0  0  0  0
   -3.8849   -1.3907    2.0407 H   0  0  0  0  0  0  0  0  0  0  0  0
   -3.4211   -1.3900   -0.1832 H   0  0  0  0  0  0  0  0  0  0  0  0
   -4.9897    2.0402    0.4066 H   0  0  0  0  0  0  0  0  0  0  0  0
   -7.2062    2.6506   -0.4922 H   0  0  0  0  0  0  0  0  0  0  0  0
   -7.5371   -1.2088   -2.1192 H   0  0  0  0  0  0  0  0  0  0  0  0
   -5.4295   -1.8998   -1.3146 H   0  0  0  0  0  0  0  0  0  0  0  0
   -2.6419    1.5471   -0.0211 H   0  0  0  0  0  0  0  0  0  0  0  0
   -2.6476    0.6580   -1.5015 H   0  0  0  0  0  0  0  0  0  0  0  0
  1  2  1  0
  2  3  1  0
  3  4  2  0
  3  5  1  0
  5  6  1  0
  6  7  2  0
  7  8  1  0
  8  9  2  0
  9 10  1  0
 10 11  2  0
 11 12  1  0
 12 13  2  0
 13 14  1  0
 11 15  1  0
 15 16  1  0
 16 17  1  0
 16 18  1  0
 16 19  1  0
  2 20  1  0
 20 21  1  0
 21 22  1  0
 22 23  1  0
 22 24  1  0
 24 25  1  0
 25 26  1  0
 26 27  1  0
 27 28  2  0
 28 29  1  0
 29 30  2  0
 29 31  1  0
 31 32  1  0
 25 33  1  0
 14  6  1  0
 33 20  1  0
 13  8  1  0
 32 26  2  0
 19 10  1  0
  1 34  1  0
  1 35  1  0
  1 36  1  0
  2 37  1  6
  5 38  1  0
  9 39  1  0
 12 40  1  0
 21 41  1  0
 21 42  1  0
 22 43  1  1
 24 44  1  0
 24 45  1  0
 25 46  1  6
 27 47  1  0
 28 48  1  0
 31 49  1  0
 32 50  1  0
 33 51  1  0
 33 52  1  0
M  END
>  <mol_id>  (1) 
11497

>  <source_index>  (1) 
0

>  <layer>  (1) 
L3

>  <uniprot>  (1) 
Q96LB1

>  <paff>  (1) 
7.0457999999999998

>  <smiles>  (1) 
FC1(OC=2C(=CC3=C(N=C(S3)NC([C@H](C)N3C[C@@H](C[C@H](C3)C3=CNC(C=C3)=O)F)=O)C2)O1)F

$$$$
