L3:Q96LB1:11497


 35 39  0  0  0  0  0  0  0  0999 V2000
   99.8702   63.5995   87.2303 C   0  0  0  0  0  0  0  0  0  0  0  0
   99.7227   62.3823   87.2694 O   0  0  0  0  0  0  0  0  0  0  0  0
  100.3612   64.4135   88.2284 N   0  0  0  0  0  0  0  0  0  0  0  0
  100.3496   65.4132   88.0758 H   0  0  0  0  0  0  0  0  0  0  0  0
  100.7870   63.9441   89.4346 C   0  0  0  0  0  0  0  0  0  0  0  0
  100.1032   63.7256   90.5241 N   0  0  0  0  0  0  0  0  0  0  0  0
  100.9420   63.2458   91.5135 C   0  0  0  0  0  0  0  0  0  0  0  0
  100.5479   62.9032   92.8260 C   0  0  0  0  0  0  0  0  0  0  0  0
  101.5294   62.4381   93.6805 C   0  0  0  0  0  0  0  0  0  0  0  0
  102.8401   62.3069   93.2902 C   0  0  0  0  0  0  0  0  0  0  0  0
  103.2763   62.6283   92.0183 C   0  0  0  0  0  0  0  0  0  0  0  0
  102.2880   63.1037   91.1359 C   0  0  0  0  0  0  0  0  0  0  0  0
  102.4539   63.5972   89.4904 S   0  0  0  0  0  0  0  0  0  0  0  0
  103.6348   61.8322   94.2889 O   0  0  0  0  0  0  0  0  0  0  0  0
  102.6655   61.6864   95.3364 C   0  0  0  0  0  0  0  0  0  0  0  0
  103.0563   62.4407   96.3925 F   0  0  0  0  0  0  0  0  0  0  0  0
  102.6557   60.3915   95.7364 F   0  0  0  0  0  0  0  0  0  0  0  0
  101.3307   62.0633   94.9740 O   0  0  0  0  0  0  0  0  0  0  0  0
  100.4910   65.5990   85.9241 C   0  0  0  0  0  0  0  0  0  0  0  0
   99.5381   64.3958   85.9439 C   0  0  0  0  0  0  0  0  0  0  0  0
   98.0843   64.7649   85.9292 N   0  0  0  0  0  0  0  0  0  0  0  0
   97.3975   64.0799   84.7951 C   0  0  0  0  0  0  0  0  0  0  0  0
   96.1812   64.8314   84.2461 C   0  0  0  0  0  0  0  0  0  0  0  0
   95.6123   64.1051   83.2468 F   0  0  0  0  0  0  0  0  0  0  0  0
   96.5789   66.1952   83.6910 C   0  0  0  0  0  0  0  0  0  0  0  0
   97.7414   66.8257   84.4823 C   0  0  0  0  0  0  0  0  0  0  0  0
   97.8388   66.2244   85.9030 C   0  0  0  0  0  0  0  0  0  0  0  0
   97.6858   68.3435   84.4868 C   0  0  0  0  0  0  0  0  0  0  0  0
   97.7501   69.0728   83.2277 C   0  0  0  0  0  0  0  0  0  0  0  0
   97.6911   70.4123   83.1947 C   0  0  0  0  0  0  0  0  0  0  0  0
   97.5583   71.1750   84.4598 C   0  0  0  0  0  0  0  0  0  0  0  0
   97.4980   72.3980   84.4634 O   0  0  0  0  0  0  0  0  0  0  0  0
   97.5080   70.4190   85.6045 N   0  0  0  0  0  0  0  0  0  0  0  0
   97.5687   69.0490   85.6261 C   0  0  0  0  0  0  0  0  0  0  0  0
   97.4206   70.9404   86.4684 H   0  0  0  0  0  0  0  0  0  0  0  0
 19 20  1  0  0  0
 20  1  1  0  0  0
  1  2  2  0  0  0
  1  3  1  0  0  0
  3  5  1  0  0  0
  5  6  2  0  0  0
  6  7  1  0  0  0
  7  8  2  0  0  0
  8  9  1  0  0  0
  9 10  2  0  0  0
 10 11  1  0  0  0
 11 12  2  0  0  0
 12 13  1  0  0  0
 10 14  1  0  0  0
 14 15  1  0  0  0
 15 16  1  0  0  0
 15 17  1  0  0  0
 15 18  1  0  0  0
 20 21  1  0  0  0
 21 22  1  0  0  0
 22 23  1  0  0  0
 23 24  1  0  0  0
 23 25  1  0  0  0
 25 26  1  0  0  0
 26 28  1  0  0  0
 28 29  1  0  0  0
 29 30  2  0  0  0
 30 31  1  0  0  0
 31 32  2  0  0  0
 31 33  1  0  0  0
 33 34  1  0  0  0
 26 27  1  0  0  0
 13  5  1  0  0  0
 27 21  1  0  0  0
 12  7  1  0  0  0
 34 28  2  0  0  0
 18  9  1  0  0  0
  3  4  1  0  0  0
 33 35  1  0  0  0
M  END
> <minimizedAffinity>
-7.54687

$$$$
