L3:Q96LB1:115856


 26 29  0  0  0  0  0  0  0  0999 V2000
   99.3177   66.0626   83.5736 C   0  0  0  0  0  0  0  0  0  0  0  0
  100.2518   65.3660   83.1801 O   0  0  0  0  0  0  0  0  0  0  0  0
   98.6449   65.9138   84.7653 N   0  0  0  0  0  0  0  0  0  0  0  0
   97.8562   66.5059   84.9776 H   0  0  0  0  0  0  0  0  0  0  0  0
   98.8919   64.9976   85.7547 C   0  0  0  0  0  0  0  0  0  0  0  0
   99.8194   65.2295   86.6524 N   0  0  0  0  0  0  0  0  0  0  0  0
   99.8847   64.1697   87.5412 C   0  0  0  0  0  0  0  0  0  0  0  0
  100.7545   64.0603   88.6380 C   0  0  0  0  0  0  0  0  0  0  0  0
  100.6829   62.9256   89.4238 C   0  0  0  0  0  0  0  0  0  0  0  0
  101.4219   62.6111   90.5254 O   0  0  0  0  0  0  0  0  0  0  0  0
  100.9354   61.3905   90.8938 C   0  0  0  0  0  0  0  0  0  0  0  0
   99.9711   60.9107   90.1369 N   0  0  0  0  0  0  0  0  0  0  0  0
   99.7994   61.8866   89.1903 C   0  0  0  0  0  0  0  0  0  0  0  0
   98.9327   61.9874   88.1035 C   0  0  0  0  0  0  0  0  0  0  0  0
   98.9841   63.1275   87.2902 C   0  0  0  0  0  0  0  0  0  0  0  0
   98.0544   63.5267   85.9004 S   0  0  0  0  0  0  0  0  0  0  0  0
   99.6494   67.4927   81.4467 C   0  0  0  0  0  0  0  0  0  0  0  0
   98.7703   67.1943   82.6650 C   0  0  0  0  0  0  0  0  0  0  0  0
   98.4046   68.4286   83.4148 N   0  0  0  0  0  0  0  0  0  0  0  0
   97.0894   68.9951   83.0944 C   0  0  0  0  0  0  0  0  0  0  0  0
   96.7427   70.1132   84.0706 C   0  0  0  0  0  0  0  0  0  0  0  0
   97.8251   71.1694   84.0571 C   0  0  0  0  0  0  0  0  0  0  0  0
   97.7975   71.8210   82.8641 F   0  0  0  0  0  0  0  0  0  0  0  0
   97.5602   72.1037   85.0050 F   0  0  0  0  0  0  0  0  0  0  0  0
   99.2042   70.5926   84.2821 C   0  0  0  0  0  0  0  0  0  0  0  0
   99.4613   69.4526   83.3050 C   0  0  0  0  0  0  0  0  0  0  0  0
 17 18  1  0  0  0
 18  1  1  0  0  0
  1  2  2  0  0  0
  1  3  1  0  0  0
  3  5  1  0  0  0
  5  6  2  0  0  0
  6  7  1  0  0  0
  7  8  2  0  0  0
  8  9  1  0  0  0
  9 10  1  0  0  0
 10 11  1  0  0  0
 11 12  2  0  0  0
 12 13  1  0  0  0
 13 14  1  0  0  0
 14 15  2  0  0  0
 15 16  1  0  0  0
 18 19  1  0  0  0
 19 20  1  0  0  0
 20 21  1  0  0  0
 21 22  1  0  0  0
 22 23  1  0  0  0
 22 24  1  0  0  0
 22 25  1  0  0  0
 25 26  1  0  0  0
 16  5  1  0  0  0
 26 19  1  0  0  0
 15  7  1  0  0  0
 13  9  2  0  0  0
  3  4  1  0  0  0
M  END
> <minimizedAffinity>
-6.31492

$$$$
