L3:Q96LB1:115856
     RDKit          3D

 41 44  0  0  0  0  0  0  0  0999 V2000
   -1.8878    2.9037   -1.0518 C   0  0  0  0  0  0  0  0  0  0  0  0
   -2.1540    1.4168   -1.3055 C   0  0  1  0  0  0  0  0  0  0  0  0
   -0.8712    0.5826   -1.5598 C   0  0  0  0  0  0  0  0  0  0  0  0
   -0.8734   -0.2842   -2.4323 O   0  0  0  0  0  0  0  0  0  0  0  0
    0.1759    0.8772   -0.7162 N   0  0  0  0  0  0  0  0  0  0  0  0
    1.4189    0.2995   -0.6950 C   0  0  0  0  0  0  0  0  0  0  0  0
    2.3065    0.6755    0.1942 N   0  0  0  0  0  0  0  0  0  0  0  0
    3.4767   -0.0438    0.0194 C   0  0  0  0  0  0  0  0  0  0  0  0
    4.6478    0.0802    0.7840 C   0  0  0  0  0  0  0  0  0  0  0  0
    5.7279   -0.7220    0.4679 C   0  0  0  0  0  0  0  0  0  0  0  0
    6.9508   -0.7701    1.0685 O   0  0  0  0  0  0  0  0  0  0  0  0
    7.6144   -1.7271    0.3571 C   0  0  0  0  0  0  0  0  0  0  0  0
    6.9336   -2.2802   -0.6245 N   0  0  0  0  0  0  0  0  0  0  0  0
    5.7212   -1.6442   -0.5636 C   0  0  0  0  0  0  0  0  0  0  0  0
    4.5626   -1.7735   -1.3274 C   0  0  0  0  0  0  0  0  0  0  0  0
    3.4525   -0.9722   -1.0283 C   0  0  0  0  0  0  0  0  0  0  0  0
    1.9097   -0.9087   -1.7839 S   0  0  0  0  0  0  0  0  0  0  0  0
   -3.0527    0.8195   -0.2784 N   0  0  0  0  0  0  0  0  0  0  0  0
   -2.4751    0.6849    1.0639 C   0  0  0  0  0  0  0  0  0  0  0  0
   -3.5491    0.2709    2.0631 C   0  0  0  0  0  0  0  0  0  0  0  0
   -4.2153   -1.0090    1.6098 C   0  0  0  0  0  0  0  0  0  0  0  0
   -3.3280   -2.0341    1.7120 F   0  0  0  0  0  0  0  0  0  0  0  0
   -5.2394   -1.3097    2.4479 F   0  0  0  0  0  0  0  0  0  0  0  0
   -4.7268   -0.9277    0.1896 C   0  0  0  0  0  0  0  0  0  0  0  0
   -3.6147   -0.4635   -0.7422 C   0  0  0  0  0  0  0  0  0  0  0  0
   -2.8277    3.4670   -1.0504 H   0  0  0  0  0  0  0  0  0  0  0  0
   -1.3852    3.0992   -0.1006 H   0  0  0  0  0  0  0  0  0  0  0  0
   -1.2524    3.3167   -1.8434 H   0  0  0  0  0  0  0  0  0  0  0  0
   -2.6966    1.4015   -2.2623 H   0  0  0  0  0  0  0  0  0  0  0  0
    0.0639    1.5752    0.0035 H   0  0  0  0  0  0  0  0  0  0  0  0
    4.6978    0.7899    1.6020 H   0  0  0  0  0  0  0  0  0  0  0  0
    8.6290   -1.9382    0.6653 H   0  0  0  0  0  0  0  0  0  0  0  0
    4.5295   -2.4897   -2.1430 H   0  0  0  0  0  0  0  0  0  0  0  0
   -2.0584    1.6371    1.4067 H   0  0  0  0  0  0  0  0  0  0  0  0
   -1.6628   -0.0519    1.0767 H   0  0  0  0  0  0  0  0  0  0  0  0
   -3.0960    0.1233    3.0500 H   0  0  0  0  0  0  0  0  0  0  0  0
   -4.2981    1.0648    2.1728 H   0  0  0  0  0  0  0  0  0  0  0  0
   -5.5805   -0.2407    0.1387 H   0  0  0  0  0  0  0  0  0  0  0  0
   -5.0904   -1.9104   -0.1314 H   0  0  0  0  0  0  0  0  0  0  0  0
   -4.0445   -0.3484   -1.7445 H   0  0  0  0  0  0  0  0  0  0  0  0
   -2.8385   -1.2364   -0.8054 H   0  0  0  0  0  0  0  0  0  0  0  0
  1  2  1  0
  2  3  1  0
  3  4  2  0
  3  5  1  0
  5  6  1  0
  6  7  2  0
  7  8  1  0
  8  9  2  0
  9 10  1  0
 10 11  1  0
 11 12  1  0
 12 13  2  0
 13 14  1  0
 14 15  1  0
 15 16  2  0
 16 17  1  0
  2 18  1  0
 18 19  1  0
 19 20  1  0
 20 21  1  0
 21 22  1  0
 21 23  1  0
 21 24  1  0
 24 25  1  0
 17  6  1  0
 25 18  1  0
 16  8  1  0
 14 10  2  0
  1 26  1  0
  1 27  1  0
  1 28  1  0
  2 29  1  6
  5 30  1  0
  9 31  1  0
 12 32  1  0
 15 33  1  0
 19 34  1  0
 19 35  1  0
 20 36  1  0
 20 37  1  0
 24 38  1  0
 24 39  1  0
 25 40  1  0
 25 41  1  0
M  END
>  <mol_id>  (1) 
115856

>  <source_index>  (1) 
6

>  <layer>  (1) 
L3

>  <uniprot>  (1) 
Q96LB1

>  <paff>  (1) 
6.4802

>  <smiles>  (1) 
FC1(CCN(CC1)[C@H](C(=O)NC=1SC=2C(=CC3=C(N=CO3)C2)N1)C)F

$$$$
