L3:Q96LB1:128174
     RDKit          3D

 60 64  0  0  0  0  0  0  0  0999 V2000
    0.0574    1.3709    2.3619 C   0  0  0  0  0  0  0  0  0  0  0  0
    0.3470    1.8998    0.9504 C   0  0  1  0  0  0  0  0  0  0  0  0
    1.8868    2.0186    0.8325 C   0  0  0  0  0  0  0  0  0  0  0  0
    2.4475    3.0925    1.0278 O   0  0  0  0  0  0  0  0  0  0  0  0
    2.4771    0.8091    0.5362 N   0  0  0  0  0  0  0  0  0  0  0  0
    3.8099    0.5299    0.4134 C   0  0  0  0  0  0  0  0  0  0  0  0
    4.2178   -0.6666    0.0672 N   0  0  0  0  0  0  0  0  0  0  0  0
    5.6013   -0.6973    0.0176 C   0  0  0  0  0  0  0  0  0  0  0  0
    6.3850   -1.8224   -0.3223 C   0  0  0  0  0  0  0  0  0  0  0  0
    7.7579   -1.6614   -0.3178 C   0  0  0  0  0  0  0  0  0  0  0  0
    8.3563   -0.4666    0.0010 C   0  0  0  0  0  0  0  0  0  0  0  0
    7.6337    0.6616    0.3403 C   0  0  0  0  0  0  0  0  0  0  0  0
    6.2339    0.5134    0.3400 C   0  0  0  0  0  0  0  0  0  0  0  0
    5.0239    1.6823    0.7058 S   0  0  0  0  0  0  0  0  0  0  0  0
    9.7150   -0.5336   -0.0582 O   0  0  0  0  0  0  0  0  0  0  0  0
    9.8845   -1.9031   -0.4493 C   0  0  0  0  0  0  0  0  0  0  0  0
   10.5720   -1.9361   -1.6169 F   0  0  0  0  0  0  0  0  0  0  0  0
   10.6356   -2.5298    0.4887 F   0  0  0  0  0  0  0  0  0  0  0  0
    8.6621   -2.6335   -0.6185 O   0  0  0  0  0  0  0  0  0  0  0  0
   -0.1826    1.0221   -0.1383 N   0  0  0  0  0  0  0  0  0  0  0  0
   -0.0103    1.6269   -1.4654 C   0  0  0  0  0  0  0  0  0  0  0  0
   -0.2570    0.5859   -2.5581 C   0  0  0  0  0  0  0  0  0  0  0  0
   -1.3496   -0.4032   -2.1765 C   0  0  0  0  0  0  0  0  0  0  0  0
   -0.7714   -1.5125   -1.6405 F   0  0  0  0  0  0  0  0  0  0  0  0
   -1.9773   -0.8152   -3.3093 F   0  0  0  0  0  0  0  0  0  0  0  0
   -2.3534    0.2040   -1.1958 C   0  0  1  0  0  0  0  0  0  0  0  0
   -3.5803   -0.6283   -0.8384 C   0  0  0  0  0  0  0  0  0  0  0  0
   -3.6140   -2.0196   -0.9359 C   0  0  0  0  0  0  0  0  0  0  0  0
   -4.7634   -2.7187   -0.5659 C   0  0  0  0  0  0  0  0  0  0  0  0
   -5.8940   -2.0743   -0.0922 N   0  0  0  0  0  4  0  0  0  0  0  0
   -6.9174   -2.7538    0.2413 O   0  0  0  0  0  1  0  0  0  0  0  0
   -5.8807   -0.6884    0.0089 C   0  0  0  0  0  0  0  0  0  0  0  0
   -7.1255   -0.0465    0.5544 C   0  0  2  0  0  0  0  0  0  0  0  0
   -7.1656    1.3498    0.1996 O   0  0  0  0  0  0  0  0  0  0  0  0
   -7.1901   -0.1449    2.0881 C   0  0  0  0  0  0  0  0  0  0  0  0
   -6.2064    0.7102    2.6858 O   0  0  0  0  0  0  0  0  0  0  0  0
   -4.7256    0.0272   -0.3598 C   0  0  0  0  0  0  0  0  0  0  0  0
   -1.5936    0.6324    0.0825 C   0  0  0  0  0  0  0  0  0  0  0  0
    0.5953    1.9601    3.1137 H   0  0  0  0  0  0  0  0  0  0  0  0
   -1.0080    1.4285    2.6058 H   0  0  0  0  0  0  0  0  0  0  0  0
    0.3795    0.3295    2.4762 H   0  0  0  0  0  0  0  0  0  0  0  0
   -0.0786    2.9070    0.8534 H   0  0  0  0  0  0  0  0  0  0  0  0
    1.8575    0.0334    0.3285 H   0  0  0  0  0  0  0  0  0  0  0  0
    5.9193   -2.7677   -0.5745 H   0  0  0  0  0  0  0  0  0  0  0  0
    8.1115    1.6014    0.5913 H   0  0  0  0  0  0  0  0  0  0  0  0
   -0.6923    2.4787   -1.5888 H   0  0  0  0  0  0  0  0  0  0  0  0
    1.0016    2.0219   -1.6108 H   0  0  0  0  0  0  0  0  0  0  0  0
   -0.5217    1.1027   -3.4878 H   0  0  0  0  0  0  0  0  0  0  0  0
    0.6688    0.0309   -2.7528 H   0  0  0  0  0  0  0  0  0  0  0  0
   -2.7449    1.1054   -1.6921 H   0  0  0  0  0  0  0  0  0  0  0  0
   -2.7611   -2.5915   -1.2935 H   0  0  0  0  0  0  0  0  0  0  0  0
   -4.8696   -3.7923   -0.6094 H   0  0  0  0  0  0  0  0  0  0  0  0
   -8.0075   -0.5157    0.1036 H   0  0  0  0  0  0  0  0  0  0  0  0
   -8.0966    1.6245    0.2864 H   0  0  0  0  0  0  0  0  0  0  0  0
   -8.1641    0.2103    2.4406 H   0  0  0  0  0  0  0  0  0  0  0  0
   -7.0372   -1.1627    2.4577 H   0  0  0  0  0  0  0  0  0  0  0  0
   -6.2117    1.5294    2.1540 H   0  0  0  0  0  0  0  0  0  0  0  0
   -4.7314    1.1125   -0.2634 H   0  0  0  0  0  0  0  0  0  0  0  0
   -2.1536    1.4636    0.5327 H   0  0  0  0  0  0  0  0  0  0  0  0
   -1.6017   -0.1912    0.8079 H   0  0  0  0  0  0  0  0  0  0  0  0
  1  2  1  0
  2  3  1  0
  3  4  2  0
  3  5  1  0
  5  6  1  0
  6  7  2  0
  7  8  1  0
  8  9  2  0
  9 10  1  0
 10 11  2  0
 11 12  1  0
 12 13  2  0
 13 14  1  0
 11 15  1  0
 15 16  1  0
 16 17  1  0
 16 18  1  0
 16 19  1  0
  2 20  1  0
 20 21  1  0
 21 22  1  0
 22 23  1  0
 23 24  1  0
 23 25  1  0
 23 26  1  0
 26 27  1  0
 27 28  2  0
 28 29  1  0
 29 30  2  0
 30 31  1  0
 30 32  1  0
 32 33  1  0
 33 34  1  0
 33 35  1  0
 35 36  1  0
 32 37  2  0
 26 38  1  0
 14  6  1  0
 38 20  1  0
 13  8  1  0
 37 27  1  0
 19 10  1  0
  1 39  1  0
  1 40  1  0
  1 41  1  0
  2 42  1  1
  5 43  1  0
  9 44  1  0
 12 45  1  0
 21 46  1  0
 21 47  1  0
 22 48  1  0
 22 49  1  0
 26 50  1  6
 28 51  1  0
 29 52  1  0
 33 53  1  6
 34 54  1  0
 35 55  1  0
 35 56  1  0
 36 57  1  0
 37 58  1  0
 38 59  1  0
 38 60  1  0
M  CHG  2  30   1  31  -1
M  END
>  <mol_id>  (1) 
128174

>  <source_index>  (1) 
7

>  <layer>  (1) 
L3

>  <uniprot>  (1) 
Q96LB1

>  <paff>  (1) 
7.5228999999999999

>  <smiles>  (1) 
FC1(OC=2C(=CC3=C(N=C(S3)NC([C@H](C)N3C[C@@H](C(CC3)(F)F)C3=CC(=[N+](C=C3)[O-])[C@@H](CO)O)=O)C2)O1)F

$$$$
