L3:Q96LB1:129454
 OpenBabel09212617473D

 55 59  0  0  0  0  0  0  0  0999 V2000
   98.0572   67.7853   81.3521 C   0  0  0  0  0  0  0  0  0  0  0  0
   97.4947   66.7301   82.3136 C   0  0  2  0  0  0  0  0  0  0  0  0
   98.5295   65.9472   83.0524 N   0  0  0  0  0  0  0  0  0  0  0  0
   97.9359   65.0822   84.0926 C   0  0  0  0  0  0  0  0  0  0  0  0
   97.5742   65.8060   85.3845 C   0  0  0  0  0  0  0  0  0  0  0  0
   98.7948   66.5101   85.9347 C   0  0  0  0  0  0  0  0  0  0  0  0
   98.4819   67.1701   87.0796 F   0  0  0  0  0  0  0  0  0  0  0  0
   99.6935   65.5491   86.3163 F   0  0  0  0  0  0  0  0  0  0  0  0
   99.4959   67.4364   84.9451 C   0  0  1  0  0  0  0  0  0  0  0  0
   99.6698   66.7089   83.5939 C   0  0  0  0  0  0  0  0  0  0  0  0
   98.9034   68.8366   84.8383 C   0  0  0  0  0  0  0  0  0  0  0  0
   97.6639   69.0851   85.3072 C   0  0  0  0  0  0  0  0  0  0  0  0
   97.1074   70.3302   85.1972 N   0  0  0  0  0  0  0  0  0  0  0  0
   97.7807   71.3640   84.5983 C   0  0  0  0  0  0  0  0  0  0  0  0
   97.3569   72.4987   84.4613 O   0  0  0  0  0  0  0  0  0  0  0  0
   99.1574   70.9887   84.0966 C   0  0  0  0  0  0  0  0  0  0  0  0
   99.6734   69.8010   84.2209 N   0  0  0  0  0  0  0  0  0  0  0  0
   96.1766   70.5245   85.5447 H   0  0  0  0  0  0  0  0  0  0  0  0
   96.6491   65.7693   81.4335 C   0  0  0  0  0  0  0  0  0  0  0  0
   95.4799   65.5248   81.7156 O   0  0  0  0  0  0  0  0  0  0  0  0
   97.3551   65.3195   80.3392 N   0  0  0  0  0  0  0  0  0  0  0  0
   98.3399   65.5583   80.3061 H   0  0  0  0  0  0  0  0  0  0  0  0
   96.9180   64.5217   79.3191 C   0  0  0  0  0  0  0  0  0  0  0  0
   97.2868   63.2663   79.2424 N   0  0  0  0  0  0  0  0  0  0  0  0
   96.7180   62.6791   78.1226 C   0  0  0  0  0  0  0  0  0  0  0  0
   96.8883   61.3344   77.7261 C   0  0  0  0  0  0  0  0  0  0  0  0
   96.2506   60.9085   76.5680 C   0  0  0  0  0  0  0  0  0  0  0  0
   95.4518   61.7705   75.8165 C   0  0  0  0  0  0  0  0  0  0  0  0
   95.2530   63.0942   76.1853 C   0  0  0  0  0  0  0  0  0  0  0  0
   95.9108   63.5262   77.3518 C   0  0  0  0  0  0  0  0  0  0  0  0
   95.8948   65.0841   78.0851 S   0  0  0  0  0  0  0  0  0  0  0  0
   94.8449   61.0512   74.6502 C   0  0  0  0  0  0  0  0  0  0  0  0
   95.7523   59.8166   74.5556 C   0  0  0  0  0  0  0  0  0  0  0  0
   96.2549   59.5322   75.9778 C   0  0  0  0  0  0  0  0  0  0  0  0
   97.2495   68.2945   80.8692 H   0  0  0  0  0  0  0  0  0  0  0  0
   98.6684   67.3070   80.6156 H   0  0  0  0  0  0  0  0  0  0  0  0
   98.6459   68.4903   81.9010 H   0  0  0  0  0  0  0  0  0  0  0  0
   96.9322   67.2271   83.0762 H   0  0  0  0  0  0  0  0  0  0  0  0
   98.6391   64.3106   84.3272 H   0  0  0  0  0  0  0  0  0  0  0  0
   97.0201   64.7042   83.6884 H   0  0  0  0  0  0  0  0  0  0  0  0
   97.2195   65.0962   86.1023 H   0  0  0  0  0  0  0  0  0  0  0  0
   96.8099   66.5274   85.1839 H   0  0  0  0  0  0  0  0  0  0  0  0
  100.4689   67.6472   85.3373 H   0  0  0  0  0  0  0  0  0  0  0  0
  100.4827   66.0225   83.7072 H   0  0  0  0  0  0  0  0  0  0  0  0
   99.8151   67.4996   82.8878 H   0  0  0  0  0  0  0  0  0  0  0  0
   97.1276   68.3257   85.7552 H   0  0  0  0  0  0  0  0  0  0  0  0
   99.7197   71.7167   83.6288 H   0  0  0  0  0  0  0  0  0  0  0  0
   97.4698   60.6869   78.2808 H   0  0  0  0  0  0  0  0  0  0  0  0
   94.6543   63.7279   75.6330 H   0  0  0  0  0  0  0  0  0  0  0  0
   94.8912   61.6410   73.7586 H   0  0  0  0  0  0  0  0  0  0  0  0
   93.8058   60.8243   74.7668 H   0  0  0  0  0  0  0  0  0  0  0  0
   96.5782   60.0144   73.9047 H   0  0  0  0  0  0  0  0  0  0  0  0
   95.2213   58.9767   74.1587 H   0  0  0  0  0  0  0  0  0  0  0  0
   97.2390   59.1122   75.9693 H   0  0  0  0  0  0  0  0  0  0  0  0
   95.6658   58.8207   76.5179 H   0  0  0  0  0  0  0  0  0  0  0  0
  1  2  1  0  0  0  0
  1 35  1  0  0  0  0
  1 36  1  0  0  0  0
  1 37  1  0  0  0  0
  2 19  1  0  0  0  0
  2  3  1  0  0  0  0
  2 38  1  1  0  0  0
  3  4  1  0  0  0  0
  4  5  1  0  0  0  0
  4 39  1  0  0  0  0
  4 40  1  0  0  0  0
  5  6  1  0  0  0  0
  5 41  1  0  0  0  0
  5 42  1  0  0  0  0
  6  7  1  0  0  0  0
  6  8  1  0  0  0  0
  6  9  1  0  0  0  0
  9 11  1  0  0  0  0
  9 10  1  0  0  0  0
  9 43  1  1  0  0  0
 10  3  1  0  0  0  0
 10 44  1  0  0  0  0
 10 45  1  0  0  0  0
 11 12  2  0  0  0  0
 12 13  1  0  0  0  0
 12 46  1  0  0  0  0
 13 14  1  0  0  0  0
 13 18  1  0  0  0  0
 14 15  2  0  0  0  0
 14 16  1  0  0  0  0
 16 17  2  0  0  0  0
 16 47  1  0  0  0  0
 17 11  1  0  0  0  0
 19 20  2  0  0  0  0
 19 21  1  0  0  0  0
 21 23  1  0  0  0  0
 21 22  1  0  0  0  0
 23 24  2  0  0  0  0
 24 25  1  0  0  0  0
 25 26  2  0  0  0  0
 26 27  1  0  0  0  0
 26 48  1  0  0  0  0
 27 28  2  0  0  0  0
 28 29  1  0  0  0  0
 28 32  1  0  0  0  0
 29 30  2  0  0  0  0
 29 49  1  0  0  0  0
 30 31  1  0  0  0  0
 30 25  1  0  0  0  0
 31 23  1  0  0  0  0
 32 33  1  0  0  0  0
 32 50  1  0  0  0  0
 32 51  1  0  0  0  0
 33 34  1  0  0  0  0
 33 52  1  0  0  0  0
 33 53  1  0  0  0  0
 34 27  1  0  0  0  0
 34 54  1  0  0  0  0
 34 55  1  0  0  0  0
M  END
>  <minimizedAffinity>
-7.48202

$$$$
