L3:Q96LB1:145185
 OpenBabel09212617473D

 28 30  0  0  0  0  0  0  0  0999 V2000
   97.7216   65.9688   85.6608 O   0  0  0  0  0  0  0  0  0  0  0  0
   97.6974   65.9253   84.4316 C   0  0  0  0  0  0  0  0  0  0  0  0
   96.8000   64.9517   83.7845 C   0  0  0  0  0  0  0  0  0  0  0  0
   95.9658   64.1199   84.5398 C   0  0  0  0  0  0  0  0  0  0  0  0
   95.1286   63.2086   83.8946 C   0  0  0  0  0  0  0  0  0  0  0  0
   95.1270   63.1295   82.5012 C   0  0  0  0  0  0  0  0  0  0  0  0
   95.9617   63.9603   81.7502 C   0  0  0  0  0  0  0  0  0  0  0  0
   96.7959   64.8702   82.4004 C   0  0  0  0  0  0  0  0  0  0  0  0
   97.6341   65.6977   81.6604 N   0  0  0  0  0  0  0  0  0  0  0  0
   98.4798   66.6255   82.2072 C   0  0  0  0  0  0  0  0  0  0  0  0
   99.4136   67.4861   81.1101 S   0  0  0  0  0  0  0  0  0  0  0  0
   98.4768   66.7413   83.5966 N   0  0  0  0  0  0  0  0  0  0  0  0
   97.6376   65.6304   80.6483 H   0  0  0  0  0  0  0  0  0  0  0  0
   99.3196   67.7245   84.2923 C   0  0  0  0  0  0  0  0  0  0  0  0
   98.6949   69.0954   84.2162 C   0  0  0  0  0  0  0  0  0  0  0  0
   97.4095   69.4768   84.5571 C   0  0  0  0  0  0  0  0  0  0  0  0
   97.1812   70.8693   84.3629 C   0  0  0  0  0  0  0  0  0  0  0  0
   98.3032   71.5133   83.8948 C   0  0  0  0  0  0  0  0  0  0  0  0
   99.6219   70.4447   83.7012 S   0  0  0  0  0  0  0  0  0  0  0  0
   95.9697   64.1801   85.5700 H   0  0  0  0  0  0  0  0  0  0  0  0
   94.5111   62.5937   84.4474 H   0  0  0  0  0  0  0  0  0  0  0  0
   94.5076   62.4555   82.0246 H   0  0  0  0  0  0  0  0  0  0  0  0
   95.9614   63.9014   80.7199 H   0  0  0  0  0  0  0  0  0  0  0  0
  100.2852   67.7504   83.8320 H   0  0  0  0  0  0  0  0  0  0  0  0
   99.4112   67.4399   85.3197 H   0  0  0  0  0  0  0  0  0  0  0  0
   96.6942   68.8237   84.9132 H   0  0  0  0  0  0  0  0  0  0  0  0
   96.2817   71.3390   84.5509 H   0  0  0  0  0  0  0  0  0  0  0  0
   98.3435   72.5230   83.6853 H   0  0  0  0  0  0  0  0  0  0  0  0
  1  2  2  0  0  0  0
  2  3  1  0  0  0  0
  3  4  2  0  0  0  0
  4  5  1  0  0  0  0
  4 20  1  0  0  0  0
  5  6  2  0  0  0  0
  5 21  1  0  0  0  0
  6  7  1  0  0  0  0
  6 22  1  0  0  0  0
  7  8  2  0  0  0  0
  7 23  1  0  0  0  0
  8  9  1  0  0  0  0
  8  3  1  0  0  0  0
  9 10  1  0  0  0  0
  9 13  1  0  0  0  0
 10 11  2  0  0  0  0
 10 12  1  0  0  0  0
 12 14  1  0  0  0  0
 12  2  1  0  0  0  0
 14 15  1  0  0  0  0
 14 24  1  0  0  0  0
 14 25  1  0  0  0  0
 15 16  2  0  0  0  0
 16 17  1  0  0  0  0
 16 26  1  0  0  0  0
 17 18  2  0  0  0  0
 17 27  1  0  0  0  0
 18 19  1  0  0  0  0
 18 28  1  0  0  0  0
 19 15  1  0  0  0  0
M  END
>  <minimizedAffinity>
-5.74099

$$$$
