L3:Q96LB1:145185
     RDKit          3D

 28 30  0  0  0  0  0  0  0  0999 V2000
   -0.1432    0.1471   -2.1407 O   0  0  0  0  0  0  0  0  0  0  0  0
    0.3068   -0.2606   -1.0708 C   0  0  0  0  0  0  0  0  0  0  0  0
    1.6566    0.1742   -0.6695 C   0  0  0  0  0  0  0  0  0  0  0  0
    2.3998    1.0574   -1.4605 C   0  0  0  0  0  0  0  0  0  0  0  0
    3.6754    1.4482   -1.0509 C   0  0  0  0  0  0  0  0  0  0  0  0
    4.2047    0.9570    0.1435 C   0  0  0  0  0  0  0  0  0  0  0  0
    3.4608    0.0746    0.9302 C   0  0  0  0  0  0  0  0  0  0  0  0
    2.1857   -0.3120    0.5163 C   0  0  0  0  0  0  0  0  0  0  0  0
    1.4402   -1.1944    1.2912 N   0  0  0  0  0  0  0  0  0  0  0  0
    0.1796   -1.6240    0.9726 C   0  0  0  0  0  0  0  0  0  0  0  0
   -0.5064   -2.7115    2.0510 S   0  0  0  0  0  0  0  0  0  0  0  0
   -0.3799   -1.1234   -0.2022 N   0  0  0  0  0  0  0  0  0  0  0  0
   -1.7383   -1.4894   -0.6287 C   0  0  0  0  0  0  0  0  0  0  0  0
   -2.7414   -0.5056   -0.0798 C   0  0  0  0  0  0  0  0  0  0  0  0
   -2.9034    0.8301   -0.4017 C   0  0  0  0  0  0  0  0  0  0  0  0
   -3.9718    1.4410    0.3153 C   0  0  0  0  0  0  0  0  0  0  0  0
   -4.6045    0.5505    1.1517 C   0  0  0  0  0  0  0  0  0  0  0  0
   -3.9179   -1.0112    1.0627 S   0  0  0  0  0  0  0  0  0  0  0  0
    1.9888    1.4406   -2.3921 H   0  0  0  0  0  0  0  0  0  0  0  0
    4.2558    2.1348   -1.6631 H   0  0  0  0  0  0  0  0  0  0  0  0
    5.1991    1.2623    0.4614 H   0  0  0  0  0  0  0  0  0  0  0  0
    3.8864   -0.3000    1.8572 H   0  0  0  0  0  0  0  0  0  0  0  0
    1.8321   -1.5572    2.1535 H   0  0  0  0  0  0  0  0  0  0  0  0
   -1.8042   -1.4807   -1.7237 H   0  0  0  0  0  0  0  0  0  0  0  0
   -1.9726   -2.5145   -0.3251 H   0  0  0  0  0  0  0  0  0  0  0  0
   -2.2813    1.3486   -1.1228 H   0  0  0  0  0  0  0  0  0  0  0  0
   -4.2635    2.4795    0.2177 H   0  0  0  0  0  0  0  0  0  0  0  0
   -5.4434    0.7386    1.8074 H   0  0  0  0  0  0  0  0  0  0  0  0
  1  2  2  0
  2  3  1  0
  3  4  2  0
  4  5  1  0
  5  6  2  0
  6  7  1  0
  7  8  2  0
  8  9  1  0
  9 10  1  0
 10 11  2  0
 10 12  1  0
 12 13  1  0
 13 14  1  0
 14 15  2  0
 15 16  1  0
 16 17  2  0
 17 18  1  0
 12  2  1  0
 18 14  1  0
  8  3  1  0
  4 19  1  0
  5 20  1  0
  6 21  1  0
  7 22  1  0
  9 23  1  0
 13 24  1  0
 13 25  1  0
 15 26  1  0
 16 27  1  0
 17 28  1  0
M  END
>  <mol_id>  (1) 
145185

>  <source_index>  (1) 
9

>  <layer>  (1) 
L3

>  <uniprot>  (1) 
Q96LB1

>  <paff>  (1) 
6.2889999999999997

>  <smiles>  (1) 
O=c1c2ccccc2[nH]c(=S)n1Cc1cccs1

$$$$
