L3:Q96LB1:38418


 38 42  0  0  0  0  0  0  0  0999 V2000
  104.6747   67.8998   83.6080 N   0  0  0  0  0  0  0  0  0  0  0  0
  103.5119   68.4153   84.3934 C   0  0  0  0  0  0  0  0  0  0  0  0
  102.6026   67.3070   83.7776 C   0  0  0  0  0  0  0  0  0  0  0  0
  103.7092   67.2291   82.6857 C   0  0  0  0  0  0  0  0  0  0  0  0
  101.1555   67.7616   83.3607 C   0  0  0  0  0  0  0  0  0  0  0  0
  100.6694   67.8103   82.0556 C   0  0  0  0  0  0  0  0  0  0  0  0
   99.3584   68.2153   81.8279 C   0  0  0  0  0  0  0  0  0  0  0  0
   98.5441   68.5671   82.9071 C   0  0  0  0  0  0  0  0  0  0  0  0
   97.2129   68.9830   82.7273 C   0  0  0  0  0  0  0  0  0  0  0  0
   96.4294   69.3260   83.8270 C   0  0  0  0  0  0  0  0  0  0  0  0
   96.9717   69.2548   85.1049 C   0  0  0  0  0  0  0  0  0  0  0  0
   98.2961   68.8406   85.2771 C   0  0  0  0  0  0  0  0  0  0  0  0
   99.0989   68.4932   84.1988 C   0  0  0  0  0  0  0  0  0  0  0  0
  100.3684   68.0986   84.4149 N   0  0  0  0  0  0  0  0  0  0  0  0
  107.1922   67.9813   83.8340 N   0  0  0  0  0  0  0  0  0  0  0  0
  105.9631   68.8258   83.0891 S   0  0  0  0  0  0  0  0  0  0  0  0
  105.9011   70.1311   83.6920 O   0  0  0  0  0  0  0  0  0  0  0  0
  106.1410   68.6229   81.6744 O   0  0  0  0  0  0  0  0  0  0  0  0
  107.3565   67.1235   83.3077 H   0  0  0  0  0  0  0  0  0  0  0  0
  108.0294   68.5637   83.8474 H   0  0  0  0  0  0  0  0  0  0  0  0
  102.5586   66.0497   84.6690 C   0  0  0  0  0  0  0  0  0  0  0  0
  101.4181   65.1829   84.3639 N   0  0  0  0  0  0  0  0  0  0  0  0
  101.0568   65.2566   83.4175 H   0  0  0  0  0  0  0  0  0  0  0  0
  100.4986   64.7238   85.3063 C   0  0  0  0  0  0  0  0  0  0  0  0
  100.9043   64.2557   86.5578 C   0  0  0  0  0  0  0  0  0  0  0  0
   99.9637   63.7796   87.4681 C   0  0  0  0  0  0  0  0  0  0  0  0
   98.6368   63.7479   87.1786 N   0  0  0  0  0  0  0  0  0  0  0  0
   98.2288   64.1603   85.9729 C   0  0  0  0  0  0  0  0  0  0  0  0
   96.8700   64.0899   85.6945 C   0  0  0  0  0  0  0  0  0  0  0  0
   96.3478   64.4789   84.4596 C   0  0  0  0  0  0  0  0  0  0  0  0
   97.2073   64.9448   83.4779 C   0  0  0  0  0  0  0  0  0  0  0  0
   96.5878   65.4176   81.9451 Cl  0  0  0  0  0  0  0  0  0  0  0  0
   98.5747   65.0294   83.7302 C   0  0  0  0  0  0  0  0  0  0  0  0
   99.1145   64.6498   84.9850 C   0  0  0  0  0  0  0  0  0  0  0  0
  100.4425   63.3162   88.8367 C   0  0  0  0  0  0  0  0  0  0  0  0
   99.7618   62.2480   89.3397 F   0  0  0  0  0  0  0  0  0  0  0  0
  100.3493   64.2981   89.7805 F   0  0  0  0  0  0  0  0  0  0  0  0
  101.7577   62.9438   88.8320 F   0  0  0  0  0  0  0  0  0  0  0  0
 15 16  1  0  0  0
 16 17  2  0  0  0
 16 18  2  0  0  0
 16  1  1  0  0  0
  1  2  1  0  0  0
  2  3  1  0  0  0
  3 21  1  0  0  0
 21 22  1  0  0  0
 22 24  1  0  0  0
 24 25  2  0  0  0
 25 26  1  0  0  0
 26 35  1  0  0  0
 35 36  1  0  0  0
 35 37  1  0  0  0
 35 38  1  0  0  0
 26 27  2  0  0  0
 27 28  1  0  0  0
 28 29  2  0  0  0
 29 30  1  0  0  0
 30 31  2  0  0  0
 31 32  1  0  0  0
 31 33  1  0  0  0
 33 34  2  0  0  0
  3  5  1  0  0  0
  5  6  2  0  0  0
  6  7  1  0  0  0
  7  8  2  0  0  0
  8  9  1  0  0  0
  9 10  2  0  0  0
 10 11  1  0  0  0
 11 12  2  0  0  0
 12 13  1  0  0  0
 13 14  2  0  0  0
  3  4  1  0  0  0
  4  1  1  0  0  0
 34 24  1  0  0  0
 14  5  1  0  0  0
 34 28  1  0  0  0
 13  8  1  0  0  0
 15 19  1  0  0  0
 15 20  1  0  0  0
 22 23  1  0  0  0
M  END
> <minimizedAffinity>
-7.87148

$$$$
