L3:Q96LB1:39087


 34 38  0  0  0  0  0  0  0  0999 V2000
   97.1808   63.4179   83.8002 C   0  0  0  0  0  0  0  0  0  0  0  0
   98.0154   62.5707   83.4978 O   0  0  0  0  0  0  0  0  0  0  0  0
   97.0048   63.9751   85.0548 N   0  0  0  0  0  0  0  0  0  0  0  0
   96.2886   64.6616   85.2227 H   0  0  0  0  0  0  0  0  0  0  0  0
   97.7940   63.6497   86.1221 C   0  0  0  0  0  0  0  0  0  0  0  0
   97.6814   62.6674   86.9717 N   0  0  0  0  0  0  0  0  0  0  0  0
   98.7161   62.7178   87.8876 C   0  0  0  0  0  0  0  0  0  0  0  0
   98.9131   61.8102   88.9516 C   0  0  0  0  0  0  0  0  0  0  0  0
  100.0077   62.0207   89.7686 C   0  0  0  0  0  0  0  0  0  0  0  0
  100.8805   63.0631   89.5712 C   0  0  0  0  0  0  0  0  0  0  0  0
  100.7322   63.9776   88.5450 C   0  0  0  0  0  0  0  0  0  0  0  0
   99.6213   63.7770   87.7042 C   0  0  0  0  0  0  0  0  0  0  0  0
   99.1174   64.7024   86.3369 S   0  0  0  0  0  0  0  0  0  0  0  0
  101.8846   63.0815   90.4908 O   0  0  0  0  0  0  0  0  0  0  0  0
  101.5303   61.9339   91.2760 C   0  0  0  0  0  0  0  0  0  0  0  0
  101.3476   62.3310   92.5590 F   0  0  0  0  0  0  0  0  0  0  0  0
  102.5682   61.0627   91.2582 F   0  0  0  0  0  0  0  0  0  0  0  0
  100.3498   61.2495   90.8367 O   0  0  0  0  0  0  0  0  0  0  0  0
   95.3698   62.8254   82.2141 C   0  0  0  0  0  0  0  0  0  0  0  0
   96.1870   64.0055   82.7578 C   0  0  0  0  0  0  0  0  0  0  0  0
   96.9210   64.7438   81.6948 N   0  0  0  0  0  0  0  0  0  0  0  0
   96.1460   65.0093   80.4728 C   0  0  0  0  0  0  0  0  0  0  0  0
   95.1071   66.1198   80.6395 C   0  0  0  0  0  0  0  0  0  0  0  0
   95.7677   67.4037   81.1278 C   0  0  0  0  0  0  0  0  0  0  0  0
   96.5719   67.8603   80.1249 F   0  0  0  0  0  0  0  0  0  0  0  0
   96.6042   67.1487   82.3916 C   0  0  0  0  0  0  0  0  0  0  0  0
   97.5863   65.9847   82.1386 C   0  0  0  0  0  0  0  0  0  0  0  0
   97.3031   68.3981   82.9081 C   0  0  0  0  0  0  0  0  0  0  0  0
   96.6406   69.3341   83.7114 C   0  0  0  0  0  0  0  0  0  0  0  0
   97.3101   70.4724   84.1649 C   0  0  0  0  0  0  0  0  0  0  0  0
   98.6313   70.7090   83.8400 N   0  0  0  0  0  0  0  0  0  0  0  0
   99.2322   71.7435   84.2567 O   0  0  0  0  0  0  0  0  0  0  0  0
   99.2856   69.7844   83.0473 C   0  0  0  0  0  0  0  0  0  0  0  0
   98.6431   68.6365   82.5793 C   0  0  0  0  0  0  0  0  0  0  0  0
 19 20  1  0  0  0
 20  1  1  0  0  0
  1  2  2  0  0  0
  1  3  1  0  0  0
  3  5  1  0  0  0
  5  6  2  0  0  0
  6  7  1  0  0  0
  7  8  2  0  0  0
  8  9  1  0  0  0
  9 10  2  0  0  0
 10 11  1  0  0  0
 11 12  2  0  0  0
 12 13  1  0  0  0
 10 14  1  0  0  0
 14 15  1  0  0  0
 15 16  1  0  0  0
 15 17  1  0  0  0
 15 18  1  0  0  0
 20 21  1  0  0  0
 21 22  1  0  0  0
 22 23  1  0  0  0
 23 24  1  0  0  0
 24 25  1  0  0  0
 24 26  1  0  0  0
 26 28  1  0  0  0
 28 29  2  0  0  0
 29 30  1  0  0  0
 30 31  2  0  0  0
 31 32  1  0  0  0
 31 33  1  0  0  0
 33 34  2  0  0  0
 26 27  1  0  0  0
 13  5  1  0  0  0
 27 21  1  0  0  0
 12  7  1  0  0  0
 34 28  1  0  0  0
 18  9  1  0  0  0
  3  4  1  0  0  0
M  CHG 1  31   1
M  CHG 1  32  -1
M  END
> <minimizedAffinity>
-7.39896

$$$$
