L3:Q96LB1:39087
 OpenBabel09212617463D

 52 56  0  0  0  0  0  0  0  0999 V2000
   97.1808   63.4179   83.8002 C   0  0  0  0  0  0  0  0  0  0  0  0
   98.0154   62.5707   83.4978 O   0  0  0  0  0  0  0  0  0  0  0  0
   97.0048   63.9751   85.0548 N   0  0  0  0  0  0  0  0  0  0  0  0
   96.2886   64.6616   85.2227 H   0  0  0  0  0  0  0  0  0  0  0  0
   97.7940   63.6497   86.1221 C   0  0  0  0  0  0  0  0  0  0  0  0
   97.6814   62.6674   86.9717 N   0  0  0  0  0  0  0  0  0  0  0  0
   98.7161   62.7178   87.8876 C   0  0  0  0  0  0  0  0  0  0  0  0
   98.9131   61.8102   88.9516 C   0  0  0  0  0  0  0  0  0  0  0  0
  100.0077   62.0207   89.7686 C   0  0  0  0  0  0  0  0  0  0  0  0
  100.8805   63.0631   89.5712 C   0  0  0  0  0  0  0  0  0  0  0  0
  100.7322   63.9776   88.5450 C   0  0  0  0  0  0  0  0  0  0  0  0
   99.6213   63.7770   87.7042 C   0  0  0  0  0  0  0  0  0  0  0  0
   99.1174   64.7024   86.3369 S   0  0  0  0  0  0  0  0  0  0  0  0
  101.8846   63.0815   90.4908 O   0  0  0  0  0  0  0  0  0  0  0  0
  101.5303   61.9339   91.2760 C   0  0  0  0  0  0  0  0  0  0  0  0
  101.3476   62.3310   92.5590 F   0  0  0  0  0  0  0  0  0  0  0  0
  102.5682   61.0627   91.2582 F   0  0  0  0  0  0  0  0  0  0  0  0
  100.3498   61.2495   90.8367 O   0  0  0  0  0  0  0  0  0  0  0  0
   95.3698   62.8254   82.2141 C   0  0  0  0  0  0  0  0  0  0  0  0
   96.1870   64.0055   82.7578 C   0  0  2  0  0  0  0  0  0  0  0  0
   96.9210   64.7438   81.6948 N   0  0  0  0  0  0  0  0  0  0  0  0
   96.1460   65.0093   80.4728 C   0  0  0  0  0  0  0  0  0  0  0  0
   95.1071   66.1198   80.6395 C   0  0  0  0  0  0  0  0  0  0  0  0
   95.7677   67.4037   81.1278 C   0  0  2  0  0  0  0  0  0  0  0  0
   96.5719   67.8603   80.1249 F   0  0  0  0  0  0  0  0  0  0  0  0
   96.6042   67.1487   82.3916 C   0  0  1  0  0  0  0  0  0  0  0  0
   97.5863   65.9847   82.1386 C   0  0  0  0  0  0  0  0  0  0  0  0
   97.3031   68.3981   82.9081 C   0  0  0  0  0  0  0  0  0  0  0  0
   96.6406   69.3341   83.7114 C   0  0  0  0  0  0  0  0  0  0  0  0
   97.3101   70.4724   84.1649 C   0  0  0  0  0  0  0  0  0  0  0  0
   98.6313   70.7090   83.8400 N   0  3  0  0  0  0  0  0  0  0  0  0
   99.2322   71.7435   84.2567 O   0  5  0  0  0  0  0  0  0  0  0  0
   99.2856   69.7844   83.0473 C   0  0  0  0  0  0  0  0  0  0  0  0
   98.6431   68.6365   82.5793 C   0  0  0  0  0  0  0  0  0  0  0  0
   98.2663   61.0223   89.1124 H   0  0  0  0  0  0  0  0  0  0  0  0
  101.3935   64.7573   88.4045 H   0  0  0  0  0  0  0  0  0  0  0  0
   94.8674   62.3369   83.0227 H   0  0  0  0  0  0  0  0  0  0  0  0
   96.0244   62.1314   81.7296 H   0  0  0  0  0  0  0  0  0  0  0  0
   94.6479   63.1853   81.5110 H   0  0  0  0  0  0  0  0  0  0  0  0
   95.5256   64.7227   83.1972 H   0  0  0  0  0  0  0  0  0  0  0  0
   95.6388   64.1102   80.1912 H   0  0  0  0  0  0  0  0  0  0  0  0
   96.8385   65.3352   79.7250 H   0  0  0  0  0  0  0  0  0  0  0  0
   94.3720   65.8095   81.3524 H   0  0  0  0  0  0  0  0  0  0  0  0
   94.6475   66.3073   79.6916 H   0  0  0  0  0  0  0  0  0  0  0  0
   95.0178   68.1249   81.3775 H   0  0  0  0  0  0  0  0  0  0  0  0
   95.9350   66.8659   83.1771 H   0  0  0  0  0  0  0  0  0  0  0  0
   98.1127   65.7811   83.0476 H   0  0  0  0  0  0  0  0  0  0  0  0
   98.2433   66.2905   81.3513 H   0  0  0  0  0  0  0  0  0  0  0  0
   95.6530   69.1820   83.9695 H   0  0  0  0  0  0  0  0  0  0  0  0
   96.8064   71.1520   84.7560 H   0  0  0  0  0  0  0  0  0  0  0  0
  100.2731   69.9466   82.7953 H   0  0  0  0  0  0  0  0  0  0  0  0
   99.1567   67.9627   81.9901 H   0  0  0  0  0  0  0  0  0  0  0  0
  1  2  2  0  0  0  0
  1  3  1  0  0  0  0
  3  5  1  0  0  0  0
  3  4  1  0  0  0  0
  5  6  2  0  0  0  0
  6  7  1  0  0  0  0
  7  8  2  0  0  0  0
  8  9  1  0  0  0  0
  8 35  1  0  0  0  0
  9 10  2  0  0  0  0
 10 11  1  0  0  0  0
 10 14  1  0  0  0  0
 11 12  2  0  0  0  0
 11 36  1  0  0  0  0
 12 13  1  0  0  0  0
 12  7  1  0  0  0  0
 13  5  1  0  0  0  0
 14 15  1  0  0  0  0
 15 16  1  0  0  0  0
 15 17  1  0  0  0  0
 15 18  1  0  0  0  0
 18  9  1  0  0  0  0
 19 20  1  0  0  0  0
 19 37  1  0  0  0  0
 19 38  1  0  0  0  0
 19 39  1  0  0  0  0
 20  1  1  0  0  0  0
 20 21  1  0  0  0  0
 20 40  1  1  0  0  0
 21 22  1  0  0  0  0
 22 23  1  0  0  0  0
 22 41  1  0  0  0  0
 22 42  1  0  0  0  0
 23 24  1  0  0  0  0
 23 43  1  0  0  0  0
 23 44  1  0  0  0  0
 24 25  1  0  0  0  0
 24 26  1  0  0  0  0
 24 45  1  1  0  0  0
 26 28  1  0  0  0  0
 26 27  1  0  0  0  0
 26 46  1  1  0  0  0
 27 21  1  0  0  0  0
 27 47  1  0  0  0  0
 27 48  1  0  0  0  0
 28 29  2  0  0  0  0
 29 30  1  0  0  0  0
 29 49  1  0  0  0  0
 30 31  2  0  0  0  0
 30 50  1  0  0  0  0
 31 32  1  0  0  0  0
 31 33  1  0  0  0  0
 33 34  2  0  0  0  0
 33 51  1  0  0  0  0
 34 28  1  0  0  0  0
 34 52  1  0  0  0  0
M  CHG  2  31   1  32  -1
M  END
>  <minimizedAffinity>
-7.39896

$$$$
