L3:Q96LB1:43063
 OpenBabel09212617463D

 42 45  0  0  0  0  0  0  0  0999 V2000
   97.9577   65.7863   84.1603 C   0  0  0  0  0  0  0  0  0  0  0  0
   98.7390   65.1092   83.5011 O   0  0  0  0  0  0  0  0  0  0  0  0
   97.6410   65.6202   85.4924 N   0  0  0  0  0  0  0  0  0  0  0  0
   97.0261   66.3037   85.9153 H   0  0  0  0  0  0  0  0  0  0  0  0
   98.1704   64.6413   86.2775 C   0  0  0  0  0  0  0  0  0  0  0  0
   99.3610   64.5569   86.8044 N   0  0  0  0  0  0  0  0  0  0  0  0
   99.4671   63.3845   87.5323 C   0  0  0  0  0  0  0  0  0  0  0  0
  100.6126   62.9613   88.2416 C   0  0  0  0  0  0  0  0  0  0  0  0
  100.5311   61.7562   88.9126 C   0  0  0  0  0  0  0  0  0  0  0  0
   99.3950   60.9865   88.9038 C   0  0  0  0  0  0  0  0  0  0  0  0
   98.2486   61.3551   88.2260 C   0  0  0  0  0  0  0  0  0  0  0  0
   98.3144   62.5804   87.5369 C   0  0  0  0  0  0  0  0  0  0  0  0
   97.0968   63.3565   86.5921 S   0  0  0  0  0  0  0  0  0  0  0  0
   99.5383   59.8431   89.6294 O   0  0  0  0  0  0  0  0  0  0  0  0
  100.8962   59.9827   90.0963 C   0  0  0  0  0  0  0  0  0  0  0  0
  101.5323   61.1950   89.6444 O   0  0  0  0  0  0  0  0  0  0  0  0
   97.2215   66.9150   82.0011 C   0  0  0  0  0  0  0  0  0  0  0  0
   97.1322   66.9410   83.5292 C   0  0  2  0  0  0  0  0  0  0  0  0
   97.5037   68.2378   84.1710 N   0  0  0  0  0  0  0  0  0  0  0  0
   98.9009   68.6522   83.9477 C   0  0  0  0  0  0  0  0  0  0  0  0
   99.0327   69.8533   83.0240 C   0  0  0  0  0  0  0  0  0  0  0  0
   98.2551   71.0292   83.5850 C   0  0  0  0  0  0  0  0  0  0  0  0
   99.0659   71.7726   84.3836 F   0  0  0  0  0  0  0  0  0  0  0  0
   97.8989   71.8415   82.5539 F   0  0  0  0  0  0  0  0  0  0  0  0
   97.0175   70.6442   84.3745 C   0  0  0  0  0  0  0  0  0  0  0  0
   96.5086   69.2887   83.9082 C   0  0  0  0  0  0  0  0  0  0  0  0
  101.4746   63.5285   88.2581 H   0  0  0  0  0  0  0  0  0  0  0  0
   97.3988   60.7695   88.2252 H   0  0  0  0  0  0  0  0  0  0  0  0
  101.4647   59.1483   89.7420 H   0  0  0  0  0  0  0  0  0  0  0  0
  100.8616   60.0221   91.1650 H   0  0  0  0  0  0  0  0  0  0  0  0
   96.9366   65.9476   81.6436 H   0  0  0  0  0  0  0  0  0  0  0  0
   98.2262   67.1253   81.6989 H   0  0  0  0  0  0  0  0  0  0  0  0
   96.5641   67.6540   81.5928 H   0  0  0  0  0  0  0  0  0  0  0  0
   96.0900   66.8070   83.7309 H   0  0  0  0  0  0  0  0  0  0  0  0
   99.4335   67.8312   83.5151 H   0  0  0  0  0  0  0  0  0  0  0  0
   99.3021   68.9379   84.8976 H   0  0  0  0  0  0  0  0  0  0  0  0
   98.6463   69.6015   82.0585 H   0  0  0  0  0  0  0  0  0  0  0  0
  100.0653   70.1221   82.9436 H   0  0  0  0  0  0  0  0  0  0  0  0
   96.2562   71.3806   84.2227 H   0  0  0  0  0  0  0  0  0  0  0  0
   97.2649   70.5897   85.4141 H   0  0  0  0  0  0  0  0  0  0  0  0
   96.3120   69.3305   82.8573 H   0  0  0  0  0  0  0  0  0  0  0  0
   95.6135   69.0552   84.4459 H   0  0  0  0  0  0  0  0  0  0  0  0
  1  2  2  0  0  0  0
  1  3  1  0  0  0  0
  3  5  1  0  0  0  0
  3  4  1  0  0  0  0
  5  6  2  0  0  0  0
  6  7  1  0  0  0  0
  7  8  2  0  0  0  0
  8  9  1  0  0  0  0
  8 27  1  0  0  0  0
  9 10  2  0  0  0  0
 10 11  1  0  0  0  0
 10 14  1  0  0  0  0
 11 12  2  0  0  0  0
 11 28  1  0  0  0  0
 12 13  1  0  0  0  0
 12  7  1  0  0  0  0
 13  5  1  0  0  0  0
 14 15  1  0  0  0  0
 15 16  1  0  0  0  0
 15 29  1  0  0  0  0
 15 30  1  0  0  0  0
 16  9  1  0  0  0  0
 17 18  1  0  0  0  0
 17 31  1  0  0  0  0
 17 32  1  0  0  0  0
 17 33  1  0  0  0  0
 18  1  1  0  0  0  0
 18 19  1  0  0  0  0
 18 34  1  1  0  0  0
 19 20  1  0  0  0  0
 20 21  1  0  0  0  0
 20 35  1  0  0  0  0
 20 36  1  0  0  0  0
 21 22  1  0  0  0  0
 21 37  1  0  0  0  0
 21 38  1  0  0  0  0
 22 23  1  0  0  0  0
 22 24  1  0  0  0  0
 22 25  1  0  0  0  0
 25 26  1  0  0  0  0
 25 39  1  0  0  0  0
 25 40  1  0  0  0  0
 26 19  1  0  0  0  0
 26 41  1  0  0  0  0
 26 42  1  0  0  0  0
M  END
>  <minimizedAffinity>
-6.21606

$$$$
