L3:Q96LB1:78428
     RDKit          3D

 27 29  0  0  0  0  0  0  0  0999 V2000
   -0.7163   -0.1384   -2.1139 O   0  0  0  0  0  0  0  0  0  0  0  0
    0.0110   -0.3208   -1.1387 C   0  0  0  0  0  0  0  0  0  0  0  0
    1.3000    0.3909   -1.0722 C   0  0  0  0  0  0  0  0  0  0  0  0
    1.6836    1.2904   -2.0729 C   0  0  0  0  0  0  0  0  0  0  0  0
    2.9128    1.9449   -1.9812 C   0  0  0  0  0  0  0  0  0  0  0  0
    3.7534    1.7000   -0.8941 C   0  0  0  0  0  0  0  0  0  0  0  0
    3.3677    0.8014    0.1034 C   0  0  0  0  0  0  0  0  0  0  0  0
    2.1377    0.1497    0.0076 C   0  0  0  0  0  0  0  0  0  0  0  0
    1.7469   -0.7480    0.9975 N   0  0  0  0  0  0  0  0  0  0  0  0
    0.5544   -1.4213    0.9949 C   0  0  0  0  0  0  0  0  0  0  0  0
    0.2910   -2.4560    2.2915 S   0  0  0  0  0  0  0  0  0  0  0  0
   -0.2969   -1.1886   -0.0822 N   0  0  0  0  0  0  0  0  0  0  0  0
   -1.6279   -1.8017   -0.1572 C   0  0  0  0  0  0  0  0  0  0  0  0
   -2.6507   -0.9242    0.5224 C   0  0  0  0  0  0  0  0  0  0  0  0
   -2.3937    0.1694    1.2165 N   0  0  0  0  0  0  0  0  0  0  0  0
   -3.5698    0.7092    1.6950 C   0  0  0  0  0  0  0  0  0  0  0  0
   -4.7169    0.0215    1.3680 C   0  0  0  0  0  0  0  0  0  0  0  0
   -4.3192   -1.3529    0.4270 S   0  0  0  0  0  0  0  0  0  0  0  0
    1.0278    1.4828   -2.9193 H   0  0  0  0  0  0  0  0  0  0  0  0
    3.2134    2.6459   -2.7563 H   0  0  0  0  0  0  0  0  0  0  0  0
    4.7105    2.2119   -0.8235 H   0  0  0  0  0  0  0  0  0  0  0  0
    4.0319    0.6223    0.9443 H   0  0  0  0  0  0  0  0  0  0  0  0
    2.3575   -0.9184    1.7886 H   0  0  0  0  0  0  0  0  0  0  0  0
   -1.9117   -1.9483   -1.2062 H   0  0  0  0  0  0  0  0  0  0  0  0
   -1.6238   -2.7927    0.3068 H   0  0  0  0  0  0  0  0  0  0  0  0
   -3.5336    1.6168    2.2852 H   0  0  0  0  0  0  0  0  0  0  0  0
   -5.7388    0.2542    1.6296 H   0  0  0  0  0  0  0  0  0  0  0  0
  1  2  2  0
  2  3  1  0
  3  4  2  0
  4  5  1  0
  5  6  2  0
  6  7  1  0
  7  8  2  0
  8  9  1  0
  9 10  1  0
 10 11  2  0
 10 12  1  0
 12 13  1  0
 13 14  1  0
 14 15  2  0
 15 16  1  0
 16 17  2  0
 17 18  1  0
 12  2  1  0
 18 14  1  0
  8  3  1  0
  4 19  1  0
  5 20  1  0
  6 21  1  0
  7 22  1  0
  9 23  1  0
 13 24  1  0
 13 25  1  0
 16 26  1  0
 17 27  1  0
M  END
>  <mol_id>  (1) 
78428

>  <source_index>  (1) 
4

>  <layer>  (1) 
L3

>  <uniprot>  (1) 
Q96LB1

>  <paff>  (1) 
7.4949000000000003

>  <smiles>  (1) 
O=c1c2ccccc2[nH]c(=S)n1Cc1nccs1

$$$$
