L3:Q96LB1:82343
     RDKit          3D

 52 56  0  0  0  0  0  0  0  0999 V2000
    0.3881   -4.6635    0.1446 C   0  0  0  0  0  0  0  0  0  0  0  0
    0.4243   -3.1819   -0.2426 C   0  0  1  0  0  0  0  0  0  0  0  0
   -0.8098   -2.4442    0.3402 C   0  0  0  0  0  0  0  0  0  0  0  0
   -1.2734   -2.7309    1.4402 O   0  0  0  0  0  0  0  0  0  0  0  0
   -1.2744   -1.4588   -0.5081 N   0  0  0  0  0  0  0  0  0  0  0  0
   -2.3167   -0.5957   -0.2934 C   0  0  0  0  0  0  0  0  0  0  0  0
   -2.6301    0.2998   -1.1977 N   0  0  0  0  0  0  0  0  0  0  0  0
   -3.7061    1.0546   -0.7595 C   0  0  0  0  0  0  0  0  0  0  0  0
   -4.3139    2.1099   -1.4753 C   0  0  0  0  0  0  0  0  0  0  0  0
   -5.3816    2.7493   -0.8736 C   0  0  0  0  0  0  0  0  0  0  0  0
   -5.8483    2.3907    0.3676 C   0  0  0  0  0  0  0  0  0  0  0  0
   -5.2876    1.3665    1.1070 C   0  0  0  0  0  0  0  0  0  0  0  0
   -4.1992    0.7052    0.5074 C   0  0  0  0  0  0  0  0  0  0  0  0
   -3.2593   -0.6013    1.1188 S   0  0  0  0  0  0  0  0  0  0  0  0
   -6.9047    3.1518    0.7657 O   0  0  0  0  0  0  0  0  0  0  0  0
   -7.0358    4.0182   -0.3700 C   0  0  0  0  0  0  0  0  0  0  0  0
   -6.9075    5.3006    0.0487 F   0  0  0  0  0  0  0  0  0  0  0  0
   -8.2828    3.8739   -0.8807 F   0  0  0  0  0  0  0  0  0  0  0  0
   -6.0837    3.7816   -1.4162 O   0  0  0  0  0  0  0  0  0  0  0  0
    1.7050   -2.5385    0.1435 N   0  0  0  0  0  0  0  0  0  0  0  0
    2.0355   -2.6364    1.5739 C   0  0  0  0  0  0  0  0  0  0  0  0
    2.9910   -1.5430    2.0724 C   0  0  0  0  0  0  0  0  0  0  0  0
    4.0429   -1.1901    1.0273 C   0  0  0  0  0  0  0  0  0  0  0  0
    3.4006   -0.8012   -0.3214 C   0  0  2  0  0  0  0  0  0  0  0  0
    3.5910    0.6706   -0.6625 C   0  0  0  0  0  0  0  0  0  0  0  0
    3.1389    1.6879    0.1862 C   0  0  0  0  0  0  0  0  0  0  0  0
    3.3249    3.0262   -0.1643 C   0  0  0  0  0  0  0  0  0  0  0  0
    3.9508    3.3843   -1.3433 N   0  0  0  0  0  4  0  0  0  0  0  0
    4.1103    4.6037   -1.6505 O   0  0  0  0  0  1  0  0  0  0  0  0
    4.3958    2.3787   -2.1803 C   0  0  0  0  0  0  0  0  0  0  0  0
    4.2241    1.0316   -1.8576 C   0  0  0  0  0  0  0  0  0  0  0  0
    1.9047   -1.1947   -0.3971 C   0  0  0  0  0  0  0  0  0  0  0  0
    0.3921   -4.8141    1.2294 H   0  0  0  0  0  0  0  0  0  0  0  0
   -0.5249   -5.1324   -0.2397 H   0  0  0  0  0  0  0  0  0  0  0  0
    1.2435   -5.2000   -0.2799 H   0  0  0  0  0  0  0  0  0  0  0  0
    0.3530   -3.1560   -1.3383 H   0  0  0  0  0  0  0  0  0  0  0  0
   -0.8210   -1.3127   -1.3988 H   0  0  0  0  0  0  0  0  0  0  0  0
   -3.9515    2.3991   -2.4546 H   0  0  0  0  0  0  0  0  0  0  0  0
   -5.6604    1.0881    2.0859 H   0  0  0  0  0  0  0  0  0  0  0  0
    2.5062   -3.6118    1.7461 H   0  0  0  0  0  0  0  0  0  0  0  0
    1.1448   -2.5963    2.2095 H   0  0  0  0  0  0  0  0  0  0  0  0
    2.4163   -0.6450    2.3300 H   0  0  0  0  0  0  0  0  0  0  0  0
    3.4796   -1.8770    2.9950 H   0  0  0  0  0  0  0  0  0  0  0  0
    4.7097   -0.4085    1.4099 H   0  0  0  0  0  0  0  0  0  0  0  0
    4.6754   -2.0744    0.8699 H   0  0  0  0  0  0  0  0  0  0  0  0
    3.9297   -1.3874   -1.0874 H   0  0  0  0  0  0  0  0  0  0  0  0
    2.6414    1.4581    1.1250 H   0  0  0  0  0  0  0  0  0  0  0  0
    3.0104    3.8718    0.4281 H   0  0  0  0  0  0  0  0  0  0  0  0
    4.8724    2.7460   -3.0762 H   0  0  0  0  0  0  0  0  0  0  0  0
    4.5921    0.2754   -2.5475 H   0  0  0  0  0  0  0  0  0  0  0  0
    1.6045   -1.1588   -1.4526 H   0  0  0  0  0  0  0  0  0  0  0  0
    1.2738   -0.4691    0.1320 H   0  0  0  0  0  0  0  0  0  0  0  0
  1  2  1  0
  2  3  1  0
  3  4  2  0
  3  5  1  0
  5  6  1  0
  6  7  2  0
  7  8  1  0
  8  9  2  0
  9 10  1  0
 10 11  2  0
 11 12  1  0
 12 13  2  0
 13 14  1  0
 11 15  1  0
 15 16  1  0
 16 17  1  0
 16 18  1  0
 16 19  1  0
  2 20  1  0
 20 21  1  0
 21 22  1  0
 22 23  1  0
 23 24  1  0
 24 25  1  0
 25 26  2  0
 26 27  1  0
 27 28  2  0
 28 29  1  0
 28 30  1  0
 30 31  2  0
 24 32  1  0
 14  6  1  0
 32 20  1  0
 13  8  1  0
 31 25  1  0
 19 10  1  0
  1 33  1  0
  1 34  1  0
  1 35  1  0
  2 36  1  6
  5 37  1  0
  9 38  1  0
 12 39  1  0
 21 40  1  0
 21 41  1  0
 22 42  1  0
 22 43  1  0
 23 44  1  0
 23 45  1  0
 24 46  1  6
 26 47  1  0
 27 48  1  0
 30 49  1  0
 31 50  1  0
 32 51  1  0
 32 52  1  0
M  CHG  2  28   1  29  -1
M  END
>  <mol_id>  (1) 
82343

>  <source_index>  (1) 
5

>  <layer>  (1) 
L3

>  <uniprot>  (1) 
Q96LB1

>  <paff>  (1) 
6.6536

>  <smiles>  (1) 
FC1(OC=2C(=CC3=C(N=C(S3)NC([C@H](C)N3C[C@H](CCC3)C3=CC=[N+](C=C3)[O-])=O)C2)O1)F

$$$$
