L2:P08254:6098
     RDKit          3D

 49 52  0  0  0  0  0  0  0  0999 V2000
   18.8020  -12.6838   -9.8968 C   0  0  0  0  0  0  0  0  0  0  0  0
   17.8516  -13.5169   -9.2984 C   0  0  0  0  0  0  0  0  0  0  0  0
   18.2128  -14.3762   -8.2530 C   0  0  0  0  0  0  0  0  0  0  0  0
   19.5288  -14.4033   -7.7922 C   0  0  0  0  0  0  0  0  0  0  0  0
   20.4742  -13.5617   -8.3824 C   0  0  0  0  0  0  0  0  0  0  0  0
   20.1158  -12.7038   -9.4260 C   0  0  0  0  0  0  0  0  0  0  0  0
   18.3053  -11.5996  -11.2223 S   0  0  0  0  0  0  0  0  0  0  0  0
   18.7089   -9.1931   -9.8183 C   0  0  0  0  0  0  0  0  0  0  0  0
   19.4683   -8.0303   -9.5811 C   0  0  0  0  0  0  0  0  0  0  0  0
   20.6005   -7.7835  -10.3413 C   0  0  0  0  0  0  0  0  0  0  0  0
   21.0353   -8.6040  -11.3135 N   0  0  0  0  0  0  0  0  0  0  0  0
   20.3112   -9.7290  -11.5217 C   0  0  0  0  0  0  0  0  0  0  0  0
   19.1621  -10.0846  -10.8098 C   0  0  0  0  0  0  0  0  0  0  0  0
   15.6302   -7.2370   -7.0317 O   0  0  0  0  0  0  0  0  0  0  0  0
   16.3873   -8.0881   -7.4599 C   0  0  0  0  0  0  0  0  0  0  0  0
   17.1189   -8.9537   -6.7226 N   0  0  0  0  0  0  0  0  0  0  0  0
   17.7982   -9.8213   -7.5237 C   0  0  0  0  0  0  0  0  0  0  0  0
   18.5211  -10.7192   -7.1185 O   0  0  0  0  0  0  0  0  0  0  0  0
   17.4816   -9.4801   -8.9860 C   0  0  1  0  0  0  0  0  0  0  0  0
   16.6304   -8.3282   -8.7895 N   0  0  0  0  0  0  0  0  0  0  0  0
   17.1189   -8.9807   -5.7175 H   0  0  0  0  0  0  0  0  0  0  0  0
   16.0960   -7.8639   -9.5116 H   0  0  0  0  0  0  0  0  0  0  0  0
   20.0157  -15.1882   -6.7853 O   0  0  0  0  0  0  0  0  0  0  0  0
   19.8509  -16.5971   -6.9197 C   0  0  0  0  0  0  0  0  0  0  0  0
   21.1849  -17.2513   -6.6554 C   0  0  0  0  0  0  0  0  0  0  0  0
   21.4588  -18.5354   -7.1438 C   0  0  0  0  0  0  0  0  0  0  0  0
   22.6963  -19.1332   -6.9054 C   0  0  0  0  0  0  0  0  0  0  0  0
   23.6777  -18.4492   -6.1885 C   0  0  0  0  0  0  0  0  0  0  0  0
   23.4356  -17.1536   -5.7155 C   0  0  0  0  0  0  0  0  0  0  0  0
   22.1835  -16.5654   -5.9474 C   0  0  0  0  0  0  0  0  0  0  0  0
   24.4859  -16.4207   -4.9255 C   0  0  0  0  0  0  0  0  0  0  0  0
   24.8969  -15.2448   -5.6104 O   0  0  0  0  0  0  0  0  0  0  0  0
   24.3481  -15.1600   -6.4087 H   0  0  0  0  0  0  0  0  0  0  0  0
   16.8746  -13.4984   -9.6303 H   0  0  0  0  0  0  0  0  0  0  0  0
   17.5038  -14.9905   -7.8229 H   0  0  0  0  0  0  0  0  0  0  0  0
   21.4491  -13.5734   -8.0439 H   0  0  0  0  0  0  0  0  0  0  0  0
   20.8240  -12.0839   -9.8493 H   0  0  0  0  0  0  0  0  0  0  0  0
   19.1829   -7.3657   -8.8450 H   0  0  0  0  0  0  0  0  0  0  0  0
   21.1387   -6.9238  -10.1509 H   0  0  0  0  0  0  0  0  0  0  0  0
   20.6320  -10.3726  -12.2620 H   0  0  0  0  0  0  0  0  0  0  0  0
   17.0343  -10.2751   -9.5453 H   0  0  0  0  0  0  0  0  0  0  0  0
   19.5220  -16.8311   -7.9106 H   0  0  0  0  0  0  0  0  0  0  0  0
   19.1188  -16.9531   -6.2253 H   0  0  0  0  0  0  0  0  0  0  0  0
   20.7401  -19.0425   -7.6836 H   0  0  0  0  0  0  0  0  0  0  0  0
   22.8860  -20.0835   -7.2602 H   0  0  0  0  0  0  0  0  0  0  0  0
   24.5876  -18.9005   -6.0055 H   0  0  0  0  0  0  0  0  0  0  0  0
   21.9941  -15.6151   -5.5924 H   0  0  0  0  0  0  0  0  0  0  0  0
   25.3320  -17.0608   -4.7867 H   0  0  0  0  0  0  0  0  0  0  0  0
   24.0734  -16.1420   -3.9783 H   0  0  0  0  0  0  0  0  0  0  0  0
  1  2  2  0
  2  3  1  0
  2 34  1  0
  3  4  2  0
  3 35  1  0
  4 23  1  0
  4  5  1  0
  5  6  2  0
  5 36  1  0
  6  1  1  0
  6 37  1  0
  7  1  1  0
  8  9  2  0
  9 10  1  0
  9 38  1  0
 10 11  2  0
 10 39  1  0
 11 12  1  0
 12 13  2  0
 12 40  1  0
 13  7  1  0
 13  8  1  0
 14 15  2  0
 15 16  1  0
 16 17  1  0
 16 21  1  0
 17 18  2  0
 17 19  1  0
 19  8  1  0
 19 20  1  0
 19 41  1  6
 20 15  1  0
 20 22  1  0
 23 24  1  0
 24 25  1  0
 24 42  1  0
 24 43  1  0
 25 26  2  0
 26 27  1  0
 26 44  1  0
 27 28  2  0
 27 45  1  0
 28 29  1  0
 28 46  1  0
 29 31  1  0
 29 30  2  0
 30 25  1  0
 30 47  1  0
 31 32  1  0
 31 48  1  0
 31 49  1  0
 32 33  1  0
M  END
>  <minimizedAffinity>  (1) 
-8.96446

>  <mol_id>  (1) 
6098

>  <source_index>  (1) 
0

>  <layer>  (1) 
L2

>  <uniprot>  (1) 
P08254

>  <paff>  (1) 
6.2595999999999998

>  <smiles>  (1) 
O=C1NC(=O)C(c2ccncc2Sc2ccc(OCc3cccc(CO)c3)cc2)N1

$$$$
L2:P08254:37405
     RDKit          3D

 48 51  0  0  0  0  0  0  0  0999 V2000
   18.3545  -11.5889  -10.7971 S   0  0  0  0  0  0  0  0  0  0  0  0
   19.4842  -14.6954   -7.6043 C   0  0  0  0  0  0  0  0  0  0  0  0
   18.1719  -14.6226   -8.0703 C   0  0  0  0  0  0  0  0  0  0  0  0
   17.8229  -13.6776   -9.0429 C   0  0  0  0  0  0  0  0  0  0  0  0
   18.7827  -12.8029   -9.5631 C   0  0  0  0  0  0  0  0  0  0  0  0
   20.0934  -12.8702   -9.0871 C   0  0  0  0  0  0  0  0  0  0  0  0
   20.4392  -13.8134   -8.1154 C   0  0  0  0  0  0  0  0  0  0  0  0
   19.9588  -15.5645   -6.6621 O   0  0  0  0  0  0  0  0  0  0  0  0
   20.0901  -16.9322   -7.0464 C   0  0  0  0  0  0  0  0  0  0  0  0
   24.5976  -16.1668   -4.9298 C   0  0  0  0  0  0  0  0  0  0  0  0
   23.6335  -17.0425   -5.6727 C   0  0  0  0  0  0  0  0  0  0  0  0
   22.3589  -16.5723   -5.9827 C   0  0  0  0  0  0  0  0  0  0  0  0
   21.4723  -17.4055   -6.6725 C   0  0  0  0  0  0  0  0  0  0  0  0
   21.9059  -18.6851   -7.0274 C   0  0  0  0  0  0  0  0  0  0  0  0
   23.1887  -19.0716   -6.6790 C   0  0  0  0  0  0  0  0  0  0  0  0
   24.0587  -18.2802   -6.0161 N   0  0  0  0  0  0  0  0  0  0  0  0
   18.5847  -10.0972   -9.9241 C   0  0  0  0  0  0  0  0  0  0  0  0
   17.8817   -9.6867   -8.7825 C   0  0  0  0  0  0  0  0  0  0  0  0
   18.2975   -8.4986   -8.3444 N   0  0  0  0  0  0  0  0  0  0  0  0
   19.2811   -8.1571   -9.2023 N   0  0  0  0  0  0  0  0  0  0  0  0
   19.9671   -6.9048   -8.9740 C   0  0  0  0  0  0  0  0  0  0  0  0
   19.4824   -9.0837  -10.2032 C   0  0  0  0  0  0  0  0  0  0  0  0
   20.4893   -9.0013  -11.2880 C   0  0  1  0  0  0  0  0  0  0  0  0
   21.2770  -10.1958  -11.3951 N   0  0  0  0  0  0  0  0  0  0  0  0
   21.3062  -10.6590  -12.6904 C   0  0  0  0  0  0  0  0  0  0  0  0
   22.0140  -11.5632  -13.0924 O   0  0  0  0  0  0  0  0  0  0  0  0
   20.4215   -9.9459  -13.4273 N   0  0  0  0  0  0  0  0  0  0  0  0
   19.8694   -8.9434  -12.6862 C   0  0  0  0  0  0  0  0  0  0  0  0
   19.0477   -8.1383  -13.0976 O   0  0  0  0  0  0  0  0  0  0  0  0
   21.9854  -10.4829  -10.7321 H   0  0  0  0  0  0  0  0  0  0  0  0
   20.2440  -10.1027  -14.4048 H   0  0  0  0  0  0  0  0  0  0  0  0
   17.4566  -15.2664   -7.6977 H   0  0  0  0  0  0  0  0  0  0  0  0
   16.8486  -13.6259   -9.3791 H   0  0  0  0  0  0  0  0  0  0  0  0
   20.8083  -12.2223   -9.4534 H   0  0  0  0  0  0  0  0  0  0  0  0
   21.4112  -13.8587   -7.7716 H   0  0  0  0  0  0  0  0  0  0  0  0
   19.3569  -17.5219   -6.5370 H   0  0  0  0  0  0  0  0  0  0  0  0
   19.9422  -17.0317   -8.1015 H   0  0  0  0  0  0  0  0  0  0  0  0
   24.1362  -15.2239   -4.7225 H   0  0  0  0  0  0  0  0  0  0  0  0
   25.4721  -16.0124   -5.5268 H   0  0  0  0  0  0  0  0  0  0  0  0
   24.8726  -16.6392   -4.0099 H   0  0  0  0  0  0  0  0  0  0  0  0
   22.0724  -15.6201   -5.7064 H   0  0  0  0  0  0  0  0  0  0  0  0
   21.2826  -19.3292   -7.5389 H   0  0  0  0  0  0  0  0  0  0  0  0
   23.4982  -20.0205   -6.9414 H   0  0  0  0  0  0  0  0  0  0  0  0
   17.1326  -10.2380   -8.3354 H   0  0  0  0  0  0  0  0  0  0  0  0
   19.5616   -6.4291   -8.1055 H   0  0  0  0  0  0  0  0  0  0  0  0
   19.8374   -6.2671   -9.8233 H   0  0  0  0  0  0  0  0  0  0  0  0
   21.0100   -7.0915   -8.8242 H   0  0  0  0  0  0  0  0  0  0  0  0
   21.0417   -8.1239  -11.0235 H   0  0  0  0  0  0  0  0  0  0  0  0
  1 17  1  0
  2  3  2  0
  3  4  1  0
  3 32  1  0
  4  5  2  0
  4 33  1  0
  5  1  1  0
  5  6  1  0
  6  7  2  0
  6 34  1  0
  7  2  1  0
  7 35  1  0
  8  2  1  0
  9  8  1  0
  9 36  1  0
  9 37  1  0
 10 11  1  0
 10 38  1  0
 10 39  1  0
 10 40  1  0
 11 12  2  0
 12 13  1  0
 12 41  1  0
 13  9  1  0
 13 14  2  0
 14 15  1  0
 14 42  1  0
 15 16  2  0
 15 43  1  0
 16 11  1  0
 17 18  1  0
 18 19  2  0
 18 44  1  0
 19 20  1  0
 20 21  1  0
 20 22  1  0
 21 45  1  0
 21 46  1  0
 21 47  1  0
 22 23  1  0
 22 17  2  0
 23 24  1  0
 23 48  1  1
 24 25  1  0
 24 30  1  0
 25 26  2  0
 25 27  1  0
 27 28  1  0
 27 31  1  0
 28 29  2  0
 28 23  1  0
M  END
>  <minimizedAffinity>  (2) 
-8.59298

>  <mol_id>  (2) 
37405

>  <source_index>  (2) 
1

>  <layer>  (2) 
L2

>  <uniprot>  (2) 
P08254

>  <paff>  (2) 
6

>  <smiles>  (2) 
Cc1cc(COc2ccc(Sc3cnn(C)c3C3NC(=O)NC3=O)cc2)ccn1

$$$$
L2:P08254:39528
     RDKit          3D

 47 50  0  0  0  0  0  0  0  0999 V2000
   18.3574  -12.3197   -9.8876 S   0  0  0  0  0  0  0  0  0  0  0  0
   20.4366  -15.2990   -7.0693 C   0  0  0  0  0  0  0  0  0  0  0  0
   20.9275  -13.9994   -7.1864 C   0  0  0  0  0  0  0  0  0  0  0  0
   20.3016  -13.0852   -8.0432 C   0  0  0  0  0  0  0  0  0  0  0  0
   19.1845  -13.4620   -8.7951 C   0  0  0  0  0  0  0  0  0  0  0  0
   18.6879  -14.7609   -8.6665 C   0  0  0  0  0  0  0  0  0  0  0  0
   19.3140  -15.6722   -7.8118 C   0  0  0  0  0  0  0  0  0  0  0  0
   20.9484  -16.2868   -6.2759 O   0  0  0  0  0  0  0  0  0  0  0  0
   21.1586  -17.5616   -6.8780 C   0  0  0  0  0  0  0  0  0  0  0  0
   24.2525  -21.4747   -6.2417 C   0  0  0  0  0  0  0  0  0  0  0  0
   23.8359  -20.0729   -5.9122 C   0  0  0  0  0  0  0  0  0  0  0  0
   22.7253  -19.5095   -6.5350 C   0  0  0  0  0  0  0  0  0  0  0  0
   22.3515  -18.1997   -6.2144 C   0  0  0  0  0  0  0  0  0  0  0  0
   23.1221  -17.4982   -5.2866 C   0  0  0  0  0  0  0  0  0  0  0  0
   24.2105  -18.1358   -4.7147 C   0  0  0  0  0  0  0  0  0  0  0  0
   24.5785  -19.4027   -5.0011 N   0  0  0  0  0  0  0  0  0  0  0  0
   19.6687  -11.8548  -11.0181 C   0  0  0  0  0  0  0  0  0  0  0  0
   20.2923  -12.8823  -11.7388 C   0  0  0  0  0  0  0  0  0  0  0  0
   21.3007  -12.5628  -12.6270 C   0  0  0  0  0  0  0  0  0  0  0  0
   21.7187  -11.3048  -12.8490 N   0  0  0  0  0  0  0  0  0  0  0  0
   21.0968  -10.3265  -12.1560 C   0  0  0  0  0  0  0  0  0  0  0  0
   20.0638  -10.5234  -11.2365 C   0  0  0  0  0  0  0  0  0  0  0  0
   19.4874   -9.3031  -10.5758 C   0  0  1  0  0  0  0  0  0  0  0  0
   20.2538   -8.8017   -9.4659 N   0  0  0  0  0  0  0  0  0  0  0  0
   20.4714   -7.4480   -9.5701 C   0  0  0  0  0  0  0  0  0  0  0  0
   21.0294   -6.7628   -8.7333 O   0  0  0  0  0  0  0  0  0  0  0  0
   19.9581   -7.0157  -10.7471 N   0  0  0  0  0  0  0  0  0  0  0  0
   19.3966   -8.0459  -11.4409 C   0  0  0  0  0  0  0  0  0  0  0  0
   18.8818   -7.9560  -12.5456 O   0  0  0  0  0  0  0  0  0  0  0  0
   20.5262   -9.3179   -8.6402 H   0  0  0  0  0  0  0  0  0  0  0  0
   20.0348   -6.0699  -11.0788 H   0  0  0  0  0  0  0  0  0  0  0  0
   21.7541  -13.7103   -6.6404 H   0  0  0  0  0  0  0  0  0  0  0  0
   20.6686  -12.1238   -8.1204 H   0  0  0  0  0  0  0  0  0  0  0  0
   17.8556  -15.0488   -9.2045 H   0  0  0  0  0  0  0  0  0  0  0  0
   18.9428  -16.6315   -7.7283 H   0  0  0  0  0  0  0  0  0  0  0  0
   20.2938  -18.1760   -6.7384 H   0  0  0  0  0  0  0  0  0  0  0  0
   21.3321  -17.4523   -7.9282 H   0  0  0  0  0  0  0  0  0  0  0  0
   23.5838  -21.8836   -6.9701 H   0  0  0  0  0  0  0  0  0  0  0  0
   24.2235  -22.0731   -5.3552 H   0  0  0  0  0  0  0  0  0  0  0  0
   25.2476  -21.4679   -6.6350 H   0  0  0  0  0  0  0  0  0  0  0  0
   22.1836  -20.0521   -7.2257 H   0  0  0  0  0  0  0  0  0  0  0  0
   22.8864  -16.5262   -5.0322 H   0  0  0  0  0  0  0  0  0  0  0  0
   24.7743  -17.6107   -4.0281 H   0  0  0  0  0  0  0  0  0  0  0  0
   20.0021  -13.8640  -11.6077 H   0  0  0  0  0  0  0  0  0  0  0  0
   21.7564  -13.3291  -13.1467 H   0  0  0  0  0  0  0  0  0  0  0  0
   21.4096   -9.3566  -12.3187 H   0  0  0  0  0  0  0  0  0  0  0  0
   18.5304   -9.7037  -10.3141 H   0  0  0  0  0  0  0  0  0  0  0  0
  1 17  1  0
  2  3  2  0
  3  4  1  0
  3 32  1  0
  4  5  2  0
  4 33  1  0
  5  1  1  0
  5  6  1  0
  6  7  2  0
  6 34  1  0
  7  2  1  0
  7 35  1  0
  8  2  1  0
  9  8  1  0
  9 36  1  0
  9 37  1  0
 10 11  1  0
 10 38  1  0
 10 39  1  0
 10 40  1  0
 11 12  2  0
 12 13  1  0
 12 41  1  0
 13  9  1  0
 13 14  2  0
 14 15  1  0
 14 42  1  0
 15 16  2  0
 15 43  1  0
 16 11  1  0
 17 18  2  0
 18 19  1  0
 18 44  1  0
 19 20  2  0
 19 45  1  0
 20 21  1  0
 21 22  2  0
 21 46  1  0
 22 23  1  0
 22 17  1  0
 23 24  1  0
 23 47  1  1
 24 25  1  0
 24 30  1  0
 25 26  2  0
 25 27  1  0
 27 28  1  0
 27 31  1  0
 28 29  2  0
 28 23  1  0
M  END
>  <minimizedAffinity>  (3) 
-8.37047

>  <mol_id>  (3) 
39528

>  <source_index>  (3) 
2

>  <layer>  (3) 
L2

>  <uniprot>  (3) 
P08254

>  <paff>  (3) 
6

>  <smiles>  (3) 
Cc1cc(COc2ccc(Sc3ccncc3C3NC(=O)NC3=O)cc2)ccn1

$$$$
L2:P08254:45129
     RDKit          3D

 49 52  0  0  0  0  0  0  0  0999 V2000
   18.7667  -12.6907   -9.8648 C   0  0  0  0  0  0  0  0  0  0  0  0
   17.8764  -13.5425   -9.2084 C   0  0  0  0  0  0  0  0  0  0  0  0
   18.3265  -14.3657   -8.1725 C   0  0  0  0  0  0  0  0  0  0  0  0
   19.6682  -14.3580   -7.7852 C   0  0  0  0  0  0  0  0  0  0  0  0
   20.5620  -13.5164   -8.4467 C   0  0  0  0  0  0  0  0  0  0  0  0
   20.1122  -12.6896   -9.4839 C   0  0  0  0  0  0  0  0  0  0  0  0
   18.2363  -11.6286  -11.1961 S   0  0  0  0  0  0  0  0  0  0  0  0
   18.6487   -9.2073   -9.8341 C   0  0  0  0  0  0  0  0  0  0  0  0
   19.4143   -8.0563   -9.6403 C   0  0  0  0  0  0  0  0  0  0  0  0
   20.5167   -7.7321  -10.3516 N   0  0  0  0  0  0  0  0  0  0  0  0
   20.8989   -8.5970  -11.3079 C   0  0  0  0  0  0  0  0  0  0  0  0
   20.2294   -9.7740  -11.5813 C   0  0  0  0  0  0  0  0  0  0  0  0
   19.0965  -10.0980  -10.8256 C   0  0  0  0  0  0  0  0  0  0  0  0
   15.5986   -7.2631   -6.9864 O   0  0  0  0  0  0  0  0  0  0  0  0
   16.3765   -8.0893   -7.4258 C   0  0  0  0  0  0  0  0  0  0  0  0
   17.1481   -8.9296   -6.6998 N   0  0  0  0  0  0  0  0  0  0  0  0
   17.8142   -9.7990   -7.5094 C   0  0  0  0  0  0  0  0  0  0  0  0
   18.5555  -10.6871   -7.1163 O   0  0  0  0  0  0  0  0  0  0  0  0
   17.4521   -9.4793   -8.9651 C   0  0  1  0  0  0  0  0  0  0  0  0
   16.6011   -8.3287   -8.7598 N   0  0  0  0  0  0  0  0  0  0  0  0
   17.1664   -8.9528   -5.6945 H   0  0  0  0  0  0  0  0  0  0  0  0
   16.0204   -7.8958   -9.4666 H   0  0  0  0  0  0  0  0  0  0  0  0
   19.9701  -15.2117   -6.7616 O   0  0  0  0  0  0  0  0  0  0  0  0
   19.7904  -16.6073   -7.0007 C   0  0  0  0  0  0  0  0  0  0  0  0
   21.0891  -17.3289   -6.7211 C   0  0  0  0  0  0  0  0  0  0  0  0
   21.2663  -18.6592   -7.1237 C   0  0  0  0  0  0  0  0  0  0  0  0
   22.4531  -19.3339   -6.8353 C   0  0  0  0  0  0  0  0  0  0  0  0
   23.4747  -18.6881   -6.1400 C   0  0  0  0  0  0  0  0  0  0  0  0
   23.3224  -17.3576   -5.7315 C   0  0  0  0  0  0  0  0  0  0  0  0
   22.1211  -16.6915   -6.0135 C   0  0  0  0  0  0  0  0  0  0  0  0
   24.4139  -16.6717   -4.9552 C   0  0  0  0  0  0  0  0  0  0  0  0
   24.3352  -15.2619   -5.1207 O   0  0  0  0  0  0  0  0  0  0  0  0
   23.6708  -15.0821   -5.8078 H   0  0  0  0  0  0  0  0  0  0  0  0
   16.8835  -13.5644   -9.4888 H   0  0  0  0  0  0  0  0  0  0  0  0
   17.6595  -14.9866   -7.6881 H   0  0  0  0  0  0  0  0  0  0  0  0
   21.5565  -13.5028   -8.1715 H   0  0  0  0  0  0  0  0  0  0  0  0
   20.7806  -12.0732   -9.9721 H   0  0  0  0  0  0  0  0  0  0  0  0
   19.1161   -7.4040   -8.8982 H   0  0  0  0  0  0  0  0  0  0  0  0
   21.7361   -8.3695  -11.8667 H   0  0  0  0  0  0  0  0  0  0  0  0
   20.5588  -10.4036  -12.3298 H   0  0  0  0  0  0  0  0  0  0  0  0
   16.9893  -10.2815   -9.5010 H   0  0  0  0  0  0  0  0  0  0  0  0
   19.5069  -16.7624   -8.0207 H   0  0  0  0  0  0  0  0  0  0  0  0
   19.0222  -16.9866   -6.3597 H   0  0  0  0  0  0  0  0  0  0  0  0
   20.5135  -19.1435   -7.6373 H   0  0  0  0  0  0  0  0  0  0  0  0
   22.5750  -20.3132   -7.1373 H   0  0  0  0  0  0  0  0  0  0  0  0
   24.3483  -19.1938   -5.9252 H   0  0  0  0  0  0  0  0  0  0  0  0
   21.9934  -15.7178   -5.6961 H   0  0  0  0  0  0  0  0  0  0  0  0
   25.3645  -17.0146   -5.3070 H   0  0  0  0  0  0  0  0  0  0  0  0
   24.2976  -16.9043   -3.9173 H   0  0  0  0  0  0  0  0  0  0  0  0
  1  2  2  0
  2  3  1  0
  2 34  1  0
  3  4  2  0
  3 35  1  0
  4 23  1  0
  4  5  1  0
  5  6  2  0
  5 36  1  0
  6  1  1  0
  6 37  1  0
  7  1  1  0
  8  9  2  0
  9 10  1  0
  9 38  1  0
 10 11  2  0
 11 12  1  0
 11 39  1  0
 12 13  2  0
 12 40  1  0
 13  7  1  0
 13  8  1  0
 14 15  2  0
 15 16  1  0
 16 17  1  0
 16 21  1  0
 17 18  2  0
 17 19  1  0
 19  8  1  0
 19 20  1  0
 19 41  1  6
 20 15  1  0
 20 22  1  0
 23 24  1  0
 24 25  1  0
 24 42  1  0
 24 43  1  0
 25 26  2  0
 26 27  1  0
 26 44  1  0
 27 28  2  0
 27 45  1  0
 28 29  1  0
 28 46  1  0
 29 31  1  0
 29 30  2  0
 30 25  1  0
 30 47  1  0
 31 32  1  0
 31 48  1  0
 31 49  1  0
 32 33  1  0
M  END
>  <minimizedAffinity>  (4) 
-8.70635

>  <mol_id>  (4) 
45129

>  <source_index>  (4) 
3

>  <layer>  (4) 
L2

>  <uniprot>  (4) 
P08254

>  <paff>  (4) 
6

>  <smiles>  (4) 
O=C1NC(=O)C(c2cnccc2Sc2ccc(OCc3cccc(CO)c3)cc2)N1

$$$$
L2:P08254:92266
     RDKit          3D

 49 52  0  0  0  0  0  0  0  0999 V2000
   18.8678  -12.9221   -9.7459 C   0  0  0  0  0  0  0  0  0  0  0  0
   18.0756  -13.9227   -9.1800 C   0  0  0  0  0  0  0  0  0  0  0  0
   18.5781  -14.7124   -8.1421 C   0  0  0  0  0  0  0  0  0  0  0  0
   19.8723  -14.5145   -7.6562 C   0  0  0  0  0  0  0  0  0  0  0  0
   20.6724  -13.5307   -8.2354 C   0  0  0  0  0  0  0  0  0  0  0  0
   20.1716  -12.7391   -9.2763 C   0  0  0  0  0  0  0  0  0  0  0  0
   18.2645  -11.8998  -11.0764 S   0  0  0  0  0  0  0  0  0  0  0  0
   18.7049   -9.3897   -9.8807 C   0  0  0  0  0  0  0  0  0  0  0  0
   19.4783   -8.2199   -9.7466 C   0  0  0  0  0  0  0  0  0  0  0  0
   20.6066   -8.0496  -10.5330 C   0  0  0  0  0  0  0  0  0  0  0  0
   21.0246   -8.9529  -11.4367 N   0  0  0  0  0  0  0  0  0  0  0  0
   20.2875  -10.0835  -11.5451 C   0  0  0  0  0  0  0  0  0  0  0  0
   19.1406  -10.3657  -10.7978 C   0  0  0  0  0  0  0  0  0  0  0  0
   15.6934   -7.1795   -7.2134 O   0  0  0  0  0  0  0  0  0  0  0  0
   16.4289   -8.0745   -7.5864 C   0  0  0  0  0  0  0  0  0  0  0  0
   17.1504   -8.9004   -6.7954 N   0  0  0  0  0  0  0  0  0  0  0  0
   17.8066   -9.8348   -7.5385 C   0  0  0  0  0  0  0  0  0  0  0  0
   18.5179  -10.7144   -7.0764 O   0  0  0  0  0  0  0  0  0  0  0  0
   17.4815   -9.5927   -9.0185 C   0  0  1  0  0  0  0  0  0  0  0  0
   16.6546   -8.4130   -8.8975 N   0  0  0  0  0  0  0  0  0  0  0  0
   17.1607   -8.8551   -5.7910 H   0  0  0  0  0  0  0  0  0  0  0  0
   16.1238   -7.9897   -9.6469 H   0  0  0  0  0  0  0  0  0  0  0  0
   20.2402  -15.3622   -6.6486 O   0  0  0  0  0  0  0  0  0  0  0  0
   21.6226  -15.4068   -6.2721 C   0  0  0  0  0  0  0  0  0  0  0  0
   22.2446  -16.7895   -6.3941 C   0  0  0  0  0  0  0  0  0  0  0  0
   21.5793  -17.7949   -7.1194 C   0  0  0  0  0  0  0  0  0  0  0  0
   22.1118  -19.0792   -7.2270 C   0  0  0  0  0  0  0  0  0  0  0  0
   23.3129  -19.3871   -6.5997 C   0  0  0  0  0  0  0  0  0  0  0  0
   23.9791  -18.4124   -5.8584 C   0  0  0  0  0  0  0  0  0  0  0  0
   23.4569  -17.1119   -5.7394 C   0  0  0  0  0  0  0  0  0  0  0  0
   24.2069  -16.1048   -4.9028 C   0  0  0  0  0  0  0  0  0  0  0  0
   25.0153  -15.2810   -5.7313 O   0  0  0  0  0  0  0  0  0  0  0  0
   24.5201  -15.1334   -6.5564 H   0  0  0  0  0  0  0  0  0  0  0  0
   17.1171  -14.0796   -9.5287 H   0  0  0  0  0  0  0  0  0  0  0  0
   17.9859  -15.4503   -7.7300 H   0  0  0  0  0  0  0  0  0  0  0  0
   21.6362  -13.3854   -7.8962 H   0  0  0  0  0  0  0  0  0  0  0  0
   20.7707  -12.0138   -9.7007 H   0  0  0  0  0  0  0  0  0  0  0  0
   19.2060   -7.4934   -9.0661 H   0  0  0  0  0  0  0  0  0  0  0  0
   21.1553   -7.1830  -10.4188 H   0  0  0  0  0  0  0  0  0  0  0  0
   20.5958  -10.7901  -12.2312 H   0  0  0  0  0  0  0  0  0  0  0  0
   17.0136  -10.4170   -9.5149 H   0  0  0  0  0  0  0  0  0  0  0  0
   21.7061  -15.0873   -5.2543 H   0  0  0  0  0  0  0  0  0  0  0  0
   22.1513  -14.7653   -6.9458 H   0  0  0  0  0  0  0  0  0  0  0  0
   20.6815  -17.5781   -7.5798 H   0  0  0  0  0  0  0  0  0  0  0  0
   21.6142  -19.8005   -7.7721 H   0  0  0  0  0  0  0  0  0  0  0  0
   23.7110  -20.3356   -6.6824 H   0  0  0  0  0  0  0  0  0  0  0  0
   24.8680  -18.6484   -5.3903 H   0  0  0  0  0  0  0  0  0  0  0  0
   24.8300  -16.6212   -4.2028 H   0  0  0  0  0  0  0  0  0  0  0  0
   23.5022  -15.4906   -4.3821 H   0  0  0  0  0  0  0  0  0  0  0  0
  1  2  2  0
  2  3  1  0
  2 34  1  0
  3  4  2  0
  3 35  1  0
  4 23  1  0
  4  5  1  0
  5  6  2  0
  5 36  1  0
  6  1  1  0
  6 37  1  0
  7  1  1  0
  8  9  2  0
  9 10  1  0
  9 38  1  0
 10 11  2  0
 10 39  1  0
 11 12  1  0
 12 13  2  0
 12 40  1  0
 13  7  1  0
 13  8  1  0
 14 15  2  0
 15 16  1  0
 16 17  1  0
 16 21  1  0
 17 18  2  0
 17 19  1  0
 19  8  1  0
 19 20  1  0
 19 41  1  6
 20 15  1  0
 20 22  1  0
 23 24  1  0
 24 25  1  0
 24 42  1  0
 24 43  1  0
 25 26  2  0
 26 27  1  0
 26 44  1  0
 27 28  2  0
 27 45  1  0
 28 29  1  0
 28 46  1  0
 29 30  2  0
 29 47  1  0
 30 31  1  0
 30 25  1  0
 31 32  1  0
 31 48  1  0
 31 49  1  0
 32 33  1  0
M  END
>  <minimizedAffinity>  (5) 
-8.73232

>  <mol_id>  (5) 
92266

>  <source_index>  (5) 
4

>  <layer>  (5) 
L2

>  <uniprot>  (5) 
P08254

>  <paff>  (5) 
6.2595999999999998

>  <smiles>  (5) 
O=C1NC(=O)C(c2ccncc2Sc2ccc(OCc3ccccc3CO)cc2)N1

$$$$
L2:P08254:100282
     RDKit          3D

 54 57  0  0  0  0  0  0  0  0999 V2000
   19.7923  -10.3709  -11.0889 C   0  0  0  0  0  0  0  0  0  0  0  0
   20.8720  -10.1502  -11.9520 C   0  0  0  0  0  0  0  0  0  0  0  0
   21.5385  -11.1111  -12.6340 N   0  0  0  0  0  0  0  0  0  0  0  0
   21.1425  -12.3802  -12.4484 C   0  0  0  0  0  0  0  0  0  0  0  0
   20.1144  -12.7327  -11.5998 C   0  0  0  0  0  0  0  0  0  0  0  0
   19.4271  -11.7245  -10.9076 C   0  0  0  0  0  0  0  0  0  0  0  0
   19.1382   -9.1895  -10.3632 C   0  0  2  0  0  0  0  0  0  0  0  0
   19.6194   -7.9178  -10.8708 N   0  0  0  0  0  0  0  0  0  0  0  0
   20.4075   -7.2344   -9.9845 C   0  0  0  0  0  0  0  0  0  0  0  0
   20.9980   -6.1985  -10.2285 O   0  0  0  0  0  0  0  0  0  0  0  0
   20.4132   -7.9013   -8.8135 N   0  0  0  0  0  0  0  0  0  0  0  0
   19.6356   -9.0132   -8.8965 C   0  0  0  0  0  0  0  0  0  0  0  0
   19.3918   -9.7465   -7.9482 O   0  0  0  0  0  0  0  0  0  0  0  0
   19.5467   -7.6243  -11.8375 H   0  0  0  0  0  0  0  0  0  0  0  0
   20.8593   -7.5691   -7.9757 H   0  0  0  0  0  0  0  0  0  0  0  0
   16.8478   -8.1762   -9.7099 C   0  0  0  0  0  0  0  0  0  0  0  0
   17.6007   -9.3084  -10.4028 C   0  0  0  0  0  0  0  0  0  0  0  0
   18.1556  -12.2703   -9.7564 S   0  0  0  0  0  0  0  0  0  0  0  0
   19.0556  -13.4248   -8.7348 C   0  0  0  0  0  0  0  0  0  0  0  0
   18.6628  -14.7646   -8.7116 C   0  0  0  0  0  0  0  0  0  0  0  0
   19.3579  -15.6867   -7.9246 C   0  0  0  0  0  0  0  0  0  0  0  0
   20.4566  -15.2878   -7.1602 C   0  0  0  0  0  0  0  0  0  0  0  0
   20.8581  -13.9529   -7.1912 C   0  0  0  0  0  0  0  0  0  0  0  0
   20.1611  -13.0265   -7.9770 C   0  0  0  0  0  0  0  0  0  0  0  0
   21.0425  -16.2903   -6.4402 O   0  0  0  0  0  0  0  0  0  0  0  0
   21.4868  -17.4378   -7.1621 C   0  0  0  0  0  0  0  0  0  0  0  0
   22.5456  -18.1400   -6.3464 C   0  0  0  0  0  0  0  0  0  0  0  0
   23.1938  -17.4824   -5.2935 C   0  0  0  0  0  0  0  0  0  0  0  0
   24.1785  -18.1366   -4.5526 C   0  0  0  0  0  0  0  0  0  0  0  0
   24.5264  -19.4524   -4.8572 C   0  0  0  0  0  0  0  0  0  0  0  0
   23.8937  -20.1272   -5.9075 C   0  0  0  0  0  0  0  0  0  0  0  0
   24.2629  -21.5479   -6.2154 C   0  0  0  0  0  0  0  0  0  0  0  0
   22.9031  -19.4651   -6.6441 C   0  0  0  0  0  0  0  0  0  0  0  0
   21.1856   -9.1752  -12.0788 H   0  0  0  0  0  0  0  0  0  0  0  0
   21.6309  -13.1279  -12.9656 H   0  0  0  0  0  0  0  0  0  0  0  0
   19.8544  -13.7237  -11.4757 H   0  0  0  0  0  0  0  0  0  0  0  0
   15.7945   -8.3467   -9.7903 H   0  0  0  0  0  0  0  0  0  0  0  0
   17.0951   -7.2455  -10.1764 H   0  0  0  0  0  0  0  0  0  0  0  0
   17.1259   -8.1425   -8.6772 H   0  0  0  0  0  0  0  0  0  0  0  0
   17.2959   -9.3308  -11.4282 H   0  0  0  0  0  0  0  0  0  0  0  0
   17.3561  -10.2017   -9.8670 H   0  0  0  0  0  0  0  0  0  0  0  0
   17.8571  -15.0746   -9.2771 H   0  0  0  0  0  0  0  0  0  0  0  0
   19.0560  -16.6734   -7.9080 H   0  0  0  0  0  0  0  0  0  0  0  0
   21.6708  -13.6468   -6.6338 H   0  0  0  0  0  0  0  0  0  0  0  0
   20.4663  -12.0408   -7.9969 H   0  0  0  0  0  0  0  0  0  0  0  0
   21.8980  -17.1352   -8.1024 H   0  0  0  0  0  0  0  0  0  0  0  0
   20.6644  -18.0987   -7.3400 H   0  0  0  0  0  0  0  0  0  0  0  0
   22.9416  -16.5083   -5.0643 H   0  0  0  0  0  0  0  0  0  0  0  0
   24.6506  -17.6457   -3.7773 H   0  0  0  0  0  0  0  0  0  0  0  0
   25.2548  -19.9313   -4.3048 H   0  0  0  0  0  0  0  0  0  0  0  0
   25.0335  -21.8692   -5.5462 H   0  0  0  0  0  0  0  0  0  0  0  0
   24.6154  -21.6144   -7.2235 H   0  0  0  0  0  0  0  0  0  0  0  0
   23.4032  -22.1737   -6.0961 H   0  0  0  0  0  0  0  0  0  0  0  0
   22.4291  -19.9583   -7.4168 H   0  0  0  0  0  0  0  0  0  0  0  0
  1  2  2  0
  2  3  1  0
  2 34  1  0
  3  4  2  0
  4  5  1  0
  4 35  1  0
  5  6  2  0
  5 36  1  0
  6 18  1  0
  6  1  1  0
  7 17  1  1
  7  1  1  0
  7  8  1  0
  8  9  1  0
  8 14  1  0
  9 10  2  0
  9 11  1  0
 11 12  1  0
 11 15  1  0
 12 13  2  0
 12  7  1  0
 16 17  1  0
 16 37  1  0
 16 38  1  0
 16 39  1  0
 17 40  1  0
 17 41  1  0
 18 19  1  0
 19 20  2  0
 20 21  1  0
 20 42  1  0
 21 22  2  0
 21 43  1  0
 22 25  1  0
 22 23  1  0
 23 24  2  0
 23 44  1  0
 24 19  1  0
 24 45  1  0
 25 26  1  0
 26 27  1  0
 26 46  1  0
 26 47  1  0
 27 28  2  0
 28 29  1  0
 28 48  1  0
 29 30  2  0
 29 49  1  0
 30 31  1  0
 30 50  1  0
 31 32  1  0
 31 33  2  0
 32 51  1  0
 32 52  1  0
 32 53  1  0
 33 27  1  0
 33 54  1  0
M  END
>  <minimizedAffinity>  (6) 
-8.84211

>  <mol_id>  (6) 
100282

>  <source_index>  (6) 
5

>  <layer>  (6) 
L2

>  <uniprot>  (6) 
P08254

>  <paff>  (6) 
6.2595999999999998

>  <smiles>  (6) 
CCC1(c2cnccc2Sc2ccc(OCc3cccc(C)c3)cc2)NC(=O)NC1=O

$$$$
L2:P08254:106630
     RDKit          3D

 46 49  0  0  0  0  0  0  0  0999 V2000
   18.1078  -10.7952  -11.2053 S   0  0  0  0  0  0  0  0  0  0  0  0
   18.3614   -8.5401   -9.5484 C   0  0  0  0  0  0  0  0  0  0  0  0
   19.1160   -7.4471   -9.1187 C   0  0  0  0  0  0  0  0  0  0  0  0
   20.3593   -7.1459   -9.5551 N   0  0  0  0  0  0  0  0  0  0  0  0
   20.8942   -7.9660  -10.4778 C   0  0  0  0  0  0  0  0  0  0  0  0
   20.2398   -9.0724  -10.9842 C   0  0  0  0  0  0  0  0  0  0  0  0
   18.9458   -9.3574  -10.5320 C   0  0  0  0  0  0  0  0  0  0  0  0
   15.8294   -8.6075   -5.7003 O   0  0  0  0  0  0  0  0  0  0  0  0
   16.1247   -8.3939   -6.8619 C   0  0  0  0  0  0  0  0  0  0  0  0
   15.6936   -7.3631   -7.6245 N   0  0  0  0  0  0  0  0  0  0  0  0
   16.1351   -7.4903   -8.9073 C   0  0  0  0  0  0  0  0  0  0  0  0
   15.8708   -6.7145   -9.8140 O   0  0  0  0  0  0  0  0  0  0  0  0
   16.9781   -8.7677   -9.0042 C   0  0  2  0  0  0  0  0  0  0  0  0
   16.9563   -9.1825   -7.6190 N   0  0  0  0  0  0  0  0  0  0  0  0
   15.0723   -6.6421   -7.2999 H   0  0  0  0  0  0  0  0  0  0  0  0
   17.2765  -10.0766   -7.2701 H   0  0  0  0  0  0  0  0  0  0  0  0
   18.4634  -12.0387   -9.9764 C   0  0  0  0  0  0  0  0  0  0  0  0
   17.4453  -12.7821   -9.3766 C   0  0  0  0  0  0  0  0  0  0  0  0
   17.7550  -13.7417   -8.4087 C   0  0  0  0  0  0  0  0  0  0  0  0
   19.0792  -13.9738   -8.0305 C   0  0  0  0  0  0  0  0  0  0  0  0
   20.0950  -13.2164   -8.6117 C   0  0  0  0  0  0  0  0  0  0  0  0
   19.7872  -12.2528   -9.5801 C   0  0  0  0  0  0  0  0  0  0  0  0
   19.2403  -14.9311   -7.0684 O   0  0  0  0  0  0  0  0  0  0  0  0
   19.5915  -16.2544   -7.4836 C   0  0  0  0  0  0  0  0  0  0  0  0
   20.8332  -16.7960   -6.8091 C   0  0  0  0  0  0  0  0  0  0  0  0
   20.9468  -18.1734   -6.5601 C   0  0  0  0  0  0  0  0  0  0  0  0
   22.0715  -18.6891   -5.9102 C   0  0  0  0  0  0  0  0  0  0  0  0
   23.0925  -17.8354   -5.4920 C   0  0  0  0  0  0  0  0  0  0  0  0
   22.9753  -16.4689   -5.7246 C   0  0  0  0  0  0  0  0  0  0  0  0
   23.9453  -15.5957   -5.3251 O   0  0  0  0  0  0  0  0  0  0  0  0
   21.8579  -15.9452   -6.3693 C   0  0  0  0  0  0  0  0  0  0  0  0
   24.6577  -16.0949   -4.8924 H   0  0  0  0  0  0  0  0  0  0  0  0
   18.6928   -6.8221   -8.4150 H   0  0  0  0  0  0  0  0  0  0  0  0
   21.8432   -7.7577  -10.8256 H   0  0  0  0  0  0  0  0  0  0  0  0
   20.6968   -9.6782  -11.6836 H   0  0  0  0  0  0  0  0  0  0  0  0
   16.6068   -9.4970   -9.6935 H   0  0  0  0  0  0  0  0  0  0  0  0
   16.4625  -12.6229   -9.6483 H   0  0  0  0  0  0  0  0  0  0  0  0
   16.9962  -14.2851   -7.9683 H   0  0  0  0  0  0  0  0  0  0  0  0
   21.0758  -13.3661   -8.3277 H   0  0  0  0  0  0  0  0  0  0  0  0
   20.5445  -11.6954  -10.0053 H   0  0  0  0  0  0  0  0  0  0  0  0
   19.7591  -16.2432   -8.5403 H   0  0  0  0  0  0  0  0  0  0  0  0
   18.7806  -16.8944   -7.2047 H   0  0  0  0  0  0  0  0  0  0  0  0
   20.1926  -18.8109   -6.8599 H   0  0  0  0  0  0  0  0  0  0  0  0
   22.1469  -19.7040   -5.7392 H   0  0  0  0  0  0  0  0  0  0  0  0
   23.9259  -18.2136   -5.0151 H   0  0  0  0  0  0  0  0  0  0  0  0
   21.7834  -14.9276   -6.5241 H   0  0  0  0  0  0  0  0  0  0  0  0
  1 17  1  0
  2  3  2  0
  3  4  1  0
  3 33  1  0
  4  5  2  0
  5  6  1  0
  5 34  1  0
  6  7  2  0
  6 35  1  0
  7  1  1  0
  7  2  1  0
  8  9  2  0
  9 10  1  0
 10 11  1  0
 10 15  1  0
 11 12  2  0
 11 13  1  0
 13  2  1  0
 13 14  1  0
 13 36  1  6
 14  9  1  0
 14 16  1  0
 17 18  2  0
 18 19  1  0
 18 37  1  0
 19 20  2  0
 19 38  1  0
 20 23  1  0
 20 21  1  0
 21 22  2  0
 21 39  1  0
 22 17  1  0
 22 40  1  0
 23 24  1  0
 24 25  1  0
 24 41  1  0
 24 42  1  0
 25 26  2  0
 26 27  1  0
 26 43  1  0
 27 28  2  0
 27 44  1  0
 28 29  1  0
 28 45  1  0
 29 30  1  0
 29 31  2  0
 30 32  1  0
 31 25  1  0
 31 46  1  0
M  END
>  <minimizedAffinity>  (7) 
-8.63466

>  <mol_id>  (7) 
106630

>  <source_index>  (7) 
6

>  <layer>  (7) 
L2

>  <uniprot>  (7) 
P08254

>  <paff>  (7) 
6

>  <smiles>  (7) 
O=C1NC(=O)C(c2cnccc2Sc2ccc(OCc3cccc(O)c3)cc2)N1

$$$$
L2:P08254:116620
     RDKit          3D

 49 52  0  0  0  0  0  0  0  0999 V2000
   19.1086  -13.8167   -8.8929 C   0  0  0  0  0  0  0  0  0  0  0  0
   17.7623  -13.5080   -9.0832 C   0  0  0  0  0  0  0  0  0  0  0  0
   17.3990  -12.3610   -9.8003 C   0  0  0  0  0  0  0  0  0  0  0  0
   18.3748  -11.5088  -10.3269 C   0  0  0  0  0  0  0  0  0  0  0  0
   19.7221  -11.8270  -10.1446 C   0  0  0  0  0  0  0  0  0  0  0  0
   20.0830  -12.9723   -9.4294 C   0  0  0  0  0  0  0  0  0  0  0  0
   19.6017  -14.8983   -8.2189 O   0  0  0  0  0  0  0  0  0  0  0  0
   20.5006  -14.6411   -7.1424 C   0  0  0  0  0  0  0  0  0  0  0  0
   22.8499  -17.2270   -5.5926 C   0  0  0  0  0  0  0  0  0  0  0  0
   22.1712  -18.4186   -5.8759 C   0  0  0  0  0  0  0  0  0  0  0  0
   20.9644  -18.3832   -6.5756 C   0  0  0  0  0  0  0  0  0  0  0  0
   20.4296  -17.1616   -6.9882 C   0  0  0  0  0  0  0  0  0  0  0  0
   21.0883  -15.9581   -6.6970 C   0  0  0  0  0  0  0  0  0  0  0  0
   22.3019  -16.0013   -5.9950 C   0  0  0  0  0  0  0  0  0  0  0  0
   24.7875  -16.0133   -4.7419 N   0  0  0  0  0  0  0  0  0  0  0  0
   24.1371  -17.2115   -4.8499 C   0  0  0  0  0  0  0  0  0  0  0  0
   24.5871  -18.2198   -4.3204 O   0  0  0  0  0  0  0  0  0  0  0  0
   24.3066  -15.1366   -4.8841 H   0  0  0  0  0  0  0  0  0  0  0  0
   25.5839  -16.0060   -4.1170 H   0  0  0  0  0  0  0  0  0  0  0  0
   17.8620  -10.0660  -11.2424 S   0  0  0  0  0  0  0  0  0  0  0  0
   18.7332   -8.7449  -10.4000 C   0  0  0  0  0  0  0  0  0  0  0  0
   19.8882   -8.2399  -11.0134 C   0  0  0  0  0  0  0  0  0  0  0  0
   20.5934   -7.2295  -10.3884 C   0  0  0  0  0  0  0  0  0  0  0  0
   20.2361   -6.7015   -9.2051 N   0  0  0  0  0  0  0  0  0  0  0  0
   19.1264   -7.2075   -8.6241 C   0  0  0  0  0  0  0  0  0  0  0  0
   18.3349   -8.2300   -9.1539 C   0  0  0  0  0  0  0  0  0  0  0  0
   17.1430   -8.6655   -8.3492 C   0  0  2  0  0  0  0  0  0  0  0  0
   16.4065   -7.5937   -7.7327 N   0  0  0  0  0  0  0  0  0  0  0  0
   16.1718   -7.8412   -6.4002 C   0  0  0  0  0  0  0  0  0  0  0  0
   15.5100   -7.1341   -5.6628 O   0  0  0  0  0  0  0  0  0  0  0  0
   16.7915   -8.9967   -6.0578 N   0  0  0  0  0  0  0  0  0  0  0  0
   17.4361   -9.5389   -7.1292 C   0  0  0  0  0  0  0  0  0  0  0  0
   18.0975  -10.5663   -7.1095 O   0  0  0  0  0  0  0  0  0  0  0  0
   15.9943   -6.7988   -8.2024 H   0  0  0  0  0  0  0  0  0  0  0  0
   16.8104   -9.3687   -5.1242 H   0  0  0  0  0  0  0  0  0  0  0  0
   17.0323  -14.1256   -8.6951 H   0  0  0  0  0  0  0  0  0  0  0  0
   16.4004  -12.1424   -9.9416 H   0  0  0  0  0  0  0  0  0  0  0  0
   20.4534  -11.2149  -10.5390 H   0  0  0  0  0  0  0  0  0  0  0  0
   21.0815  -13.1967   -9.2962 H   0  0  0  0  0  0  0  0  0  0  0  0
   21.2819  -13.9878   -7.4706 H   0  0  0  0  0  0  0  0  0  0  0  0
   19.9831  -14.1730   -6.3313 H   0  0  0  0  0  0  0  0  0  0  0  0
   22.5631  -19.3221   -5.5675 H   0  0  0  0  0  0  0  0  0  0  0  0
   20.4664  -19.2617   -6.7884 H   0  0  0  0  0  0  0  0  0  0  0  0
   19.5409  -17.1438   -7.5126 H   0  0  0  0  0  0  0  0  0  0  0  0
   22.7957  -15.1228   -5.7728 H   0  0  0  0  0  0  0  0  0  0  0  0
   20.2073   -8.6176  -11.9192 H   0  0  0  0  0  0  0  0  0  0  0  0
   21.4377   -6.8613  -10.8539 H   0  0  0  0  0  0  0  0  0  0  0  0
   18.8405   -6.8071   -7.7169 H   0  0  0  0  0  0  0  0  0  0  0  0
   16.6139   -9.1835   -9.1217 H   0  0  0  0  0  0  0  0  0  0  0  0
  1  2  2  0
  2  3  1  0
  2 36  1  0
  3  4  2  0
  3 37  1  0
  4 20  1  0
  4  5  1  0
  5  6  2  0
  5 38  1  0
  6  1  1  0
  6 39  1  0
  7  1  1  0
  8  7  1  0
  8 40  1  0
  8 41  1  0
  9 10  2  0
 10 11  1  0
 10 42  1  0
 11 12  2  0
 11 43  1  0
 12 13  1  0
 12 44  1  0
 13  8  1  0
 13 14  2  0
 14  9  1  0
 14 45  1  0
 15 16  1  0
 15 18  1  0
 15 19  1  0
 16 17  2  0
 16  9  1  0
 20 21  1  0
 21 22  2  0
 22 23  1  0
 22 46  1  0
 23 24  2  0
 23 47  1  0
 24 25  1  0
 25 26  2  0
 25 48  1  0
 26 27  1  0
 26 21  1  0
 27 28  1  0
 27 49  1  6
 28 29  1  0
 28 34  1  0
 29 30  2  0
 29 31  1  0
 31 32  1  0
 31 35  1  0
 32 33  2  0
 32 27  1  0
M  END
>  <minimizedAffinity>  (8) 
-8.96369

>  <mol_id>  (8) 
116620

>  <source_index>  (8) 
7

>  <layer>  (8) 
L2

>  <uniprot>  (8) 
P08254

>  <paff>  (8) 
6

>  <smiles>  (8) 
NC(=O)c1cccc(COc2ccc(Sc3ccncc3C3NC(=O)NC3=O)cc2)c1

$$$$
L2:P08254:126317
     RDKit          3D

 45 48  0  0  0  0  0  0  0  0999 V2000
   20.7199  -15.1913   -7.1506 C   0  0  0  0  0  0  0  0  0  0  0  0
   20.8704  -13.8086   -7.2535 C   0  0  0  0  0  0  0  0  0  0  0  0
   19.9096  -13.0451   -7.9286 C   0  0  0  0  0  0  0  0  0  0  0  0
   18.7953  -13.6560   -8.5115 C   0  0  0  0  0  0  0  0  0  0  0  0
   18.6413  -15.0396   -8.3984 C   0  0  0  0  0  0  0  0  0  0  0  0
   19.6013  -15.7996   -7.7247 C   0  0  0  0  0  0  0  0  0  0  0  0
   21.5763  -16.0521   -6.5234 O   0  0  0  0  0  0  0  0  0  0  0  0
   21.4254  -17.4418   -6.8035 C   0  0  0  0  0  0  0  0  0  0  0  0
   24.2900  -21.5453   -6.3094 C   0  0  0  0  0  0  0  0  0  0  0  0
   23.9278  -20.1493   -5.8996 C   0  0  0  0  0  0  0  0  0  0  0  0
   22.8801  -19.4855   -6.5326 C   0  0  0  0  0  0  0  0  0  0  0  0
   22.5557  -18.1827   -6.1366 C   0  0  0  0  0  0  0  0  0  0  0  0
   23.3082  -17.5913   -5.1207 C   0  0  0  0  0  0  0  0  0  0  0  0
   24.3323  -18.3248   -4.5444 C   0  0  0  0  0  0  0  0  0  0  0  0
   24.6525  -19.5856   -4.9053 N   0  0  0  0  0  0  0  0  0  0  0  0
   17.5850  -12.6547   -9.3563 S   0  0  0  0  0  0  0  0  0  0  0  0
   18.2906  -11.0427   -9.2279 C   0  0  0  0  0  0  0  0  0  0  0  0
   18.1683  -10.2509   -8.0496 C   0  0  0  0  0  0  0  0  0  0  0  0
   18.8019   -9.0367   -8.1770 C   0  0  0  0  0  0  0  0  0  0  0  0
   19.5343   -8.8561   -9.7067 S   0  0  0  0  0  0  0  0  0  0  0  0
   18.9940  -10.4063  -10.2363 C   0  0  0  0  0  0  0  0  0  0  0  0
   19.3275  -10.9248  -11.6013 C   0  0  1  0  0  0  0  0  0  0  0  0
   19.5447   -9.8723  -12.5592 N   0  0  0  0  0  0  0  0  0  0  0  0
   20.8158   -9.9043  -13.0769 C   0  0  0  0  0  0  0  0  0  0  0  0
   21.2623   -9.1114  -13.8856 O   0  0  0  0  0  0  0  0  0  0  0  0
   21.4796  -10.9522  -12.5350 N   0  0  0  0  0  0  0  0  0  0  0  0
   20.7013  -11.6009  -11.6228 C   0  0  0  0  0  0  0  0  0  0  0  0
   21.0602  -12.5588  -10.9533 O   0  0  0  0  0  0  0  0  0  0  0  0
   18.8882   -9.1422  -12.7975 H   0  0  0  0  0  0  0  0  0  0  0  0
   22.4405  -11.1724  -12.7312 H   0  0  0  0  0  0  0  0  0  0  0  0
   21.6913  -13.3471   -6.8314 H   0  0  0  0  0  0  0  0  0  0  0  0
   20.0253  -12.0219   -7.9964 H   0  0  0  0  0  0  0  0  0  0  0  0
   17.8170  -15.5016   -8.8132 H   0  0  0  0  0  0  0  0  0  0  0  0
   19.4824  -16.8220   -7.6505 H   0  0  0  0  0  0  0  0  0  0  0  0
   20.4888  -17.7889   -6.4199 H   0  0  0  0  0  0  0  0  0  0  0  0
   21.4461  -17.6100   -7.8600 H   0  0  0  0  0  0  0  0  0  0  0  0
   23.6420  -21.8648   -7.0987 H   0  0  0  0  0  0  0  0  0  0  0  0
   24.1824  -22.2022   -5.4717 H   0  0  0  0  0  0  0  0  0  0  0  0
   25.3040  -21.5652   -6.6503 H   0  0  0  0  0  0  0  0  0  0  0  0
   22.3484  -19.9492   -7.2858 H   0  0  0  0  0  0  0  0  0  0  0  0
   23.1062  -16.6294   -4.8060 H   0  0  0  0  0  0  0  0  0  0  0  0
   24.8838  -17.8805   -3.7938 H   0  0  0  0  0  0  0  0  0  0  0  0
   17.6641  -10.5526   -7.2012 H   0  0  0  0  0  0  0  0  0  0  0  0
   18.8307   -8.3200   -7.4350 H   0  0  0  0  0  0  0  0  0  0  0  0
   18.5001  -11.5622  -11.8338 H   0  0  0  0  0  0  0  0  0  0  0  0
  1  2  2  0
  2  3  1  0
  2 31  1  0
  3  4  2  0
  3 32  1  0
  4 16  1  0
  4  5  1  0
  5  6  2  0
  5 33  1  0
  6  1  1  0
  6 34  1  0
  7  1  1  0
  8  7  1  0
  8 35  1  0
  8 36  1  0
  9 10  1  0
  9 37  1  0
  9 38  1  0
  9 39  1  0
 10 11  2  0
 11 12  1  0
 11 40  1  0
 12  8  1  0
 12 13  2  0
 13 14  1  0
 13 41  1  0
 14 15  2  0
 14 42  1  0
 15 10  1  0
 16 17  1  0
 17 18  1  0
 18 19  2  0
 18 43  1  0
 19 20  1  0
 19 44  1  0
 20 21  1  0
 21 22  1  0
 21 17  2  0
 22 23  1  0
 22 45  1  6
 23 24  1  0
 23 29  1  0
 24 25  2  0
 24 26  1  0
 26 27  1  0
 26 30  1  0
 27 28  2  0
 27 22  1  0
M  END
>  <minimizedAffinity>  (9) 
-8.52027

>  <mol_id>  (9) 
126317

>  <source_index>  (9) 
8

>  <layer>  (9) 
L2

>  <uniprot>  (9) 
P08254

>  <paff>  (9) 
6.2595999999999998

>  <smiles>  (9) 
Cc1cc(COc2ccc(Sc3ccsc3C3NC(=O)NC3=O)cc2)ccn1

$$$$
L2:P08254:140178
     RDKit          3D

 47 50  0  0  0  0  0  0  0  0999 V2000
   18.6610  -13.2756   -8.7825 C   0  0  0  0  0  0  0  0  0  0  0  0
   18.6008  -14.6644   -8.6329 C   0  0  0  0  0  0  0  0  0  0  0  0
   19.5904  -15.3492   -7.9164 C   0  0  0  0  0  0  0  0  0  0  0  0
   20.6478  -14.6475   -7.3378 C   0  0  0  0  0  0  0  0  0  0  0  0
   20.7030  -13.2590   -7.4798 C   0  0  0  0  0  0  0  0  0  0  0  0
   19.7147  -12.5740   -8.1921 C   0  0  0  0  0  0  0  0  0  0  0  0
   17.3769  -12.4359   -9.6921 S   0  0  0  0  0  0  0  0  0  0  0  0
   18.0798   -9.8433  -10.4639 C   0  0  0  0  0  0  0  0  0  0  0  0
   19.1834   -8.9843  -11.4735 S   0  0  0  0  0  0  0  0  0  0  0  0
   19.8892  -10.4229  -12.0583 C   0  0  0  0  0  0  0  0  0  0  0  0
   19.3165  -11.5418  -11.4998 C   0  0  0  0  0  0  0  0  0  0  0  0
   18.2869  -11.2080  -10.5733 C   0  0  0  0  0  0  0  0  0  0  0  0
   17.1668   -5.6532   -9.1520 O   0  0  0  0  0  0  0  0  0  0  0  0
   17.2285   -6.8637   -9.0386 C   0  0  0  0  0  0  0  0  0  0  0  0
   17.6681   -7.5429   -7.9532 N   0  0  0  0  0  0  0  0  0  0  0  0
   17.6702   -8.8855   -8.1894 C   0  0  0  0  0  0  0  0  0  0  0  0
   18.0628   -9.7325   -7.4001 O   0  0  0  0  0  0  0  0  0  0  0  0
   17.0986   -9.1247   -9.5898 C   0  0  1  0  0  0  0  0  0  0  0  0
   16.8668   -7.7667  -10.0073 N   0  0  0  0  0  0  0  0  0  0  0  0
   18.0221   -7.1056   -7.1201 H   0  0  0  0  0  0  0  0  0  0  0  0
   16.5590   -7.4725  -10.9234 H   0  0  0  0  0  0  0  0  0  0  0  0
   21.6779  -15.1877   -6.6194 O   0  0  0  0  0  0  0  0  0  0  0  0
   21.3519  -16.2226   -5.6921 C   0  0  0  0  0  0  0  0  0  0  0  0
   22.1623  -17.4489   -6.0534 C   0  0  0  0  0  0  0  0  0  0  0  0
   21.5442  -18.4763   -6.7893 C   0  0  0  0  0  0  0  0  0  0  0  0
   22.2425  -19.6343   -7.1305 C   0  0  0  0  0  0  0  0  0  0  0  0
   23.5662  -19.7883   -6.7348 C   0  0  0  0  0  0  0  0  0  0  0  0
   24.1936  -18.7830   -5.9999 C   0  0  0  0  0  0  0  0  0  0  0  0
   23.5112  -17.6019   -5.6584 C   0  0  0  0  0  0  0  0  0  0  0  0
   24.2406  -16.5621   -4.8419 C   0  0  0  0  0  0  0  0  0  0  0  0
   24.6680  -15.4874   -5.6640 O   0  0  0  0  0  0  0  0  0  0  0  0
   25.0017  -15.8836   -6.4917 H   0  0  0  0  0  0  0  0  0  0  0  0
   17.8193  -15.1902   -9.0547 H   0  0  0  0  0  0  0  0  0  0  0  0
   19.5371  -16.3750   -7.8164 H   0  0  0  0  0  0  0  0  0  0  0  0
   21.4822  -12.7331   -7.0540 H   0  0  0  0  0  0  0  0  0  0  0  0
   19.7636  -11.5471   -8.2821 H   0  0  0  0  0  0  0  0  0  0  0  0
   20.6552  -10.4505  -12.7493 H   0  0  0  0  0  0  0  0  0  0  0  0
   19.5991  -12.5084  -11.7251 H   0  0  0  0  0  0  0  0  0  0  0  0
   16.2287   -9.7463   -9.6308 H   0  0  0  0  0  0  0  0  0  0  0  0
   20.3075  -16.4474   -5.7517 H   0  0  0  0  0  0  0  0  0  0  0  0
   21.5764  -15.9104   -4.6936 H   0  0  0  0  0  0  0  0  0  0  0  0
   20.5598  -18.3716   -7.0809 H   0  0  0  0  0  0  0  0  0  0  0  0
   21.7770  -20.3762   -7.6763 H   0  0  0  0  0  0  0  0  0  0  0  0
   24.0838  -20.6454   -6.9846 H   0  0  0  0  0  0  0  0  0  0  0  0
   25.1738  -18.9077   -5.7021 H   0  0  0  0  0  0  0  0  0  0  0  0
   25.0946  -17.0130   -4.3812 H   0  0  0  0  0  0  0  0  0  0  0  0
   23.5744  -16.1809   -4.0964 H   0  0  0  0  0  0  0  0  0  0  0  0
  1  2  2  0
  2  3  1  0
  2 33  1  0
  3  4  2  0
  3 34  1  0
  4 22  1  0
  4  5  1  0
  5  6  2  0
  5 35  1  0
  6  1  1  0
  6 36  1  0
  7  1  1  0
  8  9  1  0
  9 10  1  0
 10 11  2  0
 10 37  1  0
 11 12  1  0
 11 38  1  0
 12  7  1  0
 12  8  2  0
 13 14  2  0
 14 15  1  0
 15 16  1  0
 15 20  1  0
 16 17  2  0
 16 18  1  0
 18  8  1  0
 18 19  1  0
 18 39  1  1
 19 14  1  0
 19 21  1  0
 22 23  1  0
 23 24  1  0
 23 40  1  0
 23 41  1  0
 24 25  2  0
 25 26  1  0
 25 42  1  0
 26 27  2  0
 26 43  1  0
 27 28  1  0
 27 44  1  0
 28 29  2  0
 28 45  1  0
 29 30  1  0
 29 24  1  0
 30 31  1  0
 30 46  1  0
 30 47  1  0
 31 32  1  0
M  END
>  <minimizedAffinity>  (10) 
-8.71069

>  <mol_id>  (10) 
140178

>  <source_index>  (10) 
9

>  <layer>  (10) 
L2

>  <uniprot>  (10) 
P08254

>  <paff>  (10) 
6

>  <smiles>  (10) 
O=C1NC(=O)C(c2sccc2Sc2ccc(OCc3ccccc3CO)cc2)N1

$$$$
