L3:A0A1D8PKB4:1740
     RDKit          3D

 37 40  0  0  0  0  0  0  0  0999 V2000
   21.8568  -21.8152  -17.6174 C   0  0  0  0  0  0  0  0  0  0  0  0
   22.4324  -20.7950  -16.6877 C   0  0  0  0  0  0  0  0  0  0  0  0
   23.7349  -21.0648  -16.0885 C   0  0  0  0  0  0  0  0  0  0  0  0
   24.3220  -20.1951  -15.2450 C   0  0  0  0  0  0  0  0  0  0  0  0
   23.6673  -18.9685  -14.9235 C   0  0  0  0  0  0  0  0  0  0  0  0
   23.9540  -17.8737  -14.1337 C   0  0  0  0  0  0  0  0  0  0  0  0
   22.8154  -17.0207  -14.2560 C   0  0  0  0  0  0  0  0  0  0  0  0
   21.8935  -17.5601  -15.0679 N   0  0  0  0  0  0  0  0  0  0  0  0
   22.4141  -18.7364  -15.4881 N   0  0  0  0  0  0  0  0  0  0  0  0
   21.8144  -19.6440  -16.3641 C   0  0  0  0  0  0  0  0  0  0  0  0
   22.5668  -15.7192  -13.6273 C   0  0  0  0  0  0  0  0  0  0  0  0
   21.3421  -15.4319  -13.0049 C   0  0  0  0  0  0  0  0  0  0  0  0
   21.1218  -14.1828  -12.4177 C   0  0  0  0  0  0  0  0  0  0  0  0
   22.1272  -13.2239  -12.4446 C   0  0  0  0  0  0  0  0  0  0  0  0
   21.9137  -12.0280  -11.8807 F   0  0  0  0  0  0  0  0  0  0  0  0
   23.3516  -13.4898  -13.0438 C   0  0  0  0  0  0  0  0  0  0  0  0
   23.5723  -14.7374  -13.6320 C   0  0  0  0  0  0  0  0  0  0  0  0
   25.1575  -17.7463  -13.3345 C   0  0  0  0  0  0  0  0  0  0  0  0
   26.4104  -17.7589  -13.9468 C   0  0  0  0  0  0  0  0  0  0  0  0
   27.5315  -17.6499  -13.1425 C   0  0  0  0  0  0  0  0  0  0  0  0
   27.4824  -17.5330  -11.7979 N   0  0  0  0  0  0  0  0  0  0  0  0
   26.2575  -17.5245  -11.2305 C   0  0  0  0  0  0  0  0  0  0  0  0
   25.0775  -17.6278  -11.9466 C   0  0  0  0  0  0  0  0  0  0  0  0
   22.5367  -22.6361  -17.7113 H   0  0  0  0  0  0  0  0  0  0  0  0
   21.6974  -21.3724  -18.5783 H   0  0  0  0  0  0  0  0  0  0  0  0
   20.9245  -22.1671  -17.2277 H   0  0  0  0  0  0  0  0  0  0  0  0
   24.2196  -21.9466  -16.3175 H   0  0  0  0  0  0  0  0  0  0  0  0
   25.2421  -20.4147  -14.8324 H   0  0  0  0  0  0  0  0  0  0  0  0
   20.8887  -19.4300  -16.7670 H   0  0  0  0  0  0  0  0  0  0  0  0
   20.5992  -16.1478  -12.9806 H   0  0  0  0  0  0  0  0  0  0  0  0
   20.2174  -13.9738  -11.9666 H   0  0  0  0  0  0  0  0  0  0  0  0
   24.0924  -12.7714  -13.0544 H   0  0  0  0  0  0  0  0  0  0  0  0
   24.4824  -14.9401  -14.0742 H   0  0  0  0  0  0  0  0  0  0  0  0
   26.4992  -17.8471  -14.9712 H   0  0  0  0  0  0  0  0  0  0  0  0
   28.4583  -17.6584  -13.5964 H   0  0  0  0  0  0  0  0  0  0  0  0
   26.1975  -17.4359  -10.2041 H   0  0  0  0  0  0  0  0  0  0  0  0
   24.1637  -17.6175  -11.4671 H   0  0  0  0  0  0  0  0  0  0  0  0
  1  2  1  0
  1 24  1  0
  1 25  1  0
  1 26  1  0
  2  3  1  0
  3  4  2  0
  3 27  1  0
  4  5  1  0
  4 28  1  0
  5  6  2  0
  6 18  1  0
  6  7  1  0
  7 11  1  0
  7  8  2  0
  8  9  1  0
  9 10  1  0
  9  5  1  0
 10  2  2  0
 10 29  1  0
 11 12  2  0
 12 13  1  0
 12 30  1  0
 13 14  2  0
 13 31  1  0
 14 15  1  0
 14 16  1  0
 16 17  2  0
 16 32  1  0
 17 11  1  0
 17 33  1  0
 18 19  2  0
 19 20  1  0
 19 34  1  0
 20 21  2  0
 20 35  1  0
 21 22  1  0
 22 23  2  0
 22 36  1  0
 23 18  1  0
 23 37  1  0
M  END
>  <minimizedAffinity>  (1) 
-10.12759

>  <mol_id>  (1) 
1740

>  <source_index>  (1) 
0

>  <layer>  (1) 
L3

>  <uniprot>  (1) 
A0A1D8PKB4

>  <paff>  (1) 
6.9585999999999997

>  <smiles>  (1) 
Cc1ccc2c(c(nn2c1)c3ccc(cc3)F)c4ccncc4

$$$$
L3:A0A1D8PKB4:3477
     RDKit          3D

 39 42  0  0  0  0  0  0  0  0999 V2000
   24.3722  -20.8363  -16.8777 N   0  0  0  0  0  0  0  0  0  0  0  0
   24.2738  -19.8045  -16.0118 N   0  0  0  0  0  0  0  0  0  0  0  0
   22.9496  -19.6507  -15.8502 C   0  0  0  0  0  0  0  0  0  0  0  0
   22.2027  -20.6652  -16.5026 C   0  0  0  0  0  0  0  0  0  0  0  0
   20.8848  -21.1281  -16.6147 C   0  0  0  0  0  0  0  0  0  0  0  0
   19.8184  -20.6969  -15.8594 N   0  0  0  0  0  0  0  0  0  0  0  0
   20.6214  -22.1402  -17.4700 N   0  0  0  0  0  0  0  0  0  0  0  0
   21.6420  -22.7073  -18.1363 C   0  0  0  0  0  0  0  0  0  0  0  0
   22.9446  -22.4065  -18.0510 N   0  0  0  0  0  0  0  0  0  0  0  0
   23.1599  -21.3772  -17.2129 C   0  0  0  0  0  0  0  0  0  0  0  0
   19.9783  -20.2230  -14.9850 H   0  0  0  0  0  0  0  0  0  0  0  0
   18.9546  -21.1999  -16.0084 H   0  0  0  0  0  0  0  0  0  0  0  0
   22.4752  -18.4126  -15.0326 C   0  0  0  0  0  0  0  0  0  0  0  0
   21.2233  -18.0560  -14.5894 C   0  0  0  0  0  0  0  0  0  0  0  0
   21.3449  -16.8164  -13.8944 C   0  0  0  0  0  0  0  0  0  0  0  0
   20.4306  -15.9755  -13.2281 C   0  0  0  0  0  0  0  0  0  0  0  0
   20.9079  -14.7984  -12.6464 C   0  0  0  0  0  0  0  0  0  0  0  0
   20.0654  -13.9497  -11.9859 O   0  0  0  0  0  0  0  0  0  0  0  0
   22.2491  -14.4429  -12.7162 C   0  0  0  0  0  0  0  0  0  0  0  0
   23.1698  -15.2581  -13.3805 C   0  0  0  0  0  0  0  0  0  0  0  0
   22.6859  -16.4367  -13.9597 C   0  0  0  0  0  0  0  0  0  0  0  0
   23.3394  -17.4073  -14.6798 N   0  0  0  0  0  0  0  0  0  0  0  0
   19.1661  -14.3136  -12.0290 H   0  0  0  0  0  0  0  0  0  0  0  0
   24.3221  -17.4116  -14.9174 H   0  0  0  0  0  0  0  0  0  0  0  0
   26.3408  -22.2601  -16.3904 C   0  0  0  0  0  0  0  0  0  0  0  0
   25.6920  -21.2522  -17.3385 C   0  0  0  0  0  0  0  0  0  0  0  0
   26.6086  -20.0601  -17.6113 C   0  0  0  0  0  0  0  0  0  0  0  0
   21.3923  -23.4645  -18.7915 H   0  0  0  0  0  0  0  0  0  0  0  0
   20.3519  -18.5897  -14.7338 H   0  0  0  0  0  0  0  0  0  0  0  0
   19.4306  -16.2239  -13.1712 H   0  0  0  0  0  0  0  0  0  0  0  0
   22.5690  -13.5676  -12.2728 H   0  0  0  0  0  0  0  0  0  0  0  0
   24.1674  -15.0010  -13.4415 H   0  0  0  0  0  0  0  0  0  0  0  0
   27.3036  -22.5357  -16.7673 H   0  0  0  0  0  0  0  0  0  0  0  0
   25.7233  -23.1310  -16.3187 H   0  0  0  0  0  0  0  0  0  0  0  0
   26.4498  -21.8193  -15.4215 H   0  0  0  0  0  0  0  0  0  0  0  0
   25.5448  -21.7524  -18.2729 H   0  0  0  0  0  0  0  0  0  0  0  0
   26.7833  -19.5285  -16.6993 H   0  0  0  0  0  0  0  0  0  0  0  0
   26.1438  -19.4079  -18.3209 H   0  0  0  0  0  0  0  0  0  0  0  0
   27.5404  -20.4093  -18.0047 H   0  0  0  0  0  0  0  0  0  0  0  0
  1  2  1  0
  2  3  2  0
  3 13  1  0
  3  4  1  0
  4  5  2  0
  5  6  1  0
  5  7  1  0
  6 11  1  0
  6 12  1  0
  7  8  2  0
  8  9  1  0
  8 28  1  0
  9 10  2  0
 10  1  1  0
 10  4  1  0
 13 14  2  0
 14 15  1  0
 14 29  1  0
 15 16  2  0
 16 17  1  0
 16 30  1  0
 17 18  1  0
 17 19  2  0
 18 23  1  0
 19 20  1  0
 19 31  1  0
 20 21  2  0
 20 32  1  0
 21 22  1  0
 21 15  1  0
 22 13  1  0
 22 24  1  0
 25 26  1  0
 25 33  1  0
 25 34  1  0
 25 35  1  0
 26 27  1  0
 26  1  1  0
 26 36  1  0
 27 37  1  0
 27 38  1  0
 27 39  1  0
M  END
>  <minimizedAffinity>  (2) 
-8.85682

>  <mol_id>  (2) 
3477

>  <source_index>  (2) 
1

>  <layer>  (2) 
L3

>  <uniprot>  (2) 
A0A1D8PKB4

>  <paff>  (2) 
6.0044000000000004

>  <smiles>  (2) 
CC(C)n1nc(-c2cc3cc(O)ccc3[nH]2)c2c(N)ncnc21

$$$$
L3:A0A1D8PKB4:10448
     RDKit          3D

 35 38  0  0  0  0  0  0  0  0999 V2000
   22.3665  -20.7643  -16.6364 C   0  0  0  0  0  0  0  0  0  0  0  0
   23.6739  -21.0487  -16.0547 C   0  0  0  0  0  0  0  0  0  0  0  0
   24.2730  -20.1888  -15.2094 C   0  0  0  0  0  0  0  0  0  0  0  0
   23.6178  -18.9693  -14.8638 C   0  0  0  0  0  0  0  0  0  0  0  0
   23.9092  -17.8878  -14.0570 C   0  0  0  0  0  0  0  0  0  0  0  0
   22.8031  -16.9988  -14.2151 C   0  0  0  0  0  0  0  0  0  0  0  0
   21.8961  -17.5071  -15.0632 N   0  0  0  0  0  0  0  0  0  0  0  0
   22.3789  -18.7086  -15.4471 N   0  0  0  0  0  0  0  0  0  0  0  0
   21.7636  -19.6052  -16.3199 C   0  0  0  0  0  0  0  0  0  0  0  0
   22.5783  -15.6866  -13.5997 C   0  0  0  0  0  0  0  0  0  0  0  0
   21.3489  -15.4070  -12.9790 C   0  0  0  0  0  0  0  0  0  0  0  0
   21.1143  -14.1608  -12.3930 C   0  0  0  0  0  0  0  0  0  0  0  0
   22.1109  -13.1939  -12.4214 C   0  0  0  0  0  0  0  0  0  0  0  0
   21.8875  -11.9985  -11.8608 F   0  0  0  0  0  0  0  0  0  0  0  0
   23.3385  -13.4510  -13.0194 C   0  0  0  0  0  0  0  0  0  0  0  0
   23.5747  -14.6981  -13.6050 C   0  0  0  0  0  0  0  0  0  0  0  0
   25.1409  -17.7500  -13.3039 C   0  0  0  0  0  0  0  0  0  0  0  0
   26.3750  -17.7611  -13.9549 C   0  0  0  0  0  0  0  0  0  0  0  0
   27.5199  -17.6397  -13.1866 C   0  0  0  0  0  0  0  0  0  0  0  0
   27.5106  -17.5118  -11.8431 N   0  0  0  0  0  0  0  0  0  0  0  0
   26.3037  -17.5063  -11.2375 C   0  0  0  0  0  0  0  0  0  0  0  0
   25.1028  -17.6218  -11.9157 C   0  0  0  0  0  0  0  0  0  0  0  0
   21.2666  -22.4573  -18.2486 N   0  0  0  0  0  0  0  0  0  0  0  0
   21.7628  -21.6995  -17.5239 C   0  0  0  0  0  0  0  0  0  0  0  0
   24.1514  -21.9309  -16.2972 H   0  0  0  0  0  0  0  0  0  0  0  0
   25.2001  -20.4103  -14.8140 H   0  0  0  0  0  0  0  0  0  0  0  0
   20.8418  -19.3781  -16.7245 H   0  0  0  0  0  0  0  0  0  0  0  0
   20.6122  -16.1293  -12.9559 H   0  0  0  0  0  0  0  0  0  0  0  0
   20.2077  -13.9602  -11.9426 H   0  0  0  0  0  0  0  0  0  0  0  0
   24.0720  -12.7251  -13.0311 H   0  0  0  0  0  0  0  0  0  0  0  0
   24.4879  -14.8933  -14.0442 H   0  0  0  0  0  0  0  0  0  0  0  0
   26.4325  -17.8572  -14.9808 H   0  0  0  0  0  0  0  0  0  0  0  0
   28.4325  -17.6474  -13.6685 H   0  0  0  0  0  0  0  0  0  0  0  0
   26.2752  -17.4105  -10.2104 H   0  0  0  0  0  0  0  0  0  0  0  0
   24.2042  -17.6133  -11.4083 H   0  0  0  0  0  0  0  0  0  0  0  0
  1  2  1  0
  2  3  2  0
  2 25  1  0
  3  4  1  0
  3 26  1  0
  4  5  2  0
  5 17  1  0
  5  6  1  0
  6 10  1  0
  6  7  2  0
  7  8  1  0
  8  9  1  0
  8  4  1  0
  9  1  2  0
  9 27  1  0
 10 11  2  0
 11 12  1  0
 11 28  1  0
 12 13  2  0
 12 29  1  0
 13 14  1  0
 13 15  1  0
 15 16  2  0
 15 30  1  0
 16 10  1  0
 16 31  1  0
 17 18  2  0
 18 19  1  0
 18 32  1  0
 19 20  2  0
 19 33  1  0
 20 21  1  0
 21 22  2  0
 21 34  1  0
 22 17  1  0
 22 35  1  0
 23 24  3  0
 24  1  1  0
M  END
>  <minimizedAffinity>  (3) 
-9.73044

>  <mol_id>  (3) 
10448

>  <source_index>  (3) 
2

>  <layer>  (3) 
L3

>  <uniprot>  (3) 
A0A1D8PKB4

>  <paff>  (3) 
7.1078999999999999

>  <smiles>  (3) 
c1cc(ccc1c2c(c3ccc(cn3n2)C#N)c4ccncc4)F

$$$$
L3:A0A1D8PKB4:21866
     RDKit          3D

 64 69  0  0  0  0  0  0  0  0999 V2000
   22.7019  -22.1954  -16.9849 C   0  0  0  0  0  0  0  0  0  0  0  0
   21.3451  -22.0636  -17.0398 N   0  0  0  0  0  0  0  0  0  0  0  0
   20.7717  -21.0262  -16.4097 C   0  0  0  0  0  0  0  0  0  0  0  0
   19.3806  -20.9404  -16.4345 N   0  0  0  0  0  0  0  0  0  0  0  0
   21.5256  -20.0976  -15.6919 C   0  0  0  0  0  0  0  0  0  0  0  0
   22.9052  -20.2478  -15.6125 C   0  0  0  0  0  0  0  0  0  0  0  0
   23.5326  -21.3132  -16.2754 C   0  0  0  0  0  0  0  0  0  0  0  0
   18.9653  -21.1846  -15.5453 H   0  0  0  0  0  0  0  0  0  0  0  0
   19.0616  -20.0082  -16.7223 H   0  0  0  0  0  0  0  0  0  0  0  0
   24.9906  -21.4304  -16.2168 C   0  0  0  0  0  0  0  0  0  0  0  0
   25.7862  -21.1330  -17.3249 C   0  0  0  0  0  0  0  0  0  0  0  0
   27.1693  -21.2784  -17.1628 C   0  0  0  0  0  0  0  0  0  0  0  0
   28.3265  -21.0919  -17.9653 C   0  0  0  0  0  0  0  0  0  0  0  0
   28.3898  -20.6353  -19.3752 C   0  0  0  0  0  0  0  0  0  0  0  0
   29.4497  -21.3825  -17.2956 N   0  0  0  0  0  0  0  0  0  0  0  0
   29.0147  -21.7475  -16.0774 N   0  0  0  0  0  0  0  0  0  0  0  0
   27.6565  -21.7091  -15.9372 C   0  0  0  0  0  0  0  0  0  0  0  0
   26.8261  -22.0056  -14.8709 C   0  0  0  0  0  0  0  0  0  0  0  0
   25.4896  -21.8688  -15.0334 N   0  0  0  0  0  0  0  0  0  0  0  0
   29.7041  -22.0138  -15.3836 H   0  0  0  0  0  0  0  0  0  0  0  0
   21.9163  -23.0877  -19.9815 C   0  0  0  0  0  0  0  0  0  0  0  0
   22.8257  -23.7019  -18.9893 C   0  0  0  0  0  0  0  0  0  0  0  0
   23.4497  -24.8495  -19.3839 O   0  0  0  0  0  0  0  0  0  0  0  0
   24.2183  -25.2608  -18.3464 C   0  0  0  0  0  0  0  0  0  0  0  0
   24.0999  -24.3941  -17.2866 C   0  0  0  0  0  0  0  0  0  0  0  0
   23.2046  -23.3656  -17.6987 C   0  0  0  0  0  0  0  0  0  0  0  0
   20.9214  -19.0655  -15.0249 O   0  0  0  0  0  0  0  0  0  0  0  0
   21.5429  -17.8104  -15.3468 C   0  0  0  0  0  0  0  0  0  0  0  0
   21.1864  -16.7275  -14.3014 C   0  0  1  0  0  0  0  0  0  0  0  0
   20.8210  -17.3506  -13.0064 N   0  0  0  0  0  0  0  0  0  0  0  0
   19.9500  -17.8735  -13.1223 H   0  0  0  0  0  0  0  0  0  0  0  0
   20.5950  -16.6004  -12.3455 H   0  0  0  0  0  0  0  0  0  0  0  0
   22.3451  -15.7184  -14.1355 C   0  0  0  0  0  0  0  0  0  0  0  0
   23.4235  -16.2053  -13.2109 C   0  0  0  0  0  0  0  0  0  0  0  0
   23.5010  -15.9737  -11.8508 C   0  0  0  0  0  0  0  0  0  0  0  0
   24.6310  -16.5820  -11.3741 N   0  0  0  0  0  0  0  0  0  0  0  0
   25.2988  -17.2142  -12.3959 C   0  0  0  0  0  0  0  0  0  0  0  0
   26.4850  -17.9578  -12.3737 C   0  0  0  0  0  0  0  0  0  0  0  0
   26.9392  -18.4898  -13.5839 C   0  0  0  0  0  0  0  0  0  0  0  0
   26.2347  -18.2836  -14.7672 C   0  0  0  0  0  0  0  0  0  0  0  0
   25.0515  -17.5362  -14.7711 C   0  0  0  0  0  0  0  0  0  0  0  0
   24.5696  -16.9897  -13.5636 C   0  0  0  0  0  0  0  0  0  0  0  0
   24.9384  -16.5706  -10.4116 H   0  0  0  0  0  0  0  0  0  0  0  0
   23.4673  -19.5763  -15.0665 H   0  0  0  0  0  0  0  0  0  0  0  0
   25.3753  -20.8215  -18.2189 H   0  0  0  0  0  0  0  0  0  0  0  0
   27.3990  -20.4540  -19.7362 H   0  0  0  0  0  0  0  0  0  0  0  0
   28.8550  -21.3902  -19.9740 H   0  0  0  0  0  0  0  0  0  0  0  0
   28.9610  -19.7323  -19.4324 H   0  0  0  0  0  0  0  0  0  0  0  0
   27.2176  -22.3243  -13.9708 H   0  0  0  0  0  0  0  0  0  0  0  0
   21.9091  -23.6794  -20.8730 H   0  0  0  0  0  0  0  0  0  0  0  0
   22.2552  -22.0993  -20.2121 H   0  0  0  0  0  0  0  0  0  0  0  0
   20.9268  -23.0401  -19.5770 H   0  0  0  0  0  0  0  0  0  0  0  0
   24.8097  -26.1065  -18.3515 H   0  0  0  0  0  0  0  0  0  0  0  0
   24.5684  -24.4730  -16.3705 H   0  0  0  0  0  0  0  0  0  0  0  0
   21.2053  -17.4904  -16.3104 H   0  0  0  0  0  0  0  0  0  0  0  0
   22.6042  -17.9469  -15.3460 H   0  0  0  0  0  0  0  0  0  0  0  0
   20.3347  -16.1851  -14.6552 H   0  0  0  0  0  0  0  0  0  0  0  0
   21.9478  -14.8053  -13.7441 H   0  0  0  0  0  0  0  0  0  0  0  0
   22.7893  -15.5819  -15.0993 H   0  0  0  0  0  0  0  0  0  0  0  0
   22.8229  -15.4343  -11.2902 H   0  0  0  0  0  0  0  0  0  0  0  0
   27.0054  -18.1077  -11.4952 H   0  0  0  0  0  0  0  0  0  0  0  0
   27.8098  -19.0437  -13.6007 H   0  0  0  0  0  0  0  0  0  0  0  0
   26.5883  -18.6856  -15.6494 H   0  0  0  0  0  0  0  0  0  0  0  0
   24.5350  -17.3859  -15.6518 H   0  0  0  0  0  0  0  0  0  0  0  0
  1  2  2  0
  2  3  1  0
  3  4  1  0
  3  5  2  0
  4  8  1  0
  4  9  1  0
  5 27  1  0
  5  6  1  0
  6  7  2  0
  6 44  1  0
  7 10  1  0
  7  1  1  0
 10 11  2  0
 11 12  1  0
 11 45  1  0
 12 13  1  0
 13 14  1  0
 13 15  2  0
 14 46  1  0
 14 47  1  0
 14 48  1  0
 15 16  1  0
 16 17  1  0
 16 20  1  0
 17 18  1  0
 17 12  2  0
 18 19  2  0
 18 49  1  0
 19 10  1  0
 21 22  1  0
 21 50  1  0
 21 51  1  0
 21 52  1  0
 22 23  1  0
 23 24  1  0
 24 25  2  0
 24 53  1  0
 25 26  1  0
 25 54  1  0
 26  1  1  0
 26 22  2  0
 27 28  1  0
 28 29  1  0
 28 55  1  0
 28 56  1  0
 29 30  1  0
 29 33  1  0
 29 57  1  6
 30 31  1  0
 30 32  1  0
 33 34  1  0
 33 58  1  0
 33 59  1  0
 34 35  2  0
 35 36  1  0
 35 60  1  0
 36 37  1  0
 36 43  1  0
 37 38  2  0
 38 39  1  0
 38 61  1  0
 39 40  2  0
 39 62  1  0
 40 41  1  0
 40 63  1  0
 41 42  2  0
 41 64  1  0
 42 34  1  0
 42 37  1  0
M  END
>  <minimizedAffinity>  (4) 
-9.46725

>  <mol_id>  (4) 
21866

>  <source_index>  (4) 
3

>  <layer>  (4) 
L3

>  <uniprot>  (4) 
A0A1D8PKB4

>  <paff>  (4) 
6.7446999999999999

>  <smiles>  (4) 
Cc1occc1-c1nc(N)c(OC[C@@H](N)Cc2c[nH]c3ccccc23)cc1-c1cc2c(C)n[nH]c2cn1

$$$$
L3:A0A1D8PKB4:38545
     RDKit          3D

 61 64  0  0  0  0  0  0  0  0999 V2000
   27.7926  -20.9634  -14.7916 C   0  0  0  0  0  0  0  0  0  0  0  0
   28.7398  -20.1265  -14.2220 C   0  0  0  0  0  0  0  0  0  0  0  0
   28.4559  -18.9097  -13.7081 N   0  0  0  0  0  0  0  0  0  0  0  0
   27.1748  -18.5062  -13.7571 C   0  0  0  0  0  0  0  0  0  0  0  0
   26.8390  -17.2649  -13.2467 C   0  0  0  0  0  0  0  0  0  0  0  0
   25.5255  -16.8010  -13.2910 C   0  0  0  0  0  0  0  0  0  0  0  0
   24.5500  -17.6155  -13.8470 C   0  0  0  0  0  0  0  0  0  0  0  0
   24.8415  -18.8386  -14.3473 N   0  0  0  0  0  0  0  0  0  0  0  0
   26.1291  -19.2701  -14.3173 C   0  0  0  0  0  0  0  0  0  0  0  0
   26.4658  -20.5188  -14.8783 C   0  0  0  0  0  0  0  0  0  0  0  0
   23.1374  -17.2221  -13.9275 C   0  0  0  0  0  0  0  0  0  0  0  0
   22.2899  -17.7297  -14.9272 C   0  0  0  0  0  0  0  0  0  0  0  0
   20.9438  -17.3535  -14.9895 C   0  0  0  0  0  0  0  0  0  0  0  0
   19.9616  -18.0293  -16.2372 Cl  0  0  0  0  0  0  0  0  0  0  0  0
   20.4221  -16.4555  -14.0583 C   0  0  0  0  0  0  0  0  0  0  0  0
   19.1032  -16.0892  -14.1297 O   0  0  0  0  0  0  0  0  0  0  0  0
   21.2536  -15.9417  -13.0622 C   0  0  0  0  0  0  0  0  0  0  0  0
   20.6391  -14.8177  -11.9058 Cl  0  0  0  0  0  0  0  0  0  0  0  0
   22.5934  -16.3272  -12.9898 C   0  0  0  0  0  0  0  0  0  0  0  0
   18.9222  -15.4691  -13.3990 H   0  0  0  0  0  0  0  0  0  0  0  0
   29.6349  -22.4455  -15.7999 C   0  0  0  0  0  0  0  0  0  0  0  0
   28.2570  -22.3012  -15.2090 C   0  0  0  0  0  0  0  0  0  0  0  0
   27.4921  -23.2577  -15.1028 O   0  0  0  0  0  0  0  0  0  0  0  0
   25.4563  -21.2166  -15.5860 N   0  0  0  0  0  0  0  0  0  0  0  0
   24.5721  -21.1978  -15.0696 H   0  0  0  0  0  0  0  0  0  0  0  0
   25.3224  -21.0022  -17.0351 C   0  0  1  0  0  0  0  0  0  0  0  0
   25.3810  -22.3602  -17.7561 C   0  0  0  0  0  0  0  0  0  0  0  0
   24.0319  -22.8469  -18.2926 C   0  0  0  0  0  0  0  0  0  0  0  0
   22.8876  -22.5712  -17.3061 C   0  0  1  0  0  0  0  0  0  0  0  0
   22.7555  -21.0575  -17.0551 C   0  0  0  0  0  0  0  0  0  0  0  0
   24.0251  -20.2525  -17.3551 C   0  0  0  0  0  0  0  0  0  0  0  0
   21.5774  -23.2184  -17.8253 C   0  0  0  0  0  0  0  0  0  0  0  0
   20.6713  -22.4308  -18.6695 N   0  0  0  0  0  0  0  0  0  0  0  0
   20.6974  -22.8308  -20.0705 C   0  0  0  0  0  0  0  0  0  0  0  0
   19.3091  -22.3126  -18.1712 C   0  0  0  0  0  0  0  0  0  0  0  0
   29.7186  -20.4519  -14.1886 H   0  0  0  0  0  0  0  0  0  0  0  0
   27.5727  -16.6731  -12.8265 H   0  0  0  0  0  0  0  0  0  0  0  0
   25.2834  -15.8699  -12.9175 H   0  0  0  0  0  0  0  0  0  0  0  0
   22.6661  -18.3897  -15.6257 H   0  0  0  0  0  0  0  0  0  0  0  0
   23.1920  -15.9504  -12.2383 H   0  0  0  0  0  0  0  0  0  0  0  0
   29.8116  -23.4716  -16.0463 H   0  0  0  0  0  0  0  0  0  0  0  0
   30.3642  -22.1188  -15.0883 H   0  0  0  0  0  0  0  0  0  0  0  0
   29.7078  -21.8485  -16.6849 H   0  0  0  0  0  0  0  0  0  0  0  0
   26.1317  -20.3943  -17.3821 H   0  0  0  0  0  0  0  0  0  0  0  0
   25.7506  -23.0901  -17.0666 H   0  0  0  0  0  0  0  0  0  0  0  0
   26.0194  -22.2295  -18.6048 H   0  0  0  0  0  0  0  0  0  0  0  0
   24.0899  -23.9007  -18.4687 H   0  0  0  0  0  0  0  0  0  0  0  0
   23.8242  -22.3144  -19.1971 H   0  0  0  0  0  0  0  0  0  0  0  0
   23.1034  -23.0202  -16.3591 H   0  0  0  0  0  0  0  0  0  0  0  0
   22.5009  -20.9099  -16.0264 H   0  0  0  0  0  0  0  0  0  0  0  0
   22.0024  -20.7013  -17.7265 H   0  0  0  0  0  0  0  0  0  0  0  0
   24.0013  -19.3554  -16.7724 H   0  0  0  0  0  0  0  0  0  0  0  0
   24.0292  -20.0574  -18.4072 H   0  0  0  0  0  0  0  0  0  0  0  0
   21.0175  -23.5221  -16.9655 H   0  0  0  0  0  0  0  0  0  0  0  0
   21.9199  -23.9945  -18.4774 H   0  0  0  0  0  0  0  0  0  0  0  0
   21.7123  -22.9071  -20.4008 H   0  0  0  0  0  0  0  0  0  0  0  0
   20.1846  -22.0996  -20.6598 H   0  0  0  0  0  0  0  0  0  0  0  0
   20.2145  -23.7794  -20.1797 H   0  0  0  0  0  0  0  0  0  0  0  0
   19.3298  -22.0182  -17.1427 H   0  0  0  0  0  0  0  0  0  0  0  0
   18.8129  -23.2562  -18.2622 H   0  0  0  0  0  0  0  0  0  0  0  0
   18.7830  -21.5764  -18.7423 H   0  0  0  0  0  0  0  0  0  0  0  0
  1  2  2  0
  2  3  1  0
  2 36  1  0
  3  4  2  0
  4  5  1  0
  5  6  2  0
  5 37  1  0
  6  7  1  0
  6 38  1  0
  7 11  1  0
  7  8  2  0
  8  9  1  0
  9 10  2  0
  9  4  1  0
 10 24  1  0
 10  1  1  0
 11 12  2  0
 12 13  1  0
 12 39  1  0
 13 14  1  0
 13 15  2  0
 15 16  1  0
 15 17  1  0
 16 20  1  0
 17 18  1  0
 17 19  2  0
 19 11  1  0
 19 40  1  0
 21 22  1  0
 21 41  1  0
 21 42  1  0
 21 43  1  0
 22 23  2  0
 22  1  1  0
 24 26  1  0
 24 25  1  0
 26 27  1  0
 26 44  1  6
 27 28  1  0
 27 45  1  0
 27 46  1  0
 28 29  1  0
 28 47  1  0
 28 48  1  0
 29 32  1  0
 29 30  1  0
 29 49  1  1
 30 31  1  0
 30 50  1  0
 30 51  1  0
 31 26  1  0
 31 52  1  0
 31 53  1  0
 32 33  1  0
 32 54  1  0
 32 55  1  0
 33 34  1  0
 33 35  1  0
 34 56  1  0
 34 57  1  0
 34 58  1  0
 35 59  1  0
 35 60  1  0
 35 61  1  0
M  END
>  <minimizedAffinity>  (5) 
-8.93704

>  <mol_id>  (5) 
38545

>  <source_index>  (5) 
4

>  <layer>  (5) 
L3

>  <uniprot>  (5) 
A0A1D8PKB4

>  <paff>  (5) 
6.8860999999999999

>  <smiles>  (5) 
CC(=O)c1cnc2ccc(-c3cc(Cl)c(O)c(Cl)c3)nc2c1N[C@H]1CC[C@H](CN(C)C)CC1

$$$$
L3:A0A1D8PKB4:65458
     RDKit          3D

 66 70  0  0  0  0  0  0  0  0999 V2000
   21.5385  -17.4343  -15.4341 C   0  0  0  0  0  0  0  0  0  0  0  0
   21.9001  -18.3729  -16.3383 N   0  0  0  0  0  0  0  0  0  0  0  0
   23.1702  -18.6894  -16.0201 N   0  0  0  0  0  0  0  0  0  0  0  0
   23.8342  -19.7225  -16.7786 C   0  0  0  0  0  0  0  0  0  0  0  0
   23.6664  -17.9511  -14.9876 C   0  0  0  0  0  0  0  0  0  0  0  0
   22.6493  -17.0830  -14.6057 C   0  0  0  0  0  0  0  0  0  0  0  0
   22.8281  -16.1030  -13.4554 C   0  0  0  0  0  0  0  0  0  0  0  0
   22.1630  -16.6640  -12.1831 C   0  0  0  0  0  0  0  0  0  0  0  0
   22.2559  -14.7059  -13.7633 C   0  0  0  0  0  0  0  0  0  0  0  0
   24.3651  -15.8858  -13.1681 C   0  0  0  0  0  0  0  0  0  0  0  0
   25.2515  -17.0818  -13.3811 C   0  0  0  0  0  0  0  0  0  0  0  0
   26.4472  -17.2590  -12.7358 C   0  0  0  0  0  0  0  0  0  0  0  0
   27.2664  -18.2987  -12.9757 N   0  0  0  0  0  0  0  0  0  0  0  0
   26.9004  -19.1782  -13.9269 C   0  0  0  0  0  0  0  0  0  0  0  0
   25.7590  -19.0808  -14.6282 N   0  0  0  0  0  0  0  0  0  0  0  0
   24.9595  -18.0429  -14.3297 C   0  0  0  0  0  0  0  0  0  0  0  0
   18.1213  -16.7906  -16.8323 C   0  0  0  0  0  0  0  0  0  0  0  0
   19.4962  -17.1389  -16.6190 N   0  0  0  0  0  0  0  0  0  0  0  0
   20.1395  -16.9578  -15.4133 C   0  0  0  0  0  0  0  0  0  0  0  0
   19.5879  -16.4769  -14.4293 O   0  0  0  0  0  0  0  0  0  0  0  0
   20.0462  -17.6075  -17.3355 H   0  0  0  0  0  0  0  0  0  0  0  0
   27.7856  -20.2390  -14.0922 N   0  0  0  0  0  0  0  0  0  0  0  0
   28.6144  -20.0654  -13.5427 H   0  0  0  0  0  0  0  0  0  0  0  0
   27.7733  -21.3985  -14.8671 C   0  0  0  0  0  0  0  0  0  0  0  0
   28.8867  -21.8883  -15.5413 C   0  0  0  0  0  0  0  0  0  0  0  0
   28.8103  -23.0414  -16.3394 C   0  0  0  0  0  0  0  0  0  0  0  0
   27.6160  -23.7545  -16.5071 C   0  0  0  0  0  0  0  0  0  0  0  0
   26.5001  -23.2488  -15.8278 C   0  0  0  0  0  0  0  0  0  0  0  0
   26.5738  -22.0967  -15.0288 C   0  0  0  0  0  0  0  0  0  0  0  0
   27.5429  -24.8885  -17.2952 N   0  0  0  0  0  0  0  0  0  0  0  0
   26.6211  -24.9803  -18.4396 C   0  0  0  0  0  0  0  0  0  0  0  0
   26.2387  -26.4534  -18.7146 C   0  0  0  0  0  0  0  0  0  0  0  0
   27.3864  -27.3305  -19.0319 N   0  0  0  0  0  0  0  0  0  0  0  0
   27.0664  -28.7227  -18.7296 C   0  0  0  0  0  0  0  0  0  0  0  0
   28.6120  -26.8839  -18.3370 C   0  0  0  0  0  0  0  0  0  0  0  0
   28.3937  -26.0628  -17.0434 C   0  0  0  0  0  0  0  0  0  0  0  0
   23.1658  -20.1051  -17.5214 H   0  0  0  0  0  0  0  0  0  0  0  0
   24.1282  -20.5142  -16.1216 H   0  0  0  0  0  0  0  0  0  0  0  0
   24.7008  -19.3140  -17.2550 H   0  0  0  0  0  0  0  0  0  0  0  0
   21.1194  -16.8163  -12.3637 H   0  0  0  0  0  0  0  0  0  0  0  0
   22.2881  -15.9691  -11.3792 H   0  0  0  0  0  0  0  0  0  0  0  0
   22.6197  -17.5961  -11.9232 H   0  0  0  0  0  0  0  0  0  0  0  0
   21.2088  -14.7866  -13.9682 H   0  0  0  0  0  0  0  0  0  0  0  0
   22.7556  -14.2958  -14.6159 H   0  0  0  0  0  0  0  0  0  0  0  0
   22.4059  -14.0652  -12.9196 H   0  0  0  0  0  0  0  0  0  0  0  0
   24.4673  -15.5802  -12.1478 H   0  0  0  0  0  0  0  0  0  0  0  0
   24.6908  -15.1554  -13.8789 H   0  0  0  0  0  0  0  0  0  0  0  0
   26.7332  -16.5610  -12.0316 H   0  0  0  0  0  0  0  0  0  0  0  0
   17.7355  -16.3093  -15.9580 H   0  0  0  0  0  0  0  0  0  0  0  0
   17.5555  -17.6768  -17.0306 H   0  0  0  0  0  0  0  0  0  0  0  0
   18.0472  -16.1258  -17.6675 H   0  0  0  0  0  0  0  0  0  0  0  0
   29.7883  -21.3939  -15.4533 H   0  0  0  0  0  0  0  0  0  0  0  0
   29.6618  -23.3744  -16.8180 H   0  0  0  0  0  0  0  0  0  0  0  0
   25.5960  -23.7382  -15.9174 H   0  0  0  0  0  0  0  0  0  0  0  0
   25.7241  -21.7584  -14.5508 H   0  0  0  0  0  0  0  0  0  0  0  0
   27.0963  -24.5726  -19.3073 H   0  0  0  0  0  0  0  0  0  0  0  0
   25.7322  -24.4303  -18.2111 H   0  0  0  0  0  0  0  0  0  0  0  0
   25.5614  -26.4749  -19.5427 H   0  0  0  0  0  0  0  0  0  0  0  0
   25.8044  -26.8310  -17.8125 H   0  0  0  0  0  0  0  0  0  0  0  0
   26.1756  -29.0052  -19.2507 H   0  0  0  0  0  0  0  0  0  0  0  0
   26.9137  -28.8330  -17.6763 H   0  0  0  0  0  0  0  0  0  0  0  0
   27.8755  -29.3502  -19.0403 H   0  0  0  0  0  0  0  0  0  0  0  0
   29.1735  -26.2794  -19.0183 H   0  0  0  0  0  0  0  0  0  0  0  0
   29.1141  -27.7780  -18.0315 H   0  0  0  0  0  0  0  0  0  0  0  0
   29.3427  -25.7336  -16.6747 H   0  0  0  0  0  0  0  0  0  0  0  0
   27.9054  -26.6869  -16.3244 H   0  0  0  0  0  0  0  0  0  0  0  0
  1  2  2  0
  2  3  1  0
  3  4  1  0
  3  5  1  0
  4 37  1  0
  4 38  1  0
  4 39  1  0
  5  6  2  0
  6  7  1  0
  6  1  1  0
  7  8  1  0
  7  9  1  0
  7 10  1  0
  8 40  1  0
  8 41  1  0
  8 42  1  0
  9 43  1  0
  9 44  1  0
  9 45  1  0
 10 11  1  0
 10 46  1  0
 10 47  1  0
 11 12  2  0
 12 13  1  0
 12 48  1  0
 13 14  2  0
 14 22  1  0
 14 15  1  0
 15 16  2  0
 16 11  1  0
 16  5  1  0
 17 18  1  0
 17 49  1  0
 17 50  1  0
 17 51  1  0
 18 19  1  0
 18 21  1  0
 19 20  2  0
 19  1  1  0
 22 24  1  0
 22 23  1  0
 24 25  2  0
 25 26  1  0
 25 52  1  0
 26 27  2  0
 26 53  1  0
 27 30  1  0
 27 28  1  0
 28 29  2  0
 28 54  1  0
 29 24  1  0
 29 55  1  0
 30 31  1  0
 31 32  1  0
 31 56  1  0
 31 57  1  0
 32 33  1  0
 32 58  1  0
 32 59  1  0
 33 34  1  0
 33 35  1  0
 34 60  1  0
 34 61  1  0
 34 62  1  0
 35 36  1  0
 35 63  1  0
 35 64  1  0
 36 30  1  0
 36 65  1  0
 36 66  1  0
M  END
>  <minimizedAffinity>  (6) 
-9.82226

>  <mol_id>  (6) 
65458

>  <source_index>  (6) 
5

>  <layer>  (6) 
L3

>  <uniprot>  (6) 
A0A1D8PKB4

>  <paff>  (6) 
6.1135000000000002

>  <smiles>  (6) 
CNC(=O)c1nn(C)c-2c1C(C)(C)Cc1cnc(Nc3ccc(cc3)N3CCN(C)CC3)nc-21

$$$$
L3:A0A1D8PKB4:66338
     RDKit          3D

 41 43  0  0  0  0  0  0  0  0999 V2000
   19.7111  -20.9101  -16.4922 N   0  0  0  0  0  0  0  0  0  0  0  0
   20.9817  -20.6098  -16.2766 C   0  0  0  0  0  0  0  0  0  0  0  0
   21.6685  -21.3204  -15.3519 N   0  0  0  0  0  0  0  0  0  0  0  0
   22.8837  -20.8312  -15.4361 C   0  0  0  0  0  0  0  0  0  0  0  0
   22.8661  -19.7011  -16.2609 N   0  0  0  0  0  0  0  0  0  0  0  0
   21.6654  -19.6667  -16.9050 N   0  0  0  0  0  0  0  0  0  0  0  0
   19.2550  -21.6544  -15.9855 H   0  0  0  0  0  0  0  0  0  0  0  0
   19.1704  -20.4100  -17.1834 H   0  0  0  0  0  0  0  0  0  0  0  0
   23.9733  -21.3426  -14.8093 N   0  0  0  0  0  0  0  0  0  0  0  0
   23.8103  -21.6440  -13.8483 H   0  0  0  0  0  0  0  0  0  0  0  0
   25.0298  -22.0741  -15.4042 C   0  0  0  0  0  0  0  0  0  0  0  0
   26.3535  -22.0367  -14.9400 C   0  0  0  0  0  0  0  0  0  0  0  0
   27.3424  -22.8369  -15.5212 C   0  0  0  0  0  0  0  0  0  0  0  0
   27.0060  -23.6966  -16.5668 C   0  0  0  0  0  0  0  0  0  0  0  0
   25.7004  -23.7415  -17.0548 C   0  0  0  0  0  0  0  0  0  0  0  0
   24.7206  -22.9349  -16.4701 C   0  0  0  0  0  0  0  0  0  0  0  0
   28.2533  -24.7190  -17.3038 S   0  0  0  0  0  0  0  0  0  0  0  0
   28.0808  -26.1436  -16.4224 N   0  0  0  0  0  0  0  0  0  0  0  0
   27.8734  -24.9930  -18.6689 O   0  0  0  0  0  0  0  0  0  0  0  0
   29.5481  -24.1885  -16.9461 O   0  0  0  0  0  0  0  0  0  0  0  0
   28.9392  -26.3098  -15.8936 H   0  0  0  0  0  0  0  0  0  0  0  0
   27.2572  -26.1509  -15.8221 H   0  0  0  0  0  0  0  0  0  0  0  0
   23.7991  -18.6409  -16.4449 C   0  0  0  0  0  0  0  0  0  0  0  0
   25.1304  -18.7279  -17.4779 S   0  0  0  0  0  0  0  0  0  0  0  0
   23.4769  -17.5657  -15.6108 N   0  0  0  0  0  0  0  0  0  0  0  0
   22.9184  -16.8126  -16.0129 H   0  0  0  0  0  0  0  0  0  0  0  0
   23.7445  -17.3668  -14.2284 C   0  0  0  0  0  0  0  0  0  0  0  0
   24.8099  -17.9205  -13.5135 C   0  0  0  0  0  0  0  0  0  0  0  0
   25.7717  -18.6230  -14.1254 F   0  0  0  0  0  0  0  0  0  0  0  0
   24.9868  -17.6564  -12.1520 C   0  0  0  0  0  0  0  0  0  0  0  0
   24.1131  -16.8026  -11.4815 C   0  0  0  0  0  0  0  0  0  0  0  0
   23.0789  -16.1943  -12.1860 C   0  0  0  0  0  0  0  0  0  0  0  0
   22.9152  -16.4691  -13.5434 C   0  0  0  0  0  0  0  0  0  0  0  0
   21.9177  -15.8578  -14.2008 F   0  0  0  0  0  0  0  0  0  0  0  0
   26.6009  -21.4097  -14.1585 H   0  0  0  0  0  0  0  0  0  0  0  0
   28.3148  -22.7916  -15.1786 H   0  0  0  0  0  0  0  0  0  0  0  0
   25.4599  -24.3651  -17.8411 H   0  0  0  0  0  0  0  0  0  0  0  0
   23.7532  -22.9723  -16.8276 H   0  0  0  0  0  0  0  0  0  0  0  0
   25.7683  -18.0959  -11.6410 H   0  0  0  0  0  0  0  0  0  0  0  0
   24.2320  -16.6232  -10.4722 H   0  0  0  0  0  0  0  0  0  0  0  0
   22.4368  -15.5437  -11.7069 H   0  0  0  0  0  0  0  0  0  0  0  0
  1  2  1  0
  1  7  1  0
  1  8  1  0
  2  3  1  0
  3  4  2  0
  4  9  1  0
  4  5  1  0
  5 23  1  0
  5  6  1  0
  6  2  2  0
  9 11  1  0
  9 10  1  0
 11 12  2  0
 12 13  1  0
 12 35  1  0
 13 14  2  0
 13 36  1  0
 14 17  1  0
 14 15  1  0
 15 16  2  0
 15 37  1  0
 16 11  1  0
 16 38  1  0
 17 18  1  0
 17 19  2  0
 17 20  2  0
 18 21  1  0
 18 22  1  0
 23 24  2  0
 23 25  1  0
 25 27  1  0
 25 26  1  0
 27 28  2  0
 28 29  1  0
 28 30  1  0
 30 31  2  0
 30 39  1  0
 31 32  1  0
 31 40  1  0
 32 33  2  0
 32 41  1  0
 33 34  1  0
 33 27  1  0
M  END
>  <minimizedAffinity>  (7) 
-8.75095

>  <mol_id>  (7) 
66338

>  <source_index>  (7) 
6

>  <layer>  (7) 
L3

>  <uniprot>  (7) 
A0A1D8PKB4

>  <paff>  (7) 
6.3278999999999996

>  <smiles>  (7) 
Nc1nc(Nc2ccc(cc2)S(N)(=O)=O)n(n1)C(=S)Nc1c(F)cccc1F

$$$$
L3:A0A1D8PKB4:69135
     RDKit          3D

 35 38  0  0  0  0  0  0  0  0999 V2000
   22.5854  -20.8690  -16.6331 C   0  0  0  0  0  0  0  0  0  0  0  0
   23.8760  -21.0885  -15.9813 C   0  0  0  0  0  0  0  0  0  0  0  0
   24.3696  -20.1465  -15.1585 C   0  0  0  0  0  0  0  0  0  0  0  0
   23.6423  -18.9724  -14.9391 N   0  0  0  0  0  0  0  0  0  0  0  0
   23.9306  -17.8695  -14.1462 C   0  0  0  0  0  0  0  0  0  0  0  0
   22.8240  -17.0390  -14.2956 C   0  0  0  0  0  0  0  0  0  0  0  0
   21.8911  -17.5967  -15.1416 N   0  0  0  0  0  0  0  0  0  0  0  0
   22.4027  -18.7413  -15.5276 C   0  0  0  0  0  0  0  0  0  0  0  0
   21.8862  -19.7370  -16.4055 C   0  0  0  0  0  0  0  0  0  0  0  0
   22.5869  -15.7541  -13.6527 C   0  0  0  0  0  0  0  0  0  0  0  0
   23.5408  -14.7254  -13.6618 C   0  0  0  0  0  0  0  0  0  0  0  0
   23.2731  -13.5058  -13.0333 C   0  0  0  0  0  0  0  0  0  0  0  0
   22.0490  -13.3097  -12.4059 C   0  0  0  0  0  0  0  0  0  0  0  0
   21.7951  -12.1400  -11.8054 F   0  0  0  0  0  0  0  0  0  0  0  0
   21.0832  -14.3073  -12.3989 C   0  0  0  0  0  0  0  0  0  0  0  0
   21.3509  -15.5266  -13.0257 C   0  0  0  0  0  0  0  0  0  0  0  0
   25.1307  -17.7526  -13.3217 C   0  0  0  0  0  0  0  0  0  0  0  0
   25.0228  -17.6216  -11.9372 C   0  0  0  0  0  0  0  0  0  0  0  0
   26.1864  -17.5062  -11.1961 C   0  0  0  0  0  0  0  0  0  0  0  0
   27.4233  -17.5129  -11.7372 N   0  0  0  0  0  0  0  0  0  0  0  0
   27.5024  -17.6314  -13.0788 C   0  0  0  0  0  0  0  0  0  0  0  0
   26.3985  -17.7526  -13.9057 C   0  0  0  0  0  0  0  0  0  0  0  0
   21.6536  -22.6810  -18.2264 N   0  0  0  0  0  0  0  0  0  0  0  0
   22.0749  -21.8716  -17.5099 C   0  0  0  0  0  0  0  0  0  0  0  0
   24.4035  -21.9591  -16.1514 H   0  0  0  0  0  0  0  0  0  0  0  0
   25.2791  -20.2890  -14.6920 H   0  0  0  0  0  0  0  0  0  0  0  0
   20.9753  -19.5926  -16.8686 H   0  0  0  0  0  0  0  0  0  0  0  0
   24.4461  -14.8700  -14.1356 H   0  0  0  0  0  0  0  0  0  0  0  0
   23.9811  -12.7549  -13.0353 H   0  0  0  0  0  0  0  0  0  0  0  0
   20.1752  -14.1493  -11.9345 H   0  0  0  0  0  0  0  0  0  0  0  0
   20.6330  -16.2680  -13.0281 H   0  0  0  0  0  0  0  0  0  0  0  0
   24.0991  -17.6110  -11.4771 H   0  0  0  0  0  0  0  0  0  0  0  0
   26.1037  -17.4096  -10.1720 H   0  0  0  0  0  0  0  0  0  0  0  0
   28.4385  -17.6317  -13.5132 H   0  0  0  0  0  0  0  0  0  0  0  0
   26.5102  -17.8407  -14.9278 H   0  0  0  0  0  0  0  0  0  0  0  0
  1  2  1  0
  2  3  2  0
  2 25  1  0
  3  4  1  0
  3 26  1  0
  4  5  1  0
  5 17  1  0
  5  6  2  0
  6 10  1  0
  6  7  1  0
  7  8  2  0
  8  9  1  0
  8  4  1  0
  9  1  2  0
  9 27  1  0
 10 11  2  0
 11 12  1  0
 11 28  1  0
 12 13  2  0
 12 29  1  0
 13 14  1  0
 13 15  1  0
 15 16  2  0
 15 30  1  0
 16 10  1  0
 16 31  1  0
 17 18  2  0
 18 19  1  0
 18 32  1  0
 19 20  2  0
 19 33  1  0
 20 21  1  0
 21 22  2  0
 21 34  1  0
 22 17  1  0
 22 35  1  0
 23 24  3  0
 24  1  1  0
M  END
>  <minimizedAffinity>  (8) 
-9.70938

>  <mol_id>  (8) 
69135

>  <source_index>  (8) 
7

>  <layer>  (8) 
L3

>  <uniprot>  (8) 
A0A1D8PKB4

>  <paff>  (8) 
6.8860999999999999

>  <smiles>  (8) 
N#Cc1ccn2c(-c3ccncc3)c(-c3ccc(F)cc3)nc2c1

$$$$
L3:A0A1D8PKB4:121070
     RDKit          3D

 33 36  0  0  0  0  0  0  0  0999 V2000
   23.9861  -17.6880  -14.2096 C   0  0  0  0  0  0  0  0  0  0  0  0
   24.4298  -18.3752  -15.3160 N   0  0  0  0  0  0  0  0  0  0  0  0
   23.5594  -18.4211  -16.3393 N   0  0  0  0  0  0  0  0  0  0  0  0
   22.5250  -17.7109  -15.8903 C   0  0  0  0  0  0  0  0  0  0  0  0
   22.7289  -17.2301  -14.5764 C   0  0  0  0  0  0  0  0  0  0  0  0
   25.3321  -18.8320  -15.4057 H   0  0  0  0  0  0  0  0  0  0  0  0
   21.8457  -16.4040  -13.7783 C   0  0  0  0  0  0  0  0  0  0  0  0
   20.6119  -16.9386  -13.4068 C   0  0  0  0  0  0  0  0  0  0  0  0
   19.7715  -16.1564  -12.6456 C   0  0  0  0  0  0  0  0  0  0  0  0
   20.0751  -14.9066  -12.2406 N   0  0  0  0  0  0  0  0  0  0  0  0
   21.2669  -14.3917  -12.5889 C   0  0  0  0  0  0  0  0  0  0  0  0
   21.5771  -13.1060  -12.1660 C   0  0  0  0  0  0  0  0  0  0  0  0
   22.7898  -12.4927  -12.4882 C   0  0  0  0  0  0  0  0  0  0  0  0
   23.7228  -13.1754  -13.2546 C   0  0  0  0  0  0  0  0  0  0  0  0
   23.4374  -14.4675  -13.6922 C   0  0  0  0  0  0  0  0  0  0  0  0
   22.2098  -15.0981  -13.3665 C   0  0  0  0  0  0  0  0  0  0  0  0
   26.6493  -17.4736  -10.9681 C   0  0  0  0  0  0  0  0  0  0  0  0
   25.2963  -17.3205  -10.6959 C   0  0  0  0  0  0  0  0  0  0  0  0
   24.3742  -17.3834  -11.7395 C   0  0  0  0  0  0  0  0  0  0  0  0
   24.8396  -17.5953  -13.0304 C   0  0  0  0  0  0  0  0  0  0  0  0
   26.1580  -17.7574  -13.3134 N   0  0  0  0  0  0  0  0  0  0  0  0
   27.0280  -17.6894  -12.2809 C   0  0  0  0  0  0  0  0  0  0  0  0
   21.6704  -17.5318  -16.4403 H   0  0  0  0  0  0  0  0  0  0  0  0
   20.3371  -17.8911  -13.6935 H   0  0  0  0  0  0  0  0  0  0  0  0
   18.8579  -16.5491  -12.3697 H   0  0  0  0  0  0  0  0  0  0  0  0
   20.8904  -12.5877  -11.5961 H   0  0  0  0  0  0  0  0  0  0  0  0
   22.9908  -11.5360  -12.1576 H   0  0  0  0  0  0  0  0  0  0  0  0
   24.6212  -12.7301  -13.4989 H   0  0  0  0  0  0  0  0  0  0  0  0
   24.1317  -14.9742  -14.2633 H   0  0  0  0  0  0  0  0  0  0  0  0
   27.3516  -17.4277  -10.2133 H   0  0  0  0  0  0  0  0  0  0  0  0
   24.9757  -17.1613   -9.7280 H   0  0  0  0  0  0  0  0  0  0  0  0
   23.3645  -17.2745  -11.5560 H   0  0  0  0  0  0  0  0  0  0  0  0
   28.0332  -17.8052  -12.4840 H   0  0  0  0  0  0  0  0  0  0  0  0
  1  2  1  0
  2  3  1  0
  2  6  1  0
  3  4  2  0
  4  5  1  0
  4 23  1  0
  5  7  1  0
  5  1  2  0
  7  8  2  0
  8  9  1  0
  8 24  1  0
  9 10  2  0
  9 25  1  0
 10 11  1  0
 11 12  2  0
 12 13  1  0
 12 26  1  0
 13 14  2  0
 13 27  1  0
 14 15  1  0
 14 28  1  0
 15 16  2  0
 15 29  1  0
 16  7  1  0
 16 11  1  0
 17 18  2  0
 17 30  1  0
 18 19  1  0
 18 31  1  0
 19 20  2  0
 19 32  1  0
 20  1  1  0
 20 21  1  0
 21 22  2  0
 22 17  1  0
 22 33  1  0
M  END
>  <minimizedAffinity>  (9) 
-8.66517

>  <mol_id>  (9) 
121070

>  <source_index>  (9) 
8

>  <layer>  (9) 
L3

>  <uniprot>  (9) 
A0A1D8PKB4

>  <paff>  (9) 
6.8239000000000001

>  <smiles>  (9) 
c1ccc(-c2[nH]ncc2-c2ccnc3ccccc23)nc1

$$$$
L3:A0A1D8PKB4:127503
     RDKit          3D

 56 60  0  0  0  0  0  0  0  0999 V2000
   22.1842  -17.1383  -14.1434 C   0  0  0  0  0  0  0  0  0  0  0  0
   22.0190  -18.1888  -15.0668 C   0  0  0  0  0  0  0  0  0  0  0  0
   20.9137  -18.2465  -15.9124 C   0  0  0  0  0  0  0  0  0  0  0  0
   19.9820  -17.2302  -15.8026 C   0  0  0  0  0  0  0  0  0  0  0  0
   20.0864  -16.1984  -14.9329 N   0  0  0  0  0  0  0  0  0  0  0  0
   21.1849  -16.1500  -14.1294 C   0  0  0  0  0  0  0  0  0  0  0  0
   27.7859  -18.5637  -14.1337 C   0  0  0  0  0  0  0  0  0  0  0  0
   27.0727  -18.0342  -12.9462 C   0  0  0  0  0  0  0  0  0  0  0  0
   27.7217  -17.8589  -11.7879 N   0  0  0  0  0  0  0  0  0  0  0  0
   26.7796  -17.3719  -10.9629 N   0  0  0  0  0  0  0  0  0  0  0  0
   25.5458  -17.2317  -11.5386 C   0  0  0  0  0  0  0  0  0  0  0  0
   24.3292  -16.7748  -11.0283 C   0  0  0  0  0  0  0  0  0  0  0  0
   23.2382  -16.7562  -11.9067 C   0  0  0  0  0  0  0  0  0  0  0  0
   23.3510  -17.1682  -13.2458 C   0  0  0  0  0  0  0  0  0  0  0  0
   24.5968  -17.6314  -13.7170 C   0  0  0  0  0  0  0  0  0  0  0  0
   25.7054  -17.6588  -12.8500 C   0  0  0  0  0  0  0  0  0  0  0  0
   27.0442  -17.1533  -10.0095 H   0  0  0  0  0  0  0  0  0  0  0  0
   21.1941  -14.9779  -13.2642 C   0  0  0  0  0  0  0  0  0  0  0  0
   22.1606  -13.9335  -13.1872 C   0  0  0  0  0  0  0  0  0  0  0  0
   21.7483  -13.0893  -12.1842 C   0  0  0  0  0  0  0  0  0  0  0  0
   20.6065  -13.5531  -11.6165 O   0  0  0  0  0  0  0  0  0  0  0  0
   20.2868  -14.7076  -12.2599 C   0  0  0  0  0  0  0  0  0  0  0  0
   20.8744  -19.3170  -16.7556 O   0  0  0  0  0  0  0  0  0  0  0  0
   20.8272  -20.6157  -16.1518 C   0  0  0  0  0  0  0  0  0  0  0  0
   21.7271  -21.5914  -16.9440 C   0  0  1  0  0  0  0  0  0  0  0  0
   21.0118  -22.0679  -18.1445 N   0  0  0  0  0  0  0  0  0  0  0  0
   21.6436  -22.6507  -18.6967 H   0  0  0  0  0  0  0  0  0  0  0  0
   20.7892  -21.2625  -18.7316 H   0  0  0  0  0  0  0  0  0  0  0  0
   23.0754  -20.9227  -17.3023 C   0  0  0  0  0  0  0  0  0  0  0  0
   24.2657  -21.5381  -16.6009 C   0  0  0  0  0  0  0  0  0  0  0  0
   24.8485  -20.9031  -15.4954 C   0  0  0  0  0  0  0  0  0  0  0  0
   25.9403  -21.4783  -14.8435 C   0  0  0  0  0  0  0  0  0  0  0  0
   26.4609  -22.6913  -15.2900 C   0  0  0  0  0  0  0  0  0  0  0  0
   25.8913  -23.3297  -16.3898 C   0  0  0  0  0  0  0  0  0  0  0  0
   24.7994  -22.7565  -17.0433 C   0  0  0  0  0  0  0  0  0  0  0  0
   22.7328  -18.9324  -15.1180 H   0  0  0  0  0  0  0  0  0  0  0  0
   19.1568  -17.2605  -16.4216 H   0  0  0  0  0  0  0  0  0  0  0  0
   28.8091  -18.7496  -13.8817 H   0  0  0  0  0  0  0  0  0  0  0  0
   27.7384  -17.8473  -14.9271 H   0  0  0  0  0  0  0  0  0  0  0  0
   27.3248  -19.4763  -14.4491 H   0  0  0  0  0  0  0  0  0  0  0  0
   24.2378  -16.4648  -10.0482 H   0  0  0  0  0  0  0  0  0  0  0  0
   22.3228  -16.4297  -11.5597 H   0  0  0  0  0  0  0  0  0  0  0  0
   24.6954  -17.9491  -14.6939 H   0  0  0  0  0  0  0  0  0  0  0  0
   23.0055  -13.8311  -13.7709 H   0  0  0  0  0  0  0  0  0  0  0  0
   22.2376  -12.2253  -11.9028 H   0  0  0  0  0  0  0  0  0  0  0  0
   19.4752  -15.3016  -12.0285 H   0  0  0  0  0  0  0  0  0  0  0  0
   19.8194  -20.9752  -16.1597 H   0  0  0  0  0  0  0  0  0  0  0  0
   21.1774  -20.5504  -15.1429 H   0  0  0  0  0  0  0  0  0  0  0  0
   21.9510  -22.4411  -16.3335 H   0  0  0  0  0  0  0  0  0  0  0  0
   23.0218  -19.8887  -17.0322 H   0  0  0  0  0  0  0  0  0  0  0  0
   23.2245  -21.0636  -18.3524 H   0  0  0  0  0  0  0  0  0  0  0  0
   24.4676  -20.0041  -15.1613 H   0  0  0  0  0  0  0  0  0  0  0  0
   26.3626  -21.0046  -14.0297 H   0  0  0  0  0  0  0  0  0  0  0  0
   27.2675  -23.1164  -14.8066 H   0  0  0  0  0  0  0  0  0  0  0  0
   26.2773  -24.2275  -16.7215 H   0  0  0  0  0  0  0  0  0  0  0  0
   24.3820  -23.2330  -17.8580 H   0  0  0  0  0  0  0  0  0  0  0  0
  1  2  2  0
  2  3  1  0
  2 36  1  0
  3 23  1  0
  3  4  2  0
  4  5  1  0
  4 37  1  0
  5  6  2  0
  6 18  1  0
  6  1  1  0
  7  8  1  0
  7 38  1  0
  7 39  1  0
  7 40  1  0
  8  9  2  0
  9 10  1  0
 10 11  1  0
 10 17  1  0
 11 12  2  0
 12 13  1  0
 12 41  1  0
 13 14  2  0
 13 42  1  0
 14  1  1  0
 14 15  1  0
 15 16  2  0
 15 43  1  0
 16  8  1  0
 16 11  1  0
 18 19  1  0
 19 20  2  0
 19 44  1  0
 20 21  1  0
 20 45  1  0
 21 22  1  0
 22 18  2  0
 22 46  1  0
 23 24  1  0
 24 25  1  0
 24 47  1  0
 24 48  1  0
 25 26  1  0
 25 29  1  0
 25 49  1  1
 26 27  1  0
 26 28  1  0
 29 30  1  0
 29 50  1  0
 29 51  1  0
 30 31  2  0
 31 32  1  0
 31 52  1  0
 32 33  2  0
 32 53  1  0
 33 34  1  0
 33 54  1  0
 34 35  2  0
 34 55  1  0
 35 30  1  0
 35 56  1  0
M  END
>  <minimizedAffinity>  (10) 
-9.78738

>  <mol_id>  (10) 
127503

>  <source_index>  (10) 
9

>  <layer>  (10) 
L3

>  <uniprot>  (10) 
A0A1D8PKB4

>  <paff>  (10) 
6.7958999999999996

>  <smiles>  (10) 
Cc1n[nH]c2ccc(-c3cc(OC[C@@H](N)Cc4ccccc4)cnc3-c3ccoc3)cc12

$$$$
