L2:Q6P179:6435
     RDKit          3D

 69 71  0  0  0  0  0  0  0  0999 V2000
   16.3613    5.3144   62.4965 C   0  0  0  0  0  0  0  0  0  0  0  0
   17.3142    4.6361   63.2332 C   0  0  0  0  0  0  0  0  0  0  0  0
   16.7648    4.2958   64.4395 N   0  0  0  0  0  0  0  0  0  0  0  0
   15.4599    4.7244   64.5062 C   0  0  0  0  0  0  0  0  0  0  0  0
   14.5152    4.5744   65.5296 C   0  0  0  0  0  0  0  0  0  0  0  0
   13.2483    5.1235   65.3231 C   0  0  0  0  0  0  0  0  0  0  0  0
   12.9580    5.8133   64.1516 C   0  0  0  0  0  0  0  0  0  0  0  0
   13.8997    5.9419   63.1267 C   0  0  0  0  0  0  0  0  0  0  0  0
   15.1825    5.3854   63.3080 C   0  0  0  0  0  0  0  0  0  0  0  0
   17.2406    3.7960   65.1782 H   0  0  0  0  0  0  0  0  0  0  0  0
   16.5347    5.8632   61.1106 C   0  0  0  0  0  0  0  0  0  0  0  0
   16.1042    7.3298   60.9913 C   0  0  0  0  0  0  0  0  0  0  0  0
   17.2971    9.2877   60.0687 C   0  0  0  0  0  0  0  0  0  0  0  0
   16.4579    9.4530   59.1880 O   0  0  0  0  0  0  0  0  0  0  0  0
   17.2311    8.2463   60.9710 N   0  0  0  0  0  0  0  0  0  0  0  0
   17.8462    8.2317   61.7739 H   0  0  0  0  0  0  0  0  0  0  0  0
   18.4645   10.2383   60.3010 C   0  0  1  0  0  0  0  0  0  0  0  0
   18.1820   11.2179   61.4245 C   0  0  0  0  0  0  0  0  0  0  0  0
   18.9733   11.5146   62.3163 O   0  0  0  0  0  0  0  0  0  0  0  0
   16.9152   11.7698   61.3847 N   0  0  0  0  0  0  0  0  0  0  0  0
   16.6809   12.7799   62.3509 O   0  0  0  0  0  0  0  0  0  0  0  0
   16.3978   11.8671   60.5169 H   0  0  0  0  0  0  0  0  0  0  0  0
   17.5261   12.7945   62.8537 H   0  0  0  0  0  0  0  0  0  0  0  0
   19.7725    9.4778   60.6031 C   0  0  0  0  0  0  0  0  0  0  0  0
   20.3599    8.8257   59.3426 C   0  0  0  0  0  0  0  0  0  0  0  0
   19.3873    6.5541   58.7097 C   0  0  0  0  0  0  0  0  0  0  0  0
   20.5270    7.2948   59.4092 C   0  0  0  0  0  0  0  0  0  0  0  0
   20.6975    6.7859   60.8408 C   0  0  0  0  0  0  0  0  0  0  0  0
   11.6965    6.3192   63.9963 O   0  0  0  0  0  0  0  0  0  0  0  0
   11.6380    7.2309   62.8892 C   0  0  0  0  0  0  0  0  0  0  0  0
   11.3243    8.6458   63.4147 C   0  0  0  0  0  0  0  0  0  0  0  0
   11.8584    9.7401   62.5808 N   0  0  0  0  0  0  0  0  0  0  0  0
   10.9311   10.1258   61.4948 C   0  0  0  0  0  0  0  0  0  0  0  0
   11.3772    9.6510   60.1033 C   0  0  0  0  0  0  0  0  0  0  0  0
   12.6733   10.1359   59.7293 O   0  0  0  0  0  0  0  0  0  0  0  0
   13.5381   10.3497   60.8526 C   0  0  0  0  0  0  0  0  0  0  0  0
   13.2015    9.4435   62.0444 C   0  0  0  0  0  0  0  0  0  0  0  0
   18.2760    4.4227   62.9259 H   0  0  0  0  0  0  0  0  0  0  0  0
   14.7470    4.0767   66.4034 H   0  0  0  0  0  0  0  0  0  0  0  0
   12.5205    5.0163   66.0469 H   0  0  0  0  0  0  0  0  0  0  0  0
   13.6603    6.4355   62.2526 H   0  0  0  0  0  0  0  0  0  0  0  0
   17.5672    5.7874   60.8401 H   0  0  0  0  0  0  0  0  0  0  0  0
   15.9090    5.2909   60.4581 H   0  0  0  0  0  0  0  0  0  0  0  0
   15.5487    7.4506   60.0848 H   0  0  0  0  0  0  0  0  0  0  0  0
   15.5136    7.5637   61.8523 H   0  0  0  0  0  0  0  0  0  0  0  0
   18.5863   10.7860   59.3899 H   0  0  0  0  0  0  0  0  0  0  0  0
   20.4883   10.1656   61.0024 H   0  0  0  0  0  0  0  0  0  0  0  0
   19.5503    8.7016   61.3052 H   0  0  0  0  0  0  0  0  0  0  0  0
   19.7126    9.0521   58.5212 H   0  0  0  0  0  0  0  0  0  0  0  0
   21.3462    9.2264   59.2347 H   0  0  0  0  0  0  0  0  0  0  0  0
   19.5492    5.4990   58.7836 H   0  0  0  0  0  0  0  0  0  0  0  0
   19.3566    6.8388   57.6787 H   0  0  0  0  0  0  0  0  0  0  0  0
   18.4583    6.8060   59.1771 H   0  0  0  0  0  0  0  0  0  0  0  0
   21.4312    7.0807   58.8787 H   0  0  0  0  0  0  0  0  0  0  0  0
   19.8068    6.9859   61.3989 H   0  0  0  0  0  0  0  0  0  0  0  0
   21.5256    7.2840   61.3002 H   0  0  0  0  0  0  0  0  0  0  0  0
   20.8795    5.7316   60.8253 H   0  0  0  0  0  0  0  0  0  0  0  0
   10.8697    6.9222   62.2114 H   0  0  0  0  0  0  0  0  0  0  0  0
   12.5781    7.2371   62.3782 H   0  0  0  0  0  0  0  0  0  0  0  0
   11.7420    8.7384   64.3954 H   0  0  0  0  0  0  0  0  0  0  0  0
   10.2591    8.7459   63.4028 H   0  0  0  0  0  0  0  0  0  0  0  0
   10.8547   11.1930   61.4791 H   0  0  0  0  0  0  0  0  0  0  0  0
    9.9941    9.6521   61.7011 H   0  0  0  0  0  0  0  0  0  0  0  0
   10.6648    9.9941   59.3824 H   0  0  0  0  0  0  0  0  0  0  0  0
   11.4345    8.5830   60.1352 H   0  0  0  0  0  0  0  0  0  0  0  0
   13.4490   11.3698   61.1631 H   0  0  0  0  0  0  0  0  0  0  0  0
   14.5344   10.1147   60.5410 H   0  0  0  0  0  0  0  0  0  0  0  0
   13.9269    9.5981   62.8157 H   0  0  0  0  0  0  0  0  0  0  0  0
   13.2151    8.4270   61.7104 H   0  0  0  0  0  0  0  0  0  0  0  0
  1  2  2  0
  2  3  1  0
  2 38  1  0
  3  4  1  0
  3 10  1  0
  4  5  2  0
  5  6  1  0
  5 39  1  0
  6  7  2  0
  6 40  1  0
  7 29  1  0
  7  8  1  0
  8  9  2  0
  8 41  1  0
  9  1  1  0
  9  4  1  0
 11  1  1  0
 11 42  1  0
 11 43  1  0
 12 11  1  0
 12 44  1  0
 12 45  1  0
 13 14  2  0
 13 15  1  0
 15 12  1  0
 15 16  1  0
 17 18  1  0
 17 13  1  0
 17 46  1  6
 18 19  2  0
 18 20  1  0
 20 21  1  0
 20 22  1  0
 21 23  1  0
 24 17  1  0
 24 47  1  0
 24 48  1  0
 25 24  1  0
 25 49  1  0
 25 50  1  0
 26 27  1  0
 26 51  1  0
 26 52  1  0
 26 53  1  0
 27 28  1  0
 27 25  1  0
 27 54  1  0
 28 55  1  0
 28 56  1  0
 28 57  1  0
 29 30  1  0
 30 31  1  0
 30 58  1  0
 30 59  1  0
 31 32  1  0
 31 60  1  0
 31 61  1  0
 32 33  1  0
 33 34  1  0
 33 62  1  0
 33 63  1  0
 34 35  1  0
 34 64  1  0
 34 65  1  0
 35 36  1  0
 36 37  1  0
 36 66  1  0
 36 67  1  0
 37 32  1  0
 37 68  1  0
 37 69  1  0
M  END
>  <minimizedAffinity>  (1) 
-9.01608

>  <mol_id>  (1) 
6435

>  <source_index>  (1) 
0

>  <layer>  (1) 
L2

>  <uniprot>  (1) 
Q6P179

>  <paff>  (1) 
6.6021000000000001

>  <smiles>  (1) 
CC(C)CCC(C(=O)NO)C(=O)NCCc1c[nH]c2ccc(OCCN3CCOCC3)cc12

$$$$
L2:Q6P179:11256
     RDKit          3D

 58 61  0  0  0  0  0  0  0  0999 V2000
   14.8652   10.1580   60.4575 N   0  0  0  0  0  0  0  0  0  0  0  0
   13.7758   10.3054   61.2665 C   0  0  0  0  0  0  0  0  0  0  0  0
   12.7474   10.5999   60.3947 C   0  0  0  0  0  0  0  0  0  0  0  0
   13.2303   10.5686   59.1136 N   0  0  0  0  0  0  0  0  0  0  0  0
   14.5213   10.2751   59.1628 N   0  0  0  0  0  0  0  0  0  0  0  0
   16.2207    9.7643   60.7967 C   0  0  2  0  0  0  0  0  0  0  0  0
   17.0165   11.0161   61.1262 C   0  0  0  0  0  0  0  0  0  0  0  0
   18.0093   11.3836   60.4957 O   0  0  0  0  0  0  0  0  0  0  0  0
   16.5516   11.7257   62.2176 N   0  0  0  0  0  0  0  0  0  0  0  0
   17.2144   12.9538   62.4586 O   0  0  0  0  0  0  0  0  0  0  0  0
   15.5742   11.6831   62.5086 H   0  0  0  0  0  0  0  0  0  0  0  0
   17.9300   12.9521   61.7846 H   0  0  0  0  0  0  0  0  0  0  0  0
   16.9150    8.9344   59.7038 C   0  0  0  0  0  0  0  0  0  0  0  0
   19.4738    5.8062   61.2548 C   0  0  0  0  0  0  0  0  0  0  0  0
   20.0313    6.9642   60.7137 C   0  0  0  0  0  0  0  0  0  0  0  0
   19.2051    7.9837   60.2263 C   0  0  0  0  0  0  0  0  0  0  0  0
   17.8109    7.8553   60.2685 C   0  0  0  0  0  0  0  0  0  0  0  0
   17.2562    6.6932   60.8173 C   0  0  0  0  0  0  0  0  0  0  0  0
   18.0843    5.6811   61.3082 C   0  0  0  0  0  0  0  0  0  0  0  0
   21.5586    4.6902   61.4923 C   0  0  0  0  0  0  0  0  0  0  0  0
   20.1630    4.7398   61.7613 O   0  0  0  0  0  0  0  0  0  0  0  0
   11.3182   10.8960   60.6774 C   0  0  0  0  0  0  0  0  0  0  0  0
   10.5679    9.6356   60.6991 N   0  0  0  0  0  0  0  0  0  0  0  0
   10.7084    9.0146   59.9037 H   0  0  0  0  0  0  0  0  0  0  0  0
   10.5839    8.8001   62.1544 S   0  0  0  0  0  0  0  0  0  0  0  0
   11.1864    9.6464   63.1599 O   0  0  0  0  0  0  0  0  0  0  0  0
    9.2843    8.1910   62.3227 O   0  0  0  0  0  0  0  0  0  0  0  0
   11.7099    7.4330   61.9844 C   0  0  0  0  0  0  0  0  0  0  0  0
   12.0706    6.6601   60.9008 C   0  0  0  0  0  0  0  0  0  0  0  0
   13.0245    5.6604   61.2478 C   0  0  0  0  0  0  0  0  0  0  0  0
   13.3757    5.7007   62.5851 C   0  0  0  0  0  0  0  0  0  0  0  0
   12.5196    6.9416   63.4064 S   0  0  0  0  0  0  0  0  0  0  0  0
   14.3143    4.8357   63.3126 C   0  0  0  0  0  0  0  0  0  0  0  0
   14.0426    3.4753   63.5238 C   0  0  0  0  0  0  0  0  0  0  0  0
   14.9390    2.6695   64.2323 C   0  0  0  0  0  0  0  0  0  0  0  0
   16.1178    3.2145   64.7395 C   0  0  0  0  0  0  0  0  0  0  0  0
   16.3991    4.5641   64.5419 C   0  0  0  0  0  0  0  0  0  0  0  0
   15.5014    5.3704   63.8349 C   0  0  0  0  0  0  0  0  0  0  0  0
   13.7314   10.2170   62.2937 H   0  0  0  0  0  0  0  0  0  0  0  0
   16.1723    9.1156   61.6463 H   0  0  0  0  0  0  0  0  0  0  0  0
   16.1647    8.4728   59.0965 H   0  0  0  0  0  0  0  0  0  0  0  0
   17.5308    9.6001   59.1359 H   0  0  0  0  0  0  0  0  0  0  0  0
   21.0570    7.0700   60.6724 H   0  0  0  0  0  0  0  0  0  0  0  0
   19.6275    8.8387   59.8318 H   0  0  0  0  0  0  0  0  0  0  0  0
   16.2309    6.5837   60.8594 H   0  0  0  0  0  0  0  0  0  0  0  0
   17.6641    4.8309   61.7151 H   0  0  0  0  0  0  0  0  0  0  0  0
   21.9773    3.8134   61.9405 H   0  0  0  0  0  0  0  0  0  0  0  0
   22.0314    5.5594   61.8995 H   0  0  0  0  0  0  0  0  0  0  0  0
   21.7171    4.6605   60.4345 H   0  0  0  0  0  0  0  0  0  0  0  0
   10.9257   11.5347   59.9139 H   0  0  0  0  0  0  0  0  0  0  0  0
   11.2297   11.3873   61.6238 H   0  0  0  0  0  0  0  0  0  0  0  0
   11.6934    6.7907   59.9491 H   0  0  0  0  0  0  0  0  0  0  0  0
   13.4113    4.9803   60.5748 H   0  0  0  0  0  0  0  0  0  0  0  0
   13.1716    3.0651   63.1521 H   0  0  0  0  0  0  0  0  0  0  0  0
   14.7279    1.6702   64.3800 H   0  0  0  0  0  0  0  0  0  0  0  0
   16.7806    2.6191   65.2603 H   0  0  0  0  0  0  0  0  0  0  0  0
   17.2707    4.9695   64.9175 H   0  0  0  0  0  0  0  0  0  0  0  0
   15.7148    6.3705   63.6958 H   0  0  0  0  0  0  0  0  0  0  0  0
  1  2  1  0
  2  3  2  0
  2 39  1  0
  3 22  1  0
  3  4  1  0
  4  5  2  0
  5  1  1  0
  6  7  1  0
  6  1  1  0
  6 40  1  1
  7  8  2  0
  7  9  1  0
  9 10  1  0
  9 11  1  0
 10 12  1  0
 13  6  1  0
 13 41  1  0
 13 42  1  0
 14 15  2  0
 15 16  1  0
 15 43  1  0
 16 17  2  0
 16 44  1  0
 17 13  1  0
 17 18  1  0
 18 19  2  0
 18 45  1  0
 19 14  1  0
 19 46  1  0
 20 21  1  0
 20 47  1  0
 20 48  1  0
 20 49  1  0
 21 14  1  0
 22 23  1  0
 22 50  1  0
 22 51  1  0
 23 25  1  0
 23 24  1  0
 25 26  2  0
 25 27  2  0
 25 28  1  0
 28 29  2  0
 29 30  1  0
 29 52  1  0
 30 31  2  0
 30 53  1  0
 31 32  1  0
 31 33  1  0
 32 28  1  0
 33 34  2  0
 34 35  1  0
 34 54  1  0
 35 36  2  0
 35 55  1  0
 36 37  1  0
 36 56  1  0
 37 38  2  0
 37 57  1  0
 38 33  1  0
 38 58  1  0
M  END
>  <minimizedAffinity>  (2) 
-10.12116

>  <mol_id>  (2) 
11256

>  <source_index>  (2) 
1

>  <layer>  (2) 
L2

>  <uniprot>  (2) 
Q6P179

>  <paff>  (2) 
7.7211999999999996

>  <smiles>  (2) 
COc1ccc(C[C@@H](C(=O)NO)n2cc(CNS(=O)(=O)c3ccc(s3)-c3ccccc3)nn2)cc1 |r|

$$$$
L2:Q6P179:27411
     RDKit          3D

 57 60  0  0  0  0  0  0  0  0999 V2000
   21.4398    8.1247   58.9160 N   0  0  0  0  0  0  0  0  0  0  0  0
   22.0325    7.5082   57.8770 N   0  0  0  0  0  0  0  0  0  0  0  0
   22.5958    8.4289   57.1118 N   0  0  0  0  0  0  0  0  0  0  0  0
   22.3616    9.6430   57.6789 C   0  0  0  0  0  0  0  0  0  0  0  0
   21.6312    9.4867   58.8390 C   0  0  0  0  0  0  0  0  0  0  0  0
   20.8183    7.3428   59.9777 C   0  0  2  0  0  0  0  0  0  0  0  0
   21.7499    7.0441   61.1677 C   0  0  0  0  0  0  0  0  0  0  0  0
   22.8215    3.4987   61.5518 O   0  0  0  0  0  0  0  0  0  0  0  0
   22.1441    4.7171   61.7825 N   0  0  0  0  0  0  0  0  0  0  0  0
   22.6090    5.8059   61.0778 C   0  0  0  0  0  0  0  0  0  0  0  0
   23.6030    5.7439   60.3496 O   0  0  0  0  0  0  0  0  0  0  0  0
   23.6496    3.8063   61.1168 H   0  0  0  0  0  0  0  0  0  0  0  0
   21.1998    4.6497   62.1557 H   0  0  0  0  0  0  0  0  0  0  0  0
   19.9208    6.1730   59.4989 C   0  0  0  0  0  0  0  0  0  0  0  0
   18.6759    5.8122   60.2752 C   0  0  0  0  0  0  0  0  0  0  0  0
   17.4134    5.7877   59.6630 C   0  0  0  0  0  0  0  0  0  0  0  0
   16.2682    5.4913   60.4028 C   0  0  0  0  0  0  0  0  0  0  0  0
   16.3746    5.2257   61.7596 C   0  0  0  0  0  0  0  0  0  0  0  0
   15.2352    4.9306   62.4453 O   0  0  0  0  0  0  0  0  0  0  0  0
   17.6087    5.2662   62.3930 C   0  0  0  0  0  0  0  0  0  0  0  0
   18.7513    5.5670   61.6522 C   0  0  0  0  0  0  0  0  0  0  0  0
   15.4853    4.6424   63.3394 H   0  0  0  0  0  0  0  0  0  0  0  0
   21.1103   10.4738   59.8056 C   0  0  0  0  0  0  0  0  0  0  0  0
   19.7103   10.7022   59.4784 N   0  0  0  0  0  0  0  0  0  0  0  0
   19.2680   10.0513   58.8301 H   0  0  0  0  0  0  0  0  0  0  0  0
   18.6906   11.1956   60.7220 S   0  0  0  0  0  0  0  0  0  0  0  0
   18.4777   12.6120   60.5339 O   0  0  0  0  0  0  0  0  0  0  0  0
   19.2229   10.6358   61.9451 O   0  0  0  0  0  0  0  0  0  0  0  0
   17.1040   10.4469   60.4426 C   0  0  0  0  0  0  0  0  0  0  0  0
   16.7227    9.3123   59.7549 C   0  0  0  0  0  0  0  0  0  0  0  0
   15.3177    9.0855   59.8413 C   0  0  0  0  0  0  0  0  0  0  0  0
   14.6488   10.0521   60.5806 C   0  0  0  0  0  0  0  0  0  0  0  0
   15.7536   11.2540   61.1170 S   0  0  0  0  0  0  0  0  0  0  0  0
   13.2110   10.1115   60.8997 C   0  0  0  0  0  0  0  0  0  0  0  0
   12.2669   10.8048   60.1486 C   0  0  0  0  0  0  0  0  0  0  0  0
   10.9383   10.8049   60.5676 C   0  0  0  0  0  0  0  0  0  0  0  0
   10.5863   10.1134   61.7194 C   0  0  0  0  0  0  0  0  0  0  0  0
   11.5835    9.4486   62.4104 C   0  0  0  0  0  0  0  0  0  0  0  0
   12.8788    9.4337   62.0310 N   0  0  0  0  0  0  0  0  0  0  0  0
   22.6826   10.5468   57.2980 H   0  0  0  0  0  0  0  0  0  0  0  0
   20.0925    8.0043   60.4027 H   0  0  0  0  0  0  0  0  0  0  0  0
   22.4047    7.8826   61.2822 H   0  0  0  0  0  0  0  0  0  0  0  0
   21.0935    6.8649   61.9935 H   0  0  0  0  0  0  0  0  0  0  0  0
   20.5371    5.2985   59.4787 H   0  0  0  0  0  0  0  0  0  0  0  0
   19.5360    6.5236   58.5641 H   0  0  0  0  0  0  0  0  0  0  0  0
   17.3311    5.9911   58.6546 H   0  0  0  0  0  0  0  0  0  0  0  0
   15.3451    5.4698   59.9418 H   0  0  0  0  0  0  0  0  0  0  0  0
   17.6804    5.0752   63.4046 H   0  0  0  0  0  0  0  0  0  0  0  0
   19.6671    5.6096   62.1261 H   0  0  0  0  0  0  0  0  0  0  0  0
   21.6590   11.3890   59.7262 H   0  0  0  0  0  0  0  0  0  0  0  0
   21.2113   10.1127   60.8077 H   0  0  0  0  0  0  0  0  0  0  0  0
   17.3761    8.7016   59.2401 H   0  0  0  0  0  0  0  0  0  0  0  0
   14.8447    8.2824   59.3982 H   0  0  0  0  0  0  0  0  0  0  0  0
   12.5467   11.3113   59.2941 H   0  0  0  0  0  0  0  0  0  0  0  0
   10.2220   11.3143   60.0269 H   0  0  0  0  0  0  0  0  0  0  0  0
    9.6089   10.0960   62.0503 H   0  0  0  0  0  0  0  0  0  0  0  0
   11.3218    8.9341   63.2658 H   0  0  0  0  0  0  0  0  0  0  0  0
  1  2  1  0
  2  3  2  0
  3  4  1  0
  4  5  2  0
  4 40  1  0
  5 23  1  0
  5  1  1  0
  6 14  1  0
  6  1  1  0
  6 41  1  1
  7  6  1  0
  7 42  1  0
  7 43  1  0
  8  9  1  0
  8 12  1  0
  9 10  1  0
  9 13  1  0
 10 11  2  0
 10  7  1  0
 14 15  1  0
 14 44  1  0
 14 45  1  0
 15 16  2  0
 16 17  1  0
 16 46  1  0
 17 18  2  0
 17 47  1  0
 18 19  1  0
 18 20  1  0
 19 22  1  0
 20 21  2  0
 20 48  1  0
 21 15  1  0
 21 49  1  0
 23 24  1  0
 23 50  1  0
 23 51  1  0
 24 26  1  0
 24 25  1  0
 26 27  2  0
 26 28  2  0
 26 29  1  0
 29 30  2  0
 30 31  1  0
 30 52  1  0
 31 32  2  0
 31 53  1  0
 32 33  1  0
 32 34  1  0
 33 29  1  0
 34 35  2  0
 35 36  1  0
 35 54  1  0
 36 37  2  0
 36 55  1  0
 37 38  1  0
 37 56  1  0
 38 39  2  0
 38 57  1  0
 39 34  1  0
M  END
>  <minimizedAffinity>  (3) 
-9.98833

>  <mol_id>  (3) 
27411

>  <source_index>  (3) 
2

>  <layer>  (3) 
L2

>  <uniprot>  (3) 
Q6P179

>  <paff>  (3) 
6.0705999999999998

>  <smiles>  (3) 
ONC(=O)C[C@H](Cc1ccc(O)cc1)n1nncc1CNS(=O)(=O)c1ccc(s1)-c1ccccn1 |r|

$$$$
L2:Q6P179:75054
     RDKit          3D

 65 68  0  0  0  0  0  0  0  0999 V2000
   13.6912    6.5747   58.6972 C   0  0  0  0  0  0  0  0  0  0  0  0
   14.4678    8.5978   59.8913 C   0  0  0  0  0  0  0  0  0  0  0  0
   15.4398    8.7505   59.1558 O   0  0  0  0  0  0  0  0  0  0  0  0
   13.5832    7.5509   59.7681 N   0  0  0  0  0  0  0  0  0  0  0  0
   12.6871    7.6231   60.2449 H   0  0  0  0  0  0  0  0  0  0  0  0
   14.1810    9.5678   61.0243 C   0  0  1  0  0  0  0  0  0  0  0  0
   16.2095   10.4282   62.0176 O   0  0  0  0  0  0  0  0  0  0  0  0
   15.3236   10.5493   61.1703 C   0  0  0  0  0  0  0  0  0  0  0  0
   15.2927   11.6083   60.2920 N   0  0  0  0  0  0  0  0  0  0  0  0
   16.2817   12.5972   60.5154 O   0  0  0  0  0  0  0  0  0  0  0  0
   14.4209   11.9440   59.8914 H   0  0  0  0  0  0  0  0  0  0  0  0
   16.7847   12.2334   61.2762 H   0  0  0  0  0  0  0  0  0  0  0  0
   12.8448   10.2958   60.7850 C   0  0  0  0  0  0  0  0  0  0  0  0
   11.7152    9.8553   61.7364 C   0  0  0  0  0  0  0  0  0  0  0  0
   10.4091    9.6325   60.9679 C   0  0  0  0  0  0  0  0  0  0  0  0
    9.2724    9.2452   61.9161 C   0  0  0  0  0  0  0  0  0  0  0  0
    9.7254    8.6097   63.1131 O   0  0  0  0  0  0  0  0  0  0  0  0
   10.8388    7.7550   62.8887 C   0  0  0  0  0  0  0  0  0  0  0  0
   12.0705    8.5822   62.5261 C   0  0  0  0  0  0  0  0  0  0  0  0
   13.9211    5.1529   59.2171 C   0  0  0  0  0  0  0  0  0  0  0  0
   14.4434    5.1465   60.6191 C   0  0  0  0  0  0  0  0  0  0  0  0
   13.6998    4.9763   61.7703 C   0  0  0  0  0  0  0  0  0  0  0  0
   14.5460    5.0452   62.8438 N   0  0  0  0  0  0  0  0  0  0  0  0
   15.8360    5.2591   62.4193 C   0  0  0  0  0  0  0  0  0  0  0  0
   17.0167    5.4067   63.1547 C   0  0  0  0  0  0  0  0  0  0  0  0
   18.2064    5.6175   62.4448 C   0  0  0  0  0  0  0  0  0  0  0  0
   18.2161    5.6673   61.0522 C   0  0  0  0  0  0  0  0  0  0  0  0
   17.0167    5.5357   60.3396 C   0  0  0  0  0  0  0  0  0  0  0  0
   15.8045    5.3222   61.0273 C   0  0  0  0  0  0  0  0  0  0  0  0
   14.2678    4.9551   63.8108 H   0  0  0  0  0  0  0  0  0  0  0  0
   19.3194    5.8735   60.2678 O   0  0  0  0  0  0  0  0  0  0  0  0
   20.5906    5.9814   60.9156 C   0  0  0  0  0  0  0  0  0  0  0  0
   21.1619    7.3814   60.8802 C   0  0  0  0  0  0  0  0  0  0  0  0
   20.3001    8.4883   60.8933 C   0  0  0  0  0  0  0  0  0  0  0  0
   20.8125    9.7870   60.8949 C   0  0  0  0  0  0  0  0  0  0  0  0
   22.1903    9.9933   60.8948 C   0  0  0  0  0  0  0  0  0  0  0  0
   23.0562    8.9025   60.8967 C   0  0  0  0  0  0  0  0  0  0  0  0
   22.5458    7.6040   60.8952 C   0  0  0  0  0  0  0  0  0  0  0  0
   14.5126    6.8463   58.0675 H   0  0  0  0  0  0  0  0  0  0  0  0
   12.7651    6.5779   58.1613 H   0  0  0  0  0  0  0  0  0  0  0  0
   14.0942    9.0194   61.9390 H   0  0  0  0  0  0  0  0  0  0  0  0
   12.5323   10.1048   59.7796 H   0  0  0  0  0  0  0  0  0  0  0  0
   13.0195   11.3351   60.9701 H   0  0  0  0  0  0  0  0  0  0  0  0
   11.5864   10.6515   62.4395 H   0  0  0  0  0  0  0  0  0  0  0  0
   10.5525    8.8476   60.2550 H   0  0  0  0  0  0  0  0  0  0  0  0
   10.1448   10.5444   60.4745 H   0  0  0  0  0  0  0  0  0  0  0  0
    8.6161    8.5738   61.4028 H   0  0  0  0  0  0  0  0  0  0  0  0
    8.7793   10.1497   62.2051 H   0  0  0  0  0  0  0  0  0  0  0  0
   10.6140    7.0843   62.0859 H   0  0  0  0  0  0  0  0  0  0  0  0
   11.0399    7.2000   63.7811 H   0  0  0  0  0  0  0  0  0  0  0  0
   12.7246    7.9804   61.9304 H   0  0  0  0  0  0  0  0  0  0  0  0
   12.5378    8.8863   63.4393 H   0  0  0  0  0  0  0  0  0  0  0  0
   14.6297    4.6633   58.5822 H   0  0  0  0  0  0  0  0  0  0  0  0
   12.9804    4.6431   59.2125 H   0  0  0  0  0  0  0  0  0  0  0  0
   12.6801    4.8233   61.8137 H   0  0  0  0  0  0  0  0  0  0  0  0
   17.0118    5.3618   64.1857 H   0  0  0  0  0  0  0  0  0  0  0  0
   19.0910    5.7380   62.9625 H   0  0  0  0  0  0  0  0  0  0  0  0
   17.0207    5.5952   59.3093 H   0  0  0  0  0  0  0  0  0  0  0  0
   21.2775    5.3216   60.4281 H   0  0  0  0  0  0  0  0  0  0  0  0
   20.4457    5.7236   61.9439 H   0  0  0  0  0  0  0  0  0  0  0  0
   19.2787    8.3413   60.9018 H   0  0  0  0  0  0  0  0  0  0  0  0
   20.1702   10.5947   60.8962 H   0  0  0  0  0  0  0  0  0  0  0  0
   22.5689   10.9534   60.8933 H   0  0  0  0  0  0  0  0  0  0  0  0
   24.0769    9.0549   60.8992 H   0  0  0  0  0  0  0  0  0  0  0  0
   23.1929    6.8002   60.9052 H   0  0  0  0  0  0  0  0  0  0  0  0
  1 20  1  0
  1 39  1  0
  1 40  1  0
  2  3  2  0
  2  4  1  0
  4  1  1  0
  4  5  1  0
  6 13  1  0
  6  2  1  0
  6 41  1  1
  7  8  2  0
  8  9  1  0
  8  6  1  0
  9 10  1  0
  9 11  1  0
 10 12  1  0
 13 14  1  0
 13 42  1  0
 13 43  1  0
 14 15  1  0
 14 44  1  0
 15 16  1  0
 15 45  1  0
 15 46  1  0
 16 17  1  0
 16 47  1  0
 16 48  1  0
 17 18  1  0
 18 19  1  0
 18 49  1  0
 18 50  1  0
 19 14  1  0
 19 51  1  0
 19 52  1  0
 20 21  1  0
 20 53  1  0
 20 54  1  0
 21 22  2  0
 22 23  1  0
 22 55  1  0
 23 24  1  0
 23 30  1  0
 24 25  2  0
 25 26  1  0
 25 56  1  0
 26 27  2  0
 26 57  1  0
 27 31  1  0
 27 28  1  0
 28 29  2  0
 28 58  1  0
 29 21  1  0
 29 24  1  0
 31 32  1  0
 32 33  1  0
 32 59  1  0
 32 60  1  0
 33 34  2  0
 34 35  1  0
 34 61  1  0
 35 36  2  0
 35 62  1  0
 36 37  1  0
 36 63  1  0
 37 38  2  0
 37 64  1  0
 38 33  1  0
 38 65  1  0
M  END
>  <minimizedAffinity>  (4) 
-10.38252

>  <mol_id>  (4) 
75054

>  <source_index>  (4) 
3

>  <layer>  (4) 
L2

>  <uniprot>  (4) 
Q6P179

>  <paff>  (4) 
6.6989999999999998

>  <smiles>  (4) 
O=C(NO)C(CC1CCOCC1)C(=O)NCCc1c[nH]c2ccc(OCc3ccccc3)cc12

$$$$
L2:Q6P179:75377
     RDKit          3D

 66 69  0  0  0  0  0  0  0  0999 V2000
   16.2949    7.2096   59.2907 C   0  0  0  0  0  0  0  0  0  0  0  0
   17.2750    9.0245   60.6511 C   0  0  0  0  0  0  0  0  0  0  0  0
   16.3748    8.9498   61.4857 O   0  0  0  0  0  0  0  0  0  0  0  0
   17.3517    8.1697   59.5713 N   0  0  0  0  0  0  0  0  0  0  0  0
   17.9721    8.3937   58.8044 H   0  0  0  0  0  0  0  0  0  0  0  0
   18.4220   10.0232   60.7656 C   0  0  2  0  0  0  0  0  0  0  0  0
   18.3117   12.4311   60.3976 O   0  0  0  0  0  0  0  0  0  0  0  0
   17.9736   11.4538   61.0702 C   0  0  0  0  0  0  0  0  0  0  0  0
   17.2404   11.6211   62.2275 N   0  0  0  0  0  0  0  0  0  0  0  0
   16.7636   12.9466   62.4165 O   0  0  0  0  0  0  0  0  0  0  0  0
   16.5636   10.8889   62.4639 H   0  0  0  0  0  0  0  0  0  0  0  0
   17.1547   13.4267   61.6520 H   0  0  0  0  0  0  0  0  0  0  0  0
   19.3125    9.9684   59.4999 C   0  0  0  0  0  0  0  0  0  0  0  0
   20.7255    9.4095   59.7781 C   0  0  0  0  0  0  0  0  0  0  0  0
   20.6951    7.9081   60.1306 C   0  0  0  0  0  0  0  0  0  0  0  0
   21.8927    7.4469   60.9673 C   0  0  0  0  0  0  0  0  0  0  0  0
   23.1246    8.3070   60.7269 C   0  0  0  0  0  0  0  0  0  0  0  0
   22.8687    9.7694   61.0931 C   0  0  0  0  0  0  0  0  0  0  0  0
   21.4144   10.2066   60.8934 C   0  0  0  0  0  0  0  0  0  0  0  0
   16.7266    5.7550   59.5068 C   0  0  0  0  0  0  0  0  0  0  0  0
   17.1293    5.4661   60.9223 C   0  0  0  0  0  0  0  0  0  0  0  0
   18.4175    5.2977   61.3927 C   0  0  0  0  0  0  0  0  0  0  0  0
   18.3581    5.0443   62.7361 N   0  0  0  0  0  0  0  0  0  0  0  0
   17.0496    5.0294   63.1586 C   0  0  0  0  0  0  0  0  0  0  0  0
   16.5141    4.8007   64.4304 C   0  0  0  0  0  0  0  0  0  0  0  0
   15.1193    4.8273   64.5659 C   0  0  0  0  0  0  0  0  0  0  0  0
   14.2933    5.0733   63.4697 C   0  0  0  0  0  0  0  0  0  0  0  0
   14.8558    5.3142   62.2093 C   0  0  0  0  0  0  0  0  0  0  0  0
   16.2554    5.2876   62.0424 C   0  0  0  0  0  0  0  0  0  0  0  0
   19.1559    4.8717   63.3327 H   0  0  0  0  0  0  0  0  0  0  0  0
   12.9247    5.1174   63.4906 O   0  0  0  0  0  0  0  0  0  0  0  0
   12.3221    6.2185   64.1647 C   0  0  0  0  0  0  0  0  0  0  0  0
   12.0387    7.2874   63.1413 C   0  0  0  0  0  0  0  0  0  0  0  0
   12.2632    8.6361   63.4344 C   0  0  0  0  0  0  0  0  0  0  0  0
   12.0075    9.5821   62.4535 C   0  0  0  0  0  0  0  0  0  0  0  0
   11.5546    9.2793   61.2189 N   0  0  0  0  0  0  0  0  0  0  0  0
   11.3623    7.9701   60.9492 C   0  0  0  0  0  0  0  0  0  0  0  0
   11.5892    6.9511   61.8615 C   0  0  0  0  0  0  0  0  0  0  0  0
   15.9915    7.3263   58.2713 H   0  0  0  0  0  0  0  0  0  0  0  0
   15.4955    7.4085   59.9736 H   0  0  0  0  0  0  0  0  0  0  0  0
   18.9984    9.7229   61.6156 H   0  0  0  0  0  0  0  0  0  0  0  0
   19.4091   10.9594   59.1081 H   0  0  0  0  0  0  0  0  0  0  0  0
   18.8388    9.3076   58.8043 H   0  0  0  0  0  0  0  0  0  0  0  0
   21.2904    9.5166   58.8757 H   0  0  0  0  0  0  0  0  0  0  0  0
   20.6839    7.3474   59.2193 H   0  0  0  0  0  0  0  0  0  0  0  0
   19.8188    7.7438   60.7222 H   0  0  0  0  0  0  0  0  0  0  0  0
   22.1235    6.4342   60.7103 H   0  0  0  0  0  0  0  0  0  0  0  0
   21.6263    7.5345   61.9999 H   0  0  0  0  0  0  0  0  0  0  0  0
   23.3920    8.2495   59.6925 H   0  0  0  0  0  0  0  0  0  0  0  0
   23.9159    7.9398   61.3465 H   0  0  0  0  0  0  0  0  0  0  0  0
   23.4941   10.3856   60.4815 H   0  0  0  0  0  0  0  0  0  0  0  0
   23.0875    9.8746   62.1352 H   0  0  0  0  0  0  0  0  0  0  0  0
   21.3975   11.2454   60.6373 H   0  0  0  0  0  0  0  0  0  0  0  0
   20.8854   10.0256   61.8057 H   0  0  0  0  0  0  0  0  0  0  0  0
   17.5587    5.5478   58.8668 H   0  0  0  0  0  0  0  0  0  0  0  0
   15.8843    5.1348   59.2813 H   0  0  0  0  0  0  0  0  0  0  0  0
   19.2786    5.3536   60.8267 H   0  0  0  0  0  0  0  0  0  0  0  0
   17.1254    4.6185   65.2417 H   0  0  0  0  0  0  0  0  0  0  0  0
   14.6965    4.6620   65.4927 H   0  0  0  0  0  0  0  0  0  0  0  0
   14.2444    5.5115   61.4016 H   0  0  0  0  0  0  0  0  0  0  0  0
   12.9888    6.5971   64.9111 H   0  0  0  0  0  0  0  0  0  0  0  0
   11.4164    5.9119   64.6448 H   0  0  0  0  0  0  0  0  0  0  0  0
   12.6124    8.9218   64.3626 H   0  0  0  0  0  0  0  0  0  0  0  0
   12.1731   10.5751   62.6807 H   0  0  0  0  0  0  0  0  0  0  0  0
   11.0264    7.7128   60.0079 H   0  0  0  0  0  0  0  0  0  0  0  0
   11.4296    5.9653   61.6011 H   0  0  0  0  0  0  0  0  0  0  0  0
  1 20  1  0
  1 39  1  0
  1 40  1  0
  2  3  2  0
  2  4  1  0
  4  1  1  0
  4  5  1  0
  6 13  1  0
  6  2  1  0
  6 41  1  1
  7  8  2  0
  8  9  1  0
  8  6  1  0
  9 10  1  0
  9 11  1  0
 10 12  1  0
 13 14  1  0
 13 42  1  0
 13 43  1  0
 14 15  1  0
 14 44  1  0
 15 16  1  0
 15 45  1  0
 15 46  1  0
 16 17  1  0
 16 47  1  0
 16 48  1  0
 17 18  1  0
 17 49  1  0
 17 50  1  0
 18 19  1  0
 18 51  1  0
 18 52  1  0
 19 14  1  0
 19 53  1  0
 19 54  1  0
 20 21  1  0
 20 55  1  0
 20 56  1  0
 21 22  2  0
 22 23  1  0
 22 57  1  0
 23 24  1  0
 23 30  1  0
 24 25  2  0
 25 26  1  0
 25 58  1  0
 26 27  2  0
 26 59  1  0
 27 31  1  0
 27 28  1  0
 28 29  2  0
 28 60  1  0
 29 21  1  0
 29 24  1  0
 31 32  1  0
 32 33  1  0
 32 61  1  0
 32 62  1  0
 33 34  2  0
 34 35  1  0
 34 63  1  0
 35 36  2  0
 35 64  1  0
 36 37  1  0
 37 38  2  0
 37 65  1  0
 38 33  1  0
 38 66  1  0
M  END
>  <minimizedAffinity>  (5) 
-10.34671

>  <mol_id>  (5) 
75377

>  <source_index>  (5) 
4

>  <layer>  (5) 
L2

>  <uniprot>  (5) 
Q6P179

>  <paff>  (5) 
7.4684999999999997

>  <smiles>  (5) 
O=C(NO)C(CC1CCCCC1)C(=O)NCCc1c[nH]c2ccc(OCc3ccncc3)cc12

$$$$
L2:Q6P179:78121
     RDKit          3D

 62 64  0  0  0  0  0  0  0  0999 V2000
   17.0763    5.5006   60.9370 C   0  0  0  0  0  0  0  0  0  0  0  0
   18.3784    5.4288   61.3942 C   0  0  0  0  0  0  0  0  0  0  0  0
   18.3513    5.1313   62.7297 N   0  0  0  0  0  0  0  0  0  0  0  0
   17.0514    5.0172   63.1631 C   0  0  0  0  0  0  0  0  0  0  0  0
   16.5469    4.7277   64.4347 C   0  0  0  0  0  0  0  0  0  0  0  0
   15.1555    4.6558   64.5865 C   0  0  0  0  0  0  0  0  0  0  0  0
   14.3007    4.8678   63.5069 C   0  0  0  0  0  0  0  0  0  0  0  0
   14.8327    5.1529   62.2413 C   0  0  0  0  0  0  0  0  0  0  0  0
   16.2285    5.2339   62.0595 C   0  0  0  0  0  0  0  0  0  0  0  0
   19.1651    5.0013   63.3150 H   0  0  0  0  0  0  0  0  0  0  0  0
   16.6466    5.7986   59.5307 C   0  0  0  0  0  0  0  0  0  0  0  0
   15.9719    7.1684   59.3896 C   0  0  0  0  0  0  0  0  0  0  0  0
   16.9193    9.1809   60.4653 C   0  0  0  0  0  0  0  0  0  0  0  0
   16.2084    9.0545   61.4597 O   0  0  0  0  0  0  0  0  0  0  0  0
   16.9173    8.2725   59.4290 N   0  0  0  0  0  0  0  0  0  0  0  0
   17.3098    8.5534   58.5379 H   0  0  0  0  0  0  0  0  0  0  0  0
   17.8382   10.3743   60.2580 C   0  0  1  0  0  0  0  0  0  0  0  0
   17.4808   11.6160   61.0684 C   0  0  0  0  0  0  0  0  0  0  0  0
   18.2759   12.1794   61.8248 O   0  0  0  0  0  0  0  0  0  0  0  0
   16.2376   12.1613   60.8254 N   0  0  0  0  0  0  0  0  0  0  0  0
   15.9239   13.2711   61.6547 O   0  0  0  0  0  0  0  0  0  0  0  0
   15.4603   11.5141   60.6623 H   0  0  0  0  0  0  0  0  0  0  0  0
   16.7521   13.3913   62.1698 H   0  0  0  0  0  0  0  0  0  0  0  0
   19.3228    9.9937   60.4346 C   0  0  0  0  0  0  0  0  0  0  0  0
   20.2226   10.4874   59.2904 C   0  0  0  0  0  0  0  0  0  0  0  0
   22.0909    8.9708   58.5668 C   0  0  0  0  0  0  0  0  0  0  0  0
   21.7091   10.1324   59.4881 C   0  0  0  0  0  0  0  0  0  0  0  0
   22.0357    9.7681   60.9375 C   0  0  0  0  0  0  0  0  0  0  0  0
   12.9330    4.8049   63.5344 O   0  0  0  0  0  0  0  0  0  0  0  0
   12.2176    5.7305   64.3547 C   0  0  0  0  0  0  0  0  0  0  0  0
   11.6859    6.9184   63.5947 C   0  0  0  0  0  0  0  0  0  0  0  0
   12.4842    8.0477   63.3801 C   0  0  0  0  0  0  0  0  0  0  0  0
   11.9815    9.1199   62.6471 C   0  0  0  0  0  0  0  0  0  0  0  0
   10.6968    9.0154   62.1434 C   0  0  0  0  0  0  0  0  0  0  0  0
   10.0042   10.2905   61.2298 Cl  0  0  0  0  0  0  0  0  0  0  0  0
    9.8994    7.9438   62.3111 N   0  0  0  0  0  0  0  0  0  0  0  0
   10.4126    6.9193   63.0302 C   0  0  0  0  0  0  0  0  0  0  0  0
   19.2270    5.5747   60.8253 H   0  0  0  0  0  0  0  0  0  0  0  0
   17.1788    4.5720   65.2356 H   0  0  0  0  0  0  0  0  0  0  0  0
   14.7571    4.4421   65.5142 H   0  0  0  0  0  0  0  0  0  0  0  0
   14.2003    5.3040   61.4399 H   0  0  0  0  0  0  0  0  0  0  0  0
   17.5094    5.7764   58.8983 H   0  0  0  0  0  0  0  0  0  0  0  0
   15.9281    5.0568   59.2509 H   0  0  0  0  0  0  0  0  0  0  0  0
   15.4516    7.1979   58.4551 H   0  0  0  0  0  0  0  0  0  0  0  0
   15.3072    7.2856   60.2199 H   0  0  0  0  0  0  0  0  0  0  0  0
   17.6772   10.6577   59.2389 H   0  0  0  0  0  0  0  0  0  0  0  0
   19.6751   10.4201   61.3506 H   0  0  0  0  0  0  0  0  0  0  0  0
   19.3755    8.9250   60.4377 H   0  0  0  0  0  0  0  0  0  0  0  0
   19.8857   10.0429   58.3773 H   0  0  0  0  0  0  0  0  0  0  0  0
   20.1516   11.5548   59.2691 H   0  0  0  0  0  0  0  0  0  0  0  0
   23.1235    8.7283   58.7078 H   0  0  0  0  0  0  0  0  0  0  0  0
   21.9271    9.2547   57.5482 H   0  0  0  0  0  0  0  0  0  0  0  0
   21.4890    8.1176   58.8004 H   0  0  0  0  0  0  0  0  0  0  0  0
   22.2793   11.0035   59.2410 H   0  0  0  0  0  0  0  0  0  0  0  0
   21.4811    8.8978   61.2202 H   0  0  0  0  0  0  0  0  0  0  0  0
   21.7714   10.5832   61.5784 H   0  0  0  0  0  0  0  0  0  0  0  0
   23.0830    9.5685   61.0278 H   0  0  0  0  0  0  0  0  0  0  0  0
   12.8763    6.0848   65.1199 H   0  0  0  0  0  0  0  0  0  0  0  0
   11.3737    5.2094   64.7562 H   0  0  0  0  0  0  0  0  0  0  0  0
   13.4416    8.0858   63.7635 H   0  0  0  0  0  0  0  0  0  0  0  0
   12.5494    9.9661   62.4846 H   0  0  0  0  0  0  0  0  0  0  0  0
    9.8224    6.0843   63.1695 H   0  0  0  0  0  0  0  0  0  0  0  0
  1  2  2  0
  2  3  1  0
  2 38  1  0
  3  4  1  0
  3 10  1  0
  4  5  2  0
  5  6  1  0
  5 39  1  0
  6  7  2  0
  6 40  1  0
  7 29  1  0
  7  8  1  0
  8  9  2  0
  8 41  1  0
  9  1  1  0
  9  4  1  0
 11  1  1  0
 11 42  1  0
 11 43  1  0
 12 11  1  0
 12 44  1  0
 12 45  1  0
 13 14  2  0
 13 15  1  0
 15 12  1  0
 15 16  1  0
 17 18  1  0
 17 13  1  0
 17 46  1  6
 18 19  2  0
 18 20  1  0
 20 21  1  0
 20 22  1  0
 21 23  1  0
 24 17  1  0
 24 47  1  0
 24 48  1  0
 25 24  1  0
 25 49  1  0
 25 50  1  0
 26 27  1  0
 26 51  1  0
 26 52  1  0
 26 53  1  0
 27 28  1  0
 27 25  1  0
 27 54  1  0
 28 55  1  0
 28 56  1  0
 28 57  1  0
 29 30  1  0
 30 31  1  0
 30 58  1  0
 30 59  1  0
 31 32  2  0
 32 33  1  0
 32 60  1  0
 33 34  2  0
 33 61  1  0
 34 35  1  0
 34 36  1  0
 36 37  2  0
 37 31  1  0
 37 62  1  0
M  END
>  <minimizedAffinity>  (6) 
-9.66091

>  <mol_id>  (6) 
78121

>  <source_index>  (6) 
5

>  <layer>  (6) 
L2

>  <uniprot>  (6) 
Q6P179

>  <paff>  (6) 
6.8239000000000001

>  <smiles>  (6) 
CC(C)CCC(C(=O)NO)C(=O)NCCc1c[nH]c2ccc(OCc3ccc(Cl)nc3)cc12

$$$$
L2:Q6P179:98715
     RDKit          3D

 62 64  0  0  0  0  0  0  0  0999 V2000
   16.8904    5.7034   61.7116 C   0  0  0  0  0  0  0  0  0  0  0  0
   16.2341    5.2235   62.9674 C   0  0  0  0  0  0  0  0  0  0  0  0
   16.7873    4.3608   63.8938 C   0  0  0  0  0  0  0  0  0  0  0  0
   15.8772    4.1594   64.8947 N   0  0  0  0  0  0  0  0  0  0  0  0
   14.7298    4.8736   64.6424 C   0  0  0  0  0  0  0  0  0  0  0  0
   13.5481    4.9653   65.3826 C   0  0  0  0  0  0  0  0  0  0  0  0
   12.5351    5.7880   64.8787 C   0  0  0  0  0  0  0  0  0  0  0  0
   12.6915    6.4969   63.6868 C   0  0  0  0  0  0  0  0  0  0  0  0
   13.8821    6.3838   62.9584 C   0  0  0  0  0  0  0  0  0  0  0  0
   14.9240    5.5579   63.4426 C   0  0  0  0  0  0  0  0  0  0  0  0
   16.0204    3.5723   65.7046 H   0  0  0  0  0  0  0  0  0  0  0  0
   11.6092    7.2616   63.3397 O   0  0  0  0  0  0  0  0  0  0  0  0
   11.6621    8.6510   63.6739 C   0  0  0  0  0  0  0  0  0  0  0  0
   11.7746    9.4883   62.4174 C   0  0  0  0  0  0  0  0  0  0  0  0
   10.6341    9.9072   61.7356 C   0  0  0  0  0  0  0  0  0  0  0  0
   10.7789   10.6539   60.5699 C   0  0  0  0  0  0  0  0  0  0  0  0
   12.0531   10.9558   60.1090 C   0  0  0  0  0  0  0  0  0  0  0  0
   13.1351   10.4887   60.8326 C   0  0  0  0  0  0  0  0  0  0  0  0
   13.0262    9.7604   61.9652 N   0  0  0  0  0  0  0  0  0  0  0  0
   16.3458    7.0631   61.2647 C   0  0  0  0  0  0  0  0  0  0  0  0
   17.2525    9.1957   60.4025 C   0  0  0  0  0  0  0  0  0  0  0  0
   16.2899    9.3907   59.6640 O   0  0  0  0  0  0  0  0  0  0  0  0
   17.3730    8.0900   61.2135 N   0  0  0  0  0  0  0  0  0  0  0  0
   18.2493    7.9082   61.6886 H   0  0  0  0  0  0  0  0  0  0  0  0
   18.4427   10.1350   60.4307 C   0  0  1  0  0  0  0  0  0  0  0  0
   17.9901   11.4955   60.9182 C   0  0  0  0  0  0  0  0  0  0  0  0
   18.3458   12.5381   60.3682 O   0  0  0  0  0  0  0  0  0  0  0  0
   17.1542   11.4953   62.0121 N   0  0  0  0  0  0  0  0  0  0  0  0
   16.6292   12.7648   62.3598 O   0  0  0  0  0  0  0  0  0  0  0  0
   16.5460   10.6971   62.1984 H   0  0  0  0  0  0  0  0  0  0  0  0
   17.0664   13.3646   61.7151 H   0  0  0  0  0  0  0  0  0  0  0  0
   19.5628    9.5457   61.3072 C   0  0  0  0  0  0  0  0  0  0  0  0
   20.9574    9.9530   60.8122 C   0  0  0  0  0  0  0  0  0  0  0  0
   23.2981    8.9696   61.0471 C   0  0  0  0  0  0  0  0  0  0  0  0
   21.8977    8.7820   60.4635 C   0  0  0  0  0  0  0  0  0  0  0  0
   21.3204    7.4273   60.8752 C   0  0  0  0  0  0  0  0  0  0  0  0
   17.9427    5.7921   61.8837 H   0  0  0  0  0  0  0  0  0  0  0  0
   16.6838    4.9936   60.9380 H   0  0  0  0  0  0  0  0  0  0  0  0
   17.7279    3.9397   63.8398 H   0  0  0  0  0  0  0  0  0  0  0  0
   13.4274    4.4464   66.2664 H   0  0  0  0  0  0  0  0  0  0  0  0
   11.6495    5.8729   65.4017 H   0  0  0  0  0  0  0  0  0  0  0  0
   13.9991    6.9003   62.0727 H   0  0  0  0  0  0  0  0  0  0  0  0
   12.5131    8.8324   64.2966 H   0  0  0  0  0  0  0  0  0  0  0  0
   10.7654    8.9192   64.1925 H   0  0  0  0  0  0  0  0  0  0  0  0
    9.6950    9.6672   62.0899 H   0  0  0  0  0  0  0  0  0  0  0  0
    9.9471   10.9799   60.0533 H   0  0  0  0  0  0  0  0  0  0  0  0
   12.1890   11.5129   59.2510 H   0  0  0  0  0  0  0  0  0  0  0  0
   14.0820   10.7096   60.4868 H   0  0  0  0  0  0  0  0  0  0  0  0
   15.9191    6.9570   60.2892 H   0  0  0  0  0  0  0  0  0  0  0  0
   15.6166    7.3713   61.9845 H   0  0  0  0  0  0  0  0  0  0  0  0
   18.8446   10.2522   59.4460 H   0  0  0  0  0  0  0  0  0  0  0  0
   19.4366    9.8962   62.3102 H   0  0  0  0  0  0  0  0  0  0  0  0
   19.4938    8.4791   61.2574 H   0  0  0  0  0  0  0  0  0  0  0  0
   20.8351   10.5522   59.9342 H   0  0  0  0  0  0  0  0  0  0  0  0
   21.4203   10.4741   61.6240 H   0  0  0  0  0  0  0  0  0  0  0  0
   23.9111    8.1346   60.7789 H   0  0  0  0  0  0  0  0  0  0  0  0
   23.2342    9.0373   62.1130 H   0  0  0  0  0  0  0  0  0  0  0  0
   23.7293    9.8682   60.6579 H   0  0  0  0  0  0  0  0  0  0  0  0
   21.9845    8.7865   59.3970 H   0  0  0  0  0  0  0  0  0  0  0  0
   21.2209    7.3907   61.9399 H   0  0  0  0  0  0  0  0  0  0  0  0
   21.9766    6.6467   60.5513 H   0  0  0  0  0  0  0  0  0  0  0  0
   20.3597    7.2965   60.4225 H   0  0  0  0  0  0  0  0  0  0  0  0
  1  2  1  0
  1 37  1  0
  1 38  1  0
  2  3  2  0
  3  4  1  0
  3 39  1  0
  4  5  1  0
  4 11  1  0
  5  6  2  0
  6  7  1  0
  6 40  1  0
  7  8  2  0
  7 41  1  0
  8 12  1  0
  8  9  1  0
  9 10  2  0
  9 42  1  0
 10  2  1  0
 10  5  1  0
 12 13  1  0
 13 14  1  0
 13 43  1  0
 13 44  1  0
 14 15  2  0
 15 16  1  0
 15 45  1  0
 16 17  2  0
 16 46  1  0
 17 18  1  0
 17 47  1  0
 18 19  2  0
 18 48  1  0
 19 14  1  0
 20  1  1  0
 20 49  1  0
 20 50  1  0
 21 22  2  0
 21 23  1  0
 23 20  1  0
 23 24  1  0
 25 26  1  0
 25 21  1  0
 25 51  1  6
 26 27  2  0
 26 28  1  0
 28 29  1  0
 28 30  1  0
 29 31  1  0
 32 25  1  0
 32 52  1  0
 32 53  1  0
 33 32  1  0
 33 54  1  0
 33 55  1  0
 34 35  1  0
 34 56  1  0
 34 57  1  0
 34 58  1  0
 35 36  1  0
 35 33  1  0
 35 59  1  0
 36 60  1  0
 36 61  1  0
 36 62  1  0
M  END
>  <minimizedAffinity>  (7) 
-9.91378

>  <mol_id>  (7) 
98715

>  <source_index>  (7) 
6

>  <layer>  (7) 
L2

>  <uniprot>  (7) 
Q6P179

>  <paff>  (7) 
6.1367000000000003

>  <smiles>  (7) 
CC(C)CCC(C(=O)NO)C(=O)NCCc1c[nH]c2ccc(OCc3ccccn3)cc12

$$$$
L2:Q6P179:110306
     RDKit          3D

 57 60  0  0  0  0  0  0  0  0999 V2000
   15.1742    9.8173   60.4748 N   0  0  0  0  0  0  0  0  0  0  0  0
   14.1303   10.0293   61.3238 C   0  0  0  0  0  0  0  0  0  0  0  0
   13.0897   10.3898   60.4931 C   0  0  0  0  0  0  0  0  0  0  0  0
   13.5294   10.3684   59.1945 N   0  0  0  0  0  0  0  0  0  0  0  0
   14.8053   10.0120   59.1943 N   0  0  0  0  0  0  0  0  0  0  0  0
   16.5143    9.3298   60.7611 C   0  0  2  0  0  0  0  0  0  0  0  0
   17.4227   10.5388   60.9282 C   0  0  0  0  0  0  0  0  0  0  0  0
   18.4635   10.5406   61.5855 O   0  0  0  0  0  0  0  0  0  0  0  0
   16.9968   11.6678   60.2530 N   0  0  0  0  0  0  0  0  0  0  0  0
   17.9077   12.7534   60.2838 O   0  0  0  0  0  0  0  0  0  0  0  0
   16.4394   11.5883   59.4024 H   0  0  0  0  0  0  0  0  0  0  0  0
   18.6306   12.4170   60.8582 H   0  0  0  0  0  0  0  0  0  0  0  0
   17.0109    8.3483   59.6904 C   0  0  0  0  0  0  0  0  0  0  0  0
   19.7916    5.4697   61.3381 C   0  0  0  0  0  0  0  0  0  0  0  0
   18.5342    5.6431   61.9152 C   0  0  0  0  0  0  0  0  0  0  0  0
   17.6334    6.5690   61.3766 C   0  0  0  0  0  0  0  0  0  0  0  0
   17.9778    7.3311   60.2521 C   0  0  0  0  0  0  0  0  0  0  0  0
   19.2404    7.1534   59.6776 C   0  0  0  0  0  0  0  0  0  0  0  0
   20.1373    6.2302   60.2196 C   0  0  0  0  0  0  0  0  0  0  0  0
   22.0625    4.7766   61.2155 C   0  0  0  0  0  0  0  0  0  0  0  0
   20.7618    4.6061   61.7644 O   0  0  0  0  0  0  0  0  0  0  0  0
   11.6792   10.7272   60.8214 C   0  0  0  0  0  0  0  0  0  0  0  0
   10.9048    9.4837   60.8000 N   0  0  0  0  0  0  0  0  0  0  0  0
   10.0913    9.4985   60.1855 H   0  0  0  0  0  0  0  0  0  0  0  0
   10.5647    8.7779   62.2837 S   0  0  0  0  0  0  0  0  0  0  0  0
   11.2351    9.5862   63.2776 O   0  0  0  0  0  0  0  0  0  0  0  0
    9.1497    8.4941   62.3482 O   0  0  0  0  0  0  0  0  0  0  0  0
   11.4239    7.2180   62.3434 C   0  0  0  0  0  0  0  0  0  0  0  0
   11.1879    6.0232   61.6944 C   0  0  0  0  0  0  0  0  0  0  0  0
   12.1252    5.0179   62.0635 C   0  0  0  0  0  0  0  0  0  0  0  0
   13.0683    5.4615   62.9775 C   0  0  0  0  0  0  0  0  0  0  0  0
   12.7740    7.1052   63.3820 S   0  0  0  0  0  0  0  0  0  0  0  0
   14.1755    4.6944   63.5760 C   0  0  0  0  0  0  0  0  0  0  0  0
   15.3717    5.2566   64.0170 C   0  0  0  0  0  0  0  0  0  0  0  0
   16.3481    4.4247   64.5633 C   0  0  0  0  0  0  0  0  0  0  0  0
   16.1091    3.0601   64.6544 C   0  0  0  0  0  0  0  0  0  0  0  0
   14.8978    2.5796   64.1911 C   0  0  0  0  0  0  0  0  0  0  0  0
   13.9337    3.3609   63.6566 N   0  0  0  0  0  0  0  0  0  0  0  0
   14.1202    9.9406   62.3519 H   0  0  0  0  0  0  0  0  0  0  0  0
   16.5152    8.7626   61.6684 H   0  0  0  0  0  0  0  0  0  0  0  0
   16.1687    7.8324   59.2788 H   0  0  0  0  0  0  0  0  0  0  0  0
   17.5263    8.9126   58.9415 H   0  0  0  0  0  0  0  0  0  0  0  0
   18.2669    5.0868   62.7423 H   0  0  0  0  0  0  0  0  0  0  0  0
   16.7059    6.6918   61.8121 H   0  0  0  0  0  0  0  0  0  0  0  0
   19.5105    7.7069   58.8495 H   0  0  0  0  0  0  0  0  0  0  0  0
   21.0668    6.1087   59.7881 H   0  0  0  0  0  0  0  0  0  0  0  0
   22.7229    4.0430   61.6286 H   0  0  0  0  0  0  0  0  0  0  0  0
   22.4240    5.7555   61.4521 H   0  0  0  0  0  0  0  0  0  0  0  0
   22.0193    4.6595   60.1528 H   0  0  0  0  0  0  0  0  0  0  0  0
   11.2901   11.4108   60.0960 H   0  0  0  0  0  0  0  0  0  0  0  0
   11.6197   11.1881   61.7852 H   0  0  0  0  0  0  0  0  0  0  0  0
   10.4209    5.8758   61.0198 H   0  0  0  0  0  0  0  0  0  0  0  0
   12.1048    4.0565   61.6888 H   0  0  0  0  0  0  0  0  0  0  0  0
   15.5325    6.2731   63.9404 H   0  0  0  0  0  0  0  0  0  0  0  0
   17.2410    4.8200   64.8972 H   0  0  0  0  0  0  0  0  0  0  0  0
   16.8146    2.4230   65.0561 H   0  0  0  0  0  0  0  0  0  0  0  0
   14.7200    1.5652   64.2575 H   0  0  0  0  0  0  0  0  0  0  0  0
  1  2  1  0
  2  3  2  0
  2 39  1  0
  3 22  1  0
  3  4  1  0
  4  5  2  0
  5  1  1  0
  6  7  1  0
  6  1  1  0
  6 40  1  1
  7  8  2  0
  7  9  1  0
  9 10  1  0
  9 11  1  0
 10 12  1  0
 13  6  1  0
 13 41  1  0
 13 42  1  0
 14 15  2  0
 15 16  1  0
 15 43  1  0
 16 17  2  0
 16 44  1  0
 17 13  1  0
 17 18  1  0
 18 19  2  0
 18 45  1  0
 19 14  1  0
 19 46  1  0
 20 21  1  0
 20 47  1  0
 20 48  1  0
 20 49  1  0
 21 14  1  0
 22 23  1  0
 22 50  1  0
 22 51  1  0
 23 25  1  0
 23 24  1  0
 25 26  2  0
 25 27  2  0
 25 28  1  0
 28 29  2  0
 29 30  1  0
 29 52  1  0
 30 31  2  0
 30 53  1  0
 31 32  1  0
 31 33  1  0
 32 28  1  0
 33 34  2  0
 34 35  1  0
 34 54  1  0
 35 36  2  0
 35 55  1  0
 36 37  1  0
 36 56  1  0
 37 38  2  0
 37 57  1  0
 38 33  1  0
M  END
>  <minimizedAffinity>  (8) 
-9.52410

>  <mol_id>  (8) 
110306

>  <source_index>  (8) 
7

>  <layer>  (8) 
L2

>  <uniprot>  (8) 
Q6P179

>  <paff>  (8) 
8.3978999999999999

>  <smiles>  (8) 
COc1ccc(C[C@@H](C(=O)NO)n2cc(CNS(=O)(=O)c3ccc(s3)-c3ccccn3)nn2)cc1 |r|

$$$$
L2:Q6P179:113843
     RDKit          3D

 62 64  0  0  0  0  0  0  0  0999 V2000
   17.1253    6.0252   59.4622 C   0  0  0  0  0  0  0  0  0  0  0  0
   17.3815    5.6596   60.8900 C   0  0  0  0  0  0  0  0  0  0  0  0
   18.6104    5.3741   61.4528 C   0  0  0  0  0  0  0  0  0  0  0  0
   18.4207    5.0762   62.7748 N   0  0  0  0  0  0  0  0  0  0  0  0
   17.0850    5.1586   63.0932 C   0  0  0  0  0  0  0  0  0  0  0  0
   16.4318    4.9371   64.3101 C   0  0  0  0  0  0  0  0  0  0  0  0
   15.0410    5.1055   64.3463 C   0  0  0  0  0  0  0  0  0  0  0  0
   14.3311    5.4833   63.2074 C   0  0  0  0  0  0  0  0  0  0  0  0
   15.0081    5.6874   61.9972 C   0  0  0  0  0  0  0  0  0  0  0  0
   16.4079    5.5283   61.9323 C   0  0  0  0  0  0  0  0  0  0  0  0
   19.1527    4.8308   63.4271 H   0  0  0  0  0  0  0  0  0  0  0  0
   12.9784    5.6809   63.1321 O   0  0  0  0  0  0  0  0  0  0  0  0
   12.3998    6.5852   64.0696 C   0  0  0  0  0  0  0  0  0  0  0  0
   11.7726    7.7118   63.2991 C   0  0  0  0  0  0  0  0  0  0  0  0
   10.4509    7.6470   62.8483 C   0  0  0  0  0  0  0  0  0  0  0  0
    9.9157    8.7101   62.1259 C   0  0  0  0  0  0  0  0  0  0  0  0
   10.7254    9.8050   61.8722 C   0  0  0  0  0  0  0  0  0  0  0  0
   12.0094    9.8995   62.2796 N   0  0  0  0  0  0  0  0  0  0  0  0
   12.5058    8.8482   62.9718 C   0  0  0  0  0  0  0  0  0  0  0  0
   16.2986    7.3093   59.3419 C   0  0  0  0  0  0  0  0  0  0  0  0
   17.1720    9.3741   60.3947 C   0  0  0  0  0  0  0  0  0  0  0  0
   16.5187    9.2063   61.4208 O   0  0  0  0  0  0  0  0  0  0  0  0
   17.1214    8.5073   59.3238 N   0  0  0  0  0  0  0  0  0  0  0  0
   17.5907    8.7428   58.4572 H   0  0  0  0  0  0  0  0  0  0  0  0
   18.0513   10.5927   60.1720 C   0  0  1  0  0  0  0  0  0  0  0  0
   17.6285   11.7737   61.0208 C   0  0  0  0  0  0  0  0  0  0  0  0
   18.3491   12.2298   61.9101 O   0  0  0  0  0  0  0  0  0  0  0  0
   16.3763   12.2890   60.7771 N   0  0  0  0  0  0  0  0  0  0  0  0
   15.9420   13.2915   61.6783 O   0  0  0  0  0  0  0  0  0  0  0  0
   15.6463   11.7638   60.2947 H   0  0  0  0  0  0  0  0  0  0  0  0
   16.7075   13.3756   62.2908 H   0  0  0  0  0  0  0  0  0  0  0  0
   19.5524   10.2725   60.3296 C   0  0  0  0  0  0  0  0  0  0  0  0
   19.8972    9.0750   61.2288 C   0  0  0  0  0  0  0  0  0  0  0  0
   22.3572    8.6935   60.9130 C   0  0  0  0  0  0  0  0  0  0  0  0
   20.9614    8.1376   60.6226 C   0  0  0  0  0  0  0  0  0  0  0  0
   20.7867    7.9474   59.1151 C   0  0  0  0  0  0  0  0  0  0  0  0
   18.0634    6.1700   58.9683 H   0  0  0  0  0  0  0  0  0  0  0  0
   16.5707    5.2297   59.0101 H   0  0  0  0  0  0  0  0  0  0  0  0
   19.5171    5.3838   60.9601 H   0  0  0  0  0  0  0  0  0  0  0  0
   16.9569    4.6587   65.1538 H   0  0  0  0  0  0  0  0  0  0  0  0
   14.5337    4.9472   65.2310 H   0  0  0  0  0  0  0  0  0  0  0  0
   14.4808    5.9548   61.1513 H   0  0  0  0  0  0  0  0  0  0  0  0
   13.1578    6.9679   64.7207 H   0  0  0  0  0  0  0  0  0  0  0  0
   11.6636    6.0852   64.6636 H   0  0  0  0  0  0  0  0  0  0  0  0
    9.8746    6.8150   63.0500 H   0  0  0  0  0  0  0  0  0  0  0  0
    8.9409    8.6831   61.7882 H   0  0  0  0  0  0  0  0  0  0  0  0
   10.3243   10.5939   61.3413 H   0  0  0  0  0  0  0  0  0  0  0  0
   13.4909    8.8920   63.2764 H   0  0  0  0  0  0  0  0  0  0  0  0
   15.7334    7.2686   58.4343 H   0  0  0  0  0  0  0  0  0  0  0  0
   15.6639    7.3664   60.2015 H   0  0  0  0  0  0  0  0  0  0  0  0
   17.9065   10.8825   59.1522 H   0  0  0  0  0  0  0  0  0  0  0  0
   19.9485   10.0747   59.3555 H   0  0  0  0  0  0  0  0  0  0  0  0
   19.9795   11.1267   60.8121 H   0  0  0  0  0  0  0  0  0  0  0  0
   20.2655    9.4470   62.1620 H   0  0  0  0  0  0  0  0  0  0  0  0
   19.0018    8.5010   61.3460 H   0  0  0  0  0  0  0  0  0  0  0  0
   23.0950    8.0427   60.4922 H   0  0  0  0  0  0  0  0  0  0  0  0
   22.5018    8.7596   61.9711 H   0  0  0  0  0  0  0  0  0  0  0  0
   22.4509    9.6669   60.4787 H   0  0  0  0  0  0  0  0  0  0  0  0
   20.8391    7.1777   61.0793 H   0  0  0  0  0  0  0  0  0  0  0  0
   20.9024    8.8894   58.6210 H   0  0  0  0  0  0  0  0  0  0  0  0
   19.8104    7.5575   58.9156 H   0  0  0  0  0  0  0  0  0  0  0  0
   21.5250    7.2622   58.7541 H   0  0  0  0  0  0  0  0  0  0  0  0
  1  2  1  0
  1 37  1  0
  1 38  1  0
  2  3  2  0
  3  4  1  0
  3 39  1  0
  4  5  1  0
  4 11  1  0
  5  6  2  0
  6  7  1  0
  6 40  1  0
  7  8  2  0
  7 41  1  0
  8 12  1  0
  8  9  1  0
  9 10  2  0
  9 42  1  0
 10  2  1  0
 10  5  1  0
 12 13  1  0
 13 14  1  0
 13 43  1  0
 13 44  1  0
 14 15  2  0
 15 16  1  0
 15 45  1  0
 16 17  2  0
 16 46  1  0
 17 18  1  0
 17 47  1  0
 18 19  2  0
 19 14  1  0
 19 48  1  0
 20  1  1  0
 20 49  1  0
 20 50  1  0
 21 22  2  0
 21 23  1  0
 23 20  1  0
 23 24  1  0
 25 26  1  0
 25 21  1  0
 25 51  1  6
 26 27  2  0
 26 28  1  0
 28 29  1  0
 28 30  1  0
 29 31  1  0
 32 25  1  0
 32 52  1  0
 32 53  1  0
 33 32  1  0
 33 54  1  0
 33 55  1  0
 34 35  1  0
 34 56  1  0
 34 57  1  0
 34 58  1  0
 35 36  1  0
 35 33  1  0
 35 59  1  0
 36 60  1  0
 36 61  1  0
 36 62  1  0
M  END
>  <minimizedAffinity>  (9) 
-9.55071

>  <mol_id>  (9) 
113843

>  <source_index>  (9) 
8

>  <layer>  (9) 
L2

>  <uniprot>  (9) 
Q6P179

>  <paff>  (9) 
6.9585999999999997

>  <smiles>  (9) 
CC(C)CCC(C(=O)NO)C(=O)NCCc1c[nH]c2ccc(OCc3cccnc3)cc12

$$$$
L2:Q6P179:129105
     RDKit          3D

 62 64  0  0  0  0  0  0  0  0999 V2000
   17.2780    5.7934   59.6022 C   0  0  0  0  0  0  0  0  0  0  0  0
   17.2921    5.5182   61.0765 C   0  0  0  0  0  0  0  0  0  0  0  0
   18.4003    5.2232   61.8467 C   0  0  0  0  0  0  0  0  0  0  0  0
   17.9895    5.0375   63.1401 N   0  0  0  0  0  0  0  0  0  0  0  0
   16.6291    5.2128   63.2355 C   0  0  0  0  0  0  0  0  0  0  0  0
   15.7833    5.1210   64.3458 C   0  0  0  0  0  0  0  0  0  0  0  0
   14.4144    5.3408   64.1445 C   0  0  0  0  0  0  0  0  0  0  0  0
   13.9147    5.6468   62.8801 C   0  0  0  0  0  0  0  0  0  0  0  0
   14.7771    5.7128   61.7793 C   0  0  0  0  0  0  0  0  0  0  0  0
   16.1607    5.5050   61.9555 C   0  0  0  0  0  0  0  0  0  0  0  0
   18.5929    4.8044   63.9179 H   0  0  0  0  0  0  0  0  0  0  0  0
   12.5888    5.8444   62.5932 O   0  0  0  0  0  0  0  0  0  0  0  0
   11.9080    6.8223   63.3876 C   0  0  0  0  0  0  0  0  0  0  0  0
   11.5995    8.0893   62.6249 C   0  0  0  0  0  0  0  0  0  0  0  0
   10.2900    8.4460   62.2931 C   0  0  0  0  0  0  0  0  0  0  0  0
   10.0798    9.6106   61.5708 C   0  0  0  0  0  0  0  0  0  0  0  0
   11.0713   10.4277   61.1549 N   0  0  0  0  0  0  0  0  0  0  0  0
   12.3282   10.0584   61.4699 C   0  0  0  0  0  0  0  0  0  0  0  0
   12.6413    8.9133   62.1869 C   0  0  0  0  0  0  0  0  0  0  0  0
   16.6965    7.1703   59.2665 C   0  0  0  0  0  0  0  0  0  0  0  0
   17.4445    9.1582   60.5353 C   0  0  0  0  0  0  0  0  0  0  0  0
   16.5285    9.0463   61.3479 O   0  0  0  0  0  0  0  0  0  0  0  0
   17.6364    8.2543   59.5091 N   0  0  0  0  0  0  0  0  0  0  0  0
   18.2448    8.5049   58.7368 H   0  0  0  0  0  0  0  0  0  0  0  0
   18.4711   10.2788   60.5800 C   0  0  1  0  0  0  0  0  0  0  0  0
   17.9644   11.6502   60.9873 C   0  0  0  0  0  0  0  0  0  0  0  0
   18.2434   12.6593   60.3341 O   0  0  0  0  0  0  0  0  0  0  0  0
   17.2511   11.7402   62.1499 N   0  0  0  0  0  0  0  0  0  0  0  0
   16.7481   13.0134   62.4895 O   0  0  0  0  0  0  0  0  0  0  0  0
   16.8128   10.9277   62.5927 H   0  0  0  0  0  0  0  0  0  0  0  0
   17.2132   13.5986   61.8551 H   0  0  0  0  0  0  0  0  0  0  0  0
   19.7288    9.8799   61.3804 C   0  0  0  0  0  0  0  0  0  0  0  0
   20.9775    9.4742   60.5751 C   0  0  0  0  0  0  0  0  0  0  0  0
   21.1432    6.9995   59.9763 C   0  0  0  0  0  0  0  0  0  0  0  0
   21.6101    8.1135   60.9144 C   0  0  0  0  0  0  0  0  0  0  0  0
   23.1382    8.2272   60.8721 C   0  0  0  0  0  0  0  0  0  0  0  0
   18.2819    5.7464   59.2350 H   0  0  0  0  0  0  0  0  0  0  0  0
   16.6545    5.0565   59.1405 H   0  0  0  0  0  0  0  0  0  0  0  0
   19.3719    5.1545   61.5058 H   0  0  0  0  0  0  0  0  0  0  0  0
   16.1554    4.8987   65.2824 H   0  0  0  0  0  0  0  0  0  0  0  0
   13.7662    5.2751   64.9448 H   0  0  0  0  0  0  0  0  0  0  0  0
   14.4006    5.9134   60.8396 H   0  0  0  0  0  0  0  0  0  0  0  0
   12.5248    7.0703   64.2260 H   0  0  0  0  0  0  0  0  0  0  0  0
   10.9750    6.3956   63.6914 H   0  0  0  0  0  0  0  0  0  0  0  0
    9.4948    7.8542   62.5801 H   0  0  0  0  0  0  0  0  0  0  0  0
    9.1082    9.8683   61.3372 H   0  0  0  0  0  0  0  0  0  0  0  0
   13.1041   10.6637   61.1591 H   0  0  0  0  0  0  0  0  0  0  0  0
   13.6237    8.6739   62.3932 H   0  0  0  0  0  0  0  0  0  0  0  0
   16.4207    7.1820   58.2327 H   0  0  0  0  0  0  0  0  0  0  0  0
   15.8521    7.3275   59.9047 H   0  0  0  0  0  0  0  0  0  0  0  0
   18.7348   10.4037   59.5506 H   0  0  0  0  0  0  0  0  0  0  0  0
   19.9984   10.7146   61.9931 H   0  0  0  0  0  0  0  0  0  0  0  0
   19.4467    8.9967   61.9145 H   0  0  0  0  0  0  0  0  0  0  0  0
   20.7035    9.4549   59.5410 H   0  0  0  0  0  0  0  0  0  0  0  0
   21.7219   10.1999   60.8284 H   0  0  0  0  0  0  0  0  0  0  0  0
   21.6113    6.0787   60.2553 H   0  0  0  0  0  0  0  0  0  0  0  0
   21.4110    7.2451   58.9699 H   0  0  0  0  0  0  0  0  0  0  0  0
   20.0807    6.8953   60.0474 H   0  0  0  0  0  0  0  0  0  0  0  0
   21.2892    7.8500   61.9005 H   0  0  0  0  0  0  0  0  0  0  0  0
   23.4490    8.4908   59.8828 H   0  0  0  0  0  0  0  0  0  0  0  0
   23.5734    7.2884   61.1444 H   0  0  0  0  0  0  0  0  0  0  0  0
   23.4589    8.9817   61.5597 H   0  0  0  0  0  0  0  0  0  0  0  0
  1  2  1  0
  1 37  1  0
  1 38  1  0
  2  3  2  0
  3  4  1  0
  3 39  1  0
  4  5  1  0
  4 11  1  0
  5  6  2  0
  6  7  1  0
  6 40  1  0
  7  8  2  0
  7 41  1  0
  8 12  1  0
  8  9  1  0
  9 10  2  0
  9 42  1  0
 10  2  1  0
 10  5  1  0
 12 13  1  0
 13 14  1  0
 13 43  1  0
 13 44  1  0
 14 15  2  0
 15 16  1  0
 15 45  1  0
 16 17  2  0
 16 46  1  0
 17 18  1  0
 18 19  2  0
 18 47  1  0
 19 14  1  0
 19 48  1  0
 20  1  1  0
 20 49  1  0
 20 50  1  0
 21 22  2  0
 21 23  1  0
 23 20  1  0
 23 24  1  0
 25 26  1  0
 25 21  1  0
 25 51  1  6
 26 27  2  0
 26 28  1  0
 28 29  1  0
 28 30  1  0
 29 31  1  0
 32 25  1  0
 32 52  1  0
 32 53  1  0
 33 32  1  0
 33 54  1  0
 33 55  1  0
 34 35  1  0
 34 56  1  0
 34 57  1  0
 34 58  1  0
 35 36  1  0
 35 33  1  0
 35 59  1  0
 36 60  1  0
 36 61  1  0
 36 62  1  0
M  END
>  <minimizedAffinity>  (10) 
-9.36266

>  <mol_id>  (10) 
129105

>  <source_index>  (10) 
9

>  <layer>  (10) 
L2

>  <uniprot>  (10) 
Q6P179

>  <paff>  (10) 
6.8239000000000001

>  <smiles>  (10) 
CC(C)CCC(C(=O)NO)C(=O)NCCc1c[nH]c2ccc(OCc3ccncc3)cc12

$$$$
