L4:P50052:13708
     RDKit          3D

 80 86  0  0  0  0  0  0  0  0999 V2000
   61.6255    8.6483    3.6726 C   0  0  0  0  0  0  0  0  0  0  0  0
   62.7962    8.3359    4.1344 N   0  0  0  0  0  0  0  0  0  0  0  0
   63.7478    9.3408    4.3082 C   0  0  0  0  0  0  0  0  0  0  0  0
   64.9941    9.0083    4.8359 C   0  0  0  0  0  0  0  0  0  0  0  0
   65.9745    9.9898    5.0248 C   0  0  0  0  0  0  0  0  0  0  0  0
   65.7204   11.3288    4.6972 C   0  0  0  0  0  0  0  0  0  0  0  0
   64.4737   11.6553    4.1505 C   0  0  0  0  0  0  0  0  0  0  0  0
   63.5025   10.6623    3.9662 C   0  0  0  0  0  0  0  0  0  0  0  0
   62.1822   10.9839    3.4062 C   0  0  0  0  0  0  0  0  0  0  0  0
   61.9500   12.1350    3.0433 O   0  0  0  0  0  0  0  0  0  0  0  0
   61.2592    9.9361    3.3273 N   0  0  0  0  0  0  0  0  0  0  0  0
   66.7307   12.3265    4.8862 N   0  0  0  0  0  0  0  0  0  0  0  0
   66.5028   13.5683    5.5238 C   0  0  0  0  0  0  0  0  0  0  0  0
   67.1917   14.5532    5.2496 O   0  0  0  0  0  0  0  0  0  0  0  0
   65.4990   13.6197    6.5884 C   0  0  0  0  0  0  0  0  0  0  0  0
   65.4903   13.0133    7.8332 C   0  0  0  0  0  0  0  0  0  0  0  0
   64.3132   13.3124    8.5802 C   0  0  0  0  0  0  0  0  0  0  0  0
   63.4711   14.1574    7.8946 C   0  0  0  0  0  0  0  0  0  0  0  0
   64.1054   14.5982    6.3695 S   0  0  0  0  0  0  0  0  0  0  0  0
   67.9477   12.2111    4.0681 C   0  0  0  0  0  0  0  0  0  0  0  0
   68.9300   11.1859    4.5983 C   0  0  0  0  0  0  0  0  0  0  0  0
   69.0501   10.9599    5.9778 C   0  0  0  0  0  0  0  0  0  0  0  0
   69.9741   10.0362    6.4690 C   0  0  0  0  0  0  0  0  0  0  0  0
   70.7889    9.3275    5.5888 C   0  0  0  0  0  0  0  0  0  0  0  0
   70.6784    9.5399    4.2166 C   0  0  0  0  0  0  0  0  0  0  0  0
   69.7550   10.4638    3.7225 C   0  0  0  0  0  0  0  0  0  0  0  0
   61.0385    6.6707    2.2571 C   0  0  0  0  0  0  0  0  0  0  0  0
   60.6562    7.4929    3.4770 C   0  0  0  0  0  0  0  0  0  0  0  0
   59.9204   10.3100    2.8537 C   0  0  0  0  0  0  0  0  0  0  0  0
   59.8123   10.3907    1.3145 C   0  0  0  0  0  0  0  0  0  0  0  0
   59.2157   11.7527    0.8903 C   0  0  0  0  0  0  0  0  0  0  0  0
   60.0297   12.4610   -0.1939 C   0  0  0  0  0  0  0  0  0  0  0  0
   60.3258   11.5084   -1.2585 N   0  0  0  0  0  0  0  0  0  0  0  0
   61.0297   10.2713   -0.9030 C   0  0  0  0  0  0  0  0  0  0  0  0
   61.1507   10.1132    0.6140 C   0  0  0  0  0  0  0  0  0  0  0  0
   60.6489   12.0171   -2.5235 C   0  0  0  0  0  0  0  0  0  0  0  0
   61.7663   12.8764   -2.5672 C   0  0  0  0  0  0  0  0  0  0  0  0
   62.2389   13.4142   -3.7650 C   0  0  0  0  0  0  0  0  0  0  0  0
   61.6016   13.1035   -4.9574 C   0  0  0  0  0  0  0  0  0  0  0  0
   60.4830   12.2709   -4.9429 C   0  0  0  0  0  0  0  0  0  0  0  0
   59.9819   11.7324   -3.7371 C   0  0  0  0  0  0  0  0  0  0  0  0
   58.7595   10.9415   -3.8185 C   0  0  0  0  0  0  0  0  0  0  0  0
   57.5049   11.4427   -3.5459 N   0  0  0  0  0  0  0  0  0  0  0  0
   56.6398   10.4612   -3.7568 N   0  0  0  0  0  0  0  0  0  0  0  0
   57.3926    9.4365   -4.1687 N   0  0  0  0  0  0  0  0  0  0  0  0
   58.7118    9.6603   -4.2357 N   0  0  0  0  0  0  0  0  0  0  0  0
   56.9830    8.5406   -4.4180 H   0  0  0  0  0  0  0  0  0  0  0  0
   65.1964    8.0287    5.0900 H   0  0  0  0  0  0  0  0  0  0  0  0
   66.8946    9.7245    5.4096 H   0  0  0  0  0  0  0  0  0  0  0  0
   64.2693   12.6307    3.8823 H   0  0  0  0  0  0  0  0  0  0  0  0
   66.2522   12.4109    8.1820 H   0  0  0  0  0  0  0  0  0  0  0  0
   64.1164   12.9397    9.5222 H   0  0  0  0  0  0  0  0  0  0  0  0
   62.5631   14.4865    8.2583 H   0  0  0  0  0  0  0  0  0  0  0  0
   68.4322   13.1648    4.0432 H   0  0  0  0  0  0  0  0  0  0  0  0
   67.6458   11.8874    3.0939 H   0  0  0  0  0  0  0  0  0  0  0  0
   68.4497   11.4815    6.6354 H   0  0  0  0  0  0  0  0  0  0  0  0
   70.0538    9.8780    7.4857 H   0  0  0  0  0  0  0  0  0  0  0  0
   71.4733    8.6462    5.9529 H   0  0  0  0  0  0  0  0  0  0  0  0
   71.2800    9.0136    3.5639 H   0  0  0  0  0  0  0  0  0  0  0  0
   69.6787   10.6167    2.7047 H   0  0  0  0  0  0  0  0  0  0  0  0
   60.3447    5.8648    2.1385 H   0  0  0  0  0  0  0  0  0  0  0  0
   62.0245    6.2762    2.3876 H   0  0  0  0  0  0  0  0  0  0  0  0
   61.0154    7.2923    1.3865 H   0  0  0  0  0  0  0  0  0  0  0  0
   60.6777    6.8659    4.3438 H   0  0  0  0  0  0  0  0  0  0  0  0
   59.6735    7.8898    3.3298 H   0  0  0  0  0  0  0  0  0  0  0  0
   59.6719   11.2675    3.2615 H   0  0  0  0  0  0  0  0  0  0  0  0
   59.2465    9.5444    3.1772 H   0  0  0  0  0  0  0  0  0  0  0  0
   59.1473    9.6151    0.9964 H   0  0  0  0  0  0  0  0  0  0  0  0
   59.1727   12.3870    1.7509 H   0  0  0  0  0  0  0  0  0  0  0  0
   58.2459   11.5593    0.4816 H   0  0  0  0  0  0  0  0  0  0  0  0
   60.9436   12.8278    0.2247 H   0  0  0  0  0  0  0  0  0  0  0  0
   59.4710   13.2840   -0.5881 H   0  0  0  0  0  0  0  0  0  0  0  0
   62.0106   10.2941   -1.3298 H   0  0  0  0  0  0  0  0  0  0  0  0
   60.4686    9.4436   -1.2838 H   0  0  0  0  0  0  0  0  0  0  0  0
   61.8839   10.8020    0.9785 H   0  0  0  0  0  0  0  0  0  0  0  0
   61.4390    9.1048    0.8257 H   0  0  0  0  0  0  0  0  0  0  0  0
   62.2491   13.1147   -1.6868 H   0  0  0  0  0  0  0  0  0  0  0  0
   63.0591   14.0405   -3.7638 H   0  0  0  0  0  0  0  0  0  0  0  0
   61.9530   13.4860   -5.8492 H   0  0  0  0  0  0  0  0  0  0  0  0
   60.0113   12.0433   -5.8321 H   0  0  0  0  0  0  0  0  0  0  0  0
  1  2  2  0
  2  3  1  0
  3  4  2  0
  4  5  1  0
  4 48  1  0
  5  6  2  0
  5 49  1  0
  6 12  1  0
  6  7  1  0
  7  8  2  0
  7 50  1  0
  8  9  1  0
  8  3  1  0
  9 10  2  0
  9 11  1  0
 11 29  1  0
 11  1  1  0
 12 20  1  0
 12 13  1  0
 13 14  2  0
 13 15  1  0
 15 16  2  0
 16 17  1  0
 16 51  1  0
 17 18  2  0
 17 52  1  0
 18 19  1  0
 18 53  1  0
 19 15  1  0
 20 21  1  0
 20 54  1  0
 20 55  1  0
 21 22  2  0
 22 23  1  0
 22 56  1  0
 23 24  2  0
 23 57  1  0
 24 25  1  0
 24 58  1  0
 25 26  2  0
 25 59  1  0
 26 21  1  0
 26 60  1  0
 27 28  1  0
 27 61  1  0
 27 62  1  0
 27 63  1  0
 28  1  1  0
 28 64  1  0
 28 65  1  0
 29 30  1  0
 29 66  1  0
 29 67  1  0
 30 31  1  0
 30 68  1  0
 31 32  1  0
 31 69  1  0
 31 70  1  0
 32 33  1  0
 32 71  1  0
 32 72  1  0
 33 36  1  0
 33 34  1  0
 34 35  1  0
 34 73  1  0
 34 74  1  0
 35 30  1  0
 35 75  1  0
 35 76  1  0
 36 37  2  0
 37 38  1  0
 37 77  1  0
 38 39  2  0
 38 78  1  0
 39 40  1  0
 39 79  1  0
 40 41  2  0
 40 80  1  0
 41 42  1  0
 41 36  1  0
 42 43  1  0
 43 44  2  0
 44 45  1  0
 45 46  1  0
 45 47  1  0
 46 42  2  0
M  END
>  <minimizedAffinity>  (1) 
-9.73888

>  <mol_id>  (1) 
13708

>  <source_index>  (1) 
0

>  <layer>  (1) 
L4

>  <uniprot>  (1) 
P50052

>  <paff>  (1) 
6.9913999999999996

>  <smiles>  (1) 
CCc1nc2ccc(N(Cc3ccccc3)C(=O)c3cccs3)cc2c(=O)n1CC1CCN(c2ccccc2-c2nn[nH]n2)CC1

$$$$
L4:P50052:15042
     RDKit          3D

 76 81  0  0  0  0  0  0  0  0999 V2000
   62.6753   10.0055    4.0240 C   0  0  0  0  0  0  0  0  0  0  0  0
   63.1281    8.8453    4.6741 C   0  0  0  0  0  0  0  0  0  0  0  0
   64.4527    8.7197    5.1190 C   0  0  0  0  0  0  0  0  0  0  0  0
   65.3653    9.7498    4.9250 C   0  0  0  0  0  0  0  0  0  0  0  0
   66.6810    9.5947    5.3592 N   0  0  0  0  0  0  0  0  0  0  0  0
   67.5023   10.5935    5.2645 C   0  0  0  0  0  0  0  0  0  0  0  0
   67.1376   11.8313    4.7533 N   0  0  0  0  0  0  0  0  0  0  0  0
   65.9140   11.9712    4.0918 C   0  0  0  0  0  0  0  0  0  0  0  0
   65.6154   12.9231    3.3719 O   0  0  0  0  0  0  0  0  0  0  0  0
   64.9347   10.8927    4.2757 C   0  0  0  0  0  0  0  0  0  0  0  0
   63.6127   11.0290    3.8246 C   0  0  0  0  0  0  0  0  0  0  0  0
   61.3128   10.1241    3.5458 N   0  0  0  0  0  0  0  0  0  0  0  0
   60.5813   11.3267    3.7558 C   0  0  0  0  0  0  0  0  0  0  0  0
   61.0761   12.3437    4.2420 O   0  0  0  0  0  0  0  0  0  0  0  0
   59.1811   11.3373    3.3719 C   0  0  0  0  0  0  0  0  0  0  0  0
   58.0795   11.0481    4.1513 C   0  0  0  0  0  0  0  0  0  0  0  0
   56.8596   11.1945    3.4290 C   0  0  0  0  0  0  0  0  0  0  0  0
   57.0756   11.5987    2.1277 C   0  0  0  0  0  0  0  0  0  0  0  0
   58.7375   11.8484    1.7982 S   0  0  0  0  0  0  0  0  0  0  0  0
   60.7646    9.0118    2.7359 C   0  0  0  0  0  0  0  0  0  0  0  0
   62.3341    7.9149    1.0547 C   0  0  0  0  0  0  0  0  0  0  0  0
   61.2678    8.9732    1.2857 C   0  0  0  0  0  0  0  0  0  0  0  0
   68.9448   10.3749    5.7125 C   0  0  0  0  0  0  0  0  0  0  0  0
   69.8793    9.9020    4.6077 C   0  0  0  0  0  0  0  0  0  0  0  0
   68.0305   13.0014    4.7174 C   0  0  0  0  0  0  0  0  0  0  0  0
   67.7197   14.1240    5.7393 C   0  0  0  0  0  0  0  0  0  0  0  0
   66.8301   15.2629    5.1974 C   0  0  0  0  0  0  0  0  0  0  0  0
   66.0755   16.0286    6.2921 C   0  0  0  0  0  0  0  0  0  0  0  0
   66.8802   16.0450    7.5082 N   0  0  0  0  0  0  0  0  0  0  0  0
   67.1354   14.7393    8.1299 C   0  0  0  0  0  0  0  0  0  0  0  0
   67.1779   13.6184    7.0809 C   0  0  0  0  0  0  0  0  0  0  0  0
   66.6154   17.0550    8.4490 C   0  0  0  0  0  0  0  0  0  0  0  0
   67.7422   17.7962    8.8682 C   0  0  0  0  0  0  0  0  0  0  0  0
   67.6390   18.8628    9.7618 C   0  0  0  0  0  0  0  0  0  0  0  0
   66.3966   19.2185   10.2661 C   0  0  0  0  0  0  0  0  0  0  0  0
   65.2674   18.4953    9.8840 C   0  0  0  0  0  0  0  0  0  0  0  0
   65.3578   17.4047    8.9904 C   0  0  0  0  0  0  0  0  0  0  0  0
   64.1166   16.6969    8.7145 C   0  0  0  0  0  0  0  0  0  0  0  0
   63.8628   15.4425    9.2310 N   0  0  0  0  0  0  0  0  0  0  0  0
   62.6985   15.0503    8.7349 N   0  0  0  0  0  0  0  0  0  0  0  0
   62.3175   16.0563    7.9407 N   0  0  0  0  0  0  0  0  0  0  0  0
   63.1502   17.1057    7.8704 N   0  0  0  0  0  0  0  0  0  0  0  0
   61.4450   16.0235    7.4211 H   0  0  0  0  0  0  0  0  0  0  0  0
   62.4697    8.0657    4.8283 H   0  0  0  0  0  0  0  0  0  0  0  0
   64.7522    7.8543    5.5948 H   0  0  0  0  0  0  0  0  0  0  0  0
   63.3268   11.8940    3.3397 H   0  0  0  0  0  0  0  0  0  0  0  0
   58.1328   10.7597    5.1408 H   0  0  0  0  0  0  0  0  0  0  0  0
   55.9257   11.0190    3.8316 H   0  0  0  0  0  0  0  0  0  0  0  0
   56.3237   11.7347    1.4340 H   0  0  0  0  0  0  0  0  0  0  0  0
   61.0339    8.0901    3.2079 H   0  0  0  0  0  0  0  0  0  0  0  0
   59.7064    9.1629    2.6874 H   0  0  0  0  0  0  0  0  0  0  0  0
   62.6429    7.9373    0.0305 H   0  0  0  0  0  0  0  0  0  0  0  0
   61.9345    6.9496    1.2857 H   0  0  0  0  0  0  0  0  0  0  0  0
   63.1755    8.1128    1.6853 H   0  0  0  0  0  0  0  0  0  0  0  0
   60.4380    8.7672    0.6423 H   0  0  0  0  0  0  0  0  0  0  0  0
   61.7102    9.9244    1.0751 H   0  0  0  0  0  0  0  0  0  0  0  0
   68.9464    9.6399    6.4901 H   0  0  0  0  0  0  0  0  0  0  0  0
   69.3119   11.3258    6.0381 H   0  0  0  0  0  0  0  0  0  0  0  0
   69.5520    8.9492    4.2473 H   0  0  0  0  0  0  0  0  0  0  0  0
   70.8732    9.8149    4.9942 H   0  0  0  0  0  0  0  0  0  0  0  0
   69.8695   10.6095    3.8051 H   0  0  0  0  0  0  0  0  0  0  0  0
   67.9742   13.4263    3.7370 H   0  0  0  0  0  0  0  0  0  0  0  0
   69.0002   12.6327    4.9796 H   0  0  0  0  0  0  0  0  0  0  0  0
   68.6874   14.5439    5.9188 H   0  0  0  0  0  0  0  0  0  0  0  0
   66.1131   14.8408    4.5246 H   0  0  0  0  0  0  0  0  0  0  0  0
   67.4784   15.9641    4.7148 H   0  0  0  0  0  0  0  0  0  0  0  0
   65.1413   15.5451    6.4878 H   0  0  0  0  0  0  0  0  0  0  0  0
   65.8934   17.0320    5.9682 H   0  0  0  0  0  0  0  0  0  0  0  0
   66.3558   14.5297    8.8321 H   0  0  0  0  0  0  0  0  0  0  0  0
   68.0862   14.7791    8.6191 H   0  0  0  0  0  0  0  0  0  0  0  0
   66.1874   13.2406    6.9356 H   0  0  0  0  0  0  0  0  0  0  0  0
   67.8307   12.8494    7.4379 H   0  0  0  0  0  0  0  0  0  0  0  0
   68.6724   17.5405    8.5015 H   0  0  0  0  0  0  0  0  0  0  0  0
   68.4828   19.3845   10.0462 H   0  0  0  0  0  0  0  0  0  0  0  0
   66.3088   20.0126   10.9193 H   0  0  0  0  0  0  0  0  0  0  0  0
   64.3452   18.7626   10.2623 H   0  0  0  0  0  0  0  0  0  0  0  0
  1  2  2  0
  2  3  1  0
  2 44  1  0
  3  4  2  0
  3 45  1  0
  4  5  1  0
  5  6  2  0
  6 23  1  0
  6  7  1  0
  7 25  1  0
  7  8  1  0
  8  9  2  0
  8 10  1  0
 10 11  2  0
 10  4  1  0
 11  1  1  0
 11 46  1  0
 12 13  1  0
 12  1  1  0
 13 14  2  0
 13 15  1  0
 15 16  2  0
 16 17  1  0
 16 47  1  0
 17 18  2  0
 17 48  1  0
 18 19  1  0
 18 49  1  0
 19 15  1  0
 20 12  1  0
 20 50  1  0
 20 51  1  0
 21 22  1  0
 21 52  1  0
 21 53  1  0
 21 54  1  0
 22 20  1  0
 22 55  1  0
 22 56  1  0
 23 24  1  0
 23 57  1  0
 23 58  1  0
 24 59  1  0
 24 60  1  0
 24 61  1  0
 25 26  1  0
 25 62  1  0
 25 63  1  0
 26 27  1  0
 26 64  1  0
 27 28  1  0
 27 65  1  0
 27 66  1  0
 28 29  1  0
 28 67  1  0
 28 68  1  0
 29 32  1  0
 29 30  1  0
 30 31  1  0
 30 69  1  0
 30 70  1  0
 31 26  1  0
 31 71  1  0
 31 72  1  0
 32 33  2  0
 33 34  1  0
 33 73  1  0
 34 35  2  0
 34 74  1  0
 35 36  1  0
 35 75  1  0
 36 37  2  0
 36 76  1  0
 37 38  1  0
 37 32  1  0
 38 39  1  0
 39 40  2  0
 40 41  1  0
 41 42  1  0
 41 43  1  0
 42 38  2  0
M  END
>  <minimizedAffinity>  (2) 
-10.01986

>  <mol_id>  (2) 
15042

>  <source_index>  (2) 
1

>  <layer>  (2) 
L4

>  <uniprot>  (2) 
P50052

>  <paff>  (2) 
6.7986000000000004

>  <smiles>  (2) 
CCCN(C(=O)c1cccs1)c1ccc2nc(CC)n(CC3CCN(c4ccccc4-c4nn[nH]n4)CC3)c(=O)c2c1

$$$$
L4:P50052:16998
     RDKit          3D

 71 75  0  0  0  0  0  0  0  0999 V2000
   65.8194   14.0733    5.4569 O   0  0  0  0  0  0  0  0  0  0  0  0
   66.0059   12.8827    5.1948 C   0  0  0  0  0  0  0  0  0  0  0  0
   65.1984   12.1882    4.2990 N   0  0  0  0  0  0  0  0  0  0  0  0
   64.2256   12.9392    3.5265 C   0  0  0  0  0  0  0  0  0  0  0  0
   62.8124   12.7778    4.0922 C   0  0  0  0  0  0  0  0  0  0  0  0
   62.4677   11.3076    4.4726 C   0  0  0  0  0  0  0  0  0  0  0  0
   63.5603   10.3449    3.9416 C   0  0  0  0  0  0  0  0  0  0  0  0
   64.9636   10.7501    4.4066 C   0  0  0  0  0  0  0  0  0  0  0  0
   66.9668   12.1587    5.8624 N   0  0  0  0  0  0  0  0  0  0  0  0
   67.4159   12.5622    7.1991 C   0  0  0  0  0  0  0  0  0  0  0  0
   68.4562   11.5221    7.6250 C   0  0  0  0  0  0  0  0  0  0  0  0
   68.9143   11.0255    6.2878 C   0  0  0  0  0  0  0  0  0  0  0  0
   70.0460   10.2741    6.0049 C   0  0  0  0  0  0  0  0  0  0  0  0
   70.3067    9.9454    4.6732 C   0  0  0  0  0  0  0  0  0  0  0  0
   69.4447   10.3759    3.6530 C   0  0  0  0  0  0  0  0  0  0  0  0
   68.3038   11.1187    3.9582 C   0  0  0  0  0  0  0  0  0  0  0  0
   67.5324   11.5450    2.9512 F   0  0  0  0  0  0  0  0  0  0  0  0
   68.0210   11.4157    5.2819 C   0  0  0  0  0  0  0  0  0  0  0  0
   62.3739   11.0566    5.9786 C   0  0  0  0  0  0  0  0  0  0  0  0
   62.0754    9.9871    6.4926 O   0  0  0  0  0  0  0  0  0  0  0  0
   62.7432   12.0862    6.7538 O   0  0  0  0  0  0  0  0  0  0  0  0
   62.5757   11.7802    7.6688 H   0  0  0  0  0  0  0  0  0  0  0  0
   61.1065   10.8913    3.8478 C   0  0  0  0  0  0  0  0  0  0  0  0
   60.8461   11.4579    2.4514 C   0  0  0  0  0  0  0  0  0  0  0  0
   60.6412   12.6657    2.3156 O   0  0  0  0  0  0  0  0  0  0  0  0
   60.8244   10.5453    1.3738 N   0  0  0  0  0  0  0  0  0  0  0  0
   61.1915    9.1059    1.5296 C   0  0  2  0  0  0  0  0  0  0  0  0
   61.9200    8.5656    0.2732 C   0  0  0  0  0  0  0  0  0  0  0  0
   61.8784    7.0368    0.1541 C   0  0  0  0  0  0  0  0  0  0  0  0
   61.8789    6.3692    1.5227 C   0  0  0  0  0  0  0  0  0  0  0  0
   60.6710    6.7973    2.3494 C   0  0  0  0  0  0  0  0  0  0  0  0
   61.0374    6.8297    3.6578 F   0  0  0  0  0  0  0  0  0  0  0  0
   59.6978    5.8537    2.2526 F   0  0  0  0  0  0  0  0  0  0  0  0
   60.0783    8.1462    1.9598 C   0  0  0  0  0  0  0  0  0  0  0  0
   60.8440   11.0990    0.0428 C   0  0  0  0  0  0  0  0  0  0  0  0
   59.6976   11.0426   -0.7657 C   0  0  0  0  0  0  0  0  0  0  0  0
   59.6918   11.5997   -2.0477 C   0  0  0  0  0  0  0  0  0  0  0  0
   60.8366   12.2135   -2.5431 C   0  0  0  0  0  0  0  0  0  0  0  0
   61.9904   12.2530   -1.7654 C   0  0  0  0  0  0  0  0  0  0  0  0
   61.9952   11.6913   -0.4842 C   0  0  0  0  0  0  0  0  0  0  0  0
   64.2377   12.5871    2.5162 H   0  0  0  0  0  0  0  0  0  0  0  0
   64.4887   13.9753    3.5728 H   0  0  0  0  0  0  0  0  0  0  0  0
   62.1113   13.1119    3.3561 H   0  0  0  0  0  0  0  0  0  0  0  0
   62.7609   13.3586    4.9894 H   0  0  0  0  0  0  0  0  0  0  0  0
   63.5360   10.3524    2.8719 H   0  0  0  0  0  0  0  0  0  0  0  0
   63.3548    9.3687    4.3286 H   0  0  0  0  0  0  0  0  0  0  0  0
   65.6851   10.2391    3.8039 H   0  0  0  0  0  0  0  0  0  0  0  0
   65.0520   10.4839    5.4392 H   0  0  0  0  0  0  0  0  0  0  0  0
   66.5927   12.5665    7.8826 H   0  0  0  0  0  0  0  0  0  0  0  0
   67.8277   13.5497    7.1933 H   0  0  0  0  0  0  0  0  0  0  0  0
   68.0161   10.7394    8.2069 H   0  0  0  0  0  0  0  0  0  0  0  0
   69.2372   11.9041    8.2488 H   0  0  0  0  0  0  0  0  0  0  0  0
   70.6789    9.9660    6.7596 H   0  0  0  0  0  0  0  0  0  0  0  0
   71.1388    9.3822    4.4376 H   0  0  0  0  0  0  0  0  0  0  0  0
   69.6561   10.1415    2.6705 H   0  0  0  0  0  0  0  0  0  0  0  0
   60.3249   11.2289    4.4959 H   0  0  0  0  0  0  0  0  0  0  0  0
   61.1346    9.8269    3.7424 H   0  0  0  0  0  0  0  0  0  0  0  0
   61.8560    9.1213    2.3681 H   0  0  0  0  0  0  0  0  0  0  0  0
   62.9435    8.8746    0.3157 H   0  0  0  0  0  0  0  0  0  0  0  0
   61.4123    8.9625   -0.5810 H   0  0  0  0  0  0  0  0  0  0  0  0
   62.7366    6.7074   -0.3935 H   0  0  0  0  0  0  0  0  0  0  0  0
   60.9756    6.7643   -0.3515 H   0  0  0  0  0  0  0  0  0  0  0  0
   62.7724    6.6432    2.0437 H   0  0  0  0  0  0  0  0  0  0  0  0
   61.8325    5.3096    1.3812 H   0  0  0  0  0  0  0  0  0  0  0  0
   59.5589    8.5601    2.7987 H   0  0  0  0  0  0  0  0  0  0  0  0
   59.4003    8.0081    1.1436 H   0  0  0  0  0  0  0  0  0  0  0  0
   58.8459   10.5826   -0.4079 H   0  0  0  0  0  0  0  0  0  0  0  0
   58.8383   11.5554   -2.6261 H   0  0  0  0  0  0  0  0  0  0  0  0
   60.8310   12.6382   -3.4837 H   0  0  0  0  0  0  0  0  0  0  0  0
   62.8449   12.6980   -2.1351 H   0  0  0  0  0  0  0  0  0  0  0  0
   62.8597   11.7145    0.0790 H   0  0  0  0  0  0  0  0  0  0  0  0
  1  2  2  0
  2  3  1  0
  2  9  1  0
  3  4  1  0
  4  5  1  0
  4 41  1  0
  4 42  1  0
  5  6  1  0
  5 43  1  0
  5 44  1  0
  6 23  1  0
  6 19  1  0
  6  7  1  0
  7  8  1  0
  7 45  1  0
  7 46  1  0
  8  3  1  0
  8 47  1  0
  8 48  1  0
  9 10  1  0
 10 11  1  0
 10 49  1  0
 10 50  1  0
 11 12  1  0
 11 51  1  0
 11 52  1  0
 12 13  2  0
 13 14  1  0
 13 53  1  0
 14 15  2  0
 14 54  1  0
 15 16  1  0
 15 55  1  0
 16 17  1  0
 16 18  2  0
 18  9  1  0
 18 12  1  0
 19 20  2  0
 19 21  1  0
 21 22  1  0
 23 24  1  0
 23 56  1  0
 23 57  1  0
 24 25  2  0
 24 26  1  0
 26 35  1  0
 26 27  1  0
 27 28  1  0
 27 58  1  1
 28 29  1  0
 28 59  1  0
 28 60  1  0
 29 30  1  0
 29 61  1  0
 29 62  1  0
 30 31  1  0
 30 63  1  0
 30 64  1  0
 31 32  1  0
 31 33  1  0
 31 34  1  0
 34 27  1  0
 34 65  1  0
 34 66  1  0
 35 36  2  0
 36 37  1  0
 36 67  1  0
 37 38  2  0
 37 68  1  0
 38 39  1  0
 38 69  1  0
 39 40  2  0
 39 70  1  0
 40 35  1  0
 40 71  1  0
M  END
>  <minimizedAffinity>  (3) 
-9.23160

>  <mol_id>  (3) 
16998

>  <source_index>  (3) 
2

>  <layer>  (3) 
L4

>  <uniprot>  (3) 
P50052

>  <paff>  (3) 
8.5185999999999993

>  <smiles>  (3) 
O=C(N1CCC(CC(=O)N(c2ccccc2)C2CCCC(F)(F)C2)(C(=O)O)CC1)N1CCc2cccc(F)c21

$$$$
L4:P50052:38303
     RDKit          3D

 58 61  0  0  0  0  0  0  0  0999 V2000
   64.8661   11.8565    5.3696 C   0  0  0  0  0  0  0  0  0  0  0  0
   65.8962   10.9603    5.0028 C   0  0  0  0  0  0  0  0  0  0  0  0
   67.2138   11.0678    5.4827 C   0  0  0  0  0  0  0  0  0  0  0  0
   67.5257   12.1169    6.3431 C   0  0  0  0  0  0  0  0  0  0  0  0
   66.5415   13.0295    6.7049 C   0  0  0  0  0  0  0  0  0  0  0  0
   66.9023   14.0479    7.5032 F   0  0  0  0  0  0  0  0  0  0  0  0
   65.2248   12.9219    6.2325 C   0  0  0  0  0  0  0  0  0  0  0  0
   60.6740   11.9935    4.1464 N   0  0  0  0  0  0  0  0  0  0  0  0
   61.7469   12.9298    3.7403 C   0  0  0  0  0  0  0  0  0  0  0  0
   63.1676   12.3256    3.6301 C   0  0  0  0  0  0  0  0  0  0  0  0
   63.5707   11.6624    4.8881 N   0  0  0  0  0  0  0  0  0  0  0  0
   62.4690   11.2801    5.7888 C   0  0  0  0  0  0  0  0  0  0  0  0
   61.2258   10.8795    4.9629 C   0  0  0  0  0  0  0  0  0  0  0  0
   59.9557   11.4610    2.9690 C   0  0  0  0  0  0  0  0  0  0  0  0
   61.9198    6.3408    1.1676 C   0  0  0  0  0  0  0  0  0  0  0  0
   61.3621    7.6436    1.6436 C   0  0  0  0  0  0  0  0  0  0  0  0
   60.4570    7.7036    2.7024 C   0  0  0  0  0  0  0  0  0  0  0  0
   59.9883    8.9401    3.1392 C   0  0  0  0  0  0  0  0  0  0  0  0
   60.4452   10.0969    2.5105 C   0  0  0  0  0  0  0  0  0  0  0  0
   61.3369   10.0629    1.4887 N   0  0  0  0  0  0  0  0  0  0  0  0
   61.7745    8.8480    1.0867 C   0  0  0  0  0  0  0  0  0  0  0  0
   64.3021   13.9779    6.5970 C   0  0  0  0  0  0  0  0  0  0  0  0
   63.5703   13.9648    7.7630 N   0  0  0  0  0  0  0  0  0  0  0  0
   62.8212   15.0590    7.7563 N   0  0  0  0  0  0  0  0  0  0  0  0
   63.1242   15.6655    6.6048 N   0  0  0  0  0  0  0  0  0  0  0  0
   64.0546   15.0690    5.8469 N   0  0  0  0  0  0  0  0  0  0  0  0
   62.6744   16.5326    6.3260 H   0  0  0  0  0  0  0  0  0  0  0  0
   68.2675   10.0670    5.0721 C   0  0  0  0  0  0  0  0  0  0  0  0
   69.5637   10.6480    4.4693 C   0  0  0  0  0  0  0  0  0  0  0  0
   69.3418   11.3181    3.1127 C   0  0  0  0  0  0  0  0  0  0  0  0
   70.6909    9.6185    4.3789 C   0  0  0  0  0  0  0  0  0  0  0  0
   65.6707   10.1913    4.3525 H   0  0  0  0  0  0  0  0  0  0  0  0
   68.4846   12.2168    6.7112 H   0  0  0  0  0  0  0  0  0  0  0  0
   61.7820   13.7201    4.4608 H   0  0  0  0  0  0  0  0  0  0  0  0
   61.4918   13.2502    2.7518 H   0  0  0  0  0  0  0  0  0  0  0  0
   63.8630   13.1088    3.4111 H   0  0  0  0  0  0  0  0  0  0  0  0
   63.1625   11.5933    2.8500 H   0  0  0  0  0  0  0  0  0  0  0  0
   62.2233   12.1087    6.4197 H   0  0  0  0  0  0  0  0  0  0  0  0
   62.7768   10.4476    6.3865 H   0  0  0  0  0  0  0  0  0  0  0  0
   60.4652   10.5437    5.6364 H   0  0  0  0  0  0  0  0  0  0  0  0
   61.5324   10.1120    4.2833 H   0  0  0  0  0  0  0  0  0  0  0  0
   58.9178   11.3803    3.2163 H   0  0  0  0  0  0  0  0  0  0  0  0
   60.1357   12.1413    2.1630 H   0  0  0  0  0  0  0  0  0  0  0  0
   61.4758    5.5395    1.7204 H   0  0  0  0  0  0  0  0  0  0  0  0
   62.9796    6.3314    1.3149 H   0  0  0  0  0  0  0  0  0  0  0  0
   61.7032    6.2191    0.1268 H   0  0  0  0  0  0  0  0  0  0  0  0
   60.1360    6.8361    3.1601 H   0  0  0  0  0  0  0  0  0  0  0  0
   59.3126    8.9989    3.9170 H   0  0  0  0  0  0  0  0  0  0  0  0
   62.4597    8.8132    0.3158 H   0  0  0  0  0  0  0  0  0  0  0  0
   67.8322    9.4158    4.3432 H   0  0  0  0  0  0  0  0  0  0  0  0
   68.5666    9.5801    5.9767 H   0  0  0  0  0  0  0  0  0  0  0  0
   69.8713   11.4065    5.1584 H   0  0  0  0  0  0  0  0  0  0  0  0
   69.0322   10.5839    2.3986 H   0  0  0  0  0  0  0  0  0  0  0  0
   70.2540   11.7715    2.7854 H   0  0  0  0  0  0  0  0  0  0  0  0
   68.5839   12.0678    3.2049 H   0  0  0  0  0  0  0  0  0  0  0  0
   70.4126    8.8441    3.6950 H   0  0  0  0  0  0  0  0  0  0  0  0
   70.8653    9.1947    5.3458 H   0  0  0  0  0  0  0  0  0  0  0  0
   71.5835   10.0964    4.0327 H   0  0  0  0  0  0  0  0  0  0  0  0
  1  2  2  0
  2  3  1  0
  2 32  1  0
  3 28  1  0
  3  4  2  0
  4  5  1  0
  4 33  1  0
  5  6  1  0
  5  7  2  0
  7 22  1  0
  7  1  1  0
  8  9  1  0
  9 10  1  0
  9 34  1  0
  9 35  1  0
 10 11  1  0
 10 36  1  0
 10 37  1  0
 11  1  1  0
 11 12  1  0
 12 13  1  0
 12 38  1  0
 12 39  1  0
 13  8  1  0
 13 40  1  0
 13 41  1  0
 14  8  1  0
 14 42  1  0
 14 43  1  0
 15 16  1  0
 15 44  1  0
 15 45  1  0
 15 46  1  0
 16 17  2  0
 17 18  1  0
 17 47  1  0
 18 19  2  0
 18 48  1  0
 19 14  1  0
 19 20  1  0
 20 21  2  0
 21 16  1  0
 21 49  1  0
 22 23  1  0
 23 24  2  0
 24 25  1  0
 25 26  1  0
 25 27  1  0
 26 22  2  0
 28 29  1  0
 28 50  1  0
 28 51  1  0
 29 30  1  0
 29 31  1  0
 29 52  1  0
 30 53  1  0
 30 54  1  0
 30 55  1  0
 31 56  1  0
 31 57  1  0
 31 58  1  0
M  END
>  <minimizedAffinity>  (4) 
-8.80700

>  <mol_id>  (4) 
38303

>  <source_index>  (4) 
3

>  <layer>  (4) 
L4

>  <uniprot>  (4) 
P50052

>  <paff>  (4) 
6.1871

>  <smiles>  (4) 
Cc1ccc(CN2CCN(c3cc(CC(C)C)cc(F)c3-c3nn[nH]n3)CC2)nc1

$$$$
L4:P50052:46537
     RDKit          3D

 61 65  0  0  0  0  0  0  0  0999 V2000
   64.9743   11.0000    5.0205 N   0  0  0  0  0  0  0  0  0  0  0  0
   66.2579   10.3421    5.3531 C   0  0  0  0  0  0  0  0  0  0  0  0
   67.4471   11.3362    5.2706 C   0  0  0  0  0  0  0  0  0  0  0  0
   67.1895   12.7048    5.7892 N   0  0  0  0  0  0  0  0  0  0  0  0
   65.9567   13.2555    5.1559 C   0  0  0  0  0  0  0  0  0  0  0  0
   65.1085   12.2736    4.3051 C   0  0  0  0  0  0  0  0  0  0  0  0
   63.0416    8.4391    3.0963 C   0  0  0  0  0  0  0  0  0  0  0  0
   61.9450    8.2528    3.9376 C   0  0  0  0  0  0  0  0  0  0  0  0
   61.8375    8.9888    5.1138 C   0  0  0  0  0  0  0  0  0  0  0  0
   60.7414    8.8014    5.8672 F   0  0  0  0  0  0  0  0  0  0  0  0
   62.8150    9.9195    5.4874 C   0  0  0  0  0  0  0  0  0  0  0  0
   63.9475   10.1149    4.6602 C   0  0  0  0  0  0  0  0  0  0  0  0
   64.0289    9.3660    3.4675 C   0  0  0  0  0  0  0  0  0  0  0  0
   62.6007   10.7053    6.6874 C   0  0  0  0  0  0  0  0  0  0  0  0
   62.9400   12.0375    6.7817 N   0  0  0  0  0  0  0  0  0  0  0  0
   62.6026   12.4340    8.0013 N   0  0  0  0  0  0  0  0  0  0  0  0
   62.0882   11.3426    8.5770 N   0  0  0  0  0  0  0  0  0  0  0  0
   62.0632   10.2311    7.8278 N   0  0  0  0  0  0  0  0  0  0  0  0
   61.7386   11.3585    9.5308 H   0  0  0  0  0  0  0  0  0  0  0  0
   63.1652    7.6526    1.8140 C   0  0  0  0  0  0  0  0  0  0  0  0
   61.8817    5.6780    0.8429 C   0  0  0  0  0  0  0  0  0  0  0  0
   61.8179    7.1503    1.2600 C   0  0  0  0  0  0  0  0  0  0  0  0
   61.4001    8.0090    0.0631 C   0  0  0  0  0  0  0  0  0  0  0  0
   67.0211   12.6833    7.2662 C   0  0  0  0  0  0  0  0  0  0  0  0
   66.6228   14.0662    7.7657 C   0  0  0  0  0  0  0  0  0  0  0  0
   67.4641   15.0500    7.7891 N   0  0  0  0  0  0  0  0  0  0  0  0
   67.0079   16.2836    8.2865 C   0  0  0  0  0  0  0  0  0  0  0  0
   67.9011   17.3550    8.3504 C   0  0  0  0  0  0  0  0  0  0  0  0
   67.4869   18.6006    8.8336 C   0  0  0  0  0  0  0  0  0  0  0  0
   66.1704   18.7870    9.2582 C   0  0  0  0  0  0  0  0  0  0  0  0
   65.2653   17.7274    9.2012 C   0  0  0  0  0  0  0  0  0  0  0  0
   65.6921   16.4864    8.7174 C   0  0  0  0  0  0  0  0  0  0  0  0
   64.7658   15.3439    8.6349 C   0  0  0  0  0  0  0  0  0  0  0  0
   63.5771   15.4456    8.9127 O   0  0  0  0  0  0  0  0  0  0  0  0
   65.3262   14.1721    8.2040 N   0  0  0  0  0  0  0  0  0  0  0  0
   64.7108   13.3805    8.0584 H   0  0  0  0  0  0  0  0  0  0  0  0
   66.4264    9.5410    4.6640 H   0  0  0  0  0  0  0  0  0  0  0  0
   66.1964    9.9760    6.3567 H   0  0  0  0  0  0  0  0  0  0  0  0
   67.7299   11.4236    4.2424 H   0  0  0  0  0  0  0  0  0  0  0  0
   68.2089   10.9275    5.9011 H   0  0  0  0  0  0  0  0  0  0  0  0
   66.2529   14.0628    4.5191 H   0  0  0  0  0  0  0  0  0  0  0  0
   65.3245   13.5367    5.9721 H   0  0  0  0  0  0  0  0  0  0  0  0
   65.5920   12.1060    3.3654 H   0  0  0  0  0  0  0  0  0  0  0  0
   64.1386   12.6928    4.1364 H   0  0  0  0  0  0  0  0  0  0  0  0
   61.2133    7.5692    3.6879 H   0  0  0  0  0  0  0  0  0  0  0  0
   64.8417    9.5040    2.8467 H   0  0  0  0  0  0  0  0  0  0  0  0
   63.6206    8.2797    1.0762 H   0  0  0  0  0  0  0  0  0  0  0  0
   63.7535    6.7866    2.0351 H   0  0  0  0  0  0  0  0  0  0  0  0
   60.9281    5.3725    0.4656 H   0  0  0  0  0  0  0  0  0  0  0  0
   62.1387    5.0779    1.6907 H   0  0  0  0  0  0  0  0  0  0  0  0
   62.6228    5.5549    0.0810 H   0  0  0  0  0  0  0  0  0  0  0  0
   61.0931    7.2343    2.0427 H   0  0  0  0  0  0  0  0  0  0  0  0
   62.1307    7.9182   -0.7133 H   0  0  0  0  0  0  0  0  0  0  0  0
   61.3274    9.0325    0.3665 H   0  0  0  0  0  0  0  0  0  0  0  0
   60.4502    7.6764   -0.3003 H   0  0  0  0  0  0  0  0  0  0  0  0
   67.9439   12.3935    7.7238 H   0  0  0  0  0  0  0  0  0  0  0  0
   66.2535   11.9831    7.5219 H   0  0  0  0  0  0  0  0  0  0  0  0
   68.8763   17.2266    8.0381 H   0  0  0  0  0  0  0  0  0  0  0  0
   68.1569   19.3844    8.8763 H   0  0  0  0  0  0  0  0  0  0  0  0
   65.8673   19.7072    9.6137 H   0  0  0  0  0  0  0  0  0  0  0  0
   64.2902   17.8577    9.5129 H   0  0  0  0  0  0  0  0  0  0  0  0
  1  2  1  0
  2  3  1  0
  2 37  1  0
  2 38  1  0
  3  4  1  0
  3 39  1  0
  3 40  1  0
  4 24  1  0
  4  5  1  0
  5  6  1  0
  5 41  1  0
  5 42  1  0
  6  1  1  0
  6 43  1  0
  6 44  1  0
  7  8  2  0
  8  9  1  0
  8 45  1  0
  9 10  1  0
  9 11  2  0
 11 14  1  0
 11 12  1  0
 12  1  1  0
 12 13  2  0
 13  7  1  0
 13 46  1  0
 14 15  1  0
 15 16  2  0
 16 17  1  0
 17 18  1  0
 17 19  1  0
 18 14  2  0
 20  7  1  0
 20 47  1  0
 20 48  1  0
 21 22  1  0
 21 49  1  0
 21 50  1  0
 21 51  1  0
 22 23  1  0
 22 20  1  0
 22 52  1  0
 23 53  1  0
 23 54  1  0
 23 55  1  0
 24 25  1  0
 24 56  1  0
 24 57  1  0
 25 26  2  0
 26 27  1  0
 27 28  2  0
 28 29  1  0
 28 58  1  0
 29 30  2  0
 29 59  1  0
 30 31  1  0
 30 60  1  0
 31 32  2  0
 31 61  1  0
 32 33  1  0
 32 27  1  0
 33 34  2  0
 33 35  1  0
 35 25  1  0
 35 36  1  0
M  END
>  <minimizedAffinity>  (5) 
-10.23011

>  <mol_id>  (5) 
46537

>  <source_index>  (5) 
4

>  <layer>  (5) 
L4

>  <uniprot>  (5) 
P50052

>  <paff>  (5) 
6.7958999999999996

>  <smiles>  (5) 
CC(C)Cc1cc(F)c(-c2nn[nH]n2)c(N2CCN(Cc3nc4ccccc4c(=O)[nH]3)CC2)c1

$$$$
L4:P50052:60167
     RDKit          3D

 68 71  0  0  0  0  0  0  0  0999 V2000
   59.8340   13.5086    1.2544 C   0  0  0  0  0  0  0  0  0  0  0  0
   59.4893   12.1415    0.8738 N   0  0  0  0  0  0  0  0  0  0  0  0
   60.4673   11.4547    0.1448 C   0  0  0  0  0  0  0  0  0  0  0  0
   61.3067   12.0482   -0.5360 O   0  0  0  0  0  0  0  0  0  0  0  0
   60.4948   10.0647    0.2938 N   0  0  0  0  0  0  0  0  0  0  0  0
   60.1262    9.4450    1.5704 C   0  0  0  0  0  0  0  0  0  0  0  0
   60.4409    7.9512    1.6105 C   0  0  0  0  0  0  0  0  0  0  0  0
   61.9468    7.6614    1.3321 C   0  0  0  0  0  0  0  0  0  0  0  0
   62.5326    8.7069    0.3374 C   0  0  0  0  0  0  0  0  0  0  0  0
   61.4357    9.3107   -0.5334 C   0  0  0  0  0  0  0  0  0  0  0  0
   58.0853   11.8322    0.7662 C   0  0  0  0  0  0  0  0  0  0  0  0
   57.2737   11.6760    1.9045 C   0  0  0  0  0  0  0  0  0  0  0  0
   55.9151   11.3644    1.7882 C   0  0  0  0  0  0  0  0  0  0  0  0
   55.3554   11.1983    0.5314 C   0  0  0  0  0  0  0  0  0  0  0  0
   54.0542   10.9048    0.4155 F   0  0  0  0  0  0  0  0  0  0  0  0
   56.1303   11.3347   -0.6104 C   0  0  0  0  0  0  0  0  0  0  0  0
   57.4878   11.6491   -0.4934 C   0  0  0  0  0  0  0  0  0  0  0  0
   62.0920    6.3026    0.6468 C   0  0  0  0  0  0  0  0  0  0  0  0
   62.4429    6.1009   -0.5040 O   0  0  0  0  0  0  0  0  0  0  0  0
   61.9002    5.2573    1.4775 O   0  0  0  0  0  0  0  0  0  0  0  0
   62.0082    4.4802    0.8876 H   0  0  0  0  0  0  0  0  0  0  0  0
   62.7670    7.7180    2.6488 C   0  0  0  0  0  0  0  0  0  0  0  0
   61.9351    7.9805    3.9082 C   0  0  0  0  0  0  0  0  0  0  0  0
   60.9698    7.2701    4.1950 O   0  0  0  0  0  0  0  0  0  0  0  0
   62.2841    9.0970    4.6834 N   0  0  0  0  0  0  0  0  0  0  0  0
   63.5812    9.6736    4.6190 C   0  0  0  0  0  0  0  0  0  0  0  0
   64.6862    8.9357    5.0517 C   0  0  0  0  0  0  0  0  0  0  0  0
   65.9637    9.4968    5.0129 C   0  0  0  0  0  0  0  0  0  0  0  0
   66.1425   10.7977    4.5477 C   0  0  0  0  0  0  0  0  0  0  0  0
   65.0440   11.5404    4.1184 C   0  0  0  0  0  0  0  0  0  0  0  0
   63.7655   10.9800    4.1531 C   0  0  0  0  0  0  0  0  0  0  0  0
   61.4815    9.3222    5.9094 C   0  0  2  0  0  0  0  0  0  0  0  0
   59.9987    9.6641    5.7130 C   0  0  0  0  0  0  0  0  0  0  0  0
   59.2698    9.7181    7.0599 C   0  0  0  0  0  0  0  0  0  0  0  0
   60.1988   10.0725    8.2180 C   0  0  0  0  0  0  0  0  0  0  0  0
   61.2063   10.9715    7.7723 O   0  0  0  0  0  0  0  0  0  0  0  0
   62.1326   10.3521    6.8677 C   0  0  0  0  0  0  0  0  0  0  0  0
   60.8984   13.6088    1.2991 H   0  0  0  0  0  0  0  0  0  0  0  0
   59.4144   13.7283    2.2139 H   0  0  0  0  0  0  0  0  0  0  0  0
   59.4418   14.1904    0.5290 H   0  0  0  0  0  0  0  0  0  0  0  0
   59.0759    9.5782    1.7254 H   0  0  0  0  0  0  0  0  0  0  0  0
   60.7016    9.9182    2.3385 H   0  0  0  0  0  0  0  0  0  0  0  0
   59.8511    7.4544    0.8688 H   0  0  0  0  0  0  0  0  0  0  0  0
   60.2125    7.5927    2.5924 H   0  0  0  0  0  0  0  0  0  0  0  0
   63.2528    8.2260   -0.2911 H   0  0  0  0  0  0  0  0  0  0  0  0
   62.9905    9.4928    0.9009 H   0  0  0  0  0  0  0  0  0  0  0  0
   60.9125    8.5257   -1.0384 H   0  0  0  0  0  0  0  0  0  0  0  0
   61.8802    9.9710   -1.2485 H   0  0  0  0  0  0  0  0  0  0  0  0
   57.6882   11.7934    2.8423 H   0  0  0  0  0  0  0  0  0  0  0  0
   55.3328   11.2588    2.6336 H   0  0  0  0  0  0  0  0  0  0  0  0
   55.7070   11.2047   -1.5426 H   0  0  0  0  0  0  0  0  0  0  0  0
   58.0608   11.7484   -1.3459 H   0  0  0  0  0  0  0  0  0  0  0  0
   63.4906    8.5009    2.5577 H   0  0  0  0  0  0  0  0  0  0  0  0
   63.2079    6.7510    2.7730 H   0  0  0  0  0  0  0  0  0  0  0  0
   64.5574    7.9732    5.4009 H   0  0  0  0  0  0  0  0  0  0  0  0
   66.7775    8.9468    5.3295 H   0  0  0  0  0  0  0  0  0  0  0  0
   67.0877   11.2112    4.5210 H   0  0  0  0  0  0  0  0  0  0  0  0
   65.1755   12.5046    3.7748 H   0  0  0  0  0  0  0  0  0  0  0  0
   62.9536   11.5314    3.8340 H   0  0  0  0  0  0  0  0  0  0  0  0
   61.4882    8.3494    6.3549 H   0  0  0  0  0  0  0  0  0  0  0  0
   59.5445    8.9154    5.0981 H   0  0  0  0  0  0  0  0  0  0  0  0
   59.9270   10.6239    5.2454 H   0  0  0  0  0  0  0  0  0  0  0  0
   58.8335    8.7601    7.2518 H   0  0  0  0  0  0  0  0  0  0  0  0
   58.5267   10.4852    6.9950 H   0  0  0  0  0  0  0  0  0  0  0  0
   60.6584    9.1807    8.5899 H   0  0  0  0  0  0  0  0  0  0  0  0
   59.6304   10.5379    8.9960 H   0  0  0  0  0  0  0  0  0  0  0  0
   62.8813    9.8497    7.4439 H   0  0  0  0  0  0  0  0  0  0  0  0
   62.5383   11.1313    6.2569 H   0  0  0  0  0  0  0  0  0  0  0  0
  1  2  1  0
  1 38  1  0
  1 39  1  0
  1 40  1  0
  2  3  1  0
  2 11  1  0
  3  4  2  0
  3  5  1  0
  5  6  1  0
  6  7  1  0
  6 41  1  0
  6 42  1  0
  7  8  1  0
  7 43  1  0
  7 44  1  0
  8 22  1  0
  8 18  1  0
  8  9  1  0
  9 10  1  0
  9 45  1  0
  9 46  1  0
 10  5  1  0
 10 47  1  0
 10 48  1  0
 11 12  2  0
 12 13  1  0
 12 49  1  0
 13 14  2  0
 13 50  1  0
 14 15  1  0
 14 16  1  0
 16 17  2  0
 16 51  1  0
 17 11  1  0
 17 52  1  0
 18 19  2  0
 18 20  1  0
 20 21  1  0
 22 23  1  0
 22 53  1  0
 22 54  1  0
 23 24  2  0
 23 25  1  0
 25 26  1  0
 25 32  1  0
 26 27  2  0
 27 28  1  0
 27 55  1  0
 28 29  2  0
 28 56  1  0
 29 30  1  0
 29 57  1  0
 30 31  2  0
 30 58  1  0
 31 26  1  0
 31 59  1  0
 32 33  1  0
 32 60  1  1
 33 34  1  0
 33 61  1  0
 33 62  1  0
 34 35  1  0
 34 63  1  0
 34 64  1  0
 35 36  1  0
 35 65  1  0
 35 66  1  0
 36 37  1  0
 37 32  1  0
 37 67  1  0
 37 68  1  0
M  END
>  <minimizedAffinity>  (6) 
-9.59614

>  <mol_id>  (6) 
60167

>  <source_index>  (6) 
5

>  <layer>  (6) 
L4

>  <uniprot>  (6) 
P50052

>  <paff>  (6) 
7.7798999999999996

>  <smiles>  (6) 
CN(C(=O)N1CCC(CC(=O)N(c2ccccc2)C2CCCOC2)(C(=O)O)CC1)c1ccc(F)cc1

$$$$
L4:P50052:70458
     RDKit          3D

 55 58  0  0  0  0  0  0  0  0999 V2000
   67.0405   11.2289    5.5174 C   0  0  0  0  0  0  0  0  0  0  0  0
   67.4415   12.3413    6.2548 C   0  0  0  0  0  0  0  0  0  0  0  0
   66.5006   13.2849    6.6601 C   0  0  0  0  0  0  0  0  0  0  0  0
   66.9364   14.3147    7.4042 F   0  0  0  0  0  0  0  0  0  0  0  0
   65.1408   13.1584    6.3411 C   0  0  0  0  0  0  0  0  0  0  0  0
   64.7131   12.0490    5.5830 C   0  0  0  0  0  0  0  0  0  0  0  0
   65.6806   11.0945    5.2013 C   0  0  0  0  0  0  0  0  0  0  0  0
   64.2281   14.1501    6.8679 C   0  0  0  0  0  0  0  0  0  0  0  0
   63.4527   13.9328    7.9858 N   0  0  0  0  0  0  0  0  0  0  0  0
   62.7546   15.0409    8.1894 N   0  0  0  0  0  0  0  0  0  0  0  0
   63.1454   15.8669    7.2120 N   0  0  0  0  0  0  0  0  0  0  0  0
   64.0370   15.3735    6.3423 N   0  0  0  0  0  0  0  0  0  0  0  0
   62.7810   16.8124    7.1342 H   0  0  0  0  0  0  0  0  0  0  0  0
   63.4079   11.7942    5.1596 N   0  0  0  0  0  0  0  0  0  0  0  0
   63.2102   11.7150    3.6998 C   0  0  0  0  0  0  0  0  0  0  0  0
   62.1771   10.6296    3.3146 C   0  0  0  0  0  0  0  0  0  0  0  0
   60.8847   10.7494    4.0236 N   0  0  0  0  0  0  0  0  0  0  0  0
   61.0820   11.0338    5.4673 C   0  0  0  0  0  0  0  0  0  0  0  0
   62.5412   10.9371    5.9772 C   0  0  0  0  0  0  0  0  0  0  0  0
   60.0612    9.5495    3.7907 C   0  0  0  0  0  0  0  0  0  0  0  0
   60.5722    8.6697    2.6656 C   0  0  0  0  0  0  0  0  0  0  0  0
   60.6577    9.2168    1.4181 N   0  0  0  0  0  0  0  0  0  0  0  0
   61.1429    8.4217    0.4318 C   0  0  0  0  0  0  0  0  0  0  0  0
   61.5421    7.1061    0.6246 C   0  0  0  0  0  0  0  0  0  0  0  0
   62.1426    6.1697   -0.6823 Cl  0  0  0  0  0  0  0  0  0  0  0  0
   61.4432    6.5602    1.8970 C   0  0  0  0  0  0  0  0  0  0  0  0
   60.9540    7.3539    2.9266 C   0  0  0  0  0  0  0  0  0  0  0  0
   60.8409    6.8319    4.1560 F   0  0  0  0  0  0  0  0  0  0  0  0
   68.0427   10.1930    5.0696 C   0  0  0  0  0  0  0  0  0  0  0  0
   69.2679   11.3524    3.1429 C   0  0  0  0  0  0  0  0  0  0  0  0
   69.3872   10.7302    4.5350 C   0  0  0  0  0  0  0  0  0  0  0  0
   70.4991    9.6799    4.5575 C   0  0  0  0  0  0  0  0  0  0  0  0
   68.4360   12.4660    6.5007 H   0  0  0  0  0  0  0  0  0  0  0  0
   65.3752   10.2650    4.6686 H   0  0  0  0  0  0  0  0  0  0  0  0
   64.1460   11.4817    3.2363 H   0  0  0  0  0  0  0  0  0  0  0  0
   62.8381   12.6604    3.3642 H   0  0  0  0  0  0  0  0  0  0  0  0
   62.5965    9.6712    3.5395 H   0  0  0  0  0  0  0  0  0  0  0  0
   61.9707   10.7552    2.2722 H   0  0  0  0  0  0  0  0  0  0  0  0
   60.4923   10.3354    6.0236 H   0  0  0  0  0  0  0  0  0  0  0  0
   60.7914   12.0542    5.6061 H   0  0  0  0  0  0  0  0  0  0  0  0
   62.8759    9.9232    5.9078 H   0  0  0  0  0  0  0  0  0  0  0  0
   62.5829   11.2599    6.9965 H   0  0  0  0  0  0  0  0  0  0  0  0
   59.0671    9.8634    3.5495 H   0  0  0  0  0  0  0  0  0  0  0  0
   60.0982    8.9655    4.6865 H   0  0  0  0  0  0  0  0  0  0  0  0
   61.2198    8.8182   -0.5179 H   0  0  0  0  0  0  0  0  0  0  0  0
   61.7275    5.5841    2.0745 H   0  0  0  0  0  0  0  0  0  0  0  0
   68.2537    9.5602    5.9062 H   0  0  0  0  0  0  0  0  0  0  0  0
   67.5856    9.6922    4.2419 H   0  0  0  0  0  0  0  0  0  0  0  0
   70.2272   11.7054    2.8266 H   0  0  0  0  0  0  0  0  0  0  0  0
   68.5797   12.1711    3.1759 H   0  0  0  0  0  0  0  0  0  0  0  0
   68.9133   10.6160    2.4523 H   0  0  0  0  0  0  0  0  0  0  0  0
   69.6627   11.5085    5.2156 H   0  0  0  0  0  0  0  0  0  0  0  0
   70.2527    8.8852    3.8847 H   0  0  0  0  0  0  0  0  0  0  0  0
   70.6010    9.2895    5.5485 H   0  0  0  0  0  0  0  0  0  0  0  0
   71.4214   10.1303    4.2550 H   0  0  0  0  0  0  0  0  0  0  0  0
  1  2  2  0
  2  3  1  0
  2 33  1  0
  3  4  1  0
  3  5  2  0
  5  8  1  0
  5  6  1  0
  6 14  1  0
  6  7  2  0
  7  1  1  0
  7 34  1  0
  8  9  1  0
  9 10  2  0
 10 11  1  0
 11 12  1  0
 11 13  1  0
 12  8  2  0
 14 15  1  0
 15 16  1  0
 15 35  1  0
 15 36  1  0
 16 17  1  0
 16 37  1  0
 16 38  1  0
 17 20  1  0
 17 18  1  0
 18 19  1  0
 18 39  1  0
 18 40  1  0
 19 14  1  0
 19 41  1  0
 19 42  1  0
 20 21  1  0
 20 43  1  0
 20 44  1  0
 21 22  2  0
 22 23  1  0
 23 24  2  0
 23 45  1  0
 24 25  1  0
 24 26  1  0
 26 27  2  0
 26 46  1  0
 27 28  1  0
 27 21  1  0
 29  1  1  0
 29 47  1  0
 29 48  1  0
 30 31  1  0
 30 49  1  0
 30 50  1  0
 30 51  1  0
 31 32  1  0
 31 29  1  0
 31 52  1  0
 32 53  1  0
 32 54  1  0
 32 55  1  0
M  END
>  <minimizedAffinity>  (7) 
-9.41442

>  <mol_id>  (7) 
70458

>  <source_index>  (7) 
6

>  <layer>  (7) 
L4

>  <uniprot>  (7) 
P50052

>  <paff>  (7) 
6.4214000000000002

>  <smiles>  (7) 
CC(C)Cc1cc(F)c(-c2nn[nH]n2)c(N2CCN(Cc3ncc(Cl)cc3F)CC2)c1

$$$$
L4:P50052:99833
     RDKit          3D

 68 71  0  0  0  0  0  0  0  0999 V2000
   67.4383   11.5973    5.6686 C   0  0  0  0  0  0  0  0  0  0  0  0
   66.4494   11.6195    4.7073 C   0  0  0  0  0  0  0  0  0  0  0  0
   65.3700   12.4975    5.0454 C   0  0  0  0  0  0  0  0  0  0  0  0
   65.5927   13.1505    6.2475 C   0  0  0  0  0  0  0  0  0  0  0  0
   67.0807   12.6667    6.9532 S   0  0  0  0  0  0  0  0  0  0  0  0
   64.1791   12.7204    4.2432 C   0  0  0  0  0  0  0  0  0  0  0  0
   64.1841   13.7051    3.2489 C   0  0  0  0  0  0  0  0  0  0  0  0
   63.0404   13.9320    2.4842 C   0  0  0  0  0  0  0  0  0  0  0  0
   61.8880   13.1799    2.7170 C   0  0  0  0  0  0  0  0  0  0  0  0
   61.8708   12.1945    3.7147 C   0  0  0  0  0  0  0  0  0  0  0  0
   63.0285   11.9497    4.4624 C   0  0  0  0  0  0  0  0  0  0  0  0
   60.6011   11.4449    3.9489 C   0  0  0  0  0  0  0  0  0  0  0  0
   59.6662   12.0296    4.4948 O   0  0  0  0  0  0  0  0  0  0  0  0
   60.5218   10.0086    3.4835 C   0  0  0  0  0  0  0  0  0  0  0  0
   60.4727    9.8648    2.0370 N   0  0  0  0  0  0  0  0  0  0  0  0
   59.9154   10.8244    1.2232 C   0  0  0  0  0  0  0  0  0  0  0  0
   60.1501   10.4021   -0.0553 C   0  0  0  0  0  0  0  0  0  0  0  0
   60.8304    9.2210   -0.0462 N   0  0  0  0  0  0  0  0  0  0  0  0
   61.0129    8.8827    1.2226 C   0  0  0  0  0  0  0  0  0  0  0  0
   61.6821    7.5734    1.6363 C   0  0  0  0  0  0  0  0  0  0  0  0
   63.0499    7.7808    2.3034 C   0  0  0  0  0  0  0  0  0  0  0  0
   61.9240    6.7108    0.3720 C   0  0  0  0  0  0  0  0  0  0  0  0
   60.7558    6.7694    2.5651 C   0  0  0  0  0  0  0  0  0  0  0  0
   64.6781   14.3494    7.1997 S   0  0  0  0  0  0  0  0  0  0  0  0
   63.4523   13.6634    7.5602 O   0  0  0  0  0  0  0  0  0  0  0  0
   64.6053   15.5552    6.4008 O   0  0  0  0  0  0  0  0  0  0  0  0
   65.4801   14.6973    8.6242 N   0  0  0  0  0  0  0  0  0  0  0  0
   64.8590   14.6066    9.4215 H   0  0  0  0  0  0  0  0  0  0  0  0
   66.0636   15.9633    8.6463 C   0  0  0  0  0  0  0  0  0  0  0  0
   65.3745   16.8564    9.3643 N   0  0  0  0  0  0  0  0  0  0  0  0
   65.9694   18.0627    9.5116 C   0  0  0  0  0  0  0  0  0  0  0  0
   67.2114   18.3686    8.9976 C   0  0  0  0  0  0  0  0  0  0  0  0
   67.9320   19.9042    9.1999 Cl  0  0  0  0  0  0  0  0  0  0  0  0
   67.8387   17.3469    8.3222 C   0  0  0  0  0  0  0  0  0  0  0  0
   67.2946   16.1212    8.1497 N   0  0  0  0  0  0  0  0  0  0  0  0
   68.7086   10.7933    5.6783 C   0  0  0  0  0  0  0  0  0  0  0  0
   69.3105   11.6141    3.3811 C   0  0  0  0  0  0  0  0  0  0  0  0
   69.1670   10.3746    4.2679 C   0  0  0  0  0  0  0  0  0  0  0  0
   70.4911    9.6059    4.2940 C   0  0  0  0  0  0  0  0  0  0  0  0
   66.4837   11.0636    3.8385 H   0  0  0  0  0  0  0  0  0  0  0  0
   65.0353   14.2640    3.0814 H   0  0  0  0  0  0  0  0  0  0  0  0
   63.0460   14.6547    1.7475 H   0  0  0  0  0  0  0  0  0  0  0  0
   61.0422   13.3502    2.1507 H   0  0  0  0  0  0  0  0  0  0  0  0
   63.0352   11.2026    5.1744 H   0  0  0  0  0  0  0  0  0  0  0  0
   59.6389    9.5677    3.8970 H   0  0  0  0  0  0  0  0  0  0  0  0
   61.4150    9.5223    3.8160 H   0  0  0  0  0  0  0  0  0  0  0  0
   59.4235   11.6828    1.5167 H   0  0  0  0  0  0  0  0  0  0  0  0
   59.8544   10.9057   -0.9062 H   0  0  0  0  0  0  0  0  0  0  0  0
   63.6848    8.3405    1.6488 H   0  0  0  0  0  0  0  0  0  0  0  0
   63.4960    6.8295    2.5056 H   0  0  0  0  0  0  0  0  0  0  0  0
   62.9218    8.3169    3.2205 H   0  0  0  0  0  0  0  0  0  0  0  0
   62.5667    7.2379   -0.3018 H   0  0  0  0  0  0  0  0  0  0  0  0
   60.9889    6.5125   -0.1088 H   0  0  0  0  0  0  0  0  0  0  0  0
   62.3834    5.7864    0.6535 H   0  0  0  0  0  0  0  0  0  0  0  0
   60.5642    7.3340    3.4536 H   0  0  0  0  0  0  0  0  0  0  0  0
   61.2268    5.8444    2.8250 H   0  0  0  0  0  0  0  0  0  0  0  0
   59.8322    6.5706    2.0627 H   0  0  0  0  0  0  0  0  0  0  0  0
   65.4657   18.7939   10.0376 H   0  0  0  0  0  0  0  0  0  0  0  0
   68.7747   17.5258    7.9261 H   0  0  0  0  0  0  0  0  0  0  0  0
   69.4812   11.3819    6.1272 H   0  0  0  0  0  0  0  0  0  0  0  0
   68.5163    9.8977    6.2314 H   0  0  0  0  0  0  0  0  0  0  0  0
   69.6288   11.3182    2.4033 H   0  0  0  0  0  0  0  0  0  0  0  0
   70.0356   12.2756    3.8073 H   0  0  0  0  0  0  0  0  0  0  0  0
   68.3674   12.1149    3.3128 H   0  0  0  0  0  0  0  0  0  0  0  0
   68.4203    9.7201    3.8691 H   0  0  0  0  0  0  0  0  0  0  0  0
   71.2611   10.2351    4.6891 H   0  0  0  0  0  0  0  0  0  0  0  0
   70.7498    9.3072    3.2996 H   0  0  0  0  0  0  0  0  0  0  0  0
   70.3877    8.7382    4.9115 H   0  0  0  0  0  0  0  0  0  0  0  0
  1  2  2  0
  2  3  1  0
  2 40  1  0
  3  6  1  0
  3  4  2  0
  4 24  1  0
  4  5  1  0
  5  1  1  0
  6  7  2  0
  7  8  1  0
  7 41  1  0
  8  9  2  0
  8 42  1  0
  9 10  1  0
  9 43  1  0
 10 12  1  0
 10 11  2  0
 11  6  1  0
 11 44  1  0
 12 13  2  0
 12 14  1  0
 14 15  1  0
 14 45  1  0
 14 46  1  0
 15 16  1  0
 16 17  2  0
 16 47  1  0
 17 18  1  0
 17 48  1  0
 18 19  2  0
 19 20  1  0
 19 15  1  0
 20 21  1  0
 20 22  1  0
 20 23  1  0
 21 49  1  0
 21 50  1  0
 21 51  1  0
 22 52  1  0
 22 53  1  0
 22 54  1  0
 23 55  1  0
 23 56  1  0
 23 57  1  0
 24 25  2  0
 24 26  2  0
 24 27  1  0
 27 29  1  0
 27 28  1  0
 29 30  2  0
 30 31  1  0
 31 32  2  0
 31 58  1  0
 32 33  1  0
 32 34  1  0
 34 35  2  0
 34 59  1  0
 35 29  1  0
 36  1  1  0
 36 60  1  0
 36 61  1  0
 37 38  1  0
 37 62  1  0
 37 63  1  0
 37 64  1  0
 38 39  1  0
 38 36  1  0
 38 65  1  0
 39 66  1  0
 39 67  1  0
 39 68  1  0
M  END
>  <minimizedAffinity>  (8) 
-10.09451

>  <mol_id>  (8) 
99833

>  <source_index>  (8) 
7

>  <layer>  (8) 
L4

>  <uniprot>  (8) 
P50052

>  <paff>  (8) 
8.4815000000000005

>  <smiles>  (8) 
CC(C)Cc1cc(-c2cccc(C(=O)Cn3ccnc3C(C)(C)C)c2)c(S(=O)(=O)Nc2ncc(Cl)cn2)s1

$$$$
L4:P50052:110461
     RDKit          3D

 55 58  0  0  0  0  0  0  0  0999 V2000
   66.0429   11.6231    5.5487 C   0  0  0  0  0  0  0  0  0  0  0  0
   64.6325   11.6320    5.4837 C   0  0  0  0  0  0  0  0  0  0  0  0
   63.8958   10.5292    5.0285 C   0  0  0  0  0  0  0  0  0  0  0  0
   64.5816    9.3812    4.6380 C   0  0  0  0  0  0  0  0  0  0  0  0
   65.9756    9.3426    4.7016 C   0  0  0  0  0  0  0  0  0  0  0  0
   66.7276   10.4485    5.1520 C   0  0  0  0  0  0  0  0  0  0  0  0
   66.6191   15.4699    7.3147 N   0  0  0  0  0  0  0  0  0  0  0  0
   67.2118   14.2584    7.9354 C   0  0  0  0  0  0  0  0  0  0  0  0
   66.5368   12.9421    7.4957 C   0  0  0  0  0  0  0  0  0  0  0  0
   66.7264   12.7446    6.0434 N   0  0  0  0  0  0  0  0  0  0  0  0
   66.7160   13.9795    5.2320 C   0  0  0  0  0  0  0  0  0  0  0  0
   66.0518   15.1585    5.9791 C   0  0  0  0  0  0  0  0  0  0  0  0
   67.6346   16.5421    7.2550 C   0  0  0  0  0  0  0  0  0  0  0  0
   65.7595   19.7031   11.1126 C   0  0  0  0  0  0  0  0  0  0  0  0
   66.5595   19.0581   10.0412 C   0  0  0  0  0  0  0  0  0  0  0  0
   67.7754   19.4310    9.5078 C   0  0  0  0  0  0  0  0  0  0  0  0
   68.2687   18.6160    8.5087 N   0  0  0  0  0  0  0  0  0  0  0  0
   67.4221   17.6295    8.2818 C   0  0  0  0  0  0  0  0  0  0  0  0
   66.0081   17.6334    9.2660 S   0  0  0  0  0  0  0  0  0  0  0  0
   68.1903   10.3275    5.1699 C   0  0  0  0  0  0  0  0  0  0  0  0
   68.9532   10.1734    6.3096 N   0  0  0  0  0  0  0  0  0  0  0  0
   70.2203   10.1006    5.9301 N   0  0  0  0  0  0  0  0  0  0  0  0
   70.1751   10.2245    4.6031 N   0  0  0  0  0  0  0  0  0  0  0  0
   68.9600   10.3652    4.0599 N   0  0  0  0  0  0  0  0  0  0  0  0
   71.0200   10.2115    4.0397 H   0  0  0  0  0  0  0  0  0  0  0  0
   62.3881   10.5862    4.9689 C   0  0  0  0  0  0  0  0  0  0  0  0
   61.6903    9.5173    5.8330 C   0  0  0  0  0  0  0  0  0  0  0  0
   60.6151    8.8054    5.0085 C   0  0  0  0  0  0  0  0  0  0  0  0
   61.0609   10.1195    7.0919 C   0  0  0  0  0  0  0  0  0  0  0  0
   64.1259   12.4802    5.7818 H   0  0  0  0  0  0  0  0  0  0  0  0
   64.0583    8.5580    4.3012 H   0  0  0  0  0  0  0  0  0  0  0  0
   66.4687    8.4835    4.4119 H   0  0  0  0  0  0  0  0  0  0  0  0
   67.1223   14.3452    8.9981 H   0  0  0  0  0  0  0  0  0  0  0  0
   68.2312   14.2094    7.6139 H   0  0  0  0  0  0  0  0  0  0  0  0
   65.4904   12.9889    7.7145 H   0  0  0  0  0  0  0  0  0  0  0  0
   66.9789   12.1238    8.0248 H   0  0  0  0  0  0  0  0  0  0  0  0
   66.1741   13.7943    4.3281 H   0  0  0  0  0  0  0  0  0  0  0  0
   67.7311   14.2484    5.0269 H   0  0  0  0  0  0  0  0  0  0  0  0
   65.0154   14.9254    6.1074 H   0  0  0  0  0  0  0  0  0  0  0  0
   66.2279   16.0247    5.3761 H   0  0  0  0  0  0  0  0  0  0  0  0
   68.5980   16.1059    7.4178 H   0  0  0  0  0  0  0  0  0  0  0  0
   67.5543   16.9990    6.2908 H   0  0  0  0  0  0  0  0  0  0  0  0
   66.2721   20.5735   11.4656 H   0  0  0  0  0  0  0  0  0  0  0  0
   65.6261   19.0153   11.9213 H   0  0  0  0  0  0  0  0  0  0  0  0
   64.8037   19.9854   10.7232 H   0  0  0  0  0  0  0  0  0  0  0  0
   68.2846   20.2669    9.8350 H   0  0  0  0  0  0  0  0  0  0  0  0
   62.0853   10.4483    3.9520 H   0  0  0  0  0  0  0  0  0  0  0  0
   62.0968   11.5397    5.3573 H   0  0  0  0  0  0  0  0  0  0  0  0
   62.4358    8.8161    6.1453 H   0  0  0  0  0  0  0  0  0  0  0  0
   59.8745    9.5137    4.7007 H   0  0  0  0  0  0  0  0  0  0  0  0
   60.1552    8.0442    5.6034 H   0  0  0  0  0  0  0  0  0  0  0  0
   61.0640    8.3607    4.1450 H   0  0  0  0  0  0  0  0  0  0  0  0
   60.3089   10.8270    6.8112 H   0  0  0  0  0  0  0  0  0  0  0  0
   61.8164   10.6117    7.6679 H   0  0  0  0  0  0  0  0  0  0  0  0
   60.6174    9.3407    7.6764 H   0  0  0  0  0  0  0  0  0  0  0  0
  1  2  2  0
  2  3  1  0
  2 30  1  0
  3 26  1  0
  3  4  2  0
  4  5  1  0
  4 31  1  0
  5  6  2  0
  5 32  1  0
  6 20  1  0
  6  1  1  0
  7  8  1  0
  8  9  1  0
  8 33  1  0
  8 34  1  0
  9 10  1  0
  9 35  1  0
  9 36  1  0
 10  1  1  0
 10 11  1  0
 11 12  1  0
 11 37  1  0
 11 38  1  0
 12  7  1  0
 12 39  1  0
 12 40  1  0
 13  7  1  0
 13 41  1  0
 13 42  1  0
 14 15  1  0
 14 43  1  0
 14 44  1  0
 14 45  1  0
 15 16  2  0
 16 17  1  0
 16 46  1  0
 17 18  2  0
 18 13  1  0
 18 19  1  0
 19 15  1  0
 20 21  1  0
 21 22  2  0
 22 23  1  0
 23 24  1  0
 23 25  1  0
 24 20  2  0
 26 27  1  0
 26 47  1  0
 26 48  1  0
 27 28  1  0
 27 29  1  0
 27 49  1  0
 28 50  1  0
 28 51  1  0
 28 52  1  0
 29 53  1  0
 29 54  1  0
 29 55  1  0
M  END
>  <minimizedAffinity>  (9) 
-7.77031

>  <mol_id>  (9) 
110461

>  <source_index>  (9) 
8

>  <layer>  (9) 
L4

>  <uniprot>  (9) 
P50052

>  <paff>  (9) 
7.4497999999999998

>  <smiles>  (9) 
Cc1cnc(CN2CCN(c3cc(CC(C)C)ccc3-c3nn[nH]n3)CC2)s1

$$$$
L4:P50052:128818
     RDKit          3D

 72 76  0  0  0  0  0  0  0  0999 V2000
   66.1554   18.4317    9.5233 C   0  0  0  0  0  0  0  0  0  0  0  0
   67.4153   19.0482    9.4032 C   0  0  0  0  0  0  0  0  0  0  0  0
   68.3535   18.5755    8.4843 C   0  0  0  0  0  0  0  0  0  0  0  0
   68.0056   17.4935    7.6901 C   0  0  0  0  0  0  0  0  0  0  0  0
   66.7584   16.8764    7.8049 C   0  0  0  0  0  0  0  0  0  0  0  0
   65.8225   17.3343    8.7182 C   0  0  0  0  0  0  0  0  0  0  0  0
   66.6538   15.8080    6.8896 N   0  0  0  0  0  0  0  0  0  0  0  0
   65.6934   14.8125    6.9517 C   0  0  0  0  0  0  0  0  0  0  0  0
   64.9194   14.6818    7.9016 O   0  0  0  0  0  0  0  0  0  0  0  0
   65.6747   13.8942    5.9021 N   0  0  0  0  0  0  0  0  0  0  0  0
   65.7095   14.3292    4.5099 C   0  0  0  0  0  0  0  0  0  0  0  0
   64.6376   13.6434    3.6515 C   0  0  0  0  0  0  0  0  0  0  0  0
   63.2947   13.4579    4.4121 C   0  0  0  0  0  0  0  0  0  0  0  0
   63.5542   12.6244    5.6988 C   0  0  0  0  0  0  0  0  0  0  0  0
   65.0217   12.6166    6.1351 C   0  0  0  0  0  0  0  0  0  0  0  0
   67.8756   15.8017    6.0627 C   0  0  0  0  0  0  0  0  0  0  0  0
   68.8687   16.7828    6.6978 C   0  0  0  0  0  0  0  0  0  0  0  0
   62.7374   14.8455    4.7324 C   0  0  0  0  0  0  0  0  0  0  0  0
   62.6617   15.3481    5.8439 O   0  0  0  0  0  0  0  0  0  0  0  0
   62.3585   15.5535    3.6555 O   0  0  0  0  0  0  0  0  0  0  0  0
   61.9639   16.3747    4.0134 H   0  0  0  0  0  0  0  0  0  0  0  0
   64.4444   19.3241   11.2573 N   0  0  0  0  0  0  0  0  0  0  0  0
   65.2086   18.9339   10.4756 C   0  0  0  0  0  0  0  0  0  0  0  0
   62.3038   12.7591    3.4516 C   0  0  0  0  0  0  0  0  0  0  0  0
   62.4908   11.2442    3.3556 C   0  0  0  0  0  0  0  0  0  0  0  0
   63.5283   10.7352    3.7867 O   0  0  0  0  0  0  0  0  0  0  0  0
   61.4403   10.4799    2.8263 N   0  0  0  0  0  0  0  0  0  0  0  0
   61.6215    9.0048    2.8215 C   0  0  2  0  0  0  0  0  0  0  0  0
   62.8276    8.5679    1.9590 C   0  0  0  0  0  0  0  0  0  0  0  0
   63.0721    7.0623    2.0519 C   0  0  0  0  0  0  0  0  0  0  0  0
   61.8204    6.2679    1.6969 C   0  0  0  0  0  0  0  0  0  0  0  0
   60.6302    6.7128    2.5274 C   0  0  0  0  0  0  0  0  0  0  0  0
   59.5246    6.0387    2.1202 F   0  0  0  0  0  0  0  0  0  0  0  0
   60.8326    6.3689    3.8242 F   0  0  0  0  0  0  0  0  0  0  0  0
   60.3672    8.2050    2.4378 C   0  0  0  0  0  0  0  0  0  0  0  0
   60.5575   11.0351    1.8617 C   0  0  0  0  0  0  0  0  0  0  0  0
   59.2666   11.4395    2.2263 C   0  0  0  0  0  0  0  0  0  0  0  0
   58.4053   11.9721    1.2669 C   0  0  0  0  0  0  0  0  0  0  0  0
   58.8290   12.1021   -0.0557 C   0  0  0  0  0  0  0  0  0  0  0  0
   60.1122   11.6941   -0.4224 C   0  0  0  0  0  0  0  0  0  0  0  0
   60.9767   11.1621    0.5352 C   0  0  0  0  0  0  0  0  0  0  0  0
   67.6474   19.8573   10.0003 H   0  0  0  0  0  0  0  0  0  0  0  0
   69.2812   19.0194    8.3983 H   0  0  0  0  0  0  0  0  0  0  0  0
   64.9011   16.8774    8.8036 H   0  0  0  0  0  0  0  0  0  0  0  0
   66.6725   14.1007    4.1032 H   0  0  0  0  0  0  0  0  0  0  0  0
   65.5144   15.3811    4.4935 H   0  0  0  0  0  0  0  0  0  0  0  0
   64.9996   12.6812    3.3546 H   0  0  0  0  0  0  0  0  0  0  0  0
   64.4482   14.2707    2.8056 H   0  0  0  0  0  0  0  0  0  0  0  0
   63.2498   11.6151    5.5158 H   0  0  0  0  0  0  0  0  0  0  0  0
   62.9934   13.0803    6.4878 H   0  0  0  0  0  0  0  0  0  0  0  0
   65.5402   11.8599    5.5842 H   0  0  0  0  0  0  0  0  0  0  0  0
   65.0488   12.4229    7.1871 H   0  0  0  0  0  0  0  0  0  0  0  0
   67.6431   16.1119    5.0654 H   0  0  0  0  0  0  0  0  0  0  0  0
   68.2947   14.8182    6.0179 H   0  0  0  0  0  0  0  0  0  0  0  0
   69.2655   17.4604    5.9710 H   0  0  0  0  0  0  0  0  0  0  0  0
   69.7269   16.3115    7.1295 H   0  0  0  0  0  0  0  0  0  0  0  0
   62.4321   13.1761    2.4746 H   0  0  0  0  0  0  0  0  0  0  0  0
   61.3230   12.9247    3.8459 H   0  0  0  0  0  0  0  0  0  0  0  0
   61.8226    8.7641    3.8445 H   0  0  0  0  0  0  0  0  0  0  0  0
   63.7018    9.0829    2.2988 H   0  0  0  0  0  0  0  0  0  0  0  0
   62.6133    8.8090    0.9388 H   0  0  0  0  0  0  0  0  0  0  0  0
   63.3658    6.8192    3.0517 H   0  0  0  0  0  0  0  0  0  0  0  0
   63.8414    6.8044    1.3544 H   0  0  0  0  0  0  0  0  0  0  0  0
   62.0035    5.2295    1.8787 H   0  0  0  0  0  0  0  0  0  0  0  0
   61.5943    6.4377    0.6649 H   0  0  0  0  0  0  0  0  0  0  0  0
   59.5704    8.4613    3.1044 H   0  0  0  0  0  0  0  0  0  0  0  0
   60.1021    8.4463    1.4296 H   0  0  0  0  0  0  0  0  0  0  0  0
   58.9529   11.3434    3.2047 H   0  0  0  0  0  0  0  0  0  0  0  0
   57.4545   12.2700    1.5357 H   0  0  0  0  0  0  0  0  0  0  0  0
   58.1928   12.5005   -0.7639 H   0  0  0  0  0  0  0  0  0  0  0  0
   60.4220   11.7859   -1.4025 H   0  0  0  0  0  0  0  0  0  0  0  0
   61.9261   10.8624    0.2633 H   0  0  0  0  0  0  0  0  0  0  0  0
  1  2  2  0
  2  3  1  0
  2 42  1  0
  3  4  2  0
  3 43  1  0
  4  5  1  0
  5  6  2  0
  5  7  1  0
  6  1  1  0
  6 44  1  0
  7  8  1  0
  7 16  1  0
  8  9  2  0
  8 10  1  0
 10 11  1  0
 11 12  1  0
 11 45  1  0
 11 46  1  0
 12 13  1  0
 12 47  1  0
 12 48  1  0
 13 24  1  0
 13 18  1  0
 13 14  1  0
 14 15  1  0
 14 49  1  0
 14 50  1  0
 15 10  1  0
 15 51  1  0
 15 52  1  0
 16 17  1  0
 16 53  1  0
 16 54  1  0
 17  4  1  0
 17 55  1  0
 17 56  1  0
 18 19  2  0
 18 20  1  0
 20 21  1  0
 22 23  3  0
 23  1  1  0
 24 25  1  0
 24 57  1  0
 24 58  1  0
 25 26  2  0
 25 27  1  0
 27 36  1  0
 27 28  1  0
 28 29  1  0
 28 59  1  1
 29 30  1  0
 29 60  1  0
 29 61  1  0
 30 31  1  0
 30 62  1  0
 30 63  1  0
 31 32  1  0
 31 64  1  0
 31 65  1  0
 32 33  1  0
 32 34  1  0
 32 35  1  0
 35 28  1  0
 35 66  1  0
 35 67  1  0
 36 37  2  0
 37 38  1  0
 37 68  1  0
 38 39  2  0
 38 69  1  0
 39 40  1  0
 39 70  1  0
 40 41  2  0
 40 71  1  0
 41 36  1  0
 41 72  1  0
M  END
>  <minimizedAffinity>  (10) 
-9.52571

>  <mol_id>  (10) 
128818

>  <source_index>  (10) 
9

>  <layer>  (10) 
L4

>  <uniprot>  (10) 
P50052

>  <paff>  (10) 
8.8728999999999996

>  <smiles>  (10) 
N#Cc1ccc2c(c1)N(C(=O)N1CCC(CC(=O)N(c3ccccc3)C3CCCC(F)(F)C3)(C(=O)O)CC1)CC2

$$$$
