L1:Q15059:10104


 44 48  0  0  0  0  0  0  0  0999 V2000
   24.4008   10.1195   26.2367 C   0  0  0  0  0  0  0  0  0  0  0  0
   25.2249    9.0220   26.4068 C   0  0  0  0  0  0  0  0  0  0  0  0
   24.3823    7.8977   26.5746 C   0  0  0  0  0  0  0  0  0  0  0  0
   24.6634    6.4916   26.7906 C   0  0  0  0  0  0  0  0  0  0  0  0
   25.8131    6.0688   26.8615 O   0  0  0  0  0  0  0  0  0  0  0  0
   23.5099    5.6877   26.9081 N   0  0  0  0  0  0  0  0  0  0  0  0
   23.6705    4.2589   27.1247 C   0  0  0  0  0  0  0  0  0  0  0  0
   22.2102    6.2005   26.8201 C   0  0  0  0  0  0  0  0  0  0  0  0
   21.9358    7.5070   26.6133 C   0  0  0  0  0  0  0  0  0  0  0  0
   23.0790    8.3474   26.4989 C   0  0  0  0  0  0  0  0  0  0  0  0
   23.0937    9.6977   26.2923 O   0  0  0  0  0  0  0  0  0  0  0  0
   20.5358    7.9687   26.5347 C   0  0  0  0  0  0  0  0  0  0  0  0
   19.6714    7.6875   27.6094 C   0  0  0  0  0  0  0  0  0  0  0  0
   18.3304    8.1141   27.6126 C   0  0  0  0  0  0  0  0  0  0  0  0
   17.8841    8.8317   26.4958 C   0  0  0  0  0  0  0  0  0  0  0  0
   16.6135    9.2551   26.4331 F   0  0  0  0  0  0  0  0  0  0  0  0
   18.7214    9.1296   25.4231 C   0  0  0  0  0  0  0  0  0  0  0  0
   20.0543    8.7133   25.4437 C   0  0  0  0  0  0  0  0  0  0  0  0
   17.3958    7.8090   28.7769 C   0  0  0  0  0  0  0  0  0  0  0  0
   18.0569    6.8745   29.7982 C   0  0  0  0  0  0  0  0  0  0  0  0
   16.9032    9.0972   29.4488 C   0  0  0  0  0  0  0  0  0  0  0  0
   16.2322    7.1239   28.2879 O   0  0  0  0  0  0  0  0  0  0  0  0
   15.6424    6.9640   29.0442 H   0  0  0  0  0  0  0  0  0  0  0  0
   20.9364    8.9703   24.4098 O   0  0  0  0  0  0  0  0  0  0  0  0
   20.4003    9.2284   23.1663 C   0  0  0  0  0  0  0  0  0  0  0  0
   20.6674   10.4806   22.5788 C   0  0  0  0  0  0  0  0  0  0  0  0
   21.5366   11.4941   23.2660 C   0  0  0  0  0  0  0  0  0  0  0  0
   20.1345   10.7578   21.3144 C   0  0  0  0  0  0  0  0  0  0  0  0
   19.3301    9.8189   20.6788 C   0  0  0  0  0  0  0  0  0  0  0  0
   18.8269   10.0965   19.4687 F   0  0  0  0  0  0  0  0  0  0  0  0
   19.0294    8.6015   21.2802 C   0  0  0  0  0  0  0  0  0  0  0  0
   19.5449    8.2960   22.5466 C   0  0  0  0  0  0  0  0  0  0  0  0
   19.1860    6.9891   23.1946 C   0  0  0  0  0  0  0  0  0  0  0  0
   24.4586   12.6646   26.7267 C   0  0  0  0  0  0  0  0  0  0  0  0
   25.0175   13.7434   26.0693 N   0  0  0  0  0  0  0  0  0  0  0  0
   25.5992   13.2564   24.9953 C   0  0  0  0  0  0  0  0  0  0  0  0
   25.4440   11.8974   24.9399 N   0  0  0  0  0  0  0  0  0  0  0  0
   24.7190   11.4954   26.0347 C   0  0  0  0  0  0  0  0  0  0  0  0
   25.7905   11.2823   24.2172 H   0  0  0  0  0  0  0  0  0  0  0  0
   26.3324   14.0235   23.9523 C   0  0  0  0  0  0  0  0  0  0  0  0
   26.3738   15.5070   24.2805 C   0  0  0  0  0  0  0  0  0  0  0  0
   23.7154   12.9003   27.9970 C   0  0  0  0  0  0  0  0  0  0  0  0
   25.2148   13.3354   30.0100 C   0  0  0  0  0  0  0  0  0  0  0  0
   24.4062   12.3092   29.2277 C   0  0  0  0  0  0  0  0  0  0  0  0
 43 44  1  0  0  0
 44 42  1  0  0  0
 42 34  1  0  0  0
 34 35  1  0  0  0
 35 36  2  0  0  0
 36 40  1  0  0  0
 40 41  1  0  0  0
 36 37  1  0  0  0
 37 38  1  0  0  0
 38  1  1  0  0  0
  1  2  2  0  0  0
  2  3  1  0  0  0
  3  4  1  0  0  0
  4  5  2  0  0  0
  4  6  1  0  0  0
  6  7  1  0  0  0
  6  8  1  0  0  0
  8  9  2  0  0  0
  9 12  1  0  0  0
 12 13  2  0  0  0
 13 14  1  0  0  0
 14 19  1  0  0  0
 19 20  1  0  0  0
 19 21  1  0  0  0
 19 22  1  0  0  0
 14 15  2  0  0  0
 15 16  1  0  0  0
 15 17  1  0  0  0
 17 18  2  0  0  0
 18 24  1  0  0  0
 24 25  1  0  0  0
 25 26  2  0  0  0
 26 27  1  0  0  0
 26 28  1  0  0  0
 28 29  2  0  0  0
 29 30  1  0  0  0
 29 31  1  0  0  0
 31 32  2  0  0  0
 32 33  1  0  0  0
  9 10  1  0  0  0
 10 11  1  0  0  0
 38 34  2  0  0  0
 11  1  1  0  0  0
 10  3  2  0  0  0
 18 12  1  0  0  0
 32 25  1  0  0  0
 37 39  1  0  0  0
 22 23  1  0  0  0
M  END
> <minimizedAffinity>
-9.78449

$$$$
