L1:Q15059:10104
     RDKit          3D

 77 81  0  0  0  0  0  0  0  0999 V2000
    7.1607    1.5883   -0.4363 C   0  0  0  0  0  0  0  0  0  0  0  0
    5.9661    2.5324   -0.4130 C   0  0  0  0  0  0  0  0  0  0  0  0
    5.2172    2.5207    0.9212 C   0  0  0  0  0  0  0  0  0  0  0  0
    4.5094    1.2379    1.1952 C   0  0  0  0  0  0  0  0  0  0  0  0
    5.1183    0.2981    2.0041 N   0  0  0  0  0  0  0  0  0  0  0  0
    4.2885   -0.7196    2.0717 C   0  0  0  0  0  0  0  0  0  0  0  0
    4.4951   -1.9914    2.8159 C   0  0  0  0  0  0  0  0  0  0  0  0
    5.1874   -3.0334    1.9528 C   0  0  0  0  0  0  0  0  0  0  0  0
    3.1584   -0.4667    1.3415 N   0  0  0  0  0  0  0  0  0  0  0  0
    3.2754    0.7774    0.7721 C   0  0  0  0  0  0  0  0  0  0  0  0
    2.2377    1.3055   -0.0522 C   0  0  0  0  0  0  0  0  0  0  0  0
    2.1718    2.4873   -0.7675 C   0  0  0  0  0  0  0  0  0  0  0  0
    0.9146    2.5050   -1.4165 C   0  0  0  0  0  0  0  0  0  0  0  0
    0.2840    3.4708   -2.2953 C   0  0  0  0  0  0  0  0  0  0  0  0
    0.8462    4.5138   -2.6141 O   0  0  0  0  0  0  0  0  0  0  0  0
   -1.0037    3.0939   -2.7317 N   0  0  0  0  0  0  0  0  0  0  0  0
   -1.7334    3.9878   -3.6164 C   0  0  0  0  0  0  0  0  0  0  0  0
   -1.6196    1.8968   -2.3477 C   0  0  0  0  0  0  0  0  0  0  0  0
   -1.0449    0.9923   -1.5251 C   0  0  0  0  0  0  0  0  0  0  0  0
   -1.7610   -0.2487   -1.1693 C   0  0  0  0  0  0  0  0  0  0  0  0
   -1.2263   -1.4806   -1.5908 C   0  0  0  0  0  0  0  0  0  0  0  0
   -1.8435   -2.7042   -1.2711 C   0  0  0  0  0  0  0  0  0  0  0  0
   -1.2633   -4.0371   -1.7280 C   0  0  0  0  0  0  0  0  0  0  0  0
   -0.8879   -4.9252   -0.5348 C   0  0  0  0  0  0  0  0  0  0  0  0
   -2.2230   -4.7673   -2.6763 C   0  0  0  0  0  0  0  0  0  0  0  0
   -0.0512   -3.8033   -2.4620 O   0  0  0  0  0  0  0  0  0  0  0  0
   -3.0207   -2.6491   -0.5145 C   0  0  0  0  0  0  0  0  0  0  0  0
   -3.6629   -3.7798   -0.1878 F   0  0  0  0  0  0  0  0  0  0  0  0
   -3.5659   -1.4436   -0.0786 C   0  0  0  0  0  0  0  0  0  0  0  0
   -2.9314   -0.2393   -0.3904 C   0  0  0  0  0  0  0  0  0  0  0  0
   -3.4223    0.9917    0.0056 O   0  0  0  0  0  0  0  0  0  0  0  0
   -4.0585    1.0592    1.2267 C   0  0  0  0  0  0  0  0  0  0  0  0
   -5.4557    1.2392    1.2345 C   0  0  0  0  0  0  0  0  0  0  0  0
   -6.2378    1.3217   -0.0448 C   0  0  0  0  0  0  0  0  0  0  0  0
   -6.1186    1.3055    2.4656 C   0  0  0  0  0  0  0  0  0  0  0  0
   -5.3939    1.2289    3.6495 C   0  0  0  0  0  0  0  0  0  0  0  0
   -6.0405    1.2930    4.8209 F   0  0  0  0  0  0  0  0  0  0  0  0
   -4.0094    1.0975    3.6404 C   0  0  0  0  0  0  0  0  0  0  0  0
   -3.3169    1.0317    2.4243 C   0  0  0  0  0  0  0  0  0  0  0  0
   -1.8188    0.9199    2.4324 C   0  0  0  0  0  0  0  0  0  0  0  0
    0.2598    1.3387   -1.0734 C   0  0  0  0  0  0  0  0  0  0  0  0
    1.0660    0.6126   -0.2434 O   0  0  0  0  0  0  0  0  0  0  0  0
    7.7011    1.6899   -1.3829 H   0  0  0  0  0  0  0  0  0  0  0  0
    7.8572    1.8157    0.3769 H   0  0  0  0  0  0  0  0  0  0  0  0
    6.8480    0.5439   -0.3420 H   0  0  0  0  0  0  0  0  0  0  0  0
    6.3267    3.5508   -0.6010 H   0  0  0  0  0  0  0  0  0  0  0  0
    5.2910    2.2758   -1.2374 H   0  0  0  0  0  0  0  0  0  0  0  0
    5.9214    2.7271    1.7371 H   0  0  0  0  0  0  0  0  0  0  0  0
    4.4935    3.3436    0.9379 H   0  0  0  0  0  0  0  0  0  0  0  0
    3.5340   -2.3838    3.1678 H   0  0  0  0  0  0  0  0  0  0  0  0
    5.1038   -1.7932    3.7056 H   0  0  0  0  0  0  0  0  0  0  0  0
    4.5897   -3.2755    1.0673 H   0  0  0  0  0  0  0  0  0  0  0  0
    6.1651   -2.6773    1.6100 H   0  0  0  0  0  0  0  0  0  0  0  0
    5.3415   -3.9559    2.5214 H   0  0  0  0  0  0  0  0  0  0  0  0
    2.3681   -1.0851    1.2245 H   0  0  0  0  0  0  0  0  0  0  0  0
    2.9304    3.2536   -0.8293 H   0  0  0  0  0  0  0  0  0  0  0  0
   -1.1600    4.8878   -3.8530 H   0  0  0  0  0  0  0  0  0  0  0  0
   -1.9584    3.4604   -4.5489 H   0  0  0  0  0  0  0  0  0  0  0  0
   -2.6677    4.2854   -3.1296 H   0  0  0  0  0  0  0  0  0  0  0  0
   -2.6141    1.7292   -2.7555 H   0  0  0  0  0  0  0  0  0  0  0  0
   -0.3081   -1.4810   -2.1789 H   0  0  0  0  0  0  0  0  0  0  0  0
   -0.1789   -4.4105    0.1250 H   0  0  0  0  0  0  0  0  0  0  0  0
   -1.7565   -5.2180    0.0628 H   0  0  0  0  0  0  0  0  0  0  0  0
   -0.3879   -5.8408   -0.8720 H   0  0  0  0  0  0  0  0  0  0  0  0
   -2.4585   -4.1437   -3.5471 H   0  0  0  0  0  0  0  0  0  0  0  0
   -3.1646   -5.0429   -2.1915 H   0  0  0  0  0  0  0  0  0  0  0  0
   -1.7646   -5.6835   -3.0666 H   0  0  0  0  0  0  0  0  0  0  0  0
    0.2842   -4.6649   -2.7630 H   0  0  0  0  0  0  0  0  0  0  0  0
   -4.4829   -1.4740    0.5001 H   0  0  0  0  0  0  0  0  0  0  0  0
   -7.2614    1.6669    0.1359 H   0  0  0  0  0  0  0  0  0  0  0  0
   -5.7738    2.0340   -0.7349 H   0  0  0  0  0  0  0  0  0  0  0  0
   -6.2895    0.3376   -0.5204 H   0  0  0  0  0  0  0  0  0  0  0  0
   -7.1972    1.4213    2.5189 H   0  0  0  0  0  0  0  0  0  0  0  0
   -3.4822    1.0589    4.5895 H   0  0  0  0  0  0  0  0  0  0  0  0
   -1.5111   -0.1074    2.2160 H   0  0  0  0  0  0  0  0  0  0  0  0
   -1.4067    1.1981    3.4084 H   0  0  0  0  0  0  0  0  0  0  0  0
   -1.3769    1.5993    1.6971 H   0  0  0  0  0  0  0  0  0  0  0  0
  1  2  1  0
  2  3  1  0
  3  4  1  0
  4  5  1  0
  5  6  2  0
  6  7  1  0
  7  8  1  0
  6  9  1  0
  9 10  1  0
 10 11  1  0
 11 12  2  0
 12 13  1  0
 13 14  1  0
 14 15  2  0
 14 16  1  0
 16 17  1  0
 16 18  1  0
 18 19  2  0
 19 20  1  0
 20 21  2  0
 21 22  1  0
 22 23  1  0
 23 24  1  0
 23 25  1  0
 23 26  1  0
 22 27  2  0
 27 28  1  0
 27 29  1  0
 29 30  2  0
 30 31  1  0
 31 32  1  0
 32 33  2  0
 33 34  1  0
 33 35  1  0
 35 36  2  0
 36 37  1  0
 36 38  1  0
 38 39  2  0
 39 40  1  0
 19 41  1  0
 41 42  1  0
 10  4  2  0
 42 11  1  0
 41 13  2  0
 30 20  1  0
 39 32  1  0
  1 43  1  0
  1 44  1  0
  1 45  1  0
  2 46  1  0
  2 47  1  0
  3 48  1  0
  3 49  1  0
  7 50  1  0
  7 51  1  0
  8 52  1  0
  8 53  1  0
  8 54  1  0
  9 55  1  0
 12 56  1  0
 17 57  1  0
 17 58  1  0
 17 59  1  0
 18 60  1  0
 21 61  1  0
 24 62  1  0
 24 63  1  0
 24 64  1  0
 25 65  1  0
 25 66  1  0
 25 67  1  0
 26 68  1  0
 29 69  1  0
 34 70  1  0
 34 71  1  0
 34 72  1  0
 35 73  1  0
 38 74  1  0
 40 75  1  0
 40 76  1  0
 40 77  1  0
M  END
>  <mol_id>  (1) 
10104

>  <source_index>  (1) 
0

>  <layer>  (1) 
L1

>  <uniprot>  (1) 
Q15059

>  <paff>  (1) 
6.3705999999999996

>  <smiles>  (1) 
CCCc1nc(CC)[nH]c1-c1cc2c(=O)n(C)cc(-c3cc(C(C)(C)O)c(F)cc3Oc3c(C)cc(F)cc3C)c2o1

$$$$
