L1:Q15059:10104
 OpenBabel09212617413D

 77 81  0  0  0  0  0  0  0  0999 V2000
   24.4008   10.1195   26.2367 C   0  0  0  0  0  0  0  0  0  0  0  0
   25.2249    9.0220   26.4068 C   0  0  0  0  0  0  0  0  0  0  0  0
   24.3823    7.8977   26.5746 C   0  0  0  0  0  0  0  0  0  0  0  0
   24.6634    6.4916   26.7906 C   0  0  0  0  0  0  0  0  0  0  0  0
   25.8131    6.0688   26.8615 O   0  0  0  0  0  0  0  0  0  0  0  0
   23.5099    5.6877   26.9081 N   0  0  0  0  0  0  0  0  0  0  0  0
   23.6705    4.2589   27.1247 C   0  0  0  0  0  0  0  0  0  0  0  0
   22.2102    6.2005   26.8201 C   0  0  0  0  0  0  0  0  0  0  0  0
   21.9358    7.5070   26.6133 C   0  0  0  0  0  0  0  0  0  0  0  0
   23.0790    8.3474   26.4989 C   0  0  0  0  0  0  0  0  0  0  0  0
   23.0937    9.6977   26.2923 O   0  0  0  0  0  0  0  0  0  0  0  0
   20.5358    7.9687   26.5347 C   0  0  0  0  0  0  0  0  0  0  0  0
   19.6714    7.6875   27.6094 C   0  0  0  0  0  0  0  0  0  0  0  0
   18.3304    8.1141   27.6126 C   0  0  0  0  0  0  0  0  0  0  0  0
   17.8841    8.8317   26.4958 C   0  0  0  0  0  0  0  0  0  0  0  0
   16.6135    9.2551   26.4331 F   0  0  0  0  0  0  0  0  0  0  0  0
   18.7214    9.1296   25.4231 C   0  0  0  0  0  0  0  0  0  0  0  0
   20.0543    8.7133   25.4437 C   0  0  0  0  0  0  0  0  0  0  0  0
   17.3958    7.8090   28.7769 C   0  0  0  0  0  0  0  0  0  0  0  0
   18.0569    6.8745   29.7982 C   0  0  0  0  0  0  0  0  0  0  0  0
   16.9032    9.0972   29.4488 C   0  0  0  0  0  0  0  0  0  0  0  0
   16.2322    7.1239   28.2879 O   0  0  0  0  0  0  0  0  0  0  0  0
   15.6424    6.9640   29.0442 H   0  0  0  0  0  0  0  0  0  0  0  0
   20.9364    8.9703   24.4098 O   0  0  0  0  0  0  0  0  0  0  0  0
   20.4003    9.2284   23.1663 C   0  0  0  0  0  0  0  0  0  0  0  0
   20.6674   10.4806   22.5788 C   0  0  0  0  0  0  0  0  0  0  0  0
   21.5366   11.4941   23.2660 C   0  0  0  0  0  0  0  0  0  0  0  0
   20.1345   10.7578   21.3144 C   0  0  0  0  0  0  0  0  0  0  0  0
   19.3301    9.8189   20.6788 C   0  0  0  0  0  0  0  0  0  0  0  0
   18.8269   10.0965   19.4687 F   0  0  0  0  0  0  0  0  0  0  0  0
   19.0294    8.6015   21.2802 C   0  0  0  0  0  0  0  0  0  0  0  0
   19.5449    8.2960   22.5466 C   0  0  0  0  0  0  0  0  0  0  0  0
   19.1860    6.9891   23.1946 C   0  0  0  0  0  0  0  0  0  0  0  0
   24.4586   12.6646   26.7267 C   0  0  0  0  0  0  0  0  0  0  0  0
   25.0175   13.7434   26.0693 N   0  0  0  0  0  0  0  0  0  0  0  0
   25.5992   13.2564   24.9953 C   0  0  0  0  0  0  0  0  0  0  0  0
   25.4440   11.8974   24.9399 N   0  0  0  0  0  0  0  0  0  0  0  0
   24.7190   11.4954   26.0347 C   0  0  0  0  0  0  0  0  0  0  0  0
   25.7905   11.2823   24.2172 H   0  0  0  0  0  0  0  0  0  0  0  0
   26.3324   14.0235   23.9523 C   0  0  0  0  0  0  0  0  0  0  0  0
   26.3738   15.5070   24.2805 C   0  0  0  0  0  0  0  0  0  0  0  0
   23.7154   12.9003   27.9970 C   0  0  0  0  0  0  0  0  0  0  0  0
   25.2148   13.3354   30.0100 C   0  0  0  0  0  0  0  0  0  0  0  0
   24.4062   12.3092   29.2277 C   0  0  0  0  0  0  0  0  0  0  0  0
   26.2569    9.0228   26.4106 H   0  0  0  0  0  0  0  0  0  0  0  0
   24.7125    4.0198   27.1693 H   0  0  0  0  0  0  0  0  0  0  0  0
   23.2157    3.7226   26.3182 H   0  0  0  0  0  0  0  0  0  0  0  0
   23.2015    3.9829   28.0460 H   0  0  0  0  0  0  0  0  0  0  0  0
   21.4191    5.5451   26.9185 H   0  0  0  0  0  0  0  0  0  0  0  0
   20.0307    7.1542   28.4166 H   0  0  0  0  0  0  0  0  0  0  0  0
   18.3573    9.6572   24.6143 H   0  0  0  0  0  0  0  0  0  0  0  0
   18.9340    7.3422   30.1942 H   0  0  0  0  0  0  0  0  0  0  0  0
   18.3275    5.9568   29.3191 H   0  0  0  0  0  0  0  0  0  0  0  0
   17.3703    6.6727   30.5937 H   0  0  0  0  0  0  0  0  0  0  0  0
   17.7406    9.6432   29.8302 H   0  0  0  0  0  0  0  0  0  0  0  0
   16.2424    8.8497   30.2532 H   0  0  0  0  0  0  0  0  0  0  0  0
   16.3830    9.6971   28.7316 H   0  0  0  0  0  0  0  0  0  0  0  0
   21.8493   11.1110   24.2148 H   0  0  0  0  0  0  0  0  0  0  0  0
   20.9835   12.3984   23.4113 H   0  0  0  0  0  0  0  0  0  0  0  0
   22.3964   11.6950   22.6616 H   0  0  0  0  0  0  0  0  0  0  0  0
   20.3387   11.6587   20.8543 H   0  0  0  0  0  0  0  0  0  0  0  0
   18.4252    7.9217   20.7926 H   0  0  0  0  0  0  0  0  0  0  0  0
   18.5290    6.4410   22.5521 H   0  0  0  0  0  0  0  0  0  0  0  0
   18.6978    7.1761   24.1282 H   0  0  0  0  0  0  0  0  0  0  0  0
   20.0755    6.4194   23.3651 H   0  0  0  0  0  0  0  0  0  0  0  0
   25.8411   13.8888   23.0114 H   0  0  0  0  0  0  0  0  0  0  0  0
   27.3378   13.6597   23.9115 H   0  0  0  0  0  0  0  0  0  0  0  0
   25.3758   15.8902   24.3259 H   0  0  0  0  0  0  0  0  0  0  0  0
   26.9207   16.0253   23.5207 H   0  0  0  0  0  0  0  0  0  0  0  0
   26.8541   15.6499   25.2259 H   0  0  0  0  0  0  0  0  0  0  0  0
   23.6149   13.9560   28.1395 H   0  0  0  0  0  0  0  0  0  0  0  0
   22.7684   12.4112   27.9027 H   0  0  0  0  0  0  0  0  0  0  0  0
   25.6707   12.8618   30.8542 H   0  0  0  0  0  0  0  0  0  0  0  0
   24.5675   14.1181   30.3466 H   0  0  0  0  0  0  0  0  0  0  0  0
   25.9743   13.7473   29.3789 H   0  0  0  0  0  0  0  0  0  0  0  0
   23.6582   11.9003   29.8744 H   0  0  0  0  0  0  0  0  0  0  0  0
   25.0891   11.5617   28.8817 H   0  0  0  0  0  0  0  0  0  0  0  0
  1  2  2  0  0  0  0
  2  3  1  0  0  0  0
  2 45  1  0  0  0  0
  3  4  1  0  0  0  0
  4  5  2  0  0  0  0
  4  6  1  0  0  0  0
  6  7  1  0  0  0  0
  6  8  1  0  0  0  0
  7 46  1  0  0  0  0
  7 47  1  0  0  0  0
  7 48  1  0  0  0  0
  8  9  2  0  0  0  0
  8 49  1  0  0  0  0
  9 12  1  0  0  0  0
  9 10  1  0  0  0  0
 10 11  1  0  0  0  0
 10  3  2  0  0  0  0
 11  1  1  0  0  0  0
 12 13  2  0  0  0  0
 13 14  1  0  0  0  0
 13 50  1  0  0  0  0
 14 19  1  0  0  0  0
 14 15  2  0  0  0  0
 15 16  1  0  0  0  0
 15 17  1  0  0  0  0
 17 18  2  0  0  0  0
 17 51  1  0  0  0  0
 18 24  1  0  0  0  0
 18 12  1  0  0  0  0
 19 20  1  0  0  0  0
 19 21  1  0  0  0  0
 19 22  1  0  0  0  0
 20 52  1  0  0  0  0
 20 53  1  0  0  0  0
 20 54  1  0  0  0  0
 21 55  1  0  0  0  0
 21 56  1  0  0  0  0
 21 57  1  0  0  0  0
 22 23  1  0  0  0  0
 24 25  1  0  0  0  0
 25 26  2  0  0  0  0
 26 27  1  0  0  0  0
 26 28  1  0  0  0  0
 27 58  1  0  0  0  0
 27 59  1  0  0  0  0
 27 60  1  0  0  0  0
 28 29  2  0  0  0  0
 28 61  1  0  0  0  0
 29 30  1  0  0  0  0
 29 31  1  0  0  0  0
 31 32  2  0  0  0  0
 31 62  1  0  0  0  0
 32 33  1  0  0  0  0
 32 25  1  0  0  0  0
 33 63  1  0  0  0  0
 33 64  1  0  0  0  0
 33 65  1  0  0  0  0
 34 35  1  0  0  0  0
 35 36  2  0  0  0  0
 36 40  1  0  0  0  0
 36 37  1  0  0  0  0
 37 38  1  0  0  0  0
 37 39  1  0  0  0  0
 38  1  1  0  0  0  0
 38 34  2  0  0  0  0
 40 41  1  0  0  0  0
 40 66  1  0  0  0  0
 40 67  1  0  0  0  0
 41 68  1  0  0  0  0
 41 69  1  0  0  0  0
 41 70  1  0  0  0  0
 42 34  1  0  0  0  0
 42 71  1  0  0  0  0
 42 72  1  0  0  0  0
 43 44  1  0  0  0  0
 43 73  1  0  0  0  0
 43 74  1  0  0  0  0
 43 75  1  0  0  0  0
 44 42  1  0  0  0  0
 44 76  1  0  0  0  0
 44 77  1  0  0  0  0
M  END
>  <minimizedAffinity>
-9.78449

$$$$
