L1:Q15059:110525
     RDKit          3D

 71 75  0  0  0  0  0  0  0  0999 V2000
    7.4832    1.8711   -2.1978 C   0  0  0  0  0  0  0  0  0  0  0  0
    7.1895    0.4050   -1.9258 C   0  0  0  0  0  0  0  0  0  0  0  0
    5.7403    0.1784   -1.6709 C   0  0  0  0  0  0  0  0  0  0  0  0
    4.8175   -0.0953   -2.5675 N   0  0  0  0  0  0  0  0  0  0  0  0
    3.6358   -0.2169   -1.8695 C   0  0  0  0  0  0  0  0  0  0  0  0
    2.3754   -0.5228   -2.5849 C   0  0  0  0  0  0  0  0  0  0  0  0
    3.8484   -0.0132   -0.5181 C   0  0  0  0  0  0  0  0  0  0  0  0
    2.9428   -0.0361    0.5850 C   0  0  0  0  0  0  0  0  0  0  0  0
    3.1797    0.2191    1.9255 C   0  0  0  0  0  0  0  0  0  0  0  0
    1.9418    0.0693    2.5946 C   0  0  0  0  0  0  0  0  0  0  0  0
    1.5591    0.2153    3.9857 C   0  0  0  0  0  0  0  0  0  0  0  0
    2.3789    0.5191    4.8466 O   0  0  0  0  0  0  0  0  0  0  0  0
    0.1905   -0.0223    4.2327 N   0  0  0  0  0  0  0  0  0  0  0  0
   -0.3083    0.0995    5.5931 C   0  0  0  0  0  0  0  0  0  0  0  0
   -0.7181   -0.3689    3.2249 C   0  0  0  0  0  0  0  0  0  0  0  0
   -0.3725   -0.5063    1.9266 C   0  0  0  0  0  0  0  0  0  0  0  0
   -1.3842   -0.8828    0.9220 C   0  0  0  0  0  0  0  0  0  0  0  0
   -1.2988   -2.1549    0.3264 C   0  0  0  0  0  0  0  0  0  0  0  0
   -2.2068   -2.5687   -0.6658 C   0  0  0  0  0  0  0  0  0  0  0  0
   -2.1102   -3.9452   -1.3126 C   0  0  0  0  0  0  0  0  0  0  0  0
   -3.2515   -4.8465   -0.8308 C   0  0  0  0  0  0  0  0  0  0  0  0
   -2.0847   -3.8840   -2.8467 C   0  0  0  0  0  0  0  0  0  0  0  0
   -0.8931   -4.5926   -0.9098 O   0  0  0  0  0  0  0  0  0  0  0  0
   -3.2248   -1.6723   -1.0151 C   0  0  0  0  0  0  0  0  0  0  0  0
   -4.1512   -2.0244   -1.9176 F   0  0  0  0  0  0  0  0  0  0  0  0
   -3.3269   -0.4061   -0.4423 C   0  0  0  0  0  0  0  0  0  0  0  0
   -2.3954    0.0026    0.5138 C   0  0  0  0  0  0  0  0  0  0  0  0
   -2.4360    1.2443    1.1212 O   0  0  0  0  0  0  0  0  0  0  0  0
   -2.8792    2.3072    0.3629 C   0  0  0  0  0  0  0  0  0  0  0  0
   -2.0575    2.8727   -0.6322 C   0  0  0  0  0  0  0  0  0  0  0  0
   -0.6792    2.3497   -0.9221 C   0  0  0  0  0  0  0  0  0  0  0  0
   -2.5564    3.9484   -1.3786 C   0  0  0  0  0  0  0  0  0  0  0  0
   -3.8193    4.4624   -1.1049 C   0  0  0  0  0  0  0  0  0  0  0  0
   -4.2800    5.4932   -1.8256 F   0  0  0  0  0  0  0  0  0  0  0  0
   -4.6086    3.9332   -0.0901 C   0  0  0  0  0  0  0  0  0  0  0  0
   -4.1396    2.8560    0.6708 C   0  0  0  0  0  0  0  0  0  0  0  0
   -4.9922    2.2828    1.7662 C   0  0  0  0  0  0  0  0  0  0  0  0
    1.0022   -0.2755    1.6438 C   0  0  0  0  0  0  0  0  0  0  0  0
    1.6145   -0.3384    0.4252 O   0  0  0  0  0  0  0  0  0  0  0  0
    5.1928    0.2364   -0.4140 N   0  0  0  0  0  0  0  0  0  0  0  0
    6.9255    2.2316   -3.0690 H   0  0  0  0  0  0  0  0  0  0  0  0
    8.5504    2.0145   -2.3941 H   0  0  0  0  0  0  0  0  0  0  0  0
    7.2080    2.4962   -1.3414 H   0  0  0  0  0  0  0  0  0  0  0  0
    7.7816    0.0631   -1.0690 H   0  0  0  0  0  0  0  0  0  0  0  0
    7.5012   -0.1948   -2.7886 H   0  0  0  0  0  0  0  0  0  0  0  0
    2.5511   -0.6230   -3.6606 H   0  0  0  0  0  0  0  0  0  0  0  0
    1.6440    0.2773   -2.4352 H   0  0  0  0  0  0  0  0  0  0  0  0
    1.9453   -1.4623   -2.2240 H   0  0  0  0  0  0  0  0  0  0  0  0
    4.1218    0.4884    2.3810 H   0  0  0  0  0  0  0  0  0  0  0  0
   -0.7359   -0.8594    5.9028 H   0  0  0  0  0  0  0  0  0  0  0  0
    0.4830    0.3732    6.2958 H   0  0  0  0  0  0  0  0  0  0  0  0
   -1.0835    0.8719    5.6200 H   0  0  0  0  0  0  0  0  0  0  0  0
   -1.7444   -0.5256    3.5499 H   0  0  0  0  0  0  0  0  0  0  0  0
   -0.5079   -2.8308    0.6515 H   0  0  0  0  0  0  0  0  0  0  0  0
   -3.1412   -5.8614   -1.2307 H   0  0  0  0  0  0  0  0  0  0  0  0
   -3.2409   -4.9418    0.2617 H   0  0  0  0  0  0  0  0  0  0  0  0
   -4.2346   -4.4671   -1.1284 H   0  0  0  0  0  0  0  0  0  0  0  0
   -3.0299   -3.5366   -3.2737 H   0  0  0  0  0  0  0  0  0  0  0  0
   -1.2886   -3.2166   -3.1979 H   0  0  0  0  0  0  0  0  0  0  0  0
   -1.8699   -4.8728   -3.2690 H   0  0  0  0  0  0  0  0  0  0  0  0
   -0.1607   -4.1441   -1.3673 H   0  0  0  0  0  0  0  0  0  0  0  0
   -4.1412    0.2369   -0.7591 H   0  0  0  0  0  0  0  0  0  0  0  0
   -0.1005    3.0654   -1.5160 H   0  0  0  0  0  0  0  0  0  0  0  0
   -0.7357    1.4131   -1.4845 H   0  0  0  0  0  0  0  0  0  0  0  0
   -0.1251    2.1891    0.0076 H   0  0  0  0  0  0  0  0  0  0  0  0
   -1.9676    4.4032   -2.1702 H   0  0  0  0  0  0  0  0  0  0  0  0
   -5.5836    4.3733    0.0977 H   0  0  0  0  0  0  0  0  0  0  0  0
   -4.4088    2.1616    2.6848 H   0  0  0  0  0  0  0  0  0  0  0  0
   -5.3957    1.3121    1.4624 H   0  0  0  0  0  0  0  0  0  0  0  0
   -5.8339    2.9425    2.0023 H   0  0  0  0  0  0  0  0  0  0  0  0
    5.6996    0.4305    0.4369 H   0  0  0  0  0  0  0  0  0  0  0  0
  1  2  1  0
  2  3  1  0
  3  4  2  0
  4  5  1  0
  5  6  1  0
  5  7  2  0
  7  8  1  0
  8  9  2  0
  9 10  1  0
 10 11  1  0
 11 12  2  0
 11 13  1  0
 13 14  1  0
 13 15  1  0
 15 16  2  0
 16 17  1  0
 17 18  2  0
 18 19  1  0
 19 20  1  0
 20 21  1  0
 20 22  1  0
 20 23  1  0
 19 24  2  0
 24 25  1  0
 24 26  1  0
 26 27  2  0
 27 28  1  0
 28 29  1  0
 29 30  2  0
 30 31  1  0
 30 32  1  0
 32 33  2  0
 33 34  1  0
 33 35  1  0
 35 36  2  0
 36 37  1  0
 16 38  1  0
 38 39  1  0
  7 40  1  0
 40  3  1  0
 39  8  1  0
 38 10  2  0
 27 17  1  0
 36 29  1  0
  1 41  1  0
  1 42  1  0
  1 43  1  0
  2 44  1  0
  2 45  1  0
  6 46  1  0
  6 47  1  0
  6 48  1  0
  9 49  1  0
 14 50  1  0
 14 51  1  0
 14 52  1  0
 15 53  1  0
 18 54  1  0
 21 55  1  0
 21 56  1  0
 21 57  1  0
 22 58  1  0
 22 59  1  0
 22 60  1  0
 23 61  1  0
 26 62  1  0
 31 63  1  0
 31 64  1  0
 31 65  1  0
 32 66  1  0
 35 67  1  0
 37 68  1  0
 37 69  1  0
 37 70  1  0
 40 71  1  0
M  END
>  <mol_id>  (1) 
110525

>  <source_index>  (1) 
7

>  <layer>  (1) 
L1

>  <uniprot>  (1) 
Q15059

>  <paff>  (1) 
7.9207999999999998

>  <smiles>  (1) 
CCc1nc(C)c(-c2cc3c(=O)n(C)cc(-c4cc(C(C)(C)O)c(F)cc4Oc4c(C)cc(F)cc4C)c3o2)[nH]1

$$$$
