L1:Q15059:110525


 42 46  0  0  0  0  0  0  0  0999 V2000
   20.4742    8.0614   26.5769 C   0  0  0  0  0  0  0  0  0  0  0  0
   19.6178    7.7642   27.6532 C   0  0  0  0  0  0  0  0  0  0  0  0
   18.2701    8.1688   27.6586 C   0  0  0  0  0  0  0  0  0  0  0  0
   17.8210    8.9119   26.5595 C   0  0  0  0  0  0  0  0  0  0  0  0
   16.5617    9.3698   26.5260 F   0  0  0  0  0  0  0  0  0  0  0  0
   18.6491    9.2144   25.4804 C   0  0  0  0  0  0  0  0  0  0  0  0
   19.9736    8.7733   25.4743 C   0  0  0  0  0  0  0  0  0  0  0  0
   24.3594   10.1386   26.1976 C   0  0  0  0  0  0  0  0  0  0  0  0
   25.1714    9.0251   26.3352 C   0  0  0  0  0  0  0  0  0  0  0  0
   24.3136    7.9140   26.5146 C   0  0  0  0  0  0  0  0  0  0  0  0
   24.5734    6.5019   26.7180 C   0  0  0  0  0  0  0  0  0  0  0  0
   25.7176    6.0604   26.7551 O   0  0  0  0  0  0  0  0  0  0  0  0
   23.4088    5.7188   26.8626 N   0  0  0  0  0  0  0  0  0  0  0  0
   23.5480    4.2872   27.0759 C   0  0  0  0  0  0  0  0  0  0  0  0
   22.1165    6.2564   26.8136 C   0  0  0  0  0  0  0  0  0  0  0  0
   21.8636    7.5697   26.6260 C   0  0  0  0  0  0  0  0  0  0  0  0
   23.0174    8.3874   26.4743 C   0  0  0  0  0  0  0  0  0  0  0  0
   23.0501    9.7385   26.2815 O   0  0  0  0  0  0  0  0  0  0  0  0
   25.5731   13.3341   25.0678 C   0  0  0  0  0  0  0  0  0  0  0  0
   25.0251   13.7460   26.1905 N   0  0  0  0  0  0  0  0  0  0  0  0
   24.4900   12.6238   26.7844 C   0  0  0  0  0  0  0  0  0  0  0  0
   23.7920   12.7304   28.0865 C   0  0  0  0  0  0  0  0  0  0  0  0
   24.7184   11.5063   26.0022 C   0  0  0  0  0  0  0  0  0  0  0  0
   25.4081   11.9804   24.9159 N   0  0  0  0  0  0  0  0  0  0  0  0
   25.7408   11.4340   24.1353 H   0  0  0  0  0  0  0  0  0  0  0  0
   26.3188   15.6331   24.4850 C   0  0  0  0  0  0  0  0  0  0  0  0
   26.2864   14.1727   24.0655 C   0  0  0  0  0  0  0  0  0  0  0  0
   17.3431    7.8425   28.8233 C   0  0  0  0  0  0  0  0  0  0  0  0
   18.0577    6.9534   29.8460 C   0  0  0  0  0  0  0  0  0  0  0  0
   16.7756    9.0962   29.5046 C   0  0  0  0  0  0  0  0  0  0  0  0
   16.2151    7.0861   28.3561 O   0  0  0  0  0  0  0  0  0  0  0  0
   15.6438    7.6954   27.8569 H   0  0  0  0  0  0  0  0  0  0  0  0
   20.8494    9.0360   24.4368 O   0  0  0  0  0  0  0  0  0  0  0  0
   20.3058    9.2635   23.1902 C   0  0  0  0  0  0  0  0  0  0  0  0
   19.5271    8.2764   22.5542 C   0  0  0  0  0  0  0  0  0  0  0  0
   19.2439    6.9472   23.1947 C   0  0  0  0  0  0  0  0  0  0  0  0
   18.9934    8.5586   21.2898 C   0  0  0  0  0  0  0  0  0  0  0  0
   19.2683    9.7733   20.6709 C   0  0  0  0  0  0  0  0  0  0  0  0
   18.7530   10.0260   19.4606 F   0  0  0  0  0  0  0  0  0  0  0  0
   20.0767   10.7262   21.2802 C   0  0  0  0  0  0  0  0  0  0  0  0
   20.6218   10.4752   22.5448 C   0  0  0  0  0  0  0  0  0  0  0  0
   21.4939   11.5047   23.2044 C   0  0  0  0  0  0  0  0  0  0  0  0
 26 27  1  0  0  0
 27 19  1  0  0  0
 19 20  2  0  0  0
 20 21  1  0  0  0
 21 22  1  0  0  0
 21 23  2  0  0  0
 23  8  1  0  0  0
  8  9  2  0  0  0
  9 10  1  0  0  0
 10 11  1  0  0  0
 11 12  2  0  0  0
 11 13  1  0  0  0
 13 14  1  0  0  0
 13 15  1  0  0  0
 15 16  2  0  0  0
 16  1  1  0  0  0
  1  2  2  0  0  0
  2  3  1  0  0  0
  3 28  1  0  0  0
 28 29  1  0  0  0
 28 30  1  0  0  0
 28 31  1  0  0  0
  3  4  2  0  0  0
  4  5  1  0  0  0
  4  6  1  0  0  0
  6  7  2  0  0  0
  7 33  1  0  0  0
 33 34  1  0  0  0
 34 35  2  0  0  0
 35 36  1  0  0  0
 35 37  1  0  0  0
 37 38  2  0  0  0
 38 39  1  0  0  0
 38 40  1  0  0  0
 40 41  2  0  0  0
 41 42  1  0  0  0
 16 17  1  0  0  0
 17 18  1  0  0  0
 23 24  1  0  0  0
 24 19  1  0  0  0
 18  8  1  0  0  0
 17 10  2  0  0  0
  7  1  1  0  0  0
 41 34  1  0  0  0
 31 32  1  0  0  0
 24 25  1  0  0  0
M  END
> <minimizedAffinity>
-10.25104

$$$$
