L1:Q15059:128831
     RDKit          3D

 77 81  0  0  0  0  0  0  0  0999 V2000
    5.9287    2.9558   -1.0229 C   0  0  0  0  0  0  0  0  0  0  0  0
    5.2226    3.0728    0.3185 C   0  0  0  0  0  0  0  0  0  0  0  0
    4.6152    1.7852    0.7542 C   0  0  0  0  0  0  0  0  0  0  0  0
    5.3276    0.9659    1.6078 N   0  0  0  0  0  0  0  0  0  0  0  0
    4.5688   -0.0856    1.8301 C   0  0  0  0  0  0  0  0  0  0  0  0
    4.9100   -1.2592    2.6975 C   0  0  0  0  0  0  0  0  0  0  0  0
    3.9395   -1.3836    3.8713 C   0  0  0  0  0  0  0  0  0  0  0  0
    4.9594   -2.5541    1.8873 C   0  0  0  0  0  0  0  0  0  0  0  0
    3.3863    0.0293    1.1469 N   0  0  0  0  0  0  0  0  0  0  0  0
    3.3943    1.2112    0.4487 C   0  0  0  0  0  0  0  0  0  0  0  0
    2.2853    1.5886   -0.3655 C   0  0  0  0  0  0  0  0  0  0  0  0
    2.0914    2.7061   -1.1569 C   0  0  0  0  0  0  0  0  0  0  0  0
    0.8126    2.5743   -1.7477 C   0  0  0  0  0  0  0  0  0  0  0  0
    0.0678    3.4220   -2.6586 C   0  0  0  0  0  0  0  0  0  0  0  0
    0.5265    4.4828   -3.0702 O   0  0  0  0  0  0  0  0  0  0  0  0
   -1.1980    2.9098   -3.0120 N   0  0  0  0  0  0  0  0  0  0  0  0
   -2.0368    3.6777   -3.9183 C   0  0  0  0  0  0  0  0  0  0  0  0
   -1.6924    1.6937   -2.5258 C   0  0  0  0  0  0  0  0  0  0  0  0
   -1.0116    0.8985   -1.6715 C   0  0  0  0  0  0  0  0  0  0  0  0
   -1.5993   -0.3778   -1.2141 C   0  0  0  0  0  0  0  0  0  0  0  0
   -0.9328   -1.5765   -1.5350 C   0  0  0  0  0  0  0  0  0  0  0  0
   -1.4191   -2.8260   -1.1164 C   0  0  0  0  0  0  0  0  0  0  0  0
   -0.7189   -4.1408   -1.4570 C   0  0  0  0  0  0  0  0  0  0  0  0
    0.7661   -4.0035   -1.8194 C   0  0  0  0  0  0  0  0  0  0  0  0
   -1.4593   -4.8579   -2.5903 C   0  0  0  0  0  0  0  0  0  0  0  0
   -0.7611   -4.9967   -0.3066 O   0  0  0  0  0  0  0  0  0  0  0  0
   -2.6164   -2.8465   -0.3793 C   0  0  0  0  0  0  0  0  0  0  0  0
   -3.2857   -1.6667   -0.0441 C   0  0  0  0  0  0  0  0  0  0  0  0
   -2.7724   -0.4294   -0.4424 C   0  0  0  0  0  0  0  0  0  0  0  0
   -3.3923    0.7702   -0.1431 O   0  0  0  0  0  0  0  0  0  0  0  0
   -4.0394    0.8665    1.0704 C   0  0  0  0  0  0  0  0  0  0  0  0
   -5.4476    0.9094    1.0654 C   0  0  0  0  0  0  0  0  0  0  0  0
   -6.2248    0.8169   -0.2163 C   0  0  0  0  0  0  0  0  0  0  0  0
   -6.1224    1.0046    2.2881 C   0  0  0  0  0  0  0  0  0  0  0  0
   -5.4018    1.0893    3.4740 C   0  0  0  0  0  0  0  0  0  0  0  0
   -6.0596    1.1789    4.6374 F   0  0  0  0  0  0  0  0  0  0  0  0
   -4.0111    1.0930    3.4741 C   0  0  0  0  0  0  0  0  0  0  0  0
   -3.3071    1.0028    2.2662 C   0  0  0  0  0  0  0  0  0  0  0  0
   -1.8054    1.0367    2.2825 C   0  0  0  0  0  0  0  0  0  0  0  0
    0.2744    1.3842   -1.2998 C   0  0  0  0  0  0  0  0  0  0  0  0
    1.1723    0.7871   -0.4602 O   0  0  0  0  0  0  0  0  0  0  0  0
    5.2356    2.6552   -1.8155 H   0  0  0  0  0  0  0  0  0  0  0  0
    6.3705    3.9168   -1.3044 H   0  0  0  0  0  0  0  0  0  0  0  0
    6.7312    2.2114   -0.9816 H   0  0  0  0  0  0  0  0  0  0  0  0
    5.9488    3.3998    1.0729 H   0  0  0  0  0  0  0  0  0  0  0  0
    4.4591    3.8563    0.2737 H   0  0  0  0  0  0  0  0  0  0  0  0
    5.9124   -1.0865    3.1108 H   0  0  0  0  0  0  0  0  0  0  0  0
    3.9156   -0.4596    4.4598 H   0  0  0  0  0  0  0  0  0  0  0  0
    2.9175   -1.5883    3.5329 H   0  0  0  0  0  0  0  0  0  0  0  0
    4.2412   -2.1985    4.5380 H   0  0  0  0  0  0  0  0  0  0  0  0
    5.2815   -3.3914    2.5156 H   0  0  0  0  0  0  0  0  0  0  0  0
    5.6657   -2.4683    1.0539 H   0  0  0  0  0  0  0  0  0  0  0  0
    3.9794   -2.8078    1.4674 H   0  0  0  0  0  0  0  0  0  0  0  0
    2.6285   -0.6381    1.1458 H   0  0  0  0  0  0  0  0  0  0  0  0
    2.7780    3.5270   -1.3035 H   0  0  0  0  0  0  0  0  0  0  0  0
   -2.2485    3.0731   -4.8059 H   0  0  0  0  0  0  0  0  0  0  0  0
   -1.5548    4.6065   -4.2343 H   0  0  0  0  0  0  0  0  0  0  0  0
   -2.9751    3.9248   -3.4114 H   0  0  0  0  0  0  0  0  0  0  0  0
   -2.6824    1.4151   -2.8806 H   0  0  0  0  0  0  0  0  0  0  0  0
   -0.0215   -1.5133   -2.1268 H   0  0  0  0  0  0  0  0  0  0  0  0
    0.9164   -3.4637   -2.7601 H   0  0  0  0  0  0  0  0  0  0  0  0
    1.3185   -3.4836   -1.0274 H   0  0  0  0  0  0  0  0  0  0  0  0
    1.2328   -4.9906   -1.9214 H   0  0  0  0  0  0  0  0  0  0  0  0
   -0.9904   -5.8234   -2.8135 H   0  0  0  0  0  0  0  0  0  0  0  0
   -1.4725   -4.2587   -3.5073 H   0  0  0  0  0  0  0  0  0  0  0  0
   -2.4967   -5.0799   -2.3134 H   0  0  0  0  0  0  0  0  0  0  0  0
   -0.5423   -4.4479    0.4662 H   0  0  0  0  0  0  0  0  0  0  0  0
   -3.0415   -3.7976   -0.0580 H   0  0  0  0  0  0  0  0  0  0  0  0
   -4.2079   -1.7364    0.5259 H   0  0  0  0  0  0  0  0  0  0  0  0
   -6.1738   -0.2002   -0.6168 H   0  0  0  0  0  0  0  0  0  0  0  0
   -7.2792    1.0694   -0.0616 H   0  0  0  0  0  0  0  0  0  0  0  0
   -5.8298    1.5189   -0.9579 H   0  0  0  0  0  0  0  0  0  0  0  0
   -7.2075    1.0182    2.3329 H   0  0  0  0  0  0  0  0  0  0  0  0
   -3.4893    1.1780    4.4231 H   0  0  0  0  0  0  0  0  0  0  0  0
   -1.3993    0.0288    2.1563 H   0  0  0  0  0  0  0  0  0  0  0  0
   -1.4294    1.4372    3.2302 H   0  0  0  0  0  0  0  0  0  0  0  0
   -1.4242    1.6888    1.4905 H   0  0  0  0  0  0  0  0  0  0  0  0
  1  2  1  0
  2  3  1  0
  3  4  1  0
  4  5  2  0
  5  6  1  0
  6  7  1  0
  6  8  1  0
  5  9  1  0
  9 10  1  0
 10 11  1  0
 11 12  2  0
 12 13  1  0
 13 14  1  0
 14 15  2  0
 14 16  1  0
 16 17  1  0
 16 18  1  0
 18 19  2  0
 19 20  1  0
 20 21  2  0
 21 22  1  0
 22 23  1  0
 23 24  1  0
 23 25  1  0
 23 26  1  0
 22 27  2  0
 27 28  1  0
 28 29  2  0
 29 30  1  0
 30 31  1  0
 31 32  2  0
 32 33  1  0
 32 34  1  0
 34 35  2  0
 35 36  1  0
 35 37  1  0
 37 38  2  0
 38 39  1  0
 19 40  1  0
 40 41  1  0
 10  3  2  0
 41 11  1  0
 40 13  2  0
 29 20  1  0
 38 31  1  0
  1 42  1  0
  1 43  1  0
  1 44  1  0
  2 45  1  0
  2 46  1  0
  6 47  1  0
  7 48  1  0
  7 49  1  0
  7 50  1  0
  8 51  1  0
  8 52  1  0
  8 53  1  0
  9 54  1  0
 12 55  1  0
 17 56  1  0
 17 57  1  0
 17 58  1  0
 18 59  1  0
 21 60  1  0
 24 61  1  0
 24 62  1  0
 24 63  1  0
 25 64  1  0
 25 65  1  0
 25 66  1  0
 26 67  1  0
 27 68  1  0
 28 69  1  0
 33 70  1  0
 33 71  1  0
 33 72  1  0
 34 73  1  0
 37 74  1  0
 39 75  1  0
 39 76  1  0
 39 77  1  0
M  END
>  <mol_id>  (1) 
128831

>  <source_index>  (1) 
8

>  <layer>  (1) 
L1

>  <uniprot>  (1) 
Q15059

>  <paff>  (1) 
6.9135999999999997

>  <smiles>  (1) 
CCc1nc(C(C)C)[nH]c1-c1cc2c(=O)n(C)cc(-c3cc(C(C)(C)O)ccc3Oc3c(C)cc(F)cc3C)c2o1

$$$$
