L1:Q15059:128831


 43 47  0  0  0  0  0  0  0  0999 V2000
   24.3256   10.2214   26.9070 C   0  0  0  0  0  0  0  0  0  0  0  0
   25.1356    9.1082   27.0386 C   0  0  0  0  0  0  0  0  0  0  0  0
   24.2864    7.9769   27.0137 C   0  0  0  0  0  0  0  0  0  0  0  0
   24.5546    6.5547   27.1063 C   0  0  0  0  0  0  0  0  0  0  0  0
   25.6956    6.1225   27.2344 O   0  0  0  0  0  0  0  0  0  0  0  0
   23.3991    5.7485   27.0396 N   0  0  0  0  0  0  0  0  0  0  0  0
   23.5468    4.3040   27.1182 C   0  0  0  0  0  0  0  0  0  0  0  0
   22.1094    6.2732   26.8949 C   0  0  0  0  0  0  0  0  0  0  0  0
   21.8470    7.5953   26.8004 C   0  0  0  0  0  0  0  0  0  0  0  0
   22.9927    8.4380   26.8711 C   0  0  0  0  0  0  0  0  0  0  0  0
   23.0199    9.8029   26.8071 O   0  0  0  0  0  0  0  0  0  0  0  0
   24.6788   12.6266   27.8077 C   0  0  0  0  0  0  0  0  0  0  0  0
   25.0776   13.8097   27.2172 N   0  0  0  0  0  0  0  0  0  0  0  0
   25.3010   13.5338   25.9504 C   0  0  0  0  0  0  0  0  0  0  0  0
   25.0599   12.2074   25.7038 N   0  0  0  0  0  0  0  0  0  0  0  0
   24.6564   11.6087   26.8713 C   0  0  0  0  0  0  0  0  0  0  0  0
   25.1559   11.7368   24.8155 H   0  0  0  0  0  0  0  0  0  0  0  0
   25.7544   14.4997   24.8980 C   0  0  0  0  0  0  0  0  0  0  0  0
   26.3729   15.7505   25.5210 C   0  0  0  0  0  0  0  0  0  0  0  0
   26.7226   13.8396   23.9170 C   0  0  0  0  0  0  0  0  0  0  0  0
   25.3772   11.8510   30.0803 C   0  0  0  0  0  0  0  0  0  0  0  0
   24.3539   12.6210   29.2607 C   0  0  0  0  0  0  0  0  0  0  0  0
   20.4544    8.0696   26.6615 C   0  0  0  0  0  0  0  0  0  0  0  0
   19.5671    7.8696   27.7371 C   0  0  0  0  0  0  0  0  0  0  0  0
   18.2350    8.3122   27.6868 C   0  0  0  0  0  0  0  0  0  0  0  0
   17.8025    8.9473   26.5091 C   0  0  0  0  0  0  0  0  0  0  0  0
   18.6715    9.1623   25.4363 C   0  0  0  0  0  0  0  0  0  0  0  0
   20.0022    8.7427   25.5140 C   0  0  0  0  0  0  0  0  0  0  0  0
   17.2510    8.1016   28.8367 C   0  0  0  0  0  0  0  0  0  0  0  0
   16.2467    6.9609   28.6229 C   0  0  0  0  0  0  0  0  0  0  0  0
   16.4958    9.4010   29.1333 C   0  0  0  0  0  0  0  0  0  0  0  0
   17.9889    7.7541   30.0167 O   0  0  0  0  0  0  0  0  0  0  0  0
   18.6631    7.1049   29.7515 H   0  0  0  0  0  0  0  0  0  0  0  0
   20.9066    8.9251   24.4836 O   0  0  0  0  0  0  0  0  0  0  0  0
   20.3985    9.2115   23.2344 C   0  0  0  0  0  0  0  0  0  0  0  0
   20.6824   10.4756   22.6808 C   0  0  0  0  0  0  0  0  0  0  0  0
   21.5413   11.4693   23.4090 C   0  0  0  0  0  0  0  0  0  0  0  0
   20.1771   10.7836   21.4123 C   0  0  0  0  0  0  0  0  0  0  0  0
   19.3829    9.8625   20.7389 C   0  0  0  0  0  0  0  0  0  0  0  0
   18.9065   10.1692   19.5251 F   0  0  0  0  0  0  0  0  0  0  0  0
   19.0655    8.6331   21.3061 C   0  0  0  0  0  0  0  0  0  0  0  0
   19.5529    8.2971   22.5759 C   0  0  0  0  0  0  0  0  0  0  0  0
   19.1771    6.9767   23.1855 C   0  0  0  0  0  0  0  0  0  0  0  0
 21 22  1  0  0  0
 22 12  1  0  0  0
 12 13  1  0  0  0
 13 14  2  0  0  0
 14 18  1  0  0  0
 18 19  1  0  0  0
 18 20  1  0  0  0
 14 15  1  0  0  0
 15 16  1  0  0  0
 16  1  1  0  0  0
  1  2  2  0  0  0
  2  3  1  0  0  0
  3  4  1  0  0  0
  4  5  2  0  0  0
  4  6  1  0  0  0
  6  7  1  0  0  0
  6  8  1  0  0  0
  8  9  2  0  0  0
  9 23  1  0  0  0
 23 24  2  0  0  0
 24 25  1  0  0  0
 25 29  1  0  0  0
 29 30  1  0  0  0
 29 31  1  0  0  0
 29 32  1  0  0  0
 25 26  2  0  0  0
 26 27  1  0  0  0
 27 28  2  0  0  0
 28 34  1  0  0  0
 34 35  1  0  0  0
 35 36  2  0  0  0
 36 37  1  0  0  0
 36 38  1  0  0  0
 38 39  2  0  0  0
 39 40  1  0  0  0
 39 41  1  0  0  0
 41 42  2  0  0  0
 42 43  1  0  0  0
  9 10  1  0  0  0
 10 11  1  0  0  0
 16 12  2  0  0  0
 11  1  1  0  0  0
 10  3  2  0  0  0
 28 23  1  0  0  0
 42 35  1  0  0  0
 15 17  1  0  0  0
 32 33  1  0  0  0
M  END
> <minimizedAffinity>
-9.37330

$$$$
