L1:Q15059:139243
     RDKit          3D

 75 80  0  0  0  0  0  0  0  0999 V2000
    6.0230    1.4362    2.4878 C   0  0  0  0  0  0  0  0  0  0  0  0
    5.3071    2.4556    1.6160 C   0  0  0  0  0  0  0  0  0  0  0  0
    4.6682    1.8332    0.4237 C   0  0  0  0  0  0  0  0  0  0  0  0
    5.3570    1.8258   -0.7743 N   0  0  0  0  0  0  0  0  0  0  0  0
    4.5691    1.2247   -1.6330 C   0  0  0  0  0  0  0  0  0  0  0  0
    4.9298    0.9891   -3.1217 C   0  0  0  0  0  0  0  0  0  0  0  0
    4.9900   -0.4202   -3.6506 C   0  0  0  0  0  0  0  0  0  0  0  0
    6.2574    0.3588   -3.4504 C   0  0  0  0  0  0  0  0  0  0  0  0
    3.3959    0.8492   -1.0481 N   0  0  0  0  0  0  0  0  0  0  0  0
    3.4358    1.2186    0.2740 C   0  0  0  0  0  0  0  0  0  0  0  0
    2.3435    0.9387    1.1481 C   0  0  0  0  0  0  0  0  0  0  0  0
    2.1837    1.2005    2.4967 C   0  0  0  0  0  0  0  0  0  0  0  0
    0.9083    0.7094    2.8624 C   0  0  0  0  0  0  0  0  0  0  0  0
    0.1932    0.6993    4.1239 C   0  0  0  0  0  0  0  0  0  0  0  0
    0.6810    1.1767    5.1433 O   0  0  0  0  0  0  0  0  0  0  0  0
   -1.0805    0.0974    4.0554 N   0  0  0  0  0  0  0  0  0  0  0  0
   -1.8917    0.0339    5.2606 C   0  0  0  0  0  0  0  0  0  0  0  0
   -1.6082   -0.4403    2.8755 C   0  0  0  0  0  0  0  0  0  0  0  0
   -0.9552   -0.4309    1.6926 C   0  0  0  0  0  0  0  0  0  0  0  0
   -1.5782   -1.0316    0.4950 C   0  0  0  0  0  0  0  0  0  0  0  0
   -0.9403   -2.1298   -0.1139 C   0  0  0  0  0  0  0  0  0  0  0  0
   -1.4622   -2.7401   -1.2663 C   0  0  0  0  0  0  0  0  0  0  0  0
   -0.7944   -3.9372   -1.9417 C   0  0  0  0  0  0  0  0  0  0  0  0
    0.6944   -4.1130   -1.6138 C   0  0  0  0  0  0  0  0  0  0  0  0
   -1.5495   -5.2265   -1.6035 C   0  0  0  0  0  0  0  0  0  0  0  0
   -0.8617   -3.7599   -3.3636 O   0  0  0  0  0  0  0  0  0  0  0  0
   -2.6651   -2.2303   -1.7867 C   0  0  0  0  0  0  0  0  0  0  0  0
   -3.3064   -1.1359   -1.2010 C   0  0  0  0  0  0  0  0  0  0  0  0
   -2.7586   -0.5216   -0.0717 C   0  0  0  0  0  0  0  0  0  0  0  0
   -3.3502    0.5610    0.5539 O   0  0  0  0  0  0  0  0  0  0  0  0
   -4.0092    1.4738   -0.2417 C   0  0  0  0  0  0  0  0  0  0  0  0
   -5.4156    1.5157   -0.1719 C   0  0  0  0  0  0  0  0  0  0  0  0
   -6.1797    0.5726    0.7125 C   0  0  0  0  0  0  0  0  0  0  0  0
   -6.1022    2.4346   -0.9740 C   0  0  0  0  0  0  0  0  0  0  0  0
   -5.3937    3.3065   -1.7930 C   0  0  0  0  0  0  0  0  0  0  0  0
   -6.0627    4.1804   -2.5566 F   0  0  0  0  0  0  0  0  0  0  0  0
   -4.0035    3.2951   -1.8267 C   0  0  0  0  0  0  0  0  0  0  0  0
   -3.2878    2.3896   -1.0325 C   0  0  0  0  0  0  0  0  0  0  0  0
   -1.7860    2.4097   -1.0601 C   0  0  0  0  0  0  0  0  0  0  0  0
    0.3380    0.1644    1.7290 C   0  0  0  0  0  0  0  0  0  0  0  0
    1.2132    0.3049    0.6887 O   0  0  0  0  0  0  0  0  0  0  0  0
    5.3312    0.6770    2.8667 H   0  0  0  0  0  0  0  0  0  0  0  0
    6.8090    0.9204    1.9256 H   0  0  0  0  0  0  0  0  0  0  0  0
    6.4880    1.9310    3.3463 H   0  0  0  0  0  0  0  0  0  0  0  0
    4.5612    2.9971    2.2068 H   0  0  0  0  0  0  0  0  0  0  0  0
    6.0331    3.2071    1.2820 H   0  0  0  0  0  0  0  0  0  0  0  0
    4.5814    1.7678   -3.7915 H   0  0  0  0  0  0  0  0  0  0  0  0
    4.8033   -1.2462   -2.9740 H   0  0  0  0  0  0  0  0  0  0  0  0
    4.6606   -0.5946   -4.6681 H   0  0  0  0  0  0  0  0  0  0  0  0
    6.7831    0.7217   -4.3254 H   0  0  0  0  0  0  0  0  0  0  0  0
    6.9078    0.0831   -2.6271 H   0  0  0  0  0  0  0  0  0  0  0  0
    2.6304    0.3722   -1.5009 H   0  0  0  0  0  0  0  0  0  0  0  0
    2.8904    1.6854    3.1541 H   0  0  0  0  0  0  0  0  0  0  0  0
   -1.3846    0.4816    6.1193 H   0  0  0  0  0  0  0  0  0  0  0  0
   -2.8290    0.5722    5.0874 H   0  0  0  0  0  0  0  0  0  0  0  0
   -2.1084   -1.0145    5.4891 H   0  0  0  0  0  0  0  0  0  0  0  0
   -2.6008   -0.8772    2.9628 H   0  0  0  0  0  0  0  0  0  0  0  0
   -0.0231   -2.5039    0.3369 H   0  0  0  0  0  0  0  0  0  0  0  0
    1.2580   -3.1996   -1.8387 H   0  0  0  0  0  0  0  0  0  0  0  0
    1.1359   -4.9053   -2.2303 H   0  0  0  0  0  0  0  0  0  0  0  0
    0.8607   -4.3747   -0.5636 H   0  0  0  0  0  0  0  0  0  0  0  0
   -1.1043   -6.0862   -2.1178 H   0  0  0  0  0  0  0  0  0  0  0  0
   -1.5453   -5.4267   -0.5264 H   0  0  0  0  0  0  0  0  0  0  0  0
   -2.5929   -5.1791   -1.9370 H   0  0  0  0  0  0  0  0  0  0  0  0
   -0.6314   -2.8328   -3.5472 H   0  0  0  0  0  0  0  0  0  0  0  0
   -3.1166   -2.6918   -2.6652 H   0  0  0  0  0  0  0  0  0  0  0  0
   -4.2344   -0.7813   -1.6405 H   0  0  0  0  0  0  0  0  0  0  0  0
   -6.1496   -0.4405    0.3001 H   0  0  0  0  0  0  0  0  0  0  0  0
   -7.2292    0.8727    0.8019 H   0  0  0  0  0  0  0  0  0  0  0  0
   -5.7584    0.5655    1.7231 H   0  0  0  0  0  0  0  0  0  0  0  0
   -7.1870    2.4864   -0.9689 H   0  0  0  0  0  0  0  0  0  0  0  0
   -3.4909    4.0057   -2.4690 H   0  0  0  0  0  0  0  0  0  0  0  0
   -1.3789    2.3306   -0.0473 H   0  0  0  0  0  0  0  0  0  0  0  0
   -1.4045    1.5892   -1.6749 H   0  0  0  0  0  0  0  0  0  0  0  0
   -1.4110    3.3498   -1.4792 H   0  0  0  0  0  0  0  0  0  0  0  0
  1  2  1  0
  2  3  1  0
  3  4  1  0
  4  5  2  0
  5  6  1  0
  6  7  1  0
  7  8  1  0
  5  9  1  0
  9 10  1  0
 10 11  1  0
 11 12  2  0
 12 13  1  0
 13 14  1  0
 14 15  2  0
 14 16  1  0
 16 17  1  0
 16 18  1  0
 18 19  2  0
 19 20  1  0
 20 21  2  0
 21 22  1  0
 22 23  1  0
 23 24  1  0
 23 25  1  0
 23 26  1  0
 22 27  2  0
 27 28  1  0
 28 29  2  0
 29 30  1  0
 30 31  1  0
 31 32  2  0
 32 33  1  0
 32 34  1  0
 34 35  2  0
 35 36  1  0
 35 37  1  0
 37 38  2  0
 38 39  1  0
 19 40  1  0
 40 41  1  0
 10  3  2  0
 41 11  1  0
  8  6  1  0
 40 13  2  0
 29 20  1  0
 38 31  1  0
  1 42  1  0
  1 43  1  0
  1 44  1  0
  2 45  1  0
  2 46  1  0
  6 47  1  0
  7 48  1  0
  7 49  1  0
  8 50  1  0
  8 51  1  0
  9 52  1  0
 12 53  1  0
 17 54  1  0
 17 55  1  0
 17 56  1  0
 18 57  1  0
 21 58  1  0
 24 59  1  0
 24 60  1  0
 24 61  1  0
 25 62  1  0
 25 63  1  0
 25 64  1  0
 26 65  1  0
 27 66  1  0
 28 67  1  0
 33 68  1  0
 33 69  1  0
 33 70  1  0
 34 71  1  0
 37 72  1  0
 39 73  1  0
 39 74  1  0
 39 75  1  0
M  END
>  <mol_id>  (1) 
139243

>  <source_index>  (1) 
9

>  <layer>  (1) 
L1

>  <uniprot>  (1) 
Q15059

>  <paff>  (1) 
7.3978999999999999

>  <smiles>  (1) 
CCc1nc(C2CC2)[nH]c1-c1cc2c(=O)n(C)cc(-c3cc(C(C)(C)O)ccc3Oc3c(C)cc(F)cc3C)c2o1

$$$$
