L1:Q15059:139243
 OpenBabel09212617443D

 75 80  0  0  0  0  0  0  0  0999 V2000
   24.3392   10.1241   26.2608 C   0  0  0  0  0  0  0  0  0  0  0  0
   25.1590    9.0214   26.4182 C   0  0  0  0  0  0  0  0  0  0  0  0
   24.3124    7.8989   26.5756 C   0  0  0  0  0  0  0  0  0  0  0  0
   24.5899    6.4901   26.7781 C   0  0  0  0  0  0  0  0  0  0  0  0
   25.7385    6.0637   26.8419 O   0  0  0  0  0  0  0  0  0  0  0  0
   23.4345    5.6885   26.8862 N   0  0  0  0  0  0  0  0  0  0  0  0
   23.5906    4.2580   27.0955 C   0  0  0  0  0  0  0  0  0  0  0  0
   22.1362    6.2062   26.8072 C   0  0  0  0  0  0  0  0  0  0  0  0
   21.8643    7.5173   26.6258 C   0  0  0  0  0  0  0  0  0  0  0  0
   23.0105    8.3539   26.5060 C   0  0  0  0  0  0  0  0  0  0  0  0
   23.0302    9.7069   26.3140 O   0  0  0  0  0  0  0  0  0  0  0  0
   24.4672   12.6589   26.7971 C   0  0  0  0  0  0  0  0  0  0  0  0
   25.0070   13.7437   26.1326 N   0  0  0  0  0  0  0  0  0  0  0  0
   25.5199   13.2626   25.0258 C   0  0  0  0  0  0  0  0  0  0  0  0
   25.3296   11.9152   24.9380 N   0  0  0  0  0  0  0  0  0  0  0  0
   24.6649   11.4993   26.0655 C   0  0  0  0  0  0  0  0  0  0  0  0
   25.6321   11.3188   24.1820 H   0  0  0  0  0  0  0  0  0  0  0  0
   26.2360   14.1258   23.9563 C   0  0  0  0  0  0  0  0  0  0  0  0
   27.6618   14.5530   24.1887 C   0  0  0  0  0  0  0  0  0  0  0  0
   26.5536   15.5611   24.2832 C   0  0  0  0  0  0  0  0  0  0  0  0
   24.4866   12.1309   29.2413 C   0  0  0  0  0  0  0  0  0  0  0  0
   23.8003   12.8797   28.1100 C   0  0  0  0  0  0  0  0  0  0  0  0
   20.4640    7.9810   26.5407 C   0  0  0  0  0  0  0  0  0  0  0  0
   19.5783    7.6354   27.5798 C   0  0  0  0  0  0  0  0  0  0  0  0
   18.2285    8.0231   27.5582 C   0  0  0  0  0  0  0  0  0  0  0  0
   17.7884    8.7934   26.4670 C   0  0  0  0  0  0  0  0  0  0  0  0
   18.6508    9.1374   25.4231 C   0  0  0  0  0  0  0  0  0  0  0  0
   19.9839    8.7191   25.4455 C   0  0  0  0  0  0  0  0  0  0  0  0
   17.2489    7.6682   28.6761 C   0  0  0  0  0  0  0  0  0  0  0  0
   17.8617    6.8822   29.8430 C   0  0  0  0  0  0  0  0  0  0  0  0
   16.5722    8.9344   29.2103 C   0  0  0  0  0  0  0  0  0  0  0  0
   16.2206    6.8260   28.1367 O   0  0  0  0  0  0  0  0  0  0  0  0
   16.6581    6.1696   27.5674 H   0  0  0  0  0  0  0  0  0  0  0  0
   20.8849    9.0327   24.4439 O   0  0  0  0  0  0  0  0  0  0  0  0
   20.3751    9.3119   23.1938 C   0  0  0  0  0  0  0  0  0  0  0  0
   20.7192   10.5425   22.6007 C   0  0  0  0  0  0  0  0  0  0  0  0
   21.5841   11.5382   23.3191 C   0  0  0  0  0  0  0  0  0  0  0  0
   20.2094   10.8444   21.3326 C   0  0  0  0  0  0  0  0  0  0  0  0
   19.4081    9.9222   20.6690 C   0  0  0  0  0  0  0  0  0  0  0  0
   18.9255   10.2237   19.4564 F   0  0  0  0  0  0  0  0  0  0  0  0
   19.1067    8.6887   21.2363 C   0  0  0  0  0  0  0  0  0  0  0  0
   19.6053    8.3559   22.5026 C   0  0  0  0  0  0  0  0  0  0  0  0
   19.2930    7.0084   23.0885 C   0  0  0  0  0  0  0  0  0  0  0  0
   26.1910    9.0180   26.4204 H   0  0  0  0  0  0  0  0  0  0  0  0
   24.6319    4.0147   27.1338 H   0  0  0  0  0  0  0  0  0  0  0  0
   23.1297    3.7271   26.2889 H   0  0  0  0  0  0  0  0  0  0  0  0
   23.1251    3.9796   28.0179 H   0  0  0  0  0  0  0  0  0  0  0  0
   21.3436    5.5508   26.8921 H   0  0  0  0  0  0  0  0  0  0  0  0
   25.7192   13.6206   23.1673 H   0  0  0  0  0  0  0  0  0  0  0  0
   28.3494   14.5894   23.3697 H   0  0  0  0  0  0  0  0  0  0  0  0
   28.4506   14.2336   24.8372 H   0  0  0  0  0  0  0  0  0  0  0  0
   26.4518   16.3158   23.5315 H   0  0  0  0  0  0  0  0  0  0  0  0
   26.2264   16.2571   25.0271 H   0  0  0  0  0  0  0  0  0  0  0  0
   23.9714   12.3217   30.1595 H   0  0  0  0  0  0  0  0  0  0  0  0
   25.5003   12.4630   29.3255 H   0  0  0  0  0  0  0  0  0  0  0  0
   24.4712   11.0811   29.0351 H   0  0  0  0  0  0  0  0  0  0  0  0
   23.8156   13.9264   28.3316 H   0  0  0  0  0  0  0  0  0  0  0  0
   22.7991   12.5099   28.0339 H   0  0  0  0  0  0  0  0  0  0  0  0
   19.9301    7.0832   28.3775 H   0  0  0  0  0  0  0  0  0  0  0  0
   16.8071    9.1115   26.4367 H   0  0  0  0  0  0  0  0  0  0  0  0
   18.3022    9.7023   24.6329 H   0  0  0  0  0  0  0  0  0  0  0  0
   18.6419    7.4607   30.2920 H   0  0  0  0  0  0  0  0  0  0  0  0
   18.2653    5.9604   29.4792 H   0  0  0  0  0  0  0  0  0  0  0  0
   17.1052    6.6774   30.5714 H   0  0  0  0  0  0  0  0  0  0  0  0
   17.3127    9.5880   29.6218 H   0  0  0  0  0  0  0  0  0  0  0  0
   15.8685    8.6687   29.9713 H   0  0  0  0  0  0  0  0  0  0  0  0
   16.0627    9.4309   28.4110 H   0  0  0  0  0  0  0  0  0  0  0  0
   21.8783   11.1371   24.2665 H   0  0  0  0  0  0  0  0  0  0  0  0
   21.0350   12.4440   23.4703 H   0  0  0  0  0  0  0  0  0  0  0  0
   22.4552   11.7428   22.7324 H   0  0  0  0  0  0  0  0  0  0  0  0
   20.4282   11.7509   20.8905 H   0  0  0  0  0  0  0  0  0  0  0  0
   18.5145    8.0170   20.7234 H   0  0  0  0  0  0  0  0  0  0  0  0
   18.6997    6.4476   22.3969 H   0  0  0  0  0  0  0  0  0  0  0  0
   18.7517    7.1338   24.0029 H   0  0  0  0  0  0  0  0  0  0  0  0
   20.2052    6.4840   23.2830 H   0  0  0  0  0  0  0  0  0  0  0  0
  1  2  2  0  0  0  0
  2  3  1  0  0  0  0
  2 44  1  0  0  0  0
  3  4  1  0  0  0  0
  4  5  2  0  0  0  0
  4  6  1  0  0  0  0
  6  7  1  0  0  0  0
  6  8  1  0  0  0  0
  7 45  1  0  0  0  0
  7 46  1  0  0  0  0
  7 47  1  0  0  0  0
  8  9  2  0  0  0  0
  8 48  1  0  0  0  0
  9 23  1  0  0  0  0
  9 10  1  0  0  0  0
 10 11  1  0  0  0  0
 10  3  2  0  0  0  0
 11  1  1  0  0  0  0
 12 13  1  0  0  0  0
 13 14  2  0  0  0  0
 14 18  1  0  0  0  0
 14 15  1  0  0  0  0
 15 16  1  0  0  0  0
 15 17  1  0  0  0  0
 16  1  1  0  0  0  0
 16 12  2  0  0  0  0
 18 19  1  0  0  0  0
 18 49  1  0  0  0  0
 19 20  1  0  0  0  0
 19 50  1  0  0  0  0
 19 51  1  0  0  0  0
 20 18  1  0  0  0  0
 20 52  1  0  0  0  0
 20 53  1  0  0  0  0
 21 22  1  0  0  0  0
 21 54  1  0  0  0  0
 21 55  1  0  0  0  0
 21 56  1  0  0  0  0
 22 12  1  0  0  0  0
 22 57  1  0  0  0  0
 22 58  1  0  0  0  0
 23 24  2  0  0  0  0
 24 25  1  0  0  0  0
 24 59  1  0  0  0  0
 25 29  1  0  0  0  0
 25 26  2  0  0  0  0
 26 27  1  0  0  0  0
 26 60  1  0  0  0  0
 27 28  2  0  0  0  0
 27 61  1  0  0  0  0
 28 34  1  0  0  0  0
 28 23  1  0  0  0  0
 29 30  1  0  0  0  0
 29 31  1  0  0  0  0
 29 32  1  0  0  0  0
 30 62  1  0  0  0  0
 30 63  1  0  0  0  0
 30 64  1  0  0  0  0
 31 65  1  0  0  0  0
 31 66  1  0  0  0  0
 31 67  1  0  0  0  0
 32 33  1  0  0  0  0
 34 35  1  0  0  0  0
 35 36  2  0  0  0  0
 36 37  1  0  0  0  0
 36 38  1  0  0  0  0
 37 68  1  0  0  0  0
 37 69  1  0  0  0  0
 37 70  1  0  0  0  0
 38 39  2  0  0  0  0
 38 71  1  0  0  0  0
 39 40  1  0  0  0  0
 39 41  1  0  0  0  0
 41 42  2  0  0  0  0
 41 72  1  0  0  0  0
 42 43  1  0  0  0  0
 42 35  1  0  0  0  0
 43 73  1  0  0  0  0
 43 74  1  0  0  0  0
 43 75  1  0  0  0  0
M  END
>  <minimizedAffinity>
-9.96870

$$$$
