L1:Q15059:139243


 43 48  0  0  0  0  0  0  0  0999 V2000
   24.3392   10.1241   26.2608 C   0  0  0  0  0  0  0  0  0  0  0  0
   25.1590    9.0214   26.4182 C   0  0  0  0  0  0  0  0  0  0  0  0
   24.3124    7.8989   26.5756 C   0  0  0  0  0  0  0  0  0  0  0  0
   24.5899    6.4901   26.7781 C   0  0  0  0  0  0  0  0  0  0  0  0
   25.7385    6.0637   26.8419 O   0  0  0  0  0  0  0  0  0  0  0  0
   23.4345    5.6885   26.8862 N   0  0  0  0  0  0  0  0  0  0  0  0
   23.5906    4.2580   27.0955 C   0  0  0  0  0  0  0  0  0  0  0  0
   22.1362    6.2062   26.8072 C   0  0  0  0  0  0  0  0  0  0  0  0
   21.8643    7.5173   26.6258 C   0  0  0  0  0  0  0  0  0  0  0  0
   23.0105    8.3539   26.5060 C   0  0  0  0  0  0  0  0  0  0  0  0
   23.0302    9.7069   26.3140 O   0  0  0  0  0  0  0  0  0  0  0  0
   24.4672   12.6589   26.7971 C   0  0  0  0  0  0  0  0  0  0  0  0
   25.0070   13.7437   26.1326 N   0  0  0  0  0  0  0  0  0  0  0  0
   25.5199   13.2626   25.0258 C   0  0  0  0  0  0  0  0  0  0  0  0
   25.3296   11.9152   24.9380 N   0  0  0  0  0  0  0  0  0  0  0  0
   24.6649   11.4993   26.0655 C   0  0  0  0  0  0  0  0  0  0  0  0
   25.6321   11.3188   24.1820 H   0  0  0  0  0  0  0  0  0  0  0  0
   26.2360   14.1258   23.9563 C   0  0  0  0  0  0  0  0  0  0  0  0
   27.6618   14.5530   24.1887 C   0  0  0  0  0  0  0  0  0  0  0  0
   26.5536   15.5611   24.2832 C   0  0  0  0  0  0  0  0  0  0  0  0
   24.4866   12.1309   29.2413 C   0  0  0  0  0  0  0  0  0  0  0  0
   23.8003   12.8797   28.1100 C   0  0  0  0  0  0  0  0  0  0  0  0
   20.4640    7.9810   26.5407 C   0  0  0  0  0  0  0  0  0  0  0  0
   19.5783    7.6354   27.5798 C   0  0  0  0  0  0  0  0  0  0  0  0
   18.2285    8.0231   27.5582 C   0  0  0  0  0  0  0  0  0  0  0  0
   17.7884    8.7934   26.4670 C   0  0  0  0  0  0  0  0  0  0  0  0
   18.6508    9.1374   25.4231 C   0  0  0  0  0  0  0  0  0  0  0  0
   19.9839    8.7191   25.4455 C   0  0  0  0  0  0  0  0  0  0  0  0
   17.2489    7.6682   28.6761 C   0  0  0  0  0  0  0  0  0  0  0  0
   17.8617    6.8822   29.8430 C   0  0  0  0  0  0  0  0  0  0  0  0
   16.5722    8.9344   29.2103 C   0  0  0  0  0  0  0  0  0  0  0  0
   16.2206    6.8260   28.1367 O   0  0  0  0  0  0  0  0  0  0  0  0
   16.6581    6.1696   27.5674 H   0  0  0  0  0  0  0  0  0  0  0  0
   20.8849    9.0327   24.4439 O   0  0  0  0  0  0  0  0  0  0  0  0
   20.3751    9.3119   23.1938 C   0  0  0  0  0  0  0  0  0  0  0  0
   20.7192   10.5425   22.6007 C   0  0  0  0  0  0  0  0  0  0  0  0
   21.5841   11.5382   23.3191 C   0  0  0  0  0  0  0  0  0  0  0  0
   20.2094   10.8444   21.3326 C   0  0  0  0  0  0  0  0  0  0  0  0
   19.4081    9.9222   20.6690 C   0  0  0  0  0  0  0  0  0  0  0  0
   18.9255   10.2237   19.4564 F   0  0  0  0  0  0  0  0  0  0  0  0
   19.1067    8.6887   21.2363 C   0  0  0  0  0  0  0  0  0  0  0  0
   19.6053    8.3559   22.5026 C   0  0  0  0  0  0  0  0  0  0  0  0
   19.2930    7.0084   23.0885 C   0  0  0  0  0  0  0  0  0  0  0  0
 21 22  1  0  0  0
 22 12  1  0  0  0
 12 13  1  0  0  0
 13 14  2  0  0  0
 14 18  1  0  0  0
 18 19  1  0  0  0
 19 20  1  0  0  0
 14 15  1  0  0  0
 15 16  1  0  0  0
 16  1  1  0  0  0
  1  2  2  0  0  0
  2  3  1  0  0  0
  3  4  1  0  0  0
  4  5  2  0  0  0
  4  6  1  0  0  0
  6  7  1  0  0  0
  6  8  1  0  0  0
  8  9  2  0  0  0
  9 23  1  0  0  0
 23 24  2  0  0  0
 24 25  1  0  0  0
 25 29  1  0  0  0
 29 30  1  0  0  0
 29 31  1  0  0  0
 29 32  1  0  0  0
 25 26  2  0  0  0
 26 27  1  0  0  0
 27 28  2  0  0  0
 28 34  1  0  0  0
 34 35  1  0  0  0
 35 36  2  0  0  0
 36 37  1  0  0  0
 36 38  1  0  0  0
 38 39  2  0  0  0
 39 40  1  0  0  0
 39 41  1  0  0  0
 41 42  2  0  0  0
 42 43  1  0  0  0
  9 10  1  0  0  0
 10 11  1  0  0  0
 16 12  2  0  0  0
 11  1  1  0  0  0
 20 18  1  0  0  0
 10  3  2  0  0  0
 28 23  1  0  0  0
 42 35  1  0  0  0
 15 17  1  0  0  0
 32 33  1  0  0  0
M  END
> <minimizedAffinity>
-9.96870

$$$$
