L1:Q15059:18952


 43 47  0  0  0  0  0  0  0  0999 V2000
   24.5994   10.0773   26.4763 C   0  0  0  0  0  0  0  0  0  0  0  0
   25.3959    8.9647   26.6927 C   0  0  0  0  0  0  0  0  0  0  0  0
   24.5274    7.8505   26.7769 C   0  0  0  0  0  0  0  0  0  0  0  0
   24.7704    6.4370   26.9883 C   0  0  0  0  0  0  0  0  0  0  0  0
   25.9073    5.9977   27.1299 O   0  0  0  0  0  0  0  0  0  0  0  0
   23.5995    5.6510   27.0178 N   0  0  0  0  0  0  0  0  0  0  0  0
   23.7229    4.2155   27.2118 C   0  0  0  0  0  0  0  0  0  0  0  0
   22.3178    6.1859   26.8414 C   0  0  0  0  0  0  0  0  0  0  0  0
   22.0825    7.4972   26.6175 C   0  0  0  0  0  0  0  0  0  0  0  0
   23.2409    8.3212   26.6075 C   0  0  0  0  0  0  0  0  0  0  0  0
   23.2902    9.6731   26.4324 O   0  0  0  0  0  0  0  0  0  0  0  0
   25.5315   13.3441   25.2874 C   0  0  0  0  0  0  0  0  0  0  0  0
   25.4947   13.6370   26.5681 N   0  0  0  0  0  0  0  0  0  0  0  0
   25.1627   12.4662   27.2213 C   0  0  0  0  0  0  0  0  0  0  0  0
   24.9769   11.4442   26.3040 C   0  0  0  0  0  0  0  0  0  0  0  0
   25.2258   12.0230   25.0853 N   0  0  0  0  0  0  0  0  0  0  0  0
   25.1828   11.5637   24.1879 H   0  0  0  0  0  0  0  0  0  0  0  0
   25.0324   12.4408   28.7181 C   0  0  0  0  0  0  0  0  0  0  0  0
   23.5837   12.1897   29.1389 C   0  0  0  0  0  0  0  0  0  0  0  0
   25.5566   13.7244   29.3675 C   0  0  0  0  0  0  0  0  0  0  0  0
   26.1819   15.6659   24.6847 C   0  0  0  0  0  0  0  0  0  0  0  0
   25.8525   14.2742   24.1707 C   0  0  0  0  0  0  0  0  0  0  0  0
   20.7031    7.9790   26.4288 C   0  0  0  0  0  0  0  0  0  0  0  0
   19.7764    7.6718   27.4493 C   0  0  0  0  0  0  0  0  0  0  0  0
   18.4522    8.1411   27.4206 C   0  0  0  0  0  0  0  0  0  0  0  0
   18.0674    8.9348   26.3276 C   0  0  0  0  0  0  0  0  0  0  0  0
   18.9702    9.2499   25.3115 C   0  0  0  0  0  0  0  0  0  0  0  0
   20.2796    8.7580   25.3393 C   0  0  0  0  0  0  0  0  0  0  0  0
   17.4340    7.8191   28.5131 C   0  0  0  0  0  0  0  0  0  0  0  0
   16.7587    9.0409   29.1501 C   0  0  0  0  0  0  0  0  0  0  0  0
   18.0851    6.9681   29.6088 C   0  0  0  0  0  0  0  0  0  0  0  0
   16.3754    7.0414   27.9375 O   0  0  0  0  0  0  0  0  0  0  0  0
   16.1300    7.4725   27.0998 H   0  0  0  0  0  0  0  0  0  0  0  0
   21.0545    9.1703   24.2738 O   0  0  0  0  0  0  0  0  0  0  0  0
   20.4598    9.3459   23.0421 C   0  0  0  0  0  0  0  0  0  0  0  0
   20.6552   10.5985   22.4207 C   0  0  0  0  0  0  0  0  0  0  0  0
   21.4108   11.7124   23.0919 C   0  0  0  0  0  0  0  0  0  0  0  0
   20.0776   10.8347   21.1661 C   0  0  0  0  0  0  0  0  0  0  0  0
   19.3159    9.8478   20.5566 C   0  0  0  0  0  0  0  0  0  0  0  0
   18.7808   10.0774   19.3504 F   0  0  0  0  0  0  0  0  0  0  0  0
   19.0796    8.6322   21.1870 C   0  0  0  0  0  0  0  0  0  0  0  0
   19.6231    8.3731   22.4546 C   0  0  0  0  0  0  0  0  0  0  0  0
   19.2886    7.0701   23.1233 C   0  0  0  0  0  0  0  0  0  0  0  0
 21 22  1  0  0  0
 22 12  1  0  0  0
 12 13  2  0  0  0
 13 14  1  0  0  0
 14 18  1  0  0  0
 18 19  1  0  0  0
 18 20  1  0  0  0
 14 15  2  0  0  0
 15  1  1  0  0  0
  1  2  2  0  0  0
  2  3  1  0  0  0
  3  4  1  0  0  0
  4  5  2  0  0  0
  4  6  1  0  0  0
  6  7  1  0  0  0
  6  8  1  0  0  0
  8  9  2  0  0  0
  9 23  1  0  0  0
 23 24  2  0  0  0
 24 25  1  0  0  0
 25 29  1  0  0  0
 29 30  1  0  0  0
 29 31  1  0  0  0
 29 32  1  0  0  0
 25 26  2  0  0  0
 26 27  1  0  0  0
 27 28  2  0  0  0
 28 34  1  0  0  0
 34 35  1  0  0  0
 35 36  2  0  0  0
 36 37  1  0  0  0
 36 38  1  0  0  0
 38 39  2  0  0  0
 39 40  1  0  0  0
 39 41  1  0  0  0
 41 42  2  0  0  0
 42 43  1  0  0  0
  9 10  1  0  0  0
 10 11  1  0  0  0
 15 16  1  0  0  0
 16 12  1  0  0  0
 11  1  1  0  0  0
 10  3  2  0  0  0
 28 23  1  0  0  0
 42 35  1  0  0  0
 32 33  1  0  0  0
 16 17  1  0  0  0
M  END
> <minimizedAffinity>
-9.88203

$$$$
