L1:Q15059:25231
     RDKit          3D

 72 77  0  0  0  0  0  0  0  0999 V2000
   -5.8243    0.8552   -1.4244 C   0  0  0  0  0  0  0  0  0  0  0  0
   -4.9662    1.9836   -0.9288 C   0  0  0  0  0  0  0  0  0  0  0  0
   -5.5493    3.2098   -0.5886 C   0  0  0  0  0  0  0  0  0  0  0  0
   -4.7539    4.2525   -0.1272 C   0  0  0  0  0  0  0  0  0  0  0  0
   -5.3243    5.4207    0.1958 F   0  0  0  0  0  0  0  0  0  0  0  0
   -3.3761    4.1087   -0.0042 C   0  0  0  0  0  0  0  0  0  0  0  0
   -2.7626    2.8949   -0.3408 C   0  0  0  0  0  0  0  0  0  0  0  0
   -1.2706    2.7644   -0.2256 C   0  0  0  0  0  0  0  0  0  0  0  0
   -3.5766    1.8246   -0.7610 C   0  0  0  0  0  0  0  0  0  0  0  0
   -3.0203    0.6101   -1.1013 O   0  0  0  0  0  0  0  0  0  0  0  0
   -2.5731   -0.1992   -0.0726 C   0  0  0  0  0  0  0  0  0  0  0  0
   -3.2001   -0.2557    1.1757 C   0  0  0  0  0  0  0  0  0  0  0  0
   -2.7041   -1.0942    2.1788 C   0  0  0  0  0  0  0  0  0  0  0  0
   -1.5776   -1.9016    1.9623 C   0  0  0  0  0  0  0  0  0  0  0  0
   -1.0215   -2.8101    3.0573 C   0  0  0  0  0  0  0  0  0  0  0  0
    0.4202   -2.4234    3.4128 C   0  0  0  0  0  0  0  0  0  0  0  0
   -1.1020   -4.2838    2.6396 C   0  0  0  0  0  0  0  0  0  0  0  0
   -1.8008   -2.6660    4.2517 O   0  0  0  0  0  0  0  0  0  0  0  0
   -0.9700   -1.8484    0.6940 C   0  0  0  0  0  0  0  0  0  0  0  0
   -1.4586   -1.0149   -0.3292 C   0  0  0  0  0  0  0  0  0  0  0  0
   -0.7450   -0.9975   -1.6227 C   0  0  0  0  0  0  0  0  0  0  0  0
   -1.3740   -1.3824   -2.7547 C   0  0  0  0  0  0  0  0  0  0  0  0
   -0.7587   -1.4066   -4.0121 N   0  0  0  0  0  0  0  0  0  0  0  0
   -1.5516   -1.8304   -5.1549 C   0  0  0  0  0  0  0  0  0  0  0  0
    0.5867   -1.0356   -4.2176 C   0  0  0  0  0  0  0  0  0  0  0  0
    1.1519   -1.0507   -5.3064 O   0  0  0  0  0  0  0  0  0  0  0  0
    1.2762   -0.6264   -3.0092 C   0  0  0  0  0  0  0  0  0  0  0  0
    2.6005   -0.1885   -2.7706 C   0  0  0  0  0  0  0  0  0  0  0  0
    2.6969    0.0728   -1.4158 C   0  0  0  0  0  0  0  0  0  0  0  0
    3.8021    0.5390   -0.6454 C   0  0  0  0  0  0  0  0  0  0  0  0
    3.6795    0.7996    0.6965 N   0  0  0  0  0  0  0  0  0  0  0  0
    4.8921    1.2191    1.1603 C   0  0  0  0  0  0  0  0  0  0  0  0
    5.1851    1.6209    2.6283 C   0  0  0  0  0  0  0  0  0  0  0  0
    6.3694    1.0018    3.3226 C   0  0  0  0  0  0  0  0  0  0  0  0
    4.9777    0.6085    3.7245 C   0  0  0  0  0  0  0  0  0  0  0  0
    5.7844    1.2526    0.1990 N   0  0  0  0  0  0  0  0  0  0  0  0
    5.1231    0.8307   -0.9369 C   0  0  0  0  0  0  0  0  0  0  0  0
    5.8554    0.7476   -2.2209 C   0  0  0  0  0  0  0  0  0  0  0  0
    1.4837   -0.1921   -0.8294 O   0  0  0  0  0  0  0  0  0  0  0  0
    0.6171   -0.6199   -1.7955 C   0  0  0  0  0  0  0  0  0  0  0  0
   -5.3923    0.4103   -2.3267 H   0  0  0  0  0  0  0  0  0  0  0  0
   -6.8292    1.2040   -1.6851 H   0  0  0  0  0  0  0  0  0  0  0  0
   -5.9210    0.0864   -0.6518 H   0  0  0  0  0  0  0  0  0  0  0  0
   -6.6197    3.3691   -0.6806 H   0  0  0  0  0  0  0  0  0  0  0  0
   -2.7917    4.9546    0.3461 H   0  0  0  0  0  0  0  0  0  0  0  0
   -1.0042    2.2170    0.6834 H   0  0  0  0  0  0  0  0  0  0  0  0
   -0.8579    2.2499   -1.0990 H   0  0  0  0  0  0  0  0  0  0  0  0
   -0.7903    3.7480   -0.1819 H   0  0  0  0  0  0  0  0  0  0  0  0
   -4.0776    0.3465    1.3930 H   0  0  0  0  0  0  0  0  0  0  0  0
   -3.2120   -1.1072    3.1421 H   0  0  0  0  0  0  0  0  0  0  0  0
    1.1083   -2.5540    2.5713 H   0  0  0  0  0  0  0  0  0  0  0  0
    0.7912   -3.0265    4.2498 H   0  0  0  0  0  0  0  0  0  0  0  0
    0.4738   -1.3770    3.7369 H   0  0  0  0  0  0  0  0  0  0  0  0
   -2.1371   -4.5691    2.4167 H   0  0  0  0  0  0  0  0  0  0  0  0
   -0.7680   -4.9392    3.4525 H   0  0  0  0  0  0  0  0  0  0  0  0
   -0.4915   -4.5016    1.7572 H   0  0  0  0  0  0  0  0  0  0  0  0
   -1.4312   -3.2654    4.9214 H   0  0  0  0  0  0  0  0  0  0  0  0
   -0.0944   -2.4645    0.4922 H   0  0  0  0  0  0  0  0  0  0  0  0
   -2.4150   -1.6979   -2.7358 H   0  0  0  0  0  0  0  0  0  0  0  0
   -1.9036   -2.8528   -4.9844 H   0  0  0  0  0  0  0  0  0  0  0  0
   -0.9754   -1.8089   -6.0835 H   0  0  0  0  0  0  0  0  0  0  0  0
   -2.4108   -1.1602   -5.2602 H   0  0  0  0  0  0  0  0  0  0  0  0
    3.3804   -0.0772   -3.5101 H   0  0  0  0  0  0  0  0  0  0  0  0
    2.8362    0.6938    1.2414 H   0  0  0  0  0  0  0  0  0  0  0  0
    4.9772    2.6613    2.8533 H   0  0  0  0  0  0  0  0  0  0  0  0
    6.9679    0.2872    2.7678 H   0  0  0  0  0  0  0  0  0  0  0  0
    6.9422    1.6297    3.9945 H   0  0  0  0  0  0  0  0  0  0  0  0
    4.6081    0.9644    4.6790 H   0  0  0  0  0  0  0  0  0  0  0  0
    4.6491   -0.3908    3.4639 H   0  0  0  0  0  0  0  0  0  0  0  0
    5.8263   -0.2722   -2.6166 H   0  0  0  0  0  0  0  0  0  0  0  0
    6.9056    1.0274   -2.0906 H   0  0  0  0  0  0  0  0  0  0  0  0
    5.4160    1.4253   -2.9592 H   0  0  0  0  0  0  0  0  0  0  0  0
  1  2  1  0
  2  3  2  0
  3  4  1  0
  4  5  1  0
  4  6  2  0
  6  7  1  0
  7  8  1  0
  7  9  2  0
  9 10  1  0
 10 11  1  0
 11 12  2  0
 12 13  1  0
 13 14  2  0
 14 15  1  0
 15 16  1  0
 15 17  1  0
 15 18  1  0
 14 19  1  0
 19 20  2  0
 20 21  1  0
 21 22  2  0
 22 23  1  0
 23 24  1  0
 23 25  1  0
 25 26  2  0
 25 27  1  0
 27 28  1  0
 28 29  2  0
 29 30  1  0
 30 31  1  0
 31 32  1  0
 32 33  1  0
 33 34  1  0
 34 35  1  0
 32 36  2  0
 36 37  1  0
 37 38  1  0
 29 39  1  0
 39 40  1  0
  9  2  1  0
 20 11  1  0
 40 21  1  0
 40 27  2  0
 37 30  2  0
 35 33  1  0
  1 41  1  0
  1 42  1  0
  1 43  1  0
  3 44  1  0
  6 45  1  0
  8 46  1  0
  8 47  1  0
  8 48  1  0
 12 49  1  0
 13 50  1  0
 16 51  1  0
 16 52  1  0
 16 53  1  0
 17 54  1  0
 17 55  1  0
 17 56  1  0
 18 57  1  0
 19 58  1  0
 22 59  1  0
 24 60  1  0
 24 61  1  0
 24 62  1  0
 28 63  1  0
 31 64  1  0
 33 65  1  0
 34 66  1  0
 34 67  1  0
 35 68  1  0
 35 69  1  0
 38 70  1  0
 38 71  1  0
 38 72  1  0
M  END
>  <mol_id>  (1) 
25231

>  <source_index>  (1) 
2

>  <layer>  (1) 
L1

>  <uniprot>  (1) 
Q15059

>  <paff>  (1) 
8

>  <smiles>  (1) 
Cc1cc(F)cc(C)c1Oc1ccc(C(C)(C)O)cc1-c1cn(C)c(=O)c2cc(-c3[nH]c(C4CC4)nc3C)oc12

$$$$
