L1:Q15059:25231


 42 47  0  0  0  0  0  0  0  0999 V2000
   20.0353    8.8379   25.4295 C   0  0  0  0  0  0  0  0  0  0  0  0
   18.7030    9.2611   25.4051 C   0  0  0  0  0  0  0  0  0  0  0  0
   17.8590    9.0026   26.4896 C   0  0  0  0  0  0  0  0  0  0  0  0
   18.3174    8.3109   27.6207 C   0  0  0  0  0  0  0  0  0  0  0  0
   19.6551    7.8739   27.6212 C   0  0  0  0  0  0  0  0  0  0  0  0
   20.5173    8.1201   26.5366 C   0  0  0  0  0  0  0  0  0  0  0  0
   21.9154    7.6517   26.6295 C   0  0  0  0  0  0  0  0  0  0  0  0
   22.1865    6.3365   26.7776 C   0  0  0  0  0  0  0  0  0  0  0  0
   23.4836    5.8212   26.8876 N   0  0  0  0  0  0  0  0  0  0  0  0
   23.6396    4.3826   27.0308 C   0  0  0  0  0  0  0  0  0  0  0  0
   24.6382    6.6313   26.8610 C   0  0  0  0  0  0  0  0  0  0  0  0
   25.7854    6.2075   26.9589 O   0  0  0  0  0  0  0  0  0  0  0  0
   24.3614    8.0467   26.7092 C   0  0  0  0  0  0  0  0  0  0  0  0
   25.2063    9.1797   26.6374 C   0  0  0  0  0  0  0  0  0  0  0  0
   24.3846   10.2818   26.4854 C   0  0  0  0  0  0  0  0  0  0  0  0
   23.0788    9.8573   26.4645 O   0  0  0  0  0  0  0  0  0  0  0  0
   23.0604    8.4979   26.6026 C   0  0  0  0  0  0  0  0  0  0  0  0
   24.7129   11.6634   26.3601 C   0  0  0  0  0  0  0  0  0  0  0  0
   25.2377   12.1715   25.1982 N   0  0  0  0  0  0  0  0  0  0  0  0
   25.4397   13.5095   25.3727 C   0  0  0  0  0  0  0  0  0  0  0  0
   25.0856   13.8919   26.5768 N   0  0  0  0  0  0  0  0  0  0  0  0
   24.6283   12.7531   27.2090 C   0  0  0  0  0  0  0  0  0  0  0  0
   24.1409   12.8372   28.6044 C   0  0  0  0  0  0  0  0  0  0  0  0
   25.4346   11.6424   24.3612 H   0  0  0  0  0  0  0  0  0  0  0  0
   26.0252   14.4616   24.2989 C   0  0  0  0  0  0  0  0  0  0  0  0
   26.9273   13.8856   23.2394 C   0  0  0  0  0  0  0  0  0  0  0  0
   27.5004   14.7669   24.3108 C   0  0  0  0  0  0  0  0  0  0  0  0
   17.4055    8.0363   28.8151 C   0  0  0  0  0  0  0  0  0  0  0  0
   16.6576    9.3072   29.2393 C   0  0  0  0  0  0  0  0  0  0  0  0
   18.2021    7.4563   29.9905 C   0  0  0  0  0  0  0  0  0  0  0  0
   16.4132    7.0659   28.4570 O   0  0  0  0  0  0  0  0  0  0  0  0
   15.8605    6.9036   29.2397 H   0  0  0  0  0  0  0  0  0  0  0  0
   20.9141    9.0646   24.3858 O   0  0  0  0  0  0  0  0  0  0  0  0
   21.4646   11.5776   23.1988 C   0  0  0  0  0  0  0  0  0  0  0  0
   20.6161   10.5355   22.5283 C   0  0  0  0  0  0  0  0  0  0  0  0
   20.0779   10.7807   21.2596 C   0  0  0  0  0  0  0  0  0  0  0  0
   19.2950    9.8138   20.6390 C   0  0  0  0  0  0  0  0  0  0  0  0
   18.7865   10.0604   19.4245 F   0  0  0  0  0  0  0  0  0  0  0  0
   19.0217    8.5996   21.2596 C   0  0  0  0  0  0  0  0  0  0  0  0
   19.5427    8.3265   22.5312 C   0  0  0  0  0  0  0  0  0  0  0  0
   19.2175    7.0203   23.1978 C   0  0  0  0  0  0  0  0  0  0  0  0
   20.3760    9.2878   23.1364 C   0  0  0  0  0  0  0  0  0  0  0  0
 34 35  1  0  0  0
 35 36  2  0  0  0
 36 37  1  0  0  0
 37 38  1  0  0  0
 37 39  2  0  0  0
 39 40  1  0  0  0
 40 41  1  0  0  0
 40 42  2  0  0  0
 42 33  1  0  0  0
 33  1  1  0  0  0
  1  2  2  0  0  0
  2  3  1  0  0  0
  3  4  2  0  0  0
  4 28  1  0  0  0
 28 29  1  0  0  0
 28 30  1  0  0  0
 28 31  1  0  0  0
  4  5  1  0  0  0
  5  6  2  0  0  0
  6  7  1  0  0  0
  7  8  2  0  0  0
  8  9  1  0  0  0
  9 10  1  0  0  0
  9 11  1  0  0  0
 11 12  2  0  0  0
 11 13  1  0  0  0
 13 14  1  0  0  0
 14 15  2  0  0  0
 15 18  1  0  0  0
 18 19  1  0  0  0
 19 20  1  0  0  0
 20 25  1  0  0  0
 25 26  1  0  0  0
 26 27  1  0  0  0
 20 21  2  0  0  0
 21 22  1  0  0  0
 22 23  1  0  0  0
 15 16  1  0  0  0
 16 17  1  0  0  0
 42 35  1  0  0  0
  6  1  1  0  0  0
 17  7  1  0  0  0
 17 13  2  0  0  0
 22 18  2  0  0  0
 27 25  1  0  0  0
 31 32  1  0  0  0
 19 24  1  0  0  0
M  END
> <minimizedAffinity>
-9.95385

$$$$
