L1:Q15059:48671
     RDKit          3D

 77 81  0  0  0  0  0  0  0  0999 V2000
    1.2292    0.4028    2.8371 C   0  0  0  0  0  0  0  0  0  0  0  0
    2.0105    1.5342    2.1882 C   0  0  0  0  0  0  0  0  0  0  0  0
    3.2605    1.0598    1.5301 C   0  0  0  0  0  0  0  0  0  0  0  0
    4.4615    1.1428    2.2021 N   0  0  0  0  0  0  0  0  0  0  0  0
    5.3730    0.6631    1.3833 C   0  0  0  0  0  0  0  0  0  0  0  0
    6.8403    0.5422    1.6663 C   0  0  0  0  0  0  0  0  0  0  0  0
    7.6656    1.3885    0.6979 C   0  0  0  0  0  0  0  0  0  0  0  0
    7.2929   -0.9171    1.6430 C   0  0  0  0  0  0  0  0  0  0  0  0
    4.7966    0.2734    0.1990 N   0  0  0  0  0  0  0  0  0  0  0  0
    3.4488    0.5149    0.2720 C   0  0  0  0  0  0  0  0  0  0  0  0
    2.5225    0.2254   -0.7751 C   0  0  0  0  0  0  0  0  0  0  0  0
    2.7561   -0.2503   -2.0548 C   0  0  0  0  0  0  0  0  0  0  0  0
    1.4937   -0.3619   -2.6856 C   0  0  0  0  0  0  0  0  0  0  0  0
    1.0987   -0.7948   -4.0116 C   0  0  0  0  0  0  0  0  0  0  0  0
    1.9273   -1.1621   -4.8385 O   0  0  0  0  0  0  0  0  0  0  0  0
   -0.2925   -0.7459   -4.2396 N   0  0  0  0  0  0  0  0  0  0  0  0
   -0.8053   -1.1572   -5.5367 C   0  0  0  0  0  0  0  0  0  0  0  0
   -1.2115   -0.3246   -3.2701 C   0  0  0  0  0  0  0  0  0  0  0  0
   -0.8582    0.0700   -2.0269 C   0  0  0  0  0  0  0  0  0  0  0  0
   -1.8808    0.5073   -1.0515 C   0  0  0  0  0  0  0  0  0  0  0  0
   -1.7735    1.8023   -0.5039 C   0  0  0  0  0  0  0  0  0  0  0  0
   -2.6825    2.2794    0.4559 C   0  0  0  0  0  0  0  0  0  0  0  0
   -2.5656    3.6627    1.0893 C   0  0  0  0  0  0  0  0  0  0  0  0
   -2.0832    3.5426    2.5421 C   0  0  0  0  0  0  0  0  0  0  0  0
   -1.6464    4.6383    0.3409 C   0  0  0  0  0  0  0  0  0  0  0  0
   -3.8528    4.2934    1.0966 O   0  0  0  0  0  0  0  0  0  0  0  0
   -3.7071    1.4076    0.8493 C   0  0  0  0  0  0  0  0  0  0  0  0
   -4.6066    1.8133    1.7595 F   0  0  0  0  0  0  0  0  0  0  0  0
   -3.8346    0.1219    0.3308 C   0  0  0  0  0  0  0  0  0  0  0  0
   -2.9104   -0.3414   -0.6071 C   0  0  0  0  0  0  0  0  0  0  0  0
   -2.9706   -1.6116   -1.1508 O   0  0  0  0  0  0  0  0  0  0  0  0
   -3.4212   -2.6309   -0.3391 C   0  0  0  0  0  0  0  0  0  0  0  0
   -4.6810   -3.1919   -0.6272 C   0  0  0  0  0  0  0  0  0  0  0  0
   -5.5235   -2.6742   -1.7576 C   0  0  0  0  0  0  0  0  0  0  0  0
   -5.1587   -4.2270    0.1850 C   0  0  0  0  0  0  0  0  0  0  0  0
   -4.3792   -4.7035    1.2328 C   0  0  0  0  0  0  0  0  0  0  0  0
   -4.8484   -5.6937    2.0032 F   0  0  0  0  0  0  0  0  0  0  0  0
   -3.1176   -4.1779    1.4898 C   0  0  0  0  0  0  0  0  0  0  0  0
   -2.6092   -3.1447    0.6914 C   0  0  0  0  0  0  0  0  0  0  0  0
   -1.2349   -2.6062    0.9712 C   0  0  0  0  0  0  0  0  0  0  0  0
    0.5424    0.0440   -1.7716 C   0  0  0  0  0  0  0  0  0  0  0  0
    1.1726    0.4005   -0.6151 O   0  0  0  0  0  0  0  0  0  0  0  0
    0.3230    0.7909    3.3127 H   0  0  0  0  0  0  0  0  0  0  0  0
    1.8283   -0.1001    3.6038 H   0  0  0  0  0  0  0  0  0  0  0  0
    0.9298   -0.3499    2.1008 H   0  0  0  0  0  0  0  0  0  0  0  0
    1.3756    2.0524    1.4606 H   0  0  0  0  0  0  0  0  0  0  0  0
    2.2666    2.2756    2.9548 H   0  0  0  0  0  0  0  0  0  0  0  0
    7.0159    0.9289    2.6788 H   0  0  0  0  0  0  0  0  0  0  0  0
    7.3492    2.4372    0.7262 H   0  0  0  0  0  0  0  0  0  0  0  0
    8.7282    1.3513    0.9606 H   0  0  0  0  0  0  0  0  0  0  0  0
    7.5634    1.0384   -0.3355 H   0  0  0  0  0  0  0  0  0  0  0  0
    8.3484   -0.9992    1.9239 H   0  0  0  0  0  0  0  0  0  0  0  0
    7.1750   -1.3627    0.6488 H   0  0  0  0  0  0  0  0  0  0  0  0
    6.7098   -1.5196    2.3484 H   0  0  0  0  0  0  0  0  0  0  0  0
    5.2878   -0.1293   -0.5851 H   0  0  0  0  0  0  0  0  0  0  0  0
    3.7129   -0.4891   -2.4967 H   0  0  0  0  0  0  0  0  0  0  0  0
   -1.3461   -0.3192   -5.9879 H   0  0  0  0  0  0  0  0  0  0  0  0
   -1.4881   -2.0014   -5.3978 H   0  0  0  0  0  0  0  0  0  0  0  0
   -0.0044   -1.4627   -6.2149 H   0  0  0  0  0  0  0  0  0  0  0  0
   -2.2547   -0.3347   -3.5787 H   0  0  0  0  0  0  0  0  0  0  0  0
   -0.9505    2.4321   -0.8376 H   0  0  0  0  0  0  0  0  0  0  0  0
   -1.0936    3.0763    2.6009 H   0  0  0  0  0  0  0  0  0  0  0  0
   -2.0311    4.5289    3.0180 H   0  0  0  0  0  0  0  0  0  0  0  0
   -2.7747    2.9489    3.1509 H   0  0  0  0  0  0  0  0  0  0  0  0
   -1.9605    4.7538   -0.7033 H   0  0  0  0  0  0  0  0  0  0  0  0
   -1.6971    5.6390    0.7869 H   0  0  0  0  0  0  0  0  0  0  0  0
   -0.5992    4.3181    0.3574 H   0  0  0  0  0  0  0  0  0  0  0  0
   -4.4684    3.6992    1.5636 H   0  0  0  0  0  0  0  0  0  0  0  0
   -4.6555   -0.4954    0.6795 H   0  0  0  0  0  0  0  0  0  0  0  0
   -4.9354   -2.6137   -2.6792 H   0  0  0  0  0  0  0  0  0  0  0  0
   -5.9165   -1.6827   -1.5125 H   0  0  0  0  0  0  0  0  0  0  0  0
   -6.3723   -3.3365   -1.9579 H   0  0  0  0  0  0  0  0  0  0  0  0
   -6.1334   -4.6741    0.0127 H   0  0  0  0  0  0  0  0  0  0  0  0
   -2.5373   -4.5902    2.3105 H   0  0  0  0  0  0  0  0  0  0  0  0
   -0.6804   -2.4535    0.0401 H   0  0  0  0  0  0  0  0  0  0  0  0
   -1.3010   -1.6618    1.5193 H   0  0  0  0  0  0  0  0  0  0  0  0
   -0.6506   -3.3088    1.5753 H   0  0  0  0  0  0  0  0  0  0  0  0
  1  2  1  0
  2  3  1  0
  3  4  1  0
  4  5  2  0
  5  6  1  0
  6  7  1  0
  6  8  1  0
  5  9  1  0
  9 10  1  0
 10 11  1  0
 11 12  2  0
 12 13  1  0
 13 14  1  0
 14 15  2  0
 14 16  1  0
 16 17  1  0
 16 18  1  0
 18 19  2  0
 19 20  1  0
 20 21  2  0
 21 22  1  0
 22 23  1  0
 23 24  1  0
 23 25  1  0
 23 26  1  0
 22 27  2  0
 27 28  1  0
 27 29  1  0
 29 30  2  0
 30 31  1  0
 31 32  1  0
 32 33  2  0
 33 34  1  0
 33 35  1  0
 35 36  2  0
 36 37  1  0
 36 38  1  0
 38 39  2  0
 39 40  1  0
 19 41  1  0
 41 42  1  0
 10  3  2  0
 42 11  1  0
 41 13  2  0
 30 20  1  0
 39 32  1  0
  1 43  1  0
  1 44  1  0
  1 45  1  0
  2 46  1  0
  2 47  1  0
  6 48  1  0
  7 49  1  0
  7 50  1  0
  7 51  1  0
  8 52  1  0
  8 53  1  0
  8 54  1  0
  9 55  1  0
 12 56  1  0
 17 57  1  0
 17 58  1  0
 17 59  1  0
 18 60  1  0
 21 61  1  0
 24 62  1  0
 24 63  1  0
 24 64  1  0
 25 65  1  0
 25 66  1  0
 25 67  1  0
 26 68  1  0
 29 69  1  0
 34 70  1  0
 34 71  1  0
 34 72  1  0
 35 73  1  0
 38 74  1  0
 40 75  1  0
 40 76  1  0
 40 77  1  0
M  END
>  <mol_id>  (1) 
48671

>  <source_index>  (1) 
3

>  <layer>  (1) 
L1

>  <uniprot>  (1) 
Q15059

>  <paff>  (1) 
6.8632999999999997

>  <smiles>  (1) 
CCc1nc(C(C)C)[nH]c1-c1cc2c(=O)n(C)cc(-c3cc(C(C)(C)O)c(F)cc3Oc3c(C)cc(F)cc3C)c2o1

$$$$
