L1:Q15059:48671


 44 48  0  0  0  0  0  0  0  0999 V2000
   24.2767   10.2392   26.3344 C   0  0  0  0  0  0  0  0  0  0  0  0
   25.1162    9.1472   26.4801 C   0  0  0  0  0  0  0  0  0  0  0  0
   24.2857    8.0076   26.6054 C   0  0  0  0  0  0  0  0  0  0  0  0
   24.5795    6.5985   26.7780 C   0  0  0  0  0  0  0  0  0  0  0  0
   25.7340    6.1888   26.8453 O   0  0  0  0  0  0  0  0  0  0  0  0
   23.4337    5.7794   26.8540 N   0  0  0  0  0  0  0  0  0  0  0  0
   23.6067    4.3460   27.0269 C   0  0  0  0  0  0  0  0  0  0  0  0
   22.1285    6.2820   26.7775 C   0  0  0  0  0  0  0  0  0  0  0  0
   21.8403    7.5939   26.6287 C   0  0  0  0  0  0  0  0  0  0  0  0
   22.9783    8.4446   26.5355 C   0  0  0  0  0  0  0  0  0  0  0  0
   22.9792    9.7989   26.3696 O   0  0  0  0  0  0  0  0  0  0  0  0
   20.4377    8.0575   26.5511 C   0  0  0  0  0  0  0  0  0  0  0  0
   19.5538    7.6937   27.5878 C   0  0  0  0  0  0  0  0  0  0  0  0
   18.1977    8.0625   27.5698 C   0  0  0  0  0  0  0  0  0  0  0  0
   17.7575    8.8117   26.4701 C   0  0  0  0  0  0  0  0  0  0  0  0
   16.4728    9.1955   26.4038 F   0  0  0  0  0  0  0  0  0  0  0  0
   18.6053    9.1801   25.4291 C   0  0  0  0  0  0  0  0  0  0  0  0
   19.9446    8.7877   25.4549 C   0  0  0  0  0  0  0  0  0  0  0  0
   17.2145    7.6500   28.6614 C   0  0  0  0  0  0  0  0  0  0  0  0
   17.9257    6.7981   29.7226 C   0  0  0  0  0  0  0  0  0  0  0  0
   16.5001    8.8161   29.3591 C   0  0  0  0  0  0  0  0  0  0  0  0
   16.1659    6.8612   28.0844 O   0  0  0  0  0  0  0  0  0  0  0  0
   16.5826    6.1079   27.6271 H   0  0  0  0  0  0  0  0  0  0  0  0
   20.8362    9.1072   24.4472 O   0  0  0  0  0  0  0  0  0  0  0  0
   20.3205    9.3325   23.1886 C   0  0  0  0  0  0  0  0  0  0  0  0
   20.6467   10.5466   22.5527 C   0  0  0  0  0  0  0  0  0  0  0  0
   21.4976   11.5789   23.2354 C   0  0  0  0  0  0  0  0  0  0  0  0
   20.1327   10.7968   21.2750 C   0  0  0  0  0  0  0  0  0  0  0  0
   19.3430    9.8417   20.6451 C   0  0  0  0  0  0  0  0  0  0  0  0
   18.8564   10.0939   19.4228 F   0  0  0  0  0  0  0  0  0  0  0  0
   19.0568    8.6258   21.2562 C   0  0  0  0  0  0  0  0  0  0  0  0
   19.5610    8.3434   22.5328 C   0  0  0  0  0  0  0  0  0  0  0  0
   19.2594    7.0150   23.1662 C   0  0  0  0  0  0  0  0  0  0  0  0
   24.4399   12.6995   27.0236 C   0  0  0  0  0  0  0  0  0  0  0  0
   24.9116   13.8520   26.4318 N   0  0  0  0  0  0  0  0  0  0  0  0
   25.3517   13.4994   25.2430 C   0  0  0  0  0  0  0  0  0  0  0  0
   25.1767   12.1512   25.0471 N   0  0  0  0  0  0  0  0  0  0  0  0
   24.5991   11.6204   26.1718 C   0  0  0  0  0  0  0  0  0  0  0  0
   25.4388   11.6427   24.2158 H   0  0  0  0  0  0  0  0  0  0  0  0
   25.9635   14.4094   24.2207 C   0  0  0  0  0  0  0  0  0  0  0  0
   27.2583   13.8244   23.6584 C   0  0  0  0  0  0  0  0  0  0  0  0
   26.1948   15.8088   24.7891 C   0  0  0  0  0  0  0  0  0  0  0  0
   24.8078   12.2125   29.4512 C   0  0  0  0  0  0  0  0  0  0  0  0
   23.8593   12.7565   28.3948 C   0  0  0  0  0  0  0  0  0  0  0  0
 43 44  1  0  0  0
 44 34  1  0  0  0
 34 35  1  0  0  0
 35 36  2  0  0  0
 36 40  1  0  0  0
 40 41  1  0  0  0
 40 42  1  0  0  0
 36 37  1  0  0  0
 37 38  1  0  0  0
 38  1  1  0  0  0
  1  2  2  0  0  0
  2  3  1  0  0  0
  3  4  1  0  0  0
  4  5  2  0  0  0
  4  6  1  0  0  0
  6  7  1  0  0  0
  6  8  1  0  0  0
  8  9  2  0  0  0
  9 12  1  0  0  0
 12 13  2  0  0  0
 13 14  1  0  0  0
 14 19  1  0  0  0
 19 20  1  0  0  0
 19 21  1  0  0  0
 19 22  1  0  0  0
 14 15  2  0  0  0
 15 16  1  0  0  0
 15 17  1  0  0  0
 17 18  2  0  0  0
 18 24  1  0  0  0
 24 25  1  0  0  0
 25 26  2  0  0  0
 26 27  1  0  0  0
 26 28  1  0  0  0
 28 29  2  0  0  0
 29 30  1  0  0  0
 29 31  1  0  0  0
 31 32  2  0  0  0
 32 33  1  0  0  0
  9 10  1  0  0  0
 10 11  1  0  0  0
 38 34  2  0  0  0
 11  1  1  0  0  0
 10  3  2  0  0  0
 18 12  1  0  0  0
 32 25  1  0  0  0
 37 39  1  0  0  0
 22 23  1  0  0  0
M  END
> <minimizedAffinity>
-10.17359

$$$$
