L1:Q15059:53300


 45 50  0  0  0  0  0  0  0  0999 V2000
   24.3916   10.1341   26.2358 C   0  0  0  0  0  0  0  0  0  0  0  0
   25.1950    9.0153   26.3626 C   0  0  0  0  0  0  0  0  0  0  0  0
   24.3322    7.9059   26.5241 C   0  0  0  0  0  0  0  0  0  0  0  0
   24.5893    6.4902   26.7059 C   0  0  0  0  0  0  0  0  0  0  0  0
   25.7313    6.0433   26.7406 O   0  0  0  0  0  0  0  0  0  0  0  0
   23.4224    5.7077   26.8310 N   0  0  0  0  0  0  0  0  0  0  0  0
   23.5580    4.2727   27.0232 C   0  0  0  0  0  0  0  0  0  0  0  0
   22.1321    6.2486   26.7850 C   0  0  0  0  0  0  0  0  0  0  0  0
   21.8801    7.5658   26.6213 C   0  0  0  0  0  0  0  0  0  0  0  0
   23.0374    8.3841   26.4861 C   0  0  0  0  0  0  0  0  0  0  0  0
   23.0765    9.7388   26.3090 O   0  0  0  0  0  0  0  0  0  0  0  0
   24.4785   12.6732   26.7498 C   0  0  0  0  0  0  0  0  0  0  0  0
   25.0763   13.7470   26.1208 N   0  0  0  0  0  0  0  0  0  0  0  0
   25.6879   13.2607   25.0623 C   0  0  0  0  0  0  0  0  0  0  0  0
   25.5019   11.9062   24.9852 N   0  0  0  0  0  0  0  0  0  0  0  0
   24.7381   11.5061   26.0538 C   0  0  0  0  0  0  0  0  0  0  0  0
   25.8620   11.2916   24.2692 H   0  0  0  0  0  0  0  0  0  0  0  0
   26.4809   14.0207   24.0462 C   0  0  0  0  0  0  0  0  0  0  0  0
   26.2917   15.5396   24.2101 C   0  0  0  0  0  0  0  0  0  0  0  0
   27.6946   16.1274   24.3168 C   0  0  0  0  0  0  0  0  0  0  0  0
   28.5198   15.0032   24.9165 C   0  0  0  0  0  0  0  0  0  0  0  0
   27.9892   13.7717   24.1967 C   0  0  0  0  0  0  0  0  0  0  0  0
   24.3393   12.2674   29.2132 C   0  0  0  0  0  0  0  0  0  0  0  0
   23.6982   12.9128   27.9950 C   0  0  0  0  0  0  0  0  0  0  0  0
   20.4869    8.0532   26.5720 C   0  0  0  0  0  0  0  0  0  0  0  0
   19.6357    7.7650   27.6562 C   0  0  0  0  0  0  0  0  0  0  0  0
   18.2945    8.1817   27.6711 C   0  0  0  0  0  0  0  0  0  0  0  0
   17.8282    8.9199   26.5684 C   0  0  0  0  0  0  0  0  0  0  0  0
   18.6567    9.2064   25.4804 C   0  0  0  0  0  0  0  0  0  0  0  0
   19.9811    8.7613   25.4688 C   0  0  0  0  0  0  0  0  0  0  0  0
   17.3520    7.8922   28.8385 C   0  0  0  0  0  0  0  0  0  0  0  0
   16.8406    9.1365   29.5768 C   0  0  0  0  0  0  0  0  0  0  0  0
   16.1616    7.0528   28.3638 C   0  0  0  0  0  0  0  0  0  0  0  0
   18.0586    7.1199   29.8195 O   0  0  0  0  0  0  0  0  0  0  0  0
   18.9400    7.5195   29.9171 H   0  0  0  0  0  0  0  0  0  0  0  0
   20.8508    9.0197   24.4248 O   0  0  0  0  0  0  0  0  0  0  0  0
   20.3017    9.2520   23.1819 C   0  0  0  0  0  0  0  0  0  0  0  0
   20.6268   10.4586   22.5315 C   0  0  0  0  0  0  0  0  0  0  0  0
   21.5144   11.4798   23.1832 C   0  0  0  0  0  0  0  0  0  0  0  0
   20.0763   10.7127   21.2699 C   0  0  0  0  0  0  0  0  0  0  0  0
   19.2542    9.7669   20.6679 C   0  0  0  0  0  0  0  0  0  0  0  0
   18.7331   10.0225   19.4607 F   0  0  0  0  0  0  0  0  0  0  0  0
   18.9711    8.5562   21.2911 C   0  0  0  0  0  0  0  0  0  0  0  0
   19.5099    8.2713   22.5525 C   0  0  0  0  0  0  0  0  0  0  0  0
   19.2175    6.9472   23.1989 C   0  0  0  0  0  0  0  0  0  0  0  0
 23 24  1  0  0  0
 24 12  1  0  0  0
 12 13  1  0  0  0
 13 14  2  0  0  0
 14 18  1  0  0  0
 18 19  1  0  0  0
 19 20  1  0  0  0
 20 21  1  0  0  0
 21 22  1  0  0  0
 14 15  1  0  0  0
 15 16  1  0  0  0
 16  1  1  0  0  0
  1  2  2  0  0  0
  2  3  1  0  0  0
  3  4  1  0  0  0
  4  5  2  0  0  0
  4  6  1  0  0  0
  6  7  1  0  0  0
  6  8  1  0  0  0
  8  9  2  0  0  0
  9 25  1  0  0  0
 25 26  2  0  0  0
 26 27  1  0  0  0
 27 31  1  0  0  0
 31 32  1  0  0  0
 31 33  1  0  0  0
 31 34  1  0  0  0
 27 28  2  0  0  0
 28 29  1  0  0  0
 29 30  2  0  0  0
 30 36  1  0  0  0
 36 37  1  0  0  0
 37 38  2  0  0  0
 38 39  1  0  0  0
 38 40  1  0  0  0
 40 41  2  0  0  0
 41 42  1  0  0  0
 41 43  1  0  0  0
 43 44  2  0  0  0
 44 45  1  0  0  0
  9 10  1  0  0  0
 10 11  1  0  0  0
 16 12  2  0  0  0
 11  1  1  0  0  0
 22 18  1  0  0  0
 10  3  2  0  0  0
 30 25  1  0  0  0
 44 37  1  0  0  0
 15 17  1  0  0  0
 34 35  1  0  0  0
M  END
> <minimizedAffinity>
-10.07921

$$$$
