L1:Q15059:57289
 OpenBabel09212617433D

 75 80  0  0  0  0  0  0  0  0999 V2000
   21.9867    7.6217   26.4540 C   0  0  0  0  0  0  0  0  0  0  0  0
   22.2865    6.3420   26.7684 C   0  0  0  0  0  0  0  0  0  0  0  0
   23.5943    5.8490   26.8492 N   0  0  0  0  0  0  0  0  0  0  0  0
   23.7782    4.4455   27.1829 C   0  0  0  0  0  0  0  0  0  0  0  0
   24.7338    6.6469   26.6158 C   0  0  0  0  0  0  0  0  0  0  0  0
   25.8897    6.2408   26.6787 O   0  0  0  0  0  0  0  0  0  0  0  0
   24.4295    8.0271   26.2917 C   0  0  0  0  0  0  0  0  0  0  0  0
   25.2534    9.1405   26.0028 C   0  0  0  0  0  0  0  0  0  0  0  0
   24.4074   10.2101   25.7749 C   0  0  0  0  0  0  0  0  0  0  0  0
   23.1095    9.7875   25.9081 O   0  0  0  0  0  0  0  0  0  0  0  0
   23.1180    8.4574   26.2248 C   0  0  0  0  0  0  0  0  0  0  0  0
   20.0605    8.7971   25.3085 C   0  0  0  0  0  0  0  0  0  0  0  0
   18.7202    9.1943   25.3138 C   0  0  0  0  0  0  0  0  0  0  0  0
   17.9065    8.9117   26.4136 C   0  0  0  0  0  0  0  0  0  0  0  0
   18.4050    8.2290   27.5366 C   0  0  0  0  0  0  0  0  0  0  0  0
   19.7432    7.8033   27.4991 C   0  0  0  0  0  0  0  0  0  0  0  0
   20.5781    8.0722   26.3961 C   0  0  0  0  0  0  0  0  0  0  0  0
   17.4849    7.9523   28.7249 C   0  0  0  0  0  0  0  0  0  0  0  0
   16.6928    9.1700   29.2205 C   0  0  0  0  0  0  0  0  0  0  0  0
   18.2836    7.3507   29.8852 C   0  0  0  0  0  0  0  0  0  0  0  0
   16.5014    6.9844   28.3320 O   0  0  0  0  0  0  0  0  0  0  0  0
   16.1895    7.2369   27.4458 H   0  0  0  0  0  0  0  0  0  0  0  0
   20.9113    9.0562   24.2491 O   0  0  0  0  0  0  0  0  0  0  0  0
   19.2060    6.9896   23.1084 C   0  0  0  0  0  0  0  0  0  0  0  0
   19.5051    8.2955   22.4293 C   0  0  0  0  0  0  0  0  0  0  0  0
   18.9537    8.5576   21.1681 C   0  0  0  0  0  0  0  0  0  0  0  0
   19.2005    9.7717   20.5364 C   0  0  0  0  0  0  0  0  0  0  0  0
   18.6633   10.0072   19.3322 F   0  0  0  0  0  0  0  0  0  0  0  0
   19.9861   10.7496   21.1357 C   0  0  0  0  0  0  0  0  0  0  0  0
   20.5545   10.5158   22.3933 C   0  0  0  0  0  0  0  0  0  0  0  0
   21.4046   11.5708   23.0413 C   0  0  0  0  0  0  0  0  0  0  0  0
   20.3416    9.2680   23.0117 C   0  0  0  0  0  0  0  0  0  0  0  0
   24.7224   11.5599   25.4565 C   0  0  0  0  0  0  0  0  0  0  0  0
   24.0444   12.7446   25.6245 C   0  0  0  0  0  0  0  0  0  0  0  0
   24.7757   13.8007   25.1367 N   0  0  0  0  0  0  0  0  0  0  0  0
   25.8934   13.2798   24.6712 C   0  0  0  0  0  0  0  0  0  0  0  0
   25.8990   11.9185   24.8543 N   0  0  0  0  0  0  0  0  0  0  0  0
   26.6367   11.2811   24.5904 H   0  0  0  0  0  0  0  0  0  0  0  0
   27.0177   14.0273   24.0251 C   0  0  0  0  0  0  0  0  0  0  0  0
   26.7653   14.2883   22.5303 C   0  0  0  0  0  0  0  0  0  0  0  0
   27.1327   15.7497   22.3058 C   0  0  0  0  0  0  0  0  0  0  0  0
   26.7793   16.4145   23.6241 C   0  0  0  0  0  0  0  0  0  0  0  0
   27.2602   15.4067   24.6597 C   0  0  0  0  0  0  0  0  0  0  0  0
   21.5080    5.6920   26.9596 H   0  0  0  0  0  0  0  0  0  0  0  0
   22.8232    3.9853   27.3280 H   0  0  0  0  0  0  0  0  0  0  0  0
   24.3532    4.3650   28.0817 H   0  0  0  0  0  0  0  0  0  0  0  0
   24.2936    3.9536   26.3845 H   0  0  0  0  0  0  0  0  0  0  0  0
   26.2848    9.1520   25.9688 H   0  0  0  0  0  0  0  0  0  0  0  0
   18.3303    9.6983   24.5020 H   0  0  0  0  0  0  0  0  0  0  0  0
   16.9188    9.2104   26.4013 H   0  0  0  0  0  0  0  0  0  0  0  0
   20.1255    7.2791   28.3016 H   0  0  0  0  0  0  0  0  0  0  0  0
   17.3728    9.9354   29.5313 H   0  0  0  0  0  0  0  0  0  0  0  0
   16.0772    8.8827   30.0472 H   0  0  0  0  0  0  0  0  0  0  0  0
   16.0762    9.5408   28.4285 H   0  0  0  0  0  0  0  0  0  0  0  0
   19.0291    8.0486   30.2047 H   0  0  0  0  0  0  0  0  0  0  0  0
   18.7563    6.4468   29.5620 H   0  0  0  0  0  0  0  0  0  0  0  0
   17.6233    7.1364   30.6994 H   0  0  0  0  0  0  0  0  0  0  0  0
   18.5539    6.4077   22.4911 H   0  0  0  0  0  0  0  0  0  0  0  0
   18.7329    7.1772   24.0496 H   0  0  0  0  0  0  0  0  0  0  0  0
   20.1182    6.4536   23.2683 H   0  0  0  0  0  0  0  0  0  0  0  0
   18.3631    7.8480   20.7069 H   0  0  0  0  0  0  0  0  0  0  0  0
   20.1501   11.6473   20.6537 H   0  0  0  0  0  0  0  0  0  0  0  0
   21.4387   12.4367   22.4136 H   0  0  0  0  0  0  0  0  0  0  0  0
   22.3958   11.1933   23.1823 H   0  0  0  0  0  0  0  0  0  0  0  0
   20.9850   11.8341   23.9897 H   0  0  0  0  0  0  0  0  0  0  0  0
   23.1119   12.8290   26.0585 H   0  0  0  0  0  0  0  0  0  0  0  0
   27.8665   13.3916   24.1678 H   0  0  0  0  0  0  0  0  0  0  0  0
   25.7364   14.1199   22.2896 H   0  0  0  0  0  0  0  0  0  0  0  0
   27.3412   13.6339   21.9098 H   0  0  0  0  0  0  0  0  0  0  0  0
   26.5627   16.1677   21.5025 H   0  0  0  0  0  0  0  0  0  0  0  0
   28.1594   15.8830   22.0356 H   0  0  0  0  0  0  0  0  0  0  0  0
   25.7241   16.5729   23.7036 H   0  0  0  0  0  0  0  0  0  0  0  0
   27.2238   17.3809   23.7400 H   0  0  0  0  0  0  0  0  0  0  0  0
   26.7014   15.5056   25.5668 H   0  0  0  0  0  0  0  0  0  0  0  0
   28.2893   15.5544   24.9128 H   0  0  0  0  0  0  0  0  0  0  0  0
  1  2  2  0  0  0  0
  2  3  1  0  0  0  0
  2 44  1  0  0  0  0
  3  4  1  0  0  0  0
  3  5  1  0  0  0  0
  4 45  1  0  0  0  0
  4 46  1  0  0  0  0
  4 47  1  0  0  0  0
  5  6  2  0  0  0  0
  5  7  1  0  0  0  0
  7  8  1  0  0  0  0
  8  9  2  0  0  0  0
  8 48  1  0  0  0  0
  9 33  1  0  0  0  0
  9 10  1  0  0  0  0
 10 11  1  0  0  0  0
 11  1  1  0  0  0  0
 11  7  2  0  0  0  0
 12 13  2  0  0  0  0
 13 14  1  0  0  0  0
 13 49  1  0  0  0  0
 14 15  2  0  0  0  0
 14 50  1  0  0  0  0
 15 18  1  0  0  0  0
 15 16  1  0  0  0  0
 16 17  2  0  0  0  0
 16 51  1  0  0  0  0
 17  1  1  0  0  0  0
 17 12  1  0  0  0  0
 18 19  1  0  0  0  0
 18 20  1  0  0  0  0
 18 21  1  0  0  0  0
 19 52  1  0  0  0  0
 19 53  1  0  0  0  0
 19 54  1  0  0  0  0
 20 55  1  0  0  0  0
 20 56  1  0  0  0  0
 20 57  1  0  0  0  0
 21 22  1  0  0  0  0
 23 12  1  0  0  0  0
 24 25  1  0  0  0  0
 24 58  1  0  0  0  0
 24 59  1  0  0  0  0
 24 60  1  0  0  0  0
 25 26  2  0  0  0  0
 26 27  1  0  0  0  0
 26 61  1  0  0  0  0
 27 28  1  0  0  0  0
 27 29  2  0  0  0  0
 29 30  1  0  0  0  0
 29 62  1  0  0  0  0
 30 31  1  0  0  0  0
 30 32  2  0  0  0  0
 31 63  1  0  0  0  0
 31 64  1  0  0  0  0
 31 65  1  0  0  0  0
 32 23  1  0  0  0  0
 32 25  1  0  0  0  0
 33 34  2  0  0  0  0
 34 35  1  0  0  0  0
 34 66  1  0  0  0  0
 35 36  2  0  0  0  0
 36 39  1  0  0  0  0
 36 37  1  0  0  0  0
 37 33  1  0  0  0  0
 37 38  1  0  0  0  0
 39 40  1  0  0  0  0
 39 67  1  0  0  0  0
 40 41  1  0  0  0  0
 40 68  1  0  0  0  0
 40 69  1  0  0  0  0
 41 42  1  0  0  0  0
 41 70  1  0  0  0  0
 41 71  1  0  0  0  0
 42 43  1  0  0  0  0
 42 72  1  0  0  0  0
 42 73  1  0  0  0  0
 43 39  1  0  0  0  0
 43 74  1  0  0  0  0
 43 75  1  0  0  0  0
M  END
>  <minimizedAffinity>
-10.91781

$$$$
