L1:Q15059:57291


 41 46  0  0  0  0  0  0  0  0999 V2000
   22.3721    8.7979   25.6672 C   0  0  0  0  0  0  0  0  0  0  0  0
   23.6338    8.3204   25.5903 C   0  0  0  0  0  0  0  0  0  0  0  0
   24.0963    7.2343   26.3424 N   0  0  0  0  0  0  0  0  0  0  0  0
   25.4883    6.8415   26.1960 C   0  0  0  0  0  0  0  0  0  0  0  0
   23.2807    6.5255   27.2477 C   0  0  0  0  0  0  0  0  0  0  0  0
   23.6573    5.5758   27.9275 O   0  0  0  0  0  0  0  0  0  0  0  0
   21.9164    7.0109   27.3185 C   0  0  0  0  0  0  0  0  0  0  0  0
   20.7961    6.5871   28.0707 C   0  0  0  0  0  0  0  0  0  0  0  0
   19.7496    7.4281   27.7337 C   0  0  0  0  0  0  0  0  0  0  0  0
   20.1952    8.3360   26.8072 O   0  0  0  0  0  0  0  0  0  0  0  0
   21.5151    8.0897   26.5546 C   0  0  0  0  0  0  0  0  0  0  0  0
   22.0701   11.2958   25.2623 C   0  0  0  0  0  0  0  0  0  0  0  0
   21.5763   12.3161   24.4362 C   0  0  0  0  0  0  0  0  0  0  0  0
   21.0368   12.0265   23.1827 C   0  0  0  0  0  0  0  0  0  0  0  0
   20.9559   10.7032   22.7431 C   0  0  0  0  0  0  0  0  0  0  0  0
   21.4308    9.6795   23.5774 C   0  0  0  0  0  0  0  0  0  0  0  0
   21.9771    9.9556   24.8465 C   0  0  0  0  0  0  0  0  0  0  0  0
   20.3939   10.3729   21.3870 C   0  0  0  0  0  0  0  0  0  0  0  0
   20.7933   11.3509   20.4366 O   0  0  0  0  0  0  0  0  0  0  0  0
   21.0405   12.1546   20.9243 H   0  0  0  0  0  0  0  0  0  0  0  0
   22.5575   11.7487   26.4727 O   0  0  0  0  0  0  0  0  0  0  0  0
   23.1965   10.2247   28.7663 C   0  0  0  0  0  0  0  0  0  0  0  0
   24.2419   10.8285   27.8690 C   0  0  0  0  0  0  0  0  0  0  0  0
   25.5934   10.6532   28.1942 C   0  0  0  0  0  0  0  0  0  0  0  0
   26.5762   11.2591   27.4242 C   0  0  0  0  0  0  0  0  0  0  0  0
   27.8659   11.0738   27.7344 F   0  0  0  0  0  0  0  0  0  0  0  0
   26.2442   12.0754   26.3498 C   0  0  0  0  0  0  0  0  0  0  0  0
   24.8993   12.2911   26.0122 C   0  0  0  0  0  0  0  0  0  0  0  0
   24.5869   13.2303   24.8825 C   0  0  0  0  0  0  0  0  0  0  0  0
   23.9021   11.6147   26.7467 C   0  0  0  0  0  0  0  0  0  0  0  0
   18.4069    7.4390   28.2103 C   0  0  0  0  0  0  0  0  0  0  0  0
   17.2825    8.0422   27.6933 C   0  0  0  0  0  0  0  0  0  0  0  0
   16.1851    7.7957   28.4793 N   0  0  0  0  0  0  0  0  0  0  0  0
   16.6183    7.0481   29.4738 C   0  0  0  0  0  0  0  0  0  0  0  0
   17.9660    6.8087   29.3443 N   0  0  0  0  0  0  0  0  0  0  0  0
   18.5265    6.2579   29.9778 H   0  0  0  0  0  0  0  0  0  0  0  0
   15.8199    6.4892   30.6127 C   0  0  0  0  0  0  0  0  0  0  0  0
   16.3229    5.1119   31.0415 C   0  0  0  0  0  0  0  0  0  0  0  0
   15.6568    4.1371   30.0765 C   0  0  0  0  0  0  0  0  0  0  0  0
   14.3448    4.7967   29.6563 C   0  0  0  0  0  0  0  0  0  0  0  0
   14.3642    6.2115   30.2366 C   0  0  0  0  0  0  0  0  0  0  0  0
 22 23  1  0  0  0
 23 24  2  0  0  0
 24 25  1  0  0  0
 25 26  1  0  0  0
 25 27  2  0  0  0
 27 28  1  0  0  0
 28 29  1  0  0  0
 28 30  2  0  0  0
 30 21  1  0  0  0
 21 12  1  0  0  0
 12 13  2  0  0  0
 13 14  1  0  0  0
 14 15  2  0  0  0
 15 18  1  0  0  0
 18 19  1  0  0  0
 15 16  1  0  0  0
 16 17  2  0  0  0
 17  1  1  0  0  0
  1  2  2  0  0  0
  2  3  1  0  0  0
  3  4  1  0  0  0
  3  5  1  0  0  0
  5  6  2  0  0  0
  5  7  1  0  0  0
  7  8  1  0  0  0
  8  9  2  0  0  0
  9 31  1  0  0  0
 31 32  2  0  0  0
 32 33  1  0  0  0
 33 34  2  0  0  0
 34 37  1  0  0  0
 37 38  1  0  0  0
 38 39  1  0  0  0
 39 40  1  0  0  0
 40 41  1  0  0  0
 34 35  1  0  0  0
  9 10  1  0  0  0
 10 11  1  0  0  0
 30 23  1  0  0  0
 17 12  1  0  0  0
 11  1  1  0  0  0
 11  7  2  0  0  0
 35 31  1  0  0  0
 41 37  1  0  0  0
 19 20  1  0  0  0
 35 36  1  0  0  0
M  END
> <minimizedAffinity>
-9.37441

$$$$
