L1:Q15059:57291
     RDKit          3D

 69 74  0  0  0  0  0  0  0  0999 V2000
   -1.3694   -2.3329   -1.3301 C   0  0  0  0  0  0  0  0  0  0  0  0
   -2.7367   -2.0297   -0.7811 C   0  0  0  0  0  0  0  0  0  0  0  0
   -3.3669   -2.9855    0.0265 C   0  0  0  0  0  0  0  0  0  0  0  0
   -4.6567   -2.7622    0.4874 C   0  0  0  0  0  0  0  0  0  0  0  0
   -5.2453   -3.6753    1.2708 F   0  0  0  0  0  0  0  0  0  0  0  0
   -5.3580   -1.6171    0.1299 C   0  0  0  0  0  0  0  0  0  0  0  0
   -4.7645   -0.6514   -0.6974 C   0  0  0  0  0  0  0  0  0  0  0  0
   -5.5826    0.5394   -1.1080 C   0  0  0  0  0  0  0  0  0  0  0  0
   -3.4265   -0.8409   -1.1037 C   0  0  0  0  0  0  0  0  0  0  0  0
   -2.7555    0.0646   -1.8980 O   0  0  0  0  0  0  0  0  0  0  0  0
   -2.6051    1.3643   -1.4555 C   0  0  0  0  0  0  0  0  0  0  0  0
   -2.8484    2.3282   -2.4449 C   0  0  0  0  0  0  0  0  0  0  0  0
   -2.7282    3.6897   -2.1653 C   0  0  0  0  0  0  0  0  0  0  0  0
   -2.3340    4.1120   -0.8937 C   0  0  0  0  0  0  0  0  0  0  0  0
   -2.2164    5.5763   -0.5682 C   0  0  0  0  0  0  0  0  0  0  0  0
   -3.3724    6.0206    0.1285 O   0  0  0  0  0  0  0  0  0  0  0  0
   -2.0703    3.1478    0.0914 C   0  0  0  0  0  0  0  0  0  0  0  0
   -2.1858    1.7692   -0.1757 C   0  0  0  0  0  0  0  0  0  0  0  0
   -1.8095    0.8472    0.9097 C   0  0  0  0  0  0  0  0  0  0  0  0
   -2.6905    0.5805    1.8989 C   0  0  0  0  0  0  0  0  0  0  0  0
   -2.4204   -0.2913    2.9601 N   0  0  0  0  0  0  0  0  0  0  0  0
   -3.4678   -0.5230    3.9413 C   0  0  0  0  0  0  0  0  0  0  0  0
   -1.1921   -0.9681    3.1031 C   0  0  0  0  0  0  0  0  0  0  0  0
   -0.9271   -1.7445    4.0157 O   0  0  0  0  0  0  0  0  0  0  0  0
   -0.2280   -0.6685    2.0626 C   0  0  0  0  0  0  0  0  0  0  0  0
    1.0968   -1.1113    1.8402 C   0  0  0  0  0  0  0  0  0  0  0  0
    1.5335   -0.4931    0.6813 C   0  0  0  0  0  0  0  0  0  0  0  0
    2.7878   -0.6017    0.0143 C   0  0  0  0  0  0  0  0  0  0  0  0
    3.2305   -0.0193   -1.1520 C   0  0  0  0  0  0  0  0  0  0  0  0
    4.5179   -0.4000   -1.4357 N   0  0  0  0  0  0  0  0  0  0  0  0
    4.8747   -1.2092   -0.4592 C   0  0  0  0  0  0  0  0  0  0  0  0
    6.1930   -1.8996   -0.2794 C   0  0  0  0  0  0  0  0  0  0  0  0
    7.2256   -0.9944    0.3900 C   0  0  0  0  0  0  0  0  0  0  0  0
    7.8024   -0.1565   -0.7460 C   0  0  0  0  0  0  0  0  0  0  0  0
    7.6763   -1.0146   -2.0033 C   0  0  0  0  0  0  0  0  0  0  0  0
    6.8654   -2.2493   -1.6073 C   0  0  0  0  0  0  0  0  0  0  0  0
    3.8482   -1.3560    0.4437 N   0  0  0  0  0  0  0  0  0  0  0  0
    0.5266    0.3055    0.2020 O   0  0  0  0  0  0  0  0  0  0  0  0
   -0.5499    0.1985    1.0364 C   0  0  0  0  0  0  0  0  0  0  0  0
   -0.7756   -2.8923   -0.5992 H   0  0  0  0  0  0  0  0  0  0  0  0
   -1.4632   -2.9330   -2.2406 H   0  0  0  0  0  0  0  0  0  0  0  0
   -0.8083   -1.4260   -1.5708 H   0  0  0  0  0  0  0  0  0  0  0  0
   -2.8631   -3.9087    0.2982 H   0  0  0  0  0  0  0  0  0  0  0  0
   -6.3771   -1.4998    0.4875 H   0  0  0  0  0  0  0  0  0  0  0  0
   -5.3381    1.4061   -0.4872 H   0  0  0  0  0  0  0  0  0  0  0  0
   -6.6540    0.3383   -0.9961 H   0  0  0  0  0  0  0  0  0  0  0  0
   -5.4213    0.7779   -2.1637 H   0  0  0  0  0  0  0  0  0  0  0  0
   -3.1430    2.0100   -3.4428 H   0  0  0  0  0  0  0  0  0  0  0  0
   -2.9356    4.4140   -2.9504 H   0  0  0  0  0  0  0  0  0  0  0  0
   -1.3344    5.7674    0.0521 H   0  0  0  0  0  0  0  0  0  0  0  0
   -2.1116    6.1740   -1.4797 H   0  0  0  0  0  0  0  0  0  0  0  0
   -4.0900    5.3915   -0.0564 H   0  0  0  0  0  0  0  0  0  0  0  0
   -1.7474    3.4799    1.0787 H   0  0  0  0  0  0  0  0  0  0  0  0
   -3.6809    1.0298    1.9011 H   0  0  0  0  0  0  0  0  0  0  0  0
   -3.1453   -1.2082    4.7294 H   0  0  0  0  0  0  0  0  0  0  0  0
   -4.3385   -0.9541    3.4370 H   0  0  0  0  0  0  0  0  0  0  0  0
   -3.7455    0.4319    4.3987 H   0  0  0  0  0  0  0  0  0  0  0  0
    1.6511   -1.8018    2.4595 H   0  0  0  0  0  0  0  0  0  0  0  0
    2.6869    0.6546   -1.8019 H   0  0  0  0  0  0  0  0  0  0  0  0
    6.0369   -2.8093    0.3130 H   0  0  0  0  0  0  0  0  0  0  0  0
    6.8121   -0.3698    1.1885 H   0  0  0  0  0  0  0  0  0  0  0  0
    8.0244   -1.6082    0.8250 H   0  0  0  0  0  0  0  0  0  0  0  0
    8.8397    0.1319   -0.5493 H   0  0  0  0  0  0  0  0  0  0  0  0
    7.2243    0.7671   -0.8676 H   0  0  0  0  0  0  0  0  0  0  0  0
    7.1698   -0.4519   -2.7954 H   0  0  0  0  0  0  0  0  0  0  0  0
    8.6593   -1.3048   -2.3895 H   0  0  0  0  0  0  0  0  0  0  0  0
    6.1619   -2.5458   -2.3924 H   0  0  0  0  0  0  0  0  0  0  0  0
    7.5559   -3.0885   -1.4536 H   0  0  0  0  0  0  0  0  0  0  0  0
    3.8798   -1.9207    1.2797 H   0  0  0  0  0  0  0  0  0  0  0  0
  1  2  1  0
  2  3  2  0
  3  4  1  0
  4  5  1  0
  4  6  2  0
  6  7  1  0
  7  8  1  0
  7  9  2  0
  9 10  1  0
 10 11  1  0
 11 12  2  0
 12 13  1  0
 13 14  2  0
 14 15  1  0
 15 16  1  0
 14 17  1  0
 17 18  2  0
 18 19  1  0
 19 20  2  0
 20 21  1  0
 21 22  1  0
 21 23  1  0
 23 24  2  0
 23 25  1  0
 25 26  1  0
 26 27  2  0
 27 28  1  0
 28 29  2  0
 29 30  1  0
 30 31  2  0
 31 32  1  0
 32 33  1  0
 33 34  1  0
 34 35  1  0
 35 36  1  0
 31 37  1  0
 27 38  1  0
 38 39  1  0
  9  2  1  0
 18 11  1  0
 39 19  1  0
 39 25  2  0
 37 28  1  0
 36 32  1  0
  1 40  1  0
  1 41  1  0
  1 42  1  0
  3 43  1  0
  6 44  1  0
  8 45  1  0
  8 46  1  0
  8 47  1  0
 12 48  1  0
 13 49  1  0
 15 50  1  0
 15 51  1  0
 16 52  1  0
 17 53  1  0
 20 54  1  0
 22 55  1  0
 22 56  1  0
 22 57  1  0
 26 58  1  0
 29 59  1  0
 32 60  1  0
 33 61  1  0
 33 62  1  0
 34 63  1  0
 34 64  1  0
 35 65  1  0
 35 66  1  0
 36 67  1  0
 36 68  1  0
 37 69  1  0
M  END
>  <mol_id>  (1) 
57291

>  <source_index>  (1) 
6

>  <layer>  (1) 
L1

>  <uniprot>  (1) 
Q15059

>  <paff>  (1) 
8.0555000000000003

>  <smiles>  (1) 
Cc1cc(F)cc(C)c1Oc1ccc(CO)cc1-c1cn(C)c(=O)c2cc(-c3cnc(C4CCCC4)[nH]3)oc12

$$$$
