L3:P51684:32975
     RDKit          3D

 65 68  0  0  0  0  0  0  0  0999 V2000
   13.7707   -1.0378   -1.2661 C   0  0  1  0  0  0  0  0  0  0  0  0
   13.5674   -0.7806    0.1428 O   0  0  0  0  0  0  0  0  0  0  0  0
   13.3622    0.1644    0.2388 H   0  0  0  0  0  0  0  0  0  0  0  0
    9.7102   -1.9818   -2.7142 C   0  0  0  0  0  0  0  0  0  0  0  0
   10.0810   -2.1989   -1.3834 C   0  0  0  0  0  0  0  0  0  0  0  0
   11.3754   -1.8998   -0.9424 C   0  0  0  0  0  0  0  0  0  0  0  0
   12.3591   -1.3837   -1.8139 C   0  0  0  0  0  0  0  0  0  0  0  0
   11.9603   -1.1443   -3.1408 C   0  0  0  0  0  0  0  0  0  0  0  0
   10.6666   -1.4499   -3.5866 C   0  0  0  0  0  0  0  0  0  0  0  0
    7.6076   -1.1864   -3.8842 C   0  0  0  0  0  0  0  0  0  0  0  0
    8.3115   -2.3469   -3.1762 C   0  0  0  0  0  0  0  0  0  0  0  0
    8.3405   -3.5919   -4.0666 C   0  0  0  0  0  0  0  0  0  0  0  0
   14.3336    0.2433   -1.9323 C   0  0  0  0  0  0  0  0  0  0  0  0
   15.4054    0.1938   -2.8430 C   0  0  0  0  0  0  0  0  0  0  0  0
   15.9137    1.3537   -3.4336 C   0  0  0  0  0  0  0  0  0  0  0  0
   15.3637    2.5963   -3.1262 C   0  0  0  0  0  0  0  0  0  0  0  0
   14.3004    2.6937   -2.2237 C   0  0  0  0  0  0  0  0  0  0  0  0
   13.8014    1.5182   -1.6349 C   0  0  0  0  0  0  0  0  0  0  0  0
   13.7197    3.9956   -1.9097 C   0  0  0  0  0  0  0  0  0  0  0  0
   14.3294    5.1673   -2.1593 N   0  0  0  0  0  0  0  0  0  0  0  0
   13.4352    6.1184   -1.6791 O   0  0  0  0  0  0  0  0  0  0  0  0
   12.3676    5.4345   -1.1793 C   0  0  0  0  0  0  0  0  0  0  0  0
   12.4872    4.1293   -1.3024 N   0  0  0  0  0  0  0  0  0  0  0  0
   11.2390    6.2285   -0.5908 C   0  0  0  0  0  0  0  0  0  0  0  0
   11.4660    7.7381   -0.6876 C   0  0  0  0  0  0  0  0  0  0  0  0
   10.9975    5.8315    0.8683 C   0  0  0  0  0  0  0  0  0  0  0  0
   10.0547    5.9170   -1.3393 O   0  0  0  0  0  0  0  0  0  0  0  0
    9.9677    4.9450   -1.3485 H   0  0  0  0  0  0  0  0  0  0  0  0
   14.7675   -2.2458   -1.3172 C   0  0  0  0  0  0  0  0  0  0  0  0
   14.6926   -3.0364   -2.6455 C   0  0  0  0  0  0  0  0  0  0  0  0
   16.2354   -2.0581   -0.8073 C   0  0  0  0  0  0  0  0  0  0  0  0
   15.8415   -2.6503    0.4848 N   0  0  0  0  0  0  0  0  0  0  0  0
   16.8087   -3.6531    0.9180 C   0  0  0  0  0  0  0  0  0  0  0  0
   14.6720   -3.2875   -0.1492 C   0  0  0  0  0  0  0  0  0  0  0  0
    9.3921   -2.5842   -0.7185 H   0  0  0  0  0  0  0  0  0  0  0  0
   11.6176   -2.0611    0.0477 H   0  0  0  0  0  0  0  0  0  0  0  0
   12.6367   -0.7334   -3.8031 H   0  0  0  0  0  0  0  0  0  0  0  0
   10.4158   -1.2800   -4.5731 H   0  0  0  0  0  0  0  0  0  0  0  0
    6.6293   -1.4950   -4.1885 H   0  0  0  0  0  0  0  0  0  0  0  0
    8.1741   -0.8972   -4.7446 H   0  0  0  0  0  0  0  0  0  0  0  0
    7.5274   -0.3559   -3.2143 H   0  0  0  0  0  0  0  0  0  0  0  0
    7.7408   -2.5670   -2.2982 H   0  0  0  0  0  0  0  0  0  0  0  0
    8.9087   -3.3858   -4.9495 H   0  0  0  0  0  0  0  0  0  0  0  0
    7.3409   -3.8583   -4.3399 H   0  0  0  0  0  0  0  0  0  0  0  0
    8.7922   -4.4018   -3.5327 H   0  0  0  0  0  0  0  0  0  0  0  0
   15.8250   -0.7188   -3.0797 H   0  0  0  0  0  0  0  0  0  0  0  0
   16.6992    1.2897   -4.0998 H   0  0  0  0  0  0  0  0  0  0  0  0
   15.7430    3.4489   -3.5668 H   0  0  0  0  0  0  0  0  0  0  0  0
   13.0208    1.5889   -0.9635 H   0  0  0  0  0  0  0  0  0  0  0  0
   12.3449    8.0026   -0.1376 H   0  0  0  0  0  0  0  0  0  0  0  0
   10.6214    8.2527   -0.2792 H   0  0  0  0  0  0  0  0  0  0  0  0
   11.5905    8.0150   -1.7136 H   0  0  0  0  0  0  0  0  0  0  0  0
   11.8690    6.0548    1.4476 H   0  0  0  0  0  0  0  0  0  0  0  0
   10.7917    4.7829    0.9233 H   0  0  0  0  0  0  0  0  0  0  0  0
   10.1631    6.3794    1.2536 H   0  0  0  0  0  0  0  0  0  0  0  0
   14.7549   -2.3564   -3.4693 H   0  0  0  0  0  0  0  0  0  0  0  0
   13.7657   -3.5689   -2.6918 H   0  0  0  0  0  0  0  0  0  0  0  0
   15.5055   -3.7305   -2.6937 H   0  0  0  0  0  0  0  0  0  0  0  0
   16.5522   -1.0380   -0.7451 H   0  0  0  0  0  0  0  0  0  0  0  0
   17.0624   -2.4512   -1.3609 H   0  0  0  0  0  0  0  0  0  0  0  0
   17.6462   -3.1674    1.3737 H   0  0  0  0  0  0  0  0  0  0  0  0
   17.1408   -4.2173    0.0717 H   0  0  0  0  0  0  0  0  0  0  0  0
   16.3485   -4.3100    1.6263 H   0  0  0  0  0  0  0  0  0  0  0  0
   13.7712   -3.2239    0.4247 H   0  0  0  0  0  0  0  0  0  0  0  0
   14.6612   -4.3384   -0.3504 H   0  0  0  0  0  0  0  0  0  0  0  0
  1  2  1  1
  1 13  1  0
  1 29  1  0
  2  3  1  0
  4  5  2  0
  5  6  1  0
  5 35  1  0
  6  7  2  0
  6 36  1  0
  7  1  1  0
  7  8  1  0
  8  9  2  0
  8 37  1  0
  9  4  1  0
  9 38  1  0
 10 11  1  0
 10 39  1  0
 10 40  1  0
 10 41  1  0
 11 12  1  0
 11  4  1  0
 11 42  1  0
 12 43  1  0
 12 44  1  0
 12 45  1  0
 13 14  2  0
 14 15  1  0
 14 46  1  0
 15 16  2  0
 15 47  1  0
 16 17  1  0
 16 48  1  0
 17 19  1  0
 17 18  2  0
 18 13  1  0
 18 49  1  0
 19 20  2  0
 20 21  1  0
 21 22  1  0
 22 24  1  0
 22 23  2  0
 23 19  1  0
 24 25  1  0
 24 26  1  0
 24 27  1  0
 25 50  1  0
 25 51  1  0
 25 52  1  0
 26 53  1  0
 26 54  1  0
 26 55  1  0
 27 28  1  0
 29 30  1  0
 29 31  1  0
 30 56  1  0
 30 57  1  0
 30 58  1  0
 31 32  1  0
 31 59  1  0
 31 60  1  0
 32 33  1  0
 32 34  1  0
 33 61  1  0
 33 62  1  0
 33 63  1  0
 34 29  1  0
 34 64  1  0
 34 65  1  0
M  END
>  <minimizedAffinity>  (1) 
-9.77271

>  <mol_id>  (1) 
32975

>  <source_index>  (1) 
0

>  <layer>  (1) 
L3

>  <uniprot>  (1) 
P51684

>  <paff>  (1) 
7.3468

>  <smiles>  (1) 
CC(C)c1ccc([C@](O)(c2cccc(-c3noc(C(C)(C)O)n3)c2)C2(C)CN(C)C2)cc1

$$$$
L3:P51684:47306
     RDKit          3D

 64 67  0  0  0  0  0  0  0  0999 V2000
   13.5617   -0.5709   -0.9515 C   0  0  0  0  0  0  0  0  0  0  0  0
   14.6744    0.2311   -0.7943 C   0  0  0  0  0  0  0  0  0  0  0  0
   15.5817   -0.9350   -0.8069 C   0  0  0  0  0  0  0  0  0  0  0  0
   16.7576   -1.2103   -0.7628 O   0  0  0  0  0  0  0  0  0  0  0  0
   14.3902   -1.7997   -0.9155 C   0  0  0  0  0  0  0  0  0  0  0  0
   14.2928   -3.0025   -0.9327 O   0  0  0  0  0  0  0  0  0  0  0  0
   12.2667   -0.3218   -1.0201 N   0  0  0  0  0  0  0  0  0  0  0  0
   11.8938    0.3097   -0.3070 H   0  0  0  0  0  0  0  0  0  0  0  0
   11.3284   -0.2458   -2.1692 C   0  0  1  0  0  0  0  0  0  0  0  0
   13.7713   -0.4524   -4.5426 C   0  0  0  0  0  0  0  0  0  0  0  0
   12.7720    0.6108   -4.2907 C   0  0  0  0  0  0  0  0  0  0  0  0
   12.6503    1.7729   -5.0274 C   0  0  0  0  0  0  0  0  0  0  0  0
   11.6325    2.4798   -4.4727 N   0  0  0  0  0  0  0  0  0  0  0  0
   11.0753    1.8723   -3.4180 N   0  0  0  0  0  0  0  0  0  0  0  0
   11.7363    0.7031   -3.3060 C   0  0  0  0  0  0  0  0  0  0  0  0
   11.1356    3.7657   -4.8961 C   0  0  0  0  0  0  0  0  0  0  0  0
   10.5875   -1.5587   -2.6183 C   0  0  0  0  0  0  0  0  0  0  0  0
    9.6309   -2.1295   -1.5467 C   0  0  0  0  0  0  0  0  0  0  0  0
    8.4075   -1.2185   -1.5705 C   0  0  0  0  0  0  0  0  0  0  0  0
    8.3009   -0.7112   -3.0044 C   0  0  0  0  0  0  0  0  0  0  0  0
    9.5401   -1.2377   -3.7275 C   0  0  0  0  0  0  0  0  0  0  0  0
   11.5309   -2.6296   -3.1827 C   0  0  0  0  0  0  0  0  0  0  0  0
   14.8580    1.5287   -0.6774 N   0  0  0  0  0  0  0  0  0  0  0  0
   15.3450    1.8843    0.1537 H   0  0  0  0  0  0  0  0  0  0  0  0
   14.5855    2.6452   -1.5070 C   0  0  0  0  0  0  0  0  0  0  0  0
   15.3189    3.0049   -2.6294 C   0  0  0  0  0  0  0  0  0  0  0  0
   14.9495    4.1387   -3.3393 C   0  0  0  0  0  0  0  0  0  0  0  0
   13.9050    4.9320   -3.0211 N   0  0  0  0  0  0  0  0  0  0  0  0
   13.1754    4.5807   -1.9334 C   0  0  0  0  0  0  0  0  0  0  0  0
   13.4923    3.4605   -1.1541 C   0  0  0  0  0  0  0  0  0  0  0  0
   12.7966    3.0863   -0.0207 O   0  0  0  0  0  0  0  0  0  0  0  0
   12.1452    3.8021    0.1728 H   0  0  0  0  0  0  0  0  0  0  0  0
   12.0278    5.4668   -1.5201 C   0  0  0  0  0  0  0  0  0  0  0  0
   10.8991    4.9590   -1.5614 O   0  0  0  0  0  0  0  0  0  0  0  0
   12.2143    6.7925   -1.1110 N   0  0  0  0  0  0  0  0  0  0  0  0
   11.0974    7.5070   -0.5149 C   0  0  0  0  0  0  0  0  0  0  0  0
   13.4814    7.5070   -1.1485 C   0  0  0  0  0  0  0  0  0  0  0  0
   10.5184    0.2635   -1.6902 H   0  0  0  0  0  0  0  0  0  0  0  0
   14.3891   -0.1724   -5.3701 H   0  0  0  0  0  0  0  0  0  0  0  0
   13.2676   -1.3692   -4.7677 H   0  0  0  0  0  0  0  0  0  0  0  0
   14.3793   -0.5839   -3.6720 H   0  0  0  0  0  0  0  0  0  0  0  0
   13.2217    2.0498   -5.8409 H   0  0  0  0  0  0  0  0  0  0  0  0
   11.6919    4.1007   -5.7465 H   0  0  0  0  0  0  0  0  0  0  0  0
   11.2446    4.4705   -4.0984 H   0  0  0  0  0  0  0  0  0  0  0  0
   10.1016    3.6800   -5.1575 H   0  0  0  0  0  0  0  0  0  0  0  0
   10.0941   -2.1094   -0.5823 H   0  0  0  0  0  0  0  0  0  0  0  0
    9.3725   -3.1486   -1.7457 H   0  0  0  0  0  0  0  0  0  0  0  0
    8.5382   -0.4001   -0.8937 H   0  0  0  0  0  0  0  0  0  0  0  0
    7.5220   -1.7372   -1.2675 H   0  0  0  0  0  0  0  0  0  0  0  0
    8.2867    0.3586   -3.0207 H   0  0  0  0  0  0  0  0  0  0  0  0
    7.3997   -1.0463   -3.4740 H   0  0  0  0  0  0  0  0  0  0  0  0
    9.9232   -0.4949   -4.3956 H   0  0  0  0  0  0  0  0  0  0  0  0
    9.3119   -2.1051   -4.3110 H   0  0  0  0  0  0  0  0  0  0  0  0
   12.2680   -2.8785   -2.4481 H   0  0  0  0  0  0  0  0  0  0  0  0
   12.0144   -2.2526   -4.0597 H   0  0  0  0  0  0  0  0  0  0  0  0
   10.9680   -3.5043   -3.4338 H   0  0  0  0  0  0  0  0  0  0  0  0
   16.1265    2.4378   -2.9313 H   0  0  0  0  0  0  0  0  0  0  0  0
   15.5116    4.3925   -4.1667 H   0  0  0  0  0  0  0  0  0  0  0  0
   10.2240    6.8895   -0.5414 H   0  0  0  0  0  0  0  0  0  0  0  0
   10.9151    8.4065   -1.0649 H   0  0  0  0  0  0  0  0  0  0  0  0
   11.3311    7.7509    0.5004 H   0  0  0  0  0  0  0  0  0  0  0  0
   14.2260    6.8890   -1.6052 H   0  0  0  0  0  0  0  0  0  0  0  0
   13.7830    7.7509   -0.1513 H   0  0  0  0  0  0  0  0  0  0  0  0
   13.3670    8.4065   -1.7166 H   0  0  0  0  0  0  0  0  0  0  0  0
  1  2  2  0
  2  3  1  0
  2 23  1  0
  3  4  2  0
  3  5  1  0
  5  6  2  0
  5  1  1  0
  7  1  1  0
  7  8  1  0
  9 17  1  0
  9  7  1  0
  9 38  1  1
 10 11  1  0
 10 39  1  0
 10 40  1  0
 10 41  1  0
 11 12  2  0
 12 13  1  0
 12 42  1  0
 13 14  1  0
 13 16  1  0
 14 15  2  0
 15  9  1  0
 15 11  1  0
 16 43  1  0
 16 44  1  0
 16 45  1  0
 17 18  1  0
 17 22  1  0
 18 19  1  0
 18 46  1  0
 18 47  1  0
 19 20  1  0
 19 48  1  0
 19 49  1  0
 20 21  1  0
 20 50  1  0
 20 51  1  0
 21 17  1  0
 21 52  1  0
 21 53  1  0
 22 54  1  0
 22 55  1  0
 22 56  1  0
 23 25  1  0
 23 24  1  0
 25 26  2  0
 26 27  1  0
 26 57  1  0
 27 28  2  0
 27 58  1  0
 28 29  1  0
 29 30  2  0
 29 33  1  0
 30 31  1  0
 30 25  1  0
 31 32  1  0
 33 34  2  0
 33 35  1  0
 35 36  1  0
 35 37  1  0
 36 59  1  0
 36 60  1  0
 36 61  1  0
 37 62  1  0
 37 63  1  0
 37 64  1  0
M  END
>  <minimizedAffinity>  (2) 
-8.10608

>  <mol_id>  (2) 
47306

>  <source_index>  (2) 
1

>  <layer>  (2) 
L3

>  <uniprot>  (2) 
P51684

>  <paff>  (2) 
8.5085999999999995

>  <smiles>  (2) 
Cc1cn(nc1[C@@H](C2(CCCC2)C)NC3=C(C(=O)C3=O)Nc4ccnc(c4O)C(=O)N(C)C)C

$$$$
L3:P51684:76144
     RDKit          3D

 54 56  0  0  0  0  0  0  0  0999 V2000
   12.4617   -1.9255   -2.0140 C   0  0  0  0  0  0  0  0  0  0  0  0
   12.9615   -0.7402   -1.5335 C   0  0  0  0  0  0  0  0  0  0  0  0
   14.3652   -1.1828   -1.7399 C   0  0  0  0  0  0  0  0  0  0  0  0
   15.4918   -0.7490   -1.6926 O   0  0  0  0  0  0  0  0  0  0  0  0
   13.8280   -2.4918   -2.1747 C   0  0  0  0  0  0  0  0  0  0  0  0
   14.3531   -3.5245   -2.5140 O   0  0  0  0  0  0  0  0  0  0  0  0
   11.2714   -2.4504   -2.2427 N   0  0  0  0  0  0  0  0  0  0  0  0
   11.1746   -3.4612   -2.3096 H   0  0  0  0  0  0  0  0  0  0  0  0
    8.5979   -2.3740   -0.8543 C   0  0  0  0  0  0  0  0  0  0  0  0
    9.1222   -1.2756   -1.7854 C   0  0  2  0  0  0  0  0  0  0  0  0
    7.9554   -0.5323   -2.4576 C   0  0  0  0  0  0  0  0  0  0  0  0
    7.3421   -1.3102   -3.6193 C   0  0  0  0  0  0  0  0  0  0  0  0
    8.3910   -1.6770   -4.6658 C   0  0  0  0  0  0  0  0  0  0  0  0
    9.5817   -2.4550   -4.0819 C   0  0  2  0  0  0  0  0  0  0  0  0
    9.2180   -3.9265   -3.8583 C   0  0  0  0  0  0  0  0  0  0  0  0
   10.1591   -1.7108   -2.8529 C   0  0  2  0  0  0  0  0  0  0  0  0
   12.4788    0.4101   -1.1137 N   0  0  0  0  0  0  0  0  0  0  0  0
   12.4013    0.5901   -0.1155 H   0  0  0  0  0  0  0  0  0  0  0  0
   12.2670    1.5920   -1.8689 C   0  0  0  0  0  0  0  0  0  0  0  0
   11.7248    1.4556   -3.1510 C   0  0  0  0  0  0  0  0  0  0  0  0
   11.5675    2.5812   -3.9415 C   0  0  0  0  0  0  0  0  0  0  0  0
   11.8899    3.8281   -3.5462 N   0  0  0  0  0  0  0  0  0  0  0  0
   12.3949    3.9680   -2.2904 C   0  0  0  0  0  0  0  0  0  0  0  0
   12.6135    2.8805   -1.4306 C   0  0  0  0  0  0  0  0  0  0  0  0
   13.0965    3.0343   -0.1508 O   0  0  0  0  0  0  0  0  0  0  0  0
   13.4842    3.9384   -0.0853 H   0  0  0  0  0  0  0  0  0  0  0  0
   12.7612    5.3568   -1.8349 C   0  0  0  0  0  0  0  0  0  0  0  0
   13.9318    5.7116   -2.0190 O   0  0  0  0  0  0  0  0  0  0  0  0
   11.8302    6.2042   -1.2231 N   0  0  0  0  0  0  0  0  0  0  0  0
   10.5070    5.8021   -0.7720 C   0  0  0  0  0  0  0  0  0  0  0  0
   12.1721    7.6039   -1.0364 C   0  0  0  0  0  0  0  0  0  0  0  0
    7.8941   -1.9530   -0.1670 H   0  0  0  0  0  0  0  0  0  0  0  0
    9.4149   -2.8013   -0.3113 H   0  0  0  0  0  0  0  0  0  0  0  0
    8.1186   -3.1346   -1.4345 H   0  0  0  0  0  0  0  0  0  0  0  0
    9.6672   -0.6269   -1.1320 H   0  0  0  0  0  0  0  0  0  0  0  0
    8.3161    0.4047   -2.8275 H   0  0  0  0  0  0  0  0  0  0  0  0
    7.1910   -0.4034   -1.7201 H   0  0  0  0  0  0  0  0  0  0  0  0
    6.5873   -0.7080   -4.0804 H   0  0  0  0  0  0  0  0  0  0  0  0
    6.9246   -2.2161   -3.2321 H   0  0  0  0  0  0  0  0  0  0  0  0
    8.7585   -0.7754   -5.1097 H   0  0  0  0  0  0  0  0  0  0  0  0
    7.9161   -2.3132   -5.3832 H   0  0  0  0  0  0  0  0  0  0  0  0
   10.3861   -2.4880   -4.7868 H   0  0  0  0  0  0  0  0  0  0  0  0
    8.4117   -3.9922   -3.1580 H   0  0  0  0  0  0  0  0  0  0  0  0
   10.0683   -4.4495   -3.4732 H   0  0  0  0  0  0  0  0  0  0  0  0
    8.9200   -4.3654   -4.7875 H   0  0  0  0  0  0  0  0  0  0  0  0
   10.5300   -0.7925   -3.2579 H   0  0  0  0  0  0  0  0  0  0  0  0
   11.4453    0.5268   -3.5035 H   0  0  0  0  0  0  0  0  0  0  0  0
   11.1802    2.4578   -4.8901 H   0  0  0  0  0  0  0  0  0  0  0  0
   10.3684    4.7578   -0.9593 H   0  0  0  0  0  0  0  0  0  0  0  0
    9.7643    6.3611   -1.3019 H   0  0  0  0  0  0  0  0  0  0  0  0
   10.4149    5.9916    0.2771 H   0  0  0  0  0  0  0  0  0  0  0  0
   13.1617    7.7812   -1.4026 H   0  0  0  0  0  0  0  0  0  0  0  0
   12.1285    7.8459    0.0050 H   0  0  0  0  0  0  0  0  0  0  0  0
   11.4779    8.2154   -1.5740 H   0  0  0  0  0  0  0  0  0  0  0  0
  1  2  2  0
  2 17  1  0
  2  3  1  0
  3  4  2  0
  3  5  1  0
  5  6  2  0
  5  1  1  0
  7  1  1  0
  7  8  1  0
  9 10  1  0
  9 32  1  0
  9 33  1  0
  9 34  1  0
 10 11  1  0
 10 35  1  1
 11 12  1  0
 11 36  1  0
 11 37  1  0
 12 13  1  0
 12 38  1  0
 12 39  1  0
 13 14  1  0
 13 40  1  0
 13 41  1  0
 14 15  1  0
 14 16  1  0
 14 42  1  6
 15 43  1  0
 15 44  1  0
 15 45  1  0
 16  7  1  0
 16 10  1  0
 16 46  1  6
 17 19  1  0
 17 18  1  0
 19 20  2  0
 20 21  1  0
 20 47  1  0
 21 22  2  0
 21 48  1  0
 22 23  1  0
 23 27  1  0
 23 24  2  0
 24 25  1  0
 24 19  1  0
 25 26  1  0
 27 28  2  0
 27 29  1  0
 29 30  1  0
 29 31  1  0
 30 49  1  0
 30 50  1  0
 30 51  1  0
 31 52  1  0
 31 53  1  0
 31 54  1  0
M  END
>  <minimizedAffinity>  (3) 
-7.91310

>  <mol_id>  (3) 
76144

>  <source_index>  (3) 
2

>  <layer>  (3) 
L3

>  <uniprot>  (3) 
P51684

>  <paff>  (3) 
7.0968999999999998

>  <smiles>  (3) 
C[C@@H]1CCC[C@H](C)[C@@H]1Nc1c(Nc2ccnc(C(=O)N(C)C)c2O)c(=O)c1=O

$$$$
L3:P51684:84621
     RDKit          3D

 51 53  0  0  0  0  0  0  0  0999 V2000
   13.6168    5.0685   -2.6434 C   0  0  0  0  0  0  0  0  0  0  0  0
   14.2232    3.8340   -2.6746 C   0  0  0  0  0  0  0  0  0  0  0  0
   14.1348    3.7701   -4.1534 C   0  0  0  0  0  0  0  0  0  0  0  0
   14.4655    3.0353   -5.0509 O   0  0  0  0  0  0  0  0  0  0  0  0
   13.4157    5.0623   -4.1177 C   0  0  0  0  0  0  0  0  0  0  0  0
   12.9336    5.7555   -4.9797 O   0  0  0  0  0  0  0  0  0  0  0  0
   13.3103    5.9823   -1.7389 N   0  0  0  0  0  0  0  0  0  0  0  0
   14.0468    6.6136   -1.4237 H   0  0  0  0  0  0  0  0  0  0  0  0
   11.7838    5.3640    0.7413 C   0  0  0  0  0  0  0  0  0  0  0  0
   11.1234    5.6458   -0.6158 C   0  0  1  0  0  0  0  0  0  0  0  0
    9.7323    6.2757   -0.4184 C   0  0  0  0  0  0  0  0  0  0  0  0
    9.8012    7.7240    0.0642 C   0  0  0  0  0  0  0  0  0  0  0  0
   10.6638    8.5867   -0.8521 C   0  0  0  0  0  0  0  0  0  0  0  0
   12.0509    7.9876   -1.0702 C   0  0  0  0  0  0  0  0  0  0  0  0
   11.9636    6.5373   -1.5636 C   0  0  1  0  0  0  0  0  0  0  0  0
   14.7723    2.9389   -1.8836 N   0  0  0  0  0  0  0  0  0  0  0  0
   15.7898    2.9301   -1.7394 H   0  0  0  0  0  0  0  0  0  0  0  0
   14.1991    1.8790   -1.1392 C   0  0  0  0  0  0  0  0  0  0  0  0
   12.9735    1.9724   -0.4842 C   0  0  0  0  0  0  0  0  0  0  0  0
   12.5260    0.8930    0.2617 C   0  0  0  0  0  0  0  0  0  0  0  0
   13.2033   -0.2661    0.3992 N   0  0  0  0  0  0  0  0  0  0  0  0
   14.3875   -0.3679   -0.2598 C   0  0  0  0  0  0  0  0  0  0  0  0
   14.9215    0.6813   -1.0168 C   0  0  0  0  0  0  0  0  0  0  0  0
   16.1351    0.6207   -1.6669 O   0  0  0  0  0  0  0  0  0  0  0  0
   16.5965   -0.1944   -1.3572 H   0  0  0  0  0  0  0  0  0  0  0  0
   15.1729   -1.6413   -0.1103 C   0  0  0  0  0  0  0  0  0  0  0  0
   16.0511   -1.6498    0.7608 O   0  0  0  0  0  0  0  0  0  0  0  0
   14.9288   -2.7560   -0.9187 N   0  0  0  0  0  0  0  0  0  0  0  0
   14.0843   -2.7543   -2.1036 C   0  0  0  0  0  0  0  0  0  0  0  0
   15.5449   -4.0253   -0.5725 C   0  0  0  0  0  0  0  0  0  0  0  0
   11.1394    4.7449    1.3298 H   0  0  0  0  0  0  0  0  0  0  0  0
   11.9558    6.2879    1.2530 H   0  0  0  0  0  0  0  0  0  0  0  0
   12.7165    4.8628    0.5869 H   0  0  0  0  0  0  0  0  0  0  0  0
   11.0410    4.6914   -1.0925 H   0  0  0  0  0  0  0  0  0  0  0  0
    9.1956    5.6992    0.3058 H   0  0  0  0  0  0  0  0  0  0  0  0
    9.2409    6.2758   -1.3689 H   0  0  0  0  0  0  0  0  0  0  0  0
   10.2182    7.7412    1.0495 H   0  0  0  0  0  0  0  0  0  0  0  0
    8.8086    8.1235    0.0594 H   0  0  0  0  0  0  0  0  0  0  0  0
   10.7723    9.5557   -0.4115 H   0  0  0  0  0  0  0  0  0  0  0  0
   10.1773    8.6439   -1.8034 H   0  0  0  0  0  0  0  0  0  0  0  0
   12.5885    8.0088   -0.1453 H   0  0  0  0  0  0  0  0  0  0  0  0
   12.5543    8.5670   -1.8157 H   0  0  0  0  0  0  0  0  0  0  0  0
   11.4617    6.5474   -2.5085 H   0  0  0  0  0  0  0  0  0  0  0  0
   12.4070    2.8323   -0.5531 H   0  0  0  0  0  0  0  0  0  0  0  0
   11.6171    0.9815    0.7424 H   0  0  0  0  0  0  0  0  0  0  0  0
   13.6884   -1.7723   -2.2580 H   0  0  0  0  0  0  0  0  0  0  0  0
   13.2793   -3.4462   -1.9689 H   0  0  0  0  0  0  0  0  0  0  0  0
   14.6641   -3.0431   -2.9552 H   0  0  0  0  0  0  0  0  0  0  0  0
   16.1383   -3.9049    0.3097 H   0  0  0  0  0  0  0  0  0  0  0  0
   16.1675   -4.3514   -1.3793 H   0  0  0  0  0  0  0  0  0  0  0  0
   14.7827   -4.7545   -0.3929 H   0  0  0  0  0  0  0  0  0  0  0  0
  1  2  2  0
  2 16  1  0
  2  3  1  0
  3  4  2  0
  3  5  1  0
  5  6  2  0
  5  1  1  0
  7  1  1  0
  7  8  1  0
  9 10  1  0
  9 31  1  0
  9 32  1  0
  9 33  1  0
 10 11  1  0
 10 34  1  6
 11 12  1  0
 11 35  1  0
 11 36  1  0
 12 13  1  0
 12 37  1  0
 12 38  1  0
 13 14  1  0
 13 39  1  0
 13 40  1  0
 14 15  1  0
 14 41  1  0
 14 42  1  0
 15  7  1  0
 15 10  1  0
 15 43  1  6
 16 18  1  0
 16 17  1  0
 18 19  2  0
 19 20  1  0
 19 44  1  0
 20 21  2  0
 20 45  1  0
 21 22  1  0
 22 26  1  0
 22 23  2  0
 23 24  1  0
 23 18  1  0
 24 25  1  0
 26 27  2  0
 26 28  1  0
 28 29  1  0
 28 30  1  0
 29 46  1  0
 29 47  1  0
 29 48  1  0
 30 49  1  0
 30 50  1  0
 30 51  1  0
M  END
>  <minimizedAffinity>  (4) 
-8.19998

>  <mol_id>  (4) 
84621

>  <source_index>  (4) 
3

>  <layer>  (4) 
L3

>  <uniprot>  (4) 
P51684

>  <paff>  (4) 
8.0604999999999993

>  <smiles>  (4) 
C[C@H]1CCCC[C@H]1Nc1c(Nc2ccnc(C(=O)N(C)C)c2O)c(=O)c1=O

$$$$
L3:P51684:87993
     RDKit          3D

 48 50  0  0  0  0  0  0  0  0999 V2000
   14.0131    3.3897   -2.6634 N   0  0  0  0  0  0  0  0  0  0  0  0
   13.8477    2.7832   -3.4752 H   0  0  0  0  0  0  0  0  0  0  0  0
   14.6139    0.5659   -0.3455 C   0  0  0  0  0  0  0  0  0  0  0  0
   13.8329    0.8479    0.7281 N   0  0  0  0  0  0  0  0  0  0  0  0
   13.1078    1.9849    0.6696 C   0  0  0  0  0  0  0  0  0  0  0  0
   13.1152    2.8635   -0.4048 C   0  0  0  0  0  0  0  0  0  0  0  0
   13.9248    2.5845   -1.5006 C   0  0  0  0  0  0  0  0  0  0  0  0
   14.7050    1.4151   -1.4545 C   0  0  0  0  0  0  0  0  0  0  0  0
   15.5353    1.1854   -2.5324 O   0  0  0  0  0  0  0  0  0  0  0  0
   16.1133    0.4204   -2.2991 H   0  0  0  0  0  0  0  0  0  0  0  0
   13.5749   -2.1690   -1.1316 C   0  0  0  0  0  0  0  0  0  0  0  0
   14.9020   -1.9424   -0.5778 N   0  0  0  0  0  0  0  0  0  0  0  0
   15.6916   -3.1300   -0.2993 C   0  0  0  0  0  0  0  0  0  0  0  0
   15.4484   -0.6845   -0.3048 C   0  0  0  0  0  0  0  0  0  0  0  0
   16.6464   -0.5409   -0.0302 O   0  0  0  0  0  0  0  0  0  0  0  0
   14.1659    4.6817   -2.8553 C   0  0  0  0  0  0  0  0  0  0  0  0
   13.3675    5.7889   -2.6800 C   0  0  0  0  0  0  0  0  0  0  0  0
   14.4381    6.7037   -3.1463 C   0  0  0  0  0  0  0  0  0  0  0  0
   14.6151    7.8805   -3.3470 O   0  0  0  0  0  0  0  0  0  0  0  0
   15.3072    5.5169   -3.3011 C   0  0  0  0  0  0  0  0  0  0  0  0
   16.4596    5.4148   -3.6485 O   0  0  0  0  0  0  0  0  0  0  0  0
   12.1359    6.0352   -2.2765 N   0  0  0  0  0  0  0  0  0  0  0  0
   11.3872    6.1731   -2.9548 H   0  0  0  0  0  0  0  0  0  0  0  0
   11.7867    6.4512   -0.9126 C   0  0  0  0  0  0  0  0  0  0  0  0
   10.3826    5.9132   -0.5755 C   0  0  0  0  0  0  0  0  0  0  0  0
    9.6851    6.7794    0.4654 C   0  0  0  0  0  0  0  0  0  0  0  0
    9.4791    8.2094   -0.0364 C   0  0  0  0  0  0  0  0  0  0  0  0
   10.5441    8.6646   -1.0363 C   0  0  0  0  0  0  0  0  0  0  0  0
   11.8847    7.9830   -0.7853 C   0  0  0  0  0  0  0  0  0  0  0  0
   12.5083    2.2162    1.4771 H   0  0  0  0  0  0  0  0  0  0  0  0
   12.5281    3.7121   -0.3907 H   0  0  0  0  0  0  0  0  0  0  0  0
   13.4086   -3.2204   -1.2405 H   0  0  0  0  0  0  0  0  0  0  0  0
   13.5020   -1.6954   -2.0883 H   0  0  0  0  0  0  0  0  0  0  0  0
   12.8386   -1.7578   -0.4730 H   0  0  0  0  0  0  0  0  0  0  0  0
   15.1301   -4.0017   -0.5636 H   0  0  0  0  0  0  0  0  0  0  0  0
   15.9313   -3.1626    0.7430 H   0  0  0  0  0  0  0  0  0  0  0  0
   16.5948   -3.1002   -0.8722 H   0  0  0  0  0  0  0  0  0  0  0  0
   12.4756    6.0421   -0.2034 H   0  0  0  0  0  0  0  0  0  0  0  0
   10.4746    4.9179   -0.1937 H   0  0  0  0  0  0  0  0  0  0  0  0
    9.7954    5.9267   -1.4699 H   0  0  0  0  0  0  0  0  0  0  0  0
   10.2833    6.8057    1.3521 H   0  0  0  0  0  0  0  0  0  0  0  0
    8.7239    6.3536    0.6644 H   0  0  0  0  0  0  0  0  0  0  0  0
    9.5002    8.8700    0.8051 H   0  0  0  0  0  0  0  0  0  0  0  0
    8.5386    8.2317   -0.5463 H   0  0  0  0  0  0  0  0  0  0  0  0
   10.6720    9.7233   -0.9481 H   0  0  0  0  0  0  0  0  0  0  0  0
   10.2140    8.3975   -2.0184 H   0  0  0  0  0  0  0  0  0  0  0  0
   12.2166    8.2269    0.2023 H   0  0  0  0  0  0  0  0  0  0  0  0
   12.5760    8.3322   -1.5236 H   0  0  0  0  0  0  0  0  0  0  0  0
  1 16  1  0
  1  2  1  0
  3  4  2  0
  4  5  1  0
  5  6  2  0
  5 30  1  0
  6  7  1  0
  6 31  1  0
  7  1  1  0
  7  8  2  0
  8  9  1  0
  8  3  1  0
  9 10  1  0
 11 12  1  0
 11 32  1  0
 11 33  1  0
 11 34  1  0
 12 13  1  0
 12 14  1  0
 13 35  1  0
 13 36  1  0
 13 37  1  0
 14 15  2  0
 14  3  1  0
 16 17  2  0
 17 22  1  0
 17 18  1  0
 18 19  2  0
 18 20  1  0
 20 21  2  0
 20 16  1  0
 22 24  1  0
 22 23  1  0
 24 25  1  0
 24 38  1  0
 25 26  1  0
 25 39  1  0
 25 40  1  0
 26 27  1  0
 26 41  1  0
 26 42  1  0
 27 28  1  0
 27 43  1  0
 27 44  1  0
 28 29  1  0
 28 45  1  0
 28 46  1  0
 29 24  1  0
 29 47  1  0
 29 48  1  0
M  END
>  <minimizedAffinity>  (5) 
-8.16752

>  <mol_id>  (5) 
87993

>  <source_index>  (5) 
4

>  <layer>  (5) 
L3

>  <uniprot>  (5) 
P51684

>  <paff>  (5) 
6.3010000000000002

>  <smiles>  (5) 
CN(C)C(=O)c1nccc(Nc2c(NC3CCCCC3)c(=O)c2=O)c1O

$$$$
L3:P51684:107869
     RDKit          3D

 52 54  0  0  0  0  0  0  0  0999 V2000
   12.3063   -0.4166   -1.4488 C   0  0  0  0  0  0  0  0  0  0  0  0
   13.6069    0.0263   -1.5129 C   0  0  0  0  0  0  0  0  0  0  0  0
   13.9894   -0.7331   -0.2963 C   0  0  0  0  0  0  0  0  0  0  0  0
   14.9184   -0.8593    0.4654 O   0  0  0  0  0  0  0  0  0  0  0  0
   12.6154   -1.2792   -0.2763 C   0  0  0  0  0  0  0  0  0  0  0  0
   12.0706   -2.0696    0.4546 O   0  0  0  0  0  0  0  0  0  0  0  0
   11.2030   -0.2013   -2.1471 N   0  0  0  0  0  0  0  0  0  0  0  0
   10.9887    0.7594   -2.4133 H   0  0  0  0  0  0  0  0  0  0  0  0
    8.6537   -1.2593   -1.0116 C   0  0  0  0  0  0  0  0  0  0  0  0
    9.4400   -2.0453   -2.0665 C   0  0  1  0  0  0  0  0  0  0  0  0
    8.5343   -2.8075   -2.8892 O   0  0  0  0  0  0  0  0  0  0  0  0
    7.7132   -2.0308   -3.7539 C   0  0  0  0  0  0  0  0  0  0  0  0
    8.5540   -1.2035   -4.7096 C   0  0  0  0  0  0  0  0  0  0  0  0
    9.5777   -0.3626   -3.9549 C   0  0  0  0  0  0  0  0  0  0  0  0
   10.4162   -1.1854   -2.9335 C   0  0  1  0  0  0  0  0  0  0  0  0
   11.3839   -2.0950   -3.7213 C   0  0  0  0  0  0  0  0  0  0  0  0
   14.3060    0.8552   -2.2593 N   0  0  0  0  0  0  0  0  0  0  0  0
   15.3144    0.7435   -2.3327 H   0  0  0  0  0  0  0  0  0  0  0  0
   13.8775    2.0744   -2.8448 C   0  0  0  0  0  0  0  0  0  0  0  0
   13.4507    2.0412   -4.1763 C   0  0  0  0  0  0  0  0  0  0  0  0
   12.9600    3.1975   -4.7589 C   0  0  0  0  0  0  0  0  0  0  0  0
   12.8771    4.3821   -4.1233 N   0  0  0  0  0  0  0  0  0  0  0  0
   13.3096    4.4225   -2.8334 C   0  0  0  0  0  0  0  0  0  0  0  0
   13.7991    3.2955   -2.1557 C   0  0  0  0  0  0  0  0  0  0  0  0
   14.2619    3.3555   -0.8608 O   0  0  0  0  0  0  0  0  0  0  0  0
   13.9282    4.1943   -0.4641 H   0  0  0  0  0  0  0  0  0  0  0  0
   13.2152    5.7384   -2.1074 C   0  0  0  0  0  0  0  0  0  0  0  0
   14.1657    6.5181   -2.2422 O   0  0  0  0  0  0  0  0  0  0  0  0
   12.1021    6.0701   -1.3267 N   0  0  0  0  0  0  0  0  0  0  0  0
   10.8454    5.3373   -1.3150 C   0  0  0  0  0  0  0  0  0  0  0  0
   12.1765    7.2296   -0.4546 C   0  0  0  0  0  0  0  0  0  0  0  0
    8.0161   -1.9272   -0.4710 H   0  0  0  0  0  0  0  0  0  0  0  0
    8.0597   -0.5111   -1.4936 H   0  0  0  0  0  0  0  0  0  0  0  0
    9.3363   -0.7908   -0.3337 H   0  0  0  0  0  0  0  0  0  0  0  0
   10.0815   -2.7082   -1.5242 H   0  0  0  0  0  0  0  0  0  0  0  0
    7.1072   -1.3750   -3.1643 H   0  0  0  0  0  0  0  0  0  0  0  0
    7.1009   -2.6947   -4.3278 H   0  0  0  0  0  0  0  0  0  0  0  0
    7.9118   -0.5544   -5.2674 H   0  0  0  0  0  0  0  0  0  0  0  0
    9.0775   -1.8688   -5.3640 H   0  0  0  0  0  0  0  0  0  0  0  0
    9.0594    0.4093   -3.4254 H   0  0  0  0  0  0  0  0  0  0  0  0
   10.2589    0.0332   -4.6789 H   0  0  0  0  0  0  0  0  0  0  0  0
   12.0435   -1.4905   -4.3081 H   0  0  0  0  0  0  0  0  0  0  0  0
   10.8229   -2.7394   -4.3654 H   0  0  0  0  0  0  0  0  0  0  0  0
   11.9558   -2.6854   -3.0363 H   0  0  0  0  0  0  0  0  0  0  0  0
   13.5010    1.1646   -4.7186 H   0  0  0  0  0  0  0  0  0  0  0  0
   12.6387    3.1488   -5.7384 H   0  0  0  0  0  0  0  0  0  0  0  0
   10.9084    4.5103   -1.9910 H   0  0  0  0  0  0  0  0  0  0  0  0
   10.0511    5.9866   -1.6189 H   0  0  0  0  0  0  0  0  0  0  0  0
   10.6524    4.9760   -0.3265 H   0  0  0  0  0  0  0  0  0  0  0  0
   13.1405    7.6845   -0.5475 H   0  0  0  0  0  0  0  0  0  0  0  0
   12.0225    6.9239    0.5592 H   0  0  0  0  0  0  0  0  0  0  0  0
   11.4212    7.9345   -0.7332 H   0  0  0  0  0  0  0  0  0  0  0  0
  1  2  2  0
  2 17  1  0
  2  3  1  0
  3  4  2  0
  3  5  1  0
  5  6  2  0
  5  1  1  0
  7  1  1  0
  7  8  1  0
  9 10  1  0
  9 32  1  0
  9 33  1  0
  9 34  1  0
 10 11  1  0
 10 35  1  1
 11 12  1  0
 12 13  1  0
 12 36  1  0
 12 37  1  0
 13 14  1  0
 13 38  1  0
 13 39  1  0
 14 15  1  0
 14 40  1  0
 14 41  1  0
 15 16  1  0
 15  7  1  1
 15 10  1  0
 16 42  1  0
 16 43  1  0
 16 44  1  0
 17 19  1  0
 17 18  1  0
 19 20  2  0
 20 21  1  0
 20 45  1  0
 21 22  2  0
 21 46  1  0
 22 23  1  0
 23 27  1  0
 23 24  2  0
 24 25  1  0
 24 19  1  0
 25 26  1  0
 27 28  2  0
 27 29  1  0
 29 30  1  0
 29 31  1  0
 30 47  1  0
 30 48  1  0
 30 49  1  0
 31 50  1  0
 31 51  1  0
 31 52  1  0
M  END
>  <minimizedAffinity>  (6) 
-7.67999

>  <mol_id>  (6) 
107869

>  <source_index>  (6) 
5

>  <layer>  (6) 
L3

>  <uniprot>  (6) 
P51684

>  <paff>  (6) 
6.8539000000000003

>  <smiles>  (6) 
C[C@H]1OCCC[C@@]1(C)Nc1c(Nc2ccnc(C(=O)N(C)C)c2O)c(=O)c1=O

$$$$
L3:P51684:108629
     RDKit          3D

 57 59  0  0  0  0  0  0  0  0999 V2000
   14.5384    3.6795   -2.8430 C   0  0  0  0  0  0  0  0  0  0  0  0
   13.9706    3.4622   -4.0779 C   0  0  0  0  0  0  0  0  0  0  0  0
   14.5779    4.6942   -4.6327 C   0  0  0  0  0  0  0  0  0  0  0  0
   14.6531    5.2680   -5.6909 O   0  0  0  0  0  0  0  0  0  0  0  0
   15.0865    4.9948   -3.2771 C   0  0  0  0  0  0  0  0  0  0  0  0
   15.6710    5.9519   -2.8327 O   0  0  0  0  0  0  0  0  0  0  0  0
   14.6172    3.0280   -1.6936 N   0  0  0  0  0  0  0  0  0  0  0  0
   15.5300    2.9682   -1.2443 H   0  0  0  0  0  0  0  0  0  0  0  0
   13.5337    2.9254   -0.6926 C   0  0  1  0  0  0  0  0  0  0  0  0
   12.5517    4.0621   -0.7330 C   0  0  0  0  0  0  0  0  0  0  0  0
   12.3242    5.1213    0.1244 C   0  0  0  0  0  0  0  0  0  0  0  0
   11.2750    5.8993   -0.4426 C   0  0  0  0  0  0  0  0  0  0  0  0
   10.9361    5.2480   -1.6116 C   0  0  0  0  0  0  0  0  0  0  0  0
   11.6961    4.1409   -1.7902 O   0  0  0  0  0  0  0  0  0  0  0  0
   10.6808    7.1578    0.1187 C   0  0  0  0  0  0  0  0  0  0  0  0
    9.2680    6.9245    0.6564 C   0  0  0  0  0  0  0  0  0  0  0  0
   10.6860    8.2949   -0.9048 C   0  0  0  0  0  0  0  0  0  0  0  0
   13.9602    0.4096   -0.8325 C   0  0  0  0  0  0  0  0  0  0  0  0
   12.9145    1.5152   -0.7250 C   0  0  0  0  0  0  0  0  0  0  0  0
   13.2424    2.5848   -4.7323 N   0  0  0  0  0  0  0  0  0  0  0  0
   12.8088    2.8395   -5.6289 H   0  0  0  0  0  0  0  0  0  0  0  0
   12.8661    1.2592   -4.4060 C   0  0  0  0  0  0  0  0  0  0  0  0
   13.6780    0.1514   -4.6343 C   0  0  0  0  0  0  0  0  0  0  0  0
   13.1956   -1.1106   -4.3223 C   0  0  0  0  0  0  0  0  0  0  0  0
   11.9726   -1.3472   -3.8037 N   0  0  0  0  0  0  0  0  0  0  0  0
   11.1873   -0.2656   -3.5595 C   0  0  0  0  0  0  0  0  0  0  0  0
   11.5899    1.0403   -3.8618 C   0  0  0  0  0  0  0  0  0  0  0  0
   10.8055    2.1540   -3.6561 O   0  0  0  0  0  0  0  0  0  0  0  0
    9.8985    1.8405   -3.4283 H   0  0  0  0  0  0  0  0  0  0  0  0
    9.8115   -0.5014   -2.9988 C   0  0  0  0  0  0  0  0  0  0  0  0
    8.8597   -0.1305   -3.6971 O   0  0  0  0  0  0  0  0  0  0  0  0
    9.6170   -1.1034   -1.7513 N   0  0  0  0  0  0  0  0  0  0  0  0
   10.6698   -1.3684   -0.7831 C   0  0  0  0  0  0  0  0  0  0  0  0
    8.2771   -1.5174   -1.3708 C   0  0  0  0  0  0  0  0  0  0  0  0
   13.9661    3.0454    0.2787 H   0  0  0  0  0  0  0  0  0  0  0  0
   12.8208    5.3125    1.0086 H   0  0  0  0  0  0  0  0  0  0  0  0
   10.2007    5.5630   -2.2635 H   0  0  0  0  0  0  0  0  0  0  0  0
   11.3024    7.4517    0.9385 H   0  0  0  0  0  0  0  0  0  0  0  0
    8.6252    6.6287   -0.1463 H   0  0  0  0  0  0  0  0  0  0  0  0
    8.8992    7.8285    1.0941 H   0  0  0  0  0  0  0  0  0  0  0  0
    9.2913    6.1530    1.3975 H   0  0  0  0  0  0  0  0  0  0  0  0
   10.0704    8.0275   -1.7381 H   0  0  0  0  0  0  0  0  0  0  0  0
   11.6869    8.4671   -1.2415 H   0  0  0  0  0  0  0  0  0  0  0  0
   10.3043    9.1853   -0.4506 H   0  0  0  0  0  0  0  0  0  0  0  0
   13.4721   -0.5424   -0.8506 H   0  0  0  0  0  0  0  0  0  0  0  0
   14.6177    0.4574    0.0103 H   0  0  0  0  0  0  0  0  0  0  0  0
   14.5242    0.5384   -1.7326 H   0  0  0  0  0  0  0  0  0  0  0  0
   12.3534    1.3680    0.1741 H   0  0  0  0  0  0  0  0  0  0  0  0
   12.2949    1.4567   -1.5954 H   0  0  0  0  0  0  0  0  0  0  0  0
   14.6242    0.2677   -5.0296 H   0  0  0  0  0  0  0  0  0  0  0  0
   13.8110   -1.9202   -4.4979 H   0  0  0  0  0  0  0  0  0  0  0  0
   11.6055   -1.0228   -1.1701 H   0  0  0  0  0  0  0  0  0  0  0  0
   10.7273   -2.4207   -0.5978 H   0  0  0  0  0  0  0  0  0  0  0  0
   10.4510   -0.8567    0.1308 H   0  0  0  0  0  0  0  0  0  0  0  0
    7.5919   -1.2729   -2.1555 H   0  0  0  0  0  0  0  0  0  0  0  0
    7.9882   -1.0101   -0.4741 H   0  0  0  0  0  0  0  0  0  0  0  0
    8.2645   -2.5740   -1.2026 H   0  0  0  0  0  0  0  0  0  0  0  0
  1  2  2  0
  2  3  1  0
  2 20  1  0
  3  4  2  0
  3  5  1  0
  5  6  2  0
  5  1  1  0
  7  1  1  0
  7  8  1  0
  9 10  1  0
  9  7  1  0
  9 35  1  1
 10 11  2  0
 11 12  1  0
 11 36  1  0
 12 13  2  0
 12 15  1  0
 13 14  1  0
 13 37  1  0
 14 10  1  0
 15 16  1  0
 15 17  1  0
 15 38  1  0
 16 39  1  0
 16 40  1  0
 16 41  1  0
 17 42  1  0
 17 43  1  0
 17 44  1  0
 18 19  1  0
 18 45  1  0
 18 46  1  0
 18 47  1  0
 19  9  1  0
 19 48  1  0
 19 49  1  0
 20 22  1  0
 20 21  1  0
 22 23  2  0
 23 24  1  0
 23 50  1  0
 24 25  2  0
 24 51  1  0
 25 26  1  0
 26 27  2  0
 26 30  1  0
 27 28  1  0
 27 22  1  0
 28 29  1  0
 30 31  2  0
 30 32  1  0
 32 33  1  0
 32 34  1  0
 33 52  1  0
 33 53  1  0
 33 54  1  0
 34 55  1  0
 34 56  1  0
 34 57  1  0
M  END
>  <minimizedAffinity>  (7) 
-8.09111

>  <mol_id>  (7) 
108629

>  <source_index>  (7) 
6

>  <layer>  (7) 
L3

>  <uniprot>  (7) 
P51684

>  <paff>  (7) 
6.5686

>  <smiles>  (7) 
CC[C@H](c1cc(co1)C(C)C)NC2=C(C(=O)C2=O)Nc3ccnc(c3O)C(=O)N(C)C

$$$$
L3:P51684:114389
     RDKit          3D

 52 54  0  0  0  0  0  0  0  0999 V2000
   11.1674    0.0725   -3.0445 C   0  0  0  0  0  0  0  0  0  0  0  0
   12.1302    0.3280   -2.0926 C   0  0  0  0  0  0  0  0  0  0  0  0
   12.1329    1.7754   -2.4066 C   0  0  0  0  0  0  0  0  0  0  0  0
   12.6576    2.8034   -2.0508 O   0  0  0  0  0  0  0  0  0  0  0  0
   11.1366    1.4966   -3.4617 C   0  0  0  0  0  0  0  0  0  0  0  0
   10.6223    2.2090   -4.2871 O   0  0  0  0  0  0  0  0  0  0  0  0
   10.5270   -1.0016   -3.4660 N   0  0  0  0  0  0  0  0  0  0  0  0
   10.6007   -1.2725   -4.4509 H   0  0  0  0  0  0  0  0  0  0  0  0
    9.8406   -3.8842   -4.2883 C   0  0  0  0  0  0  0  0  0  0  0  0
    8.8735   -2.8067   -3.8020 C   0  0  2  0  0  0  0  0  0  0  0  0
    8.3891   -2.1317   -4.9791 O   0  0  0  0  0  0  0  0  0  0  0  0
    7.7178   -0.8924   -4.7460 C   0  0  0  0  0  0  0  0  0  0  0  0
    7.2111   -0.7256   -3.3236 C   0  0  0  0  0  0  0  0  0  0  0  0
    8.3336   -0.8710   -2.2953 C   0  0  0  0  0  0  0  0  0  0  0  0
    9.4845   -1.7954   -2.7688 C   0  0  2  0  0  0  0  0  0  0  0  0
   10.0896   -2.5524   -1.5761 C   0  0  0  0  0  0  0  0  0  0  0  0
   12.8258   -0.4001   -1.2453 N   0  0  0  0  0  0  0  0  0  0  0  0
   12.5800   -0.3847   -0.2489 H   0  0  0  0  0  0  0  0  0  0  0  0
   13.7866   -1.4221   -1.4469 C   0  0  0  0  0  0  0  0  0  0  0  0
   13.7701   -2.3039   -2.5237 C   0  0  0  0  0  0  0  0  0  0  0  0
   14.7539   -3.2761   -2.6088 C   0  0  0  0  0  0  0  0  0  0  0  0
   15.7317   -3.4504   -1.6944 N   0  0  0  0  0  0  0  0  0  0  0  0
   15.7334   -2.6110   -0.6276 C   0  0  0  0  0  0  0  0  0  0  0  0
   14.8026   -1.5744   -0.4879 C   0  0  0  0  0  0  0  0  0  0  0  0
   14.8167   -0.6592    0.5453 O   0  0  0  0  0  0  0  0  0  0  0  0
   15.6338   -0.8252    1.0732 H   0  0  0  0  0  0  0  0  0  0  0  0
   16.8098   -2.7834    0.4106 C   0  0  0  0  0  0  0  0  0  0  0  0
   17.5163   -1.7941    0.6405 O   0  0  0  0  0  0  0  0  0  0  0  0
   16.9984   -3.9895    1.0927 N   0  0  0  0  0  0  0  0  0  0  0  0
   16.1065   -5.1380    1.0176 C   0  0  0  0  0  0  0  0  0  0  0  0
   18.1952   -4.1623    1.9006 C   0  0  0  0  0  0  0  0  0  0  0  0
    9.3406   -4.5241   -4.9851 H   0  0  0  0  0  0  0  0  0  0  0  0
   10.1801   -4.4617   -3.4539 H   0  0  0  0  0  0  0  0  0  0  0  0
   10.6786   -3.4218   -4.7666 H   0  0  0  0  0  0  0  0  0  0  0  0
    8.0838   -3.2755   -3.2529 H   0  0  0  0  0  0  0  0  0  0  0  0
    6.8817   -0.8318   -5.4109 H   0  0  0  0  0  0  0  0  0  0  0  0
    8.4333   -0.1148   -4.9143 H   0  0  0  0  0  0  0  0  0  0  0  0
    6.4681   -1.4713   -3.1318 H   0  0  0  0  0  0  0  0  0  0  0  0
    6.8035    0.2594   -3.2311 H   0  0  0  0  0  0  0  0  0  0  0  0
    7.9197   -1.2776   -1.3962 H   0  0  0  0  0  0  0  0  0  0  0  0
    8.7515    0.1022   -2.1433 H   0  0  0  0  0  0  0  0  0  0  0  0
   10.5019   -1.8514   -0.8808 H   0  0  0  0  0  0  0  0  0  0  0  0
   10.8619   -3.2064   -1.9235 H   0  0  0  0  0  0  0  0  0  0  0  0
    9.3263   -3.1265   -1.0936 H   0  0  0  0  0  0  0  0  0  0  0  0
   13.0372   -2.2348   -3.2469 H   0  0  0  0  0  0  0  0  0  0  0  0
   14.7381   -3.9082   -3.4244 H   0  0  0  0  0  0  0  0  0  0  0  0
   15.2660   -4.8971    0.4009 H   0  0  0  0  0  0  0  0  0  0  0  0
   15.7670   -5.3908    2.0003 H   0  0  0  0  0  0  0  0  0  0  0  0
   16.6311   -5.9700    0.5964 H   0  0  0  0  0  0  0  0  0  0  0  0
   18.7708   -3.2605    1.8828 H   0  0  0  0  0  0  0  0  0  0  0  0
   18.7797   -4.9664    1.5048 H   0  0  0  0  0  0  0  0  0  0  0  0
   17.9156   -4.3872    2.9087 H   0  0  0  0  0  0  0  0  0  0  0  0
  1  2  2  0
  2 17  1  0
  2  3  1  0
  3  4  2  0
  3  5  1  0
  5  6  2  0
  5  1  1  0
  7  1  1  0
  7  8  1  0
  9 10  1  0
  9 32  1  0
  9 33  1  0
  9 34  1  0
 10 11  1  0
 10 35  1  1
 11 12  1  0
 12 13  1  0
 12 36  1  0
 12 37  1  0
 13 14  1  0
 13 38  1  0
 13 39  1  0
 14 15  1  0
 14 40  1  0
 14 41  1  0
 15 16  1  0
 15  7  1  6
 15 10  1  0
 16 42  1  0
 16 43  1  0
 16 44  1  0
 17 19  1  0
 17 18  1  0
 19 20  2  0
 20 21  1  0
 20 45  1  0
 21 22  2  0
 21 46  1  0
 22 23  1  0
 23 27  1  0
 23 24  2  0
 24 25  1  0
 24 19  1  0
 25 26  1  0
 27 28  2  0
 27 29  1  0
 29 30  1  0
 29 31  1  0
 30 47  1  0
 30 48  1  0
 30 49  1  0
 31 50  1  0
 31 51  1  0
 31 52  1  0
M  END
>  <minimizedAffinity>  (8) 
-8.24303

>  <mol_id>  (8) 
114389

>  <source_index>  (8) 
7

>  <layer>  (8) 
L3

>  <uniprot>  (8) 
P51684

>  <paff>  (8) 
7.3768000000000002

>  <smiles>  (8) 
C[C@@H]1OCCC[C@]1(C)Nc1c(Nc2ccnc(C(=O)N(C)C)c2O)c(=O)c1=O

$$$$
L3:P51684:127076
     RDKit          3D

 51 53  0  0  0  0  0  0  0  0999 V2000
   11.5678   -0.2870   -2.9281 C   0  0  0  0  0  0  0  0  0  0  0  0
   12.5762    0.2465   -2.1560 C   0  0  0  0  0  0  0  0  0  0  0  0
   12.1566    1.6315   -2.4855 C   0  0  0  0  0  0  0  0  0  0  0  0
   12.4466    2.7797   -2.2450 O   0  0  0  0  0  0  0  0  0  0  0  0
   11.0818    1.0563   -3.3217 C   0  0  0  0  0  0  0  0  0  0  0  0
   10.2134    1.5435   -4.0022 O   0  0  0  0  0  0  0  0  0  0  0  0
   11.0800   -1.4596   -3.2843 N   0  0  0  0  0  0  0  0  0  0  0  0
   11.0686   -1.7325   -4.2683 H   0  0  0  0  0  0  0  0  0  0  0  0
    9.6694   -3.9046   -4.3122 C   0  0  0  0  0  0  0  0  0  0  0  0
    9.2163   -3.0781   -3.1067 C   0  0  2  0  0  0  0  0  0  0  0  0
    8.1062   -2.0889   -3.5074 C   0  0  0  0  0  0  0  0  0  0  0  0
    7.9418   -0.9230   -2.5303 C   0  0  0  0  0  0  0  0  0  0  0  0
    8.4305   -1.2720   -1.1334 C   0  0  0  0  0  0  0  0  0  0  0  0
    9.9150   -1.6480   -1.1189 C   0  0  0  0  0  0  0  0  0  0  0  0
   10.3932   -2.3901   -2.3828 C   0  0  2  0  0  0  0  0  0  0  0  0
   13.5209   -0.2483   -1.3865 N   0  0  0  0  0  0  0  0  0  0  0  0
   13.7200    0.2113   -0.4911 H   0  0  0  0  0  0  0  0  0  0  0  0
   14.4500   -1.3078   -1.5306 C   0  0  0  0  0  0  0  0  0  0  0  0
   14.6159   -2.0708   -2.6805 C   0  0  0  0  0  0  0  0  0  0  0  0
   15.5886   -3.0614   -2.6981 C   0  0  0  0  0  0  0  0  0  0  0  0
   16.3935   -3.3577   -1.6554 N   0  0  0  0  0  0  0  0  0  0  0  0
   16.2170   -2.6326   -0.5223 C   0  0  0  0  0  0  0  0  0  0  0  0
   15.2787   -1.5977   -0.4307 C   0  0  0  0  0  0  0  0  0  0  0  0
   15.1030   -0.8171    0.6946 O   0  0  0  0  0  0  0  0  0  0  0  0
   15.8522   -1.0159    1.3057 H   0  0  0  0  0  0  0  0  0  0  0  0
   17.1101   -2.9226    0.6517 C   0  0  0  0  0  0  0  0  0  0  0  0
   17.8212   -1.9902    1.0474 O   0  0  0  0  0  0  0  0  0  0  0  0
   17.1300   -4.1764    1.2709 N   0  0  0  0  0  0  0  0  0  0  0  0
   18.1795   -4.4709    2.2312 C   0  0  0  0  0  0  0  0  0  0  0  0
   16.1782   -5.2465    1.0126 C   0  0  0  0  0  0  0  0  0  0  0  0
    8.8174   -4.3574   -4.7747 H   0  0  0  0  0  0  0  0  0  0  0  0
   10.3464   -4.6670   -3.9878 H   0  0  0  0  0  0  0  0  0  0  0  0
   10.1612   -3.2673   -5.0170 H   0  0  0  0  0  0  0  0  0  0  0  0
    8.7989   -3.7553   -2.3911 H   0  0  0  0  0  0  0  0  0  0  0  0
    7.1798   -2.6221   -3.5566 H   0  0  0  0  0  0  0  0  0  0  0  0
    8.3856   -1.6698   -4.4514 H   0  0  0  0  0  0  0  0  0  0  0  0
    6.9057   -0.6609   -2.4776 H   0  0  0  0  0  0  0  0  0  0  0  0
    8.5319   -0.1064   -2.8906 H   0  0  0  0  0  0  0  0  0  0  0  0
    7.8614   -2.1001   -0.7658 H   0  0  0  0  0  0  0  0  0  0  0  0
    8.3036   -0.4082   -0.5148 H   0  0  0  0  0  0  0  0  0  0  0  0
   10.0929   -2.2782   -0.2727 H   0  0  0  0  0  0  0  0  0  0  0  0
   10.4634   -0.7302   -1.0762 H   0  0  0  0  0  0  0  0  0  0  0  0
   11.0809   -3.1528   -2.0824 H   0  0  0  0  0  0  0  0  0  0  0  0
   14.0244   -1.9034   -3.5095 H   0  0  0  0  0  0  0  0  0  0  0  0
   15.7041   -3.6076   -3.5660 H   0  0  0  0  0  0  0  0  0  0  0  0
   18.8144   -3.6164    2.3390 H   0  0  0  0  0  0  0  0  0  0  0  0
   18.7567   -5.3026    1.8849 H   0  0  0  0  0  0  0  0  0  0  0  0
   17.7405   -4.7106    3.1771 H   0  0  0  0  0  0  0  0  0  0  0  0
   15.4570   -4.9167    0.2943 H   0  0  0  0  0  0  0  0  0  0  0  0
   15.6808   -5.5088    1.9229 H   0  0  0  0  0  0  0  0  0  0  0  0
   16.6970   -6.1008    0.6307 H   0  0  0  0  0  0  0  0  0  0  0  0
  1  2  2  0
  2 16  1  0
  2  3  1  0
  3  4  2  0
  3  5  1  0
  5  6  2  0
  5  1  1  0
  7  1  1  0
  7  8  1  0
  9 10  1  0
  9 31  1  0
  9 32  1  0
  9 33  1  0
 10 11  1  0
 10 34  1  1
 11 12  1  0
 11 35  1  0
 11 36  1  0
 12 13  1  0
 12 37  1  0
 12 38  1  0
 13 14  1  0
 13 39  1  0
 13 40  1  0
 14 15  1  0
 14 41  1  0
 14 42  1  0
 15  7  1  0
 15 10  1  0
 15 43  1  1
 16 18  1  0
 16 17  1  0
 18 19  2  0
 19 20  1  0
 19 44  1  0
 20 21  2  0
 20 45  1  0
 21 22  1  0
 22 26  1  0
 22 23  2  0
 23 24  1  0
 23 18  1  0
 24 25  1  0
 26 27  2  0
 26 28  1  0
 28 29  1  0
 28 30  1  0
 29 46  1  0
 29 47  1  0
 29 48  1  0
 30 49  1  0
 30 50  1  0
 30 51  1  0
M  END
>  <minimizedAffinity>  (9) 
-8.29311

>  <mol_id>  (9) 
127076

>  <source_index>  (9) 
8

>  <layer>  (9) 
L3

>  <uniprot>  (9) 
P51684

>  <paff>  (9) 
7.9207999999999998

>  <smiles>  (9) 
C[C@@H]1CCCC[C@@H]1Nc1c(Nc2ccnc(C(=O)N(C)C)c2O)c(=O)c1=O

$$$$
L3:P51684:135852
     RDKit          3D

 54 56  0  0  0  0  0  0  0  0999 V2000
   12.3129   -0.4324   -1.4258 C   0  0  0  0  0  0  0  0  0  0  0  0
   13.5629    0.1468   -1.4238 C   0  0  0  0  0  0  0  0  0  0  0  0
   14.0007   -0.6693   -0.2692 C   0  0  0  0  0  0  0  0  0  0  0  0
   14.9680   -0.7897    0.4412 O   0  0  0  0  0  0  0  0  0  0  0  0
   12.6922   -1.3542   -0.3195 C   0  0  0  0  0  0  0  0  0  0  0  0
   12.2341   -2.2571    0.3381 O   0  0  0  0  0  0  0  0  0  0  0  0
   11.1854   -0.2546   -2.0953 N   0  0  0  0  0  0  0  0  0  0  0  0
   10.6285    0.5690   -1.8630 H   0  0  0  0  0  0  0  0  0  0  0  0
    8.6925   -1.3487   -0.9875 C   0  0  0  0  0  0  0  0  0  0  0  0
    9.5095   -2.1353   -2.0286 C   0  0  1  0  0  0  0  0  0  0  0  0
    8.5600   -2.9887   -2.8951 C   0  0  0  0  0  0  0  0  0  0  0  0
    7.7276   -2.1567   -3.8663 C   0  0  0  0  0  0  0  0  0  0  0  0
    8.5946   -1.2551   -4.7352 C   0  0  0  0  0  0  0  0  0  0  0  0
    9.5624   -0.4109   -3.9067 C   0  0  0  0  0  0  0  0  0  0  0  0
   10.4320   -1.2350   -2.9094 C   0  0  1  0  0  0  0  0  0  0  0  0
   11.4406   -2.0706   -3.7306 C   0  0  0  0  0  0  0  0  0  0  0  0
   14.2641    1.0750   -2.0367 N   0  0  0  0  0  0  0  0  0  0  0  0
   15.2899    1.0155   -2.0633 H   0  0  0  0  0  0  0  0  0  0  0  0
   13.8572    2.2202   -2.7643 C   0  0  0  0  0  0  0  0  0  0  0  0
   13.5361    2.1973   -4.1194 C   0  0  0  0  0  0  0  0  0  0  0  0
   13.0987    3.3647   -4.7260 C   0  0  0  0  0  0  0  0  0  0  0  0
   12.9616    4.5453   -4.0870 N   0  0  0  0  0  0  0  0  0  0  0  0
   13.2983    4.5748   -2.7707 C   0  0  0  0  0  0  0  0  0  0  0  0
   13.7284    3.4378   -2.0772 C   0  0  0  0  0  0  0  0  0  0  0  0
   14.0437    3.4285   -0.7357 O   0  0  0  0  0  0  0  0  0  0  0  0
   13.7486    4.2897   -0.3560 H   0  0  0  0  0  0  0  0  0  0  0  0
   13.1397    5.8730   -2.0288 C   0  0  0  0  0  0  0  0  0  0  0  0
   14.0798    6.6731   -2.1084 O   0  0  0  0  0  0  0  0  0  0  0  0
   11.9867    6.1647   -1.2931 N   0  0  0  0  0  0  0  0  0  0  0  0
   10.7572    5.3875   -1.3317 C   0  0  0  0  0  0  0  0  0  0  0  0
   11.9880    7.3186   -0.4102 C   0  0  0  0  0  0  0  0  0  0  0  0
    8.0867   -2.0266   -0.4233 H   0  0  0  0  0  0  0  0  0  0  0  0
    8.0648   -0.6409   -1.4874 H   0  0  0  0  0  0  0  0  0  0  0  0
    9.3582   -0.8319   -0.3282 H   0  0  0  0  0  0  0  0  0  0  0  0
   10.1753   -2.7763   -1.4895 H   0  0  0  0  0  0  0  0  0  0  0  0
    7.8959   -3.5228   -2.2481 H   0  0  0  0  0  0  0  0  0  0  0  0
    9.1669   -3.6489   -3.4788 H   0  0  0  0  0  0  0  0  0  0  0  0
    7.0495   -1.5477   -3.3058 H   0  0  0  0  0  0  0  0  0  0  0  0
    7.2019   -2.8298   -4.5109 H   0  0  0  0  0  0  0  0  0  0  0  0
    7.9589   -0.6010   -5.2945 H   0  0  0  0  0  0  0  0  0  0  0  0
    9.1748   -1.8808   -5.3808 H   0  0  0  0  0  0  0  0  0  0  0  0
    8.9928    0.3012   -3.3469 H   0  0  0  0  0  0  0  0  0  0  0  0
   10.2376    0.0508   -4.5965 H   0  0  0  0  0  0  0  0  0  0  0  0
   12.0509   -1.4167   -4.3178 H   0  0  0  0  0  0  0  0  0  0  0  0
   10.9088   -2.7378   -4.3763 H   0  0  0  0  0  0  0  0  0  0  0  0
   12.0602   -2.6357   -3.0660 H   0  0  0  0  0  0  0  0  0  0  0  0
   13.6224    1.3247   -4.6636 H   0  0  0  0  0  0  0  0  0  0  0  0
   12.8630    3.3285   -5.7301 H   0  0  0  0  0  0  0  0  0  0  0  0
   10.8738    4.5691   -2.0111 H   0  0  0  0  0  0  0  0  0  0  0  0
    9.9514    6.0108   -1.6590 H   0  0  0  0  0  0  0  0  0  0  0  0
   10.5423    5.0111   -0.3534 H   0  0  0  0  0  0  0  0  0  0  0  0
   12.9377    7.8085   -0.4649 H   0  0  0  0  0  0  0  0  0  0  0  0
   11.8091    6.9987    0.5951 H   0  0  0  0  0  0  0  0  0  0  0  0
   11.2182    7.9984   -0.7105 H   0  0  0  0  0  0  0  0  0  0  0  0
  1  2  2  0
  2 17  1  0
  2  3  1  0
  3  4  2  0
  3  5  1  0
  5  6  2  0
  5  1  1  0
  7  1  1  0
  7  8  1  0
  9 10  1  0
  9 32  1  0
  9 33  1  0
  9 34  1  0
 10 11  1  0
 10 35  1  1
 11 12  1  0
 11 36  1  0
 11 37  1  0
 12 13  1  0
 12 38  1  0
 12 39  1  0
 13 14  1  0
 13 40  1  0
 13 41  1  0
 14 15  1  0
 14 42  1  0
 14 43  1  0
 15 16  1  0
 15  7  1  1
 15 10  1  0
 16 44  1  0
 16 45  1  0
 16 46  1  0
 17 19  1  0
 17 18  1  0
 19 20  2  0
 20 21  1  0
 20 47  1  0
 21 22  2  0
 21 48  1  0
 22 23  1  0
 23 27  1  0
 23 24  2  0
 24 25  1  0
 24 19  1  0
 25 26  1  0
 27 28  2  0
 27 29  1  0
 29 30  1  0
 29 31  1  0
 30 49  1  0
 30 50  1  0
 30 51  1  0
 31 52  1  0
 31 53  1  0
 31 54  1  0
M  END
>  <minimizedAffinity>  (10) 
-8.10837

>  <mol_id>  (10) 
135852

>  <source_index>  (10) 
9

>  <layer>  (10) 
L3

>  <uniprot>  (10) 
P51684

>  <paff>  (10) 
6.9585999999999997

>  <smiles>  (10) 
C[C@H]1CCCC[C@@]1(C)Nc1c(Nc2ccnc(C(=O)N(C)C)c2O)c(=O)c1=O

$$$$
