L4:P09871:18813
     RDKit          3D

 69 72  0  0  0  0  0  0  0  0999 V2000
   10.3491   -2.1739   -5.1589 C   0  0  2  0  0  0  0  0  0  0  0  0
    8.8935   -1.6669   -5.2349 C   0  0  0  0  0  0  0  0  0  0  0  0
    8.8016   -0.5097   -4.2408 C   0  0  2  0  0  0  0  0  0  0  0  0
   10.2391   -0.0229   -4.1375 C   0  0  0  0  0  0  0  0  0  0  0  0
   11.0320   -1.2264   -4.3014 N   0  0  0  0  0  0  0  0  0  0  0  0
   12.3411   -1.2331   -3.9637 C   0  0  0  0  0  0  0  0  0  0  0  0
   12.9767   -0.1899   -3.7907 O   0  0  0  0  0  0  0  0  0  0  0  0
   10.5275   -3.3032   -7.2731 N   0  0  0  0  0  0  0  0  0  0  0  0
   10.9282   -2.2191   -6.5763 C   0  0  0  0  0  0  0  0  0  0  0  0
   11.6575   -1.3296   -7.0021 O   0  0  0  0  0  0  0  0  0  0  0  0
    9.6681   -3.7831   -7.0219 H   0  0  0  0  0  0  0  0  0  0  0  0
   10.0834   -3.6759   -9.6383 C   0  0  0  0  0  0  0  0  0  0  0  0
   11.1328   -3.6914   -8.5401 C   0  0  2  0  0  0  0  0  0  0  0  0
   11.7997   -5.0262   -8.4317 C   0  0  0  0  0  0  0  0  0  0  0  0
   11.2273   -6.2528   -8.3141 C   0  0  0  0  0  0  0  0  0  0  0  0
   12.1661   -7.3304   -8.2881 C   0  0  0  0  0  0  0  0  0  0  0  0
   13.4614   -6.8807   -8.3584 C   0  0  0  0  0  0  0  0  0  0  0  0
   13.5397   -5.1663   -8.4812 S   0  0  0  0  0  0  0  0  0  0  0  0
   11.7876   -8.7500   -8.1880 C   0  0  0  0  0  0  0  0  0  0  0  0
   12.5179   -9.7029   -7.7319 N   0  0  0  0  0  0  0  0  0  0  0  0
   10.4816   -9.0189   -8.5786 N   0  0  0  0  0  0  0  0  0  0  0  0
   13.4416   -9.3530   -7.4606 H   0  0  0  0  0  0  0  0  0  0  0  0
   10.1275   -8.4657   -9.3414 H   0  0  0  0  0  0  0  0  0  0  0  0
   10.2979  -10.0040   -8.6795 H   0  0  0  0  0  0  0  0  0  0  0  0
    8.2303   -0.9002   -2.8913 C   0  0  0  0  0  0  0  0  0  0  0  0
    8.0846    0.1639   -2.0834 F   0  0  0  0  0  0  0  0  0  0  0  0
    7.0319   -1.4984   -3.0147 F   0  0  0  0  0  0  0  0  0  0  0  0
    9.0445   -1.7756   -2.2319 F   0  0  0  0  0  0  0  0  0  0  0  0
   12.9259   -2.6220   -3.7389 C   0  0  0  0  0  0  0  0  0  0  0  0
   14.3490   -2.6218   -3.5035 N   0  0  0  0  0  0  0  0  0  0  0  0
   15.1989   -2.3534   -4.5250 C   0  0  0  0  0  0  0  0  0  0  0  0
   14.7494   -1.9152   -5.6080 O   0  0  0  0  0  0  0  0  0  0  0  0
   14.6814   -2.6856   -2.5534 H   0  0  0  0  0  0  0  0  0  0  0  0
   16.6412   -2.5707   -4.3417 C   0  0  0  0  0  0  0  0  0  0  0  0
   17.4830   -2.1607   -5.3855 C   0  0  0  0  0  0  0  0  0  0  0  0
   18.8523   -2.1936   -5.2669 C   0  0  0  0  0  0  0  0  0  0  0  0
   19.4405   -2.7004   -4.1091 C   0  0  0  0  0  0  0  0  0  0  0  0
   18.6257   -3.2095   -3.0963 C   0  0  0  0  0  0  0  0  0  0  0  0
   17.2495   -3.1443   -3.2174 C   0  0  0  0  0  0  0  0  0  0  0  0
   20.7968   -2.7733   -4.0801 O   0  0  0  0  0  0  0  0  0  0  0  0
   21.5438   -1.9932   -3.2136 C   0  0  0  0  0  0  0  0  0  0  0  0
   21.0630   -1.4954   -2.0124 C   0  0  0  0  0  0  0  0  0  0  0  0
   21.8989   -0.7378   -1.2069 C   0  0  0  0  0  0  0  0  0  0  0  0
   23.1897   -0.4966   -1.6250 C   0  0  0  0  0  0  0  0  0  0  0  0
   24.0047    0.2695   -0.8477 F   0  0  0  0  0  0  0  0  0  0  0  0
   23.6814   -0.9947   -2.8158 C   0  0  0  0  0  0  0  0  0  0  0  0
   22.8493   -1.7471   -3.6253 C   0  0  0  0  0  0  0  0  0  0  0  0
   10.4198   -3.1648   -4.7120 H   0  0  0  0  0  0  0  0  0  0  0  0
    8.1808   -2.4530   -5.0317 H   0  0  0  0  0  0  0  0  0  0  0  0
    8.6762   -1.2983   -6.2344 H   0  0  0  0  0  0  0  0  0  0  0  0
    8.1402    0.2599   -4.6184 H   0  0  0  0  0  0  0  0  0  0  0  0
   10.4772    0.4560   -3.1935 H   0  0  0  0  0  0  0  0  0  0  0  0
   10.4661    0.6579   -4.9534 H   0  0  0  0  0  0  0  0  0  0  0  0
    9.6632   -2.6765   -9.7364 H   0  0  0  0  0  0  0  0  0  0  0  0
    9.2722   -4.3640   -9.4010 H   0  0  0  0  0  0  0  0  0  0  0  0
   10.5258   -3.9707  -10.5882 H   0  0  0  0  0  0  0  0  0  0  0  0
   11.8907   -2.9417   -8.7550 H   0  0  0  0  0  0  0  0  0  0  0  0
   10.1628   -6.3927   -8.1935 H   0  0  0  0  0  0  0  0  0  0  0  0
   14.3618   -7.4638   -8.3607 H   0  0  0  0  0  0  0  0  0  0  0  0
   12.7056   -3.2449   -4.6043 H   0  0  0  0  0  0  0  0  0  0  0  0
   12.4392   -3.0772   -2.8775 H   0  0  0  0  0  0  0  0  0  0  0  0
   17.0411   -1.8532   -6.3230 H   0  0  0  0  0  0  0  0  0  0  0  0
   19.4837   -1.8470   -6.0689 H   0  0  0  0  0  0  0  0  0  0  0  0
   19.0847   -3.6822   -2.2394 H   0  0  0  0  0  0  0  0  0  0  0  0
   16.6495   -3.5811   -2.4307 H   0  0  0  0  0  0  0  0  0  0  0  0
   20.0672   -1.7205   -1.6703 H   0  0  0  0  0  0  0  0  0  0  0  0
   21.5474   -0.3636   -0.2561 H   0  0  0  0  0  0  0  0  0  0  0  0
   24.7005   -0.7825   -3.1109 H   0  0  0  0  0  0  0  0  0  0  0  0
   23.1847   -2.1259   -4.5844 H   0  0  0  0  0  0  0  0  0  0  0  0
  1  2  1  0
  1 48  1  1
  2  3  1  0
  2 49  1  0
  2 50  1  0
  3 25  1  0
  3  4  1  0
  3 51  1  6
  4  5  1  0
  4 52  1  0
  4 53  1  0
  5  6  1  0
  5  1  1  0
  6  7  2  0
  6 29  1  0
  8  9  1  0
  8 11  1  0
  9 10  2  0
  9  1  1  0
 12 13  1  0
 12 54  1  0
 12 55  1  0
 12 56  1  0
 13  8  1  0
 13 14  1  0
 13 57  1  6
 14 15  2  0
 15 16  1  0
 15 58  1  0
 16 19  1  0
 16 17  2  0
 17 18  1  0
 17 59  1  0
 18 14  1  0
 19 20  2  0
 19 21  1  0
 20 22  1  0
 21 23  1  0
 21 24  1  0
 25 26  1  0
 25 27  1  0
 25 28  1  0
 29 30  1  0
 29 60  1  0
 29 61  1  0
 30 31  1  0
 30 33  1  0
 31 32  2  0
 31 34  1  0
 34 35  2  0
 35 36  1  0
 35 62  1  0
 36 37  2  0
 36 63  1  0
 37 40  1  0
 37 38  1  0
 38 39  2  0
 38 64  1  0
 39 34  1  0
 39 65  1  0
 40 41  1  0
 41 42  2  0
 42 43  1  0
 42 66  1  0
 43 44  2  0
 43 67  1  0
 44 45  1  0
 44 46  1  0
 46 47  2  0
 46 68  1  0
 47 41  1  0
 47 69  1  0
M  END
>  <minimizedAffinity>  (1) 
-9.10584

>  <mol_id>  (1) 
18813

>  <source_index>  (1) 
0

>  <layer>  (1) 
L4

>  <uniprot>  (1) 
P09871

>  <paff>  (1) 
7

>  <smiles>  (1) 
C[C@@H](NC(=O)[C@@H]1C[C@@H](C(F)(F)F)CN1C(=O)CNC(=O)c1ccc(Oc2ccc(F)cc2)cc1)c1cc(C(=N)N)cs1

>  <aimnet_interaction_kcal_mol>  (1) 
-116.5832067044449

$$$$
L4:P09871:27252
     RDKit          3D

 79 82  0  0  0  0  0  0  0  0999 V2000
   12.7603   -4.0488   -5.5459 C   0  0  0  0  0  0  0  0  0  0  0  0
   11.6982   -4.1261   -4.9291 O   0  0  0  0  0  0  0  0  0  0  0  0
   13.8957   -3.5879   -4.9581 N   0  0  0  0  0  0  0  0  0  0  0  0
   15.1892   -3.3803   -5.5759 C   0  0  0  0  0  0  0  0  0  0  0  0
   16.1346   -3.1632   -4.4068 C   0  0  1  0  0  0  0  0  0  0  0  0
   15.2689   -2.6613   -3.2526 C   0  0  0  0  0  0  0  0  0  0  0  0
   13.8217   -2.9607   -3.6393 C   0  0  1  0  0  0  0  0  0  0  0  0
   13.0352   -1.6667   -3.7373 C   0  0  0  0  0  0  0  0  0  0  0  0
   13.4847   -0.7303   -4.4411 O   0  0  0  0  0  0  0  0  0  0  0  0
   11.9032   -1.6624   -3.0450 N   0  0  0  0  0  0  0  0  0  0  0  0
   11.7553   -2.3871   -2.3372 H   0  0  0  0  0  0  0  0  0  0  0  0
   10.8780   -0.6187   -3.1250 C   0  0  2  0  0  0  0  0  0  0  0  0
   10.2008   -0.5314   -1.7726 C   0  0  0  0  0  0  0  0  0  0  0  0
    9.8460   -0.8680   -4.1749 C   0  0  0  0  0  0  0  0  0  0  0  0
    8.4932   -0.8309   -4.0352 C   0  0  0  0  0  0  0  0  0  0  0  0
    7.7697   -1.1019   -5.2292 C   0  0  0  0  0  0  0  0  0  0  0  0
    8.5984   -1.4069   -6.2728 C   0  0  0  0  0  0  0  0  0  0  0  0
   10.2676   -1.2556   -5.8322 S   0  0  0  0  0  0  0  0  0  0  0  0
    6.3188   -0.8896   -5.3740 C   0  0  0  0  0  0  0  0  0  0  0  0
    5.7820   -0.5397   -6.4890 N   0  0  0  0  0  0  0  0  0  0  0  0
    5.6106   -0.9252   -4.2118 N   0  0  0  0  0  0  0  0  0  0  0  0
    6.0351   -1.1161   -7.2956 H   0  0  0  0  0  0  0  0  0  0  0  0
    5.9344   -1.5014   -3.4542 H   0  0  0  0  0  0  0  0  0  0  0  0
    4.6164   -0.7458   -4.2635 H   0  0  0  0  0  0  0  0  0  0  0  0
   12.8165   -4.4733   -6.9912 C   0  0  0  0  0  0  0  0  0  0  0  0
   12.8957   -6.6653   -8.0443 C   0  0  0  0  0  0  0  0  0  0  0  0
   13.7537   -6.2730   -8.8368 O   0  0  0  0  0  0  0  0  0  0  0  0
   12.3917   -5.8396   -7.0748 N   0  0  0  0  0  0  0  0  0  0  0  0
   11.5175   -6.0412   -6.6156 H   0  0  0  0  0  0  0  0  0  0  0  0
   11.4806  -10.6814   -8.1232 C   0  0  0  0  0  0  0  0  0  0  0  0
   12.0767  -10.1160   -9.2454 C   0  0  0  0  0  0  0  0  0  0  0  0
   12.5228   -8.8107   -9.1996 C   0  0  0  0  0  0  0  0  0  0  0  0
   12.3589   -8.0417   -8.0499 C   0  0  0  0  0  0  0  0  0  0  0  0
   11.7433   -8.6179   -6.9384 C   0  0  0  0  0  0  0  0  0  0  0  0
   11.3027   -9.9261   -6.9709 C   0  0  0  0  0  0  0  0  0  0  0  0
   11.1741  -12.0198   -8.1520 O   0  0  0  0  0  0  0  0  0  0  0  0
    7.5146  -13.4565   -6.7356 C   0  0  0  0  0  0  0  0  0  0  0  0
    7.5566  -12.3873   -7.6246 C   0  0  0  0  0  0  0  0  0  0  0  0
    8.7652  -11.8667   -8.0683 C   0  0  0  0  0  0  0  0  0  0  0  0
    9.9555  -12.4217   -7.6265 C   0  0  0  0  0  0  0  0  0  0  0  0
    9.9455  -13.4623   -6.7107 C   0  0  0  0  0  0  0  0  0  0  0  0
    8.7301  -13.9678   -6.2804 C   0  0  0  0  0  0  0  0  0  0  0  0
    5.9542  -13.6809   -4.7850 C   0  0  0  0  0  0  0  0  0  0  0  0
    6.2275  -14.0773   -6.2344 C   0  0  0  0  0  0  0  0  0  0  0  0
    5.0200  -13.7836   -7.1131 C   0  0  0  0  0  0  0  0  0  0  0  0
   16.7309   -4.4293   -4.1113 O   0  0  0  0  0  0  0  0  0  0  0  0
   17.9155   -4.3304   -3.4214 C   0  0  0  0  0  0  0  0  0  0  0  0
   18.2083   -5.5662   -2.9465 F   0  0  0  0  0  0  0  0  0  0  0  0
   18.9084   -3.9294   -4.2606 F   0  0  0  0  0  0  0  0  0  0  0  0
   15.1702   -2.5063   -6.2383 H   0  0  0  0  0  0  0  0  0  0  0  0
   15.4907   -4.2454   -6.1607 H   0  0  0  0  0  0  0  0  0  0  0  0
   16.9304   -2.4584   -4.6623 H   0  0  0  0  0  0  0  0  0  0  0  0
   15.3968   -1.5885   -3.1287 H   0  0  0  0  0  0  0  0  0  0  0  0
   15.5314   -3.1389   -2.3135 H   0  0  0  0  0  0  0  0  0  0  0  0
   13.3235   -3.6492   -2.9679 H   0  0  0  0  0  0  0  0  0  0  0  0
   11.4063    0.3109   -3.3365 H   0  0  0  0  0  0  0  0  0  0  0  0
    9.5253   -1.3731   -1.6340 H   0  0  0  0  0  0  0  0  0  0  0  0
    9.6359    0.3932   -1.6887 H   0  0  0  0  0  0  0  0  0  0  0  0
   10.9278   -0.5903   -0.9739 H   0  0  0  0  0  0  0  0  0  0  0  0
    7.9967   -0.5473   -3.1238 H   0  0  0  0  0  0  0  0  0  0  0  0
    8.3052   -1.7177   -7.2610 H   0  0  0  0  0  0  0  0  0  0  0  0
   12.1383   -3.8138   -7.5452 H   0  0  0  0  0  0  0  0  0  0  0  0
   13.7982   -4.3890   -7.4381 H   0  0  0  0  0  0  0  0  0  0  0  0
   12.1967  -10.7185  -10.1357 H   0  0  0  0  0  0  0  0  0  0  0  0
   13.0212   -8.3682  -10.0491 H   0  0  0  0  0  0  0  0  0  0  0  0
   11.6159   -8.0578   -6.0233 H   0  0  0  0  0  0  0  0  0  0  0  0
   10.8392  -10.3846   -6.1115 H   0  0  0  0  0  0  0  0  0  0  0  0
    6.6390  -11.9453   -7.9871 H   0  0  0  0  0  0  0  0  0  0  0  0
    8.7874  -11.0374   -8.7616 H   0  0  0  0  0  0  0  0  0  0  0  0
   10.8842  -13.8446   -6.3387 H   0  0  0  0  0  0  0  0  0  0  0  0
    8.7216  -14.7842   -5.5668 H   0  0  0  0  0  0  0  0  0  0  0  0
    5.0933  -14.2211   -4.3908 H   0  0  0  0  0  0  0  0  0  0  0  0
    5.7435  -12.6148   -4.7060 H   0  0  0  0  0  0  0  0  0  0  0  0
    6.8085  -13.8956   -4.1452 H   0  0  0  0  0  0  0  0  0  0  0  0
    6.3844  -15.1617   -6.2438 H   0  0  0  0  0  0  0  0  0  0  0  0
    4.7383  -12.7316   -7.0658 H   0  0  0  0  0  0  0  0  0  0  0  0
    4.1593  -14.3654   -6.7842 H   0  0  0  0  0  0  0  0  0  0  0  0
    5.2151  -14.0295   -8.1562 H   0  0  0  0  0  0  0  0  0  0  0  0
   17.8787   -3.6260   -2.5862 H   0  0  0  0  0  0  0  0  0  0  0  0
  1  2  2  0
  1  3  1  0
  3  4  1  0
  4  5  1  0
  4 50  1  0
  4 51  1  0
  5 46  1  0
  5  6  1  0
  5 52  1  6
  6  7  1  0
  6 53  1  0
  6 54  1  0
  7  8  1  0
  7  3  1  0
  7 55  1  1
  8  9  2  0
  8 10  1  0
 10 12  1  0
 10 11  1  0
 12 13  1  0
 12 14  1  0
 12 56  1  6
 13 57  1  0
 13 58  1  0
 13 59  1  0
 14 15  2  0
 15 16  1  0
 15 60  1  0
 16 19  1  0
 16 17  2  0
 17 18  1  0
 17 61  1  0
 18 14  1  0
 19 20  2  0
 19 21  1  0
 20 22  1  0
 21 23  1  0
 21 24  1  0
 25  1  1  0
 25 62  1  0
 25 63  1  0
 26 27  2  0
 26 28  1  0
 28 25  1  0
 28 29  1  0
 30 31  2  0
 31 32  1  0
 31 64  1  0
 32 33  2  0
 32 65  1  0
 33 26  1  0
 33 34  1  0
 34 35  2  0
 34 66  1  0
 35 30  1  0
 35 67  1  0
 36 30  1  0
 37 38  2  0
 38 39  1  0
 38 68  1  0
 39 40  2  0
 39 69  1  0
 40 36  1  0
 40 41  1  0
 41 42  2  0
 41 70  1  0
 42 37  1  0
 42 71  1  0
 43 44  1  0
 43 72  1  0
 43 73  1  0
 43 74  1  0
 44 45  1  0
 44 37  1  0
 44 75  1  0
 45 76  1  0
 45 77  1  0
 45 78  1  0
 46 47  1  0
 47 48  1  0
 47 49  1  0
 47 79  1  0
M  END
>  <minimizedAffinity>  (2) 
-9.60902

>  <mol_id>  (2) 
27252

>  <source_index>  (2) 
1

>  <layer>  (2) 
L4

>  <uniprot>  (2) 
P09871

>  <paff>  (2) 
7

>  <smiles>  (2) 
CC(C)c1ccc(Oc2ccc(C(=O)NCC(=O)N3C[C@H](OC(F)F)C[C@H]3C(=O)N[C@H](C)c3cc(C(=N)N)cs3)cc2)cc1

>  <aimnet_interaction_kcal_mol>  (2) 
-105.18403253703501

$$$$
L4:P09871:31406
     RDKit          3D

 72 77  0  0  0  0  0  0  0  0999 V2000
   12.6574   -3.2272   -8.3609 C   0  0  2  0  0  0  0  0  0  0  0  0
   12.8509   -4.6116   -8.9623 C   0  0  0  0  0  0  0  0  0  0  0  0
   12.5422   -5.5447   -7.8091 C   0  0  0  0  0  0  0  0  0  0  0  0
   13.1388   -4.8300   -6.6051 C   0  0  0  0  0  0  0  0  0  0  0  0
   12.9604   -3.4242   -6.9375 N   0  0  0  0  0  0  0  0  0  0  0  0
   13.3830   -2.3610   -6.2181 C   0  0  0  0  0  0  0  0  0  0  0  0
   13.5163   -1.2423   -6.7340 O   0  0  0  0  0  0  0  0  0  0  0  0
   13.0662   -6.8363   -7.9814 O   0  0  0  0  0  0  0  0  0  0  0  0
   11.9920   -7.7720   -7.7908 C   0  0  0  0  0  0  0  0  0  0  0  0
   10.7809   -6.9464   -8.1514 C   0  0  0  0  0  0  0  0  0  0  0  0
   11.1305   -5.6668   -7.6190 O   0  0  0  0  0  0  0  0  0  0  0  0
   10.4943   -2.4457   -7.5724 N   0  0  0  0  0  0  0  0  0  0  0  0
   11.2596   -2.6611   -8.6552 C   0  0  0  0  0  0  0  0  0  0  0  0
   10.9506   -2.4173   -9.8170 O   0  0  0  0  0  0  0  0  0  0  0  0
   10.6614   -3.0393   -6.7762 H   0  0  0  0  0  0  0  0  0  0  0  0
    9.8210   -0.1594   -8.1432 C   0  0  0  0  0  0  0  0  0  0  0  0
    9.4121   -1.4630   -7.4745 C   0  0  2  0  0  0  0  0  0  0  0  0
    9.0483   -1.2376   -6.0387 C   0  0  0  0  0  0  0  0  0  0  0  0
    7.8291   -1.3566   -5.4545 C   0  0  0  0  0  0  0  0  0  0  0  0
    7.8459   -1.1168   -4.0488 C   0  0  0  0  0  0  0  0  0  0  0  0
    9.0816   -0.7668   -3.5844 C   0  0  0  0  0  0  0  0  0  0  0  0
   10.2475   -0.7292   -4.8542 S   0  0  0  0  0  0  0  0  0  0  0  0
    6.6731   -1.2041   -3.1608 C   0  0  0  0  0  0  0  0  0  0  0  0
    5.4679   -0.9008   -3.4592 N   0  0  0  0  0  0  0  0  0  0  0  0
    6.9633   -1.5699   -1.8612 N   0  0  0  0  0  0  0  0  0  0  0  0
    5.3060   -0.5602   -4.4081 H   0  0  0  0  0  0  0  0  0  0  0  0
    7.4710   -2.4209   -1.6961 H   0  0  0  0  0  0  0  0  0  0  0  0
    6.1880   -1.4192   -1.2305 H   0  0  0  0  0  0  0  0  0  0  0  0
   13.6412   -2.5546   -4.7420 C   0  0  0  0  0  0  0  0  0  0  0  0
   14.7978   -1.7571   -4.3213 N   0  0  0  0  0  0  0  0  0  0  0  0
   16.0529   -2.2563   -4.7450 C   0  0  0  0  0  0  0  0  0  0  0  0
   16.1280   -2.9779   -5.7381 O   0  0  0  0  0  0  0  0  0  0  0  0
   14.7807   -1.5950   -3.3230 H   0  0  0  0  0  0  0  0  0  0  0  0
   17.2179   -1.8291   -3.9580 C   0  0  0  0  0  0  0  0  0  0  0  0
   18.4201   -2.5461   -4.0819 C   0  0  0  0  0  0  0  0  0  0  0  0
   19.5622   -2.1472   -3.4022 C   0  0  0  0  0  0  0  0  0  0  0  0
   19.5062   -1.0207   -2.6064 C   0  0  0  0  0  0  0  0  0  0  0  0
   18.2987   -0.3463   -2.3911 C   0  0  0  0  0  0  0  0  0  0  0  0
   17.1653   -0.7201   -3.0895 C   0  0  0  0  0  0  0  0  0  0  0  0
   18.5085    0.6981   -1.3945 C   0  0  0  0  0  0  0  0  0  0  0  0
   17.6162    1.5699   -0.7906 C   0  0  0  0  0  0  0  0  0  0  0  0
   18.0954    2.5197    0.0987 C   0  0  0  0  0  0  0  0  0  0  0  0
   19.4514    2.5595    0.3881 C   0  0  0  0  0  0  0  0  0  0  0  0
   19.8957    3.5086    1.2366 F   0  0  0  0  0  0  0  0  0  0  0  0
   20.3582    1.6599   -0.1525 C   0  0  0  0  0  0  0  0  0  0  0  0
   19.8629    0.7468   -1.0555 C   0  0  0  0  0  0  0  0  0  0  0  0
   20.6127   -0.3097   -1.8486 C   0  0  0  0  0  0  0  0  0  0  0  0
   21.3577   -1.1353   -1.0673 F   0  0  0  0  0  0  0  0  0  0  0  0
   21.4998    0.2896   -2.7342 F   0  0  0  0  0  0  0  0  0  0  0  0
   13.3665   -2.5115   -8.7709 H   0  0  0  0  0  0  0  0  0  0  0  0
   13.8915   -4.7505   -9.2592 H   0  0  0  0  0  0  0  0  0  0  0  0
   12.2090   -4.7832   -9.8221 H   0  0  0  0  0  0  0  0  0  0  0  0
   14.1894   -5.0997   -6.5134 H   0  0  0  0  0  0  0  0  0  0  0  0
   12.6148   -5.0954   -5.6923 H   0  0  0  0  0  0  0  0  0  0  0  0
   11.9511   -8.0991   -6.7501 H   0  0  0  0  0  0  0  0  0  0  0  0
   12.1742   -8.6284   -8.4338 H   0  0  0  0  0  0  0  0  0  0  0  0
    9.8544   -7.2693   -7.6862 H   0  0  0  0  0  0  0  0  0  0  0  0
   10.6516   -6.8920   -9.2359 H   0  0  0  0  0  0  0  0  0  0  0  0
    9.9856   -0.3146   -9.2031 H   0  0  0  0  0  0  0  0  0  0  0  0
   10.7460    0.1977   -7.6940 H   0  0  0  0  0  0  0  0  0  0  0  0
    9.0521    0.5943   -8.0036 H   0  0  0  0  0  0  0  0  0  0  0  0
    8.5312   -1.8690   -7.9757 H   0  0  0  0  0  0  0  0  0  0  0  0
    6.9359   -1.6164   -6.0049 H   0  0  0  0  0  0  0  0  0  0  0  0
    9.3446   -0.5083   -2.5753 H   0  0  0  0  0  0  0  0  0  0  0  0
   13.7910   -3.6016   -4.4971 H   0  0  0  0  0  0  0  0  0  0  0  0
   12.7662   -2.2092   -4.1899 H   0  0  0  0  0  0  0  0  0  0  0  0
   18.4499   -3.4264   -4.7049 H   0  0  0  0  0  0  0  0  0  0  0  0
   20.4758   -2.7200   -3.4688 H   0  0  0  0  0  0  0  0  0  0  0  0
   16.2479   -0.1698   -2.9312 H   0  0  0  0  0  0  0  0  0  0  0  0
   16.5593    1.5192   -1.0120 H   0  0  0  0  0  0  0  0  0  0  0  0
   17.4359    3.2332    0.5709 H   0  0  0  0  0  0  0  0  0  0  0  0
   21.3965    1.6706    0.1450 H   0  0  0  0  0  0  0  0  0  0  0  0
  1  2  1  0
  1 50  1  6
  2  3  1  0
  2 51  1  0
  2 52  1  0
  3  4  1  0
  3  8  1  0
  4  5  1  0
  4 53  1  0
  4 54  1  0
  5  6  1  0
  5  1  1  0
  6  7  2  0
  6 29  1  0
  8  9  1  0
  9 10  1  0
  9 55  1  0
  9 56  1  0
 10 11  1  0
 10 57  1  0
 10 58  1  0
 11  3  1  0
 12 13  1  0
 12 15  1  0
 13 14  2  0
 13  1  1  0
 16 17  1  0
 16 59  1  0
 16 60  1  0
 16 61  1  0
 17 12  1  0
 17 18  1  0
 17 62  1  6
 18 19  2  0
 19 20  1  0
 19 63  1  0
 20 23  1  0
 20 21  2  0
 21 22  1  0
 21 64  1  0
 22 18  1  0
 23 24  2  0
 23 25  1  0
 24 26  1  0
 25 27  1  0
 25 28  1  0
 29 30  1  0
 29 65  1  0
 29 66  1  0
 30 31  1  0
 30 33  1  0
 31 32  2  0
 31 34  1  0
 34 35  2  0
 35 36  1  0
 35 67  1  0
 36 37  2  0
 36 68  1  0
 37 38  1  0
 38 39  2  0
 38 40  1  0
 39 34  1  0
 39 69  1  0
 40 41  2  0
 41 42  1  0
 41 70  1  0
 42 43  2  0
 42 71  1  0
 43 44  1  0
 43 45  1  0
 45 46  2  0
 45 72  1  0
 46 47  1  0
 46 40  1  0
 47 48  1  0
 47 49  1  0
 47 37  1  0
M  END
>  <minimizedAffinity>  (3) 
-10.24486

>  <mol_id>  (3) 
31406

>  <source_index>  (3) 
2

>  <layer>  (3) 
L4

>  <uniprot>  (3) 
P09871

>  <paff>  (3) 
7

>  <smiles>  (3) 
C[C@@H](NC(=O)[C@@H]1CC2(CN1C(=O)CNC(=O)c1ccc3c(c1)-c1ccc(F)cc1C3(F)F)OCCO2)c1cc(C(=N)N)cs1

>  <aimnet_interaction_kcal_mol>  (3) 
-96.319428305960159

$$$$
L4:P09871:58779
     RDKit          3D

 70 74  0  0  0  0  0  0  0  0999 V2000
   13.5327   -3.1917   -3.9839 C   0  0  2  0  0  0  0  0  0  0  0  0
   15.0411   -3.2543   -3.7374 C   0  0  0  0  0  0  0  0  0  0  0  0
   15.6527   -2.8631   -5.0759 C   0  0  2  0  0  0  0  0  0  0  0  0
   14.5794   -3.0941   -6.1467 C   0  0  0  0  0  0  0  0  0  0  0  0
   13.4004   -3.4968   -5.4005 N   0  0  0  0  0  0  0  0  0  0  0  0
   12.2031   -3.8436   -5.9344 C   0  0  0  0  0  0  0  0  0  0  0  0
   11.2412   -4.1540   -5.2328 O   0  0  0  0  0  0  0  0  0  0  0  0
   11.8502   -1.7696   -3.0610 N   0  0  0  0  0  0  0  0  0  0  0  0
   12.9719   -1.7881   -3.7764 C   0  0  0  0  0  0  0  0  0  0  0  0
   13.5468   -0.8048   -4.3095 O   0  0  0  0  0  0  0  0  0  0  0  0
   11.6946   -2.4884   -2.3450 H   0  0  0  0  0  0  0  0  0  0  0  0
   10.2082   -0.5744   -1.7605 C   0  0  0  0  0  0  0  0  0  0  0  0
   10.8417   -0.7040   -3.1279 C   0  0  2  0  0  0  0  0  0  0  0  0
    9.7726   -0.9504   -4.1419 C   0  0  0  0  0  0  0  0  0  0  0  0
    8.4247   -0.9984   -3.9541 C   0  0  0  0  0  0  0  0  0  0  0  0
    7.6671   -1.1452   -5.1505 C   0  0  0  0  0  0  0  0  0  0  0  0
    8.4724   -1.3154   -6.2433 C   0  0  0  0  0  0  0  0  0  0  0  0
   10.1466   -1.1438   -5.8433 S   0  0  0  0  0  0  0  0  0  0  0  0
    6.2121   -0.9342   -5.2520 C   0  0  0  0  0  0  0  0  0  0  0  0
    5.6510   -0.4756   -6.3062 N   0  0  0  0  0  0  0  0  0  0  0  0
    5.5057   -1.1097   -4.0950 N   0  0  0  0  0  0  0  0  0  0  0  0
    6.0650   -0.7958   -7.1746 H   0  0  0  0  0  0  0  0  0  0  0  0
    4.5042   -0.9705   -4.1535 H   0  0  0  0  0  0  0  0  0  0  0  0
    5.8220   -1.7925   -3.4258 H   0  0  0  0  0  0  0  0  0  0  0  0
   17.1327   -3.8280   -5.5869 S   0  0  0  0  0  0  0  0  0  0  0  0
   18.3147   -3.6422   -4.2590 C   0  0  0  0  0  0  0  0  0  0  0  0
   16.7348   -5.2474   -5.6760 O   0  0  0  0  0  0  0  0  0  0  0  0
   17.6106   -3.0924   -6.7891 O   0  0  0  0  0  0  0  0  0  0  0  0
   12.0639   -3.8055   -7.4470 C   0  0  0  0  0  0  0  0  0  0  0  0
   11.3137   -4.9485   -7.8915 N   0  0  0  0  0  0  0  0  0  0  0  0
   12.0212   -6.1228   -8.0661 C   0  0  0  0  0  0  0  0  0  0  0  0
   13.2505   -6.1327   -8.0942 O   0  0  0  0  0  0  0  0  0  0  0  0
   10.4086   -5.0254   -7.4472 H   0  0  0  0  0  0  0  0  0  0  0  0
   11.2238   -7.3537   -8.2161 C   0  0  0  0  0  0  0  0  0  0  0  0
    9.8877   -7.3341   -8.6529 C   0  0  0  0  0  0  0  0  0  0  0  0
    9.1627   -8.5026   -8.7723 C   0  0  0  0  0  0  0  0  0  0  0  0
    9.7506   -9.7103   -8.3897 C   0  0  0  0  0  0  0  0  0  0  0  0
   11.0771   -9.6935   -7.9235 C   0  0  0  0  0  0  0  0  0  0  0  0
   11.8475   -8.5583   -7.8779 C   0  0  0  0  0  0  0  0  0  0  0  0
   11.4468  -10.9468   -7.4605 O   0  0  0  0  0  0  0  0  0  0  0  0
   10.3331  -11.7481   -7.5897 C   0  0  0  0  0  0  0  0  0  0  0  0
   10.2266  -13.0523   -7.1536 C   0  0  0  0  0  0  0  0  0  0  0  0
    9.0098  -13.6882   -7.3804 C   0  0  0  0  0  0  0  0  0  0  0  0
    7.9470  -13.0254   -8.0016 C   0  0  0  0  0  0  0  0  0  0  0  0
    8.0637  -11.7043   -8.4079 C   0  0  0  0  0  0  0  0  0  0  0  0
    9.2756  -11.0503   -8.1977 C   0  0  0  0  0  0  0  0  0  0  0  0
   12.9687   -3.9215   -3.4102 H   0  0  0  0  0  0  0  0  0  0  0  0
   15.3215   -4.2688   -3.4731 H   0  0  0  0  0  0  0  0  0  0  0  0
   15.3413   -2.6066   -2.9175 H   0  0  0  0  0  0  0  0  0  0  0  0
   16.0383   -1.8480   -5.0710 H   0  0  0  0  0  0  0  0  0  0  0  0
   14.8648   -3.8750   -6.8469 H   0  0  0  0  0  0  0  0  0  0  0  0
   14.3763   -2.1905   -6.7247 H   0  0  0  0  0  0  0  0  0  0  0  0
   10.9602   -0.6151   -0.9847 H   0  0  0  0  0  0  0  0  0  0  0  0
    9.5369   -1.4102   -1.5780 H   0  0  0  0  0  0  0  0  0  0  0  0
    9.6430    0.3516   -1.6917 H   0  0  0  0  0  0  0  0  0  0  0  0
   11.3863    0.2064   -3.3767 H   0  0  0  0  0  0  0  0  0  0  0  0
    7.9499   -0.8881   -2.9945 H   0  0  0  0  0  0  0  0  0  0  0  0
    8.1709   -1.5528   -7.2483 H   0  0  0  0  0  0  0  0  0  0  0  0
   17.8664   -3.9680   -3.3273 H   0  0  0  0  0  0  0  0  0  0  0  0
   18.6270   -2.6039   -4.2169 H   0  0  0  0  0  0  0  0  0  0  0  0
   19.1419   -4.2937   -4.5247 H   0  0  0  0  0  0  0  0  0  0  0  0
   13.0244   -3.7969   -7.9447 H   0  0  0  0  0  0  0  0  0  0  0  0
   11.5250   -2.8972   -7.7169 H   0  0  0  0  0  0  0  0  0  0  0  0
    9.4176   -6.3897   -8.8922 H   0  0  0  0  0  0  0  0  0  0  0  0
    8.1357   -8.4804   -9.1081 H   0  0  0  0  0  0  0  0  0  0  0  0
   12.8846   -8.5666   -7.5829 H   0  0  0  0  0  0  0  0  0  0  0  0
   11.0415  -13.5348   -6.6367 H   0  0  0  0  0  0  0  0  0  0  0  0
    8.8822  -14.7137   -7.0604 H   0  0  0  0  0  0  0  0  0  0  0  0
    7.0151  -13.5515   -8.1604 H   0  0  0  0  0  0  0  0  0  0  0  0
    7.2292  -11.1915   -8.8654 H   0  0  0  0  0  0  0  0  0  0  0  0
  1  2  1  0
  1 47  1  1
  2  3  1  0
  2 48  1  0
  2 49  1  0
  3 25  1  0
  3  4  1  0
  3 50  1  1
  4  5  1  0
  4 51  1  0
  4 52  1  0
  5  6  1  0
  5  1  1  0
  6  7  2  0
  6 29  1  0
  8  9  1  0
  8 11  1  0
  9 10  2  0
  9  1  1  0
 12 13  1  0
 12 53  1  0
 12 54  1  0
 12 55  1  0
 13  8  1  0
 13 14  1  0
 13 56  1  6
 14 15  2  0
 15 16  1  0
 15 57  1  0
 16 19  1  0
 16 17  2  0
 17 18  1  0
 17 58  1  0
 18 14  1  0
 19 20  2  0
 19 21  1  0
 20 22  1  0
 21 23  1  0
 21 24  1  0
 25 26  1  0
 25 27  2  0
 25 28  2  0
 26 59  1  0
 26 60  1  0
 26 61  1  0
 29 30  1  0
 29 62  1  0
 29 63  1  0
 30 31  1  0
 30 33  1  0
 31 32  2  0
 31 34  1  0
 34 35  2  0
 35 36  1  0
 35 64  1  0
 36 37  2  0
 36 65  1  0
 37 38  1  0
 38 39  2  0
 38 40  1  0
 39 34  1  0
 39 66  1  0
 40 41  1  0
 41 42  2  0
 42 43  1  0
 42 67  1  0
 43 44  2  0
 43 68  1  0
 44 45  1  0
 44 69  1  0
 45 46  2  0
 45 70  1  0
 46 41  1  0
 46 37  1  0
M  END
>  <minimizedAffinity>  (4) 
-9.71534

>  <mol_id>  (4) 
58779

>  <source_index>  (4) 
3

>  <layer>  (4) 
L4

>  <uniprot>  (4) 
P09871

>  <paff>  (4) 
7

>  <smiles>  (4) 
C[C@@H](NC(=O)[C@@H]1C[C@@H](S(C)(=O)=O)CN1C(=O)CNC(=O)c1ccc2c(c1)oc1ccccc12)c1cc(C(=N)N)cs1

>  <aimnet_interaction_kcal_mol>  (4) 
-111.40756568640798

$$$$
L4:P09871:70932
     RDKit          3D

 79 83  0  0  0  0  0  0  0  0999 V2000
   13.8123   -2.9274   -3.8005 C   0  0  2  0  0  0  0  0  0  0  0  0
   15.2982   -2.8485   -3.4447 C   0  0  0  0  0  0  0  0  0  0  0  0
   16.0794   -3.0847   -4.7461 C   0  0  0  0  0  0  0  0  0  0  0  0
   15.0597   -3.4067   -5.8405 C   0  0  0  0  0  0  0  0  0  0  0  0
   13.7650   -3.3569   -5.1969 N   0  0  0  0  0  0  0  0  0  0  0  0
   12.5987   -3.7659   -5.7681 C   0  0  0  0  0  0  0  0  0  0  0  0
   11.5630   -3.9155   -5.1149 O   0  0  0  0  0  0  0  0  0  0  0  0
   16.9983   -4.1341   -4.6085 O   0  0  0  0  0  0  0  0  0  0  0  0
   18.2012   -3.5336   -4.0885 C   0  0  0  0  0  0  0  0  0  0  0  0
   18.2396   -2.2114   -4.8232 C   0  0  0  0  0  0  0  0  0  0  0  0
   16.8437   -1.9094   -5.0995 O   0  0  0  0  0  0  0  0  0  0  0  0
   12.0825   -1.5823   -2.8157 N   0  0  0  0  0  0  0  0  0  0  0  0
   13.1305   -1.5744   -3.6397 C   0  0  0  0  0  0  0  0  0  0  0  0
   13.5775   -0.5789   -4.2493 O   0  0  0  0  0  0  0  0  0  0  0  0
   11.9270   -2.3666   -2.1796 H   0  0  0  0  0  0  0  0  0  0  0  0
   11.1171   -0.4979   -2.7215 C   0  0  0  0  0  0  0  0  0  0  0  0
    8.5773   -1.0255   -5.4337 C   0  0  0  0  0  0  0  0  0  0  0  0
    7.6037   -0.8043   -4.4956 C   0  0  0  0  0  0  0  0  0  0  0  0
    8.3012   -0.5468   -2.9332 S   0  0  0  0  0  0  0  0  0  0  0  0
    9.9138   -0.7143   -3.5675 C   0  0  0  0  0  0  0  0  0  0  0  0
    9.8895   -1.0248   -4.8885 C   0  0  0  0  0  0  0  0  0  0  0  0
    9.1667   -0.8891   -7.7778 C   0  0  0  0  0  0  0  0  0  0  0  0
   10.1541   -0.1666   -7.5848 O   0  0  0  0  0  0  0  0  0  0  0  0
    8.3327   -1.2705   -6.7886 N   0  0  0  0  0  0  0  0  0  0  0  0
    7.4669   -1.7247   -7.0516 H   0  0  0  0  0  0  0  0  0  0  0  0
    8.7864   -1.4253   -9.1470 C   0  0  0  0  0  0  0  0  0  0  0  0
    9.7683   -1.1346  -10.2769 C   0  0  0  0  0  0  0  0  0  0  0  0
   12.1331   -1.2321   -9.3276 N   0  0  0  0  0  0  0  0  0  0  0  0
   11.1188   -1.8619  -10.1841 C   0  0  0  0  0  0  0  0  0  0  0  0
   12.5255   -0.4355   -9.8196 H   0  0  0  0  0  0  0  0  0  0  0  0
   11.6410   -0.8243   -8.5333 H   0  0  0  0  0  0  0  0  0  0  0  0
   12.6130   -3.9782   -7.2649 C   0  0  0  0  0  0  0  0  0  0  0  0
   11.6036   -4.9251   -7.6535 N   0  0  0  0  0  0  0  0  0  0  0  0
   11.9930   -6.1409   -8.1459 C   0  0  0  0  0  0  0  0  0  0  0  0
   13.1734   -6.4203   -8.3483 O   0  0  0  0  0  0  0  0  0  0  0  0
   10.7362   -4.8549   -7.1437 H   0  0  0  0  0  0  0  0  0  0  0  0
   10.9074   -7.1074   -8.4593 C   0  0  0  0  0  0  0  0  0  0  0  0
    9.6571   -6.7237   -8.9458 C   0  0  0  0  0  0  0  0  0  0  0  0
    8.7381   -7.6779   -9.3443 C   0  0  0  0  0  0  0  0  0  0  0  0
    9.0174   -9.0258   -9.1601 C   0  0  0  0  0  0  0  0  0  0  0  0
   10.2367   -9.4190   -8.6259 C   0  0  0  0  0  0  0  0  0  0  0  0
   11.1889   -8.4664   -8.3176 C   0  0  0  0  0  0  0  0  0  0  0  0
    8.1163   -9.9973   -9.5623 O   0  0  0  0  0  0  0  0  0  0  0  0
    7.1508  -10.3843   -8.6551 C   0  0  0  0  0  0  0  0  0  0  0  0
    6.9765  -11.7467   -8.4528 C   0  0  0  0  0  0  0  0  0  0  0  0
    5.9937  -12.2059   -7.5880 C   0  0  0  0  0  0  0  0  0  0  0  0
    5.1841  -11.2857   -6.9506 C   0  0  0  0  0  0  0  0  0  0  0  0
    4.2278  -11.7278   -6.0937 F   0  0  0  0  0  0  0  0  0  0  0  0
    5.3300   -9.9283   -7.1527 C   0  0  0  0  0  0  0  0  0  0  0  0
    6.3332   -9.4715   -7.9990 C   0  0  0  0  0  0  0  0  0  0  0  0
   13.2761   -3.6622   -3.2102 H   0  0  0  0  0  0  0  0  0  0  0  0
   15.5703   -3.6144   -2.7238 H   0  0  0  0  0  0  0  0  0  0  0  0
   15.5407   -1.8783   -3.0252 H   0  0  0  0  0  0  0  0  0  0  0  0
   15.2605   -4.3975   -6.2456 H   0  0  0  0  0  0  0  0  0  0  0  0
   15.1260   -2.6919   -6.6672 H   0  0  0  0  0  0  0  0  0  0  0  0
   19.0331   -4.1931   -4.3183 H   0  0  0  0  0  0  0  0  0  0  0  0
   18.1330   -3.4031   -3.0056 H   0  0  0  0  0  0  0  0  0  0  0  0
   18.7701   -2.3051   -5.7701 H   0  0  0  0  0  0  0  0  0  0  0  0
   18.6668   -1.3982   -4.2411 H   0  0  0  0  0  0  0  0  0  0  0  0
   10.8312   -0.4140   -1.6791 H   0  0  0  0  0  0  0  0  0  0  0  0
   11.6228    0.4297   -2.9971 H   0  0  0  0  0  0  0  0  0  0  0  0
    6.5395   -0.7093   -4.6329 H   0  0  0  0  0  0  0  0  0  0  0  0
   10.7645   -1.2853   -5.4630 H   0  0  0  0  0  0  0  0  0  0  0  0
    8.6258   -2.5009   -9.0558 H   0  0  0  0  0  0  0  0  0  0  0  0
    7.7990   -1.0263   -9.3917 H   0  0  0  0  0  0  0  0  0  0  0  0
    9.2778   -1.4253  -11.2081 H   0  0  0  0  0  0  0  0  0  0  0  0
    9.9470   -0.0594  -10.3382 H   0  0  0  0  0  0  0  0  0  0  0  0
   10.9507   -2.8769   -9.8206 H   0  0  0  0  0  0  0  0  0  0  0  0
   11.5350   -1.9684  -11.1884 H   0  0  0  0  0  0  0  0  0  0  0  0
   13.5667   -4.3567   -7.6148 H   0  0  0  0  0  0  0  0  0  0  0  0
   12.4388   -3.0183   -7.7632 H   0  0  0  0  0  0  0  0  0  0  0  0
    9.3979   -5.6767   -9.0109 H   0  0  0  0  0  0  0  0  0  0  0  0
    7.8145   -7.3913   -9.8274 H   0  0  0  0  0  0  0  0  0  0  0  0
   10.4292  -10.4712   -8.4666 H   0  0  0  0  0  0  0  0  0  0  0  0
   12.1641   -8.7614   -7.9618 H   0  0  0  0  0  0  0  0  0  0  0  0
    7.6181  -12.4424   -8.9731 H   0  0  0  0  0  0  0  0  0  0  0  0
    5.8534  -13.2616   -7.4092 H   0  0  0  0  0  0  0  0  0  0  0  0
    4.6859   -9.2404   -6.6272 H   0  0  0  0  0  0  0  0  0  0  0  0
    6.4991   -8.4108   -8.1117 H   0  0  0  0  0  0  0  0  0  0  0  0
  1  2  1  0
  1 51  1  1
  2  3  1  0
  2 52  1  0
  2 53  1  0
  3  4  1  0
  3  8  1  0
  4  5  1  0
  4 54  1  0
  4 55  1  0
  5  6  1  0
  5  1  1  0
  6  7  2  0
  6 32  1  0
  8  9  1  0
  9 10  1  0
  9 56  1  0
  9 57  1  0
 10 11  1  0
 10 58  1  0
 10 59  1  0
 11  3  1  0
 12 13  1  0
 12 15  1  0
 13 14  2  0
 13  1  1  0
 16 12  1  0
 16 60  1  0
 16 61  1  0
 17 18  2  0
 18 19  1  0
 18 62  1  0
 19 20  1  0
 20 16  1  0
 20 21  2  0
 21 17  1  0
 21 63  1  0
 22 23  2  0
 22 24  1  0
 24 17  1  0
 24 25  1  0
 26 22  1  0
 26 64  1  0
 26 65  1  0
 27 26  1  0
 27 66  1  0
 27 67  1  0
 28 29  1  0
 28 30  1  0
 28 31  1  0
 29 27  1  0
 29 68  1  0
 29 69  1  0
 32 33  1  0
 32 70  1  0
 32 71  1  0
 33 34  1  0
 33 36  1  0
 34 35  2  0
 34 37  1  0
 37 38  2  0
 38 39  1  0
 38 72  1  0
 39 40  2  0
 39 73  1  0
 40 43  1  0
 40 41  1  0
 41 42  2  0
 41 74  1  0
 42 37  1  0
 42 75  1  0
 43 44  1  0
 44 45  2  0
 45 46  1  0
 45 76  1  0
 46 47  2  0
 46 77  1  0
 47 48  1  0
 47 49  1  0
 49 50  2  0
 49 78  1  0
 50 44  1  0
 50 79  1  0
M  END
>  <minimizedAffinity>  (5) 
-8.33083

>  <mol_id>  (5) 
70932

>  <source_index>  (5) 
4

>  <layer>  (5) 
L4

>  <uniprot>  (5) 
P09871

>  <paff>  (5) 
6

>  <smiles>  (5) 
NCCCC(=O)Nc1csc(CNC(=O)[C@@H]2CC3(CN2C(=O)CNC(=O)c2ccc(Oc4ccc(F)cc4)cc2)OCCO3)c1

>  <aimnet_interaction_kcal_mol>  (5) 
-116.46947405279383

$$$$
L4:P09871:76886
     RDKit          3D

 68 72  0  0  0  0  0  0  0  0999 V2000
   12.3596   -2.1758   -7.4784 C   0  0  2  0  0  0  0  0  0  0  0  0
   11.4417   -3.4002   -7.5295 C   0  0  0  0  0  0  0  0  0  0  0  0
   12.1016   -4.3228   -8.5316 C   0  0  1  0  0  0  0  0  0  0  0  0
   11.7769   -3.8903   -9.8349 F   0  0  0  0  0  0  0  0  0  0  0  0
   13.5805   -4.0854   -8.3089 C   0  0  0  0  0  0  0  0  0  0  0  0
   13.6405   -2.6612   -7.9906 N   0  0  0  0  0  0  0  0  0  0  0  0
   14.6085   -1.7840   -8.3356 C   0  0  0  0  0  0  0  0  0  0  0  0
   14.4358   -0.5544   -8.2843 O   0  0  0  0  0  0  0  0  0  0  0  0
   11.2551   -1.5043   -5.4596 N   0  0  0  0  0  0  0  0  0  0  0  0
   12.4506   -1.5895   -6.0596 C   0  0  0  0  0  0  0  0  0  0  0  0
   13.5130   -1.2113   -5.5576 O   0  0  0  0  0  0  0  0  0  0  0  0
   10.4419   -1.9121   -5.8979 H   0  0  0  0  0  0  0  0  0  0  0  0
   11.8505   -1.4396   -3.0707 C   0  0  0  0  0  0  0  0  0  0  0  0
   10.9852   -0.8521   -4.1681 C   0  0  2  0  0  0  0  0  0  0  0  0
    9.5043   -0.9321   -3.9162 C   0  0  0  0  0  0  0  0  0  0  0  0
    8.4963   -0.7561   -4.8172 C   0  0  0  0  0  0  0  0  0  0  0  0
    7.1959   -1.0284   -4.2976 C   0  0  0  0  0  0  0  0  0  0  0  0
    7.2432   -1.3507   -2.9670 C   0  0  0  0  0  0  0  0  0  0  0  0
    8.8554   -1.3449   -2.3494 S   0  0  0  0  0  0  0  0  0  0  0  0
    5.9477   -0.9104   -5.0742 C   0  0  0  0  0  0  0  0  0  0  0  0
    5.9321   -0.4913   -6.3026 N   0  0  0  0  0  0  0  0  0  0  0  0
    4.8230   -1.1589   -4.3828 N   0  0  0  0  0  0  0  0  0  0  0  0
    6.7211   -0.8514   -6.8356 H   0  0  0  0  0  0  0  0  0  0  0  0
    3.8957   -0.9567   -4.7647 H   0  0  0  0  0  0  0  0  0  0  0  0
    4.8081   -1.8245   -3.6363 H   0  0  0  0  0  0  0  0  0  0  0  0
   11.6624   -5.7605   -8.3798 C   0  0  0  0  0  0  0  0  0  0  0  0
   12.2857   -6.5834   -9.3107 F   0  0  0  0  0  0  0  0  0  0  0  0
   15.9751   -2.3165   -8.7362 C   0  0  0  0  0  0  0  0  0  0  0  0
   16.8866   -2.1794   -7.6162 N   0  0  0  0  0  0  0  0  0  0  0  0
   16.9550   -3.2224   -6.7006 C   0  0  0  0  0  0  0  0  0  0  0  0
   16.3182   -4.2619   -6.9073 O   0  0  0  0  0  0  0  0  0  0  0  0
   17.7492   -1.6913   -7.7916 H   0  0  0  0  0  0  0  0  0  0  0  0
   17.7807   -3.0122   -5.5246 C   0  0  0  0  0  0  0  0  0  0  0  0
   18.0018   -4.1312   -4.6889 C   0  0  0  0  0  0  0  0  0  0  0  0
   18.7480   -4.0425   -3.5399 C   0  0  0  0  0  0  0  0  0  0  0  0
   19.2575   -2.7923   -3.1909 C   0  0  0  0  0  0  0  0  0  0  0  0
   19.9723   -2.4344   -2.0911 N   0  0  0  0  0  0  0  0  0  0  0  0
   20.2183   -1.0774   -2.1241 C   0  0  0  0  0  0  0  0  0  0  0  0
   20.8294   -0.2576   -1.1842 C   0  0  0  0  0  0  0  0  0  0  0  0
   20.9489    1.0870   -1.4869 C   0  0  0  0  0  0  0  0  0  0  0  0
   20.4675    1.6168   -2.6907 C   0  0  0  0  0  0  0  0  0  0  0  0
   19.8351    0.8036   -3.6149 C   0  0  0  0  0  0  0  0  0  0  0  0
   19.6820   -0.5500   -3.3323 C   0  0  0  0  0  0  0  0  0  0  0  0
   19.0572   -1.6448   -4.0167 C   0  0  0  0  0  0  0  0  0  0  0  0
   18.3603   -1.7778   -5.2028 C   0  0  0  0  0  0  0  0  0  0  0  0
   20.3025   -3.1308   -1.4114 H   0  0  0  0  0  0  0  0  0  0  0  0
   12.0002   -1.3826   -8.1422 H   0  0  0  0  0  0  0  0  0  0  0  0
   10.4175   -3.1635   -7.8024 H   0  0  0  0  0  0  0  0  0  0  0  0
   11.4363   -3.8956   -6.5590 H   0  0  0  0  0  0  0  0  0  0  0  0
   14.1462   -4.3244   -9.1979 H   0  0  0  0  0  0  0  0  0  0  0  0
   13.9585   -4.6813   -7.4817 H   0  0  0  0  0  0  0  0  0  0  0  0
   12.8977   -1.2348   -3.2618 H   0  0  0  0  0  0  0  0  0  0  0  0
   11.7204   -2.5129   -2.9989 H   0  0  0  0  0  0  0  0  0  0  0  0
   11.5764   -1.0211   -2.1091 H   0  0  0  0  0  0  0  0  0  0  0  0
   11.2626    0.1992   -4.2786 H   0  0  0  0  0  0  0  0  0  0  0  0
    8.6507   -0.3785   -5.8195 H   0  0  0  0  0  0  0  0  0  0  0  0
    6.4312   -1.4972   -2.2812 H   0  0  0  0  0  0  0  0  0  0  0  0
   10.5841   -5.8415   -8.5043 H   0  0  0  0  0  0  0  0  0  0  0  0
   11.9398   -6.1117   -7.3858 H   0  0  0  0  0  0  0  0  0  0  0  0
   16.3336   -1.7010   -9.5591 H   0  0  0  0  0  0  0  0  0  0  0  0
   15.9367   -3.3511   -9.0546 H   0  0  0  0  0  0  0  0  0  0  0  0
   17.6089   -5.0828   -5.0130 H   0  0  0  0  0  0  0  0  0  0  0  0
   18.9863   -4.9094   -2.9422 H   0  0  0  0  0  0  0  0  0  0  0  0
   21.1575   -0.6541   -0.2345 H   0  0  0  0  0  0  0  0  0  0  0  0
   21.4207    1.7472   -0.7710 H   0  0  0  0  0  0  0  0  0  0  0  0
   20.5939    2.6714   -2.8931 H   0  0  0  0  0  0  0  0  0  0  0  0
   19.4805    1.2160   -4.5528 H   0  0  0  0  0  0  0  0  0  0  0  0
   18.3182   -0.9374   -5.8867 H   0  0  0  0  0  0  0  0  0  0  0  0
  1  2  1  0
  1 47  1  6
  2  3  1  0
  2 48  1  0
  2 49  1  0
  3  4  1  6
  3 26  1  0
  3  5  1  0
  5  6  1  0
  5 50  1  0
  5 51  1  0
  6  7  1  0
  6  1  1  0
  7  8  2  0
  7 28  1  0
  9 10  1  0
  9 12  1  0
 10 11  2  0
 10  1  1  0
 13 14  1  0
 13 52  1  0
 13 53  1  0
 13 54  1  0
 14  9  1  0
 14 15  1  0
 14 55  1  6
 15 16  2  0
 16 17  1  0
 16 56  1  0
 17 20  1  0
 17 18  2  0
 18 19  1  0
 18 57  1  0
 19 15  1  0
 20 21  2  0
 20 22  1  0
 21 23  1  0
 22 24  1  0
 22 25  1  0
 26 27  1  0
 26 58  1  0
 26 59  1  0
 28 29  1  0
 28 60  1  0
 28 61  1  0
 29 30  1  0
 29 32  1  0
 30 31  2  0
 30 33  1  0
 33 34  2  0
 34 35  1  0
 34 62  1  0
 35 36  2  0
 35 63  1  0
 36 37  1  0
 37 38  1  0
 37 46  1  0
 38 39  2  0
 39 40  1  0
 39 64  1  0
 40 41  2  0
 40 65  1  0
 41 42  1  0
 41 66  1  0
 42 43  2  0
 42 67  1  0
 43 44  1  0
 43 38  1  0
 44 45  2  0
 44 36  1  0
 45 33  1  0
 45 68  1  0
M  END
>  <minimizedAffinity>  (6) 
-10.44199

>  <mol_id>  (6) 
76886

>  <source_index>  (6) 
5

>  <layer>  (6) 
L4

>  <uniprot>  (6) 
P09871

>  <paff>  (6) 
7

>  <smiles>  (6) 
C[C@@H](NC(=O)[C@@H]1C[C@](F)(CF)CN1C(=O)CNC(=O)c1ccc2[nH]c3ccccc3c2c1)c1cc(C(=N)N)cs1

>  <aimnet_interaction_kcal_mol>  (6) 
-127.13967009210572

$$$$
L4:P09871:77799
     RDKit          3D

 65 69  0  0  0  0  0  0  0  0999 V2000
   14.1952   -2.8545   -4.0727 C   0  0  2  0  0  0  0  0  0  0  0  0
   15.5544   -2.6682   -3.4107 C   0  0  0  0  0  0  0  0  0  0  0  0
   16.6043   -2.6360   -4.5340 C   0  0  0  0  0  0  0  0  0  0  0  0
   15.8646   -2.9507   -5.8414 C   0  0  0  0  0  0  0  0  0  0  0  0
   14.5045   -3.2624   -5.4457 N   0  0  0  0  0  0  0  0  0  0  0  0
   13.5122   -3.7707   -6.2165 C   0  0  0  0  0  0  0  0  0  0  0  0
   12.4432   -4.1624   -5.7384 O   0  0  0  0  0  0  0  0  0  0  0  0
   17.2268   -1.3413   -4.6046 O   0  0  0  0  0  0  0  0  0  0  0  0
   18.4363   -1.4660   -3.8106 C   0  0  0  0  0  0  0  0  0  0  0  0
   18.8642   -2.8889   -4.0712 C   0  0  0  0  0  0  0  0  0  0  0  0
   17.6191   -3.5748   -4.3261 O   0  0  0  0  0  0  0  0  0  0  0  0
   12.0554   -1.7458   -4.0585 N   0  0  0  0  0  0  0  0  0  0  0  0
   13.3727   -1.5742   -4.1244 C   0  0  0  0  0  0  0  0  0  0  0  0
   13.9280   -0.4627   -4.2752 O   0  0  0  0  0  0  0  0  0  0  0  0
   11.6781   -2.6629   -4.2562 H   0  0  0  0  0  0  0  0  0  0  0  0
   11.1330   -0.6158   -4.0732 C   0  0  0  0  0  0  0  0  0  0  0  0
    7.4210   -1.1429   -3.8409 C   0  0  0  0  0  0  0  0  0  0  0  0
    7.6049   -1.2757   -2.4888 C   0  0  0  0  0  0  0  0  0  0  0  0
    9.2792   -1.2396   -2.0479 S   0  0  0  0  0  0  0  0  0  0  0  0
    9.7489   -0.9845   -3.7127 C   0  0  0  0  0  0  0  0  0  0  0  0
    8.6630   -1.0200   -4.5312 C   0  0  0  0  0  0  0  0  0  0  0  0
    5.9507   -0.9029   -5.7659 N   0  0  0  0  0  0  0  0  0  0  0  0
    6.1042   -1.0078   -4.4985 C   0  0  0  0  0  0  0  0  0  0  0  0
    5.0297   -0.8762   -3.6377 N   0  0  0  0  0  0  0  0  0  0  0  0
    6.7443   -1.3001   -6.2713 H   0  0  0  0  0  0  0  0  0  0  0  0
    4.1478   -0.6092   -4.0678 H   0  0  0  0  0  0  0  0  0  0  0  0
    4.8964   -1.6476   -3.0032 H   0  0  0  0  0  0  0  0  0  0  0  0
   13.7256   -3.8215   -7.7085 C   0  0  0  0  0  0  0  0  0  0  0  0
   13.4589   -5.1452   -8.1736 N   0  0  0  0  0  0  0  0  0  0  0  0
   14.3487   -5.7747   -8.9897 C   0  0  0  0  0  0  0  0  0  0  0  0
   15.3666   -5.2092   -9.4075 O   0  0  0  0  0  0  0  0  0  0  0  0
   12.7316   -5.6520   -7.6977 H   0  0  0  0  0  0  0  0  0  0  0  0
   14.0107   -7.1315   -9.3787 C   0  0  0  0  0  0  0  0  0  0  0  0
   14.4582   -7.9394  -10.3878 C   0  0  0  0  0  0  0  0  0  0  0  0
   13.7092   -9.1301  -10.3236 C   0  0  0  0  0  0  0  0  0  0  0  0
   12.8470   -9.0103   -9.2577 C   0  0  0  0  0  0  0  0  0  0  0  0
   13.0086   -7.7769   -8.6875 O   0  0  0  0  0  0  0  0  0  0  0  0
   11.8958   -9.9377   -8.6947 C   0  0  0  0  0  0  0  0  0  0  0  0
   11.3707  -10.9482   -9.5092 C   0  0  0  0  0  0  0  0  0  0  0  0
   10.5428  -11.9284   -8.9937 C   0  0  0  0  0  0  0  0  0  0  0  0
   10.2381  -11.9015   -7.6452 C   0  0  0  0  0  0  0  0  0  0  0  0
    9.4333  -12.8679   -7.1339 F   0  0  0  0  0  0  0  0  0  0  0  0
   10.7347  -10.9179   -6.8115 C   0  0  0  0  0  0  0  0  0  0  0  0
   11.5359   -9.9245   -7.3437 C   0  0  0  0  0  0  0  0  0  0  0  0
   13.6076   -3.6379   -3.6076 H   0  0  0  0  0  0  0  0  0  0  0  0
   15.7693   -3.5177   -2.7684 H   0  0  0  0  0  0  0  0  0  0  0  0
   15.5909   -1.7638   -2.8131 H   0  0  0  0  0  0  0  0  0  0  0  0
   16.3314   -3.7943   -6.3470 H   0  0  0  0  0  0  0  0  0  0  0  0
   15.8983   -2.0912   -6.5158 H   0  0  0  0  0  0  0  0  0  0  0  0
   18.2081   -1.3023   -2.7568 H   0  0  0  0  0  0  0  0  0  0  0  0
   19.1469   -0.7184   -4.1511 H   0  0  0  0  0  0  0  0  0  0  0  0
   19.3592   -3.3564   -3.2260 H   0  0  0  0  0  0  0  0  0  0  0  0
   19.4980   -2.9688   -4.9557 H   0  0  0  0  0  0  0  0  0  0  0  0
   11.5405    0.1383   -3.3988 H   0  0  0  0  0  0  0  0  0  0  0  0
   11.1390   -0.1616   -5.0702 H   0  0  0  0  0  0  0  0  0  0  0  0
    6.8464   -1.3183   -1.7300 H   0  0  0  0  0  0  0  0  0  0  0  0
    8.7455   -0.9063   -5.6025 H   0  0  0  0  0  0  0  0  0  0  0  0
   14.7248   -3.5410   -8.0110 H   0  0  0  0  0  0  0  0  0  0  0  0
   13.0222   -3.1113   -8.1573 H   0  0  0  0  0  0  0  0  0  0  0  0
   15.2315   -7.6938  -11.0926 H   0  0  0  0  0  0  0  0  0  0  0  0
   13.8061   -9.9862  -10.9679 H   0  0  0  0  0  0  0  0  0  0  0  0
   11.6194  -10.9615  -10.5605 H   0  0  0  0  0  0  0  0  0  0  0  0
   10.1405  -12.7093   -9.6230 H   0  0  0  0  0  0  0  0  0  0  0  0
   10.4935  -10.9241   -5.7600 H   0  0  0  0  0  0  0  0  0  0  0  0
   11.8967   -9.1396   -6.6953 H   0  0  0  0  0  0  0  0  0  0  0  0
  1  2  1  0
  1 45  1  1
  2  3  1  0
  2 46  1  0
  2 47  1  0
  3  4  1  0
  3  8  1  0
  4  5  1  0
  4 48  1  0
  4 49  1  0
  5  6  1  0
  5  1  1  0
  6  7  2  0
  6 28  1  0
  8  9  1  0
  9 10  1  0
  9 50  1  0
  9 51  1  0
 10 11  1  0
 10 52  1  0
 10 53  1  0
 11  3  1  0
 12 13  1  0
 12 15  1  0
 13 14  2  0
 13  1  1  0
 16 12  1  0
 16 54  1  0
 16 55  1  0
 17 18  2  0
 18 19  1  0
 18 56  1  0
 19 20  1  0
 20 16  1  0
 20 21  2  0
 21 17  1  0
 21 57  1  0
 22 23  2  0
 22 25  1  0
 23 24  1  0
 23 17  1  0
 24 26  1  0
 24 27  1  0
 28 29  1  0
 28 58  1  0
 28 59  1  0
 29 30  1  0
 29 32  1  0
 30 31  2  0
 30 33  1  0
 33 34  2  0
 34 35  1  0
 34 60  1  0
 35 36  2  0
 35 61  1  0
 36 38  1  0
 36 37  1  0
 37 33  1  0
 38 39  2  0
 39 40  1  0
 39 62  1  0
 40 41  2  0
 40 63  1  0
 41 42  1  0
 41 43  1  0
 43 44  2  0
 43 64  1  0
 44 38  1  0
 44 65  1  0
M  END
>  <minimizedAffinity>  (7) 
-9.44623

>  <mol_id>  (7) 
77799

>  <source_index>  (7) 
6

>  <layer>  (7) 
L4

>  <uniprot>  (7) 
P09871

>  <paff>  (7) 
7

>  <smiles>  (7) 
N=C(N)c1csc(CNC(=O)[C@@H]2CC3(CN2C(=O)CNC(=O)c2ccc(-c4ccc(F)cc4)o2)OCCO3)c1

>  <aimnet_interaction_kcal_mol>  (7) 
-103.25563807482214

$$$$
L4:P09871:81308
     RDKit          3D

 78 82  0  0  0  0  0  0  0  0999 V2000
   14.2728   -2.8780   -4.5553 C   0  0  2  0  0  0  0  0  0  0  0  0
   15.4120   -2.9255   -3.5161 C   0  0  0  0  0  0  0  0  0  0  0  0
   16.6609   -3.3497   -4.2865 C   0  0  1  0  0  0  0  0  0  0  0  0
   16.4666   -2.7211   -5.6516 C   0  0  0  0  0  0  0  0  0  0  0  0
   15.0144   -2.6755   -5.8208 N   0  0  0  0  0  0  0  0  0  0  0  0
   14.5361   -2.2857   -7.0166 C   0  0  0  0  0  0  0  0  0  0  0  0
   15.2248   -1.5494   -7.7541 O   0  0  0  0  0  0  0  0  0  0  0  0
   18.0024   -2.9605   -3.6825 C   0  0  0  0  0  0  0  0  0  0  0  0
   18.9724   -3.1729   -4.6795 O   0  0  0  0  0  0  0  0  0  0  0  0
   20.1639   -2.3838   -4.4801 C   0  0  0  0  0  0  0  0  0  0  0  0
   20.3757   -2.0664   -3.0190 C   0  0  0  0  0  0  0  0  0  0  0  0
   19.1650   -1.3250   -2.4773 C   0  0  0  0  0  0  0  0  0  0  0  0
   17.9787   -1.6131   -3.2719 O   0  0  0  0  0  0  0  0  0  0  0  0
   12.1642   -1.9603   -3.6787 N   0  0  0  0  0  0  0  0  0  0  0  0
   13.3618   -1.6917   -4.2200 C   0  0  0  0  0  0  0  0  0  0  0  0
   13.7700   -0.5335   -4.4433 O   0  0  0  0  0  0  0  0  0  0  0  0
   11.9810   -2.8731   -3.2804 H   0  0  0  0  0  0  0  0  0  0  0  0
   10.6271   -0.8965   -2.0404 C   0  0  0  0  0  0  0  0  0  0  0  0
   11.1351   -0.9094   -3.4726 C   0  0  2  0  0  0  0  0  0  0  0  0
    9.9891   -1.0277   -4.4202 C   0  0  0  0  0  0  0  0  0  0  0  0
    8.6515   -1.0058   -4.1615 C   0  0  0  0  0  0  0  0  0  0  0  0
    7.8276   -1.1521   -5.3195 C   0  0  0  0  0  0  0  0  0  0  0  0
    8.5721   -1.3626   -6.4479 C   0  0  0  0  0  0  0  0  0  0  0  0
   10.2626   -1.1936   -6.1450 S   0  0  0  0  0  0  0  0  0  0  0  0
    6.3720   -0.8995   -5.3805 C   0  0  0  0  0  0  0  0  0  0  0  0
    5.7865   -0.5348   -6.4663 N   0  0  0  0  0  0  0  0  0  0  0  0
    5.7076   -0.9166   -4.1926 N   0  0  0  0  0  0  0  0  0  0  0  0
    5.9959   -1.1051   -7.2881 H   0  0  0  0  0  0  0  0  0  0  0  0
    4.7131   -0.7265   -4.2251 H   0  0  0  0  0  0  0  0  0  0  0  0
    6.0340   -1.4982   -3.4404 H   0  0  0  0  0  0  0  0  0  0  0  0
   13.1542   -2.7864   -7.4058 C   0  0  0  0  0  0  0  0  0  0  0  0
   13.0922   -4.2096   -7.6721 N   0  0  0  0  0  0  0  0  0  0  0  0
   12.4299   -5.0758   -6.8483 C   0  0  0  0  0  0  0  0  0  0  0  0
   11.8962   -4.6671   -5.8102 O   0  0  0  0  0  0  0  0  0  0  0  0
   13.6955   -4.5706   -8.3866 H   0  0  0  0  0  0  0  0  0  0  0  0
   12.3665   -6.4920   -7.2604 C   0  0  0  0  0  0  0  0  0  0  0  0
   11.8178   -7.3940   -6.3495 C   0  0  0  0  0  0  0  0  0  0  0  0
   11.6005   -8.7096   -6.6844 C   0  0  0  0  0  0  0  0  0  0  0  0
   11.9904   -9.1778   -7.9292 C   0  0  0  0  0  0  0  0  0  0  0  0
   12.6281   -8.3225   -8.8204 C   0  0  0  0  0  0  0  0  0  0  0  0
   12.7923   -6.9891   -8.4969 C   0  0  0  0  0  0  0  0  0  0  0  0
   11.7986  -10.4972   -8.2698 O   0  0  0  0  0  0  0  0  0  0  0  0
   10.5029  -10.9878   -8.1532 C   0  0  0  0  0  0  0  0  0  0  0  0
    9.4607  -10.3833   -8.8404 C   0  0  0  0  0  0  0  0  0  0  0  0
    8.1870  -10.9310   -8.7922 C   0  0  0  0  0  0  0  0  0  0  0  0
    7.9801  -12.0754   -8.0462 C   0  0  0  0  0  0  0  0  0  0  0  0
    6.7343  -12.6185   -7.9954 F   0  0  0  0  0  0  0  0  0  0  0  0
    9.0039  -12.6743   -7.3395 C   0  0  0  0  0  0  0  0  0  0  0  0
   10.2774  -12.1210   -7.3893 C   0  0  0  0  0  0  0  0  0  0  0  0
   13.6894   -3.7947   -4.6222 H   0  0  0  0  0  0  0  0  0  0  0  0
   15.1732   -3.5662   -2.6752 H   0  0  0  0  0  0  0  0  0  0  0  0
   15.5646   -1.9231   -3.1252 H   0  0  0  0  0  0  0  0  0  0  0  0
   16.6812   -4.4349   -4.3998 H   0  0  0  0  0  0  0  0  0  0  0  0
   16.9311   -3.2897   -6.4539 H   0  0  0  0  0  0  0  0  0  0  0  0
   16.9000   -1.7237   -5.6905 H   0  0  0  0  0  0  0  0  0  0  0  0
   18.2307   -3.5911   -2.8137 H   0  0  0  0  0  0  0  0  0  0  0  0
   20.0713   -1.4589   -5.0592 H   0  0  0  0  0  0  0  0  0  0  0  0
   20.9873   -2.9576   -4.8909 H   0  0  0  0  0  0  0  0  0  0  0  0
   21.2698   -1.4518   -2.9157 H   0  0  0  0  0  0  0  0  0  0  0  0
   20.5436   -2.9783   -2.4511 H   0  0  0  0  0  0  0  0  0  0  0  0
   19.2929   -0.2458   -2.5350 H   0  0  0  0  0  0  0  0  0  0  0  0
   18.9815   -1.6116   -1.4419 H   0  0  0  0  0  0  0  0  0  0  0  0
   11.4409   -1.0413   -1.3466 H   0  0  0  0  0  0  0  0  0  0  0  0
    9.9209   -1.6987   -1.8597 H   0  0  0  0  0  0  0  0  0  0  0  0
   10.1280    0.0512   -1.8350 H   0  0  0  0  0  0  0  0  0  0  0  0
   11.6588    0.0256   -3.6560 H   0  0  0  0  0  0  0  0  0  0  0  0
    8.2426   -0.8316   -3.1803 H   0  0  0  0  0  0  0  0  0  0  0  0
    8.2160   -1.6107   -7.4314 H   0  0  0  0  0  0  0  0  0  0  0  0
   12.8567   -2.2342   -8.2957 H   0  0  0  0  0  0  0  0  0  0  0  0
   12.4337   -2.5715   -6.6224 H   0  0  0  0  0  0  0  0  0  0  0  0
   11.5680   -7.0585   -5.3590 H   0  0  0  0  0  0  0  0  0  0  0  0
   11.1242   -9.3930   -5.9985 H   0  0  0  0  0  0  0  0  0  0  0  0
   12.9865   -8.7095   -9.7636 H   0  0  0  0  0  0  0  0  0  0  0  0
   13.2395   -6.3476   -9.2446 H   0  0  0  0  0  0  0  0  0  0  0  0
    9.6464   -9.4806   -9.4053 H   0  0  0  0  0  0  0  0  0  0  0  0
    7.3607  -10.4799   -9.3231 H   0  0  0  0  0  0  0  0  0  0  0  0
    8.8036  -13.5582   -6.7514 H   0  0  0  0  0  0  0  0  0  0  0  0
   11.0842  -12.5617   -6.8223 H   0  0  0  0  0  0  0  0  0  0  0  0
  1  2  1  0
  1 50  1  6
  2  3  1  0
  2 51  1  0
  2 52  1  0
  3  8  1  0
  3  4  1  0
  3 53  1  6
  4  5  1  0
  4 54  1  0
  4 55  1  0
  5  6  1  0
  5  1  1  0
  6  7  2  0
  6 31  1  0
  8  9  1  0
  8 56  1  0
  9 10  1  0
 10 11  1  0
 10 57  1  0
 10 58  1  0
 11 12  1  0
 11 59  1  0
 11 60  1  0
 12 13  1  0
 12 61  1  0
 12 62  1  0
 13  8  1  0
 14 15  1  0
 14 17  1  0
 15 16  2  0
 15  1  1  0
 18 19  1  0
 18 63  1  0
 18 64  1  0
 18 65  1  0
 19 14  1  0
 19 20  1  0
 19 66  1  6
 20 21  2  0
 21 22  1  0
 21 67  1  0
 22 25  1  0
 22 23  2  0
 23 24  1  0
 23 68  1  0
 24 20  1  0
 25 26  2  0
 25 27  1  0
 26 28  1  0
 27 29  1  0
 27 30  1  0
 31 32  1  0
 31 69  1  0
 31 70  1  0
 32 33  1  0
 32 35  1  0
 33 34  2  0
 33 36  1  0
 36 37  2  0
 37 38  1  0
 37 71  1  0
 38 39  2  0
 38 72  1  0
 39 42  1  0
 39 40  1  0
 40 41  2  0
 40 73  1  0
 41 36  1  0
 41 74  1  0
 42 43  1  0
 43 44  2  0
 44 45  1  0
 44 75  1  0
 45 46  2  0
 45 76  1  0
 46 47  1  0
 46 48  1  0
 48 49  2  0
 48 77  1  0
 49 43  1  0
 49 78  1  0
M  END
>  <minimizedAffinity>  (8) 
-9.69871

>  <mol_id>  (8) 
81308

>  <source_index>  (8) 
7

>  <layer>  (8) 
L4

>  <uniprot>  (8) 
P09871

>  <paff>  (8) 
7

>  <smiles>  (8) 
C[C@@H](NC(=O)[C@@H]1C[C@H](C2OCCCO2)CN1C(=O)CNC(=O)c1ccc(Oc2ccc(F)cc2)cc1)c1cc(C(=N)N)cs1

>  <aimnet_interaction_kcal_mol>  (8) 
-133.06462273682126

$$$$
L4:P09871:102062
     RDKit          3D

 68 72  0  0  0  0  0  0  0  0999 V2000
   14.0593   -2.8589   -4.1818 C   0  0  2  0  0  0  0  0  0  0  0  0
   14.9800   -2.8693   -2.9598 C   0  0  0  0  0  0  0  0  0  0  0  0
   16.3589   -3.1766   -3.4920 C   0  0  2  0  0  0  0  0  0  0  0  0
   16.3727   -2.4986   -4.8435 C   0  0  0  0  0  0  0  0  0  0  0  0
   14.9974   -2.6856   -5.3032 N   0  0  0  0  0  0  0  0  0  0  0  0
   14.6624   -2.3777   -6.5786 C   0  0  0  0  0  0  0  0  0  0  0  0
   15.4469   -1.7376   -7.3002 O   0  0  0  0  0  0  0  0  0  0  0  0
   11.9881   -1.8730   -3.3365 N   0  0  0  0  0  0  0  0  0  0  0  0
   13.1244   -1.6565   -4.0141 C   0  0  0  0  0  0  0  0  0  0  0  0
   13.4944   -0.5529   -4.4552 O   0  0  0  0  0  0  0  0  0  0  0  0
   11.9273   -2.6448   -2.6701 H   0  0  0  0  0  0  0  0  0  0  0  0
   10.3674   -0.7721   -1.8413 C   0  0  0  0  0  0  0  0  0  0  0  0
   10.9196   -0.8536   -3.2525 C   0  0  2  0  0  0  0  0  0  0  0  0
    9.8047   -1.1006   -4.2057 C   0  0  0  0  0  0  0  0  0  0  0  0
    8.4611   -1.0556   -3.9927 C   0  0  0  0  0  0  0  0  0  0  0  0
    7.6761   -1.2158   -5.1724 C   0  0  0  0  0  0  0  0  0  0  0  0
    8.4470   -1.4924   -6.2673 C   0  0  0  0  0  0  0  0  0  0  0  0
   10.1307   -1.3999   -5.8980 S   0  0  0  0  0  0  0  0  0  0  0  0
    6.2315   -0.9302   -5.2663 C   0  0  0  0  0  0  0  0  0  0  0  0
    5.6844   -0.4631   -6.3239 N   0  0  0  0  0  0  0  0  0  0  0  0
    5.5284   -1.0514   -4.1005 N   0  0  0  0  0  0  0  0  0  0  0  0
    6.0661   -0.8223   -7.1916 H   0  0  0  0  0  0  0  0  0  0  0  0
    4.5353   -0.8582   -4.1515 H   0  0  0  0  0  0  0  0  0  0  0  0
    5.8157   -1.7408   -3.4254 H   0  0  0  0  0  0  0  0  0  0  0  0
   16.5073   -4.5865   -3.7325 O   0  0  0  0  0  0  0  0  0  0  0  0
   17.7629   -5.1023   -3.5717 C   0  0  0  0  0  0  0  0  0  0  0  0
   17.8679   -5.6049   -2.2856 F   0  0  0  0  0  0  0  0  0  0  0  0
   18.7276   -4.1643   -3.7209 F   0  0  0  0  0  0  0  0  0  0  0  0
   13.2784   -2.7936   -7.0225 C   0  0  0  0  0  0  0  0  0  0  0  0
   13.0979   -4.2244   -7.1849 N   0  0  0  0  0  0  0  0  0  0  0  0
   12.1277   -4.6478   -8.0796 C   0  0  0  0  0  0  0  0  0  0  0  0
   11.6458   -3.8738   -8.8996 O   0  0  0  0  0  0  0  0  0  0  0  0
   13.2369   -4.7991   -6.3689 H   0  0  0  0  0  0  0  0  0  0  0  0
   11.7195   -6.0649   -7.9969 C   0  0  0  0  0  0  0  0  0  0  0  0
   12.5057   -7.0542   -7.3876 C   0  0  0  0  0  0  0  0  0  0  0  0
   12.0706   -8.3619   -7.3358 C   0  0  0  0  0  0  0  0  0  0  0  0
   10.8702   -8.7279   -7.9513 C   0  0  0  0  0  0  0  0  0  0  0  0
   10.1235   -7.7330   -8.6185 C   0  0  0  0  0  0  0  0  0  0  0  0
   10.5099   -6.4101   -8.6046 C   0  0  0  0  0  0  0  0  0  0  0  0
    8.7040   -8.4158   -9.4251 S   0  0  0  0  0  0  0  0  0  0  0  0
    9.0792  -10.0155   -8.7928 C   0  0  0  0  0  0  0  0  0  0  0  0
    8.3295  -11.1661   -8.9799 C   0  0  0  0  0  0  0  0  0  0  0  0
    8.7242  -12.3298   -8.3360 C   0  0  0  0  0  0  0  0  0  0  0  0
    9.8476  -12.3411   -7.5091 C   0  0  0  0  0  0  0  0  0  0  0  0
   10.6053  -11.1967   -7.3352 C   0  0  0  0  0  0  0  0  0  0  0  0
   10.2450  -10.0223   -7.9969 C   0  0  0  0  0  0  0  0  0  0  0  0
   13.4885   -3.7803   -4.3099 H   0  0  0  0  0  0  0  0  0  0  0  0
   14.6544   -3.5341   -2.1725 H   0  0  0  0  0  0  0  0  0  0  0  0
   14.9988   -1.8618   -2.5477 H   0  0  0  0  0  0  0  0  0  0  0  0
   17.1414   -2.8356   -2.8197 H   0  0  0  0  0  0  0  0  0  0  0  0
   17.0787   -2.9328   -5.5411 H   0  0  0  0  0  0  0  0  0  0  0  0
   16.6237   -1.4445   -4.7127 H   0  0  0  0  0  0  0  0  0  0  0  0
   11.1575   -0.8288   -1.1058 H   0  0  0  0  0  0  0  0  0  0  0  0
    9.6991   -1.6037   -1.6398 H   0  0  0  0  0  0  0  0  0  0  0  0
    9.8125    0.1574   -1.7224 H   0  0  0  0  0  0  0  0  0  0  0  0
   11.4048    0.0894   -3.4979 H   0  0  0  0  0  0  0  0  0  0  0  0
    8.0077   -0.8611   -3.0355 H   0  0  0  0  0  0  0  0  0  0  0  0
    8.1215   -1.7614   -7.2550 H   0  0  0  0  0  0  0  0  0  0  0  0
   17.9515   -5.9077   -4.2685 H   0  0  0  0  0  0  0  0  0  0  0  0
   13.0897   -2.3293   -7.9840 H   0  0  0  0  0  0  0  0  0  0  0  0
   12.5389   -2.4120   -6.3141 H   0  0  0  0  0  0  0  0  0  0  0  0
   13.4915   -6.8156   -7.0141 H   0  0  0  0  0  0  0  0  0  0  0  0
   12.6633   -9.1215   -6.8563 H   0  0  0  0  0  0  0  0  0  0  0  0
    9.8920   -5.6370   -9.0302 H   0  0  0  0  0  0  0  0  0  0  0  0
    7.4508  -11.1495   -9.6097 H   0  0  0  0  0  0  0  0  0  0  0  0
    8.1451  -13.2332   -8.4719 H   0  0  0  0  0  0  0  0  0  0  0  0
   10.1229  -13.2510   -6.9942 H   0  0  0  0  0  0  0  0  0  0  0  0
   11.4391  -11.1968   -6.6498 H   0  0  0  0  0  0  0  0  0  0  0  0
  1  2  1  0
  1 47  1  6
  2  3  1  0
  2 48  1  0
  2 49  1  0
  3 25  1  0
  3  4  1  0
  3 50  1  1
  4  5  1  0
  4 51  1  0
  4 52  1  0
  5  6  1  0
  5  1  1  0
  6  7  2  0
  6 29  1  0
  8  9  1  0
  8 11  1  0
  9 10  2  0
  9  1  1  0
 12 13  1  0
 12 53  1  0
 12 54  1  0
 12 55  1  0
 13  8  1  0
 13 14  1  0
 13 56  1  6
 14 15  2  0
 15 16  1  0
 15 57  1  0
 16 19  1  0
 16 17  2  0
 17 18  1  0
 17 58  1  0
 18 14  1  0
 19 20  2  0
 19 21  1  0
 20 22  1  0
 21 23  1  0
 21 24  1  0
 25 26  1  0
 26 27  1  0
 26 28  1  0
 26 59  1  0
 29 30  1  0
 29 60  1  0
 29 61  1  0
 30 31  1  0
 30 33  1  0
 31 32  2  0
 31 34  1  0
 34 35  2  0
 35 36  1  0
 35 62  1  0
 36 37  2  0
 36 63  1  0
 37 38  1  0
 38 39  2  0
 38 40  1  0
 39 34  1  0
 39 64  1  0
 40 41  1  0
 41 42  2  0
 42 43  1  0
 42 65  1  0
 43 44  2  0
 43 66  1  0
 44 45  1  0
 44 67  1  0
 45 46  2  0
 45 68  1  0
 46 41  1  0
 46 37  1  0
M  END
>  <minimizedAffinity>  (9) 
-9.52523

>  <mol_id>  (9) 
102062

>  <source_index>  (9) 
8

>  <layer>  (9) 
L4

>  <uniprot>  (9) 
P09871

>  <paff>  (9) 
7

>  <smiles>  (9) 
C[C@@H](NC(=O)[C@@H]1C[C@@H](OC(F)F)CN1C(=O)CNC(=O)c1ccc2c(c1)sc1ccccc12)c1cc(C(=N)N)cs1

>  <aimnet_interaction_kcal_mol>  (9) 
-108.28720599052608

$$$$
L4:P09871:116768
     RDKit          3D

107110  0  0  0  0  0  0  0  0999 V2000
   15.4867   -3.2540   -5.3794 C   0  0  2  0  0  0  0  0  0  0  0  0
   14.9446   -2.5466   -6.5902 C   0  0  0  0  0  0  0  0  0  0  0  0
   14.4329   -3.8954   -6.1975 C   0  0  2  0  0  0  0  0  0  0  0  0
   13.2008   -3.8601   -5.4581 N   0  0  0  0  0  0  0  0  0  0  0  0
   11.9922   -4.1675   -5.9653 C   0  0  0  0  0  0  0  0  0  0  0  0
   10.9678   -4.1755   -5.2682 O   0  0  0  0  0  0  0  0  0  0  0  0
   13.3748   -3.1001   -4.1957 C   0  0  1  0  0  0  0  0  0  0  0  0
   14.8877   -2.9817   -4.0222 C   0  0  0  0  0  0  0  0  0  0  0  0
   12.7178   -1.7064   -4.2353 C   0  0  0  0  0  0  0  0  0  0  0  0
   13.3835   -0.6795   -4.4652 O   0  0  0  0  0  0  0  0  0  0  0  0
   11.4156   -1.7452   -3.9676 N   0  0  0  0  0  0  0  0  0  0  0  0
   10.9222   -2.6008   -4.1891 H   0  0  0  0  0  0  0  0  0  0  0  0
   10.5935   -0.5973   -3.5718 C   0  0  2  0  0  0  0  0  0  0  0  0
   10.4433   -0.5908   -2.0598 C   0  0  0  0  0  0  0  0  0  0  0  0
    9.2713   -0.6453   -4.2404 C   0  0  0  0  0  0  0  0  0  0  0  0
    8.0754   -0.8488   -3.6381 C   0  0  0  0  0  0  0  0  0  0  0  0
    7.0215   -1.1872   -4.5327 C   0  0  0  0  0  0  0  0  0  0  0  0
    7.4389   -1.1677   -5.8338 C   0  0  0  0  0  0  0  0  0  0  0  0
    9.0954   -0.6664   -5.9827 S   0  0  0  0  0  0  0  0  0  0  0  0
    5.6659   -1.5822   -4.0958 C   0  0  0  0  0  0  0  0  0  0  0  0
    5.3998   -1.9840   -2.8971 N   0  0  0  0  0  0  0  0  0  0  0  0
    4.7139   -1.6180   -5.0590 N   0  0  0  0  0  0  0  0  0  0  0  0
    6.0907   -1.6619   -2.2209 H   0  0  0  0  0  0  0  0  0  0  0  0
    3.7278   -1.5496   -4.8187 H   0  0  0  0  0  0  0  0  0  0  0  0
    4.9188   -1.2203   -5.9545 H   0  0  0  0  0  0  0  0  0  0  0  0
   11.9144   -4.4586   -7.4469 C   0  0  0  0  0  0  0  0  0  0  0  0
   10.6569   -3.9670   -7.9277 N   0  0  0  0  0  0  0  0  0  0  0  0
   10.5849   -3.0141   -8.8904 C   0  0  0  0  0  0  0  0  0  0  0  0
   11.5798   -2.4357   -9.3279 O   0  0  0  0  0  0  0  0  0  0  0  0
    9.8482   -4.2016   -7.3670 H   0  0  0  0  0  0  0  0  0  0  0  0
    9.2042   -2.7674   -9.4507 C   0  0  0  0  0  0  0  0  0  0  0  0
    8.8916   -3.6679  -10.6484 C   0  0  0  0  0  0  0  0  0  0  0  0
    8.9869   -5.1425  -10.3212 C   0  0  0  0  0  0  0  0  0  0  0  0
   10.2903   -5.6464  -10.6441 O   0  0  0  0  0  0  0  0  0  0  0  0
   10.7262   -6.7821  -10.0335 C   0  0  0  0  0  0  0  0  0  0  0  0
   10.3188   -7.2195   -8.7722 C   0  0  0  0  0  0  0  0  0  0  0  0
   10.8860   -8.3611   -8.2237 C   0  0  0  0  0  0  0  0  0  0  0  0
   11.8381   -9.0911   -8.9124 C   0  0  0  0  0  0  0  0  0  0  0  0
   12.2456   -8.6502  -10.1653 C   0  0  0  0  0  0  0  0  0  0  0  0
   11.7016   -7.5042  -10.7188 C   0  0  0  0  0  0  0  0  0  0  0  0
   16.8987   -3.7627   -5.4025 C   0  0  0  0  0  0  0  0  0  0  0  0
   17.5380   -3.3066   -4.2443 O   0  0  0  0  0  0  0  0  0  0  0  0
   18.9601   -3.3268   -4.3301 C   0  0  0  0  0  0  0  0  0  0  0  0
   19.4655   -1.9927   -4.8263 C   0  0  0  0  0  0  0  0  0  0  0  0
   18.6426    0.1480   -3.8734 C   0  0  0  0  0  0  0  0  0  0  0  0
   17.9529    0.5376   -4.8580 O   0  0  0  0  0  0  0  0  0  0  0  0
   19.2987   -0.9907   -3.8091 N   0  0  0  0  0  0  0  0  0  0  0  0
   19.8677   -1.1329   -2.9776 H   0  0  0  0  0  0  0  0  0  0  0  0
   18.8108    1.0230   -2.6254 C   0  0  0  0  0  0  0  0  0  0  0  0
   19.3804    0.3215   -1.5010 N   0  0  0  0  0  0  0  0  0  0  0  0
   18.6990    0.0087   -0.8302 H   0  0  0  0  0  0  0  0  0  0  0  0
   20.5599    0.8442   -0.8313 C   0  0  0  0  0  0  0  0  0  0  0  0
   21.6381   -0.2288   -0.6700 C   0  0  2  0  0  0  0  0  0  0  0  0
   22.5499    0.0904    0.4038 O   0  0  0  0  0  0  0  0  0  0  0  0
   22.0249    0.4102    1.1507 H   0  0  0  0  0  0  0  0  0  0  0  0
   22.4966   -0.4344   -1.9308 C   0  0  2  0  0  0  0  0  0  0  0  0
   22.0185    0.3948   -2.9912 O   0  0  0  0  0  0  0  0  0  0  0  0
   22.1998   -0.0755   -3.8277 H   0  0  0  0  0  0  0  0  0  0  0  0
   22.5936   -1.9223   -2.3213 C   0  0  1  0  0  0  0  0  0  0  0  0
   21.2966   -2.5133   -2.4155 O   0  0  0  0  0  0  0  0  0  0  0  0
   21.2241   -3.3063   -1.8376 H   0  0  0  0  0  0  0  0  0  0  0  0
   24.8267   -1.7597   -3.5053 C   0  0  0  0  0  0  0  0  0  0  0  0
   23.3680   -2.1691   -3.6251 C   0  0  2  0  0  0  0  0  0  0  0  0
   22.7145   -1.5030   -4.7010 O   0  0  0  0  0  0  0  0  0  0  0  0
   23.1002   -1.8012   -5.5953 H   0  0  0  0  0  0  0  0  0  0  0  0
   15.5578   -2.4839   -7.4808 H   0  0  0  0  0  0  0  0  0  0  0  0
   14.2370   -1.7469   -6.4600 H   0  0  0  0  0  0  0  0  0  0  0  0
   14.6244   -4.7763   -6.7971 H   0  0  0  0  0  0  0  0  0  0  0  0
   12.8906   -3.6687   -3.4034 H   0  0  0  0  0  0  0  0  0  0  0  0
   15.2320   -3.7258   -3.3115 H   0  0  0  0  0  0  0  0  0  0  0  0
   15.1819   -2.0119   -3.6325 H   0  0  0  0  0  0  0  0  0  0  0  0
   11.1480    0.2861   -3.8744 H   0  0  0  0  0  0  0  0  0  0  0  0
    9.7968   -1.4035   -1.7403 H   0  0  0  0  0  0  0  0  0  0  0  0
   10.0199    0.3545   -1.7205 H   0  0  0  0  0  0  0  0  0  0  0  0
   11.3958   -0.7711   -1.5803 H   0  0  0  0  0  0  0  0  0  0  0  0
    7.9418   -0.7515   -2.5734 H   0  0  0  0  0  0  0  0  0  0  0  0
    6.8931   -1.4700   -6.7092 H   0  0  0  0  0  0  0  0  0  0  0  0
   12.0054   -5.5414   -7.6121 H   0  0  0  0  0  0  0  0  0  0  0  0
   12.7084   -3.9612   -7.9962 H   0  0  0  0  0  0  0  0  0  0  0  0
    9.1539   -1.7237   -9.7535 H   0  0  0  0  0  0  0  0  0  0  0  0
    8.4593   -2.9197   -8.6733 H   0  0  0  0  0  0  0  0  0  0  0  0
    9.5552   -3.4295  -11.4787 H   0  0  0  0  0  0  0  0  0  0  0  0
    7.8739   -3.4522  -10.9784 H   0  0  0  0  0  0  0  0  0  0  0  0
    8.2499   -5.7204  -10.8872 H   0  0  0  0  0  0  0  0  0  0  0  0
    8.7796   -5.2796   -9.2673 H   0  0  0  0  0  0  0  0  0  0  0  0
    9.5879   -6.6729   -8.1988 H   0  0  0  0  0  0  0  0  0  0  0  0
   10.5716   -8.6751   -7.2360 H   0  0  0  0  0  0  0  0  0  0  0  0
   12.2507   -9.9913   -8.4782 H   0  0  0  0  0  0  0  0  0  0  0  0
   12.9970   -9.2017  -10.7166 H   0  0  0  0  0  0  0  0  0  0  0  0
   12.0205   -7.1417  -11.6870 H   0  0  0  0  0  0  0  0  0  0  0  0
   16.9178   -4.8640   -5.4365 H   0  0  0  0  0  0  0  0  0  0  0  0
   17.3986   -3.4083   -6.3158 H   0  0  0  0  0  0  0  0  0  0  0  0
   19.3384   -3.5255   -3.3343 H   0  0  0  0  0  0  0  0  0  0  0  0
   19.3077   -4.1361   -4.9699 H   0  0  0  0  0  0  0  0  0  0  0  0
   20.5257   -2.0676   -5.0481 H   0  0  0  0  0  0  0  0  0  0  0  0
   18.9428   -1.6864   -5.7326 H   0  0  0  0  0  0  0  0  0  0  0  0
   19.4502    1.8607   -2.9204 H   0  0  0  0  0  0  0  0  0  0  0  0
   17.8249    1.4452   -2.3956 H   0  0  0  0  0  0  0  0  0  0  0  0
   20.9576    1.6866   -1.3900 H   0  0  0  0  0  0  0  0  0  0  0  0
   20.3013    1.2049    0.1678 H   0  0  0  0  0  0  0  0  0  0  0  0
   21.1290   -1.1597   -0.4090 H   0  0  0  0  0  0  0  0  0  0  0  0
   23.5123   -0.1102   -1.6751 H   0  0  0  0  0  0  0  0  0  0  0  0
   23.1460   -2.4224   -1.5173 H   0  0  0  0  0  0  0  0  0  0  0  0
   25.3682   -2.0451   -4.4058 H   0  0  0  0  0  0  0  0  0  0  0  0
   25.3026   -2.2463   -2.6514 H   0  0  0  0  0  0  0  0  0  0  0  0
   24.9205   -0.6815   -3.3857 H   0  0  0  0  0  0  0  0  0  0  0  0
   23.3241   -3.2424   -3.8153 H   0  0  0  0  0  0  0  0  0  0  0  0
  1 41  1  1
  1  2  1  0
  2  3  1  0
  2 66  1  0
  2 67  1  0
  3  4  1  0
  3  1  1  0
  3 68  1  6
  4  5  1  0
  4  7  1  0
  5  6  2  0
  5 26  1  0
  7  9  1  0
  7  8  1  0
  7 69  1  1
  8  1  1  0
  8 70  1  0
  8 71  1  0
  9 10  2  0
  9 11  1  0
 11 13  1  0
 11 12  1  0
 13 14  1  0
 13 15  1  0
 13 72  1  6
 14 73  1  0
 14 74  1  0
 14 75  1  0
 15 16  2  0
 16 17  1  0
 16 76  1  0
 17 20  1  0
 17 18  2  0
 18 19  1  0
 18 77  1  0
 19 15  1  0
 20 21  2  0
 20 22  1  0
 21 23  1  0
 22 24  1  0
 22 25  1  0
 26 27  1  0
 26 78  1  0
 26 79  1  0
 27 28  1  0
 27 30  1  0
 28 29  2  0
 28 31  1  0
 31 32  1  0
 31 80  1  0
 31 81  1  0
 32 33  1  0
 32 82  1  0
 32 83  1  0
 33 34  1  0
 33 84  1  0
 33 85  1  0
 34 35  1  0
 35 36  2  0
 36 37  1  0
 36 86  1  0
 37 38  2  0
 37 87  1  0
 38 39  1  0
 38 88  1  0
 39 40  2  0
 39 89  1  0
 40 35  1  0
 40 90  1  0
 41 91  1  0
 41 92  1  0
 42 41  1  0
 43 42  1  0
 43 93  1  0
 43 94  1  0
 44 43  1  0
 44 95  1  0
 44 96  1  0
 45 46  2  0
 45 47  1  0
 47 44  1  0
 47 48  1  0
 49 45  1  0
 49 97  1  0
 49 98  1  0
 50 49  1  0
 50 51  1  0
 52 50  1  0
 52 99  1  0
 52100  1  0
 53 54  1  0
 53 52  1  0
 53101  1  1
 54 55  1  0
 56 57  1  0
 56 53  1  0
 56102  1  1
 57 58  1  0
 59 60  1  0
 59 56  1  0
 59103  1  1
 60 61  1  0
 62 63  1  0
 62104  1  0
 62105  1  0
 62106  1  0
 63 64  1  0
 63 59  1  0
 63107  1  6
 64 65  1  0
M  END
>  <minimizedAffinity>  (10) 
-7.90904

>  <mol_id>  (10) 
116768

>  <source_index>  (10) 
9

>  <layer>  (10) 
L4

>  <uniprot>  (10) 
P09871

>  <paff>  (10) 
7

>  <smiles>  (10) 
C[C@H](O)[C@H](O)[C@@H](O)[C@@H](O)CNCC(=O)NCCOC[C@@]12C[C@@H]1N(C(=O)CNC(=O)CCCOc1ccccc1)[C@H](C(=O)N[C@H](C)c1cc(C(=N)N)cs1)C2

>  <aimnet_interaction_kcal_mol>  (10) 
-196.15306387187903

$$$$
