L1:P50053:167
     RDKit          3D

 45 47  0  0  0  0  0  0  0  0999 V2000
   -4.8322   -0.7279   20.2738 C   0  0  0  0  0  0  0  0  0  0  0  0
   -4.1636   -0.3312   19.1653 N   0  0  0  0  0  0  0  0  0  0  0  0
   -3.4327   -1.1954   18.4310 C   0  0  0  0  0  0  0  0  0  0  0  0
   -3.3357   -2.5205   18.8269 C   0  0  0  0  0  0  0  0  0  0  0  0
   -4.0061   -2.9699   19.9733 C   0  0  0  0  0  0  0  0  0  0  0  0
   -4.7698   -2.0535   20.7091 C   0  0  0  0  0  0  0  0  0  0  0  0
   -2.7732   -0.7102   17.3331 N   0  0  0  0  0  0  0  0  0  0  0  0
   -1.8492   -1.4718   16.5052 C   0  0  0  0  0  0  0  0  0  0  0  0
   -1.4459   -0.4745   15.4213 C   0  0  0  0  0  0  0  0  0  0  0  0
   -2.7351    0.3001   15.1625 C   0  0  1  0  0  0  0  0  0  0  0  0
   -3.5792   -0.4410   14.2119 N   0  0  0  0  0  0  0  0  0  0  0  0
   -3.3533    0.4083   16.5819 C   0  0  0  0  0  0  0  0  0  0  0  0
   -3.1694   -0.3900   13.2802 H   0  0  0  0  0  0  0  0  0  0  0  0
   -4.4946    0.0043   14.1507 H   0  0  0  0  0  0  0  0  0  0  0  0
   -3.8974   -4.4091   20.3922 C   0  0  0  0  0  0  0  0  0  0  0  0
   -3.0381   -4.5828   21.4311 F   0  0  0  0  0  0  0  0  0  0  0  0
   -5.0824   -4.9426   20.8019 F   0  0  0  0  0  0  0  0  0  0  0  0
   -3.4605   -5.2136   19.3879 F   0  0  0  0  0  0  0  0  0  0  0  0
   -5.5674    0.2278   21.0121 N   0  0  0  0  0  0  0  0  0  0  0  0
   -5.4514    0.1119   22.0190 H   0  0  0  0  0  0  0  0  0  0  0  0
   -7.0024    1.9875   20.0855 C   0  0  0  0  0  0  0  0  0  0  0  0
   -8.2762    2.4755   19.7604 C   0  0  0  0  0  0  0  0  0  0  0  0
   -9.4169    1.7479   20.0972 C   0  0  0  0  0  0  0  0  0  0  0  0
   -9.2909    0.5235   20.7461 C   0  0  0  0  0  0  0  0  0  0  0  0
   -8.0247    0.0223   21.0569 C   0  0  0  0  0  0  0  0  0  0  0  0
   -6.8633    0.7451   20.7477 C   0  0  0  0  0  0  0  0  0  0  0  0
   -5.7527    2.9883   17.8401 C   0  0  0  0  0  0  0  0  0  0  0  0
   -5.5458    2.9453   19.6410 S   0  0  0  0  0  0  0  0  0  0  0  0
   -5.4747   -2.4640   21.8871 C   0  0  0  0  0  0  0  0  0  0  0  0
   -6.0730   -2.7896   22.8257 N   0  0  0  0  0  0  0  0  0  0  0  0
   -2.7664   -3.1803   18.2742 H   0  0  0  0  0  0  0  0  0  0  0  0
   -2.3314   -2.3268   16.0793 H   0  0  0  0  0  0  0  0  0  0  0  0
   -1.0141   -1.8553   17.0533 H   0  0  0  0  0  0  0  0  0  0  0  0
   -1.1183   -0.9804   14.5372 H   0  0  0  0  0  0  0  0  0  0  0  0
   -0.6301    0.1539   15.7120 H   0  0  0  0  0  0  0  0  0  0  0  0
   -2.6050    1.2630   14.7144 H   0  0  0  0  0  0  0  0  0  0  0  0
   -4.4186    0.3188   16.5363 H   0  0  0  0  0  0  0  0  0  0  0  0
   -3.1453    1.3523   17.0407 H   0  0  0  0  0  0  0  0  0  0  0  0
   -8.3699    3.3782   19.2691 H   0  0  0  0  0  0  0  0  0  0  0  0
  -10.3526    2.1166   19.8657 H   0  0  0  0  0  0  0  0  0  0  0  0
  -10.1343   -0.0152   20.9981 H   0  0  0  0  0  0  0  0  0  0  0  0
   -7.9424   -0.8953   21.5219 H   0  0  0  0  0  0  0  0  0  0  0  0
   -4.9459    3.5373   17.4014 H   0  0  0  0  0  0  0  0  0  0  0  0
   -6.6804    3.4638   17.5989 H   0  0  0  0  0  0  0  0  0  0  0  0
   -5.7539    1.9891   17.4573 H   0  0  0  0  0  0  0  0  0  0  0  0
  1  2  2  0
  2  3  1  0
  3  7  1  0
  3  4  2  0
  4  5  1  0
  4 31  1  0
  5 15  1  0
  5  6  2  0
  6 29  1  0
  6  1  1  0
  7  8  1  0
  8  9  1  0
  8 32  1  0
  8 33  1  0
  9 10  1  0
  9 34  1  0
  9 35  1  0
 10 11  1  0
 10 12  1  0
 10 36  1  6
 11 13  1  0
 11 14  1  0
 12  7  1  0
 12 37  1  0
 12 38  1  0
 15 16  1  0
 15 17  1  0
 15 18  1  0
 19  1  1  0
 19 20  1  0
 21 22  2  0
 22 23  1  0
 22 39  1  0
 23 24  2  0
 23 40  1  0
 24 25  1  0
 24 41  1  0
 25 26  2  0
 25 42  1  0
 26 19  1  0
 26 21  1  0
 27 28  1  0
 27 43  1  0
 27 44  1  0
 27 45  1  0
 28 21  1  0
 29 30  3  0
M  END
>  <minimizedAffinity>  (1) 
-7.65168

>  <mol_id>  (1) 
167

>  <source_index>  (1) 
0

>  <layer>  (1) 
L1

>  <uniprot>  (1) 
P50053

>  <paff>  (1) 
8.2596000000000007

>  <smiles>  (1) 
CSc1ccccc1Nc1nc(N2CC[C@@H](N)C2)cc(C(F)(F)F)c1C#N

$$$$
L1:P50053:19531
     RDKit          3D

 63 65  0  0  0  0  0  0  0  0999 V2000
   -3.7773    0.8141   18.1414 C   0  0  0  0  0  0  0  0  0  0  0  0
   -4.5978    1.7584   17.6188 N   0  0  0  0  0  0  0  0  0  0  0  0
   -4.5680    2.0417   16.3007 C   0  0  0  0  0  0  0  0  0  0  0  0
   -3.6882    1.3607   15.4705 C   0  0  0  0  0  0  0  0  0  0  0  0
   -2.8523    0.3549   15.9832 C   0  0  0  0  0  0  0  0  0  0  0  0
   -2.9078    0.0649   17.3518 C   0  0  0  0  0  0  0  0  0  0  0  0
   -5.3991    3.0286   15.8324 N   0  0  0  0  0  0  0  0  0  0  0  0
   -4.8788    4.3780   15.6362 C   0  0  0  0  0  0  0  0  0  0  0  0
   -6.0863    5.2935   15.8478 C   0  0  0  0  0  0  0  0  0  0  0  0
   -7.2900    4.4201   15.4741 C   0  0  1  0  0  0  0  0  0  0  0  0
   -6.8437    3.0526   16.0528 C   0  0  0  0  0  0  0  0  0  0  0  0
   -8.5759    4.9345   15.9932 N   0  0  0  0  0  0  0  0  0  0  0  0
   -9.2096    3.9867   16.9155 C   0  0  0  0  0  0  0  0  0  0  0  0
   -8.4085    6.2268   16.6661 C   0  0  0  0  0  0  0  0  0  0  0  0
   -1.9231   -0.3905   15.0669 C   0  0  0  0  0  0  0  0  0  0  0  0
   -2.0954   -1.7440   15.1138 F   0  0  0  0  0  0  0  0  0  0  0  0
   -0.6141   -0.1795   15.3685 F   0  0  0  0  0  0  0  0  0  0  0  0
   -2.0838   -0.0481   13.7618 F   0  0  0  0  0  0  0  0  0  0  0  0
   -3.9175    0.6473   19.5297 N   0  0  0  0  0  0  0  0  0  0  0  0
   -3.4950   -0.2609   19.7204 H   0  0  0  0  0  0  0  0  0  0  0  0
   -5.8953   -0.2914   20.7691 C   0  0  0  0  0  0  0  0  0  0  0  0
   -7.0285   -0.0180   21.5504 C   0  0  0  0  0  0  0  0  0  0  0  0
   -7.3572    1.2906   21.9075 C   0  0  0  0  0  0  0  0  0  0  0  0
   -6.5505    2.3561   21.5039 C   0  0  0  0  0  0  0  0  0  0  0  0
   -5.4279    2.0844   20.7100 C   0  0  0  0  0  0  0  0  0  0  0  0
   -5.1055    0.7782   20.2973 C   0  0  0  0  0  0  0  0  0  0  0  0
   -5.6496   -2.6458   22.1509 C   0  0  0  0  0  0  0  0  0  0  0  0
   -5.5612   -2.0251   20.4500 S   0  0  0  0  0  0  0  0  0  0  0  0
   -6.8875    3.7760   21.8994 C   0  0  0  0  0  0  0  0  0  0  0  0
   -6.5372    4.8628   20.8662 C   0  0  1  0  0  0  0  0  0  0  0  0
   -7.7770    5.5608   20.3034 C   0  0  0  0  0  0  0  0  0  0  0  0
   -5.5031    5.8268   21.4134 C   0  0  0  0  0  0  0  0  0  0  0  0
   -5.7237    6.9286   21.8922 O   0  0  0  0  0  0  0  0  0  0  0  0
   -4.2460    5.3430   21.4200 O   0  0  0  0  0  0  0  0  0  0  0  0
   -3.7203    6.0600   21.8344 H   0  0  0  0  0  0  0  0  0  0  0  0
   -2.1135   -0.9901   17.9106 C   0  0  0  0  0  0  0  0  0  0  0  0
   -1.4239   -1.8017   18.3712 N   0  0  0  0  0  0  0  0  0  0  0  0
   -3.6478    1.5958   14.4664 H   0  0  0  0  0  0  0  0  0  0  0  0
   -4.4878    4.4916   14.6467 H   0  0  0  0  0  0  0  0  0  0  0  0
   -4.0763    4.6043   16.3068 H   0  0  0  0  0  0  0  0  0  0  0  0
   -6.0280    6.1518   15.2115 H   0  0  0  0  0  0  0  0  0  0  0  0
   -6.1464    5.6682   16.8482 H   0  0  0  0  0  0  0  0  0  0  0  0
   -7.5099    4.3818   14.4276 H   0  0  0  0  0  0  0  0  0  0  0  0
   -7.3207    2.2468   15.5350 H   0  0  0  0  0  0  0  0  0  0  0  0
   -7.1044    2.9375   17.0841 H   0  0  0  0  0  0  0  0  0  0  0  0
   -9.3332    3.0426   16.4274 H   0  0  0  0  0  0  0  0  0  0  0  0
  -10.1664    4.3630   17.2118 H   0  0  0  0  0  0  0  0  0  0  0  0
   -8.5916    3.8630   17.7802 H   0  0  0  0  0  0  0  0  0  0  0  0
   -7.9462    6.9208   15.9956 H   0  0  0  0  0  0  0  0  0  0  0  0
   -7.7911    6.1013   17.5310 H   0  0  0  0  0  0  0  0  0  0  0  0
   -9.3660    6.6012   16.9627 H   0  0  0  0  0  0  0  0  0  0  0  0
   -7.6280   -0.7965   21.8658 H   0  0  0  0  0  0  0  0  0  0  0  0
   -8.2013    1.4715   22.4730 H   0  0  0  0  0  0  0  0  0  0  0  0
   -4.8195    2.8657   20.4194 H   0  0  0  0  0  0  0  0  0  0  0  0
   -5.4691   -3.7005   22.1555 H   0  0  0  0  0  0  0  0  0  0  0  0
   -6.6215   -2.4485   22.5525 H   0  0  0  0  0  0  0  0  0  0  0  0
   -4.9103   -2.1548   22.7486 H   0  0  0  0  0  0  0  0  0  0  0  0
   -6.3585    3.9992   22.8023 H   0  0  0  0  0  0  0  0  0  0  0  0
   -7.9525    3.8039   21.9994 H   0  0  0  0  0  0  0  0  0  0  0  0
   -6.0877    4.3745   20.0269 H   0  0  0  0  0  0  0  0  0  0  0  0
   -8.2847    6.0763   21.0916 H   0  0  0  0  0  0  0  0  0  0  0  0
   -8.4323    4.8322   19.8737 H   0  0  0  0  0  0  0  0  0  0  0  0
   -7.4810    6.2620   19.5513 H   0  0  0  0  0  0  0  0  0  0  0  0
  1  2  2  0
  2  3  1  0
  3  7  1  0
  3  4  2  0
  4  5  1  0
  4 38  1  0
  5 15  1  0
  5  6  2  0
  6 36  1  0
  6  1  1  0
  7  8  1  0
  8  9  1  0
  8 39  1  0
  8 40  1  0
  9 10  1  0
  9 41  1  0
  9 42  1  0
 10 12  1  0
 10 11  1  0
 10 43  1  6
 11  7  1  0
 11 44  1  0
 11 45  1  0
 12 13  1  0
 12 14  1  0
 13 46  1  0
 13 47  1  0
 13 48  1  0
 14 49  1  0
 14 50  1  0
 14 51  1  0
 15 16  1  0
 15 17  1  0
 15 18  1  0
 19  1  1  0
 19 20  1  0
 21 22  2  0
 22 23  1  0
 22 52  1  0
 23 24  2  0
 23 53  1  0
 24 29  1  0
 24 25  1  0
 25 26  2  0
 25 54  1  0
 26 19  1  0
 26 21  1  0
 27 28  1  0
 27 55  1  0
 27 56  1  0
 27 57  1  0
 28 21  1  0
 29 30  1  0
 29 58  1  0
 29 59  1  0
 30 31  1  0
 30 32  1  0
 30 60  1  6
 31 61  1  0
 31 62  1  0
 31 63  1  0
 32 33  2  0
 32 34  1  0
 34 35  1  0
 36 37  3  0
M  END
>  <minimizedAffinity>  (2) 
-7.83103

>  <mol_id>  (2) 
19531

>  <source_index>  (2) 
1

>  <layer>  (2) 
L1

>  <uniprot>  (2) 
P50053

>  <paff>  (2) 
7.5686

>  <smiles>  (2) 
CSc1ccc(CC(C)C(=O)O)cc1Nc1nc(N2CC[C@H](N(C)C)C2)cc(C(F)(F)F)c1C#N

$$$$
L1:P50053:24618
     RDKit          3D

 48 50  0  0  0  0  0  0  0  0999 V2000
   -3.0441   -0.9158   18.0120 C   0  0  0  0  0  0  0  0  0  0  0  0
   -4.0432   -0.1070   18.4470 N   0  0  0  0  0  0  0  0  0  0  0  0
   -4.8020   -0.4380   19.5111 C   0  0  0  0  0  0  0  0  0  0  0  0
   -4.5766   -1.6348   20.1721 C   0  0  0  0  0  0  0  0  0  0  0  0
   -3.5443   -2.4898   19.7596 C   0  0  0  0  0  0  0  0  0  0  0  0
   -2.7551   -2.1166   18.6620 C   0  0  0  0  0  0  0  0  0  0  0  0
   -2.2348    1.9729   16.5973 C   0  0  0  0  0  0  0  0  0  0  0  0
   -2.7045    0.6377   16.0587 C   0  0  1  0  0  0  0  0  0  0  0  0
   -1.8501    0.0052   14.9504 C   0  0  0  0  0  0  0  0  0  0  0  0
   -2.0257   -1.2943   15.7380 C   0  0  0  0  0  0  0  0  0  0  0  0
   -2.2876   -0.4720   16.8981 N   0  0  0  0  0  0  0  0  0  0  0  0
   -5.8093    0.4169   19.8836 N   0  0  0  0  0  0  0  0  0  0  0  0
   -6.5314    0.3191   21.1466 C   0  0  0  0  0  0  0  0  0  0  0  0
   -6.9567    1.7571   21.4523 C   0  0  0  0  0  0  0  0  0  0  0  0
   -7.0159    2.4165   20.0743 C   0  0  2  0  0  0  0  0  0  0  0  0
   -5.8104    1.7828   19.3681 C   0  0  0  0  0  0  0  0  0  0  0  0
   -6.9492    3.9430   20.0996 C   0  0  0  0  0  0  0  0  0  0  0  0
   -6.5723    4.4888   21.4738 C   0  0  0  0  0  0  0  0  0  0  0  0
   -5.2372    5.1758   21.4346 C   0  0  0  0  0  0  0  0  0  0  0  0
   -4.4199    5.1097   20.5328 O   0  0  0  0  0  0  0  0  0  0  0  0
   -4.9979    5.9183   22.5319 O   0  0  0  0  0  0  0  0  0  0  0  0
   -4.1116    6.3055   22.3702 H   0  0  0  0  0  0  0  0  0  0  0  0
   -3.2993   -3.7782   20.4944 C   0  0  0  0  0  0  0  0  0  0  0  0
   -3.5070   -4.8713   19.7140 F   0  0  0  0  0  0  0  0  0  0  0  0
   -2.0295   -3.8740   20.9697 F   0  0  0  0  0  0  0  0  0  0  0  0
   -4.1101   -3.9413   21.5780 F   0  0  0  0  0  0  0  0  0  0  0  0
   -1.6621   -2.9413   18.2394 C   0  0  0  0  0  0  0  0  0  0  0  0
   -0.7786   -3.6302   17.9355 N   0  0  0  0  0  0  0  0  0  0  0  0
   -5.1719   -1.8986   20.9727 H   0  0  0  0  0  0  0  0  0  0  0  0
   -2.5652    2.7559   15.9472 H   0  0  0  0  0  0  0  0  0  0  0  0
   -1.1661    1.9802   16.6500 H   0  0  0  0  0  0  0  0  0  0  0  0
   -2.6412    2.1259   17.5752 H   0  0  0  0  0  0  0  0  0  0  0  0
   -3.7253    0.8980   15.8712 H   0  0  0  0  0  0  0  0  0  0  0  0
   -0.8452    0.3672   14.8879 H   0  0  0  0  0  0  0  0  0  0  0  0
   -2.0867    0.0929   13.9106 H   0  0  0  0  0  0  0  0  0  0  0  0
   -1.1451   -1.8981   15.8071 H   0  0  0  0  0  0  0  0  0  0  0  0
   -2.7038   -2.0595   15.4225 H   0  0  0  0  0  0  0  0  0  0  0  0
   -5.8949   -0.0600   21.9186 H   0  0  0  0  0  0  0  0  0  0  0  0
   -7.3645   -0.3500   21.0901 H   0  0  0  0  0  0  0  0  0  0  0  0
   -6.2373    2.2433   22.0776 H   0  0  0  0  0  0  0  0  0  0  0  0
   -7.8863    1.8121   21.9793 H   0  0  0  0  0  0  0  0  0  0  0  0
   -7.9509    2.2501   19.5815 H   0  0  0  0  0  0  0  0  0  0  0  0
   -4.9041    2.2911   19.6234 H   0  0  0  0  0  0  0  0  0  0  0  0
   -5.8733    1.8310   18.3010 H   0  0  0  0  0  0  0  0  0  0  0  0
   -7.9075    4.3329   19.8266 H   0  0  0  0  0  0  0  0  0  0  0  0
   -6.1898    4.2467   19.4097 H   0  0  0  0  0  0  0  0  0  0  0  0
   -6.5283    3.6788   22.1716 H   0  0  0  0  0  0  0  0  0  0  0  0
   -7.3129    5.2014   21.7715 H   0  0  0  0  0  0  0  0  0  0  0  0
  1  2  2  0
  2  3  1  0
  3 12  1  0
  3  4  2  0
  4  5  1  0
  4 29  1  0
  5 23  1  0
  5  6  2  0
  6 27  1  0
  6  1  1  0
  7  8  1  0
  7 30  1  0
  7 31  1  0
  7 32  1  0
  8  9  1  0
  8 33  1  6
  9 10  1  0
  9 34  1  0
  9 35  1  0
 10 11  1  0
 10 36  1  0
 10 37  1  0
 11  1  1  0
 11  8  1  0
 12 13  1  0
 13 14  1  0
 13 38  1  0
 13 39  1  0
 14 15  1  0
 14 40  1  0
 14 41  1  0
 15 17  1  0
 15 16  1  0
 15 42  1  6
 16 12  1  0
 16 43  1  0
 16 44  1  0
 17 18  1  0
 17 45  1  0
 17 46  1  0
 18 19  1  0
 18 47  1  0
 18 48  1  0
 19 20  2  0
 19 21  1  0
 21 22  1  0
 23 24  1  0
 23 25  1  0
 23 26  1  0
 27 28  3  0
M  END
>  <minimizedAffinity>  (3) 
-8.64478

>  <mol_id>  (3) 
24618

>  <source_index>  (3) 
2

>  <layer>  (3) 
L1

>  <uniprot>  (3) 
P50053

>  <paff>  (3) 
7.8125

>  <smiles>  (3) 
C[C@H]1CCN1c1nc(N2CC[C@@H](CCC(=O)O)C2)cc(C(F)(F)F)c1C#N

$$$$
L1:P50053:54615
     RDKit          3D

 59 61  0  0  0  0  0  0  0  0999 V2000
   -3.5996    0.6751   18.3284 C   0  0  0  0  0  0  0  0  0  0  0  0
   -4.2876    1.7692   17.9206 N   0  0  0  0  0  0  0  0  0  0  0  0
   -4.2561    2.1768   16.6375 C   0  0  0  0  0  0  0  0  0  0  0  0
   -3.5052    1.4672   15.7140 C   0  0  0  0  0  0  0  0  0  0  0  0
   -2.7618    0.3442   16.1119 C   0  0  0  0  0  0  0  0  0  0  0  0
   -2.8014   -0.0574   17.4552 C   0  0  0  0  0  0  0  0  0  0  0  0
   -5.0143    3.2645   16.2862 N   0  0  0  0  0  0  0  0  0  0  0  0
   -4.5207    4.3862   15.4945 C   0  0  0  0  0  0  0  0  0  0  0  0
   -5.6926    5.3898   15.5103 C   0  0  2  0  0  0  0  0  0  0  0  0
   -5.3374    6.7818   15.2464 N   0  0  0  0  0  0  0  0  0  0  0  0
   -6.2601    5.1899   16.9128 C   0  0  0  0  0  0  0  0  0  0  0  0
   -6.1599    3.6665   17.1284 C   0  0  1  0  0  0  0  0  0  0  0  0
   -4.6780    7.1172   15.9481 H   0  0  0  0  0  0  0  0  0  0  0  0
   -4.8679    6.8595   14.3457 H   0  0  0  0  0  0  0  0  0  0  0  0
   -7.4367    2.9215   16.7036 C   0  0  0  0  0  0  0  0  0  0  0  0
   -7.3886    2.5737   15.3215 O   0  0  0  0  0  0  0  0  0  0  0  0
   -8.2599    2.2022   15.0993 H   0  0  0  0  0  0  0  0  0  0  0  0
   -1.9450   -0.4087   15.0972 C   0  0  0  0  0  0  0  0  0  0  0  0
   -2.2151   -1.7451   15.0795 F   0  0  0  0  0  0  0  0  0  0  0  0
   -0.6093   -0.3107   15.3294 F   0  0  0  0  0  0  0  0  0  0  0  0
   -2.1559    0.0237   13.8272 F   0  0  0  0  0  0  0  0  0  0  0  0
   -3.7464    0.3994   19.7030 N   0  0  0  0  0  0  0  0  0  0  0  0
   -3.1376    1.1051   20.1281 H   0  0  0  0  0  0  0  0  0  0  0  0
   -5.6667   -0.7687   20.7895 C   0  0  0  0  0  0  0  0  0  0  0  0
   -6.8861   -0.6611   21.4733 C   0  0  0  0  0  0  0  0  0  0  0  0
   -7.4220    0.5898   21.7867 C   0  0  0  0  0  0  0  0  0  0  0  0
   -6.7551    1.7589   21.4098 C   0  0  0  0  0  0  0  0  0  0  0  0
   -5.5440    1.6532   20.7137 C   0  0  0  0  0  0  0  0  0  0  0  0
   -4.9806    0.4029   20.4092 C   0  0  0  0  0  0  0  0  0  0  0  0
   -5.2887   -3.2136   21.9722 C   0  0  0  0  0  0  0  0  0  0  0  0
   -5.0813   -2.4086   20.3625 S   0  0  0  0  0  0  0  0  0  0  0  0
   -7.3413    3.1158   21.7238 C   0  0  0  0  0  0  0  0  0  0  0  0
   -7.0671    4.1356   20.6205 C   0  0  0  0  0  0  0  0  0  0  0  0
   -6.2918    5.3381   21.1144 C   0  0  0  0  0  0  0  0  0  0  0  0
   -5.0175    5.0635   21.5208 N   0  0  0  0  0  0  0  0  0  0  0  0
   -6.7079    6.4898   21.1039 O   0  0  0  0  0  0  0  0  0  0  0  0
   -4.5073    5.8370   21.9291 H   0  0  0  0  0  0  0  0  0  0  0  0
   -4.7382    4.1299   21.7871 H   0  0  0  0  0  0  0  0  0  0  0  0
   -2.0290   -1.1811   17.8947 C   0  0  0  0  0  0  0  0  0  0  0  0
   -1.3739   -2.0444   18.3101 N   0  0  0  0  0  0  0  0  0  0  0  0
   -3.4922    1.7663   14.7264 H   0  0  0  0  0  0  0  0  0  0  0  0
   -4.2960    4.0779   14.4948 H   0  0  0  0  0  0  0  0  0  0  0  0
   -3.6145    4.8012   15.8838 H   0  0  0  0  0  0  0  0  0  0  0  0
   -6.3824    5.2022   14.7141 H   0  0  0  0  0  0  0  0  0  0  0  0
   -7.2775    5.5172   16.9638 H   0  0  0  0  0  0  0  0  0  0  0  0
   -5.7364    5.7514   17.6580 H   0  0  0  0  0  0  0  0  0  0  0  0
   -6.0342    3.4235   18.1628 H   0  0  0  0  0  0  0  0  0  0  0  0
   -8.2838    3.5519   16.8767 H   0  0  0  0  0  0  0  0  0  0  0  0
   -7.5149    2.0228   17.2791 H   0  0  0  0  0  0  0  0  0  0  0  0
   -7.3936   -1.5166   21.7483 H   0  0  0  0  0  0  0  0  0  0  0  0
   -8.3155    0.6514   22.2995 H   0  0  0  0  0  0  0  0  0  0  0  0
   -5.0550    2.5126   20.4181 H   0  0  0  0  0  0  0  0  0  0  0  0
   -4.9776   -4.2350   21.9029 H   0  0  0  0  0  0  0  0  0  0  0  0
   -6.3181   -3.1732   22.2612 H   0  0  0  0  0  0  0  0  0  0  0  0
   -4.6929   -2.7081   22.7032 H   0  0  0  0  0  0  0  0  0  0  0  0
   -6.9124    3.4729   22.6367 H   0  0  0  0  0  0  0  0  0  0  0  0
   -8.4019    3.0024   21.8082 H   0  0  0  0  0  0  0  0  0  0  0  0
   -8.0028    4.4710   20.2244 H   0  0  0  0  0  0  0  0  0  0  0  0
   -6.4716    3.6518   19.8747 H   0  0  0  0  0  0  0  0  0  0  0  0
  1  2  2  0
  2  3  1  0
  3  7  1  0
  3  4  2  0
  4  5  1  0
  4 41  1  0
  5 18  1  0
  5  6  2  0
  6 39  1  0
  6  1  1  0
  7  8  1  0
  8  9  1  0
  8 42  1  0
  8 43  1  0
  9 10  1  0
  9 11  1  0
  9 44  1  6
 10 13  1  0
 10 14  1  0
 11 12  1  0
 11 45  1  0
 11 46  1  0
 12 15  1  0
 12  7  1  0
 12 47  1  1
 15 16  1  0
 15 48  1  0
 15 49  1  0
 16 17  1  0
 18 19  1  0
 18 20  1  0
 18 21  1  0
 22  1  1  0
 22 23  1  0
 24 25  2  0
 25 26  1  0
 25 50  1  0
 26 27  2  0
 26 51  1  0
 27 32  1  0
 27 28  1  0
 28 29  2  0
 28 52  1  0
 29 22  1  0
 29 24  1  0
 30 31  1  0
 30 53  1  0
 30 54  1  0
 30 55  1  0
 31 24  1  0
 32 33  1  0
 32 56  1  0
 32 57  1  0
 33 34  1  0
 33 58  1  0
 33 59  1  0
 34 35  1  0
 34 36  2  0
 35 37  1  0
 35 38  1  0
 39 40  3  0
M  END
>  <minimizedAffinity>  (4) 
-8.00036

>  <mol_id>  (4) 
54615

>  <source_index>  (4) 
3

>  <layer>  (4) 
L1

>  <uniprot>  (4) 
P50053

>  <paff>  (4) 
8.4948999999999995

>  <smiles>  (4) 
CSc1ccc(CCC(N)=O)cc1Nc1nc(N2C[C@H](N)C[C@H]2CO)cc(C(F)(F)F)c1C#N

$$$$
L1:P50053:64410
     RDKit          3D

 46 49  0  0  0  0  0  0  0  0999 V2000
   -5.1029   -1.8675   21.0709 H   0  0  0  0  0  0  0  0  0  0  0  0
   -4.5131   -1.6049   20.1973 C   0  0  0  0  0  0  0  0  0  0  0  0
   -4.7467   -0.4113   19.5328 C   0  0  0  0  0  0  0  0  0  0  0  0
   -3.9937   -0.0864   18.4622 N   0  0  0  0  0  0  0  0  0  0  0  0
   -3.0153   -0.9087   18.0065 C   0  0  0  0  0  0  0  0  0  0  0  0
   -2.7325   -2.1151   18.6474 C   0  0  0  0  0  0  0  0  0  0  0  0
   -3.5011   -2.4744   19.7635 C   0  0  0  0  0  0  0  0  0  0  0  0
   -5.7088    0.4756   19.9392 N   0  0  0  0  0  0  0  0  0  0  0  0
   -6.8371    0.1422   20.8011 C   0  0  0  0  0  0  0  0  0  0  0  0
   -7.6908    1.3762   20.7912 C   0  0  2  0  0  0  0  0  0  0  0  0
   -7.1177    2.3369   19.8033 C   0  0  2  0  0  0  0  0  0  0  0  0
   -5.8944    1.7193   19.1888 C   0  0  0  0  0  0  0  0  0  0  0  0
   -7.1605    2.7122   21.2683 C   0  0  1  0  0  0  0  0  0  0  0  0
   -8.1109    3.7672   21.7558 C   0  0  0  0  0  0  0  0  0  0  0  0
   -7.8596    4.0057   22.7951 H   0  0  0  0  0  0  0  0  0  0  0  0
   -9.1431    3.4000   21.7216 H   0  0  0  0  0  0  0  0  0  0  0  0
   -8.0463    5.0454   20.9576 C   0  0  0  0  0  0  0  0  0  0  0  0
   -8.8323    5.4359   20.1114 O   0  0  0  0  0  0  0  0  0  0  0  0
   -6.9657    5.7868   21.2776 O   0  0  0  0  0  0  0  0  0  0  0  0
   -7.0416    6.5739   20.6978 H   0  0  0  0  0  0  0  0  0  0  0  0
   -2.2732   -0.4748   16.8793 N   0  0  0  0  0  0  0  0  0  0  0  0
   -2.0364   -1.3046   15.7195 C   0  0  0  0  0  0  0  0  0  0  0  0
   -1.8616   -0.0103   14.9231 C   0  0  0  0  0  0  0  0  0  0  0  0
   -2.6938    0.6343   16.0414 C   0  0  2  0  0  0  0  0  0  0  0  0
   -2.2046    1.9675   16.5669 C   0  0  0  0  0  0  0  0  0  0  0  0
   -3.2498   -3.7600   20.5016 C   0  0  0  0  0  0  0  0  0  0  0  0
   -4.0212   -3.8798   21.6144 F   0  0  0  0  0  0  0  0  0  0  0  0
   -3.4924   -4.8578   19.7390 F   0  0  0  0  0  0  0  0  0  0  0  0
   -1.9633   -3.8881   20.9334 F   0  0  0  0  0  0  0  0  0  0  0  0
   -1.6631   -2.9569   18.1994 C   0  0  0  0  0  0  0  0  0  0  0  0
   -0.7752   -3.6302   17.8751 N   0  0  0  0  0  0  0  0  0  0  0  0
   -6.5033   -0.0795   21.7932 H   0  0  0  0  0  0  0  0  0  0  0  0
   -7.3672   -0.7235   20.4629 H   0  0  0  0  0  0  0  0  0  0  0  0
   -8.6084    0.8808   21.0309 H   0  0  0  0  0  0  0  0  0  0  0  0
   -7.4013    2.9057   18.9425 H   0  0  0  0  0  0  0  0  0  0  0  0
   -5.0464    2.3618   19.3022 H   0  0  0  0  0  0  0  0  0  0  0  0
   -6.0016    1.5531   18.1372 H   0  0  0  0  0  0  0  0  0  0  0  0
   -6.4405    3.0345   21.9912 H   0  0  0  0  0  0  0  0  0  0  0  0
   -2.8705   -1.9046   15.4208 H   0  0  0  0  0  0  0  0  0  0  0  0
   -1.2935   -2.0747   15.7173 H   0  0  0  0  0  0  0  0  0  0  0  0
   -2.3184   -0.0060   13.9555 H   0  0  0  0  0  0  0  0  0  0  0  0
   -0.9058    0.3624   14.6191 H   0  0  0  0  0  0  0  0  0  0  0  0
   -3.7151    0.9023   15.8682 H   0  0  0  0  0  0  0  0  0  0  0  0
   -1.1638    1.8969   16.8048 H   0  0  0  0  0  0  0  0  0  0  0  0
   -2.7548    2.2276   17.4470 H   0  0  0  0  0  0  0  0  0  0  0  0
   -2.3496    2.7201   15.8203 H   0  0  0  0  0  0  0  0  0  0  0  0
  1  2  1  0
  2  3  2  0
  3  8  1  0
  3  4  1  0
  4  5  2  0
  5 21  1  0
  5  6  1  0
  6 30  1  0
  6  7  2  0
  7 26  1  0
  7  2  1  0
  8  9  1  0
  9 10  1  0
  9 32  1  0
  9 33  1  0
 10 11  1  0
 10 34  1  6
 11 12  1  0
 11 13  1  0
 11 35  1  6
 12  8  1  0
 12 36  1  0
 12 37  1  0
 13 14  1  0
 13 10  1  0
 13 38  1  1
 14 15  1  0
 14 16  1  0
 14 17  1  0
 17 18  2  0
 17 19  1  0
 19 20  1  0
 21 22  1  0
 22 23  1  0
 22 39  1  0
 22 40  1  0
 23 24  1  0
 23 41  1  0
 23 42  1  0
 24 25  1  0
 24 21  1  0
 24 43  1  6
 25 44  1  0
 25 45  1  0
 25 46  1  0
 26 27  1  0
 26 28  1  0
 26 29  1  0
 30 31  3  0
M  ISO  3   1   2  15   2  16   2
M  END
>  <minimizedAffinity>  (5) 
-8.23352

>  <mol_id>  (5) 
64410

>  <source_index>  (5) 
4

>  <layer>  (5) 
L1

>  <uniprot>  (5) 
P50053

>  <paff>  (5) 
9.3565000000000005

>  <smiles>  (5) 
[2H]c1c(N2C[C@@H]3[C@H](C2)[C@H]3C([2H])([2H])C(=O)O)nc(N2CC[C@@H]2C)c(C#N)c1C(F)(F)F

$$$$
L1:P50053:75542
     RDKit          3D

 49 52  0  0  0  0  0  0  0  0999 V2000
   -3.8631   -2.1470   19.2641 C   0  0  0  0  0  0  0  0  0  0  0  0
   -2.9374   -2.4553   18.2830 C   0  0  0  0  0  0  0  0  0  0  0  0
   -2.5481   -1.4863   17.3471 C   0  0  0  0  0  0  0  0  0  0  0  0
   -3.1166   -0.2031   17.4169 C   0  0  0  0  0  0  0  0  0  0  0  0
   -4.0520    0.0589   18.4184 C   0  0  0  0  0  0  0  0  0  0  0  0
   -4.3980   -0.9097   19.3071 N   0  0  0  0  0  0  0  0  0  0  0  0
   -5.8407   -5.1255   21.6555 C   0  0  1  0  0  0  0  0  0  0  0  0
   -5.2448   -3.8324   22.1777 C   0  0  2  0  0  0  0  0  0  0  0  0
   -5.1178   -2.6167   21.3048 C   0  0  0  0  0  0  0  0  0  0  0  0
   -4.2868   -3.0671   20.1867 N   0  0  0  0  0  0  0  0  0  0  0  0
   -3.6500   -4.3592   20.4235 C   0  0  0  0  0  0  0  0  0  0  0  0
   -4.3434   -4.8922   21.6421 C   0  0  2  0  0  0  0  0  0  0  0  0
   -7.9779   -6.0168   22.5570 C   0  0  0  0  0  0  0  0  0  0  0  0
   -6.4523   -6.1224   22.6137 C   0  0  1  0  0  0  0  0  0  0  0  0
   -6.0305   -7.5573   22.3365 C   0  0  0  0  0  0  0  0  0  0  0  0
   -5.5869   -8.3550   23.1479 O   0  0  0  0  0  0  0  0  0  0  0  0
   -6.1230   -7.9121   21.0377 O   0  0  0  0  0  0  0  0  0  0  0  0
   -5.8027   -8.8381   21.0270 H   0  0  0  0  0  0  0  0  0  0  0  0
   -4.7063    1.2828   18.5847 N   0  0  0  0  0  0  0  0  0  0  0  0
   -4.4102    2.6382   18.2742 C   0  0  0  0  0  0  0  0  0  0  0  0
   -5.8041    2.9996   18.7972 C   0  0  0  0  0  0  0  0  0  0  0  0
   -5.8467    1.5866   19.3989 C   0  0  2  0  0  0  0  0  0  0  0  0
   -5.5611    1.4912   20.8878 C   0  0  0  0  0  0  0  0  0  0  0  0
   -1.5381   -1.8357   16.2874 C   0  0  0  0  0  0  0  0  0  0  0  0
   -0.5949   -0.8687   16.1046 F   0  0  0  0  0  0  0  0  0  0  0  0
   -2.1079   -2.0260   15.0678 F   0  0  0  0  0  0  0  0  0  0  0  0
   -0.8487   -2.9706   16.5771 F   0  0  0  0  0  0  0  0  0  0  0  0
   -2.7230    0.7982   16.4717 C   0  0  0  0  0  0  0  0  0  0  0  0
   -2.4339    1.6257   15.7108 N   0  0  0  0  0  0  0  0  0  0  0  0
   -2.5314   -3.4031   18.2398 H   0  0  0  0  0  0  0  0  0  0  0  0
   -6.5770   -5.3874   20.9246 H   0  0  0  0  0  0  0  0  0  0  0  0
   -5.4535   -3.3011   23.0827 H   0  0  0  0  0  0  0  0  0  0  0  0
   -4.6426   -1.8170   21.8336 H   0  0  0  0  0  0  0  0  0  0  0  0
   -6.0665   -2.2384   20.9859 H   0  0  0  0  0  0  0  0  0  0  0  0
   -2.6024   -4.2386   20.6050 H   0  0  0  0  0  0  0  0  0  0  0  0
   -3.7325   -5.0172   19.5838 H   0  0  0  0  0  0  0  0  0  0  0  0
   -3.5472   -5.5348   21.9551 H   0  0  0  0  0  0  0  0  0  0  0  0
   -8.4097   -6.7226   23.2354 H   0  0  0  0  0  0  0  0  0  0  0  0
   -8.3132   -6.2265   21.5628 H   0  0  0  0  0  0  0  0  0  0  0  0
   -8.2774   -5.0274   22.8332 H   0  0  0  0  0  0  0  0  0  0  0  0
   -6.0915   -5.8762   23.5905 H   0  0  0  0  0  0  0  0  0  0  0  0
   -4.2607    2.8341   17.2330 H   0  0  0  0  0  0  0  0  0  0  0  0
   -3.5297    3.1191   18.6462 H   0  0  0  0  0  0  0  0  0  0  0  0
   -6.5343    3.1868   18.0378 H   0  0  0  0  0  0  0  0  0  0  0  0
   -5.9824    3.8751   19.3859 H   0  0  0  0  0  0  0  0  0  0  0  0
   -6.7486    1.0112   19.3805 H   0  0  0  0  0  0  0  0  0  0  0  0
   -4.6622    2.0258   21.1135 H   0  0  0  0  0  0  0  0  0  0  0  0
   -5.4439    0.4640   21.1634 H   0  0  0  0  0  0  0  0  0  0  0  0
   -6.3761    1.9166   21.4353 H   0  0  0  0  0  0  0  0  0  0  0  0
  1  2  2  0
  2  3  1  0
  2 30  1  0
  3 24  1  0
  3  4  2  0
  4 28  1  0
  4  5  1  0
  5 19  1  0
  5  6  2  0
  6  1  1  0
  7  8  1  0
  7 31  1  6
  8  9  1  0
  8 32  1  1
  9 10  1  0
  9 33  1  0
  9 34  1  0
 10  1  1  0
 10 11  1  0
 11 12  1  0
 11 35  1  0
 11 36  1  0
 12  7  1  0
 12  8  1  0
 12 37  1  1
 13 14  1  0
 13 38  1  0
 13 39  1  0
 13 40  1  0
 14 15  1  0
 14  7  1  0
 14 41  1  1
 15 16  2  0
 15 17  1  0
 17 18  1  0
 19 20  1  0
 20 21  1  0
 20 42  1  0
 20 43  1  0
 21 22  1  0
 21 44  1  0
 21 45  1  0
 22 23  1  0
 22 19  1  0
 22 46  1  6
 23 47  1  0
 23 48  1  0
 23 49  1  0
 24 25  1  0
 24 26  1  0
 24 27  1  0
 28 29  3  0
M  END
>  <minimizedAffinity>  (6) 
-8.21420

>  <mol_id>  (6) 
75542

>  <source_index>  (6) 
5

>  <layer>  (6) 
L1

>  <uniprot>  (6) 
P50053

>  <paff>  (6) 
7.8996000000000004

>  <smiles>  (6) 
CC(C(=O)O)[C@H]1[C@@H]2CN(c3cc(C(F)(F)F)c(C#N)c(N4CC[C@@H]4C)n3)C[C@@H]21

$$$$
L1:P50053:97821
     RDKit          3D

 36 37  0  0  0  0  0  0  0  0999 V2000
   -3.5158   -2.1725   19.0787 C   0  0  0  0  0  0  0  0  0  0  0  0
   -2.7485   -2.3224   17.9383 C   0  0  0  0  0  0  0  0  0  0  0  0
   -2.5182   -1.2140   17.1158 C   0  0  0  0  0  0  0  0  0  0  0  0
   -3.0714    0.0232   17.4832 C   0  0  0  0  0  0  0  0  0  0  0  0
   -3.8262    0.1071   18.6600 C   0  0  0  0  0  0  0  0  0  0  0  0
   -4.0369   -0.9869   19.4318 N   0  0  0  0  0  0  0  0  0  0  0  0
   -1.6871   -1.3587   15.8715 C   0  0  0  0  0  0  0  0  0  0  0  0
   -2.4206   -1.2140   14.7370 F   0  0  0  0  0  0  0  0  0  0  0  0
   -1.0802   -2.5718   15.7910 F   0  0  0  0  0  0  0  0  0  0  0  0
   -0.6853   -0.4397   15.7844 F   0  0  0  0  0  0  0  0  0  0  0  0
   -4.8935   -3.0260   20.8464 C   0  0  0  0  0  0  0  0  0  0  0  0
   -3.7622   -3.2244   19.9555 N   0  0  0  0  0  0  0  0  0  0  0  0
   -2.8912   -3.3274   20.4790 H   0  0  0  0  0  0  0  0  0  0  0  0
   -2.8667    1.1868   16.6715 C   0  0  0  0  0  0  0  0  0  0  0  0
   -2.7148    2.1432   16.0333 N   0  0  0  0  0  0  0  0  0  0  0  0
   -4.4071    1.3385   19.0403 N   0  0  0  0  0  0  0  0  0  0  0  0
   -3.7209    1.9826   19.4349 H   0  0  0  0  0  0  0  0  0  0  0  0
   -5.6664    1.5655   19.6557 C   0  0  0  0  0  0  0  0  0  0  0  0
   -5.9658    1.0597   20.9284 C   0  0  0  0  0  0  0  0  0  0  0  0
   -7.2267    1.2481   21.5002 C   0  0  0  0  0  0  0  0  0  0  0  0
   -8.2158    1.9331   20.8006 C   0  0  0  0  0  0  0  0  0  0  0  0
   -7.9457    2.4332   19.5276 C   0  0  0  0  0  0  0  0  0  0  0  0
   -6.6792    2.2583   18.9531 C   0  0  0  0  0  0  0  0  0  0  0  0
   -6.3596    2.9222   17.3133 S   0  0  0  0  0  0  0  0  0  0  0  0
   -5.8748    4.6060   17.7775 C   0  0  0  0  0  0  0  0  0  0  0  0
   -2.3495   -3.2428   17.6961 H   0  0  0  0  0  0  0  0  0  0  0  0
   -5.7883   -2.9218   20.2689 H   0  0  0  0  0  0  0  0  0  0  0  0
   -4.7390   -2.1409   21.4275 H   0  0  0  0  0  0  0  0  0  0  0  0
   -4.9861   -3.8692   21.4986 H   0  0  0  0  0  0  0  0  0  0  0  0
   -5.2436    0.5400   21.4512 H   0  0  0  0  0  0  0  0  0  0  0  0
   -7.4250    0.8786   22.4432 H   0  0  0  0  0  0  0  0  0  0  0  0
   -9.1472    2.0705   21.2233 H   0  0  0  0  0  0  0  0  0  0  0  0
   -8.6816    2.9345   19.0059 H   0  0  0  0  0  0  0  0  0  0  0  0
   -5.6407    5.1656   16.8960 H   0  0  0  0  0  0  0  0  0  0  0  0
   -5.0155    4.5671   18.4140 H   0  0  0  0  0  0  0  0  0  0  0  0
   -6.6820    5.0793   18.2965 H   0  0  0  0  0  0  0  0  0  0  0  0
  1  2  2  0
  2  3  1  0
  2 26  1  0
  3  7  1  0
  3  4  2  0
  4 14  1  0
  4  5  1  0
  5 16  1  0
  5  6  2  0
  6  1  1  0
  7  8  1  0
  7  9  1  0
  7 10  1  0
 11 12  1  0
 11 27  1  0
 11 28  1  0
 11 29  1  0
 12  1  1  0
 12 13  1  0
 14 15  3  0
 16 18  1  0
 16 17  1  0
 18 19  2  0
 19 20  1  0
 19 30  1  0
 20 21  2  0
 20 31  1  0
 21 22  1  0
 21 32  1  0
 22 23  2  0
 22 33  1  0
 23 24  1  0
 23 18  1  0
 24 25  1  0
 25 34  1  0
 25 35  1  0
 25 36  1  0
M  END
>  <minimizedAffinity>  (7) 
-6.79042

>  <mol_id>  (7) 
97821

>  <source_index>  (7) 
6

>  <layer>  (7) 
L1

>  <uniprot>  (7) 
P50053

>  <paff>  (7) 
7.7446999999999999

>  <smiles>  (7) 
CNc1cc(C(F)(F)F)c(C#N)c(Nc2ccccc2SC)n1

$$$$
L1:P50053:107700
     RDKit          3D

 57 59  0  0  0  0  0  0  0  0999 V2000
   -3.7825   -2.0200   19.1706 C   0  0  0  0  0  0  0  0  0  0  0  0
   -2.8998   -2.3722   18.1609 C   0  0  0  0  0  0  0  0  0  0  0  0
   -2.4803   -1.4196   17.2221 C   0  0  0  0  0  0  0  0  0  0  0  0
   -2.9641   -0.1098   17.3330 C   0  0  0  0  0  0  0  0  0  0  0  0
   -3.8404    0.1982   18.3772 C   0  0  0  0  0  0  0  0  0  0  0  0
   -4.2292   -0.7508   19.2607 N   0  0  0  0  0  0  0  0  0  0  0  0
   -5.0430   -3.4889   22.2706 C   0  0  1  0  0  0  0  0  0  0  0  0
   -4.0399   -4.5437   21.7982 C   0  0  0  0  0  0  0  0  0  0  0  0
   -3.2079   -3.7709   20.7783 C   0  0  0  0  0  0  0  0  0  0  0  0
   -4.1937   -2.9206   20.1194 N   0  0  0  0  0  0  0  0  0  0  0  0
   -5.3799   -2.7392   20.9555 C   0  0  0  0  0  0  0  0  0  0  0  0
   -6.7392   -5.2265   22.2967 C   0  0  0  0  0  0  0  0  0  0  0  0
   -6.2275   -4.0272   22.9464 N   0  0  0  0  0  0  0  0  0  0  0  0
   -6.9628   -3.3194   22.9677 H   0  0  0  0  0  0  0  0  0  0  0  0
   -1.5262   -1.8079   16.1279 C   0  0  0  0  0  0  0  0  0  0  0  0
   -0.8402   -2.9451   16.4162 F   0  0  0  0  0  0  0  0  0  0  0  0
   -0.5805   -0.8607   15.8760 F   0  0  0  0  0  0  0  0  0  0  0  0
   -2.1557   -2.0245   14.9431 F   0  0  0  0  0  0  0  0  0  0  0  0
   -2.5768    0.9036   16.3962 C   0  0  0  0  0  0  0  0  0  0  0  0
   -2.2645    1.7370   15.6522 N   0  0  0  0  0  0  0  0  0  0  0  0
   -4.3482    1.5133   18.5014 N   0  0  0  0  0  0  0  0  0  0  0  0
   -3.6961    2.1133   19.0083 H   0  0  0  0  0  0  0  0  0  0  0  0
   -5.6727    1.9386   18.7860 C   0  0  0  0  0  0  0  0  0  0  0  0
   -6.3441    1.5541   19.9552 C   0  0  0  0  0  0  0  0  0  0  0  0
   -7.6700    1.9446   20.2039 C   0  0  0  0  0  0  0  0  0  0  0  0
   -8.3435    2.7150   19.2513 C   0  0  0  0  0  0  0  0  0  0  0  0
   -7.7085    3.0774   18.0640 C   0  0  0  0  0  0  0  0  0  0  0  0
   -6.3894    2.6787   17.8190 C   0  0  0  0  0  0  0  0  0  0  0  0
   -5.6306    3.1548   16.2617 S   0  0  0  0  0  0  0  0  0  0  0  0
   -5.9007    4.9451   16.3701 C   0  0  0  0  0  0  0  0  0  0  0  0
   -8.3639    1.5152   21.4745 C   0  0  0  0  0  0  0  0  0  0  0  0
   -8.4767   -0.0005   21.6095 C   0  0  0  0  0  0  0  0  0  0  0  0
   -8.3713   -0.4781   23.0302 C   0  0  0  0  0  0  0  0  0  0  0  0
   -8.1385   -1.6210   23.3878 O   0  0  0  0  0  0  0  0  0  0  0  0
   -8.4787    0.5093   23.9392 O   0  0  0  0  0  0  0  0  0  0  0  0
   -8.3510    0.0485   24.7955 H   0  0  0  0  0  0  0  0  0  0  0  0
   -2.5497   -3.3411   18.1003 H   0  0  0  0  0  0  0  0  0  0  0  0
   -4.6370   -2.8596   23.0348 H   0  0  0  0  0  0  0  0  0  0  0  0
   -4.5373   -5.3743   21.3425 H   0  0  0  0  0  0  0  0  0  0  0  0
   -3.4593   -4.9670   22.5910 H   0  0  0  0  0  0  0  0  0  0  0  0
   -2.7451   -4.4350   20.0785 H   0  0  0  0  0  0  0  0  0  0  0  0
   -2.4069   -3.2179   21.2228 H   0  0  0  0  0  0  0  0  0  0  0  0
   -6.2422   -3.1655   20.4869 H   0  0  0  0  0  0  0  0  0  0  0  0
   -5.6081   -1.7071   21.1213 H   0  0  0  0  0  0  0  0  0  0  0  0
   -5.9729   -5.9728   22.2711 H   0  0  0  0  0  0  0  0  0  0  0  0
   -7.0403   -4.9900   21.2975 H   0  0  0  0  0  0  0  0  0  0  0  0
   -7.5803   -5.5975   22.8443 H   0  0  0  0  0  0  0  0  0  0  0  0
   -5.8523    0.9702   20.6496 H   0  0  0  0  0  0  0  0  0  0  0  0
   -9.3145    3.0167   19.4276 H   0  0  0  0  0  0  0  0  0  0  0  0
   -8.2133    3.6420   17.3629 H   0  0  0  0  0  0  0  0  0  0  0  0
   -5.5008    5.4196   15.4984 H   0  0  0  0  0  0  0  0  0  0  0  0
   -5.4107    5.3276   17.2410 H   0  0  0  0  0  0  0  0  0  0  0  0
   -6.9500    5.1442   16.4349 H   0  0  0  0  0  0  0  0  0  0  0  0
   -9.3492    1.9325   21.4826 H   0  0  0  0  0  0  0  0  0  0  0  0
   -7.7744    1.8666   22.2954 H   0  0  0  0  0  0  0  0  0  0  0  0
   -7.6914   -0.4519   21.0399 H   0  0  0  0  0  0  0  0  0  0  0  0
   -9.4454   -0.2802   21.2512 H   0  0  0  0  0  0  0  0  0  0  0  0
  1  2  2  0
  2  3  1  0
  2 37  1  0
  3 15  1  0
  3  4  2  0
  4 19  1  0
  4  5  1  0
  5 21  1  0
  5  6  2  0
  6  1  1  0
  7  8  1  0
  7 38  1  1
  8  9  1  0
  8 39  1  0
  8 40  1  0
  9 10  1  0
  9 41  1  0
  9 42  1  0
 10  1  1  0
 10 11  1  0
 11  7  1  0
 11 43  1  0
 11 44  1  0
 12 13  1  0
 12 45  1  0
 12 46  1  0
 12 47  1  0
 13  7  1  0
 13 14  1  0
 15 16  1  0
 15 17  1  0
 15 18  1  0
 19 20  3  0
 21 23  1  0
 21 22  1  0
 23 24  2  0
 24 25  1  0
 24 48  1  0
 25 31  1  0
 25 26  2  0
 26 27  1  0
 26 49  1  0
 27 28  2  0
 27 50  1  0
 28 29  1  0
 28 23  1  0
 29 30  1  0
 30 51  1  0
 30 52  1  0
 30 53  1  0
 31 32  1  0
 31 54  1  0
 31 55  1  0
 32 33  1  0
 32 56  1  0
 32 57  1  0
 33 34  2  0
 33 35  1  0
 35 36  1  0
M  END
>  <minimizedAffinity>  (8) 
-8.00273

>  <mol_id>  (8) 
107700

>  <source_index>  (8) 
7

>  <layer>  (8) 
L1

>  <uniprot>  (8) 
P50053

>  <paff>  (8) 
8.1308000000000007

>  <smiles>  (8) 
CN[C@H]1CCN(c2cc(C(F)(F)F)c(C#N)c(Nc3cc(CCC(=O)O)ccc3SC)n2)C1

$$$$
L1:P50053:132156
     RDKit          3D

 45 47  0  0  0  0  0  0  0  0999 V2000
   -3.9318    0.5057   18.4674 C   0  0  0  0  0  0  0  0  0  0  0  0
   -4.2488   -0.4702   19.3503 N   0  0  0  0  0  0  0  0  0  0  0  0
   -3.7797   -1.7261   19.2067 C   0  0  0  0  0  0  0  0  0  0  0  0
   -2.9597   -2.0401   18.1331 C   0  0  0  0  0  0  0  0  0  0  0  0
   -2.6007   -1.0548   17.2035 C   0  0  0  0  0  0  0  0  0  0  0  0
   -3.0957    0.2437   17.3782 C   0  0  0  0  0  0  0  0  0  0  0  0
   -4.1689   -2.6805   20.1171 N   0  0  0  0  0  0  0  0  0  0  0  0
   -3.4021   -3.8993   20.3614 C   0  0  0  0  0  0  0  0  0  0  0  0
   -3.6693   -4.2358   21.8310 C   0  0  0  0  0  0  0  0  0  0  0  0
   -5.0031   -3.5577   22.1450 C   0  0  2  0  0  0  0  0  0  0  0  0
   -6.1411   -4.3762   21.6999 N   0  0  0  0  0  0  0  0  0  0  0  0
   -4.8706   -2.2495   21.3332 C   0  0  0  0  0  0  0  0  0  0  0  0
   -6.0177   -5.3437   21.9904 H   0  0  0  0  0  0  0  0  0  0  0  0
   -6.1673   -4.3716   20.6783 H   0  0  0  0  0  0  0  0  0  0  0  0
   -1.7069   -1.3995   16.0459 C   0  0  0  0  0  0  0  0  0  0  0  0
   -1.1162   -2.6147   16.1885 F   0  0  0  0  0  0  0  0  0  0  0  0
   -2.3767   -1.4293   14.8638 F   0  0  0  0  0  0  0  0  0  0  0  0
   -0.6886   -0.5116   15.8694 F   0  0  0  0  0  0  0  0  0  0  0  0
   -4.4363    1.8134   18.6623 N   0  0  0  0  0  0  0  0  0  0  0  0
   -3.7363    2.5161   18.4196 H   0  0  0  0  0  0  0  0  0  0  0  0
   -6.6905    2.4352   19.3865 C   0  0  0  0  0  0  0  0  0  0  0  0
   -7.9793    2.9075   19.1061 C   0  0  0  0  0  0  0  0  0  0  0  0
   -8.3322    3.2472   17.8015 C   0  0  0  0  0  0  0  0  0  0  0  0
   -7.4024    3.1100   16.7748 C   0  0  0  0  0  0  0  0  0  0  0  0
   -6.1127    2.6474   17.0515 C   0  0  0  0  0  0  0  0  0  0  0  0
   -5.7223    2.3337   18.3599 C   0  0  0  0  0  0  0  0  0  0  0  0
   -6.5999    3.6036   21.8574 C   0  0  0  0  0  0  0  0  0  0  0  0
   -6.2966    1.9923   21.0830 S   0  0  0  0  0  0  0  0  0  0  0  0
   -2.7532    1.2943   16.4650 C   0  0  0  0  0  0  0  0  0  0  0  0
   -2.4902    2.1521   15.7297 N   0  0  0  0  0  0  0  0  0  0  0  0
   -2.6119   -3.0049   18.0182 H   0  0  0  0  0  0  0  0  0  0  0  0
   -2.3587   -3.7285   20.1967 H   0  0  0  0  0  0  0  0  0  0  0  0
   -3.6854   -4.6953   19.7049 H   0  0  0  0  0  0  0  0  0  0  0  0
   -2.8918   -3.8472   22.4550 H   0  0  0  0  0  0  0  0  0  0  0  0
   -3.6989   -5.2908   22.0070 H   0  0  0  0  0  0  0  0  0  0  0  0
   -5.1891   -3.4029   23.1873 H   0  0  0  0  0  0  0  0  0  0  0  0
   -4.2982   -1.5214   21.8691 H   0  0  0  0  0  0  0  0  0  0  0  0
   -5.8121   -1.7827   21.1319 H   0  0  0  0  0  0  0  0  0  0  0  0
   -8.6691    3.0041   19.8676 H   0  0  0  0  0  0  0  0  0  0  0  0
   -9.2804    3.5996   17.5971 H   0  0  0  0  0  0  0  0  0  0  0  0
   -7.6660    3.3505   15.8065 H   0  0  0  0  0  0  0  0  0  0  0  0
   -5.4371    2.5351   16.2795 H   0  0  0  0  0  0  0  0  0  0  0  0
   -6.4108    3.5355   22.9084 H   0  0  0  0  0  0  0  0  0  0  0  0
   -7.6179    3.8909   21.6960 H   0  0  0  0  0  0  0  0  0  0  0  0
   -5.9500    4.3352   21.4248 H   0  0  0  0  0  0  0  0  0  0  0  0
  1  2  2  0
  2  3  1  0
  3  7  1  0
  3  4  2  0
  4  5  1  0
  4 31  1  0
  5 15  1  0
  5  6  2  0
  6 29  1  0
  6  1  1  0
  7  8  1  0
  8  9  1  0
  8 32  1  0
  8 33  1  0
  9 10  1  0
  9 34  1  0
  9 35  1  0
 10 11  1  0
 10 12  1  0
 10 36  1  1
 11 13  1  0
 11 14  1  0
 12  7  1  0
 12 37  1  0
 12 38  1  0
 15 16  1  0
 15 17  1  0
 15 18  1  0
 19  1  1  0
 19 20  1  0
 21 22  2  0
 22 23  1  0
 22 39  1  0
 23 24  2  0
 23 40  1  0
 24 25  1  0
 24 41  1  0
 25 26  2  0
 25 42  1  0
 26 19  1  0
 26 21  1  0
 27 28  1  0
 27 43  1  0
 27 44  1  0
 27 45  1  0
 28 21  1  0
 29 30  3  0
M  END
>  <minimizedAffinity>  (9) 
-7.85176

>  <mol_id>  (9) 
132156

>  <source_index>  (9) 
8

>  <layer>  (9) 
L1

>  <uniprot>  (9) 
P50053

>  <paff>  (9) 
8

>  <smiles>  (9) 
CSc1ccccc1Nc1nc(N2CC[C@H](N)C2)cc(C(F)(F)F)c1C#N

$$$$
L1:P50053:139579
     RDKit          3D

 45 47  0  0  0  0  0  0  0  0999 V2000
   -3.4037   -1.0627   19.4808 C   0  0  0  0  0  0  0  0  0  0  0  0
   -4.3025   -0.1561   19.9366 N   0  0  0  0  0  0  0  0  0  0  0  0
   -5.3007   -0.5272   20.7602 C   0  0  0  0  0  0  0  0  0  0  0  0
   -5.3970   -1.8443   21.1768 C   0  0  0  0  0  0  0  0  0  0  0  0
   -4.4414   -2.7888   20.7801 C   0  0  0  0  0  0  0  0  0  0  0  0
   -3.4125   -2.3851   19.9220 C   0  0  0  0  0  0  0  0  0  0  0  0
   -6.1915    0.4292   21.1516 N   0  0  0  0  0  0  0  0  0  0  0  0
   -5.9177    1.8567   21.3035 C   0  0  0  0  0  0  0  0  0  0  0  0
   -7.3062    2.5061   21.3020 C   0  0  2  0  0  0  0  0  0  0  0  0
   -7.3617    3.6907   22.0901 O   0  0  0  0  0  0  0  0  0  0  0  0
   -8.2006    1.4124   21.8890 C   0  0  1  0  0  0  0  0  0  0  0  0
   -9.5551    1.6554   21.5246 O   0  0  0  0  0  0  0  0  0  0  0  0
   -7.6123    0.1346   21.2754 C   0  0  0  0  0  0  0  0  0  0  0  0
   -8.2994    3.9584   22.0955 H   0  0  0  0  0  0  0  0  0  0  0  0
  -10.1201    1.2000   22.1767 H   0  0  0  0  0  0  0  0  0  0  0  0
   -4.5364   -4.2065   21.2779 C   0  0  0  0  0  0  0  0  0  0  0  0
   -5.7229   -4.4704   21.8842 F   0  0  0  0  0  0  0  0  0  0  0  0
   -4.4269   -5.1305   20.2858 F   0  0  0  0  0  0  0  0  0  0  0  0
   -3.5653   -4.5129   22.1727 F   0  0  0  0  0  0  0  0  0  0  0  0
   -2.4169   -0.5452   18.6147 N   0  0  0  0  0  0  0  0  0  0  0  0
   -1.5413   -1.0055   18.8504 H   0  0  0  0  0  0  0  0  0  0  0  0
   -3.0059    0.7043   16.4969 C   0  0  0  0  0  0  0  0  0  0  0  0
   -2.9995    0.7071   15.0898 C   0  0  0  0  0  0  0  0  0  0  0  0
   -2.4715   -0.3622   14.3677 C   0  0  0  0  0  0  0  0  0  0  0  0
   -1.9256   -1.4422   15.0439 C   0  0  0  0  0  0  0  0  0  0  0  0
   -1.9248   -1.4617   16.4394 C   0  0  0  0  0  0  0  0  0  0  0  0
   -2.5024   -0.4200   17.1951 C   0  0  0  0  0  0  0  0  0  0  0  0
   -5.0129    2.5172   16.0833 C   0  0  0  0  0  0  0  0  0  0  0  0
   -3.6670    2.1875   17.2538 S   0  0  0  0  0  0  0  0  0  0  0  0
   -2.3784   -3.2980   19.5313 C   0  0  0  0  0  0  0  0  0  0  0  0
   -1.5756   -4.0529   19.1661 N   0  0  0  0  0  0  0  0  0  0  0  0
   -6.1795   -2.1326   21.7848 H   0  0  0  0  0  0  0  0  0  0  0  0
   -5.3280    2.2192   20.4876 H   0  0  0  0  0  0  0  0  0  0  0  0
   -5.3627    2.0761   22.1916 H   0  0  0  0  0  0  0  0  0  0  0  0
   -7.6004    2.8257   20.3241 H   0  0  0  0  0  0  0  0  0  0  0  0
   -8.2175    1.3579   22.9575 H   0  0  0  0  0  0  0  0  0  0  0  0
   -8.0455   -0.0621   20.3170 H   0  0  0  0  0  0  0  0  0  0  0  0
   -7.8038   -0.7349   21.8689 H   0  0  0  0  0  0  0  0  0  0  0  0
   -3.3929    1.5155   14.5831 H   0  0  0  0  0  0  0  0  0  0  0  0
   -2.4870   -0.3498   13.3359 H   0  0  0  0  0  0  0  0  0  0  0  0
   -1.5203   -2.2309   14.5160 H   0  0  0  0  0  0  0  0  0  0  0  0
   -1.4906   -2.2585   16.9309 H   0  0  0  0  0  0  0  0  0  0  0  0
   -5.5393    3.3988   16.3842 H   0  0  0  0  0  0  0  0  0  0  0  0
   -5.6867    1.6861   16.0713 H   0  0  0  0  0  0  0  0  0  0  0  0
   -4.6066    2.6612   15.1040 H   0  0  0  0  0  0  0  0  0  0  0  0
  1  2  2  0
  2  3  1  0
  3  7  1  0
  3  4  2  0
  4  5  1  0
  4 32  1  0
  5 16  1  0
  5  6  2  0
  6 30  1  0
  6  1  1  0
  7  8  1  0
  8  9  1  0
  8 33  1  0
  8 34  1  0
  9 10  1  0
  9 11  1  0
  9 35  1  6
 10 14  1  0
 11 12  1  0
 11 13  1  0
 11 36  1  1
 12 15  1  0
 13  7  1  0
 13 37  1  0
 13 38  1  0
 16 17  1  0
 16 18  1  0
 16 19  1  0
 20  1  1  0
 20 21  1  0
 22 23  2  0
 23 24  1  0
 23 39  1  0
 24 25  2  0
 24 40  1  0
 25 26  1  0
 25 41  1  0
 26 27  2  0
 26 42  1  0
 27 20  1  0
 27 22  1  0
 28 29  1  0
 28 43  1  0
 28 44  1  0
 28 45  1  0
 29 22  1  0
 30 31  3  0
M  END
>  <minimizedAffinity>  (10) 
-7.83946

>  <mol_id>  (10) 
139579

>  <source_index>  (10) 
9

>  <layer>  (10) 
L1

>  <uniprot>  (10) 
P50053

>  <paff>  (10) 
7.6989999999999998

>  <smiles>  (10) 
CSc1ccccc1Nc1nc(N2C[C@H](O)[C@@H](O)C2)cc(C(F)(F)F)c1C#N

$$$$
