L1:Q92793:111632
     RDKit          3D

 80 84  0  0  0  0  0  0  0  0999 V2000
   -6.2849   -6.3873   -0.3750 C   0  0  0  0  0  0  0  0  0  0  0  0
   -7.0558   -5.4163   -1.1859 C   0  0  0  0  0  0  0  0  0  0  0  0
   -8.1592   -5.8108   -1.8340 N   0  0  0  0  0  0  0  0  0  0  0  0
   -8.6352   -4.6887   -2.4845 O   0  0  0  0  0  0  0  0  0  0  0  0
   -7.8194   -3.6301   -2.2299 C   0  0  0  0  0  0  0  0  0  0  0  0
   -8.1892   -2.3590   -2.8812 C   0  0  0  0  0  0  0  0  0  0  0  0
   -6.8000   -4.0350   -1.3957 C   0  0  0  0  0  0  0  0  0  0  0  0
   -5.7330   -3.1839   -0.9135 C   0  0  0  0  0  0  0  0  0  0  0  0
   -6.0282   -2.0348   -0.1667 C   0  0  0  0  0  0  0  0  0  0  0  0
   -5.0166   -1.1976    0.3223 C   0  0  0  0  0  0  0  0  0  0  0  0
   -3.6955   -1.5609    0.0361 C   0  0  0  0  0  0  0  0  0  0  0  0
   -3.3762   -2.6947   -0.7027 C   0  0  0  0  0  0  0  0  0  0  0  0
   -4.3996   -3.5235   -1.1855 C   0  0  0  0  0  0  0  0  0  0  0  0
   -2.0201   -2.8188   -0.8495 N   0  0  0  0  0  0  0  0  0  0  0  0
   -1.4885   -1.7872   -0.2242 C   0  0  0  0  0  0  0  0  0  0  0  0
   -0.0218   -1.4988   -0.1653 C   0  0  0  0  0  0  0  0  0  0  0  0
    0.5172   -1.1233   -1.5485 C   0  0  0  0  0  0  0  0  0  0  0  0
    1.9335   -0.6088   -1.4676 C   0  0  0  0  0  0  0  0  0  0  0  0
    3.0059   -1.4969   -1.3406 C   0  0  0  0  0  0  0  0  0  0  0  0
    4.3119   -1.0122   -1.2404 C   0  0  0  0  0  0  0  0  0  0  0  0
    4.5715    0.3603   -1.2659 C   0  0  0  0  0  0  0  0  0  0  0  0
    5.8930    0.6860   -1.1541 O   0  0  0  0  0  0  0  0  0  0  0  0
    6.2832    2.0573   -1.2387 C   0  0  0  0  0  0  0  0  0  0  0  0
    6.2150    2.7508    0.1199 C   0  0  0  0  0  0  0  0  0  0  0  0
    7.0430    2.0835    1.2261 C   0  0  0  0  0  0  0  0  0  0  0  0
    8.4888    2.1986    0.9683 N   0  0  0  0  0  0  0  0  0  0  0  0
    9.0542    0.9121    0.5476 C   0  0  0  0  0  0  0  0  0  0  0  0
    9.1981    2.6724    2.1592 C   0  0  0  0  0  0  0  0  0  0  0  0
    3.5046    1.2482   -1.3895 C   0  0  0  0  0  0  0  0  0  0  0  0
    2.1938    0.7669   -1.4887 C   0  0  0  0  0  0  0  0  0  0  0  0
   -2.4733   -1.0042    0.3438 N   0  0  0  0  0  0  0  0  0  0  0  0
   -2.2740    0.1987    1.1372 C   0  0  0  0  0  0  0  0  0  0  0  0
   -2.0969    1.4419    0.2520 C   0  0  0  0  0  0  0  0  0  0  0  0
   -1.7698    2.7104    0.9187 N   0  0  0  0  0  0  0  0  0  0  0  0
   -2.7991    3.1577    1.8746 C   0  0  0  0  0  0  0  0  0  0  0  0
   -2.4280    4.5202    2.4840 C   0  0  0  0  0  0  0  0  0  0  0  0
   -1.1508    4.4617    3.1342 O   0  0  0  0  0  0  0  0  0  0  0  0
   -0.1374    4.0783    2.1943 C   0  0  0  0  0  0  0  0  0  0  0  0
   -0.4497    2.7049    1.5767 C   0  0  0  0  0  0  0  0  0  0  0  0
   -5.9609   -5.9362    0.5683 H   0  0  0  0  0  0  0  0  0  0  0  0
   -5.3971   -6.7189   -0.9227 H   0  0  0  0  0  0  0  0  0  0  0  0
   -6.8842   -7.2709   -0.1317 H   0  0  0  0  0  0  0  0  0  0  0  0
   -8.7372   -1.7193   -2.1828 H   0  0  0  0  0  0  0  0  0  0  0  0
   -7.2993   -1.8192   -3.2192 H   0  0  0  0  0  0  0  0  0  0  0  0
   -8.8252   -2.5330   -3.7549 H   0  0  0  0  0  0  0  0  0  0  0  0
   -7.0639   -1.7817    0.0561 H   0  0  0  0  0  0  0  0  0  0  0  0
   -5.2617   -0.3130    0.8999 H   0  0  0  0  0  0  0  0  0  0  0  0
   -4.1389   -4.4008   -1.7678 H   0  0  0  0  0  0  0  0  0  0  0  0
    0.4952   -2.3927    0.2059 H   0  0  0  0  0  0  0  0  0  0  0  0
    0.2016   -0.7023    0.5514 H   0  0  0  0  0  0  0  0  0  0  0  0
    0.4824   -1.9895   -2.2223 H   0  0  0  0  0  0  0  0  0  0  0  0
   -0.1201   -0.3610   -2.0158 H   0  0  0  0  0  0  0  0  0  0  0  0
    2.8346   -2.5711   -1.3213 H   0  0  0  0  0  0  0  0  0  0  0  0
    5.1380   -1.7131   -1.1449 H   0  0  0  0  0  0  0  0  0  0  0  0
    5.7070    2.5992   -1.9975 H   0  0  0  0  0  0  0  0  0  0  0  0
    7.3148    2.0713   -1.6070 H   0  0  0  0  0  0  0  0  0  0  0  0
    6.5272    3.7962    0.0049 H   0  0  0  0  0  0  0  0  0  0  0  0
    5.1738    2.7731    0.4624 H   0  0  0  0  0  0  0  0  0  0  0  0
    6.7298    1.0420    1.3738 H   0  0  0  0  0  0  0  0  0  0  0  0
    6.7808    2.5990    2.1603 H   0  0  0  0  0  0  0  0  0  0  0  0
   10.1159    1.0253    0.3004 H   0  0  0  0  0  0  0  0  0  0  0  0
    8.9636    0.1468    1.3274 H   0  0  0  0  0  0  0  0  0  0  0  0
    8.5651    0.5370   -0.3560 H   0  0  0  0  0  0  0  0  0  0  0  0
    8.8358    3.6645    2.4514 H   0  0  0  0  0  0  0  0  0  0  0  0
   10.2689    2.7814    1.9531 H   0  0  0  0  0  0  0  0  0  0  0  0
    9.0768    1.9932    3.0111 H   0  0  0  0  0  0  0  0  0  0  0  0
    3.6511    2.3222   -1.4109 H   0  0  0  0  0  0  0  0  0  0  0  0
    1.3772    1.4791   -1.5875 H   0  0  0  0  0  0  0  0  0  0  0  0
   -1.4106    0.0211    1.7847 H   0  0  0  0  0  0  0  0  0  0  0  0
   -3.1398    0.3078    1.7985 H   0  0  0  0  0  0  0  0  0  0  0  0
   -1.3216    1.2501   -0.5002 H   0  0  0  0  0  0  0  0  0  0  0  0
   -3.0145    1.5906   -0.3331 H   0  0  0  0  0  0  0  0  0  0  0  0
   -3.7681    3.2468    1.3709 H   0  0  0  0  0  0  0  0  0  0  0  0
   -2.9022    2.4307    2.6892 H   0  0  0  0  0  0  0  0  0  0  0  0
   -3.1699    4.8032    3.2375 H   0  0  0  0  0  0  0  0  0  0  0  0
   -2.4109    5.3075    1.7206 H   0  0  0  0  0  0  0  0  0  0  0  0
   -0.0473    4.8518    1.4221 H   0  0  0  0  0  0  0  0  0  0  0  0
    0.8141    4.0340    2.7337 H   0  0  0  0  0  0  0  0  0  0  0  0
   -0.4247    1.9534    2.3746 H   0  0  0  0  0  0  0  0  0  0  0  0
    0.3327    2.4577    0.8506 H   0  0  0  0  0  0  0  0  0  0  0  0
  1  2  1  0
  2  3  2  0
  3  4  1  0
  4  5  1  0
  5  6  1  0
  5  7  2  0
  7  8  1  0
  8  9  2  0
  9 10  1  0
 10 11  2  0
 11 12  1  0
 12 13  2  0
 12 14  1  0
 14 15  2  0
 15 16  1  0
 16 17  1  0
 17 18  1  0
 18 19  2  0
 19 20  1  0
 20 21  2  0
 21 22  1  0
 22 23  1  0
 23 24  1  0
 24 25  1  0
 25 26  1  0
 26 27  1  0
 26 28  1  0
 21 29  1  0
 29 30  2  0
 15 31  1  0
 31 32  1  0
 32 33  1  0
 33 34  1  0
 34 35  1  0
 35 36  1  0
 36 37  1  0
 37 38  1  0
 38 39  1  0
  7  2  1  0
 13  8  1  0
 30 18  1  0
 39 34  1  0
 31 11  1  0
  1 40  1  0
  1 41  1  0
  1 42  1  0
  6 43  1  0
  6 44  1  0
  6 45  1  0
  9 46  1  0
 10 47  1  0
 13 48  1  0
 16 49  1  0
 16 50  1  0
 17 51  1  0
 17 52  1  0
 19 53  1  0
 20 54  1  0
 23 55  1  0
 23 56  1  0
 24 57  1  0
 24 58  1  0
 25 59  1  0
 25 60  1  0
 27 61  1  0
 27 62  1  0
 27 63  1  0
 28 64  1  0
 28 65  1  0
 28 66  1  0
 29 67  1  0
 30 68  1  0
 32 69  1  0
 32 70  1  0
 33 71  1  0
 33 72  1  0
 35 73  1  0
 35 74  1  0
 36 75  1  0
 36 76  1  0
 38 77  1  0
 38 78  1  0
 39 79  1  0
 39 80  1  0
M  END
>  <mol_id>  (1) 
111632

>  <source_index>  (1) 
8

>  <layer>  (1) 
L1

>  <uniprot>  (1) 
Q92793

>  <paff>  (1) 
6.9207999999999998

>  <smiles>  (1) 
CN(C)CCCOc1ccc(CCc2nc3cc(ccc3n2CCN2CCOCC2)-c2c(C)noc2C)cc1

$$$$
