L1:Q92793:111632
 OpenBabel09212617443D

 80 84  0  0  0  0  0  0  0  0999 V2000
    4.9923   -8.1231   17.3779 C   0  0  0  0  0  0  0  0  0  0  0  0
    3.9041   -7.7095   16.5970 C   0  0  0  0  0  0  0  0  0  0  0  0
    2.5908   -7.7601   17.0830 C   0  0  0  0  0  0  0  0  0  0  0  0
    2.4113   -8.2465   18.3831 C   0  0  0  0  0  0  0  0  0  0  0  0
    3.4736   -8.6622   19.1782 C   0  0  0  0  0  0  0  0  0  0  0  0
    4.7828   -8.6059   18.6780 C   0  0  0  0  0  0  0  0  0  0  0  0
    3.0330   -9.0826   20.4050 N   0  0  0  0  0  0  0  0  0  0  0  0
    1.7232   -8.9338   20.3941 C   0  0  0  0  0  0  0  0  0  0  0  0
    1.3010   -8.4425   19.1751 N   0  0  0  0  0  0  0  0  0  0  0  0
    7.4984   -6.1341   18.1653 C   0  0  0  0  0  0  0  0  0  0  0  0
    7.4299   -7.2188   17.1585 C   0  0  0  0  0  0  0  0  0  0  0  0
    8.5013   -7.5056   16.4082 N   0  0  0  0  0  0  0  0  0  0  0  0
    8.1165   -8.5461   15.5846 O   0  0  0  0  0  0  0  0  0  0  0  0
    6.8215   -8.8773   15.8383 C   0  0  0  0  0  0  0  0  0  0  0  0
    6.2596   -9.9636   15.0132 C   0  0  0  0  0  0  0  0  0  0  0  0
    6.3365   -8.0690   16.8436 C   0  0  0  0  0  0  0  0  0  0  0  0
    0.8288   -9.2340   21.5551 C   0  0  0  0  0  0  0  0  0  0  0  0
    1.6347   -9.3384   22.8529 C   0  0  0  0  0  0  0  0  0  0  0  0
    1.4005   -8.1442   23.7453 C   0  0  0  0  0  0  0  0  0  0  0  0
    2.3046   -7.0778   23.7570 C   0  0  0  0  0  0  0  0  0  0  0  0
    2.0948   -5.9876   24.6044 C   0  0  0  0  0  0  0  0  0  0  0  0
    0.9844   -5.9405   25.4509 C   0  0  0  0  0  0  0  0  0  0  0  0
    0.0829   -7.0031   25.4437 C   0  0  0  0  0  0  0  0  0  0  0  0
    0.2900   -8.0986   24.5971 C   0  0  0  0  0  0  0  0  0  0  0  0
    0.9126   -4.8172   26.2242 O   0  0  0  0  0  0  0  0  0  0  0  0
   -0.1746   -3.9099   26.0375 C   0  0  0  0  0  0  0  0  0  0  0  0
   -0.2241   -3.3709   24.6098 C   0  0  0  0  0  0  0  0  0  0  0  0
   -1.6363   -3.1200   24.0645 C   0  0  0  0  0  0  0  0  0  0  0  0
   -1.9950   -4.0901   23.0156 N   0  0  0  0  0  0  0  0  0  0  0  0
   -0.7993   -4.7310   22.4579 C   0  0  0  0  0  0  0  0  0  0  0  0
   -2.7448   -3.4429   21.9364 C   0  0  0  0  0  0  0  0  0  0  0  0
   -0.0726   -8.1776   18.7763 C   0  0  0  0  0  0  0  0  0  0  0  0
   -0.4457   -6.6993   18.9659 C   0  0  0  0  0  0  0  0  0  0  0  0
   -0.7865   -5.9244   17.7643 N   0  0  0  0  0  0  0  0  0  0  0  0
    0.2110   -4.8937   17.4237 C   0  0  0  0  0  0  0  0  0  0  0  0
   -0.2386   -4.0769   16.2005 C   0  0  0  0  0  0  0  0  0  0  0  0
   -0.4659   -4.9287   15.0691 O   0  0  0  0  0  0  0  0  0  0  0  0
   -1.4748   -5.8999   15.3792 C   0  0  0  0  0  0  0  0  0  0  0  0
   -1.0577   -6.7632   16.5817 C   0  0  0  0  0  0  0  0  0  0  0  0
    4.0743   -7.3593   15.6413 H   0  0  0  0  0  0  0  0  0  0  0  0
    1.7912   -7.4523   16.5077 H   0  0  0  0  0  0  0  0  0  0  0  0
    5.5791   -8.9147   19.2573 H   0  0  0  0  0  0  0  0  0  0  0  0
    8.4719   -5.6904   18.1459 H   0  0  0  0  0  0  0  0  0  0  0  0
    7.3098   -6.5379   19.1381 H   0  0  0  0  0  0  0  0  0  0  0  0
    6.7630   -5.3906   17.9391 H   0  0  0  0  0  0  0  0  0  0  0  0
    7.0077  -10.3214   14.3370 H   0  0  0  0  0  0  0  0  0  0  0  0
    5.4239   -9.5933   14.4570 H   0  0  0  0  0  0  0  0  0  0  0  0
    5.9396  -10.7640   15.6471 H   0  0  0  0  0  0  0  0  0  0  0  0
    0.3261  -10.1620   21.3793 H   0  0  0  0  0  0  0  0  0  0  0  0
    0.1204   -8.4384   21.6556 H   0  0  0  0  0  0  0  0  0  0  0  0
    2.6758   -9.3942   22.6124 H   0  0  0  0  0  0  0  0  0  0  0  0
    1.3177  -10.2164   23.3759 H   0  0  0  0  0  0  0  0  0  0  0  0
    3.1297   -7.0963   23.1374 H   0  0  0  0  0  0  0  0  0  0  0  0
    2.7691   -5.2063   24.6053 H   0  0  0  0  0  0  0  0  0  0  0  0
   -0.7408   -6.9824   26.0651 H   0  0  0  0  0  0  0  0  0  0  0  0
   -0.3830   -8.8810   24.6008 H   0  0  0  0  0  0  0  0  0  0  0  0
   -0.0606   -3.0888   26.7140 H   0  0  0  0  0  0  0  0  0  0  0  0
   -1.0855   -4.4390   26.2252 H   0  0  0  0  0  0  0  0  0  0  0  0
    0.2587   -4.0795   23.9697 H   0  0  0  0  0  0  0  0  0  0  0  0
    0.2640   -2.4189   24.6305 H   0  0  0  0  0  0  0  0  0  0  0  0
   -1.6791   -2.1330   23.6535 H   0  0  0  0  0  0  0  0  0  0  0  0
   -2.3301   -3.2293   24.8717 H   0  0  0  0  0  0  0  0  0  0  0  0
   -0.2492   -5.2048   23.2439 H   0  0  0  0  0  0  0  0  0  0  0  0
   -0.1848   -3.9918   21.9879 H   0  0  0  0  0  0  0  0  0  0  0  0
   -1.0917   -5.4638   21.7352 H   0  0  0  0  0  0  0  0  0  0  0  0
   -3.6180   -2.9743   22.3400 H   0  0  0  0  0  0  0  0  0  0  0  0
   -3.0355   -4.1768   21.2141 H   0  0  0  0  0  0  0  0  0  0  0  0
   -2.1286   -2.7048   21.4668 H   0  0  0  0  0  0  0  0  0  0  0  0
   -0.7281   -8.7794   19.3705 H   0  0  0  0  0  0  0  0  0  0  0  0
   -0.1694   -8.4149   17.7374 H   0  0  0  0  0  0  0  0  0  0  0  0
    0.3870   -6.2162   19.4329 H   0  0  0  0  0  0  0  0  0  0  0  0
   -1.3471   -6.7181   19.5421 H   0  0  0  0  0  0  0  0  0  0  0  0
    1.1443   -5.3686   17.2039 H   0  0  0  0  0  0  0  0  0  0  0  0
    0.3157   -4.2310   18.2572 H   0  0  0  0  0  0  0  0  0  0  0  0
    0.5224   -3.3656   15.9557 H   0  0  0  0  0  0  0  0  0  0  0  0
   -1.1542   -3.5783   16.4413 H   0  0  0  0  0  0  0  0  0  0  0  0
   -1.6244   -6.5326   14.5294 H   0  0  0  0  0  0  0  0  0  0  0  0
   -2.3793   -5.3847   15.6268 H   0  0  0  0  0  0  0  0  0  0  0  0
   -0.1731   -7.3101   16.3300 H   0  0  0  0  0  0  0  0  0  0  0  0
   -1.8585   -7.4335   16.8149 H   0  0  0  0  0  0  0  0  0  0  0  0
  1  2  2  0  0  0  0
  2  3  1  0  0  0  0
  2 40  1  0  0  0  0
  3  4  2  0  0  0  0
  3 41  1  0  0  0  0
  4  5  1  0  0  0  0
  5  6  2  0  0  0  0
  5  7  1  0  0  0  0
  6  1  1  0  0  0  0
  6 42  1  0  0  0  0
  7  8  2  0  0  0  0
  8 17  1  0  0  0  0
  8  9  1  0  0  0  0
  9 32  1  0  0  0  0
  9  4  1  0  0  0  0
 10 11  1  0  0  0  0
 10 43  1  0  0  0  0
 10 44  1  0  0  0  0
 10 45  1  0  0  0  0
 11 12  2  0  0  0  0
 12 13  1  0  0  0  0
 13 14  1  0  0  0  0
 14 15  1  0  0  0  0
 14 16  2  0  0  0  0
 15 46  1  0  0  0  0
 15 47  1  0  0  0  0
 15 48  1  0  0  0  0
 16  1  1  0  0  0  0
 16 11  1  0  0  0  0
 17 18  1  0  0  0  0
 17 49  1  0  0  0  0
 17 50  1  0  0  0  0
 18 19  1  0  0  0  0
 18 51  1  0  0  0  0
 18 52  1  0  0  0  0
 19 20  2  0  0  0  0
 20 21  1  0  0  0  0
 20 53  1  0  0  0  0
 21 22  2  0  0  0  0
 21 54  1  0  0  0  0
 22 25  1  0  0  0  0
 22 23  1  0  0  0  0
 23 24  2  0  0  0  0
 23 55  1  0  0  0  0
 24 19  1  0  0  0  0
 24 56  1  0  0  0  0
 25 26  1  0  0  0  0
 26 27  1  0  0  0  0
 26 57  1  0  0  0  0
 26 58  1  0  0  0  0
 27 28  1  0  0  0  0
 27 59  1  0  0  0  0
 27 60  1  0  0  0  0
 28 29  1  0  0  0  0
 28 61  1  0  0  0  0
 28 62  1  0  0  0  0
 29 30  1  0  0  0  0
 29 31  1  0  0  0  0
 30 63  1  0  0  0  0
 30 64  1  0  0  0  0
 30 65  1  0  0  0  0
 31 66  1  0  0  0  0
 31 67  1  0  0  0  0
 31 68  1  0  0  0  0
 32 33  1  0  0  0  0
 32 69  1  0  0  0  0
 32 70  1  0  0  0  0
 33 34  1  0  0  0  0
 33 71  1  0  0  0  0
 33 72  1  0  0  0  0
 34 35  1  0  0  0  0
 35 36  1  0  0  0  0
 35 73  1  0  0  0  0
 35 74  1  0  0  0  0
 36 37  1  0  0  0  0
 36 75  1  0  0  0  0
 36 76  1  0  0  0  0
 37 38  1  0  0  0  0
 38 39  1  0  0  0  0
 38 77  1  0  0  0  0
 38 78  1  0  0  0  0
 39 34  1  0  0  0  0
 39 79  1  0  0  0  0
 39 80  1  0  0  0  0
M  END
>  <minimizedAffinity>
-7.52574

$$$$
