L1:Q92793:136992
 OpenBabel09212617443D

 65 70  0  0  0  0  0  0  0  0999 V2000
    7.0667   -7.7933   16.8149 C   0  0  0  0  0  0  0  0  0  0  0  0
    5.8172   -7.1569   16.9726 C   0  0  0  0  0  0  0  0  0  0  0  0
    4.7022   -7.5400   16.2185 C   0  0  0  0  0  0  0  0  0  0  0  0
    4.8491   -8.5717   15.3077 C   0  0  0  0  0  0  0  0  0  0  0  0
    6.0817   -9.2153   15.1539 C   0  0  0  0  0  0  0  0  0  0  0  0
    7.1953   -8.8319   15.8887 C   0  0  0  0  0  0  0  0  0  0  0  0
    6.0051  -10.2792   14.1004 C   0  0  0  0  0  0  0  0  0  0  0  0
    4.4877  -10.5040   14.0007 C   0  0  0  0  0  0  0  0  0  0  0  0
    3.8354   -9.1636   14.3718 C   0  0  1  0  0  0  0  0  0  0  0  0
    2.5687   -9.3564   14.9952 O   0  0  0  0  0  0  0  0  0  0  0  0
    1.6182   -8.7463   14.2313 C   0  0  0  0  0  0  0  0  0  0  0  0
    0.4306   -8.7517   14.5144 O   0  0  0  0  0  0  0  0  0  0  0  0
    2.1809   -8.1319   13.1712 N   0  0  0  0  0  0  0  0  0  0  0  0
    3.5233   -8.3190   13.1619 C   0  0  0  0  0  0  0  0  0  0  0  0
    4.3089   -7.8870   12.3317 O   0  0  0  0  0  0  0  0  0  0  0  0
   11.6390   -7.0798   18.5097 C   0  0  0  0  0  0  0  0  0  0  0  0
   10.2046   -6.9559   18.4673 N   0  0  0  0  0  0  0  0  0  0  0  0
    9.4718   -7.5780   17.4775 C   0  0  0  0  0  0  0  0  0  0  0  0
   10.0057   -8.2534   16.6076 O   0  0  0  0  0  0  0  0  0  0  0  0
    8.1251   -7.3271   17.6224 N   0  0  0  0  0  0  0  0  0  0  0  0
    9.7409   -6.4274   19.1880 H   0  0  0  0  0  0  0  0  0  0  0  0
    7.8669   -6.7376   18.3963 H   0  0  0  0  0  0  0  0  0  0  0  0
    1.4411   -7.4721   12.1207 C   0  0  0  0  0  0  0  0  0  0  0  0
    0.3260   -8.4074   11.6312 C   0  0  0  0  0  0  0  0  0  0  0  0
   -0.8415   -8.2337   11.9934 O   0  0  0  0  0  0  0  0  0  0  0  0
    0.6894   -9.4459   10.7768 N   0  0  0  0  0  0  0  0  0  0  0  0
    2.0462   -9.6868   10.3009 C   0  0  0  0  0  0  0  0  0  0  0  0
    2.3106   -9.0493    8.9592 C   0  0  0  0  0  0  0  0  0  0  0  0
    3.5801   -8.4785    8.7421 C   0  0  0  0  0  0  0  0  0  0  0  0
    3.8801   -7.8481    7.5384 C   0  0  0  0  0  0  0  0  0  0  0  0
    5.0925   -7.3067    7.3649 F   0  0  0  0  0  0  0  0  0  0  0  0
    2.9418   -7.7685    6.5230 C   0  0  0  0  0  0  0  0  0  0  0  0
    1.6879   -8.3449    6.7128 C   0  0  0  0  0  0  0  0  0  0  0  0
    1.3742   -9.0051    7.9100 C   0  0  0  0  0  0  0  0  0  0  0  0
    0.1045   -9.5193    7.9299 O   0  0  0  0  0  0  0  0  0  0  0  0
   -0.0955  -10.6759    8.7439 C   0  0  0  0  0  0  0  0  0  0  0  0
   -0.3697  -10.2955   10.2114 C   0  0  1  0  0  0  0  0  0  0  0  0
   -0.5080  -11.5395   11.0620 C   0  0  0  0  0  0  0  0  0  0  0  0
   -1.6216  -11.6500   12.0749 C   0  0  0  0  0  0  0  0  0  0  0  0
   -0.1994  -11.5055   12.5386 C   0  0  0  0  0  0  0  0  0  0  0  0
    5.7235   -6.3921   17.6591 H   0  0  0  0  0  0  0  0  0  0  0  0
    3.7937   -7.0654   16.3385 H   0  0  0  0  0  0  0  0  0  0  0  0
    8.1022   -9.3055   15.7534 H   0  0  0  0  0  0  0  0  0  0  0  0
    6.5128  -11.1699   14.4069 H   0  0  0  0  0  0  0  0  0  0  0  0
    6.4677  -10.0096   13.1740 H   0  0  0  0  0  0  0  0  0  0  0  0
    4.1796  -11.2688   14.6827 H   0  0  0  0  0  0  0  0  0  0  0  0
    4.2022  -10.8202   13.0192 H   0  0  0  0  0  0  0  0  0  0  0  0
   11.9709   -7.6673   17.6793 H   0  0  0  0  0  0  0  0  0  0  0  0
   11.9290   -7.5567   19.4226 H   0  0  0  0  0  0  0  0  0  0  0  0
   12.0826   -6.1074   18.4587 H   0  0  0  0  0  0  0  0  0  0  0  0
    2.0988   -7.2423   11.3086 H   0  0  0  0  0  0  0  0  0  0  0  0
    1.0140   -6.5649   12.4942 H   0  0  0  0  0  0  0  0  0  0  0  0
    2.1970  -10.7426   10.2146 H   0  0  0  0  0  0  0  0  0  0  0  0
    2.7205   -9.2490   11.0070 H   0  0  0  0  0  0  0  0  0  0  0  0
    4.2956   -8.5284    9.4841 H   0  0  0  0  0  0  0  0  0  0  0  0
    3.1684   -7.2887    5.6378 H   0  0  0  0  0  0  0  0  0  0  0  0
    0.9810   -8.2855    5.9633 H   0  0  0  0  0  0  0  0  0  0  0  0
    0.7822  -11.2864    8.7015 H   0  0  0  0  0  0  0  0  0  0  0  0
   -0.9472  -11.2051    8.3704 H   0  0  0  0  0  0  0  0  0  0  0  0
   -1.2835   -9.7390   10.2183 H   0  0  0  0  0  0  0  0  0  0  0  0
   -0.1714  -12.1271   10.2335 H   0  0  0  0  0  0  0  0  0  0  0  0
   -2.1349  -12.5797   12.2059 H   0  0  0  0  0  0  0  0  0  0  0  0
   -2.5334  -11.1204   12.2566 H   0  0  0  0  0  0  0  0  0  0  0  0
    0.2992  -12.3324   12.9997 H   0  0  0  0  0  0  0  0  0  0  0  0
    0.3192  -10.8305   13.1869 H   0  0  0  0  0  0  0  0  0  0  0  0
  1  2  2  0  0  0  0
  2  3  1  0  0  0  0
  2 41  1  0  0  0  0
  3  4  2  0  0  0  0
  3 42  1  0  0  0  0
  4  5  1  0  0  0  0
  5  6  2  0  0  0  0
  5  7  1  0  0  0  0
  6  1  1  0  0  0  0
  6 43  1  0  0  0  0
  7  8  1  0  0  0  0
  7 44  1  0  0  0  0
  7 45  1  0  0  0  0
  8  9  1  0  0  0  0
  8 46  1  0  0  0  0
  8 47  1  0  0  0  0
  9 10  1  1  0  0  0
  9  4  1  0  0  0  0
 10 11  1  0  0  0  0
 11 12  2  0  0  0  0
 11 13  1  0  0  0  0
 13 23  1  0  0  0  0
 13 14  1  0  0  0  0
 14 15  2  0  0  0  0
 14  9  1  0  0  0  0
 16 17  1  0  0  0  0
 16 48  1  0  0  0  0
 16 49  1  0  0  0  0
 16 50  1  0  0  0  0
 17 18  1  0  0  0  0
 17 21  1  0  0  0  0
 18 19  2  0  0  0  0
 18 20  1  0  0  0  0
 20  1  1  0  0  0  0
 20 22  1  0  0  0  0
 23 24  1  0  0  0  0
 23 51  1  0  0  0  0
 23 52  1  0  0  0  0
 24 25  2  0  0  0  0
 24 26  1  0  0  0  0
 26 27  1  0  0  0  0
 27 28  1  0  0  0  0
 27 53  1  0  0  0  0
 27 54  1  0  0  0  0
 28 29  2  0  0  0  0
 29 30  1  0  0  0  0
 29 55  1  0  0  0  0
 30 31  1  0  0  0  0
 30 32  2  0  0  0  0
 32 33  1  0  0  0  0
 32 56  1  0  0  0  0
 33 34  2  0  0  0  0
 33 57  1  0  0  0  0
 34 35  1  0  0  0  0
 34 28  1  0  0  0  0
 35 36  1  0  0  0  0
 36 37  1  0  0  0  0
 36 58  1  0  0  0  0
 36 59  1  0  0  0  0
 37 38  1  0  0  0  0
 37 26  1  0  0  0  0
 37 60  1  1  0  0  0
 38 39  1  0  0  0  0
 38 61  1  0  0  0  0
 39 40  1  0  0  0  0
 39 62  1  0  0  0  0
 39 63  1  0  0  0  0
 40 38  1  0  0  0  0
 40 64  1  0  0  0  0
 40 65  1  0  0  0  0
M  END
>  <minimizedAffinity>
-8.95812

$$$$
