L1:Q92793:136992


 40 45  0  0  0  0  0  0  0  0999 V2000
    7.0667   -7.7933   16.8149 C   0  0  0  0  0  0  0  0  0  0  0  0
    5.8172   -7.1569   16.9726 C   0  0  0  0  0  0  0  0  0  0  0  0
    4.7022   -7.5400   16.2185 C   0  0  0  0  0  0  0  0  0  0  0  0
    4.8491   -8.5717   15.3077 C   0  0  0  0  0  0  0  0  0  0  0  0
    6.0817   -9.2153   15.1539 C   0  0  0  0  0  0  0  0  0  0  0  0
    7.1953   -8.8319   15.8887 C   0  0  0  0  0  0  0  0  0  0  0  0
    6.0051  -10.2792   14.1004 C   0  0  0  0  0  0  0  0  0  0  0  0
    4.4877  -10.5040   14.0007 C   0  0  0  0  0  0  0  0  0  0  0  0
    3.8354   -9.1636   14.3718 C   0  0  0  0  0  0  0  0  0  0  0  0
    2.5687   -9.3564   14.9952 O   0  0  0  0  0  0  0  0  0  0  0  0
    1.6182   -8.7463   14.2313 C   0  0  0  0  0  0  0  0  0  0  0  0
    0.4306   -8.7517   14.5144 O   0  0  0  0  0  0  0  0  0  0  0  0
    2.1809   -8.1319   13.1712 N   0  0  0  0  0  0  0  0  0  0  0  0
    3.5233   -8.3190   13.1619 C   0  0  0  0  0  0  0  0  0  0  0  0
    4.3089   -7.8870   12.3317 O   0  0  0  0  0  0  0  0  0  0  0  0
   11.6390   -7.0798   18.5097 C   0  0  0  0  0  0  0  0  0  0  0  0
   10.2046   -6.9559   18.4673 N   0  0  0  0  0  0  0  0  0  0  0  0
    9.4718   -7.5780   17.4775 C   0  0  0  0  0  0  0  0  0  0  0  0
   10.0057   -8.2534   16.6076 O   0  0  0  0  0  0  0  0  0  0  0  0
    8.1251   -7.3271   17.6224 N   0  0  0  0  0  0  0  0  0  0  0  0
    9.7409   -6.4274   19.1880 H   0  0  0  0  0  0  0  0  0  0  0  0
    7.8669   -6.7376   18.3963 H   0  0  0  0  0  0  0  0  0  0  0  0
    1.4411   -7.4721   12.1207 C   0  0  0  0  0  0  0  0  0  0  0  0
    0.3260   -8.4074   11.6312 C   0  0  0  0  0  0  0  0  0  0  0  0
   -0.8415   -8.2337   11.9934 O   0  0  0  0  0  0  0  0  0  0  0  0
    0.6894   -9.4459   10.7768 N   0  0  0  0  0  0  0  0  0  0  0  0
    2.0462   -9.6868   10.3009 C   0  0  0  0  0  0  0  0  0  0  0  0
    2.3106   -9.0493    8.9592 C   0  0  0  0  0  0  0  0  0  0  0  0
    3.5801   -8.4785    8.7421 C   0  0  0  0  0  0  0  0  0  0  0  0
    3.8801   -7.8481    7.5384 C   0  0  0  0  0  0  0  0  0  0  0  0
    5.0925   -7.3067    7.3649 F   0  0  0  0  0  0  0  0  0  0  0  0
    2.9418   -7.7685    6.5230 C   0  0  0  0  0  0  0  0  0  0  0  0
    1.6879   -8.3449    6.7128 C   0  0  0  0  0  0  0  0  0  0  0  0
    1.3742   -9.0051    7.9100 C   0  0  0  0  0  0  0  0  0  0  0  0
    0.1045   -9.5193    7.9299 O   0  0  0  0  0  0  0  0  0  0  0  0
   -0.0955  -10.6759    8.7439 C   0  0  0  0  0  0  0  0  0  0  0  0
   -0.3697  -10.2955   10.2114 C   0  0  0  0  0  0  0  0  0  0  0  0
   -0.5080  -11.5395   11.0620 C   0  0  0  0  0  0  0  0  0  0  0  0
   -1.6216  -11.6500   12.0749 C   0  0  0  0  0  0  0  0  0  0  0  0
   -0.1994  -11.5055   12.5386 C   0  0  0  0  0  0  0  0  0  0  0  0
 16 17  1  0  0  0
 17 18  1  0  0  0
 18 19  2  0  0  0
 18 20  1  0  0  0
 20  1  1  0  0  0
  1  2  2  0  0  0
  2  3  1  0  0  0
  3  4  2  0  0  0
  4  5  1  0  0  0
  5  6  2  0  0  0
  5  7  1  0  0  0
  7  8  1  0  0  0
  8  9  1  0  0  0
  9 10  1  0  0  0
 10 11  1  0  0  0
 11 12  2  0  0  0
 11 13  1  0  0  0
 13 23  1  0  0  0
 23 24  1  0  0  0
 24 25  2  0  0  0
 24 26  1  0  0  0
 26 27  1  0  0  0
 27 28  1  0  0  0
 28 29  2  0  0  0
 29 30  1  0  0  0
 30 31  1  0  0  0
 30 32  2  0  0  0
 32 33  1  0  0  0
 33 34  2  0  0  0
 34 35  1  0  0  0
 35 36  1  0  0  0
 36 37  1  0  0  0
 37 38  1  0  0  0
 38 39  1  0  0  0
 39 40  1  0  0  0
 13 14  1  0  0  0
 14 15  2  0  0  0
  6  1  1  0  0  0
 14  9  1  0  0  0
  9  4  1  0  0  0
 37 26  1  0  0  0
 40 38  1  0  0  0
 34 28  1  0  0  0
 17 21  1  0  0  0
 20 22  1  0  0  0
M  END
> <minimizedAffinity>
-8.95812

$$$$
