L1:Q92793:136992
     RDKit          3D

 65 70  0  0  0  0  0  0  0  0999 V2000
   10.5754    0.1444    0.9166 C   0  0  0  0  0  0  0  0  0  0  0  0
    9.2911    0.6663    1.3075 N   0  0  0  0  0  0  0  0  0  0  0  0
    8.1338   -0.0370    1.0434 C   0  0  0  0  0  0  0  0  0  0  0  0
    8.1531   -1.1206    0.4747 O   0  0  0  0  0  0  0  0  0  0  0  0
    7.0241    0.6414    1.4971 N   0  0  0  0  0  0  0  0  0  0  0  0
    5.6737    0.2417    1.4175 C   0  0  0  0  0  0  0  0  0  0  0  0
    4.7152    1.1244    1.9591 C   0  0  0  0  0  0  0  0  0  0  0  0
    3.3483    0.8258    1.9293 C   0  0  0  0  0  0  0  0  0  0  0  0
    2.9501   -0.3694    1.3562 C   0  0  0  0  0  0  0  0  0  0  0  0
    3.8952   -1.2551    0.8276 C   0  0  0  0  0  0  0  0  0  0  0  0
    5.2516   -0.9596    0.8416 C   0  0  0  0  0  0  0  0  0  0  0  0
    3.2306   -2.4656    0.2441 C   0  0  0  0  0  0  0  0  0  0  0  0
    1.8481   -2.4096    0.9138 C   0  0  0  0  0  0  0  0  0  0  0  0
    1.5659   -0.9232    1.1798 C   0  0  1  0  0  0  0  0  0  0  0  0
    0.7586   -0.7465    2.3406 O   0  0  0  0  0  0  0  0  0  0  0  0
   -0.3953   -0.1225    1.9687 C   0  0  0  0  0  0  0  0  0  0  0  0
   -1.2870    0.1545    2.7554 O   0  0  0  0  0  0  0  0  0  0  0  0
   -0.3816    0.1585    0.6501 N   0  0  0  0  0  0  0  0  0  0  0  0
   -1.4898    0.7352   -0.0748 C   0  0  0  0  0  0  0  0  0  0  0  0
   -2.4153   -0.3927   -0.5533 C   0  0  0  0  0  0  0  0  0  0  0  0
   -2.1250   -1.5739   -0.3411 O   0  0  0  0  0  0  0  0  0  0  0  0
   -3.5761   -0.0257   -1.2303 N   0  0  0  0  0  0  0  0  0  0  0  0
   -3.9792    1.3508   -1.4913 C   0  0  0  0  0  0  0  0  0  0  0  0
   -4.9217    1.8867   -0.4420 C   0  0  0  0  0  0  0  0  0  0  0  0
   -4.7718    3.2314   -0.0498 C   0  0  0  0  0  0  0  0  0  0  0  0
   -5.5880    3.7806    0.9343 C   0  0  0  0  0  0  0  0  0  0  0  0
   -5.4155    5.0593    1.2925 F   0  0  0  0  0  0  0  0  0  0  0  0
   -6.5694    3.0222    1.5504 C   0  0  0  0  0  0  0  0  0  0  0  0
   -6.7450    1.6963    1.1610 C   0  0  0  0  0  0  0  0  0  0  0  0
   -5.9479    1.1313    0.1545 C   0  0  0  0  0  0  0  0  0  0  0  0
   -6.2549   -0.1773   -0.1107 O   0  0  0  0  0  0  0  0  0  0  0  0
   -5.9954   -0.6296   -1.4405 C   0  0  0  0  0  0  0  0  0  0  0  0
   -4.5312   -1.0774   -1.6111 C   0  0  1  0  0  0  0  0  0  0  0  0
   -4.2676   -1.4847   -3.0445 C   0  0  0  0  0  0  0  0  0  0  0  0
   -4.6212   -2.8731   -3.5194 C   0  0  0  0  0  0  0  0  0  0  0  0
   -3.1790   -2.4742   -3.3801 C   0  0  0  0  0  0  0  0  0  0  0  0
    0.7644   -0.2812    0.0752 C   0  0  0  0  0  0  0  0  0  0  0  0
    1.0707   -0.1747   -1.1028 O   0  0  0  0  0  0  0  0  0  0  0  0
   10.5800   -0.0451   -0.1603 H   0  0  0  0  0  0  0  0  0  0  0  0
   11.3441    0.8782    1.1693 H   0  0  0  0  0  0  0  0  0  0  0  0
   10.7617   -0.7904    1.4520 H   0  0  0  0  0  0  0  0  0  0  0  0
    9.2525    1.5433    1.8005 H   0  0  0  0  0  0  0  0  0  0  0  0
    7.1991    1.5305    1.9353 H   0  0  0  0  0  0  0  0  0  0  0  0
    5.0264    2.0619    2.4136 H   0  0  0  0  0  0  0  0  0  0  0  0
    2.6267    1.5167    2.3541 H   0  0  0  0  0  0  0  0  0  0  0  0
    5.9479   -1.6682    0.4072 H   0  0  0  0  0  0  0  0  0  0  0  0
    3.7556   -3.3914    0.4956 H   0  0  0  0  0  0  0  0  0  0  0  0
    3.1506   -2.3639   -0.8430 H   0  0  0  0  0  0  0  0  0  0  0  0
    1.0833   -2.8913    0.2942 H   0  0  0  0  0  0  0  0  0  0  0  0
    1.8765   -2.9613    1.8640 H   0  0  0  0  0  0  0  0  0  0  0  0
   -1.1036    1.2743   -0.9448 H   0  0  0  0  0  0  0  0  0  0  0  0
   -2.0459    1.4064    0.5858 H   0  0  0  0  0  0  0  0  0  0  0  0
   -4.4464    1.4150   -2.4807 H   0  0  0  0  0  0  0  0  0  0  0  0
   -3.0872    1.9814   -1.5434 H   0  0  0  0  0  0  0  0  0  0  0  0
   -4.0109    3.8673   -0.4949 H   0  0  0  0  0  0  0  0  0  0  0  0
   -7.1901    3.4616    2.3241 H   0  0  0  0  0  0  0  0  0  0  0  0
   -7.5151    1.0940    1.6385 H   0  0  0  0  0  0  0  0  0  0  0  0
   -6.3078    0.1217   -2.1781 H   0  0  0  0  0  0  0  0  0  0  0  0
   -6.6499   -1.4927   -1.6135 H   0  0  0  0  0  0  0  0  0  0  0  0
   -4.3727   -1.9366   -0.9472 H   0  0  0  0  0  0  0  0  0  0  0  0
   -4.4253   -0.6710   -3.7443 H   0  0  0  0  0  0  0  0  0  0  0  0
   -5.0115   -3.5909   -2.8061 H   0  0  0  0  0  0  0  0  0  0  0  0
   -5.0193   -2.9846   -4.5217 H   0  0  0  0  0  0  0  0  0  0  0  0
   -2.6032   -2.3092   -4.2837 H   0  0  0  0  0  0  0  0  0  0  0  0
   -2.6072   -2.9185   -2.5721 H   0  0  0  0  0  0  0  0  0  0  0  0
  1  2  1  0
  2  3  1  0
  3  4  2  0
  3  5  1  0
  5  6  1  0
  6  7  2  0
  7  8  1  0
  8  9  2  0
  9 10  1  0
 10 11  2  0
 10 12  1  0
 12 13  1  0
 13 14  1  0
 14 15  1  1
 15 16  1  0
 16 17  2  0
 16 18  1  0
 18 19  1  0
 19 20  1  0
 20 21  2  0
 20 22  1  0
 22 23  1  0
 23 24  1  0
 24 25  2  0
 25 26  1  0
 26 27  1  0
 26 28  2  0
 28 29  1  0
 29 30  2  0
 30 31  1  0
 31 32  1  0
 32 33  1  0
 33 34  1  0
 34 35  1  0
 35 36  1  0
 18 37  1  0
 37 38  2  0
 11  6  1  0
 37 14  1  0
 14  9  1  0
 33 22  1  0
 36 34  1  0
 30 24  1  0
  1 39  1  0
  1 40  1  0
  1 41  1  0
  2 42  1  0
  5 43  1  0
  7 44  1  0
  8 45  1  0
 11 46  1  0
 12 47  1  0
 12 48  1  0
 13 49  1  0
 13 50  1  0
 19 51  1  0
 19 52  1  0
 23 53  1  0
 23 54  1  0
 25 55  1  0
 28 56  1  0
 29 57  1  0
 32 58  1  0
 32 59  1  0
 33 60  1  1
 34 61  1  0
 35 62  1  0
 35 63  1  0
 36 64  1  0
 36 65  1  0
M  END
>  <mol_id>  (1) 
136992

>  <source_index>  (1) 
9

>  <layer>  (1) 
L1

>  <uniprot>  (1) 
Q92793

>  <paff>  (1) 
7.9585999999999997

>  <smiles>  (1) 
CNC(=O)Nc1ccc2c(CC[C@@]22OC(=O)N(CC(=O)N3Cc4cc(F)ccc4OC[C@H]3C3CC3)C2=O)c1 |r|

$$$$
