L1:Q92793:25339


 34 38  0  0  0  0  0  0  0  0999 V2000
    5.3716   -8.0309   16.9978 C   0  0  0  0  0  0  0  0  0  0  0  0
    5.0790   -8.2413   18.3530 C   0  0  0  0  0  0  0  0  0  0  0  0
    3.7723   -8.1334   18.8467 C   0  0  0  0  0  0  0  0  0  0  0  0
    2.7701   -7.8095   17.9254 C   0  0  0  0  0  0  0  0  0  0  0  0
    3.0324   -7.5973   16.5769 C   0  0  0  0  0  0  0  0  0  0  0  0
    4.3456   -7.7085   16.0971 C   0  0  0  0  0  0  0  0  0  0  0  0
    1.8830   -7.2933   15.8956 N   0  0  0  0  0  0  0  0  0  0  0  0
    0.9133   -7.3063   16.7884 C   0  0  0  0  0  0  0  0  0  0  0  0
    1.4106   -7.6223   18.0361 N   0  0  0  0  0  0  0  0  0  0  0  0
    8.0888   -6.3899   17.8815 C   0  0  0  0  0  0  0  0  0  0  0  0
    7.9180   -7.4729   16.8853 C   0  0  0  0  0  0  0  0  0  0  0  0
    8.9730   -7.9169   16.1903 N   0  0  0  0  0  0  0  0  0  0  0  0
    8.4869   -8.9093   15.3611 O   0  0  0  0  0  0  0  0  0  0  0  0
    7.1498   -9.0605   15.5615 C   0  0  0  0  0  0  0  0  0  0  0  0
    6.4912  -10.1083   14.7583 C   0  0  0  0  0  0  0  0  0  0  0  0
    6.7308   -8.1599   16.5166 C   0  0  0  0  0  0  0  0  0  0  0  0
   -0.5333   -7.0316   16.5183 C   0  0  0  0  0  0  0  0  0  0  0  0
   -0.7374   -5.8783   15.5330 C   0  0  0  0  0  0  0  0  0  0  0  0
   -0.4784   -4.5452   16.1943 C   0  0  0  0  0  0  0  0  0  0  0  0
    0.3897   -3.6167   15.6030 C   0  0  0  0  0  0  0  0  0  0  0  0
    0.6502   -2.3973   16.2292 C   0  0  0  0  0  0  0  0  0  0  0  0
    0.0456   -2.1043   17.4453 C   0  0  0  0  0  0  0  0  0  0  0  0
    0.3279   -0.9011   18.0213 O   0  0  0  0  0  0  0  0  0  0  0  0
   -0.8170   -3.0127   18.0498 C   0  0  0  0  0  0  0  0  0  0  0  0
   -1.0763   -4.2343   17.4241 C   0  0  0  0  0  0  0  0  0  0  0  0
   -0.1932   -0.8197   18.8368 H   0  0  0  0  0  0  0  0  0  0  0  0
    0.6409   -7.7469   19.2637 C   0  0  0  0  0  0  0  0  0  0  0  0
    0.4254   -9.2180   19.6513 C   0  0  0  0  0  0  0  0  0  0  0  0
    0.8070   -9.6059   21.0133 N   0  0  0  0  0  0  0  0  0  0  0  0
    1.1946   -8.4783   21.8757 C   0  0  0  0  0  0  0  0  0  0  0  0
    1.8821   -8.9771   23.1556 C   0  0  0  0  0  0  0  0  0  0  0  0
    3.1180   -9.6546   22.8899 O   0  0  0  0  0  0  0  0  0  0  0  0
    3.1494  -10.3070   21.6144 C   0  0  0  0  0  0  0  0  0  0  0  0
    1.7615  -10.7247   21.0999 C   0  0  0  0  0  0  0  0  0  0  0  0
 10 11  1  0  0  0
 11 12  2  0  0  0
 12 13  1  0  0  0
 13 14  1  0  0  0
 14 15  1  0  0  0
 14 16  2  0  0  0
 16  1  1  0  0  0
  1  2  2  0  0  0
  2  3  1  0  0  0
  3  4  2  0  0  0
  4  5  1  0  0  0
  5  6  2  0  0  0
  5  7  1  0  0  0
  7  8  2  0  0  0
  8 17  1  0  0  0
 17 18  1  0  0  0
 18 19  1  0  0  0
 19 20  2  0  0  0
 20 21  1  0  0  0
 21 22  2  0  0  0
 22 23  1  0  0  0
 22 24  1  0  0  0
 24 25  2  0  0  0
  8  9  1  0  0  0
  9 27  1  0  0  0
 27 28  1  0  0  0
 28 29  1  0  0  0
 29 30  1  0  0  0
 30 31  1  0  0  0
 31 32  1  0  0  0
 32 33  1  0  0  0
 33 34  1  0  0  0
 16 11  1  0  0  0
  6  1  1  0  0  0
 25 19  1  0  0  0
 34 29  1  0  0  0
  9  4  1  0  0  0
 23 26  1  0  0  0
M  END
> <minimizedAffinity>
-8.39248

$$$$
