L1:Q92793:32149
     RDKit          3D

 78 82  0  0  0  0  0  0  0  0999 V2000
    8.4951   -3.7903   -0.0763 C   0  0  0  0  0  0  0  0  0  0  0  0
    8.7807   -2.4416   -0.4482 O   0  0  0  0  0  0  0  0  0  0  0  0
    8.6893   -1.5514    0.5797 C   0  0  0  0  0  0  0  0  0  0  0  0
    8.4098   -1.8378    1.7356 O   0  0  0  0  0  0  0  0  0  0  0  0
    9.0176   -0.1648    0.0795 C   0  0  0  0  0  0  0  0  0  0  0  0
    8.6879    0.9258    1.1009 C   0  0  0  0  0  0  0  0  0  0  0  0
    7.1874    1.0961    1.3464 C   0  0  0  0  0  0  0  0  0  0  0  0
    6.5599    1.4348    0.1099 O   0  0  0  0  0  0  0  0  0  0  0  0
    5.2057    1.6236    0.1296 C   0  0  0  0  0  0  0  0  0  0  0  0
    4.3767    1.5153    1.2456 C   0  0  0  0  0  0  0  0  0  0  0  0
    2.9998    1.7339    1.1237 C   0  0  0  0  0  0  0  0  0  0  0  0
    2.4361    2.0674   -0.1139 C   0  0  0  0  0  0  0  0  0  0  0  0
    0.9467    2.2759   -0.2475 C   0  0  0  0  0  0  0  0  0  0  0  0
    0.2336    0.9731   -0.6190 C   0  0  0  0  0  0  0  0  0  0  0  0
   -1.2501    1.1440   -0.7283 C   0  0  0  0  0  0  0  0  0  0  0  0
   -1.9047    2.2866   -0.6612 N   0  0  0  0  0  0  0  0  0  0  0  0
   -3.2305    1.9763   -0.8125 C   0  0  0  0  0  0  0  0  0  0  0  0
   -4.3462    2.8260   -0.8177 C   0  0  0  0  0  0  0  0  0  0  0  0
   -5.6224    2.2690   -0.9923 C   0  0  0  0  0  0  0  0  0  0  0  0
   -6.7919    3.1222   -1.0009 C   0  0  0  0  0  0  0  0  0  0  0  0
   -7.9613    3.1095   -0.1950 C   0  0  0  0  0  0  0  0  0  0  0  0
   -8.3009    2.2072    0.9294 C   0  0  0  0  0  0  0  0  0  0  0  0
   -8.8150    4.0742   -0.5601 N   0  0  0  0  0  0  0  0  0  0  0  0
   -8.2077    4.7366   -1.6097 O   0  0  0  0  0  0  0  0  0  0  0  0
   -7.0021    4.1654   -1.8767 C   0  0  0  0  0  0  0  0  0  0  0  0
   -6.2388    4.7581   -2.9920 C   0  0  0  0  0  0  0  0  0  0  0  0
   -5.7705    0.8841   -1.1511 C   0  0  0  0  0  0  0  0  0  0  0  0
   -4.6654    0.0228   -1.1465 C   0  0  0  0  0  0  0  0  0  0  0  0
   -3.4053    0.6071   -0.9756 C   0  0  0  0  0  0  0  0  0  0  0  0
   -2.1276    0.0963   -0.9176 N   0  0  0  0  0  0  0  0  0  0  0  0
   -1.7814   -1.3109   -1.0322 C   0  0  0  0  0  0  0  0  0  0  0  0
   -1.8602   -2.0252    0.3248 C   0  0  0  0  0  0  0  0  0  0  0  0
   -1.4550   -3.4375    0.2395 N   0  0  0  0  0  0  0  0  0  0  0  0
   -1.0908   -3.9558    1.5786 C   0  0  0  0  0  0  0  0  0  0  0  0
   -1.1274   -5.4901    1.6235 C   0  0  0  0  0  0  0  0  0  0  0  0
   -2.4423   -6.0186    1.4038 O   0  0  0  0  0  0  0  0  0  0  0  0
   -3.2711   -5.1579    0.6139 C   0  0  0  0  0  0  0  0  0  0  0  0
   -2.4761   -4.3058   -0.3899 C   0  0  0  0  0  0  0  0  0  0  0  0
    3.2713    2.1725   -1.2311 C   0  0  0  0  0  0  0  0  0  0  0  0
    4.6449    1.9531   -1.1061 C   0  0  0  0  0  0  0  0  0  0  0  0
    8.5858   -4.4145   -0.9695 H   0  0  0  0  0  0  0  0  0  0  0  0
    7.4720   -3.8753    0.3031 H   0  0  0  0  0  0  0  0  0  0  0  0
    9.2160   -4.1432    0.6677 H   0  0  0  0  0  0  0  0  0  0  0  0
   10.0922   -0.1401   -0.1339 H   0  0  0  0  0  0  0  0  0  0  0  0
    8.4764    0.0141   -0.8558 H   0  0  0  0  0  0  0  0  0  0  0  0
    9.1886    0.7178    2.0536 H   0  0  0  0  0  0  0  0  0  0  0  0
    9.0896    1.8726    0.7192 H   0  0  0  0  0  0  0  0  0  0  0  0
    7.0440    1.9079    2.0699 H   0  0  0  0  0  0  0  0  0  0  0  0
    6.7611    0.1710    1.7490 H   0  0  0  0  0  0  0  0  0  0  0  0
    4.7662    1.2630    2.2261 H   0  0  0  0  0  0  0  0  0  0  0  0
    2.3698    1.6444    2.0063 H   0  0  0  0  0  0  0  0  0  0  0  0
    0.7556    3.0492   -1.0033 H   0  0  0  0  0  0  0  0  0  0  0  0
    0.5496    2.6761    0.6948 H   0  0  0  0  0  0  0  0  0  0  0  0
    0.4540    0.2084    0.1359 H   0  0  0  0  0  0  0  0  0  0  0  0
    0.6187    0.6022   -1.5772 H   0  0  0  0  0  0  0  0  0  0  0  0
   -4.2000    3.8917   -0.6783 H   0  0  0  0  0  0  0  0  0  0  0  0
   -9.0813    2.6370    1.5661 H   0  0  0  0  0  0  0  0  0  0  0  0
   -8.6627    1.2467    0.5492 H   0  0  0  0  0  0  0  0  0  0  0  0
   -7.4244    2.0218    1.5584 H   0  0  0  0  0  0  0  0  0  0  0  0
   -5.7376    3.9822   -3.5788 H   0  0  0  0  0  0  0  0  0  0  0  0
   -5.4798    5.4472   -2.6095 H   0  0  0  0  0  0  0  0  0  0  0  0
   -6.8953    5.3152   -3.6680 H   0  0  0  0  0  0  0  0  0  0  0  0
   -6.7615    0.4560   -1.2961 H   0  0  0  0  0  0  0  0  0  0  0  0
   -4.7938   -1.0461   -1.2766 H   0  0  0  0  0  0  0  0  0  0  0  0
   -2.4600   -1.7527   -1.7694 H   0  0  0  0  0  0  0  0  0  0  0  0
   -0.7721   -1.3808   -1.4522 H   0  0  0  0  0  0  0  0  0  0  0  0
   -2.8661   -1.9352    0.7556 H   0  0  0  0  0  0  0  0  0  0  0  0
   -1.1847   -1.4990    1.0127 H   0  0  0  0  0  0  0  0  0  0  0  0
   -0.0850   -3.6052    1.8350 H   0  0  0  0  0  0  0  0  0  0  0  0
   -1.7867   -3.5722    2.3368 H   0  0  0  0  0  0  0  0  0  0  0  0
   -0.4551   -5.9197    0.8715 H   0  0  0  0  0  0  0  0  0  0  0  0
   -0.7908   -5.8468    2.6022 H   0  0  0  0  0  0  0  0  0  0  0  0
   -3.8472   -4.5185    1.2930 H   0  0  0  0  0  0  0  0  0  0  0  0
   -3.9872   -5.7925    0.0818 H   0  0  0  0  0  0  0  0  0  0  0  0
   -1.9385   -4.9845   -1.0639 H   0  0  0  0  0  0  0  0  0  0  0  0
   -3.1724   -3.7373   -1.0154 H   0  0  0  0  0  0  0  0  0  0  0  0
    2.8604    2.4285   -2.2051 H   0  0  0  0  0  0  0  0  0  0  0  0
    5.2845    2.0415   -1.9808 H   0  0  0  0  0  0  0  0  0  0  0  0
  1  2  1  0
  2  3  1  0
  3  4  2  0
  3  5  1  0
  5  6  1  0
  6  7  1  0
  7  8  1  0
  8  9  1  0
  9 10  2  0
 10 11  1  0
 11 12  2  0
 12 13  1  0
 13 14  1  0
 14 15  1  0
 15 16  2  0
 16 17  1  0
 17 18  2  0
 18 19  1  0
 19 20  1  0
 20 21  1  0
 21 22  1  0
 21 23  2  0
 23 24  1  0
 24 25  1  0
 25 26  1  0
 19 27  2  0
 27 28  1  0
 28 29  2  0
 29 30  1  0
 30 31  1  0
 31 32  1  0
 32 33  1  0
 33 34  1  0
 34 35  1  0
 35 36  1  0
 36 37  1  0
 37 38  1  0
 12 39  1  0
 39 40  2  0
 40  9  1  0
 30 15  1  0
 38 33  1  0
 29 17  1  0
 25 20  2  0
  1 41  1  0
  1 42  1  0
  1 43  1  0
  5 44  1  0
  5 45  1  0
  6 46  1  0
  6 47  1  0
  7 48  1  0
  7 49  1  0
 10 50  1  0
 11 51  1  0
 13 52  1  0
 13 53  1  0
 14 54  1  0
 14 55  1  0
 18 56  1  0
 22 57  1  0
 22 58  1  0
 22 59  1  0
 26 60  1  0
 26 61  1  0
 26 62  1  0
 27 63  1  0
 28 64  1  0
 31 65  1  0
 31 66  1  0
 32 67  1  0
 32 68  1  0
 34 69  1  0
 34 70  1  0
 35 71  1  0
 35 72  1  0
 37 73  1  0
 37 74  1  0
 38 75  1  0
 38 76  1  0
 39 77  1  0
 40 78  1  0
M  END
>  <mol_id>  (1) 
32149

>  <source_index>  (1) 
2

>  <layer>  (1) 
L1

>  <uniprot>  (1) 
Q92793

>  <paff>  (1) 
6.3010000000000002

>  <smiles>  (1) 
COC(=O)CCCOc1ccc(CCc2nc3cc(-c4c(C)noc4C)ccc3n2CCN2CCOCC2)cc1

$$$$
