L1:Q92793:32149


 40 44  0  0  0  0  0  0  0  0999 V2000
    4.2770   -8.5377   18.1735 C   0  0  0  0  0  0  0  0  0  0  0  0
    4.5261   -8.8249   19.4360 N   0  0  0  0  0  0  0  0  0  0  0  0
    3.3140   -8.8205   20.0747 C   0  0  0  0  0  0  0  0  0  0  0  0
    3.0206   -9.0654   21.4240 C   0  0  0  0  0  0  0  0  0  0  0  0
    1.6849   -9.0027   21.8500 C   0  0  0  0  0  0  0  0  0  0  0  0
    0.6666   -8.7065   20.9333 C   0  0  0  0  0  0  0  0  0  0  0  0
    0.9445   -8.4611   19.5822 C   0  0  0  0  0  0  0  0  0  0  0  0
    2.2856   -8.5254   19.1875 C   0  0  0  0  0  0  0  0  0  0  0  0
    2.9240   -8.3496   17.9799 N   0  0  0  0  0  0  0  0  0  0  0  0
    1.3529   -9.2520   23.2369 C   0  0  0  0  0  0  0  0  0  0  0  0
    0.9116   -8.3741   24.2624 C   0  0  0  0  0  0  0  0  0  0  0  0
    0.6350   -6.9212   24.1816 C   0  0  0  0  0  0  0  0  0  0  0  0
    0.7413   -9.0242   25.4204 N   0  0  0  0  0  0  0  0  0  0  0  0
    1.0642  -10.3428   25.1626 O   0  0  0  0  0  0  0  0  0  0  0  0
    1.4344  -10.4784   23.8605 C   0  0  0  0  0  0  0  0  0  0  0  0
    1.8269  -11.8368   23.4381 C   0  0  0  0  0  0  0  0  0  0  0  0
    5.2944   -8.4237   17.0806 C   0  0  0  0  0  0  0  0  0  0  0  0
    5.9551   -7.0432   17.0381 C   0  0  0  0  0  0  0  0  0  0  0  0
   10.1425   -7.3234   18.0841 C   0  0  0  0  0  0  0  0  0  0  0  0
    9.2461   -6.6827   18.9388 C   0  0  0  0  0  0  0  0  0  0  0  0
    7.8928   -6.5862   18.5956 C   0  0  0  0  0  0  0  0  0  0  0  0
    7.4205   -7.1251   17.3927 C   0  0  0  0  0  0  0  0  0  0  0  0
    8.3230   -7.7690   16.5397 C   0  0  0  0  0  0  0  0  0  0  0  0
    9.6728   -7.8641   16.8854 C   0  0  0  0  0  0  0  0  0  0  0  0
   11.4830   -7.4881   18.2983 O   0  0  0  0  0  0  0  0  0  0  0  0
   12.0128   -6.9828   19.5236 C   0  0  0  0  0  0  0  0  0  0  0  0
   12.4585   -8.1651   20.3863 C   0  0  0  0  0  0  0  0  0  0  0  0
   11.3985   -8.6181   21.3926 C   0  0  0  0  0  0  0  0  0  0  0  0
   11.3859  -10.1148   21.5931 C   0  0  0  0  0  0  0  0  0  0  0  0
   10.5324  -10.7381   22.2090 O   0  0  0  0  0  0  0  0  0  0  0  0
   12.5717  -12.0826   21.1431 C   0  0  0  0  0  0  0  0  0  0  0  0
   12.4876  -10.6636   21.0078 O   0  0  0  0  0  0  0  0  0  0  0  0
    2.2674   -8.0270   16.7237 C   0  0  0  0  0  0  0  0  0  0  0  0
    2.1457   -6.5096   16.5223 C   0  0  0  0  0  0  0  0  0  0  0  0
    0.7889   -6.0136   16.8038 N   0  0  0  0  0  0  0  0  0  0  0  0
    0.5883   -4.6763   16.1991 C   0  0  0  0  0  0  0  0  0  0  0  0
   -0.9019   -4.3372   16.0509 C   0  0  0  0  0  0  0  0  0  0  0  0
   -1.5830   -5.2203   15.1494 O   0  0  0  0  0  0  0  0  0  0  0  0
   -0.9803   -6.5171   15.0676 C   0  0  0  0  0  0  0  0  0  0  0  0
   -0.2793   -6.9423   16.3689 C   0  0  0  0  0  0  0  0  0  0  0  0
 31 32  1  0  0  0
 32 29  1  0  0  0
 29 30  2  0  0  0
 29 28  1  0  0  0
 28 27  1  0  0  0
 27 26  1  0  0  0
 26 25  1  0  0  0
 25 19  1  0  0  0
 19 20  2  0  0  0
 20 21  1  0  0  0
 21 22  2  0  0  0
 22 18  1  0  0  0
 18 17  1  0  0  0
 17  1  1  0  0  0
  1  2  2  0  0  0
  2  3  1  0  0  0
  3  4  2  0  0  0
  4  5  1  0  0  0
  5 10  1  0  0  0
 10 11  1  0  0  0
 11 12  1  0  0  0
 11 13  2  0  0  0
 13 14  1  0  0  0
 14 15  1  0  0  0
 15 16  1  0  0  0
  5  6  2  0  0  0
  6  7  1  0  0  0
  7  8  2  0  0  0
  8  9  1  0  0  0
  9 33  1  0  0  0
 33 34  1  0  0  0
 34 35  1  0  0  0
 35 36  1  0  0  0
 36 37  1  0  0  0
 37 38  1  0  0  0
 38 39  1  0  0  0
 39 40  1  0  0  0
 22 23  1  0  0  0
 23 24  2  0  0  0
 24 19  1  0  0  0
  9  1  1  0  0  0
 40 35  1  0  0  0
  8  3  1  0  0  0
 15 10  2  0  0  0
M  END
> <minimizedAffinity>
-7.71573

$$$$
