L1:Q92793:37452
     RDKit          3D

 50 53  0  0  0  0  0  0  0  0999 V2000
   -6.9405    0.7007   -1.0290 C   0  0  0  0  0  0  0  0  0  0  0  0
   -6.1290   -0.5248   -1.3662 C   0  0  0  0  0  0  0  0  0  0  0  0
   -6.5956   -1.3544   -2.1475 O   0  0  0  0  0  0  0  0  0  0  0  0
   -4.7992   -0.6672   -0.7968 C   0  0  0  0  0  0  0  0  0  0  0  0
   -3.7193   -1.2393   -1.4518 C   0  0  0  0  0  0  0  0  0  0  0  0
   -2.5545   -1.1117   -0.6472 C   0  0  0  0  0  0  0  0  0  0  0  0
   -1.2096   -1.5403   -1.0400 C   0  0  0  0  0  0  0  0  0  0  0  0
   -1.0553   -2.5078   -1.7756 O   0  0  0  0  0  0  0  0  0  0  0  0
   -0.2053   -0.7241   -0.5648 N   0  0  0  0  0  0  0  0  0  0  0  0
    1.1898   -0.8754   -0.7225 C   0  0  0  0  0  0  0  0  0  0  0  0
    1.7940   -1.9532   -1.3692 C   0  0  0  0  0  0  0  0  0  0  0  0
    3.1927   -2.0322   -1.4797 C   0  0  0  0  0  0  0  0  0  0  0  0
    3.8054   -3.2296   -2.1635 C   0  0  0  0  0  0  0  0  0  0  0  0
    5.1418   -2.9669   -2.5696 O   0  0  0  0  0  0  0  0  0  0  0  0
    3.9810   -1.0190   -0.9078 C   0  0  0  0  0  0  0  0  0  0  0  0
    3.3992    0.0763   -0.2528 C   0  0  0  0  0  0  0  0  0  0  0  0
    4.2497    1.1039    0.3260 C   0  0  0  0  0  0  0  0  0  0  0  0
    5.5678    1.0302    0.8379 C   0  0  0  0  0  0  0  0  0  0  0  0
    6.0228    2.2081    1.2738 N   0  0  0  0  0  0  0  0  0  0  0  0
    4.9989    3.0458    1.0355 N   0  0  0  0  0  0  0  0  0  0  0  0
    5.1276    4.4403    1.3804 C   0  0  0  0  0  0  0  0  0  0  0  0
    3.9197    2.4367    0.4645 C   0  0  0  0  0  0  0  0  0  0  0  0
    2.0019    0.1278   -0.1711 C   0  0  0  0  0  0  0  0  0  0  0  0
    1.3908    1.1438    0.4668 F   0  0  0  0  0  0  0  0  0  0  0  0
   -2.9816   -0.5615    0.5533 C   0  0  0  0  0  0  0  0  0  0  0  0
   -2.3404   -0.2705    1.8005 C   0  0  0  0  0  0  0  0  0  0  0  0
   -3.0513    0.2211    2.8292 C   0  0  0  0  0  0  0  0  0  0  0  0
   -2.4503    0.4956    4.0334 O   0  0  0  0  0  0  0  0  0  0  0  0
   -4.4768    0.4530    2.7245 C   0  0  0  0  0  0  0  0  0  0  0  0
   -5.0912    0.1740    1.5628 C   0  0  0  0  0  0  0  0  0  0  0  0
   -4.3598   -0.3144    0.4707 N   0  0  0  0  0  0  0  0  0  0  0  0
   -6.2984    1.5383   -0.7445 H   0  0  0  0  0  0  0  0  0  0  0  0
   -7.6461    0.4695   -0.2278 H   0  0  0  0  0  0  0  0  0  0  0  0
   -7.5034    1.0071   -1.9165 H   0  0  0  0  0  0  0  0  0  0  0  0
   -3.7543   -1.6594   -2.4520 H   0  0  0  0  0  0  0  0  0  0  0  0
   -0.4898    0.1141   -0.0700 H   0  0  0  0  0  0  0  0  0  0  0  0
    1.1978   -2.7539   -1.7981 H   0  0  0  0  0  0  0  0  0  0  0  0
    3.2285   -3.4871   -3.0581 H   0  0  0  0  0  0  0  0  0  0  0  0
    3.8107   -4.0808   -1.4752 H   0  0  0  0  0  0  0  0  0  0  0  0
    5.4464   -3.7573   -3.0462 H   0  0  0  0  0  0  0  0  0  0  0  0
    5.0647   -1.0882   -0.9961 H   0  0  0  0  0  0  0  0  0  0  0  0
    6.2134    0.1647    0.9153 H   0  0  0  0  0  0  0  0  0  0  0  0
    5.9671    4.8583    0.8194 H   0  0  0  0  0  0  0  0  0  0  0  0
    4.2059    4.9665    1.1201 H   0  0  0  0  0  0  0  0  0  0  0  0
    5.3081    4.5143    2.4557 H   0  0  0  0  0  0  0  0  0  0  0  0
    3.0287    2.9928    0.2084 H   0  0  0  0  0  0  0  0  0  0  0  0
   -1.2828   -0.4715    1.9400 H   0  0  0  0  0  0  0  0  0  0  0  0
   -3.1229    0.7882    4.6697 H   0  0  0  0  0  0  0  0  0  0  0  0
   -5.0386    0.8209    3.5748 H   0  0  0  0  0  0  0  0  0  0  0  0
   -6.1584    0.2985    1.4557 H   0  0  0  0  0  0  0  0  0  0  0  0
  1  2  1  0
  2  3  2  0
  2  4  1  0
  4  5  2  0
  5  6  1  0
  6  7  1  0
  7  8  2  0
  7  9  1  0
  9 10  1  0
 10 11  2  0
 11 12  1  0
 12 13  1  0
 13 14  1  0
 12 15  2  0
 15 16  1  0
 16 17  1  0
 17 18  1  0
 18 19  2  0
 19 20  1  0
 20 21  1  0
 20 22  1  0
 16 23  2  0
 23 24  1  0
  6 25  2  0
 25 26  1  0
 26 27  2  0
 27 28  1  0
 27 29  1  0
 29 30  2  0
 30 31  1  0
 31  4  1  0
 23 10  1  0
 31 25  1  0
 22 17  2  0
  1 32  1  0
  1 33  1  0
  1 34  1  0
  5 35  1  0
  9 36  1  0
 11 37  1  0
 13 38  1  0
 13 39  1  0
 14 40  1  0
 15 41  1  0
 18 42  1  0
 21 43  1  0
 21 44  1  0
 21 45  1  0
 22 46  1  0
 26 47  1  0
 28 48  1  0
 29 49  1  0
 30 50  1  0
M  END
>  <mol_id>  (1) 
37452

>  <source_index>  (1) 
3

>  <layer>  (1) 
L1

>  <uniprot>  (1) 
Q92793

>  <paff>  (1) 
8.2218

>  <smiles>  (1) 
CC(=O)c1cc(C(=O)Nc2cc(CO)cc(-c3cnn(C)c3)c2F)c2cc(O)ccn12

$$$$
