L1:Q92793:37452
 OpenBabel09212617423D

 50 53  0  0  0  0  0  0  0  0999 V2000
    3.1559   -9.4752   13.5758 C   0  0  0  0  0  0  0  0  0  0  0  0
    3.3387  -10.6225   13.9647 O   0  0  0  0  0  0  0  0  0  0  0  0
    3.5044   -8.3299   14.2597 N   0  0  0  0  0  0  0  0  0  0  0  0
    3.4101   -7.4512   13.7625 H   0  0  0  0  0  0  0  0  0  0  0  0
    1.0438   -9.1056   10.5577 C   0  0  0  0  0  0  0  0  0  0  0  0
    1.2136   -9.3558   11.9108 C   0  0  0  0  0  0  0  0  0  0  0  0
    2.5876   -9.2212   12.2495 C   0  0  0  0  0  0  0  0  0  0  0  0
    3.2185   -8.7670   11.0997 C   0  0  0  0  0  0  0  0  0  0  0  0
    4.5537   -8.3482   10.7945 C   0  0  0  0  0  0  0  0  0  0  0  0
    4.8566   -7.8912    9.5679 C   0  0  0  0  0  0  0  0  0  0  0  0
    6.1310   -7.4777    9.2651 O   0  0  0  0  0  0  0  0  0  0  0  0
    3.8544   -7.7868    8.5280 C   0  0  0  0  0  0  0  0  0  0  0  0
    2.5961   -8.1670    8.8055 C   0  0  0  0  0  0  0  0  0  0  0  0
    2.2685   -8.6712   10.0723 N   0  0  0  0  0  0  0  0  0  0  0  0
    6.1501   -7.1308    8.3583 H   0  0  0  0  0  0  0  0  0  0  0  0
   -0.5923  -10.6066    9.3005 C   0  0  0  0  0  0  0  0  0  0  0  0
   -0.2133   -9.2514    9.8426 C   0  0  0  0  0  0  0  0  0  0  0  0
   -0.9961   -8.3112    9.7025 O   0  0  0  0  0  0  0  0  0  0  0  0
    4.0327   -8.2197   15.5646 C   0  0  0  0  0  0  0  0  0  0  0  0
    3.2585   -8.1808   16.7239 C   0  0  0  0  0  0  0  0  0  0  0  0
    3.8625   -8.0644   17.9874 C   0  0  0  0  0  0  0  0  0  0  0  0
    5.2620   -7.9639   18.0684 C   0  0  0  0  0  0  0  0  0  0  0  0
    6.0642   -8.0014   16.9186 C   0  0  0  0  0  0  0  0  0  0  0  0
    5.4289   -8.1291   15.6769 C   0  0  0  0  0  0  0  0  0  0  0  0
    6.1481   -8.1465   14.5389 F   0  0  0  0  0  0  0  0  0  0  0  0
    7.5088   -7.8942   17.0447 C   0  0  0  0  0  0  0  0  0  0  0  0
    8.5478   -8.5109   16.3064 C   0  0  0  0  0  0  0  0  0  0  0  0
    9.7652   -8.1441   16.7162 N   0  0  0  0  0  0  0  0  0  0  0  0
    9.5114   -7.2826   17.7163 N   0  0  0  0  0  0  0  0  0  0  0  0
   10.6103   -6.6624   18.4149 C   0  0  0  0  0  0  0  0  0  0  0  0
    8.1799   -7.0943   17.9471 C   0  0  0  0  0  0  0  0  0  0  0  0
    2.9855   -7.9984   19.2135 C   0  0  0  0  0  0  0  0  0  0  0  0
    3.7206   -8.2957   20.3930 O   0  0  0  0  0  0  0  0  0  0  0  0
    3.0823   -8.2875   21.1259 H   0  0  0  0  0  0  0  0  0  0  0  0
    0.4589   -9.6018   12.5703 H   0  0  0  0  0  0  0  0  0  0  0  0
    5.2862   -8.3977   11.5198 H   0  0  0  0  0  0  0  0  0  0  0  0
    4.1017   -7.4276    7.5927 H   0  0  0  0  0  0  0  0  0  0  0  0
    1.8654   -8.0874    8.0811 H   0  0  0  0  0  0  0  0  0  0  0  0
   -1.5388  -10.5409    8.8058 H   0  0  0  0  0  0  0  0  0  0  0  0
   -0.6590  -11.3072   10.1065 H   0  0  0  0  0  0  0  0  0  0  0  0
    0.1520  -10.9333    8.6046 H   0  0  0  0  0  0  0  0  0  0  0  0
    2.2305   -8.2381   16.6531 H   0  0  0  0  0  0  0  0  0  0  0  0
    5.7086   -7.8604   18.9930 H   0  0  0  0  0  0  0  0  0  0  0  0
    8.3820   -9.1739   15.5331 H   0  0  0  0  0  0  0  0  0  0  0  0
   11.5354   -7.0107   18.0053 H   0  0  0  0  0  0  0  0  0  0  0  0
   10.5618   -6.9165   19.4532 H   0  0  0  0  0  0  0  0  0  0  0  0
   10.5489   -5.5999   18.3045 H   0  0  0  0  0  0  0  0  0  0  0  0
    7.7577   -6.4754   18.6569 H   0  0  0  0  0  0  0  0  0  0  0  0
    2.1900   -8.7067   19.1112 H   0  0  0  0  0  0  0  0  0  0  0  0
    2.5996   -7.0040   19.2986 H   0  0  0  0  0  0  0  0  0  0  0  0
  1  2  2  0  0  0  0
  1  3  1  0  0  0  0
  3 19  1  0  0  0  0
  3  4  1  0  0  0  0
  5  6  2  0  0  0  0
  6  7  1  0  0  0  0
  6 35  1  0  0  0  0
  7  1  1  0  0  0  0
  7  8  2  0  0  0  0
  8  9  1  0  0  0  0
  9 10  2  0  0  0  0
  9 36  1  0  0  0  0
 10 11  1  0  0  0  0
 10 12  1  0  0  0  0
 11 15  1  0  0  0  0
 12 13  2  0  0  0  0
 12 37  1  0  0  0  0
 13 14  1  0  0  0  0
 13 38  1  0  0  0  0
 14  5  1  0  0  0  0
 14  8  1  0  0  0  0
 16 17  1  0  0  0  0
 16 39  1  0  0  0  0
 16 40  1  0  0  0  0
 16 41  1  0  0  0  0
 17 18  2  0  0  0  0
 17  5  1  0  0  0  0
 19 20  2  0  0  0  0
 20 21  1  0  0  0  0
 20 42  1  0  0  0  0
 21 32  1  0  0  0  0
 21 22  2  0  0  0  0
 22 23  1  0  0  0  0
 22 43  1  0  0  0  0
 23 26  1  0  0  0  0
 23 24  2  0  0  0  0
 24 25  1  0  0  0  0
 24 19  1  0  0  0  0
 26 27  1  0  0  0  0
 27 28  2  0  0  0  0
 27 44  1  0  0  0  0
 28 29  1  0  0  0  0
 29 30  1  0  0  0  0
 29 31  1  0  0  0  0
 30 45  1  0  0  0  0
 30 46  1  0  0  0  0
 30 47  1  0  0  0  0
 31 26  2  0  0  0  0
 31 48  1  0  0  0  0
 32 33  1  0  0  0  0
 32 49  1  0  0  0  0
 32 50  1  0  0  0  0
 33 34  1  0  0  0  0
M  END
>  <minimizedAffinity>
-8.00214

$$$$
