L1:Q92793:46896
     RDKit          3D

 62 65  0  0  0  0  0  0  0  0999 V2000
   -9.0917   -3.5220   -1.6711 C   0  0  0  0  0  0  0  0  0  0  0  0
   -8.3602   -2.2816   -1.6388 N   0  0  0  0  0  0  0  0  0  0  0  0
   -7.0622   -2.2391   -1.1732 C   0  0  0  0  0  0  0  0  0  0  0  0
   -6.4855   -3.2434   -0.7771 O   0  0  0  0  0  0  0  0  0  0  0  0
   -6.5571   -0.9586   -1.2227 N   0  0  0  0  0  0  0  0  0  0  0  0
   -5.2685   -0.5205   -0.8527 C   0  0  0  0  0  0  0  0  0  0  0  0
   -4.2615   -1.3737   -0.3725 C   0  0  0  0  0  0  0  0  0  0  0  0
   -3.0002   -0.8792   -0.0153 C   0  0  0  0  0  0  0  0  0  0  0  0
   -2.7525    0.4763   -0.1557 C   0  0  0  0  0  0  0  0  0  0  0  0
   -3.7491    1.3319   -0.6349 C   0  0  0  0  0  0  0  0  0  0  0  0
   -5.0044    0.8515   -0.9787 C   0  0  0  0  0  0  0  0  0  0  0  0
   -3.2763    2.7528   -0.6485 C   0  0  0  0  0  0  0  0  0  0  0  0
   -1.7508    2.5786   -0.5672 C   0  0  0  0  0  0  0  0  0  0  0  0
   -1.5134    1.2558    0.1778 C   0  0  1  0  0  0  0  0  0  0  0  0
   -1.4249    1.4725    1.5859 O   0  0  0  0  0  0  0  0  0  0  0  0
   -0.1939    1.0602    2.0001 C   0  0  0  0  0  0  0  0  0  0  0  0
    0.1913    1.1507    3.1557 O   0  0  0  0  0  0  0  0  0  0  0  0
    0.5067    0.5398    0.9717 N   0  0  0  0  0  0  0  0  0  0  0  0
    1.8750    0.0871    1.0713 C   0  0  0  0  0  0  0  0  0  0  0  0
    2.8069    1.2893    0.8403 C   0  0  0  0  0  0  0  0  0  0  0  0
    2.3578    2.3628    0.4327 O   0  0  0  0  0  0  0  0  0  0  0  0
    4.1736    1.1096    1.0526 N   0  0  0  0  0  0  0  0  0  0  0  0
    4.7109   -0.0284    1.8069 C   0  0  0  0  0  0  0  0  0  0  0  0
    4.7807   -1.3103    1.0097 C   0  0  0  0  0  0  0  0  0  0  0  0
    5.2223   -1.3254   -0.3236 C   0  0  0  0  0  0  0  0  0  0  0  0
    5.2983   -2.5259   -1.0326 C   0  0  0  0  0  0  0  0  0  0  0  0
    4.9477   -3.7156   -0.4082 C   0  0  0  0  0  0  0  0  0  0  0  0
    5.0247   -4.8666   -1.0881 F   0  0  0  0  0  0  0  0  0  0  0  0
    4.5253   -3.7287    0.9146 C   0  0  0  0  0  0  0  0  0  0  0  0
    4.4472   -2.5295    1.6253 C   0  0  0  0  0  0  0  0  0  0  0  0
    5.1171    2.2348    0.7754 C   0  0  1  0  0  0  0  0  0  0  0  0
    5.0101    2.7855   -0.6512 C   0  0  0  0  0  0  0  0  0  0  0  0
    5.0835    3.3694    1.8183 C   0  0  0  0  0  0  0  0  0  0  0  0
    6.1351    4.2056    1.6387 F   0  0  0  0  0  0  0  0  0  0  0  0
    5.2015    2.8570    3.0693 F   0  0  0  0  0  0  0  0  0  0  0  0
    3.9627    4.1120    1.7819 F   0  0  0  0  0  0  0  0  0  0  0  0
   -0.2028    0.6092   -0.1816 C   0  0  0  0  0  0  0  0  0  0  0  0
    0.1576    0.2209   -1.2821 O   0  0  0  0  0  0  0  0  0  0  0  0
  -10.1198   -3.3151   -1.9766 H   0  0  0  0  0  0  0  0  0  0  0  0
   -9.0825   -3.9800   -0.6782 H   0  0  0  0  0  0  0  0  0  0  0  0
   -8.6183   -4.1976   -2.3886 H   0  0  0  0  0  0  0  0  0  0  0  0
   -8.7958   -1.4515   -2.0061 H   0  0  0  0  0  0  0  0  0  0  0  0
   -7.1891   -0.2478   -1.5524 H   0  0  0  0  0  0  0  0  0  0  0  0
   -4.4325   -2.4405   -0.2604 H   0  0  0  0  0  0  0  0  0  0  0  0
   -2.2442   -1.5609    0.3624 H   0  0  0  0  0  0  0  0  0  0  0  0
   -5.7628    1.5413   -1.3349 H   0  0  0  0  0  0  0  0  0  0  0  0
   -3.6600    3.2837    0.2290 H   0  0  0  0  0  0  0  0  0  0  0  0
   -3.5678    3.2808   -1.5608 H   0  0  0  0  0  0  0  0  0  0  0  0
   -1.3465    2.5243   -1.5873 H   0  0  0  0  0  0  0  0  0  0  0  0
   -1.2840    3.4374   -0.0726 H   0  0  0  0  0  0  0  0  0  0  0  0
    2.0299   -0.3325    2.0674 H   0  0  0  0  0  0  0  0  0  0  0  0
    2.0668   -0.6618    0.2980 H   0  0  0  0  0  0  0  0  0  0  0  0
    4.0825   -0.1642    2.6942 H   0  0  0  0  0  0  0  0  0  0  0  0
    5.7158    0.2065    2.1768 H   0  0  0  0  0  0  0  0  0  0  0  0
    5.5072   -0.4044   -0.8262 H   0  0  0  0  0  0  0  0  0  0  0  0
    5.6301   -2.5406   -2.0663 H   0  0  0  0  0  0  0  0  0  0  0  0
    4.2640   -4.6721    1.3840 H   0  0  0  0  0  0  0  0  0  0  0  0
    4.1238   -2.5571    2.6646 H   0  0  0  0  0  0  0  0  0  0  0  0
    6.1218    1.7948    0.8285 H   0  0  0  0  0  0  0  0  0  0  0  0
    5.8808    3.4092   -0.8823 H   0  0  0  0  0  0  0  0  0  0  0  0
    4.1244    3.4102   -0.7954 H   0  0  0  0  0  0  0  0  0  0  0  0
    4.9752    1.9734   -1.3845 H   0  0  0  0  0  0  0  0  0  0  0  0
  1  2  1  0
  2  3  1  0
  3  4  2  0
  3  5  1  0
  5  6  1  0
  6  7  2  0
  7  8  1  0
  8  9  2  0
  9 10  1  0
 10 11  2  0
 10 12  1  0
 12 13  1  0
 13 14  1  0
 14 15  1  1
 15 16  1  0
 16 17  2  0
 16 18  1  0
 18 19  1  0
 19 20  1  0
 20 21  2  0
 20 22  1  0
 22 23  1  0
 23 24  1  0
 24 25  2  0
 25 26  1  0
 26 27  2  0
 27 28  1  0
 27 29  1  0
 29 30  2  0
 22 31  1  0
 31 32  1  0
 31 33  1  0
 33 34  1  0
 33 35  1  0
 33 36  1  0
 18 37  1  0
 37 38  2  0
 11  6  1  0
 37 14  1  0
 14  9  1  0
 30 24  1  0
  1 39  1  0
  1 40  1  0
  1 41  1  0
  2 42  1  0
  5 43  1  0
  7 44  1  0
  8 45  1  0
 11 46  1  0
 12 47  1  0
 12 48  1  0
 13 49  1  0
 13 50  1  0
 19 51  1  0
 19 52  1  0
 23 53  1  0
 23 54  1  0
 25 55  1  0
 26 56  1  0
 29 57  1  0
 30 58  1  0
 31 59  1  6
 32 60  1  0
 32 61  1  0
 32 62  1  0
M  END
>  <mol_id>  (1) 
46896

>  <source_index>  (1) 
4

>  <layer>  (1) 
L1

>  <uniprot>  (1) 
Q92793

>  <paff>  (1) 
8.5850000000000009

>  <smiles>  (1) 
C[C@@H](C(F)(F)F)N(Cc1ccc(cc1)F)C(=O)CN2C(=O)[C@]3(CCc4c3ccc(c4)NC(=O)NC)OC2=O

$$$$
