L1:Q92793:62803
 OpenBabel09212617433D

 86 90  0  0  0  0  0  0  0  0999 V2000
    3.4684   -7.9768   16.9694 C   0  0  0  0  0  0  0  0  0  0  0  0
    2.8144   -7.2907   16.0533 N   0  0  0  0  0  0  0  0  0  0  0  0
    1.8286   -6.6118   16.7196 C   0  0  0  0  0  0  0  0  0  0  0  0
    0.8592   -5.7335   16.2135 C   0  0  0  0  0  0  0  0  0  0  0  0
   -0.0543   -5.1456   17.1017 C   0  0  0  0  0  0  0  0  0  0  0  0
    0.0137   -5.4316   18.4720 C   0  0  0  0  0  0  0  0  0  0  0  0
    0.9769   -6.3062   18.9922 C   0  0  0  0  0  0  0  0  0  0  0  0
    1.8706   -6.8834   18.0826 C   0  0  0  0  0  0  0  0  0  0  0  0
    2.9183   -7.7674   18.2182 N   0  0  0  0  0  0  0  0  0  0  0  0
   -1.0642   -4.2341   16.6068 C   0  0  0  0  0  0  0  0  0  0  0  0
   -1.1291   -2.8154   16.6251 C   0  0  0  0  0  0  0  0  0  0  0  0
   -0.1352   -1.8500   17.1486 C   0  0  0  0  0  0  0  0  0  0  0  0
   -2.2657   -2.3725   16.0730 N   0  0  0  0  0  0  0  0  0  0  0  0
   -2.9580   -3.5020   15.6798 O   0  0  0  0  0  0  0  0  0  0  0  0
   -2.2434   -4.6138   16.0031 C   0  0  0  0  0  0  0  0  0  0  0  0
   -2.8673   -5.9060   15.6588 C   0  0  0  0  0  0  0  0  0  0  0  0
    4.6584   -8.8394   16.6926 C   0  0  0  0  0  0  0  0  0  0  0  0
    5.6589   -8.1178   15.7842 C   0  0  0  0  0  0  0  0  0  0  0  0
    9.2091   -6.9913   17.9871 C   0  0  0  0  0  0  0  0  0  0  0  0
    9.2933   -7.9019   16.9353 C   0  0  0  0  0  0  0  0  0  0  0  0
    8.1466   -8.2567   16.2152 C   0  0  0  0  0  0  0  0  0  0  0  0
    6.8997   -7.7096   16.5405 C   0  0  0  0  0  0  0  0  0  0  0  0
    6.8195   -6.7953   17.5960 C   0  0  0  0  0  0  0  0  0  0  0  0
    7.9658   -6.4442   18.3127 C   0  0  0  0  0  0  0  0  0  0  0  0
   10.2397   -6.5627   18.7761 O   0  0  0  0  0  0  0  0  0  0  0  0
   11.5379   -7.1211   18.5664 C   0  0  0  0  0  0  0  0  0  0  0  0
   12.0865   -7.6957   19.8731 C   0  0  0  0  0  0  0  0  0  0  0  0
   11.0921   -7.5893   21.0244 C   0  0  0  0  0  0  0  0  0  0  0  0
   11.4221   -9.9808   21.0621 N   0  0  0  0  0  0  0  0  0  0  0  0
   10.7613   -8.9284   21.6547 C   0  0  0  0  0  0  0  0  0  0  0  0
    9.9859   -9.0673   22.5935 O   0  0  0  0  0  0  0  0  0  0  0  0
   12.0568   -9.8084   20.2926 H   0  0  0  0  0  0  0  0  0  0  0  0
   11.2558  -11.3427   21.5329 C   0  0  0  0  0  0  0  0  0  0  0  0
   12.2355  -11.7119   22.6508 C   0  0  0  0  0  0  0  0  0  0  0  0
   11.9392  -13.1225   24.5363 C   0  0  0  0  0  0  0  0  0  0  0  0
   11.5632  -11.9090   23.8964 O   0  0  0  0  0  0  0  0  0  0  0  0
    3.3566   -8.3667   19.4681 C   0  0  0  0  0  0  0  0  0  0  0  0
    2.3769   -9.4415   19.9600 C   0  0  0  0  0  0  0  0  0  0  0  0
    2.4538   -9.6452   21.4153 N   0  0  0  0  0  0  0  0  0  0  0  0
    1.1018   -9.6190   22.0183 C   0  0  0  0  0  0  0  0  0  0  0  0
    1.1619   -9.3667   23.5317 C   0  0  0  0  0  0  0  0  0  0  0  0
    1.6994   -8.0782   23.8583 O   0  0  0  0  0  0  0  0  0  0  0  0
    2.5875   -7.5671   22.8570 C   0  0  0  0  0  0  0  0  0  0  0  0
    3.3409   -8.6716   22.0961 C   0  0  0  0  0  0  0  0  0  0  0  0
    0.8184   -5.5230   15.2040 H   0  0  0  0  0  0  0  0  0  0  0  0
   -0.6619   -4.9874   19.1133 H   0  0  0  0  0  0  0  0  0  0  0  0
    1.0253   -6.5156   20.0016 H   0  0  0  0  0  0  0  0  0  0  0  0
    0.7022   -2.3821   17.5492 H   0  0  0  0  0  0  0  0  0  0  0  0
   -0.5839   -1.2588   17.9193 H   0  0  0  0  0  0  0  0  0  0  0  0
    0.1941   -1.2117   16.3555 H   0  0  0  0  0  0  0  0  0  0  0  0
   -3.8114   -5.7316   15.1864 H   0  0  0  0  0  0  0  0  0  0  0  0
   -3.0150   -6.4795   16.5500 H   0  0  0  0  0  0  0  0  0  0  0  0
   -2.2279   -6.4439   14.9904 H   0  0  0  0  0  0  0  0  0  0  0  0
    5.1376   -9.0822   17.6180 H   0  0  0  0  0  0  0  0  0  0  0  0
    4.3277   -9.7286   16.1977 H   0  0  0  0  0  0  0  0  0  0  0  0
    5.9384   -8.7729   14.9857 H   0  0  0  0  0  0  0  0  0  0  0  0
    5.1907   -7.2332   15.4058 H   0  0  0  0  0  0  0  0  0  0  0  0
   10.2050   -8.3164   16.6863 H   0  0  0  0  0  0  0  0  0  0  0  0
    8.2212   -8.9291   15.4358 H   0  0  0  0  0  0  0  0  0  0  0  0
    5.9093   -6.3783   17.8463 H   0  0  0  0  0  0  0  0  0  0  0  0
    7.8933   -5.7722   19.0925 H   0  0  0  0  0  0  0  0  0  0  0  0
   11.4727   -7.9017   17.8375 H   0  0  0  0  0  0  0  0  0  0  0  0
   12.1961   -6.3512   18.2215 H   0  0  0  0  0  0  0  0  0  0  0  0
   12.3246   -8.7276   19.7203 H   0  0  0  0  0  0  0  0  0  0  0  0
   12.9522   -7.1259   20.1392 H   0  0  0  0  0  0  0  0  0  0  0  0
   11.5099   -6.9534   21.7767 H   0  0  0  0  0  0  0  0  0  0  0  0
   10.1825   -7.1938   20.6230 H   0  0  0  0  0  0  0  0  0  0  0  0
   10.2580  -11.4566   21.9022 H   0  0  0  0  0  0  0  0  0  0  0  0
   11.4520  -11.9937   20.7067 H   0  0  0  0  0  0  0  0  0  0  0  0
   12.7429  -12.6152   22.3834 H   0  0  0  0  0  0  0  0  0  0  0  0
   12.9280  -10.9048   22.7686 H   0  0  0  0  0  0  0  0  0  0  0  0
   11.4078  -13.2181   25.4601 H   0  0  0  0  0  0  0  0  0  0  0  0
   12.9916  -13.1126   24.7296 H   0  0  0  0  0  0  0  0  0  0  0  0
   11.7011  -13.9496   23.9006 H   0  0  0  0  0  0  0  0  0  0  0  0
    3.4323   -7.6009   20.2115 H   0  0  0  0  0  0  0  0  0  0  0  0
    4.3044   -8.8334   19.2986 H   0  0  0  0  0  0  0  0  0  0  0  0
    2.6059  -10.3652   19.4709 H   0  0  0  0  0  0  0  0  0  0  0  0
    1.3860   -9.1110   19.7282 H   0  0  0  0  0  0  0  0  0  0  0  0
    0.6248  -10.5604   21.8420 H   0  0  0  0  0  0  0  0  0  0  0  0
    0.5502   -8.8204   21.5678 H   0  0  0  0  0  0  0  0  0  0  0  0
    1.7783  -10.1180   23.9795 H   0  0  0  0  0  0  0  0  0  0  0  0
    0.1596   -9.4021   23.9047 H   0  0  0  0  0  0  0  0  0  0  0  0
    3.3049   -6.9306   23.3313 H   0  0  0  0  0  0  0  0  0  0  0  0
    1.9917   -7.0380   22.1429 H   0  0  0  0  0  0  0  0  0  0  0  0
    3.9527   -9.2041   22.7940 H   0  0  0  0  0  0  0  0  0  0  0  0
    3.9138   -8.1874   21.3330 H   0  0  0  0  0  0  0  0  0  0  0  0
  1  2  2  0  0  0  0
  2  3  1  0  0  0  0
  3  4  2  0  0  0  0
  4  5  1  0  0  0  0
  4 45  1  0  0  0  0
  5 10  1  0  0  0  0
  5  6  2  0  0  0  0
  6  7  1  0  0  0  0
  6 46  1  0  0  0  0
  7  8  2  0  0  0  0
  7 47  1  0  0  0  0
  8  9  1  0  0  0  0
  8  3  1  0  0  0  0
  9 37  1  0  0  0  0
  9  1  1  0  0  0  0
 10 11  1  0  0  0  0
 11 12  1  0  0  0  0
 11 13  2  0  0  0  0
 12 48  1  0  0  0  0
 12 49  1  0  0  0  0
 12 50  1  0  0  0  0
 13 14  1  0  0  0  0
 14 15  1  0  0  0  0
 15 16  1  0  0  0  0
 15 10  2  0  0  0  0
 16 51  1  0  0  0  0
 16 52  1  0  0  0  0
 16 53  1  0  0  0  0
 17  1  1  0  0  0  0
 17 54  1  0  0  0  0
 17 55  1  0  0  0  0
 18 17  1  0  0  0  0
 18 56  1  0  0  0  0
 18 57  1  0  0  0  0
 19 20  2  0  0  0  0
 20 21  1  0  0  0  0
 20 58  1  0  0  0  0
 21 22  2  0  0  0  0
 21 59  1  0  0  0  0
 22 18  1  0  0  0  0
 22 23  1  0  0  0  0
 23 24  2  0  0  0  0
 23 60  1  0  0  0  0
 24 19  1  0  0  0  0
 24 61  1  0  0  0  0
 25 19  1  0  0  0  0
 26 25  1  0  0  0  0
 26 62  1  0  0  0  0
 26 63  1  0  0  0  0
 27 26  1  0  0  0  0
 27 64  1  0  0  0  0
 27 65  1  0  0  0  0
 28 27  1  0  0  0  0
 28 66  1  0  0  0  0
 28 67  1  0  0  0  0
 29 30  1  0  0  0  0
 29 32  1  0  0  0  0
 30 31  2  0  0  0  0
 30 28  1  0  0  0  0
 33 29  1  0  0  0  0
 33 68  1  0  0  0  0
 33 69  1  0  0  0  0
 34 33  1  0  0  0  0
 34 70  1  0  0  0  0
 34 71  1  0  0  0  0
 35 36  1  0  0  0  0
 35 72  1  0  0  0  0
 35 73  1  0  0  0  0
 35 74  1  0  0  0  0
 36 34  1  0  0  0  0
 37 38  1  0  0  0  0
 37 75  1  0  0  0  0
 37 76  1  0  0  0  0
 38 39  1  0  0  0  0
 38 77  1  0  0  0  0
 38 78  1  0  0  0  0
 39 40  1  0  0  0  0
 40 41  1  0  0  0  0
 40 79  1  0  0  0  0
 40 80  1  0  0  0  0
 41 42  1  0  0  0  0
 41 81  1  0  0  0  0
 41 82  1  0  0  0  0
 42 43  1  0  0  0  0
 43 44  1  0  0  0  0
 43 83  1  0  0  0  0
 43 84  1  0  0  0  0
 44 39  1  0  0  0  0
 44 85  1  0  0  0  0
 44 86  1  0  0  0  0
M  END
>  <minimizedAffinity>
-7.59336

$$$$
