L1:Q92793:62803
     RDKit          3D

 86 90  0  0  0  0  0  0  0  0999 V2000
    9.1375    3.5514    1.4008 C   0  0  0  0  0  0  0  0  0  0  0  0
   10.0733    2.4978    1.2066 O   0  0  0  0  0  0  0  0  0  0  0  0
    9.4643    1.3056    0.7063 C   0  0  0  0  0  0  0  0  0  0  0  0
    9.2670    1.3667   -0.8113 C   0  0  0  0  0  0  0  0  0  0  0  0
    8.8254    0.1055   -1.3754 N   0  0  0  0  0  0  0  0  0  0  0  0
    7.5226   -0.3219   -1.2513 C   0  0  0  0  0  0  0  0  0  0  0  0
    6.6634    0.3130   -0.6508 O   0  0  0  0  0  0  0  0  0  0  0  0
    7.2675   -1.6535   -1.9307 C   0  0  0  0  0  0  0  0  0  0  0  0
    5.8478   -2.1712   -1.7256 C   0  0  0  0  0  0  0  0  0  0  0  0
    5.5978   -2.6534   -0.2961 C   0  0  0  0  0  0  0  0  0  0  0  0
    4.2899   -3.2173   -0.1840 O   0  0  0  0  0  0  0  0  0  0  0  0
    3.2528   -2.3977    0.1638 C   0  0  0  0  0  0  0  0  0  0  0  0
    3.2992   -1.0107    0.2922 C   0  0  0  0  0  0  0  0  0  0  0  0
    2.1498   -0.2959    0.6491 C   0  0  0  0  0  0  0  0  0  0  0  0
    0.9377   -0.9580    0.8774 C   0  0  0  0  0  0  0  0  0  0  0  0
   -0.3084   -0.1828    1.2303 C   0  0  0  0  0  0  0  0  0  0  0  0
   -0.8420    0.6021    0.0278 C   0  0  0  0  0  0  0  0  0  0  0  0
   -2.2333    1.0888    0.2813 C   0  0  0  0  0  0  0  0  0  0  0  0
   -2.5544    1.9955    1.1826 N   0  0  0  0  0  0  0  0  0  0  0  0
   -3.9168    2.1252    1.1216 C   0  0  0  0  0  0  0  0  0  0  0  0
   -4.7633    2.9524    1.8742 C   0  0  0  0  0  0  0  0  0  0  0  0
   -6.1452    2.9077    1.6345 C   0  0  0  0  0  0  0  0  0  0  0  0
   -7.0422    3.7493    2.3979 C   0  0  0  0  0  0  0  0  0  0  0  0
   -8.1577    3.4235    3.2144 C   0  0  0  0  0  0  0  0  0  0  0  0
   -8.7081    2.0874    3.5394 C   0  0  0  0  0  0  0  0  0  0  0  0
   -8.7264    4.5235    3.7238 N   0  0  0  0  0  0  0  0  0  0  0  0
   -7.9819    5.5863    3.2488 O   0  0  0  0  0  0  0  0  0  0  0  0
   -6.9795    5.1249    2.4529 C   0  0  0  0  0  0  0  0  0  0  0  0
   -6.1049    6.1516    1.8541 C   0  0  0  0  0  0  0  0  0  0  0  0
   -6.6626    2.0414    0.6618 C   0  0  0  0  0  0  0  0  0  0  0  0
   -5.8295    1.2088   -0.0971 C   0  0  0  0  0  0  0  0  0  0  0  0
   -4.4551    1.2793    0.1584 C   0  0  0  0  0  0  0  0  0  0  0  0
   -3.3602    0.6353   -0.3747 N   0  0  0  0  0  0  0  0  0  0  0  0
   -3.4017   -0.3498   -1.4430 C   0  0  0  0  0  0  0  0  0  0  0  0
   -3.3922   -1.7846   -0.8969 C   0  0  0  0  0  0  0  0  0  0  0  0
   -3.3743   -2.7918   -1.9696 N   0  0  0  0  0  0  0  0  0  0  0  0
   -3.8412   -4.1024   -1.4629 C   0  0  0  0  0  0  0  0  0  0  0  0
   -3.4120   -5.2516   -2.3863 C   0  0  0  0  0  0  0  0  0  0  0  0
   -1.9882   -5.4065   -2.4540 O   0  0  0  0  0  0  0  0  0  0  0  0
   -1.2754   -4.1920   -2.1907 C   0  0  0  0  0  0  0  0  0  0  0  0
   -2.0483   -2.9323   -2.6178 C   0  0  0  0  0  0  0  0  0  0  0  0
    0.8954   -2.3501    0.7486 C   0  0  0  0  0  0  0  0  0  0  0  0
    2.0442   -3.0599    0.3917 C   0  0  0  0  0  0  0  0  0  0  0  0
    9.6722    4.4098    1.8167 H   0  0  0  0  0  0  0  0  0  0  0  0
    8.3610    3.2501    2.1105 H   0  0  0  0  0  0  0  0  0  0  0  0
    8.6861    3.8542    0.4523 H   0  0  0  0  0  0  0  0  0  0  0  0
   10.1462    0.4809    0.9431 H   0  0  0  0  0  0  0  0  0  0  0  0
    8.5262    1.0989    1.2347 H   0  0  0  0  0  0  0  0  0  0  0  0
    8.5372    2.1403   -1.0736 H   0  0  0  0  0  0  0  0  0  0  0  0
   10.2085    1.6367   -1.3019 H   0  0  0  0  0  0  0  0  0  0  0  0
    9.4935   -0.4563   -1.8880 H   0  0  0  0  0  0  0  0  0  0  0  0
    7.4441   -1.5117   -3.0038 H   0  0  0  0  0  0  0  0  0  0  0  0
    7.9986   -2.3854   -1.5683 H   0  0  0  0  0  0  0  0  0  0  0  0
    5.1159   -1.4040   -2.0034 H   0  0  0  0  0  0  0  0  0  0  0  0
    5.6691   -3.0091   -2.4115 H   0  0  0  0  0  0  0  0  0  0  0  0
    6.2974   -3.4689   -0.0761 H   0  0  0  0  0  0  0  0  0  0  0  0
    5.7871   -1.8924    0.4682 H   0  0  0  0  0  0  0  0  0  0  0  0
    4.2093   -0.4454    0.1165 H   0  0  0  0  0  0  0  0  0  0  0  0
    2.2127    0.7864    0.7460 H   0  0  0  0  0  0  0  0  0  0  0  0
   -1.0740   -0.8754    1.6042 H   0  0  0  0  0  0  0  0  0  0  0  0
   -0.0889    0.4961    2.0646 H   0  0  0  0  0  0  0  0  0  0  0  0
   -0.7945   -0.0164   -0.8737 H   0  0  0  0  0  0  0  0  0  0  0  0
   -0.1980    1.4689   -0.1668 H   0  0  0  0  0  0  0  0  0  0  0  0
   -4.3335    3.6000    2.6308 H   0  0  0  0  0  0  0  0  0  0  0  0
   -9.3327    2.1194    4.4383 H   0  0  0  0  0  0  0  0  0  0  0  0
   -7.9030    1.3681    3.7206 H   0  0  0  0  0  0  0  0  0  0  0  0
   -9.3217    1.7181    2.7118 H   0  0  0  0  0  0  0  0  0  0  0  0
   -5.8414    5.8891    0.8249 H   0  0  0  0  0  0  0  0  0  0  0  0
   -5.1818    6.2497    2.4333 H   0  0  0  0  0  0  0  0  0  0  0  0
   -6.5992    7.1281    1.8328 H   0  0  0  0  0  0  0  0  0  0  0  0
   -7.7347    2.0142    0.4713 H   0  0  0  0  0  0  0  0  0  0  0  0
   -6.2444    0.5470   -0.8499 H   0  0  0  0  0  0  0  0  0  0  0  0
   -2.5592   -0.1449   -2.1104 H   0  0  0  0  0  0  0  0  0  0  0  0
   -4.3075   -0.1727   -2.0342 H   0  0  0  0  0  0  0  0  0  0  0  0
   -4.3046   -1.9084   -0.2974 H   0  0  0  0  0  0  0  0  0  0  0  0
   -2.5517   -1.9421   -0.2094 H   0  0  0  0  0  0  0  0  0  0  0  0
   -3.4315   -4.2912   -0.4616 H   0  0  0  0  0  0  0  0  0  0  0  0
   -4.9337   -4.0853   -1.3832 H   0  0  0  0  0  0  0  0  0  0  0  0
   -3.8273   -6.1987   -2.0271 H   0  0  0  0  0  0  0  0  0  0  0  0
   -3.7883   -5.0964   -3.4042 H   0  0  0  0  0  0  0  0  0  0  0  0
   -0.3229   -4.2480   -2.7275 H   0  0  0  0  0  0  0  0  0  0  0  0
   -1.0430   -4.1588   -1.1205 H   0  0  0  0  0  0  0  0  0  0  0  0
   -1.4176   -2.0506   -2.4625 H   0  0  0  0  0  0  0  0  0  0  0  0
   -2.2333   -2.9950   -3.6974 H   0  0  0  0  0  0  0  0  0  0  0  0
   -0.0271   -2.8961    0.9294 H   0  0  0  0  0  0  0  0  0  0  0  0
    1.9999   -4.1423    0.2964 H   0  0  0  0  0  0  0  0  0  0  0  0
  1  2  1  0
  2  3  1  0
  3  4  1  0
  4  5  1  0
  5  6  1  0
  6  7  2  0
  6  8  1  0
  8  9  1  0
  9 10  1  0
 10 11  1  0
 11 12  1  0
 12 13  2  0
 13 14  1  0
 14 15  2  0
 15 16  1  0
 16 17  1  0
 17 18  1  0
 18 19  2  0
 19 20  1  0
 20 21  2  0
 21 22  1  0
 22 23  1  0
 23 24  1  0
 24 25  1  0
 24 26  2  0
 26 27  1  0
 27 28  1  0
 28 29  1  0
 22 30  2  0
 30 31  1  0
 31 32  2  0
 32 33  1  0
 33 34  1  0
 34 35  1  0
 35 36  1  0
 36 37  1  0
 37 38  1  0
 38 39  1  0
 39 40  1  0
 40 41  1  0
 15 42  1  0
 42 43  2  0
 43 12  1  0
 33 18  1  0
 41 36  1  0
 32 20  1  0
 28 23  2  0
  1 44  1  0
  1 45  1  0
  1 46  1  0
  3 47  1  0
  3 48  1  0
  4 49  1  0
  4 50  1  0
  5 51  1  0
  8 52  1  0
  8 53  1  0
  9 54  1  0
  9 55  1  0
 10 56  1  0
 10 57  1  0
 13 58  1  0
 14 59  1  0
 16 60  1  0
 16 61  1  0
 17 62  1  0
 17 63  1  0
 21 64  1  0
 25 65  1  0
 25 66  1  0
 25 67  1  0
 29 68  1  0
 29 69  1  0
 29 70  1  0
 30 71  1  0
 31 72  1  0
 34 73  1  0
 34 74  1  0
 35 75  1  0
 35 76  1  0
 37 77  1  0
 37 78  1  0
 38 79  1  0
 38 80  1  0
 40 81  1  0
 40 82  1  0
 41 83  1  0
 41 84  1  0
 42 85  1  0
 43 86  1  0
M  END
>  <mol_id>  (1) 
62803

>  <source_index>  (1) 
5

>  <layer>  (1) 
L1

>  <uniprot>  (1) 
Q92793

>  <paff>  (1) 
6.4814999999999996

>  <smiles>  (1) 
COCCNC(=O)CCCOc1ccc(CCc2nc3cc(-c4c(C)noc4C)ccc3n2CCN2CCOCC2)cc1

$$$$
