L1:Q92793:6919
     RDKit          3D

 68 72  0  0  0  0  0  0  0  0999 V2000
    9.6093    1.8612   -0.8709 C   0  0  0  0  0  0  0  0  0  0  0  0
    8.1664    1.6005   -1.1874 C   0  0  0  0  0  0  0  0  0  0  0  0
    7.5715    2.0902   -2.1375 O   0  0  0  0  0  0  0  0  0  0  0  0
    7.6540    0.7266   -0.2335 O   0  0  0  0  0  0  0  0  0  0  0  0
    6.3045    0.3765   -0.3726 C   0  0  0  0  0  0  0  0  0  0  0  0
    5.2950    1.3361   -0.3376 C   0  0  0  0  0  0  0  0  0  0  0  0
    3.9629    0.9306   -0.4276 C   0  0  0  0  0  0  0  0  0  0  0  0
    3.6397   -0.4309   -0.5376 C   0  0  0  0  0  0  0  0  0  0  0  0
    2.1970   -0.8672   -0.6164 C   0  0  0  0  0  0  0  0  0  0  0  0
    1.5818   -1.0330    0.7752 C   0  0  0  0  0  0  0  0  0  0  0  0
    0.1209   -1.3407    0.6792 C   0  0  0  0  0  0  0  0  0  0  0  0
   -0.3678   -2.4981    0.2787 N   0  0  0  0  0  0  0  0  0  0  0  0
   -1.7304   -2.3639    0.2987 C   0  0  0  0  0  0  0  0  0  0  0  0
   -2.7188   -3.2987   -0.0426 C   0  0  0  0  0  0  0  0  0  0  0  0
   -4.0675   -2.9249    0.0511 C   0  0  0  0  0  0  0  0  0  0  0  0
   -5.0991   -3.8745   -0.3090 C   0  0  0  0  0  0  0  0  0  0  0  0
   -5.3267   -4.5894   -1.5151 C   0  0  0  0  0  0  0  0  0  0  0  0
   -4.5553   -4.5412   -2.7789 C   0  0  0  0  0  0  0  0  0  0  0  0
   -6.4012   -5.3821   -1.4156 N   0  0  0  0  0  0  0  0  0  0  0  0
   -6.8862   -5.1999   -0.1348 O   0  0  0  0  0  0  0  0  0  0  0  0
   -6.1042   -4.3062    0.5291 C   0  0  0  0  0  0  0  0  0  0  0  0
   -6.4866   -4.0271    1.9265 C   0  0  0  0  0  0  0  0  0  0  0  0
   -4.4121   -1.6337    0.4746 C   0  0  0  0  0  0  0  0  0  0  0  0
   -3.4358   -0.6900    0.8205 C   0  0  0  0  0  0  0  0  0  0  0  0
   -2.0987   -1.0923    0.7225 C   0  0  0  0  0  0  0  0  0  0  0  0
   -0.8997   -0.4582    0.9699 N   0  0  0  0  0  0  0  0  0  0  0  0
   -0.7648    0.9077    1.4482 C   0  0  0  0  0  0  0  0  0  0  0  0
   -0.6277    1.9070    0.2908 C   0  0  0  0  0  0  0  0  0  0  0  0
   -0.3573    3.2845    0.7386 N   0  0  0  0  0  0  0  0  0  0  0  0
   -0.0427    4.1779   -0.4017 C   0  0  0  0  0  0  0  0  0  0  0  0
   -1.2386    5.0233   -0.8675 C   0  0  0  0  0  0  0  0  0  0  0  0
   -1.7685    5.8697    0.1616 O   0  0  0  0  0  0  0  0  0  0  0  0
   -1.5170    5.3764    1.4837 C   0  0  0  0  0  0  0  0  0  0  0  0
   -1.4747    3.8417    1.5365 C   0  0  0  0  0  0  0  0  0  0  0  0
    4.6694   -1.3830   -0.5415 C   0  0  0  0  0  0  0  0  0  0  0  0
    6.0026   -0.9807   -0.4547 C   0  0  0  0  0  0  0  0  0  0  0  0
   10.0232    2.5520   -1.6112 H   0  0  0  0  0  0  0  0  0  0  0  0
   10.1730    0.9260   -0.9137 H   0  0  0  0  0  0  0  0  0  0  0  0
    9.6951    2.3188    0.1178 H   0  0  0  0  0  0  0  0  0  0  0  0
    5.5344    2.3916   -0.2506 H   0  0  0  0  0  0  0  0  0  0  0  0
    3.1784    1.6841   -0.4122 H   0  0  0  0  0  0  0  0  0  0  0  0
    2.1259   -1.8075   -1.1790 H   0  0  0  0  0  0  0  0  0  0  0  0
    1.6343   -0.1321   -1.2061 H   0  0  0  0  0  0  0  0  0  0  0  0
    1.7657   -0.1406    1.3807 H   0  0  0  0  0  0  0  0  0  0  0  0
    2.0773   -1.8591    1.3014 H   0  0  0  0  0  0  0  0  0  0  0  0
   -2.4197   -4.2910   -0.3627 H   0  0  0  0  0  0  0  0  0  0  0  0
   -3.6455   -5.1433   -2.6915 H   0  0  0  0  0  0  0  0  0  0  0  0
   -5.1401   -4.9284   -3.6199 H   0  0  0  0  0  0  0  0  0  0  0  0
   -4.2676   -3.5129   -3.0204 H   0  0  0  0  0  0  0  0  0  0  0  0
   -7.0693   -3.1027    1.9838 H   0  0  0  0  0  0  0  0  0  0  0  0
   -5.6011   -3.9175    2.5600 H   0  0  0  0  0  0  0  0  0  0  0  0
   -7.0936   -4.8388    2.3398 H   0  0  0  0  0  0  0  0  0  0  0  0
   -5.4597   -1.3405    0.5298 H   0  0  0  0  0  0  0  0  0  0  0  0
   -3.7184    0.3058    1.1441 H   0  0  0  0  0  0  0  0  0  0  0  0
    0.0985    0.9513    2.1195 H   0  0  0  0  0  0  0  0  0  0  0  0
   -1.6442    1.1289    2.0629 H   0  0  0  0  0  0  0  0  0  0  0  0
   -1.5230    1.8735   -0.3443 H   0  0  0  0  0  0  0  0  0  0  0  0
    0.2083    1.5777   -0.3380 H   0  0  0  0  0  0  0  0  0  0  0  0
    0.3787    3.6224   -1.2477 H   0  0  0  0  0  0  0  0  0  0  0  0
    0.7482    4.8585   -0.0616 H   0  0  0  0  0  0  0  0  0  0  0  0
   -0.9409    5.6689   -1.7000 H   0  0  0  0  0  0  0  0  0  0  0  0
   -2.0493    4.3800   -1.2288 H   0  0  0  0  0  0  0  0  0  0  0  0
   -2.3158    5.7530    2.1306 H   0  0  0  0  0  0  0  0  0  0  0  0
   -0.5761    5.8095    1.8433 H   0  0  0  0  0  0  0  0  0  0  0  0
   -1.3677    3.5182    2.5774 H   0  0  0  0  0  0  0  0  0  0  0  0
   -2.4350    3.4653    1.1598 H   0  0  0  0  0  0  0  0  0  0  0  0
    4.4367   -2.4436   -0.6120 H   0  0  0  0  0  0  0  0  0  0  0  0
    6.7958   -1.7221   -0.4536 H   0  0  0  0  0  0  0  0  0  0  0  0
  1  2  1  0
  2  3  2  0
  2  4  1  0
  4  5  1  0
  5  6  2  0
  6  7  1  0
  7  8  2  0
  8  9  1  0
  9 10  1  0
 10 11  1  0
 11 12  2  0
 12 13  1  0
 13 14  2  0
 14 15  1  0
 15 16  1  0
 16 17  1  0
 17 18  1  0
 17 19  2  0
 19 20  1  0
 20 21  1  0
 21 22  1  0
 15 23  2  0
 23 24  1  0
 24 25  2  0
 25 26  1  0
 26 27  1  0
 27 28  1  0
 28 29  1  0
 29 30  1  0
 30 31  1  0
 31 32  1  0
 32 33  1  0
 33 34  1  0
  8 35  1  0
 35 36  2  0
 36  5  1  0
 26 11  1  0
 34 29  1  0
 25 13  1  0
 21 16  2  0
  1 37  1  0
  1 38  1  0
  1 39  1  0
  6 40  1  0
  7 41  1  0
  9 42  1  0
  9 43  1  0
 10 44  1  0
 10 45  1  0
 14 46  1  0
 18 47  1  0
 18 48  1  0
 18 49  1  0
 22 50  1  0
 22 51  1  0
 22 52  1  0
 23 53  1  0
 24 54  1  0
 27 55  1  0
 27 56  1  0
 28 57  1  0
 28 58  1  0
 30 59  1  0
 30 60  1  0
 31 61  1  0
 31 62  1  0
 33 63  1  0
 33 64  1  0
 34 65  1  0
 34 66  1  0
 35 67  1  0
 36 68  1  0
M  END
>  <mol_id>  (1) 
6919

>  <source_index>  (1) 
0

>  <layer>  (1) 
L1

>  <uniprot>  (1) 
Q92793

>  <paff>  (1) 
6.7695999999999996

>  <smiles>  (1) 
CC(=O)Oc1ccc(CCc2nc3cc(-c4c(C)noc4C)ccc3n2CCN2CCOCC2)cc1

$$$$
