L1:Q92793:6919
 OpenBabel09212617413D

 68 72  0  0  0  0  0  0  0  0999 V2000
    0.8995   -7.7717   17.0035 C   0  0  0  0  0  0  0  0  0  0  0  0
    1.8700   -7.5878   16.1299 N   0  0  0  0  0  0  0  0  0  0  0  0
    3.0359   -7.8692   16.7907 C   0  0  0  0  0  0  0  0  0  0  0  0
    4.3551   -7.8351   16.3155 C   0  0  0  0  0  0  0  0  0  0  0  0
    5.3994   -8.1769   17.1874 C   0  0  0  0  0  0  0  0  0  0  0  0
    5.1187   -8.5507   18.5091 C   0  0  0  0  0  0  0  0  0  0  0  0
    3.8062   -8.5875   18.9982 C   0  0  0  0  0  0  0  0  0  0  0  0
    2.7850   -8.2365   18.1076 C   0  0  0  0  0  0  0  0  0  0  0  0
    1.4135   -8.1577   18.2248 N   0  0  0  0  0  0  0  0  0  0  0  0
    6.7654   -8.1581   16.7087 C   0  0  0  0  0  0  0  0  0  0  0  0
    7.4284   -8.9734   15.7530 C   0  0  0  0  0  0  0  0  0  0  0  0
    6.8887  -10.1130   14.9754 C   0  0  0  0  0  0  0  0  0  0  0  0
    8.7056   -8.6019   15.5989 N   0  0  0  0  0  0  0  0  0  0  0  0
    8.8911   -7.5295   16.4500 O   0  0  0  0  0  0  0  0  0  0  0  0
    7.7307   -7.2588   17.1066 C   0  0  0  0  0  0  0  0  0  0  0  0
    7.7681   -6.1157   18.0387 C   0  0  0  0  0  0  0  0  0  0  0  0
   -0.5544   -7.6062   16.6920 C   0  0  0  0  0  0  0  0  0  0  0  0
   -0.7493   -6.7669   15.4271 C   0  0  0  0  0  0  0  0  0  0  0  0
   -0.7901   -2.5563   16.2913 C   0  0  0  0  0  0  0  0  0  0  0  0
    0.3429   -3.1262   15.7145 C   0  0  0  0  0  0  0  0  0  0  0  0
    0.3576   -4.4952   15.4447 C   0  0  0  0  0  0  0  0  0  0  0  0
   -0.7619   -5.2898   15.7370 C   0  0  0  0  0  0  0  0  0  0  0  0
   -1.9032   -4.6914   16.2903 C   0  0  0  0  0  0  0  0  0  0  0  0
   -1.9201   -3.3233   16.5641 C   0  0  0  0  0  0  0  0  0  0  0  0
   -0.8753   -1.1790   16.5339 O   0  0  0  0  0  0  0  0  0  0  0  0
   -2.6726    0.3314   16.4620 C   0  0  0  0  0  0  0  0  0  0  0  0
   -1.6721   -0.4464   15.6594 C   0  0  0  0  0  0  0  0  0  0  0  0
   -1.5961   -0.4154   14.4389 O   0  0  0  0  0  0  0  0  0  0  0  0
    0.6649   -8.4440   19.4374 C   0  0  0  0  0  0  0  0  0  0  0  0
    0.6523   -7.2456   20.3969 C   0  0  0  0  0  0  0  0  0  0  0  0
    0.6841   -7.6356   21.8175 N   0  0  0  0  0  0  0  0  0  0  0  0
    1.9492   -8.3250   22.1667 C   0  0  0  0  0  0  0  0  0  0  0  0
    2.9822   -7.4082   22.8405 C   0  0  0  0  0  0  0  0  0  0  0  0
    2.5064   -6.8177   24.0576 O   0  0  0  0  0  0  0  0  0  0  0  0
    1.0787   -6.7006   24.1080 C   0  0  0  0  0  0  0  0  0  0  0  0
    0.4611   -6.4807   22.7187 C   0  0  0  0  0  0  0  0  0  0  0  0
    4.5542   -7.5629   15.3402 H   0  0  0  0  0  0  0  0  0  0  0  0
    5.8974   -8.8048   19.1368 H   0  0  0  0  0  0  0  0  0  0  0  0
    3.6015   -8.8613   19.9719 H   0  0  0  0  0  0  0  0  0  0  0  0
    5.8598  -10.2620   15.2284 H   0  0  0  0  0  0  0  0  0  0  0  0
    7.4446  -10.9976   15.2065 H   0  0  0  0  0  0  0  0  0  0  0  0
    6.9720   -9.9025   13.9296 H   0  0  0  0  0  0  0  0  0  0  0  0
    8.7492   -5.6887   18.0403 H   0  0  0  0  0  0  0  0  0  0  0  0
    7.5237   -6.4514   19.0248 H   0  0  0  0  0  0  0  0  0  0  0  0
    7.0585   -5.3780   17.7270 H   0  0  0  0  0  0  0  0  0  0  0  0
   -0.9930   -8.5708   16.5435 H   0  0  0  0  0  0  0  0  0  0  0  0
   -1.0248   -7.1042   17.5115 H   0  0  0  0  0  0  0  0  0  0  0  0
    0.0511   -6.9723   14.7473 H   0  0  0  0  0  0  0  0  0  0  0  0
   -1.6933   -7.0264   14.9954 H   0  0  0  0  0  0  0  0  0  0  0  0
    1.1630   -2.5417   15.4891 H   0  0  0  0  0  0  0  0  0  0  0  0
    1.1973   -4.9264   15.0274 H   0  0  0  0  0  0  0  0  0  0  0  0
   -2.7353   -5.2662   16.4961 H   0  0  0  0  0  0  0  0  0  0  0  0
   -2.7630   -2.8834   16.9654 H   0  0  0  0  0  0  0  0  0  0  0  0
   -3.2937    0.9008   15.8025 H   0  0  0  0  0  0  0  0  0  0  0  0
   -2.1589    0.9928   17.1280 H   0  0  0  0  0  0  0  0  0  0  0  0
   -3.2789   -0.3446   17.0280 H   0  0  0  0  0  0  0  0  0  0  0  0
    1.1143   -9.2793   19.9326 H   0  0  0  0  0  0  0  0  0  0  0  0
   -0.3462   -8.6588   19.1608 H   0  0  0  0  0  0  0  0  0  0  0  0
   -0.2377   -6.6786   20.2203 H   0  0  0  0  0  0  0  0  0  0  0  0
    1.5379   -6.6766   20.2047 H   0  0  0  0  0  0  0  0  0  0  0  0
    2.3796   -8.7177   21.2692 H   0  0  0  0  0  0  0  0  0  0  0  0
    1.7047   -9.0933   22.8701 H   0  0  0  0  0  0  0  0  0  0  0  0
    3.2361   -6.6236   22.1587 H   0  0  0  0  0  0  0  0  0  0  0  0
    3.8283   -8.0135   23.0909 H   0  0  0  0  0  0  0  0  0  0  0  0
    0.8236   -5.8704   24.7330 H   0  0  0  0  0  0  0  0  0  0  0  0
    0.6891   -7.6179   24.4974 H   0  0  0  0  0  0  0  0  0  0  0  0
    0.9024   -5.6106   22.2793 H   0  0  0  0  0  0  0  0  0  0  0  0
   -0.5948   -6.3610   22.8440 H   0  0  0  0  0  0  0  0  0  0  0  0
  1  2  2  0  0  0  0
  2  3  1  0  0  0  0
  3  4  2  0  0  0  0
  4  5  1  0  0  0  0
  4 37  1  0  0  0  0
  5 10  1  0  0  0  0
  5  6  2  0  0  0  0
  6  7  1  0  0  0  0
  6 38  1  0  0  0  0
  7  8  2  0  0  0  0
  7 39  1  0  0  0  0
  8  9  1  0  0  0  0
  8  3  1  0  0  0  0
  9 29  1  0  0  0  0
  9  1  1  0  0  0  0
 10 11  1  0  0  0  0
 11 12  1  0  0  0  0
 11 13  2  0  0  0  0
 12 40  1  0  0  0  0
 12 41  1  0  0  0  0
 12 42  1  0  0  0  0
 13 14  1  0  0  0  0
 14 15  1  0  0  0  0
 15 16  1  0  0  0  0
 15 10  2  0  0  0  0
 16 43  1  0  0  0  0
 16 44  1  0  0  0  0
 16 45  1  0  0  0  0
 17  1  1  0  0  0  0
 17 46  1  0  0  0  0
 17 47  1  0  0  0  0
 18 17  1  0  0  0  0
 18 48  1  0  0  0  0
 18 49  1  0  0  0  0
 19 20  2  0  0  0  0
 20 21  1  0  0  0  0
 20 50  1  0  0  0  0
 21 22  2  0  0  0  0
 21 51  1  0  0  0  0
 22 18  1  0  0  0  0
 22 23  1  0  0  0  0
 23 24  2  0  0  0  0
 23 52  1  0  0  0  0
 24 19  1  0  0  0  0
 24 53  1  0  0  0  0
 25 19  1  0  0  0  0
 26 27  1  0  0  0  0
 26 54  1  0  0  0  0
 26 55  1  0  0  0  0
 26 56  1  0  0  0  0
 27 28  2  0  0  0  0
 27 25  1  0  0  0  0
 29 30  1  0  0  0  0
 29 57  1  0  0  0  0
 29 58  1  0  0  0  0
 30 31  1  0  0  0  0
 30 59  1  0  0  0  0
 30 60  1  0  0  0  0
 31 32  1  0  0  0  0
 32 33  1  0  0  0  0
 32 61  1  0  0  0  0
 32 62  1  0  0  0  0
 33 34  1  0  0  0  0
 33 63  1  0  0  0  0
 33 64  1  0  0  0  0
 34 35  1  0  0  0  0
 35 36  1  0  0  0  0
 35 65  1  0  0  0  0
 35 66  1  0  0  0  0
 36 31  1  0  0  0  0
 36 67  1  0  0  0  0
 36 68  1  0  0  0  0
M  END
>  <minimizedAffinity>
-8.14199

$$$$
