L1:Q92793:6919


 36 40  0  0  0  0  0  0  0  0999 V2000
    0.8995   -7.7717   17.0035 C   0  0  0  0  0  0  0  0  0  0  0  0
    1.8700   -7.5878   16.1299 N   0  0  0  0  0  0  0  0  0  0  0  0
    3.0359   -7.8692   16.7907 C   0  0  0  0  0  0  0  0  0  0  0  0
    4.3551   -7.8351   16.3155 C   0  0  0  0  0  0  0  0  0  0  0  0
    5.3994   -8.1769   17.1874 C   0  0  0  0  0  0  0  0  0  0  0  0
    5.1187   -8.5507   18.5091 C   0  0  0  0  0  0  0  0  0  0  0  0
    3.8062   -8.5875   18.9982 C   0  0  0  0  0  0  0  0  0  0  0  0
    2.7850   -8.2365   18.1076 C   0  0  0  0  0  0  0  0  0  0  0  0
    1.4135   -8.1577   18.2248 N   0  0  0  0  0  0  0  0  0  0  0  0
    6.7654   -8.1581   16.7087 C   0  0  0  0  0  0  0  0  0  0  0  0
    7.4284   -8.9734   15.7530 C   0  0  0  0  0  0  0  0  0  0  0  0
    6.8887  -10.1130   14.9754 C   0  0  0  0  0  0  0  0  0  0  0  0
    8.7056   -8.6019   15.5989 N   0  0  0  0  0  0  0  0  0  0  0  0
    8.8911   -7.5295   16.4500 O   0  0  0  0  0  0  0  0  0  0  0  0
    7.7307   -7.2588   17.1066 C   0  0  0  0  0  0  0  0  0  0  0  0
    7.7681   -6.1157   18.0387 C   0  0  0  0  0  0  0  0  0  0  0  0
   -0.5544   -7.6062   16.6920 C   0  0  0  0  0  0  0  0  0  0  0  0
   -0.7493   -6.7669   15.4271 C   0  0  0  0  0  0  0  0  0  0  0  0
   -0.7901   -2.5563   16.2913 C   0  0  0  0  0  0  0  0  0  0  0  0
    0.3429   -3.1262   15.7145 C   0  0  0  0  0  0  0  0  0  0  0  0
    0.3576   -4.4952   15.4447 C   0  0  0  0  0  0  0  0  0  0  0  0
   -0.7619   -5.2898   15.7370 C   0  0  0  0  0  0  0  0  0  0  0  0
   -1.9032   -4.6914   16.2903 C   0  0  0  0  0  0  0  0  0  0  0  0
   -1.9201   -3.3233   16.5641 C   0  0  0  0  0  0  0  0  0  0  0  0
   -0.8753   -1.1790   16.5339 O   0  0  0  0  0  0  0  0  0  0  0  0
   -2.6726    0.3314   16.4620 C   0  0  0  0  0  0  0  0  0  0  0  0
   -1.6721   -0.4464   15.6594 C   0  0  0  0  0  0  0  0  0  0  0  0
   -1.5961   -0.4154   14.4389 O   0  0  0  0  0  0  0  0  0  0  0  0
    0.6649   -8.4440   19.4374 C   0  0  0  0  0  0  0  0  0  0  0  0
    0.6523   -7.2456   20.3969 C   0  0  0  0  0  0  0  0  0  0  0  0
    0.6841   -7.6356   21.8175 N   0  0  0  0  0  0  0  0  0  0  0  0
    1.9492   -8.3250   22.1667 C   0  0  0  0  0  0  0  0  0  0  0  0
    2.9822   -7.4082   22.8405 C   0  0  0  0  0  0  0  0  0  0  0  0
    2.5064   -6.8177   24.0576 O   0  0  0  0  0  0  0  0  0  0  0  0
    1.0787   -6.7006   24.1080 C   0  0  0  0  0  0  0  0  0  0  0  0
    0.4611   -6.4807   22.7187 C   0  0  0  0  0  0  0  0  0  0  0  0
 26 27  1  0  0  0
 27 28  2  0  0  0
 27 25  1  0  0  0
 25 19  1  0  0  0
 19 20  2  0  0  0
 20 21  1  0  0  0
 21 22  2  0  0  0
 22 18  1  0  0  0
 18 17  1  0  0  0
 17  1  1  0  0  0
  1  2  2  0  0  0
  2  3  1  0  0  0
  3  4  2  0  0  0
  4  5  1  0  0  0
  5 10  1  0  0  0
 10 11  1  0  0  0
 11 12  1  0  0  0
 11 13  2  0  0  0
 13 14  1  0  0  0
 14 15  1  0  0  0
 15 16  1  0  0  0
  5  6  2  0  0  0
  6  7  1  0  0  0
  7  8  2  0  0  0
  8  9  1  0  0  0
  9 29  1  0  0  0
 29 30  1  0  0  0
 30 31  1  0  0  0
 31 32  1  0  0  0
 32 33  1  0  0  0
 33 34  1  0  0  0
 34 35  1  0  0  0
 35 36  1  0  0  0
 22 23  1  0  0  0
 23 24  2  0  0  0
 24 19  1  0  0  0
  9  1  1  0  0  0
 36 31  1  0  0  0
  8  3  1  0  0  0
 15 10  2  0  0  0
M  END
> <minimizedAffinity>
-8.14199

$$$$
