L1:Q92793:73412
     RDKit          3D

 66 70  0  0  0  0  0  0  0  0999 V2000
    8.6318   -1.7378   -1.0960 C   0  0  0  0  0  0  0  0  0  0  0  0
    7.8207   -1.6853    0.0707 O   0  0  0  0  0  0  0  0  0  0  0  0
    6.4693   -1.7904   -0.1116 C   0  0  0  0  0  0  0  0  0  0  0  0
    5.8111   -1.8936   -1.3368 C   0  0  0  0  0  0  0  0  0  0  0  0
    4.4158   -1.9924   -1.3804 C   0  0  0  0  0  0  0  0  0  0  0  0
    3.6625   -1.9932   -0.2000 C   0  0  0  0  0  0  0  0  0  0  0  0
    2.1554   -2.0703   -0.2518 C   0  0  0  0  0  0  0  0  0  0  0  0
    1.5333   -0.6727   -0.3017 C   0  0  0  0  0  0  0  0  0  0  0  0
    0.0371   -0.7110   -0.3327 C   0  0  0  0  0  0  0  0  0  0  0  0
   -0.7056   -1.7813   -0.5339 N   0  0  0  0  0  0  0  0  0  0  0  0
   -2.0076   -1.3574   -0.4797 C   0  0  0  0  0  0  0  0  0  0  0  0
   -3.1892   -2.0987   -0.6250 C   0  0  0  0  0  0  0  0  0  0  0  0
   -4.4219   -1.4364   -0.5247 C   0  0  0  0  0  0  0  0  0  0  0  0
   -5.6505   -2.1855   -0.6830 C   0  0  0  0  0  0  0  0  0  0  0  0
   -6.1154   -2.9958   -1.7529 C   0  0  0  0  0  0  0  0  0  0  0  0
   -5.4555   -3.2882   -3.0465 C   0  0  0  0  0  0  0  0  0  0  0  0
   -7.3167   -3.5205   -1.4795 N   0  0  0  0  0  0  0  0  0  0  0  0
   -7.6490   -3.0634   -0.2187 O   0  0  0  0  0  0  0  0  0  0  0  0
   -6.6508   -2.2731    0.2607 C   0  0  0  0  0  0  0  0  0  0  0  0
   -6.8539   -1.7279    1.6166 C   0  0  0  0  0  0  0  0  0  0  0  0
   -4.4621   -0.0550   -0.2877 C   0  0  0  0  0  0  0  0  0  0  0  0
   -3.2901    0.6985   -0.1402 C   0  0  0  0  0  0  0  0  0  0  0  0
   -2.0758    0.0109   -0.2437 C   0  0  0  0  0  0  0  0  0  0  0  0
   -0.7588    0.4024   -0.1572 N   0  0  0  0  0  0  0  0  0  0  0  0
   -0.2982    1.7625    0.0728 C   0  0  0  0  0  0  0  0  0  0  0  0
   -0.2072    2.0847    1.5723 C   0  0  0  0  0  0  0  0  0  0  0  0
    0.3385    3.3970    1.9350 N   0  0  0  0  0  0  0  0  0  0  0  0
    1.7399    3.6213    1.5402 C   0  0  0  0  0  0  0  0  0  0  0  0
    1.9025    4.6747    0.4315 C   0  0  0  0  0  0  0  0  0  0  0  0
    1.3273    5.9463    0.7570 O   0  0  0  0  0  0  0  0  0  0  0  0
    0.2354    5.8599    1.6829 C   0  0  0  0  0  0  0  0  0  0  0  0
   -0.5274    4.5309    1.5749 C   0  0  0  0  0  0  0  0  0  0  0  0
    4.3267   -1.8862    1.0265 C   0  0  0  0  0  0  0  0  0  0  0  0
    5.7192   -1.7862    1.0663 C   0  0  0  0  0  0  0  0  0  0  0  0
    8.5081   -2.6905   -1.6216 H   0  0  0  0  0  0  0  0  0  0  0  0
    9.6769   -1.6655   -0.7800 H   0  0  0  0  0  0  0  0  0  0  0  0
    8.4250   -0.8904   -1.7580 H   0  0  0  0  0  0  0  0  0  0  0  0
    6.3511   -1.9003   -2.2775 H   0  0  0  0  0  0  0  0  0  0  0  0
    3.9203   -2.0724   -2.3459 H   0  0  0  0  0  0  0  0  0  0  0  0
    1.8509   -2.6601   -1.1264 H   0  0  0  0  0  0  0  0  0  0  0  0
    1.7895   -2.6236    0.6232 H   0  0  0  0  0  0  0  0  0  0  0  0
    1.8902   -0.1396   -1.1920 H   0  0  0  0  0  0  0  0  0  0  0  0
    1.8636   -0.0974    0.5719 H   0  0  0  0  0  0  0  0  0  0  0  0
   -3.1252   -3.1672   -0.8003 H   0  0  0  0  0  0  0  0  0  0  0  0
   -4.6819   -4.0511   -2.9141 H   0  0  0  0  0  0  0  0  0  0  0  0
   -4.9868   -2.3880   -3.4567 H   0  0  0  0  0  0  0  0  0  0  0  0
   -6.1727   -3.6561   -3.7878 H   0  0  0  0  0  0  0  0  0  0  0  0
   -7.5770   -2.3268    2.1792 H   0  0  0  0  0  0  0  0  0  0  0  0
   -7.2306   -0.7021    1.5614 H   0  0  0  0  0  0  0  0  0  0  0  0
   -5.9159   -1.7220    2.1804 H   0  0  0  0  0  0  0  0  0  0  0  0
   -5.4205    0.4589   -0.2260 H   0  0  0  0  0  0  0  0  0  0  0  0
   -3.3362    1.7667    0.0418 H   0  0  0  0  0  0  0  0  0  0  0  0
    0.6710    1.8724   -0.4235 H   0  0  0  0  0  0  0  0  0  0  0  0
   -0.9945    2.4326   -0.4420 H   0  0  0  0  0  0  0  0  0  0  0  0
   -1.2030    1.9853    2.0245 H   0  0  0  0  0  0  0  0  0  0  0  0
    0.3990    1.3170    2.0714 H   0  0  0  0  0  0  0  0  0  0  0  0
    2.2650    3.9838    2.4329 H   0  0  0  0  0  0  0  0  0  0  0  0
    2.2382    2.6890    1.2501 H   0  0  0  0  0  0  0  0  0  0  0  0
    1.4418    4.3267   -0.5001 H   0  0  0  0  0  0  0  0  0  0  0  0
    2.9648    4.8394    0.2240 H   0  0  0  0  0  0  0  0  0  0  0  0
    0.6308    6.0045    2.6953 H   0  0  0  0  0  0  0  0  0  0  0  0
   -0.4373    6.6981    1.4742 H   0  0  0  0  0  0  0  0  0  0  0  0
   -0.8931    4.4331    0.5466 H   0  0  0  0  0  0  0  0  0  0  0  0
   -1.3954    4.5507    2.2428 H   0  0  0  0  0  0  0  0  0  0  0  0
    3.7676   -1.8836    1.9594 H   0  0  0  0  0  0  0  0  0  0  0  0
    6.2256   -1.7077    2.0253 H   0  0  0  0  0  0  0  0  0  0  0  0
  1  2  1  0
  2  3  1  0
  3  4  2  0
  4  5  1  0
  5  6  2  0
  6  7  1  0
  7  8  1  0
  8  9  1  0
  9 10  2  0
 10 11  1  0
 11 12  2  0
 12 13  1  0
 13 14  1  0
 14 15  1  0
 15 16  1  0
 15 17  2  0
 17 18  1  0
 18 19  1  0
 19 20  1  0
 13 21  2  0
 21 22  1  0
 22 23  2  0
 23 24  1  0
 24 25  1  0
 25 26  1  0
 26 27  1  0
 27 28  1  0
 28 29  1  0
 29 30  1  0
 30 31  1  0
 31 32  1  0
  6 33  1  0
 33 34  2  0
 34  3  1  0
 24  9  1  0
 32 27  1  0
 23 11  1  0
 19 14  2  0
  1 35  1  0
  1 36  1  0
  1 37  1  0
  4 38  1  0
  5 39  1  0
  7 40  1  0
  7 41  1  0
  8 42  1  0
  8 43  1  0
 12 44  1  0
 16 45  1  0
 16 46  1  0
 16 47  1  0
 20 48  1  0
 20 49  1  0
 20 50  1  0
 21 51  1  0
 22 52  1  0
 25 53  1  0
 25 54  1  0
 26 55  1  0
 26 56  1  0
 28 57  1  0
 28 58  1  0
 29 59  1  0
 29 60  1  0
 31 61  1  0
 31 62  1  0
 32 63  1  0
 32 64  1  0
 33 65  1  0
 34 66  1  0
M  END
>  <mol_id>  (1) 
73412

>  <source_index>  (1) 
6

>  <layer>  (1) 
L1

>  <uniprot>  (1) 
Q92793

>  <paff>  (1) 
6.1871

>  <smiles>  (1) 
COc1ccc(CCc2nc3cc(ccc3n2CCN2CCOCC2)-c2c(C)noc2C)cc1

$$$$
