L1:Q92793:73412
 OpenBabel09212617433D

 66 70  0  0  0  0  0  0  0  0999 V2000
    2.0639   -8.5379   20.2877 C   0  0  0  0  0  0  0  0  0  0  0  0
    3.3511   -8.8218   20.2740 N   0  0  0  0  0  0  0  0  0  0  0  0
    3.8115   -8.4438   19.0399 C   0  0  0  0  0  0  0  0  0  0  0  0
    5.1070   -8.5333   18.5102 C   0  0  0  0  0  0  0  0  0  0  0  0
    5.3382   -8.0784   17.2034 C   0  0  0  0  0  0  0  0  0  0  0  0
    4.2864   -7.5402   16.4485 C   0  0  0  0  0  0  0  0  0  0  0  0
    2.9872   -7.4445   16.9642 C   0  0  0  0  0  0  0  0  0  0  0  0
    2.7863   -7.9073   18.2694 C   0  0  0  0  0  0  0  0  0  0  0  0
    1.6814   -7.9742   19.0878 N   0  0  0  0  0  0  0  0  0  0  0  0
    6.6721   -8.1540   16.6460 C   0  0  0  0  0  0  0  0  0  0  0  0
    7.8452   -7.4069   16.9342 C   0  0  0  0  0  0  0  0  0  0  0  0
    8.0222   -6.2992   17.9017 C   0  0  0  0  0  0  0  0  0  0  0  0
    8.8781   -7.8149   16.1861 N   0  0  0  0  0  0  0  0  0  0  0  0
    8.3919   -8.8435   15.4020 O   0  0  0  0  0  0  0  0  0  0  0  0
    7.0770   -9.0519   15.6823 C   0  0  0  0  0  0  0  0  0  0  0  0
    6.4230  -10.1433   14.9353 C   0  0  0  0  0  0  0  0  0  0  0  0
    1.1244   -8.7725   21.4293 C   0  0  0  0  0  0  0  0  0  0  0  0
    1.7400   -8.4044   22.7815 C   0  0  0  0  0  0  0  0  0  0  0  0
   -0.1035   -4.8510   24.4195 C   0  0  0  0  0  0  0  0  0  0  0  0
   -0.6209   -5.4443   23.2682 C   0  0  0  0  0  0  0  0  0  0  0  0
   -0.0185   -6.5893   22.7346 C   0  0  0  0  0  0  0  0  0  0  0  0
    1.1101   -7.1521   23.3429 C   0  0  0  0  0  0  0  0  0  0  0  0
    1.6237   -6.5556   24.4993 C   0  0  0  0  0  0  0  0  0  0  0  0
    1.0191   -5.4139   25.0301 C   0  0  0  0  0  0  0  0  0  0  0  0
   -0.2418   -3.5570   26.4081 C   0  0  0  0  0  0  0  0  0  0  0  0
   -0.5954   -3.7374   25.0427 O   0  0  0  0  0  0  0  0  0  0  0  0
    0.3456   -7.5180   18.7378 C   0  0  0  0  0  0  0  0  0  0  0  0
    0.1742   -6.0132   18.9961 C   0  0  0  0  0  0  0  0  0  0  0  0
    0.3490   -5.1204   17.8455 N   0  0  0  0  0  0  0  0  0  0  0  0
   -0.1765   -5.6360   16.5695 C   0  0  0  0  0  0  0  0  0  0  0  0
   -1.4018   -4.8622   16.0547 C   0  0  0  0  0  0  0  0  0  0  0  0
   -1.1715   -3.4562   15.9006 O   0  0  0  0  0  0  0  0  0  0  0  0
   -0.1589   -2.9431   16.7772 C   0  0  0  0  0  0  0  0  0  0  0  0
   -0.0625   -3.7295   18.0932 C   0  0  0  0  0  0  0  0  0  0  0  0
    5.8775   -8.9273   19.0725 H   0  0  0  0  0  0  0  0  0  0  0  0
    4.4737   -7.2066   15.4900 H   0  0  0  0  0  0  0  0  0  0  0  0
    2.2133   -7.0505   16.4066 H   0  0  0  0  0  0  0  0  0  0  0  0
    7.0962   -6.1136   18.4047 H   0  0  0  0  0  0  0  0  0  0  0  0
    8.3283   -5.4161   17.3808 H   0  0  0  0  0  0  0  0  0  0  0  0
    8.7699   -6.5677   18.6185 H   0  0  0  0  0  0  0  0  0  0  0  0
    7.1289  -10.5915   14.2677 H   0  0  0  0  0  0  0  0  0  0  0  0
    5.6018   -9.7491   14.3740 H   0  0  0  0  0  0  0  0  0  0  0  0
    6.0640  -10.8807   15.6225 H   0  0  0  0  0  0  0  0  0  0  0  0
    0.2470   -8.1788   21.2789 H   0  0  0  0  0  0  0  0  0  0  0  0
    0.8942   -9.8172   21.4509 H   0  0  0  0  0  0  0  0  0  0  0  0
    1.5850   -9.2111   23.4672 H   0  0  0  0  0  0  0  0  0  0  0  0
    2.7856   -8.2254   22.6414 H   0  0  0  0  0  0  0  0  0  0  0  0
   -1.4505   -5.0377   22.8084 H   0  0  0  0  0  0  0  0  0  0  0  0
   -0.4101   -7.0232   21.8841 H   0  0  0  0  0  0  0  0  0  0  0  0
    2.4525   -6.9607   24.9620 H   0  0  0  0  0  0  0  0  0  0  0  0
    1.4064   -4.9814   25.8833 H   0  0  0  0  0  0  0  0  0  0  0  0
   -0.6866   -2.6559   26.7757 H   0  0  0  0  0  0  0  0  0  0  0  0
    0.8226   -3.4906   26.4951 H   0  0  0  0  0  0  0  0  0  0  0  0
   -0.5953   -4.3887   26.9810 H   0  0  0  0  0  0  0  0  0  0  0  0
   -0.3694   -8.0546   19.3258 H   0  0  0  0  0  0  0  0  0  0  0  0
    0.1945   -7.6970   17.6938 H   0  0  0  0  0  0  0  0  0  0  0  0
    0.8904   -5.7286   19.7384 H   0  0  0  0  0  0  0  0  0  0  0  0
   -0.8478   -5.8943   19.2900 H   0  0  0  0  0  0  0  0  0  0  0  0
   -0.4554   -6.6599   16.7068 H   0  0  0  0  0  0  0  0  0  0  0  0
    0.5980   -5.5213   15.8402 H   0  0  0  0  0  0  0  0  0  0  0  0
   -2.2042   -4.9991   16.7492 H   0  0  0  0  0  0  0  0  0  0  0  0
   -1.6317   -5.2499   15.0843 H   0  0  0  0  0  0  0  0  0  0  0  0
   -0.3869   -1.9225   17.0038 H   0  0  0  0  0  0  0  0  0  0  0  0
    0.7814   -3.0354   16.2750 H   0  0  0  0  0  0  0  0  0  0  0  0
   -1.0188   -3.7274   18.5733 H   0  0  0  0  0  0  0  0  0  0  0  0
    0.6704   -3.2624   18.7174 H   0  0  0  0  0  0  0  0  0  0  0  0
  1  2  2  0  0  0  0
  2  3  1  0  0  0  0
  3  4  2  0  0  0  0
  4  5  1  0  0  0  0
  4 35  1  0  0  0  0
  5 10  1  0  0  0  0
  5  6  2  0  0  0  0
  6  7  1  0  0  0  0
  6 36  1  0  0  0  0
  7  8  2  0  0  0  0
  7 37  1  0  0  0  0
  8  9  1  0  0  0  0
  8  3  1  0  0  0  0
  9 27  1  0  0  0  0
  9  1  1  0  0  0  0
 10 11  1  0  0  0  0
 11 12  1  0  0  0  0
 11 13  2  0  0  0  0
 12 38  1  0  0  0  0
 12 39  1  0  0  0  0
 12 40  1  0  0  0  0
 13 14  1  0  0  0  0
 14 15  1  0  0  0  0
 15 16  1  0  0  0  0
 15 10  2  0  0  0  0
 16 41  1  0  0  0  0
 16 42  1  0  0  0  0
 16 43  1  0  0  0  0
 17  1  1  0  0  0  0
 17 44  1  0  0  0  0
 17 45  1  0  0  0  0
 18 17  1  0  0  0  0
 18 46  1  0  0  0  0
 18 47  1  0  0  0  0
 19 20  2  0  0  0  0
 20 21  1  0  0  0  0
 20 48  1  0  0  0  0
 21 22  2  0  0  0  0
 21 49  1  0  0  0  0
 22 18  1  0  0  0  0
 22 23  1  0  0  0  0
 23 24  2  0  0  0  0
 23 50  1  0  0  0  0
 24 19  1  0  0  0  0
 24 51  1  0  0  0  0
 25 26  1  0  0  0  0
 25 52  1  0  0  0  0
 25 53  1  0  0  0  0
 25 54  1  0  0  0  0
 26 19  1  0  0  0  0
 27 28  1  0  0  0  0
 27 55  1  0  0  0  0
 27 56  1  0  0  0  0
 28 29  1  0  0  0  0
 28 57  1  0  0  0  0
 28 58  1  0  0  0  0
 29 30  1  0  0  0  0
 30 31  1  0  0  0  0
 30 59  1  0  0  0  0
 30 60  1  0  0  0  0
 31 32  1  0  0  0  0
 31 61  1  0  0  0  0
 31 62  1  0  0  0  0
 32 33  1  0  0  0  0
 33 34  1  0  0  0  0
 33 63  1  0  0  0  0
 33 64  1  0  0  0  0
 34 29  1  0  0  0  0
 34 65  1  0  0  0  0
 34 66  1  0  0  0  0
M  END
>  <minimizedAffinity>
-7.86378

$$$$
