L1:Q92793:95108


 40 43  0  0  0  0  0  0  0  0999 V2000
    7.5921   -8.9244   16.1311 C   0  0  0  0  0  0  0  0  0  0  0  0
    7.5687   -9.6184   14.9103 C   0  0  0  0  0  0  0  0  0  0  0  0
    6.3806   -9.7670   14.1826 C   0  0  0  0  0  0  0  0  0  0  0  0
    5.2188   -9.2017   14.6829 C   0  0  0  0  0  0  0  0  0  0  0  0
    5.2330   -8.5131   15.8994 C   0  0  0  0  0  0  0  0  0  0  0  0
    6.4025   -8.3749   16.6326 C   0  0  0  0  0  0  0  0  0  0  0  0
    3.8592   -8.0469   16.2681 C   0  0  0  0  0  0  0  0  0  0  0  0
    3.1265   -8.1266   14.9185 C   0  0  0  0  0  0  0  0  0  0  0  0
    3.8283   -9.2331   14.1166 C   0  0  0  0  0  0  0  0  0  0  0  0
    3.2162  -10.5011   14.3493 O   0  0  0  0  0  0  0  0  0  0  0  0
    2.8900  -11.0437   13.1407 C   0  0  0  0  0  0  0  0  0  0  0  0
    2.3608  -12.1372   13.0191 O   0  0  0  0  0  0  0  0  0  0  0  0
    3.1827  -10.1869   12.1411 N   0  0  0  0  0  0  0  0  0  0  0  0
    3.7225   -9.0426   12.6276 C   0  0  0  0  0  0  0  0  0  0  0  0
    4.0454   -8.0632   11.9720 O   0  0  0  0  0  0  0  0  0  0  0  0
   11.2525   -6.7025   18.5721 C   0  0  0  0  0  0  0  0  0  0  0  0
   10.4920   -7.7972   18.0258 N   0  0  0  0  0  0  0  0  0  0  0  0
    9.3248   -7.5677   17.3266 C   0  0  0  0  0  0  0  0  0  0  0  0
    8.8972   -6.4369   17.1367 O   0  0  0  0  0  0  0  0  0  0  0  0
    8.7536   -8.7506   16.9121 N   0  0  0  0  0  0  0  0  0  0  0  0
   10.8764   -8.7264   18.0750 H   0  0  0  0  0  0  0  0  0  0  0  0
    9.2028   -9.5920   17.2337 H   0  0  0  0  0  0  0  0  0  0  0  0
    3.0252  -10.4719   10.7346 C   0  0  0  0  0  0  0  0  0  0  0  0
    4.3233  -11.1123   10.2202 C   0  0  0  0  0  0  0  0  0  0  0  0
    5.1454  -11.5807   11.0096 O   0  0  0  0  0  0  0  0  0  0  0  0
    4.5360  -11.1515    8.8465 N   0  0  0  0  0  0  0  0  0  0  0  0
    5.7948  -11.7575    8.3117 C   0  0  0  0  0  0  0  0  0  0  0  0
    5.5682  -12.5911    7.0472 C   0  0  0  0  0  0  0  0  0  0  0  0
    6.9679  -10.7714    8.1377 C   0  0  0  0  0  0  0  0  0  0  0  0
    7.1532  -10.4916    6.8234 F   0  0  0  0  0  0  0  0  0  0  0  0
    8.1211  -11.3348    8.5802 F   0  0  0  0  0  0  0  0  0  0  0  0
    6.8080   -9.6015    8.7800 F   0  0  0  0  0  0  0  0  0  0  0  0
    3.5392  -10.7372    7.8558 C   0  0  0  0  0  0  0  0  0  0  0  0
    3.8619   -9.4094    7.2069 C   0  0  0  0  0  0  0  0  0  0  0  0
    4.1930   -9.3664    5.8416 C   0  0  0  0  0  0  0  0  0  0  0  0
    4.4687   -8.1490    5.2157 C   0  0  0  0  0  0  0  0  0  0  0  0
    4.4059   -6.9709    5.9482 C   0  0  0  0  0  0  0  0  0  0  0  0
    4.6697   -5.8044    5.3457 F   0  0  0  0  0  0  0  0  0  0  0  0
    4.0696   -6.9863    7.2952 C   0  0  0  0  0  0  0  0  0  0  0  0
    3.7927   -8.2020    7.9239 C   0  0  0  0  0  0  0  0  0  0  0  0
 16 17  1  0  0  0
 17 18  1  0  0  0
 18 19  2  0  0  0
 18 20  1  0  0  0
 20  1  1  0  0  0
  1  2  2  0  0  0
  2  3  1  0  0  0
  3  4  2  0  0  0
  4  5  1  0  0  0
  5  6  2  0  0  0
  5  7  1  0  0  0
  7  8  1  0  0  0
  8  9  1  0  0  0
  9 10  1  0  0  0
 10 11  1  0  0  0
 11 12  2  0  0  0
 11 13  1  0  0  0
 13 23  1  0  0  0
 23 24  1  0  0  0
 24 25  2  0  0  0
 24 26  1  0  0  0
 26 33  1  0  0  0
 33 34  1  0  0  0
 34 35  2  0  0  0
 35 36  1  0  0  0
 36 37  2  0  0  0
 37 38  1  0  0  0
 37 39  1  0  0  0
 39 40  2  0  0  0
 26 27  1  0  0  0
 27 28  1  0  0  0
 27 29  1  0  0  0
 29 30  1  0  0  0
 29 31  1  0  0  0
 29 32  1  0  0  0
 13 14  1  0  0  0
 14 15  2  0  0  0
  6  1  1  0  0  0
 14  9  1  0  0  0
  9  4  1  0  0  0
 40 34  1  0  0  0
 17 21  1  0  0  0
 20 22  1  0  0  0
M  END
> <minimizedAffinity>
-8.32419

$$$$
