L1:Q92793:95108
     RDKit          3D

 62 65  0  0  0  0  0  0  0  0999 V2000
   -7.3028   -2.3523   -4.1286 C   0  0  0  0  0  0  0  0  0  0  0  0
   -7.0436   -1.8817   -2.7920 N   0  0  0  0  0  0  0  0  0  0  0  0
   -5.7860   -1.4464   -2.4272 C   0  0  0  0  0  0  0  0  0  0  0  0
   -4.8520   -1.4345   -3.2178 O   0  0  0  0  0  0  0  0  0  0  0  0
   -5.7584   -1.0603   -1.1053 N   0  0  0  0  0  0  0  0  0  0  0  0
   -4.6763   -0.5121   -0.3857 C   0  0  0  0  0  0  0  0  0  0  0  0
   -3.4321   -0.2048   -0.9603 C   0  0  0  0  0  0  0  0  0  0  0  0
   -2.3963    0.3481   -0.1957 C   0  0  0  0  0  0  0  0  0  0  0  0
   -2.6143    0.5772    1.1532 C   0  0  0  0  0  0  0  0  0  0  0  0
   -3.8513    0.2781    1.7316 C   0  0  0  0  0  0  0  0  0  0  0  0
   -4.8863   -0.2555    0.9776 C   0  0  0  0  0  0  0  0  0  0  0  0
   -3.8755    0.6660    3.1772 C   0  0  0  0  0  0  0  0  0  0  0  0
   -2.3761    0.7886    3.4958 C   0  0  0  0  0  0  0  0  0  0  0  0
   -1.6893    1.1716    2.1761 C   0  0  2  0  0  0  0  0  0  0  0  0
   -1.6169    2.5893    2.0290 O   0  0  0  0  0  0  0  0  0  0  0  0
   -0.3169    2.9256    1.7873 C   0  0  0  0  0  0  0  0  0  0  0  0
    0.0542    4.0743    1.6045 O   0  0  0  0  0  0  0  0  0  0  0  0
    0.4730    1.8336    1.8367 N   0  0  0  0  0  0  0  0  0  0  0  0
    1.8903    1.8247    1.5618 C   0  0  0  0  0  0  0  0  0  0  0  0
    2.0960    1.4671    0.0821 C   0  0  0  0  0  0  0  0  0  0  0  0
    1.1597    1.5411   -0.7155 O   0  0  0  0  0  0  0  0  0  0  0  0
    3.3637    1.0665   -0.3259 N   0  0  0  0  0  0  0  0  0  0  0  0
    4.5440    1.0901    0.5419 C   0  0  0  0  0  0  0  0  0  0  0  0
    5.0469   -0.2910    0.8994 C   0  0  0  0  0  0  0  0  0  0  0  0
    6.4266   -0.5572    0.8666 C   0  0  0  0  0  0  0  0  0  0  0  0
    6.9154   -1.8171    1.2182 C   0  0  0  0  0  0  0  0  0  0  0  0
    6.0296   -2.8116    1.6119 C   0  0  0  0  0  0  0  0  0  0  0  0
    6.5006   -4.0188    1.9496 F   0  0  0  0  0  0  0  0  0  0  0  0
    4.6635   -2.5694    1.6637 C   0  0  0  0  0  0  0  0  0  0  0  0
    4.1716   -1.3103    1.3134 C   0  0  0  0  0  0  0  0  0  0  0  0
    3.5965    0.6998   -1.7574 C   0  0  1  0  0  0  0  0  0  0  0  0
    2.7263   -0.4704   -2.2251 C   0  0  0  0  0  0  0  0  0  0  0  0
    3.5389    1.8803   -2.7483 C   0  0  0  0  0  0  0  0  0  0  0  0
    4.0620    1.5131   -3.9448 F   0  0  0  0  0  0  0  0  0  0  0  0
    4.2981    2.9096   -2.2930 F   0  0  0  0  0  0  0  0  0  0  0  0
    2.3010    2.3513   -2.9773 F   0  0  0  0  0  0  0  0  0  0  0  0
   -0.2552    0.7217    2.1030 C   0  0  0  0  0  0  0  0  0  0  0  0
    0.1851   -0.4080    2.2553 O   0  0  0  0  0  0  0  0  0  0  0  0
   -7.2690   -1.5028   -4.8160 H   0  0  0  0  0  0  0  0  0  0  0  0
   -8.2942   -2.8104   -4.1521 H   0  0  0  0  0  0  0  0  0  0  0  0
   -6.5459   -3.0863   -4.4182 H   0  0  0  0  0  0  0  0  0  0  0  0
   -7.8170   -1.7805   -2.1554 H   0  0  0  0  0  0  0  0  0  0  0  0
   -6.6041   -1.2195   -0.5831 H   0  0  0  0  0  0  0  0  0  0  0  0
   -3.2394   -0.3756   -2.0157 H   0  0  0  0  0  0  0  0  0  0  0  0
   -1.4486    0.5904   -0.6709 H   0  0  0  0  0  0  0  0  0  0  0  0
   -5.8407   -0.4655    1.4496 H   0  0  0  0  0  0  0  0  0  0  0  0
   -4.3844    1.6280    3.2987 H   0  0  0  0  0  0  0  0  0  0  0  0
   -4.3544   -0.0910    3.8047 H   0  0  0  0  0  0  0  0  0  0  0  0
   -2.0113   -0.1842    3.8530 H   0  0  0  0  0  0  0  0  0  0  0  0
   -2.2038    1.5186    4.2943 H   0  0  0  0  0  0  0  0  0  0  0  0
    2.3590    1.0725    2.2011 H   0  0  0  0  0  0  0  0  0  0  0  0
    2.3180    2.8143    1.7482 H   0  0  0  0  0  0  0  0  0  0  0  0
    4.3531    1.6383    1.4680 H   0  0  0  0  0  0  0  0  0  0  0  0
    5.3179    1.6561    0.0084 H   0  0  0  0  0  0  0  0  0  0  0  0
    7.1336    0.2137    0.5658 H   0  0  0  0  0  0  0  0  0  0  0  0
    7.9798   -2.0285    1.1898 H   0  0  0  0  0  0  0  0  0  0  0  0
    3.9881   -3.3600    1.9763 H   0  0  0  0  0  0  0  0  0  0  0  0
    3.0969   -1.1438    1.3602 H   0  0  0  0  0  0  0  0  0  0  0  0
    4.6296    0.3305   -1.8045 H   0  0  0  0  0  0  0  0  0  0  0  0
    3.0729   -0.8384   -3.1969 H   0  0  0  0  0  0  0  0  0  0  0  0
    1.6757   -0.1901   -2.3415 H   0  0  0  0  0  0  0  0  0  0  0  0
    2.7746   -1.3021   -1.5149 H   0  0  0  0  0  0  0  0  0  0  0  0
  1  2  1  0
  2  3  1  0
  3  4  2  0
  3  5  1  0
  5  6  1  0
  6  7  2  0
  7  8  1  0
  8  9  2  0
  9 10  1  0
 10 11  2  0
 10 12  1  0
 12 13  1  0
 13 14  1  0
 14 15  1  6
 15 16  1  0
 16 17  2  0
 16 18  1  0
 18 19  1  0
 19 20  1  0
 20 21  2  0
 20 22  1  0
 22 23  1  0
 23 24  1  0
 24 25  2  0
 25 26  1  0
 26 27  2  0
 27 28  1  0
 27 29  1  0
 29 30  2  0
 22 31  1  0
 31 32  1  0
 31 33  1  0
 33 34  1  0
 33 35  1  0
 33 36  1  0
 18 37  1  0
 37 38  2  0
 11  6  1  0
 37 14  1  0
 14  9  1  0
 30 24  1  0
  1 39  1  0
  1 40  1  0
  1 41  1  0
  2 42  1  0
  5 43  1  0
  7 44  1  0
  8 45  1  0
 11 46  1  0
 12 47  1  0
 12 48  1  0
 13 49  1  0
 13 50  1  0
 19 51  1  0
 19 52  1  0
 23 53  1  0
 23 54  1  0
 25 55  1  0
 26 56  1  0
 29 57  1  0
 30 58  1  0
 31 59  1  1
 32 60  1  0
 32 61  1  0
 32 62  1  0
M  END
>  <mol_id>  (1) 
95108

>  <source_index>  (1) 
7

>  <layer>  (1) 
L1

>  <uniprot>  (1) 
Q92793

>  <paff>  (1) 
8.5850000000000009

>  <smiles>  (1) 
CNC(=O)Nc1ccc2c(c1)CCC21OC(=O)N(CC(=O)N(Cc2ccc(F)cc2)[C@@H](C)C(F)(F)F)C1=O

$$$$
