L4:Q9Y239:17646
     RDKit          3D

 44 47  0  0  0  0  0  0  0  0999 V2000
   17.9203   13.4127   18.1737 C   0  0  0  0  0  0  0  0  0  0  0  0
   18.6887   14.2677   18.9743 C   0  0  0  0  0  0  0  0  0  0  0  0
   18.4732   15.6467   18.9527 C   0  0  0  0  0  0  0  0  0  0  0  0
   17.4701   16.1803   18.1445 C   0  0  0  0  0  0  0  0  0  0  0  0
   17.2572   17.8978   18.1292 Cl  0  0  0  0  0  0  0  0  0  0  0  0
   16.6473   15.3422   17.3736 C   0  0  0  0  0  0  0  0  0  0  0  0
   16.8969   13.9643   17.3823 C   0  0  0  0  0  0  0  0  0  0  0  0
   16.5367   11.6828   20.0952 C   0  0  0  0  0  0  0  0  0  0  0  0
   17.5977   11.1604   19.1464 C   0  0  0  0  0  0  0  0  0  0  0  0
   17.8886    9.9024   19.2663 N   0  0  0  0  0  0  0  0  0  0  0  0
   18.7939    9.3344   18.3681 C   0  0  0  0  0  0  0  0  0  0  0  0
   19.1524    7.9971   18.4679 C   0  0  0  0  0  0  0  0  0  0  0  0
   20.0106    7.3667   17.6274 N   0  0  0  0  0  0  0  0  0  0  0  0
   20.5436    8.1065   16.6326 C   0  0  0  0  0  0  0  0  0  0  0  0
   20.2510    9.4425   16.4380 C   0  0  0  0  0  0  0  0  0  0  0  0
   19.3605   10.0490   17.3268 C   0  0  0  0  0  0  0  0  0  0  0  0
   19.0118   11.4742   17.2032 C   0  0  0  0  0  0  0  0  0  0  0  0
   19.5161   12.1062   16.2757 O   0  0  0  0  0  0  0  0  0  0  0  0
   18.1540   11.9968   18.1855 N   0  0  0  0  0  0  0  0  0  0  0  0
   15.6698   15.9439   16.5098 N   0  0  0  0  0  0  0  0  0  0  0  0
   14.9005   16.4338   16.9748 H   0  0  0  0  0  0  0  0  0  0  0  0
   15.1523   15.2232   15.0780 S   0  0  0  0  0  0  0  0  0  0  0  0
   14.6934   16.2671   14.1911 O   0  0  0  0  0  0  0  0  0  0  0  0
   16.2090   14.3108   14.6954 O   0  0  0  0  0  0  0  0  0  0  0  0
   13.8044   14.2212   15.6138 C   0  0  0  0  0  0  0  0  0  0  0  0
   13.8981   12.8282   15.4916 C   0  0  0  0  0  0  0  0  0  0  0  0
   12.8387   12.0248   15.9170 C   0  0  0  0  0  0  0  0  0  0  0  0
   11.6920   12.6089   16.4574 C   0  0  0  0  0  0  0  0  0  0  0  0
   11.6021   13.9968   16.5689 C   0  0  0  0  0  0  0  0  0  0  0  0
   12.6582   14.8002   16.1423 C   0  0  0  0  0  0  0  0  0  0  0  0
   12.5296   16.1258   16.2725 F   0  0  0  0  0  0  0  0  0  0  0  0
   19.4210   13.8743   19.5859 H   0  0  0  0  0  0  0  0  0  0  0  0
   19.0552   16.2701   19.5338 H   0  0  0  0  0  0  0  0  0  0  0  0
   16.3187   13.3416   16.7967 H   0  0  0  0  0  0  0  0  0  0  0  0
   16.2327   10.8988   20.7568 H   0  0  0  0  0  0  0  0  0  0  0  0
   15.6920   12.0230   19.5333 H   0  0  0  0  0  0  0  0  0  0  0  0
   16.9367   12.4953   20.6650 H   0  0  0  0  0  0  0  0  0  0  0  0
   18.7375    7.4444   19.2343 H   0  0  0  0  0  0  0  0  0  0  0  0
   21.2039    7.6506   15.9836 H   0  0  0  0  0  0  0  0  0  0  0  0
   20.6759    9.9743   15.6623 H   0  0  0  0  0  0  0  0  0  0  0  0
   14.7458   12.3986   15.0893 H   0  0  0  0  0  0  0  0  0  0  0  0
   12.9034   10.9984   15.8319 H   0  0  0  0  0  0  0  0  0  0  0  0
   10.9105   12.0141   16.7745 H   0  0  0  0  0  0  0  0  0  0  0  0
   10.7536   14.4285   16.9673 H   0  0  0  0  0  0  0  0  0  0  0  0
  1  2  2  0
  2  3  1  0
  2 32  1  0
  3  4  2  0
  3 33  1  0
  4  5  1  0
  4  6  1  0
  6 20  1  0
  6  7  2  0
  7  1  1  0
  7 34  1  0
  8  9  1  0
  8 35  1  0
  8 36  1  0
  8 37  1  0
  9 10  2  0
 10 11  1  0
 11 12  2  0
 12 13  1  0
 12 38  1  0
 13 14  2  0
 14 15  1  0
 14 39  1  0
 15 16  2  0
 15 40  1  0
 16 17  1  0
 16 11  1  0
 17 18  2  0
 17 19  1  0
 19  1  1  0
 19  9  1  0
 20 22  1  0
 20 21  1  0
 22 23  2  0
 22 24  2  0
 22 25  1  0
 25 26  2  0
 26 27  1  0
 26 41  1  0
 27 28  2  0
 27 42  1  0
 28 29  1  0
 28 43  1  0
 29 30  2  0
 29 44  1  0
 30 31  1  0
 30 25  1  0
M  END
>  <minimizedAffinity>  (1) 
-9.43363

>  <mol_id>  (1) 
17646

>  <source_index>  (1) 
0

>  <layer>  (1) 
L4

>  <uniprot>  (1) 
Q9Y239

>  <paff>  (1) 
7.2923999999999998

>  <smiles>  (1) 
Cc1nc2cnccc2c(=O)n1-c1ccc(Cl)c(NS(=O)(=O)c2ccccc2F)c1

$$$$
L4:Q9Y239:21844
     RDKit          3D

 57 59  0  0  0  0  0  0  0  0999 V2000
    8.5586   14.0650   15.5911 C   0  0  0  0  0  0  0  0  0  0  0  0
    9.3028   12.9036   15.8214 C   0  0  0  0  0  0  0  0  0  0  0  0
   10.6544   12.9476   16.1366 C   0  0  0  0  0  0  0  0  0  0  0  0
   11.2869   14.1920   16.2412 C   0  0  0  0  0  0  0  0  0  0  0  0
   10.5394   15.3757   16.0053 C   0  0  0  0  0  0  0  0  0  0  0  0
    9.1820   15.3181   15.6863 C   0  0  0  0  0  0  0  0  0  0  0  0
   12.6567   14.1495   16.5746 C   0  0  0  0  0  0  0  0  0  0  0  0
   13.3137   12.9885   16.7495 N   0  0  0  0  0  0  0  0  0  0  0  0
   12.5986   11.8683   16.6225 C   0  0  0  0  0  0  0  0  0  0  0  0
   11.2971   11.7926   16.3287 N   0  0  0  0  0  0  0  0  0  0  0  0
    8.3893   16.4092   15.4413 O   0  0  0  0  0  0  0  0  0  0  0  0
    8.9677   17.6986   15.5844 C   0  0  0  0  0  0  0  0  0  0  0  0
   13.3600   15.3728   16.7404 N   0  0  0  0  0  0  0  0  0  0  0  0
   12.6970   16.1029   16.9988 H   0  0  0  0  0  0  0  0  0  0  0  0
   14.5983   15.5885   17.4014 C   0  0  0  0  0  0  0  0  0  0  0  0
   14.7603   15.3170   18.7706 C   0  0  0  0  0  0  0  0  0  0  0  0
   15.9988   15.4797   19.4067 C   0  0  0  0  0  0  0  0  0  0  0  0
   17.1027   15.8919   18.6442 C   0  0  0  0  0  0  0  0  0  0  0  0
   16.9754   16.1350   17.2771 C   0  0  0  0  0  0  0  0  0  0  0  0
   15.7345   15.9742   16.6640 C   0  0  0  0  0  0  0  0  0  0  0  0
   15.6147   16.2732   14.9625 Cl  0  0  0  0  0  0  0  0  0  0  0  0
   18.6633   16.1071   19.3588 Cl  0  0  0  0  0  0  0  0  0  0  0  0
   16.2219   15.2457   20.7390 O   0  0  0  0  0  0  0  0  0  0  0  0
   16.6897   13.9559   21.1122 C   0  0  0  0  0  0  0  0  0  0  0  0
    7.2211   14.0783   15.2902 O   0  0  0  0  0  0  0  0  0  0  0  0
    6.6076   12.8454   14.9175 C   0  0  0  0  0  0  0  0  0  0  0  0
    5.3807   12.5805   15.8144 C   0  0  0  0  0  0  0  0  0  0  0  0
    5.1551   13.4636   16.9802 N   0  0  0  0  0  0  0  0  0  0  0  0
    3.8411   15.1080   15.5942 C   0  0  0  0  0  0  0  0  0  0  0  0
    3.9343   14.2853   16.8755 C   0  0  0  0  0  0  0  0  0  0  0  0
    5.1665   12.7631   18.2757 C   0  0  0  0  0  0  0  0  0  0  0  0
    6.2015   11.6469   18.3706 C   0  0  0  0  0  0  0  0  0  0  0  0
    8.8336   11.9868   15.7551 H   0  0  0  0  0  0  0  0  0  0  0  0
   11.0072   16.2933   16.0708 H   0  0  0  0  0  0  0  0  0  0  0  0
   13.0981   10.9765   16.7647 H   0  0  0  0  0  0  0  0  0  0  0  0
    8.2342   18.4452   15.3622 H   0  0  0  0  0  0  0  0  0  0  0  0
    9.7922   17.7966   14.9094 H   0  0  0  0  0  0  0  0  0  0  0  0
    9.3125   17.8253   16.5894 H   0  0  0  0  0  0  0  0  0  0  0  0
   13.9498   14.9907   19.3198 H   0  0  0  0  0  0  0  0  0  0  0  0
   17.7942   16.4318   16.7235 H   0  0  0  0  0  0  0  0  0  0  0  0
   16.8187   13.9166   22.1737 H   0  0  0  0  0  0  0  0  0  0  0  0
   17.6262   13.7633   20.6317 H   0  0  0  0  0  0  0  0  0  0  0  0
   15.9763   13.2171   20.8121 H   0  0  0  0  0  0  0  0  0  0  0  0
    6.2956   12.8985   13.8954 H   0  0  0  0  0  0  0  0  0  0  0  0
    7.3122   12.0493   15.0383 H   0  0  0  0  0  0  0  0  0  0  0  0
    4.5132   12.6510   15.1920 H   0  0  0  0  0  0  0  0  0  0  0  0
    5.5738   11.6207   16.2461 H   0  0  0  0  0  0  0  0  0  0  0  0
    2.9316   15.6716   15.5976 H   0  0  0  0  0  0  0  0  0  0  0  0
    3.8516   14.4530   14.7482 H   0  0  0  0  0  0  0  0  0  0  0  0
    4.6747   15.7765   15.5381 H   0  0  0  0  0  0  0  0  0  0  0  0
    3.0867   13.6336   16.9180 H   0  0  0  0  0  0  0  0  0  0  0  0
    3.9629   14.9825   17.6867 H   0  0  0  0  0  0  0  0  0  0  0  0
    4.1979   12.3378   18.4363 H   0  0  0  0  0  0  0  0  0  0  0  0
    5.4269   13.4894   19.0171 H   0  0  0  0  0  0  0  0  0  0  0  0
    5.9809   10.8932   17.6439 H   0  0  0  0  0  0  0  0  0  0  0  0
    6.1737   11.2170   19.3501 H   0  0  0  0  0  0  0  0  0  0  0  0
    7.1761   12.0474   18.1844 H   0  0  0  0  0  0  0  0  0  0  0  0
  1  2  2  0
  2  3  1  0
  2 33  1  0
  3  4  2  0
  4  5  1  0
  4  7  1  0
  5  6  2  0
  5 34  1  0
  6 11  1  0
  6  1  1  0
  7  8  2  0
  7 13  1  0
  8  9  1  0
  9 10  2  0
  9 35  1  0
 10  3  1  0
 11 12  1  0
 12 36  1  0
 12 37  1  0
 12 38  1  0
 13 15  1  0
 13 14  1  0
 15 16  2  0
 16 17  1  0
 16 39  1  0
 17 18  2  0
 17 23  1  0
 18 19  1  0
 18 22  1  0
 19 20  2  0
 19 40  1  0
 20 21  1  0
 20 15  1  0
 23 24  1  0
 24 41  1  0
 24 42  1  0
 24 43  1  0
 25  1  1  0
 26 25  1  0
 26 44  1  0
 26 45  1  0
 27 26  1  0
 27 46  1  0
 27 47  1  0
 28 31  1  0
 28 27  1  0
 29 30  1  0
 29 48  1  0
 29 49  1  0
 29 50  1  0
 30 28  1  0
 30 51  1  0
 30 52  1  0
 31 32  1  0
 31 53  1  0
 31 54  1  0
 32 55  1  0
 32 56  1  0
 32 57  1  0
M  END
>  <minimizedAffinity>  (2) 
-7.31339

>  <mol_id>  (2) 
21844

>  <source_index>  (2) 
1

>  <layer>  (2) 
L4

>  <uniprot>  (2) 
Q9Y239

>  <paff>  (2) 
7.3768000000000002

>  <smiles>  (2) 
CCN(CC)CCOc1cc2c(cc1OC)c(ncn2)Nc3cc(c(cc3Cl)Cl)OC

$$$$
L4:Q9Y239:49132
     RDKit          3D

 45 48  0  0  0  0  0  0  0  0999 V2000
   17.8090   14.4821   18.7435 C   0  0  0  0  0  0  0  0  0  0  0  0
   18.6391   15.3774   19.4327 C   0  0  0  0  0  0  0  0  0  0  0  0
   18.5047   16.7559   19.2510 C   0  0  0  0  0  0  0  0  0  0  0  0
   17.5608   17.2502   18.3520 C   0  0  0  0  0  0  0  0  0  0  0  0
   17.4152   18.9601   18.1686 Cl  0  0  0  0  0  0  0  0  0  0  0  0
   16.7579   16.3672   17.6163 C   0  0  0  0  0  0  0  0  0  0  0  0
   16.8753   14.9883   17.8290 C   0  0  0  0  0  0  0  0  0  0  0  0
   19.2109   12.8838   16.9616 O   0  0  0  0  0  0  0  0  0  0  0  0
   18.6571   12.3734   17.9338 C   0  0  0  0  0  0  0  0  0  0  0  0
   18.6889   10.9074   18.0565 C   0  0  0  0  0  0  0  0  0  0  0  0
   19.3185   10.1136   17.0894 C   0  0  0  0  0  0  0  0  0  0  0  0
   19.3050    8.7294   17.2327 C   0  0  0  0  0  0  0  0  0  0  0  0
   20.0727    7.7397   16.0549 Cl  0  0  0  0  0  0  0  0  0  0  0  0
   18.6713    8.1404   18.3251 C   0  0  0  0  0  0  0  0  0  0  0  0
   18.0479    8.9458   19.2825 C   0  0  0  0  0  0  0  0  0  0  0  0
   18.0526   10.3369   19.1526 C   0  0  0  0  0  0  0  0  0  0  0  0
   17.4418   11.1045   20.1423 N   0  0  0  0  0  0  0  0  0  0  0  0
   17.4167   12.4032   20.0308 C   0  0  0  0  0  0  0  0  0  0  0  0
   17.9575   13.0715   18.9284 N   0  0  0  0  0  0  0  0  0  0  0  0
   16.8117   13.2165   21.1965 C   0  0  0  0  0  0  0  0  0  0  0  0
   15.8491   14.0922   20.7930 F   0  0  0  0  0  0  0  0  0  0  0  0
   16.2506   12.4227   22.1474 F   0  0  0  0  0  0  0  0  0  0  0  0
   17.7442   13.9734   21.8426 F   0  0  0  0  0  0  0  0  0  0  0  0
   15.8357   16.8602   16.6330 N   0  0  0  0  0  0  0  0  0  0  0  0
   15.9433   17.8448   16.3721 H   0  0  0  0  0  0  0  0  0  0  0  0
   15.5383   15.9173   15.2534 S   0  0  0  0  0  0  0  0  0  0  0  0
   15.0614   16.7891   14.1982 O   0  0  0  0  0  0  0  0  0  0  0  0
   16.7008   15.0828   15.0467 O   0  0  0  0  0  0  0  0  0  0  0  0
   14.1947   14.8846   15.7382 C   0  0  0  0  0  0  0  0  0  0  0  0
   13.1456   15.3962   16.5088 C   0  0  0  0  0  0  0  0  0  0  0  0
   12.0921   14.5575   16.8768 C   0  0  0  0  0  0  0  0  0  0  0  0
   12.0855   13.2213   16.4703 C   0  0  0  0  0  0  0  0  0  0  0  0
   13.1326   12.7212   15.6951 C   0  0  0  0  0  0  0  0  0  0  0  0
   14.1832   13.5578   15.3293 C   0  0  0  0  0  0  0  0  0  0  0  0
   15.1929   13.0441   14.6145 F   0  0  0  0  0  0  0  0  0  0  0  0
   19.3561   15.0146   20.0803 H   0  0  0  0  0  0  0  0  0  0  0  0
   19.1035   17.4077   19.7817 H   0  0  0  0  0  0  0  0  0  0  0  0
   16.2678   14.3377   17.3068 H   0  0  0  0  0  0  0  0  0  0  0  0
   19.7869   10.5501   16.2800 H   0  0  0  0  0  0  0  0  0  0  0  0
   18.6623    7.1135   18.4269 H   0  0  0  0  0  0  0  0  0  0  0  0
   17.5802    8.5092   20.0922 H   0  0  0  0  0  0  0  0  0  0  0  0
   13.1503   16.3854   16.8029 H   0  0  0  0  0  0  0  0  0  0  0  0
   11.3169   14.9254   17.4501 H   0  0  0  0  0  0  0  0  0  0  0  0
   11.3055   12.6032   16.7435 H   0  0  0  0  0  0  0  0  0  0  0  0
   13.1280   11.7341   15.3940 H   0  0  0  0  0  0  0  0  0  0  0  0
  1  2  2  0
  2  3  1  0
  2 36  1  0
  3  4  2  0
  3 37  1  0
  4  5  1  0
  4  6  1  0
  6 24  1  0
  6  7  2  0
  7  1  1  0
  7 38  1  0
  8  9  2  0
  9 10  1  0
 10 11  2  0
 11 12  1  0
 11 39  1  0
 12 13  1  0
 12 14  2  0
 14 15  1  0
 14 40  1  0
 15 16  2  0
 15 41  1  0
 16 17  1  0
 16 10  1  0
 17 18  2  0
 18 20  1  0
 18 19  1  0
 19  1  1  0
 19  9  1  0
 20 21  1  0
 20 22  1  0
 20 23  1  0
 24 26  1  0
 24 25  1  0
 26 27  2  0
 26 28  2  0
 26 29  1  0
 29 30  2  0
 30 31  1  0
 30 42  1  0
 31 32  2  0
 31 43  1  0
 32 33  1  0
 32 44  1  0
 33 34  2  0
 33 45  1  0
 34 35  1  0
 34 29  1  0
M  END
>  <minimizedAffinity>  (3) 
-11.04702

>  <mol_id>  (3) 
49132

>  <source_index>  (3) 
2

>  <layer>  (3) 
L4

>  <uniprot>  (3) 
Q9Y239

>  <paff>  (3) 
7.1675000000000004

>  <smiles>  (3) 
O=c1c2cc(Cl)ccc2nc(C(F)(F)F)n1-c1ccc(Cl)c(NS(=O)(=O)c2ccccc2F)c1

$$$$
L4:Q9Y239:77159
     RDKit          3D

 42 45  0  0  0  0  0  0  0  0999 V2000
   17.9304    4.0274   18.6389 C   0  0  0  0  0  0  0  0  0  0  0  0
   17.3586    4.5625   17.4767 C   0  0  0  0  0  0  0  0  0  0  0  0
   16.8284    3.7283   16.4771 C   0  0  0  0  0  0  0  0  0  0  0  0
   16.9028    2.3390   16.6619 C   0  0  0  0  0  0  0  0  0  0  0  0
   17.4552    1.7986   17.8278 C   0  0  0  0  0  0  0  0  0  0  0  0
   17.9561    2.6389   18.8220 C   0  0  0  0  0  0  0  0  0  0  0  0
   18.6338    1.9141   20.2340 Cl  0  0  0  0  0  0  0  0  0  0  0  0
   16.2617    4.2912   15.2828 N   0  0  0  0  0  0  0  0  0  0  0  0
   17.0477    4.6689   14.1924 C   0  0  0  0  0  0  0  0  0  0  0  0
   18.7397    4.3247   14.0880 Cl  0  0  0  0  0  0  0  0  0  0  0  0
   16.5857    5.2503   13.1299 N   0  0  0  0  0  0  0  0  0  0  0  0
   15.2176    5.5033   13.0439 C   0  0  0  0  0  0  0  0  0  0  0  0
   14.6790    6.1391   11.9320 C   0  0  0  0  0  0  0  0  0  0  0  0
   13.3607    6.4038   11.7669 N   0  0  0  0  0  0  0  0  0  0  0  0
   12.5371    6.0084   12.7575 C   0  0  0  0  0  0  0  0  0  0  0  0
   10.8805    6.3644   12.4991 Cl  0  0  0  0  0  0  0  0  0  0  0  0
   12.9577    5.3673   13.9043 C   0  0  0  0  0  0  0  0  0  0  0  0
   14.3259    5.1200   14.0318 C   0  0  0  0  0  0  0  0  0  0  0  0
   14.8726    4.4638   15.2311 C   0  0  0  0  0  0  0  0  0  0  0  0
   14.0755    4.1525   16.1157 O   0  0  0  0  0  0  0  0  0  0  0  0
   18.3752    4.9393   19.6637 N   0  0  0  0  0  0  0  0  0  0  0  0
   18.2378    4.5629   20.6062 H   0  0  0  0  0  0  0  0  0  0  0  0
   20.0206    5.3776   19.5537 S   0  0  0  0  0  0  0  0  0  0  0  0
   20.3017    6.0679   20.7930 O   0  0  0  0  0  0  0  0  0  0  0  0
   20.7910    4.2429   19.1006 O   0  0  0  0  0  0  0  0  0  0  0  0
   19.2224    7.7104   18.3588 C   0  0  0  0  0  0  0  0  0  0  0  0
   19.2696    8.6858   17.3507 C   0  0  0  0  0  0  0  0  0  0  0  0
   20.1520    8.5535   16.2757 C   0  0  0  0  0  0  0  0  0  0  0  0
   20.9887    7.4420   16.1945 C   0  0  0  0  0  0  0  0  0  0  0  0
   20.9524    6.4620   17.1874 C   0  0  0  0  0  0  0  0  0  0  0  0
   20.0770    6.6018   18.2730 C   0  0  0  0  0  0  0  0  0  0  0  0
   17.5027    8.0370   20.2762 N   0  0  0  0  0  0  0  0  0  0  0  0
   18.2887    7.8922   19.4346 C   0  0  0  0  0  0  0  0  0  0  0  0
   17.3262    5.5865   17.3526 H   0  0  0  0  0  0  0  0  0  0  0  0
   16.5452    1.7078   15.9279 H   0  0  0  0  0  0  0  0  0  0  0  0
   17.4923    0.7749   17.9528 H   0  0  0  0  0  0  0  0  0  0  0  0
   15.3262    6.4289   11.1822 H   0  0  0  0  0  0  0  0  0  0  0  0
   12.2892    5.0825   14.6371 H   0  0  0  0  0  0  0  0  0  0  0  0
   18.6474    9.5074   17.4040 H   0  0  0  0  0  0  0  0  0  0  0  0
   20.1842    9.2786   15.5420 H   0  0  0  0  0  0  0  0  0  0  0  0
   21.6371    7.3433   15.3977 H   0  0  0  0  0  0  0  0  0  0  0  0
   21.5685    5.6366   17.1225 H   0  0  0  0  0  0  0  0  0  0  0  0
  1  2  2  0
  2  3  1  0
  2 34  1  0
  3  8  1  0
  3  4  2  0
  4  5  1  0
  4 35  1  0
  5  6  2  0
  5 36  1  0
  6  7  1  0
  6  1  1  0
  8  9  1  0
  9 10  1  0
  9 11  2  0
 11 12  1  0
 12 13  2  0
 13 14  1  0
 13 37  1  0
 14 15  2  0
 15 16  1  0
 15 17  1  0
 17 18  2  0
 17 38  1  0
 18 19  1  0
 18 12  1  0
 19 20  2  0
 19  8  1  0
 21  1  1  0
 21 22  1  0
 23 24  2  0
 23 25  2  0
 23 21  1  0
 26 27  2  0
 27 28  1  0
 27 39  1  0
 28 29  2  0
 28 40  1  0
 29 30  1  0
 29 41  1  0
 30 31  2  0
 30 42  1  0
 31 23  1  0
 31 26  1  0
 32 33  3  0
 33 26  1  0
M  END
>  <minimizedAffinity>  (4) 
-7.31127

>  <mol_id>  (4) 
77159

>  <source_index>  (4) 
3

>  <layer>  (4) 
L4

>  <uniprot>  (4) 
Q9Y239

>  <paff>  (4) 
8.9207999999999998

>  <smiles>  (4) 
N#Cc1ccccc1S(=O)(=O)Nc1cc(-n2c(Cl)nc3cnc(Cl)cc3c2=O)ccc1Cl

$$$$
L4:Q9Y239:87531
     RDKit          3D

 50 54  0  0  0  0  0  0  0  0999 V2000
   17.9234   13.9754   18.5358 C   0  0  0  0  0  0  0  0  0  0  0  0
   18.7165   14.8491   19.2939 C   0  0  0  0  0  0  0  0  0  0  0  0
   18.5668   16.2332   19.1728 C   0  0  0  0  0  0  0  0  0  0  0  0
   17.6151   16.7558   18.2990 C   0  0  0  0  0  0  0  0  0  0  0  0
   17.4524   18.4721   18.1836 Cl  0  0  0  0  0  0  0  0  0  0  0  0
   16.7987   15.9002   17.5456 C   0  0  0  0  0  0  0  0  0  0  0  0
   16.9605   14.5164   17.6658 C   0  0  0  0  0  0  0  0  0  0  0  0
   19.6184    8.2480   17.0737 C   0  0  0  0  0  0  0  0  0  0  0  0
   18.9361    7.6353   18.1269 C   0  0  0  0  0  0  0  0  0  0  0  0
   18.2114    8.4226   19.0259 C   0  0  0  0  0  0  0  0  0  0  0  0
   18.1671    9.8129   18.8835 C   0  0  0  0  0  0  0  0  0  0  0  0
   17.4471   10.5597   19.8147 N   0  0  0  0  0  0  0  0  0  0  0  0
   17.4236   11.8492   19.7000 C   0  0  0  0  0  0  0  0  0  0  0  0
   16.5979   12.6341   21.0010 Cl  0  0  0  0  0  0  0  0  0  0  0  0
   18.0483   12.5552   18.6745 N   0  0  0  0  0  0  0  0  0  0  0  0
   18.7716   11.8699   17.6935 C   0  0  0  0  0  0  0  0  0  0  0  0
   19.2761   12.3800   16.6945 O   0  0  0  0  0  0  0  0  0  0  0  0
   18.8610   10.4062   17.8333 C   0  0  0  0  0  0  0  0  0  0  0  0
   19.5967    9.6361   16.9235 C   0  0  0  0  0  0  0  0  0  0  0  0
   21.5706    6.2564   16.9999 C   0  0  0  0  0  0  0  0  0  0  0  0
   20.5694    7.2642   15.9379 S   0  0  0  0  0  0  0  0  0  0  0  0
   19.6356    6.4070   15.2357 O   0  0  0  0  0  0  0  0  0  0  0  0
   21.4493    8.1620   15.2149 O   0  0  0  0  0  0  0  0  0  0  0  0
   15.8269   16.4522   16.6483 N   0  0  0  0  0  0  0  0  0  0  0  0
   14.9559   16.7777   17.0730 H   0  0  0  0  0  0  0  0  0  0  0  0
   15.5325   15.7104   15.1600 S   0  0  0  0  0  0  0  0  0  0  0  0
   16.6240   14.8117   14.8572 O   0  0  0  0  0  0  0  0  0  0  0  0
   15.1587   16.7711   14.2489 O   0  0  0  0  0  0  0  0  0  0  0  0
   14.0726   14.7400   15.4742 C   0  0  0  0  0  0  0  0  0  0  0  0
   14.1899   13.3542   15.5823 C   0  0  0  0  0  0  0  0  0  0  0  0
   13.0505   12.5758   15.8105 C   0  0  0  0  0  0  0  0  0  0  0  0
   11.7889   13.1942   15.9398 C   0  0  0  0  0  0  0  0  0  0  0  0
   10.5868   12.5422   16.1574 N   0  0  0  0  0  0  0  0  0  0  0  0
    9.6183   13.4253   16.2369 C   0  0  0  0  0  0  0  0  0  0  0  0
   10.0636   15.0666   16.0462 S   0  0  0  0  0  0  0  0  0  0  0  0
   11.7075   14.5869   15.8470 C   0  0  0  0  0  0  0  0  0  0  0  0
   12.8390   15.3872   15.6237 C   0  0  0  0  0  0  0  0  0  0  0  0
   19.4174   14.4661   19.9475 H   0  0  0  0  0  0  0  0  0  0  0  0
   19.1603   16.8677   19.7298 H   0  0  0  0  0  0  0  0  0  0  0  0
   16.3652   13.8839   17.1085 H   0  0  0  0  0  0  0  0  0  0  0  0
   18.9667    6.6100   18.2404 H   0  0  0  0  0  0  0  0  0  0  0  0
   17.7033    7.9729   19.8035 H   0  0  0  0  0  0  0  0  0  0  0  0
   20.1149   10.0878   16.1538 H   0  0  0  0  0  0  0  0  0  0  0  0
   22.1899    5.6176   16.4055 H   0  0  0  0  0  0  0  0  0  0  0  0
   20.9392    5.6601   17.6250 H   0  0  0  0  0  0  0  0  0  0  0  0
   22.1867    6.8835   17.6099 H   0  0  0  0  0  0  0  0  0  0  0  0
   15.1146   12.9047   15.4942 H   0  0  0  0  0  0  0  0  0  0  0  0
   13.1325   11.5497   15.8843 H   0  0  0  0  0  0  0  0  0  0  0  0
    8.6397   13.1443   16.4056 H   0  0  0  0  0  0  0  0  0  0  0  0
   12.7648   16.4152   15.5715 H   0  0  0  0  0  0  0  0  0  0  0  0
  1  2  2  0
  2  3  1  0
  2 38  1  0
  3  4  2  0
  3 39  1  0
  4  5  1  0
  4  6  1  0
  6 24  1  0
  6  7  2  0
  7  1  1  0
  7 40  1  0
  8  9  2  0
  9 10  1  0
  9 41  1  0
 10 11  2  0
 10 42  1  0
 11 12  1  0
 12 13  2  0
 13 14  1  0
 13 15  1  0
 15  1  1  0
 15 16  1  0
 16 17  2  0
 16 18  1  0
 18 19  2  0
 18 11  1  0
 19  8  1  0
 19 43  1  0
 20 21  1  0
 20 44  1  0
 20 45  1  0
 20 46  1  0
 21 22  2  0
 21 23  2  0
 21  8  1  0
 24 26  1  0
 24 25  1  0
 26 27  2  0
 26 28  2  0
 26 29  1  0
 29 30  2  0
 30 31  1  0
 30 47  1  0
 31 32  2  0
 31 48  1  0
 32 33  1  0
 33 34  2  0
 34 35  1  0
 34 49  1  0
 35 36  1  0
 36 37  2  0
 36 32  1  0
 37 29  1  0
 37 50  1  0
M  END
>  <minimizedAffinity>  (5) 
-11.42857

>  <mol_id>  (5) 
87531

>  <source_index>  (5) 
4

>  <layer>  (5) 
L4

>  <uniprot>  (5) 
Q9Y239

>  <paff>  (5) 
9.0457999999999998

>  <smiles>  (5) 
CS(=O)(=O)c1ccc2nc(Cl)n(-c3ccc(Cl)c(NS(=O)(=O)c4ccc5ncsc5c4)c3)c(=O)c2c1

$$$$
L4:Q9Y239:100708
     RDKit          3D

 37 39  0  0  0  0  0  0  0  0999 V2000
   16.7365   13.4355   18.1323 C   0  0  0  0  0  0  0  0  0  0  0  0
   15.4833   13.9358   17.7743 C   0  0  0  0  0  0  0  0  0  0  0  0
   15.3050   14.6781   16.5777 C   0  0  0  0  0  0  0  0  0  0  0  0
   16.4092   14.9269   15.7542 C   0  0  0  0  0  0  0  0  0  0  0  0
   17.6490   14.4171   16.1176 C   0  0  0  0  0  0  0  0  0  0  0  0
   17.8319   13.6717   17.2877 C   0  0  0  0  0  0  0  0  0  0  0  0
   16.3231   15.6365   14.6261 N   0  0  0  0  0  0  0  0  0  0  0  0
   15.1179   16.1192   14.3087 C   0  0  0  0  0  0  0  0  0  0  0  0
   13.9924   15.9489   15.0057 N   0  0  0  0  0  0  0  0  0  0  0  0
   14.0798   15.2167   16.1309 C   0  0  0  0  0  0  0  0  0  0  0  0
   17.0475   13.4023   20.5030 C   0  0  0  0  0  0  0  0  0  0  0  0
   16.9887   12.7067   19.2658 O   0  0  0  0  0  0  0  0  0  0  0  0
   19.0325   13.1443   17.6934 O   0  0  0  0  0  0  0  0  0  0  0  0
   19.5487   12.0380   16.9663 C   0  0  0  0  0  0  0  0  0  0  0  0
   12.9028   14.9551   16.8860 N   0  0  0  0  0  0  0  0  0  0  0  0
   13.1743   14.7276   17.8372 H   0  0  0  0  0  0  0  0  0  0  0  0
   11.7516   14.2300   16.4982 C   0  0  0  0  0  0  0  0  0  0  0  0
   11.7592   12.8297   16.6167 C   0  0  0  0  0  0  0  0  0  0  0  0
   10.6247   12.0715   16.3110 C   0  0  0  0  0  0  0  0  0  0  0  0
    9.4551   12.7064   15.9050 C   0  0  0  0  0  0  0  0  0  0  0  0
    9.4269   14.0913   15.8201 C   0  0  0  0  0  0  0  0  0  0  0  0
   10.5542   14.8535   16.1258 C   0  0  0  0  0  0  0  0  0  0  0  0
    8.2569   14.6802   15.4365 O   0  0  0  0  0  0  0  0  0  0  0  0
    8.4026   15.6399   15.3897 H   0  0  0  0  0  0  0  0  0  0  0  0
   14.6732   13.7631   18.3898 H   0  0  0  0  0  0  0  0  0  0  0  0
   18.4609   14.5936   15.5054 H   0  0  0  0  0  0  0  0  0  0  0  0
   15.0512   16.6764   13.4426 H   0  0  0  0  0  0  0  0  0  0  0  0
   17.2501   12.7092   21.2926 H   0  0  0  0  0  0  0  0  0  0  0  0
   16.1107   13.8863   20.6849 H   0  0  0  0  0  0  0  0  0  0  0  0
   17.8260   14.1353   20.4634 H   0  0  0  0  0  0  0  0  0  0  0  0
   20.4825   11.7356   17.3923 H   0  0  0  0  0  0  0  0  0  0  0  0
   19.6974   12.3205   15.9450 H   0  0  0  0  0  0  0  0  0  0  0  0
   18.8549   11.2248   17.0140 H   0  0  0  0  0  0  0  0  0  0  0  0
   12.6172   12.3525   16.9349 H   0  0  0  0  0  0  0  0  0  0  0  0
   10.6549   11.0427   16.3864 H   0  0  0  0  0  0  0  0  0  0  0  0
    8.6167   12.1528   15.6693 H   0  0  0  0  0  0  0  0  0  0  0  0
   10.5057   15.8832   16.0773 H   0  0  0  0  0  0  0  0  0  0  0  0
  1  2  2  0
  2  3  1  0
  2 25  1  0
  3  4  2  0
  4  5  1  0
  4  7  1  0
  5  6  2  0
  5 26  1  0
  6 13  1  0
  6  1  1  0
  7  8  2  0
  8  9  1  0
  8 27  1  0
  9 10  2  0
 10 15  1  0
 10  3  1  0
 11 12  1  0
 11 28  1  0
 11 29  1  0
 11 30  1  0
 12  1  1  0
 13 14  1  0
 14 31  1  0
 14 32  1  0
 14 33  1  0
 15 17  1  0
 15 16  1  0
 17 18  2  0
 18 19  1  0
 18 34  1  0
 19 20  2  0
 19 35  1  0
 20 21  1  0
 20 36  1  0
 21 22  2  0
 21 23  1  0
 22 17  1  0
 22 37  1  0
 23 24  1  0
M  END
>  <minimizedAffinity>  (6) 
-8.52005

>  <mol_id>  (6) 
100708

>  <source_index>  (6) 
5

>  <layer>  (6) 
L4

>  <uniprot>  (6) 
Q9Y239

>  <paff>  (6) 
6.8041

>  <smiles>  (6) 
COc1cc2c(cc1OC)ncnc2Nc3cccc(c3)O

$$$$
L4:Q9Y239:132103
     RDKit          3D

 54 56  0  0  0  0  0  0  0  0999 V2000
   11.9805   14.9741   17.5464 C   0  0  0  0  0  0  0  0  0  0  0  0
   11.2110   16.1237   17.3490 C   0  0  0  0  0  0  0  0  0  0  0  0
   10.1310   16.1537   16.4708 C   0  0  0  0  0  0  0  0  0  0  0  0
    9.4549   17.2992   16.3344 N   0  0  0  0  0  0  0  0  0  0  0  0
    8.4285   17.2937   15.4778 C   0  0  0  0  0  0  0  0  0  0  0  0
    8.0099   16.2542   14.7513 N   0  0  0  0  0  0  0  0  0  0  0  0
    8.6982   15.1060   14.8856 C   0  0  0  0  0  0  0  0  0  0  0  0
    9.7943   14.9916   15.7645 C   0  0  0  0  0  0  0  0  0  0  0  0
   10.5443   13.8118   15.9816 C   0  0  0  0  0  0  0  0  0  0  0  0
   11.6072   13.8030   16.8820 C   0  0  0  0  0  0  0  0  0  0  0  0
    8.3084   13.9719   14.1266 N   0  0  0  0  0  0  0  0  0  0  0  0
    8.5043   14.1408   13.1409 H   0  0  0  0  0  0  0  0  0  0  0  0
    7.1509   13.1643   14.2690 C   0  0  0  0  0  0  0  0  0  0  0  0
    6.4223   13.1193   15.4696 C   0  0  0  0  0  0  0  0  0  0  0  0
    5.3121   12.2773   15.6219 C   0  0  0  0  0  0  0  0  0  0  0  0
    4.9578   11.4246   14.5662 C   0  0  0  0  0  0  0  0  0  0  0  0
    3.6147   10.3425   14.6924 Cl  0  0  0  0  0  0  0  0  0  0  0  0
    5.6831   11.4271   13.3752 C   0  0  0  0  0  0  0  0  0  0  0  0
    6.7729   12.2847   13.2349 C   0  0  0  0  0  0  0  0  0  0  0  0
    7.6657   12.2387   11.7533 Cl  0  0  0  0  0  0  0  0  0  0  0  0
    4.5539   12.2061   16.7620 O   0  0  0  0  0  0  0  0  0  0  0  0
    5.0497   11.3916   17.8168 C   0  0  0  0  0  0  0  0  0  0  0  0
   13.0681   14.8947   18.3692 O   0  0  0  0  0  0  0  0  0  0  0  0
   14.2313   15.6767   18.0698 C   0  0  0  0  0  0  0  0  0  0  0  0
   15.5073   15.0699   18.6678 C   0  0  0  0  0  0  0  0  0  0  0  0
   17.6441   14.3489   17.9065 C   0  0  0  0  0  0  0  0  0  0  0  0
   16.6793   15.3928   17.9143 O   0  0  0  0  0  0  0  0  0  0  0  0
   12.3011   12.6264   16.9956 O   0  0  0  0  0  0  0  0  0  0  0  0
   12.9817   12.3010   15.7782 C   0  0  0  0  0  0  0  0  0  0  0  0
   14.3373   13.0096   15.7876 C   0  0  0  0  0  0  0  0  0  0  0  0
   14.3750   14.1595   14.9434 O   0  0  0  0  0  0  0  0  0  0  0  0
   15.6944   14.5409   14.5768 C   0  0  0  0  0  0  0  0  0  0  0  0
   11.4515   16.9801   17.8722 H   0  0  0  0  0  0  0  0  0  0  0  0
    7.9092   18.1787   15.3672 H   0  0  0  0  0  0  0  0  0  0  0  0
   10.3018   12.9500   15.4683 H   0  0  0  0  0  0  0  0  0  0  0  0
    6.7112   13.7200   16.2574 H   0  0  0  0  0  0  0  0  0  0  0  0
    5.4147   10.7979   12.6025 H   0  0  0  0  0  0  0  0  0  0  0  0
    4.3689   11.4228   18.6417 H   0  0  0  0  0  0  0  0  0  0  0  0
    6.0059   11.7560   18.1296 H   0  0  0  0  0  0  0  0  0  0  0  0
    5.1474   10.3831   17.4729 H   0  0  0  0  0  0  0  0  0  0  0  0
   14.3429   15.7355   17.0073 H   0  0  0  0  0  0  0  0  0  0  0  0
   14.0952   16.6463   18.5013 H   0  0  0  0  0  0  0  0  0  0  0  0
   15.6282   15.4410   19.6641 H   0  0  0  0  0  0  0  0  0  0  0  0
   15.3966   14.0058   18.6519 H   0  0  0  0  0  0  0  0  0  0  0  0
   18.4924   14.6516   17.3289 H   0  0  0  0  0  0  0  0  0  0  0  0
   17.2143   13.4692   17.4750 H   0  0  0  0  0  0  0  0  0  0  0  0
   17.9519   14.1402   18.9098 H   0  0  0  0  0  0  0  0  0  0  0  0
   12.4048   12.6328   14.9403 H   0  0  0  0  0  0  0  0  0  0  0  0
   13.1173   11.2424   15.7008 H   0  0  0  0  0  0  0  0  0  0  0  0
   15.0845   12.3192   15.4559 H   0  0  0  0  0  0  0  0  0  0  0  0
   14.5154   13.3433   16.7885 H   0  0  0  0  0  0  0  0  0  0  0  0
   15.6539   15.4050   13.9470 H   0  0  0  0  0  0  0  0  0  0  0  0
   16.1646   13.7371   14.0498 H   0  0  0  0  0  0  0  0  0  0  0  0
   16.2579   14.7677   15.4577 H   0  0  0  0  0  0  0  0  0  0  0  0
  1  2  2  0
  2  3  1  0
  2 33  1  0
  3  4  2  0
  4  5  1  0
  5  6  2  0
  5 34  1  0
  6  7  1  0
  7 11  1  0
  7  8  2  0
  8  9  1  0
  8  3  1  0
  9 10  2  0
  9 35  1  0
 10 28  1  0
 10  1  1  0
 11 13  1  0
 11 12  1  0
 13 14  2  0
 14 15  1  0
 14 36  1  0
 15 21  1  0
 15 16  2  0
 16 17  1  0
 16 18  1  0
 18 19  2  0
 18 37  1  0
 19 20  1  0
 19 13  1  0
 21 22  1  0
 22 38  1  0
 22 39  1  0
 22 40  1  0
 23  1  1  0
 24 23  1  0
 24 41  1  0
 24 42  1  0
 25 24  1  0
 25 43  1  0
 25 44  1  0
 26 27  1  0
 26 45  1  0
 26 46  1  0
 26 47  1  0
 27 25  1  0
 28 29  1  0
 29 30  1  0
 29 48  1  0
 29 49  1  0
 30 31  1  0
 30 50  1  0
 30 51  1  0
 31 32  1  0
 32 52  1  0
 32 53  1  0
 32 54  1  0
M  END
>  <minimizedAffinity>  (7) 
-5.82981

>  <mol_id>  (7) 
132103

>  <source_index>  (7) 
6

>  <layer>  (7) 
L4

>  <uniprot>  (7) 
Q9Y239

>  <paff>  (7) 
6.9957000000000003

>  <smiles>  (7) 
COCCOc1cc2ncnc(Nc3cc(OC)c(Cl)cc3Cl)c2cc1OCCOC

$$$$
L4:Q9Y239:136815
     RDKit          3D

 41 44  0  0  0  0  0  0  0  0999 V2000
   12.8766   14.4995   16.7868 C   0  0  0  0  0  0  0  0  0  0  0  0
   11.7971   14.3959   15.9042 C   0  0  0  0  0  0  0  0  0  0  0  0
   10.5800   15.0444   16.1765 C   0  0  0  0  0  0  0  0  0  0  0  0
   10.4580   15.7945   17.3549 C   0  0  0  0  0  0  0  0  0  0  0  0
   11.5339   15.9062   18.2393 C   0  0  0  0  0  0  0  0  0  0  0  0
   12.7384   15.2648   17.9538 C   0  0  0  0  0  0  0  0  0  0  0  0
   14.0454   15.4204   19.0729 Cl  0  0  0  0  0  0  0  0  0  0  0  0
    9.4761   14.8966   15.2784 N   0  0  0  0  0  0  0  0  0  0  0  0
    8.7789   13.6973   15.1497 C   0  0  0  0  0  0  0  0  0  0  0  0
    9.0835   12.3316   16.1635 Cl  0  0  0  0  0  0  0  0  0  0  0  0
    7.8102   13.5090   14.3108 N   0  0  0  0  0  0  0  0  0  0  0  0
    7.4106   14.5720   13.5006 C   0  0  0  0  0  0  0  0  0  0  0  0
    6.3612   14.4280   12.6030 C   0  0  0  0  0  0  0  0  0  0  0  0
    5.9081   15.4144   11.7926 N   0  0  0  0  0  0  0  0  0  0  0  0
    6.5300   16.6067   11.8853 C   0  0  0  0  0  0  0  0  0  0  0  0
    5.9204   17.8175   10.8385 Cl  0  0  0  0  0  0  0  0  0  0  0  0
    7.5807   16.8673   12.7386 C   0  0  0  0  0  0  0  0  0  0  0  0
    8.0136   15.8192   13.5519 C   0  0  0  0  0  0  0  0  0  0  0  0
    9.1451   15.9924   14.4754 C   0  0  0  0  0  0  0  0  0  0  0  0
    9.7578   17.0578   14.4352 O   0  0  0  0  0  0  0  0  0  0  0  0
   14.1339   13.8679   16.4933 N   0  0  0  0  0  0  0  0  0  0  0  0
   14.0467   12.9442   16.0615 H   0  0  0  0  0  0  0  0  0  0  0  0
   15.3091   14.7620   15.6697 S   0  0  0  0  0  0  0  0  0  0  0  0
   14.6428   15.9411   15.1627 O   0  0  0  0  0  0  0  0  0  0  0  0
   16.0745   13.8849   14.8125 O   0  0  0  0  0  0  0  0  0  0  0  0
   18.3340   17.7364   18.7247 C   0  0  0  0  0  0  0  0  0  0  0  0
   17.7014   16.6209   18.0637 N   0  0  0  0  0  0  0  0  0  0  0  0
   16.7169   16.6765   17.1238 C   0  0  0  0  0  0  0  0  0  0  0  0
   16.4323   15.3658   16.8099 C   0  0  0  0  0  0  0  0  0  0  0  0
   17.2959   14.5986   17.6026 C   0  0  0  0  0  0  0  0  0  0  0  0
   18.0917   15.3638   18.3585 N   0  0  0  0  0  0  0  0  0  0  0  0
   11.8951   13.8366   15.0425 H   0  0  0  0  0  0  0  0  0  0  0  0
    9.5666   16.2677   17.5706 H   0  0  0  0  0  0  0  0  0  0  0  0
   11.4371   16.4629   19.1029 H   0  0  0  0  0  0  0  0  0  0  0  0
    5.8955   13.5086   12.5497 H   0  0  0  0  0  0  0  0  0  0  0  0
    8.0276   17.7968   12.7744 H   0  0  0  0  0  0  0  0  0  0  0  0
   17.9037   18.6505   18.3723 H   0  0  0  0  0  0  0  0  0  0  0  0
   19.3824   17.7299   18.5108 H   0  0  0  0  0  0  0  0  0  0  0  0
   18.1851   17.6561   19.7812 H   0  0  0  0  0  0  0  0  0  0  0  0
   16.2768   17.5227   16.7298 H   0  0  0  0  0  0  0  0  0  0  0  0
   17.3159   13.5668   17.6034 H   0  0  0  0  0  0  0  0  0  0  0  0
  1  2  2  0
  2  3  1  0
  2 32  1  0
  3  8  1  0
  3  4  2  0
  4  5  1  0
  4 33  1  0
  5  6  2  0
  5 34  1  0
  6  7  1  0
  6  1  1  0
  8  9  1  0
  9 10  1  0
  9 11  2  0
 11 12  1  0
 12 13  2  0
 13 14  1  0
 13 35  1  0
 14 15  2  0
 15 16  1  0
 15 17  1  0
 17 18  2  0
 17 36  1  0
 18 19  1  0
 18 12  1  0
 19 20  2  0
 19  8  1  0
 21  1  1  0
 21 22  1  0
 23 24  2  0
 23 25  2  0
 23 21  1  0
 26 27  1  0
 26 37  1  0
 26 38  1  0
 26 39  1  0
 27 28  1  0
 28 29  2  0
 28 40  1  0
 29 23  1  0
 29 30  1  0
 30 31  2  0
 30 41  1  0
 31 27  1  0
M  END
>  <minimizedAffinity>  (8) 
-8.30962

>  <mol_id>  (8) 
136815

>  <source_index>  (8) 
7

>  <layer>  (8) 
L4

>  <uniprot>  (8) 
Q9Y239

>  <paff>  (8) 
8.5085999999999995

>  <smiles>  (8) 
Cn1cc(S(=O)(=O)Nc2cc(-n3c(Cl)nc4cnc(Cl)cc4c3=O)ccc2Cl)cn1

$$$$
L4:Q9Y239:144318
     RDKit          3D

 48 51  0  0  0  0  0  0  0  0999 V2000
   17.1950   15.1464   20.8804 C   0  0  0  0  0  0  0  0  0  0  0  0
   16.7755   14.9716   19.5037 N   0  0  0  0  0  0  0  0  0  0  0  0
   17.6635   14.5066   18.5419 C   0  0  0  0  0  0  0  0  0  0  0  0
   18.8400   14.2225   18.7668 O   0  0  0  0  0  0  0  0  0  0  0  0
   17.1772   14.3602   17.2559 N   0  0  0  0  0  0  0  0  0  0  0  0
   15.8956   14.6023   16.8143 C   0  0  0  0  0  0  0  0  0  0  0  0
   15.5630   14.4071   15.6511 O   0  0  0  0  0  0  0  0  0  0  0  0
   15.0413   15.0790   17.8471 C   0  0  0  0  0  0  0  0  0  0  0  0
   15.4785   15.2471   19.1283 C   0  0  0  0  0  0  0  0  0  0  0  0
   14.4964   15.7064   19.9413 N   0  0  0  0  0  0  0  0  0  0  0  0
   13.4186   15.7910   19.1771 C   0  0  0  0  0  0  0  0  0  0  0  0
   13.7219   15.4558   17.8642 N   0  0  0  0  0  0  0  0  0  0  0  0
   17.8333   14.0123   16.5750 H   0  0  0  0  0  0  0  0  0  0  0  0
   12.0679   16.2125   19.6696 C   0  0  0  0  0  0  0  0  0  0  0  0
   12.1081   16.9531   21.0109 C   0  0  0  0  0  0  0  0  0  0  0  0
   10.5589   16.9247   21.9875 S   0  0  0  0  0  0  0  0  0  0  0  0
   10.6464   18.5319   22.7486 C   0  0  0  0  0  0  0  0  0  0  0  0
   11.8435   19.2533   22.7589 C   0  0  0  0  0  0  0  0  0  0  0  0
   11.8982   20.5142   23.3566 C   0  0  0  0  0  0  0  0  0  0  0  0
   10.7558   21.0593   23.9420 C   0  0  0  0  0  0  0  0  0  0  0  0
    9.5576   20.3467   23.9270 C   0  0  0  0  0  0  0  0  0  0  0  0
    9.5020   19.0871   23.3278 C   0  0  0  0  0  0  0  0  0  0  0  0
   12.8481   15.5765   16.7031 C   0  0  0  0  0  0  0  0  0  0  0  0
   11.9336   14.3901   16.5306 C   0  0  0  0  0  0  0  0  0  0  0  0
   10.5936   14.5811   16.1569 C   0  0  0  0  0  0  0  0  0  0  0  0
    9.7397   13.4896   15.9892 C   0  0  0  0  0  0  0  0  0  0  0  0
   10.2164   12.1951   16.1813 C   0  0  0  0  0  0  0  0  0  0  0  0
   11.5487   11.9899   16.5322 C   0  0  0  0  0  0  0  0  0  0  0  0
   12.4048   13.0795   16.6993 C   0  0  0  0  0  0  0  0  0  0  0  0
   18.2280   14.8839   20.9745 H   0  0  0  0  0  0  0  0  0  0  0  0
   16.6076   14.5162   21.5150 H   0  0  0  0  0  0  0  0  0  0  0  0
   17.0590   16.1681   21.1677 H   0  0  0  0  0  0  0  0  0  0  0  0
   11.4614   15.3384   19.7838 H   0  0  0  0  0  0  0  0  0  0  0  0
   11.6685   16.8931   18.9470 H   0  0  0  0  0  0  0  0  0  0  0  0
   12.3523   17.9760   20.8134 H   0  0  0  0  0  0  0  0  0  0  0  0
   12.8339   16.4376   21.6045 H   0  0  0  0  0  0  0  0  0  0  0  0
   12.6893   18.8530   22.3236 H   0  0  0  0  0  0  0  0  0  0  0  0
   12.7844   21.0429   23.3651 H   0  0  0  0  0  0  0  0  0  0  0  0
   10.7974   21.9899   24.3862 H   0  0  0  0  0  0  0  0  0  0  0  0
    8.7117   20.7504   24.3589 H   0  0  0  0  0  0  0  0  0  0  0  0
    8.6126   18.5639   23.3124 H   0  0  0  0  0  0  0  0  0  0  0  0
   13.4554   15.6696   15.8271 H   0  0  0  0  0  0  0  0  0  0  0  0
   12.2314   16.4378   16.8537 H   0  0  0  0  0  0  0  0  0  0  0  0
   10.2367   15.5374   16.0048 H   0  0  0  0  0  0  0  0  0  0  0  0
    8.7544   13.6420   15.7227 H   0  0  0  0  0  0  0  0  0  0  0  0
    9.5832   11.3887   16.0638 H   0  0  0  0  0  0  0  0  0  0  0  0
   11.9034   11.0305   16.6689 H   0  0  0  0  0  0  0  0  0  0  0  0
   13.3932   12.9196   16.9492 H   0  0  0  0  0  0  0  0  0  0  0  0
  1  2  1  0
  1 30  1  0
  1 31  1  0
  1 32  1  0
  2  3  1  0
  3  4  2  0
  3  5  1  0
  5  6  1  0
  5 13  1  0
  6  7  2  0
  6  8  1  0
  8  9  2  0
  9 10  1  0
  9  2  1  0
 10 11  2  0
 11 14  1  0
 11 12  1  0
 12 23  1  0
 12  8  1  0
 14 15  1  0
 14 33  1  0
 14 34  1  0
 15 16  1  0
 15 35  1  0
 15 36  1  0
 16 17  1  0
 17 18  2  0
 18 19  1  0
 18 37  1  0
 19 20  2  0
 19 38  1  0
 20 21  1  0
 20 39  1  0
 21 22  2  0
 21 40  1  0
 22 17  1  0
 22 41  1  0
 23 24  1  0
 23 42  1  0
 23 43  1  0
 24 25  2  0
 25 26  1  0
 25 44  1  0
 26 27  2  0
 26 45  1  0
 27 28  1  0
 27 46  1  0
 28 29  2  0
 28 47  1  0
 29 24  1  0
 29 48  1  0
M  END
>  <minimizedAffinity>  (9) 
-8.79268

>  <mol_id>  (9) 
144318

>  <source_index>  (9) 
8

>  <layer>  (9) 
L4

>  <uniprot>  (9) 
Q9Y239

>  <paff>  (9) 
6.2218

>  <smiles>  (9) 
Cn1c(=O)[nH]c(=O)c2c1nc(CCSc1ccccc1)n2Cc1ccccc1

$$$$
L4:Q9Y239:145351
     RDKit          3D

 46 49  0  0  0  0  0  0  0  0999 V2000
   18.9475    6.0635   18.1100 C   0  0  0  0  0  0  0  0  0  0  0  0
   19.3945    5.5087   19.3170 C   0  0  0  0  0  0  0  0  0  0  0  0
   19.1278    4.1725   19.6223 C   0  0  0  0  0  0  0  0  0  0  0  0
   18.4301    3.3768   18.7132 C   0  0  0  0  0  0  0  0  0  0  0  0
   18.1211    1.7293   19.1340 Cl  0  0  0  0  0  0  0  0  0  0  0  0
   18.0069    3.9023   17.4827 C   0  0  0  0  0  0  0  0  0  0  0  0
   18.2547    5.2486   17.1988 C   0  0  0  0  0  0  0  0  0  0  0  0
   20.1252    7.7923   16.7526 C   0  0  0  0  0  0  0  0  0  0  0  0
   20.3241    9.0141   16.3747 N   0  0  0  0  0  0  0  0  0  0  0  0
   19.6494   10.0440   17.0279 C   0  0  0  0  0  0  0  0  0  0  0  0
   19.8734   11.3608   16.6177 C   0  0  0  0  0  0  0  0  0  0  0  0
   19.2319   12.4240   17.2594 C   0  0  0  0  0  0  0  0  0  0  0  0
   18.3628   12.1695   18.3188 C   0  0  0  0  0  0  0  0  0  0  0  0
   17.5725   13.4768   19.1074 Cl  0  0  0  0  0  0  0  0  0  0  0  0
   18.1297   10.8636   18.7392 C   0  0  0  0  0  0  0  0  0  0  0  0
   18.7793    9.8080   18.0866 C   0  0  0  0  0  0  0  0  0  0  0  0
   18.5417    8.4097   18.4820 C   0  0  0  0  0  0  0  0  0  0  0  0
   17.7146    8.1988   19.3687 O   0  0  0  0  0  0  0  0  0  0  0  0
   19.2401    7.4248   17.7703 N   0  0  0  0  0  0  0  0  0  0  0  0
   22.3909    6.2757   17.2031 C   0  0  0  0  0  0  0  0  0  0  0  0
   21.0989    6.5453   15.9716 S   0  0  0  0  0  0  0  0  0  0  0  0
   17.2764    3.0707   16.5677 N   0  0  0  0  0  0  0  0  0  0  0  0
   17.6876    2.9642   15.6361 H   0  0  0  0  0  0  0  0  0  0  0  0
   15.5941    3.1965   16.4578 S   0  0  0  0  0  0  0  0  0  0  0  0
   15.0955    1.8780   16.1310 O   0  0  0  0  0  0  0  0  0  0  0  0
   15.1070    3.8901   17.6324 O   0  0  0  0  0  0  0  0  0  0  0  0
   15.3434    4.2366   15.0588 C   0  0  0  0  0  0  0  0  0  0  0  0
   16.3914    4.5090   14.1751 C   0  0  0  0  0  0  0  0  0  0  0  0
   16.1623    5.3346   13.0731 C   0  0  0  0  0  0  0  0  0  0  0  0
   14.8974    5.8879   12.8619 C   0  0  0  0  0  0  0  0  0  0  0  0
   13.8572    5.6124   13.7507 C   0  0  0  0  0  0  0  0  0  0  0  0
   14.0861    4.7867   14.8478 C   0  0  0  0  0  0  0  0  0  0  0  0
   13.0633    4.5115   15.6680 F   0  0  0  0  0  0  0  0  0  0  0  0
   19.9240    6.0913   19.9842 H   0  0  0  0  0  0  0  0  0  0  0  0
   19.4464    3.7740   20.5194 H   0  0  0  0  0  0  0  0  0  0  0  0
   17.9241    5.6496   16.3072 H   0  0  0  0  0  0  0  0  0  0  0  0
   20.5180   11.5500   15.8343 H   0  0  0  0  0  0  0  0  0  0  0  0
   19.4012   13.3938   16.9499 H   0  0  0  0  0  0  0  0  0  0  0  0
   17.4854   10.6749   19.5230 H   0  0  0  0  0  0  0  0  0  0  0  0
   23.0679    5.5255   16.8514 H   0  0  0  0  0  0  0  0  0  0  0  0
   21.9466    5.9529   18.1214 H   0  0  0  0  0  0  0  0  0  0  0  0
   22.9240    7.1889   17.3665 H   0  0  0  0  0  0  0  0  0  0  0  0
   17.3266    4.1032   14.3359 H   0  0  0  0  0  0  0  0  0  0  0  0
   16.9293    5.5366   12.4129 H   0  0  0  0  0  0  0  0  0  0  0  0
   14.7318    6.5007   12.0482 H   0  0  0  0  0  0  0  0  0  0  0  0
   12.9217    6.0194   13.5951 H   0  0  0  0  0  0  0  0  0  0  0  0
  1  2  2  0
  2  3  1  0
  2 34  1  0
  3  4  2  0
  3 35  1  0
  4  5  1  0
  4  6  1  0
  6 22  1  0
  6  7  2  0
  7  1  1  0
  7 36  1  0
  8  9  2  0
  9 10  1  0
 10 11  2  0
 11 12  1  0
 11 37  1  0
 12 13  2  0
 12 38  1  0
 13 14  1  0
 13 15  1  0
 15 16  2  0
 15 39  1  0
 16 17  1  0
 16 10  1  0
 17 18  2  0
 17 19  1  0
 19  1  1  0
 19  8  1  0
 20 21  1  0
 20 40  1  0
 20 41  1  0
 20 42  1  0
 21  8  1  0
 22 24  1  0
 22 23  1  0
 24 25  2  0
 24 26  2  0
 24 27  1  0
 27 28  2  0
 28 29  1  0
 28 43  1  0
 29 30  2  0
 29 44  1  0
 30 31  1  0
 30 45  1  0
 31 32  2  0
 31 46  1  0
 32 33  1  0
 32 27  1  0
M  END
>  <minimizedAffinity>  (10) 
-8.16998

>  <mol_id>  (10) 
145351

>  <source_index>  (10) 
9

>  <layer>  (10) 
L4

>  <uniprot>  (10) 
Q9Y239

>  <paff>  (10) 
7.0914999999999999

>  <smiles>  (10) 
CSc1nc2ccc(Cl)cc2c(=O)n1-c1ccc(Cl)c(NS(=O)(=O)c2ccccc2F)c1

$$$$
