L3:P40879:14931
     RDKit          3D

 43 45  0  0  0  0  0  0  0  0999 V2000
  123.2425   92.5649  120.3932 C   0  0  0  0  0  0  0  0  0  0  0  0
  123.3508   92.1045  121.8248 C   0  0  0  0  0  0  0  0  0  0  0  0
  123.3424   90.8070  122.2025 C   0  0  0  0  0  0  0  0  0  0  0  0
  123.5208   90.4036  123.6265 C   0  0  0  0  0  0  0  0  0  0  0  0
  123.5139   89.2228  123.9601 O   0  0  0  0  0  0  0  0  0  0  0  0
  123.6839   91.4085  124.5583 O   0  0  0  0  0  0  0  0  0  0  0  0
  123.6656   92.7612  124.1887 C   0  0  0  0  0  0  0  0  0  0  0  0
  123.8149   93.6974  125.2138 C   0  0  0  0  0  0  0  0  0  0  0  0
  123.9720   93.2726  126.4779 F   0  0  0  0  0  0  0  0  0  0  0  0
  123.8030   95.0653  124.9395 C   0  0  0  0  0  0  0  0  0  0  0  0
  123.6336   95.4740  123.6174 C   0  0  0  0  0  0  0  0  0  0  0  0
  123.4838   94.5234  122.5932 C   0  0  0  0  0  0  0  0  0  0  0  0
  123.5013   93.1459  122.8622 C   0  0  0  0  0  0  0  0  0  0  0  0
  123.1666   89.6175  121.2852 C   0  0  0  0  0  0  0  0  0  0  0  0
  124.5124   89.0241  120.9349 C   0  0  0  0  0  0  0  0  0  0  0  0
  125.6099   89.5378  121.0779 O   0  0  0  0  0  0  0  0  0  0  0  0
  124.3968   87.8150  120.3480 O   0  0  0  0  0  0  0  0  0  0  0  0
  125.3239   87.5332  120.1983 H   0  0  0  0  0  0  0  0  0  0  0  0
  123.9538   95.8907  126.0186 O   0  0  0  0  0  0  0  0  0  0  0  0
  122.8028   96.5986  126.4765 C   0  0  0  0  0  0  0  0  0  0  0  0
  123.1756   98.0374  126.7560 C   0  0  0  0  0  0  0  0  0  0  0  0
  124.0326   98.3530  127.8192 C   0  0  0  0  0  0  0  0  0  0  0  0
  124.3576   99.6807  128.0993 C   0  0  0  0  0  0  0  0  0  0  0  0
  123.8210  100.7105  127.3272 C   0  0  0  0  0  0  0  0  0  0  0  0
  122.9443  100.4245  126.2706 C   0  0  0  0  0  0  0  0  0  0  0  0
  122.6314   99.0834  125.9927 C   0  0  0  0  0  0  0  0  0  0  0  0
  122.3765  101.5357  125.4222 C   0  0  0  0  0  0  0  0  0  0  0  0
  122.9760  102.7392  125.6428 F   0  0  0  0  0  0  0  0  0  0  0  0
  122.5036  101.3021  124.0848 F   0  0  0  0  0  0  0  0  0  0  0  0
  121.0475  101.7317  125.6407 F   0  0  0  0  0  0  0  0  0  0  0  0
  123.1387   91.7146  119.7520 H   0  0  0  0  0  0  0  0  0  0  0  0
  124.1247   93.1079  120.1255 H   0  0  0  0  0  0  0  0  0  0  0  0
  122.3872   93.1989  120.2862 H   0  0  0  0  0  0  0  0  0  0  0  0
  123.6181   96.4804  123.3895 H   0  0  0  0  0  0  0  0  0  0  0  0
  123.3580   94.8456  121.6209 H   0  0  0  0  0  0  0  0  0  0  0  0
  122.6751   89.9324  120.3885 H   0  0  0  0  0  0  0  0  0  0  0  0
  122.5777   88.8763  121.7839 H   0  0  0  0  0  0  0  0  0  0  0  0
  122.4376   96.1438  127.3735 H   0  0  0  0  0  0  0  0  0  0  0  0
  122.0414   96.5663  125.7254 H   0  0  0  0  0  0  0  0  0  0  0  0
  124.4268   97.5966  128.4001 H   0  0  0  0  0  0  0  0  0  0  0  0
  124.9963   99.9010  128.8794 H   0  0  0  0  0  0  0  0  0  0  0  0
  124.0708  101.6901  127.5348 H   0  0  0  0  0  0  0  0  0  0  0  0
  121.9907   98.8630  125.2143 H   0  0  0  0  0  0  0  0  0  0  0  0
  1  2  1  0
  1 31  1  0
  1 32  1  0
  1 33  1  0
  2  3  2  0
  3 14  1  0
  3  4  1  0
  4  5  2  0
  4  6  1  0
  6  7  1  0
  7  8  2  0
  8  9  1  0
  8 10  1  0
 10 19  1  0
 10 11  2  0
 11 12  1  0
 11 34  1  0
 12 13  2  0
 12 35  1  0
 13  2  1  0
 13  7  1  0
 14 15  1  0
 14 36  1  0
 14 37  1  0
 15 16  2  0
 15 17  1  0
 17 18  1  0
 19 20  1  0
 20 21  1  0
 20 38  1  0
 20 39  1  0
 21 22  2  0
 22 23  1  0
 22 40  1  0
 23 24  2  0
 23 41  1  0
 24 25  1  0
 24 42  1  0
 25 27  1  0
 25 26  2  0
 26 21  1  0
 26 43  1  0
 27 28  1  0
 27 29  1  0
 27 30  1  0
M  END
>  <minimizedAffinity>  (1) 
-9.45398

>  <mol_id>  (1) 
14931

>  <source_index>  (1) 
0

>  <layer>  (1) 
L3

>  <uniprot>  (1) 
P40879

>  <paff>  (1) 
7.0605000000000002

>  <smiles>  (1) 
Cc1c(CC(=O)O)c(=O)oc2c(F)c(OCc3cccc(C(F)(F)F)c3)ccc12

$$$$
L3:P40879:35122
     RDKit          3D

 46 48  0  0  0  0  0  0  0  0999 V2000
  122.3876   92.4857  120.4911 C   0  0  0  0  0  0  0  0  0  0  0  0
  123.3783   92.1842  121.5874 C   0  0  0  0  0  0  0  0  0  0  0  0
  124.1339   91.0652  121.6286 C   0  0  0  0  0  0  0  0  0  0  0  0
  125.1490   90.8495  122.6952 C   0  0  0  0  0  0  0  0  0  0  0  0
  125.8365   89.8335  122.7299 O   0  0  0  0  0  0  0  0  0  0  0  0
  125.2834   91.8350  123.6518 O   0  0  0  0  0  0  0  0  0  0  0  0
  124.4913   92.9989  123.6526 C   0  0  0  0  0  0  0  0  0  0  0  0
  124.7100   93.9194  124.6970 C   0  0  0  0  0  0  0  0  0  0  0  0
  125.7390   93.6432  125.7618 C   0  0  0  0  0  0  0  0  0  0  0  0
  123.9061   95.0690  124.7596 C   0  0  0  0  0  0  0  0  0  0  0  0
  122.9403   95.2824  123.7743 C   0  0  0  0  0  0  0  0  0  0  0  0
  122.7615   94.3581  122.7357 C   0  0  0  0  0  0  0  0  0  0  0  0
  123.5361   93.1949  122.6555 C   0  0  0  0  0  0  0  0  0  0  0  0
  124.0743   89.9171  120.6473 C   0  0  0  0  0  0  0  0  0  0  0  0
  123.1968   88.8104  121.1858 C   0  0  0  0  0  0  0  0  0  0  0  0
  121.9893   88.8366  121.3596 O   0  0  0  0  0  0  0  0  0  0  0  0
  123.9131   87.7273  121.5503 O   0  0  0  0  0  0  0  0  0  0  0  0
  123.2364   87.0892  121.8613 H   0  0  0  0  0  0  0  0  0  0  0  0
  124.1349   95.9028  125.8210 O   0  0  0  0  0  0  0  0  0  0  0  0
  123.0070   96.3886  126.5432 C   0  0  0  0  0  0  0  0  0  0  0  0
  123.2256   97.8584  126.8058 C   0  0  0  0  0  0  0  0  0  0  0  0
  124.2423   98.2822  127.6714 C   0  0  0  0  0  0  0  0  0  0  0  0
  124.4333   99.6398  127.9273 C   0  0  0  0  0  0  0  0  0  0  0  0
  123.6043  100.5878  127.3282 C   0  0  0  0  0  0  0  0  0  0  0  0
  122.5743  100.1875  126.4665 C   0  0  0  0  0  0  0  0  0  0  0  0
  122.3868   98.8184  126.2200 C   0  0  0  0  0  0  0  0  0  0  0  0
  121.6466  101.2065  125.8581 C   0  0  0  0  0  0  0  0  0  0  0  0
  121.5614  102.3557  126.5864 F   0  0  0  0  0  0  0  0  0  0  0  0
  122.0251  101.5925  124.6065 F   0  0  0  0  0  0  0  0  0  0  0  0
  122.3741   91.6772  119.7904 H   0  0  0  0  0  0  0  0  0  0  0  0
  122.6732   93.3871  119.9902 H   0  0  0  0  0  0  0  0  0  0  0  0
  121.4126   92.6068  120.9149 H   0  0  0  0  0  0  0  0  0  0  0  0
  126.2457   92.7274  125.5392 H   0  0  0  0  0  0  0  0  0  0  0  0
  125.2552   93.5611  126.7126 H   0  0  0  0  0  0  0  0  0  0  0  0
  126.4471   94.4449  125.7900 H   0  0  0  0  0  0  0  0  0  0  0  0
  122.3519   96.1294  123.8110 H   0  0  0  0  0  0  0  0  0  0  0  0
  122.0445   94.5388  122.0158 H   0  0  0  0  0  0  0  0  0  0  0  0
  125.0620   89.5380  120.4874 H   0  0  0  0  0  0  0  0  0  0  0  0
  123.6626   90.2694  119.7247 H   0  0  0  0  0  0  0  0  0  0  0  0
  122.9146   95.8629  127.4706 H   0  0  0  0  0  0  0  0  0  0  0  0
  122.1097   96.2390  125.9798 H   0  0  0  0  0  0  0  0  0  0  0  0
  124.8544   97.5847  128.1230 H   0  0  0  0  0  0  0  0  0  0  0  0
  125.1892   99.9433  128.5609 H   0  0  0  0  0  0  0  0  0  0  0  0
  123.7504  101.5911  127.5208 H   0  0  0  0  0  0  0  0  0  0  0  0
  121.6210   98.5136  125.5990 H   0  0  0  0  0  0  0  0  0  0  0  0
  120.7058  100.6974  125.8353 H   0  0  0  0  0  0  0  0  0  0  0  0
  1  2  1  0
  1 30  1  0
  1 31  1  0
  1 32  1  0
  2  3  2  0
  3 14  1  0
  3  4  1  0
  4  5  2  0
  4  6  1  0
  6  7  1  0
  7  8  2  0
  8  9  1  0
  8 10  1  0
  9 33  1  0
  9 34  1  0
  9 35  1  0
 10 19  1  0
 10 11  2  0
 11 12  1  0
 11 36  1  0
 12 13  2  0
 12 37  1  0
 13  2  1  0
 13  7  1  0
 14 15  1  0
 14 38  1  0
 14 39  1  0
 15 16  2  0
 15 17  1  0
 17 18  1  0
 19 20  1  0
 20 21  1  0
 20 40  1  0
 20 41  1  0
 21 22  2  0
 22 23  1  0
 22 42  1  0
 23 24  2  0
 23 43  1  0
 24 25  1  0
 24 44  1  0
 25 27  1  0
 25 26  2  0
 26 21  1  0
 26 45  1  0
 27 28  1  0
 27 29  1  0
 27 46  1  0
M  END
>  <minimizedAffinity>  (2) 
-9.12652

>  <mol_id>  (2) 
35122

>  <source_index>  (2) 
1

>  <layer>  (2) 
L3

>  <uniprot>  (2) 
P40879

>  <paff>  (2) 
6.4949000000000003

>  <smiles>  (2) 
Cc1c(CC(=O)O)c(=O)oc2c(C)c(OCc3cccc(C(F)F)c3)ccc12

$$$$
L3:P40879:53728
     RDKit          3D

 43 45  0  0  0  0  0  0  0  0999 V2000
  122.3732   92.1931  120.3906 C   0  0  0  0  0  0  0  0  0  0  0  0
  123.3773   91.9259  121.4841 C   0  0  0  0  0  0  0  0  0  0  0  0
  124.1705   90.8328  121.5236 C   0  0  0  0  0  0  0  0  0  0  0  0
  125.1951   90.6502  122.5881 C   0  0  0  0  0  0  0  0  0  0  0  0
  125.9152   89.6576  122.6197 O   0  0  0  0  0  0  0  0  0  0  0  0
  125.2965   91.6390  123.5447 O   0  0  0  0  0  0  0  0  0  0  0  0
  124.4634   92.7739  123.5484 C   0  0  0  0  0  0  0  0  0  0  0  0
  124.6355   93.7073  124.5844 C   0  0  0  0  0  0  0  0  0  0  0  0
  125.8523   93.4371  125.7922 Cl  0  0  0  0  0  0  0  0  0  0  0  0
  123.8263   94.8520  124.6411 C   0  0  0  0  0  0  0  0  0  0  0  0
  122.8622   95.0327  123.6491 C   0  0  0  0  0  0  0  0  0  0  0  0
  122.7045   94.0902  122.6213 C   0  0  0  0  0  0  0  0  0  0  0  0
  123.5058   92.9427  122.5504 C   0  0  0  0  0  0  0  0  0  0  0  0
  124.1513   89.6846  120.5397 C   0  0  0  0  0  0  0  0  0  0  0  0
  123.0703   88.6953  120.9120 C   0  0  0  0  0  0  0  0  0  0  0  0
  122.3624   88.7081  121.9057 O   0  0  0  0  0  0  0  0  0  0  0  0
  122.9821   87.6828  120.0249 O   0  0  0  0  0  0  0  0  0  0  0  0
  122.2405   87.1358  120.3601 H   0  0  0  0  0  0  0  0  0  0  0  0
  124.0572   95.7189  125.6756 O   0  0  0  0  0  0  0  0  0  0  0  0
  122.9583   96.2873  126.3903 C   0  0  0  0  0  0  0  0  0  0  0  0
  123.1547   97.7544  126.7010 C   0  0  0  0  0  0  0  0  0  0  0  0
  124.2917   98.1811  127.4003 C   0  0  0  0  0  0  0  0  0  0  0  0
  124.4883   99.5351  127.6730 C   0  0  0  0  0  0  0  0  0  0  0  0
  123.5577  100.4790  127.2393 C   0  0  0  0  0  0  0  0  0  0  0  0
  122.4261  100.0803  126.5162 C   0  0  0  0  0  0  0  0  0  0  0  0
  122.2345   98.7152  126.2525 C   0  0  0  0  0  0  0  0  0  0  0  0
  121.4057  101.0911  126.0596 C   0  0  0  0  0  0  0  0  0  0  0  0
  121.7893  101.7637  124.9387 F   0  0  0  0  0  0  0  0  0  0  0  0
  121.1454  102.0507  126.9928 F   0  0  0  0  0  0  0  0  0  0  0  0
  122.3838   91.3835  119.6911 H   0  0  0  0  0  0  0  0  0  0  0  0
  122.6273   93.1026  119.8875 H   0  0  0  0  0  0  0  0  0  0  0  0
  121.3962   92.2827  120.8176 H   0  0  0  0  0  0  0  0  0  0  0  0
  122.2580   95.8691  123.6713 H   0  0  0  0  0  0  0  0  0  0  0  0
  121.9818   94.2457  121.9012 H   0  0  0  0  0  0  0  0  0  0  0  0
  125.1010   89.1919  120.5531 H   0  0  0  0  0  0  0  0  0  0  0  0
  123.9518   90.0674  119.5606 H   0  0  0  0  0  0  0  0  0  0  0  0
  122.8386   95.7562  127.3114 H   0  0  0  0  0  0  0  0  0  0  0  0
  122.0923   96.2039  125.7675 H   0  0  0  0  0  0  0  0  0  0  0  0
  124.9887   97.4886  127.7159 H   0  0  0  0  0  0  0  0  0  0  0  0
  125.3241   99.8389  128.1967 H   0  0  0  0  0  0  0  0  0  0  0  0
  123.7037  101.4781  127.4526 H   0  0  0  0  0  0  0  0  0  0  0  0
  121.4037   98.4128  125.7203 H   0  0  0  0  0  0  0  0  0  0  0  0
  120.5369  100.4950  125.8734 H   0  0  0  0  0  0  0  0  0  0  0  0
  1  2  1  0
  1 30  1  0
  1 31  1  0
  1 32  1  0
  2  3  2  0
  3 14  1  0
  3  4  1  0
  4  5  2  0
  4  6  1  0
  6  7  1  0
  7  8  2  0
  8  9  1  0
  8 10  1  0
 10 19  1  0
 10 11  2  0
 11 12  1  0
 11 33  1  0
 12 13  2  0
 12 34  1  0
 13  2  1  0
 13  7  1  0
 14 15  1  0
 14 35  1  0
 14 36  1  0
 15 16  2  0
 15 17  1  0
 17 18  1  0
 19 20  1  0
 20 21  1  0
 20 37  1  0
 20 38  1  0
 21 22  2  0
 22 23  1  0
 22 39  1  0
 23 24  2  0
 23 40  1  0
 24 25  1  0
 24 41  1  0
 25 27  1  0
 25 26  2  0
 26 21  1  0
 26 42  1  0
 27 28  1  0
 27 29  1  0
 27 43  1  0
M  END
>  <minimizedAffinity>  (3) 
-9.08374

>  <mol_id>  (3) 
53728

>  <source_index>  (3) 
2

>  <layer>  (3) 
L3

>  <uniprot>  (3) 
P40879

>  <paff>  (3) 
6.6737000000000002

>  <smiles>  (3) 
Cc1c(CC(=O)O)c(=O)oc2c(Cl)c(OCc3cccc(C(F)F)c3)ccc12

$$$$
L3:P40879:81480
     RDKit          3D

 46 48  0  0  0  0  0  0  0  0999 V2000
  124.1588   92.6535  122.0229 C   0  0  0  0  0  0  0  0  0  0  0  0
  123.7193   93.0475  123.4099 C   0  0  0  0  0  0  0  0  0  0  0  0
  123.8077   94.4335  123.7089 C   0  0  0  0  0  0  0  0  0  0  0  0
  123.3601   94.9525  124.9204 C   0  0  0  0  0  0  0  0  0  0  0  0
  122.7941   94.0859  125.8403 C   0  0  0  0  0  0  0  0  0  0  0  0
  122.7191   92.7194  125.5573 C   0  0  0  0  0  0  0  0  0  0  0  0
  122.0512   91.9629  126.5352 O   0  0  0  0  0  0  0  0  0  0  0  0
  121.7212   90.6459  126.3080 C   0  0  0  0  0  0  0  0  0  0  0  0
  120.9427   90.0450  127.0413 O   0  0  0  0  0  0  0  0  0  0  0  0
  122.4042   89.9714  125.1752 C   0  0  0  0  0  0  0  0  0  0  0  0
  123.1614   90.6601  124.2904 C   0  0  0  0  0  0  0  0  0  0  0  0
  124.0283   89.9426  123.2897 C   0  0  0  0  0  0  0  0  0  0  0  0
  123.2170   92.1455  124.3801 C   0  0  0  0  0  0  0  0  0  0  0  0
  123.3905   96.2617  125.3049 O   0  0  0  0  0  0  0  0  0  0  0  0
  122.8530   96.5809  126.5867 C   0  0  0  0  0  0  0  0  0  0  0  0
  123.0746   98.0528  126.8385 C   0  0  0  0  0  0  0  0  0  0  0  0
  124.2146   98.5029  127.5163 C   0  0  0  0  0  0  0  0  0  0  0  0
  124.4104   99.8656  127.7428 C   0  0  0  0  0  0  0  0  0  0  0  0
  123.4677  100.7924  127.2978 C   0  0  0  0  0  0  0  0  0  0  0  0
  122.3193  100.3664  126.6175 C   0  0  0  0  0  0  0  0  0  0  0  0
  122.1294   98.9932  126.3990 C   0  0  0  0  0  0  0  0  0  0  0  0
  121.2767  101.3595  126.1746 C   0  0  0  0  0  0  0  0  0  0  0  0
  121.1744  102.4354  127.0055 F   0  0  0  0  0  0  0  0  0  0  0  0
  121.5230  101.8743  124.9366 F   0  0  0  0  0  0  0  0  0  0  0  0
  122.1756   88.4758  125.1735 C   0  0  0  0  0  0  0  0  0  0  0  0
  123.2082   87.7802  126.0314 C   0  0  0  0  0  0  0  0  0  0  0  0
  124.2718   87.3016  125.6738 O   0  0  0  0  0  0  0  0  0  0  0  0
  122.8079   87.6674  127.3147 O   0  0  0  0  0  0  0  0  0  0  0  0
  123.5624   87.2282  127.7612 H   0  0  0  0  0  0  0  0  0  0  0  0
  124.4945   93.5216  121.4951 H   0  0  0  0  0  0  0  0  0  0  0  0
  123.3357   92.2139  121.4993 H   0  0  0  0  0  0  0  0  0  0  0  0
  124.9582   91.9454  122.0897 H   0  0  0  0  0  0  0  0  0  0  0  0
  124.2149   95.0730  123.0087 H   0  0  0  0  0  0  0  0  0  0  0  0
  122.4279   94.4489  126.7342 H   0  0  0  0  0  0  0  0  0  0  0  0
  123.8605   88.8884  123.3635 H   0  0  0  0  0  0  0  0  0  0  0  0
  125.0573   90.1550  123.4921 H   0  0  0  0  0  0  0  0  0  0  0  0
  123.7831   90.2746  122.3025 H   0  0  0  0  0  0  0  0  0  0  0  0
  123.3488   96.0059  127.3407 H   0  0  0  0  0  0  0  0  0  0  0  0
  121.8076   96.3545  126.6157 H   0  0  0  0  0  0  0  0  0  0  0  0
  124.9145   97.8220  127.8504 H   0  0  0  0  0  0  0  0  0  0  0  0
  125.2546  100.1886  128.2407 H   0  0  0  0  0  0  0  0  0  0  0  0
  123.6171  101.7988  127.4708 H   0  0  0  0  0  0  0  0  0  0  0  0
  121.2816   98.6696  125.9075 H   0  0  0  0  0  0  0  0  0  0  0  0
  120.3740  100.7851  126.1799 H   0  0  0  0  0  0  0  0  0  0  0  0
  122.2472   88.1100  124.1705 H   0  0  0  0  0  0  0  0  0  0  0  0
  121.2031   88.2744  125.5717 H   0  0  0  0  0  0  0  0  0  0  0  0
  1  2  1  0
  1 30  1  0
  1 31  1  0
  1 32  1  0
  2  3  2  0
  3  4  1  0
  3 33  1  0
  4 14  1  0
  4  5  2  0
  5  6  1  0
  5 34  1  0
  6  7  1  0
  7  8  1  0
  8  9  2  0
  8 10  1  0
 10 25  1  0
 10 11  2  0
 11 12  1  0
 11 13  1  0
 12 35  1  0
 12 36  1  0
 12 37  1  0
 13  2  1  0
 13  6  2  0
 14 15  1  0
 15 16  1  0
 15 38  1  0
 15 39  1  0
 16 17  2  0
 17 18  1  0
 17 40  1  0
 18 19  2  0
 18 41  1  0
 19 20  1  0
 19 42  1  0
 20 22  1  0
 20 21  2  0
 21 16  1  0
 21 43  1  0
 22 23  1  0
 22 24  1  0
 22 44  1  0
 25 26  1  0
 25 45  1  0
 25 46  1  0
 26 27  2  0
 26 28  1  0
 28 29  1  0
M  END
>  <minimizedAffinity>  (4) 
-8.25506

>  <mol_id>  (4) 
81480

>  <source_index>  (4) 
3

>  <layer>  (4) 
L3

>  <uniprot>  (4) 
P40879

>  <paff>  (4) 
6.0814000000000004

>  <smiles>  (4) 
Cc1cc(OCc2cccc(C(F)F)c2)cc2oc(=O)c(CC(=O)O)c(C)c12

$$$$
L3:P40879:105680
     RDKit          3D

 46 48  0  0  0  0  0  0  0  0999 V2000
  126.5241   93.4203  123.2933 C   0  0  0  0  0  0  0  0  0  0  0  0
  125.2307   93.3028  124.0560 C   0  0  0  0  0  0  0  0  0  0  0  0
  124.8675   94.4386  124.8209 C   0  0  0  0  0  0  0  0  0  0  0  0
  123.7406   94.4574  125.6411 C   0  0  0  0  0  0  0  0  0  0  0  0
  122.9675   93.3144  125.7240 C   0  0  0  0  0  0  0  0  0  0  0  0
  123.3147   92.1939  124.9583 C   0  0  0  0  0  0  0  0  0  0  0  0
  122.5040   91.0682  125.1911 O   0  0  0  0  0  0  0  0  0  0  0  0
  122.8353   89.8358  124.6742 C   0  0  0  0  0  0  0  0  0  0  0  0
  122.2803   88.8118  125.0588 O   0  0  0  0  0  0  0  0  0  0  0  0
  123.8446   89.8171  123.5859 C   0  0  0  0  0  0  0  0  0  0  0  0
  124.5511   90.9221  123.2537 C   0  0  0  0  0  0  0  0  0  0  0  0
  125.4027   90.9541  122.0118 C   0  0  0  0  0  0  0  0  0  0  0  0
  124.4013   92.1570  124.0721 C   0  0  0  0  0  0  0  0  0  0  0  0
  123.5352   95.6282  126.3123 O   0  0  0  0  0  0  0  0  0  0  0  0
  122.7609   96.6296  125.6516 C   0  0  0  0  0  0  0  0  0  0  0  0
  123.0765   97.9729  126.2689 C   0  0  0  0  0  0  0  0  0  0  0  0
  124.1191   98.1068  127.1948 C   0  0  0  0  0  0  0  0  0  0  0  0
  124.3969   99.3451  127.7750 C   0  0  0  0  0  0  0  0  0  0  0  0
  123.6318  100.4626  127.4419 C   0  0  0  0  0  0  0  0  0  0  0  0
  122.5731  100.3528  126.5292 C   0  0  0  0  0  0  0  0  0  0  0  0
  122.3071   99.1026  125.9465 C   0  0  0  0  0  0  0  0  0  0  0  0
  121.7536  101.5601  126.1469 C   0  0  0  0  0  0  0  0  0  0  0  0
  120.4666  101.5004  126.5922 F   0  0  0  0  0  0  0  0  0  0  0  0
  122.2674  102.7177  126.6469 F   0  0  0  0  0  0  0  0  0  0  0  0
  121.6688  101.7401  124.7985 F   0  0  0  0  0  0  0  0  0  0  0  0
  123.9387   88.4663  122.9110 C   0  0  0  0  0  0  0  0  0  0  0  0
  123.3155   88.5169  121.5342 C   0  0  0  0  0  0  0  0  0  0  0  0
  122.2590   89.0359  121.2142 O   0  0  0  0  0  0  0  0  0  0  0  0
  124.1045   87.9465  120.6003 O   0  0  0  0  0  0  0  0  0  0  0  0
  123.5864   88.0245  119.7713 H   0  0  0  0  0  0  0  0  0  0  0  0
  126.9469   94.3898  123.4554 H   0  0  0  0  0  0  0  0  0  0  0  0
  126.3360   93.2833  122.2489 H   0  0  0  0  0  0  0  0  0  0  0  0
  127.2082   92.6714  123.6338 H   0  0  0  0  0  0  0  0  0  0  0  0
  125.4588   95.2828  124.7690 H   0  0  0  0  0  0  0  0  0  0  0  0
  122.1428   93.2869  126.3438 H   0  0  0  0  0  0  0  0  0  0  0  0
  125.3982   89.9883  121.5513 H   0  0  0  0  0  0  0  0  0  0  0  0
  126.4056   91.2197  122.2738 H   0  0  0  0  0  0  0  0  0  0  0  0
  125.0093   91.6771  121.3281 H   0  0  0  0  0  0  0  0  0  0  0  0
  121.7193   96.4151  125.7694 H   0  0  0  0  0  0  0  0  0  0  0  0
  122.9975   96.6436  124.6082 H   0  0  0  0  0  0  0  0  0  0  0  0
  124.6862   97.2832  127.4498 H   0  0  0  0  0  0  0  0  0  0  0  0
  125.1704   99.4342  128.4523 H   0  0  0  0  0  0  0  0  0  0  0  0
  123.8464  101.3767  127.8702 H   0  0  0  0  0  0  0  0  0  0  0  0
  121.5330   99.0128  125.2699 H   0  0  0  0  0  0  0  0  0  0  0  0
  123.4235   87.7398  123.5041 H   0  0  0  0  0  0  0  0  0  0  0  0
  124.9703   88.1993  122.8140 H   0  0  0  0  0  0  0  0  0  0  0  0
  1  2  1  0
  1 31  1  0
  1 32  1  0
  1 33  1  0
  2  3  2  0
  3  4  1  0
  3 34  1  0
  4 14  1  0
  4  5  2  0
  5  6  1  0
  5 35  1  0
  6  7  1  0
  7  8  1  0
  8  9  2  0
  8 10  1  0
 10 26  1  0
 10 11  2  0
 11 12  1  0
 11 13  1  0
 12 36  1  0
 12 37  1  0
 12 38  1  0
 13  2  1  0
 13  6  2  0
 14 15  1  0
 15 16  1  0
 15 39  1  0
 15 40  1  0
 16 17  2  0
 17 18  1  0
 17 41  1  0
 18 19  2  0
 18 42  1  0
 19 20  1  0
 19 43  1  0
 20 22  1  0
 20 21  2  0
 21 16  1  0
 21 44  1  0
 22 23  1  0
 22 24  1  0
 22 25  1  0
 26 27  1  0
 26 45  1  0
 26 46  1  0
 27 28  2  0
 27 29  1  0
 29 30  1  0
M  END
>  <minimizedAffinity>  (5) 
-9.58180

>  <mol_id>  (5) 
105680

>  <source_index>  (5) 
4

>  <layer>  (5) 
L3

>  <uniprot>  (5) 
P40879

>  <paff>  (5) 
6.0457999999999998

>  <smiles>  (5) 
Cc1cc(OCc2cccc(C(F)(F)F)c2)cc2oc(=O)c(CC(=O)O)c(C)c12

$$$$
L3:P40879:109901
     RDKit          3D

 43 45  0  0  0  0  0  0  0  0999 V2000
  125.5091   90.9472  121.8481 C   0  0  0  0  0  0  0  0  0  0  0  0
  124.5221   90.9186  122.9886 C   0  0  0  0  0  0  0  0  0  0  0  0
  123.8480   89.8111  123.3692 C   0  0  0  0  0  0  0  0  0  0  0  0
  122.9362   89.8181  124.5458 C   0  0  0  0  0  0  0  0  0  0  0  0
  122.3262   88.8108  124.8888 O   0  0  0  0  0  0  0  0  0  0  0  0
  122.7957   91.0081  125.2298 O   0  0  0  0  0  0  0  0  0  0  0  0
  123.4604   92.1863  124.8396 C   0  0  0  0  0  0  0  0  0  0  0  0
  123.2244   93.3490  125.5920 C   0  0  0  0  0  0  0  0  0  0  0  0
  122.1434   93.2938  126.9488 Cl  0  0  0  0  0  0  0  0  0  0  0  0
  123.8539   94.5518  125.2394 C   0  0  0  0  0  0  0  0  0  0  0  0
  124.7116   94.5585  124.1383 C   0  0  0  0  0  0  0  0  0  0  0  0
  124.9350   93.3870  123.3988 C   0  0  0  0  0  0  0  0  0  0  0  0
  124.3143   92.1767  123.7381 C   0  0  0  0  0  0  0  0  0  0  0  0
  123.9148   88.4567  122.6999 C   0  0  0  0  0  0  0  0  0  0  0  0
  123.3925   88.5473  121.2842 C   0  0  0  0  0  0  0  0  0  0  0  0
  122.3583   89.0735  120.9068 O   0  0  0  0  0  0  0  0  0  0  0  0
  124.1857   87.8968  120.4081 O   0  0  0  0  0  0  0  0  0  0  0  0
  123.7561   88.0487  119.5399 H   0  0  0  0  0  0  0  0  0  0  0  0
  123.5830   95.6449  126.0185 O   0  0  0  0  0  0  0  0  0  0  0  0
  122.7303   96.6576  125.4873 C   0  0  0  0  0  0  0  0  0  0  0  0
  123.0578   97.9886  126.1279 C   0  0  0  0  0  0  0  0  0  0  0  0
  124.0399   98.0894  127.1234 C   0  0  0  0  0  0  0  0  0  0  0  0
  124.3141   99.3141  127.7325 C   0  0  0  0  0  0  0  0  0  0  0  0
  123.6002  100.4534  127.3641 C   0  0  0  0  0  0  0  0  0  0  0  0
  122.5974  100.3777  126.3871 C   0  0  0  0  0  0  0  0  0  0  0  0
  122.3366   99.1398  125.7735 C   0  0  0  0  0  0  0  0  0  0  0  0
  121.8369  101.6133  125.9738 C   0  0  0  0  0  0  0  0  0  0  0  0
  121.7212  101.7245  124.6221 F   0  0  0  0  0  0  0  0  0  0  0  0
  122.4203  102.7697  126.3972 F   0  0  0  0  0  0  0  0  0  0  0  0
  120.5637  101.6425  126.4608 F   0  0  0  0  0  0  0  0  0  0  0  0
  125.5611   89.9783  121.3970 H   0  0  0  0  0  0  0  0  0  0  0  0
  126.4749   91.2202  122.2190 H   0  0  0  0  0  0  0  0  0  0  0  0
  125.1914   91.6633  121.1193 H   0  0  0  0  0  0  0  0  0  0  0  0
  125.1860   95.4334  123.8654 H   0  0  0  0  0  0  0  0  0  0  0  0
  125.5708   93.4171  122.5865 H   0  0  0  0  0  0  0  0  0  0  0  0
  123.3196   87.7598  123.2522 H   0  0  0  0  0  0  0  0  0  0  0  0
  124.9331   88.1291  122.6759 H   0  0  0  0  0  0  0  0  0  0  0  0
  121.7103   96.4064  125.6909 H   0  0  0  0  0  0  0  0  0  0  0  0
  122.8794   96.7273  124.4300 H   0  0  0  0  0  0  0  0  0  0  0  0
  124.5657   97.2484  127.4087 H   0  0  0  0  0  0  0  0  0  0  0  0
  125.0465   99.3768  128.4569 H   0  0  0  0  0  0  0  0  0  0  0  0
  123.8111  101.3582  127.8133 H   0  0  0  0  0  0  0  0  0  0  0  0
  121.6028   99.0764  125.0506 H   0  0  0  0  0  0  0  0  0  0  0  0
  1  2  1  0
  1 31  1  0
  1 32  1  0
  1 33  1  0
  2  3  2  0
  3 14  1  0
  3  4  1  0
  4  5  2  0
  4  6  1  0
  6  7  1  0
  7  8  2  0
  8  9  1  0
  8 10  1  0
 10 19  1  0
 10 11  2  0
 11 12  1  0
 11 34  1  0
 12 13  2  0
 12 35  1  0
 13  2  1  0
 13  7  1  0
 14 15  1  0
 14 36  1  0
 14 37  1  0
 15 16  2  0
 15 17  1  0
 17 18  1  0
 19 20  1  0
 20 21  1  0
 20 38  1  0
 20 39  1  0
 21 22  2  0
 22 23  1  0
 22 40  1  0
 23 24  2  0
 23 41  1  0
 24 25  1  0
 24 42  1  0
 25 27  1  0
 25 26  2  0
 26 21  1  0
 26 43  1  0
 27 28  1  0
 27 29  1  0
 27 30  1  0
M  END
>  <minimizedAffinity>  (6) 
-9.48958

>  <mol_id>  (6) 
109901

>  <source_index>  (6) 
5

>  <layer>  (6) 
L3

>  <uniprot>  (6) 
P40879

>  <paff>  (6) 
7.6021000000000001

>  <smiles>  (6) 
Cc1c(CC(=O)O)c(=O)oc2c(Cl)c(OCc3cccc(C(F)(F)F)c3)ccc12

$$$$
L3:P40879:111688
     RDKit          3D

 43 45  0  0  0  0  0  0  0  0999 V2000
  126.5407   93.3719  123.3093 C   0  0  0  0  0  0  0  0  0  0  0  0
  125.2241   93.3034  124.0403 C   0  0  0  0  0  0  0  0  0  0  0  0
  124.8569   94.4772  124.7509 C   0  0  0  0  0  0  0  0  0  0  0  0
  123.7104   94.5290  125.5386 C   0  0  0  0  0  0  0  0  0  0  0  0
  122.9290   93.3902  125.6420 C   0  0  0  0  0  0  0  0  0  0  0  0
  123.2776   92.2382  124.9321 C   0  0  0  0  0  0  0  0  0  0  0  0
  122.4515   91.1302  125.1858 O   0  0  0  0  0  0  0  0  0  0  0  0
  122.7864   89.8772  124.7238 C   0  0  0  0  0  0  0  0  0  0  0  0
  122.2084   88.8723  125.1244 O   0  0  0  0  0  0  0  0  0  0  0  0
  123.8230   89.8109  123.6636 C   0  0  0  0  0  0  0  0  0  0  0  0
  124.5428   90.8993  123.3054 C   0  0  0  0  0  0  0  0  0  0  0  0
  125.4183   90.8813  122.0802 C   0  0  0  0  0  0  0  0  0  0  0  0
  124.3836   92.1636  124.0755 C   0  0  0  0  0  0  0  0  0  0  0  0
  123.2701   95.5976  126.2645 O   0  0  0  0  0  0  0  0  0  0  0  0
  122.6433   96.6602  125.5518 C   0  0  0  0  0  0  0  0  0  0  0  0
  122.9981   97.9547  126.2403 C   0  0  0  0  0  0  0  0  0  0  0  0
  124.0980   98.0196  127.1087 C   0  0  0  0  0  0  0  0  0  0  0  0
  124.4387   99.2207  127.7341 C   0  0  0  0  0  0  0  0  0  0  0  0
  123.6896  100.3715  127.4918 C   0  0  0  0  0  0  0  0  0  0  0  0
  122.6054  100.3168  126.6185 C   0  0  0  0  0  0  0  0  0  0  0  0
  121.5957  101.8792  126.2795 Br  0  0  0  0  0  0  0  0  0  0  0  0
  122.2591   99.1203  125.9901 C   0  0  0  0  0  0  0  0  0  0  0  0
  123.9260   88.4327  123.0452 C   0  0  0  0  0  0  0  0  0  0  0  0
  123.3968   88.3639  121.6278 C   0  0  0  0  0  0  0  0  0  0  0  0
  124.0502   88.0356  120.6490 O   0  0  0  0  0  0  0  0  0  0  0  0
  122.1239   88.7765  121.4752 O   0  0  0  0  0  0  0  0  0  0  0  0
  121.9498   88.6509  120.5181 H   0  0  0  0  0  0  0  0  0  0  0  0
  126.9725   94.3418  123.4425 H   0  0  0  0  0  0  0  0  0  0  0  0
  126.3795   93.1934  122.2667 H   0  0  0  0  0  0  0  0  0  0  0  0
  127.2046   92.6292  123.6999 H   0  0  0  0  0  0  0  0  0  0  0  0
  125.4564   95.3143  124.6813 H   0  0  0  0  0  0  0  0  0  0  0  0
  122.0900   93.3924  126.2429 H   0  0  0  0  0  0  0  0  0  0  0  0
  125.4172   89.8992  121.6555 H   0  0  0  0  0  0  0  0  0  0  0  0
  126.4174   91.1513  122.3518 H   0  0  0  0  0  0  0  0  0  0  0  0
  125.0423   91.5806  121.3629 H   0  0  0  0  0  0  0  0  0  0  0  0
  121.5819   96.5249  125.5572 H   0  0  0  0  0  0  0  0  0  0  0  0
  122.9781   96.6752  124.5356 H   0  0  0  0  0  0  0  0  0  0  0  0
  124.6600   97.1726  127.2868 H   0  0  0  0  0  0  0  0  0  0  0  0
  125.2457   99.2567  128.3763 H   0  0  0  0  0  0  0  0  0  0  0  0
  123.9369  101.2590  127.9568 H   0  0  0  0  0  0  0  0  0  0  0  0
  121.4579   99.0928  125.3402 H   0  0  0  0  0  0  0  0  0  0  0  0
  123.3671   87.7484  123.6487 H   0  0  0  0  0  0  0  0  0  0  0  0
  124.9658   88.1835  123.0047 H   0  0  0  0  0  0  0  0  0  0  0  0
  1  2  1  0
  1 28  1  0
  1 29  1  0
  1 30  1  0
  2  3  2  0
  3  4  1  0
  3 31  1  0
  4 14  1  0
  4  5  2  0
  5  6  1  0
  5 32  1  0
  6  7  1  0
  7  8  1  0
  8  9  2  0
  8 10  1  0
 10 23  1  0
 10 11  2  0
 11 12  1  0
 11 13  1  0
 12 33  1  0
 12 34  1  0
 12 35  1  0
 13  2  1  0
 13  6  2  0
 14 15  1  0
 15 16  1  0
 15 36  1  0
 15 37  1  0
 16 17  2  0
 17 18  1  0
 17 38  1  0
 18 19  2  0
 18 39  1  0
 19 20  1  0
 19 40  1  0
 20 21  1  0
 20 22  2  0
 22 16  1  0
 22 41  1  0
 23 24  1  0
 23 42  1  0
 23 43  1  0
 24 25  2  0
 24 26  1  0
 26 27  1  0
M  END
>  <minimizedAffinity>  (7) 
-8.72386

>  <mol_id>  (7) 
111688

>  <source_index>  (7) 
6

>  <layer>  (7) 
L3

>  <uniprot>  (7) 
P40879

>  <paff>  (7) 
6.2518000000000002

>  <smiles>  (7) 
Cc1cc(OCc2cccc(Br)c2)cc2oc(=O)c(CC(=O)O)c(C)c12

$$$$
L3:P40879:116771
     RDKit          3D

 43 45  0  0  0  0  0  0  0  0999 V2000
  123.5949   92.5917  120.7273 C   0  0  0  0  0  0  0  0  0  0  0  0
  123.5511   92.1626  122.1722 C   0  0  0  0  0  0  0  0  0  0  0  0
  123.4719   90.8752  122.5755 C   0  0  0  0  0  0  0  0  0  0  0  0
  123.3629   90.5107  124.0169 C   0  0  0  0  0  0  0  0  0  0  0  0
  123.2945   89.3389  124.3747 O   0  0  0  0  0  0  0  0  0  0  0  0
  123.3522   91.5398  124.9363 O   0  0  0  0  0  0  0  0  0  0  0  0
  123.4652   92.8797  124.5378 C   0  0  0  0  0  0  0  0  0  0  0  0
  123.4722   93.8409  125.5508 C   0  0  0  0  0  0  0  0  0  0  0  0
  123.3670   93.4500  126.8314 F   0  0  0  0  0  0  0  0  0  0  0  0
  123.5948   95.1975  125.2492 C   0  0  0  0  0  0  0  0  0  0  0  0
  123.7000   95.5686  123.9102 C   0  0  0  0  0  0  0  0  0  0  0  0
  123.6901   94.5941  122.8977 C   0  0  0  0  0  0  0  0  0  0  0  0
  123.5702   93.2281  123.1956 C   0  0  0  0  0  0  0  0  0  0  0  0
  123.4746   89.6616  121.6733 C   0  0  0  0  0  0  0  0  0  0  0  0
  124.8937   89.2367  121.3711 C   0  0  0  0  0  0  0  0  0  0  0  0
  125.3226   88.7653  120.3307 O   0  0  0  0  0  0  0  0  0  0  0  0
  125.7301   89.4952  122.3976 O   0  0  0  0  0  0  0  0  0  0  0  0
  126.5967   89.1558  122.0890 H   0  0  0  0  0  0  0  0  0  0  0  0
  123.5783   96.0472  126.3200 O   0  0  0  0  0  0  0  0  0  0  0  0
  122.4619   96.9224  126.4933 C   0  0  0  0  0  0  0  0  0  0  0  0
  122.8600   98.3402  126.8415 C   0  0  0  0  0  0  0  0  0  0  0  0
  123.9960   98.6063  127.6175 C   0  0  0  0  0  0  0  0  0  0  0  0
  124.3605   99.9190  127.9161 C   0  0  0  0  0  0  0  0  0  0  0  0
  123.6008  100.9832  127.4321 C   0  0  0  0  0  0  0  0  0  0  0  0
  122.4683  100.7450  126.6425 C   0  0  0  0  0  0  0  0  0  0  0  0
  122.1140   99.4198  126.3423 C   0  0  0  0  0  0  0  0  0  0  0  0
  121.6723  101.8968  126.0854 C   0  0  0  0  0  0  0  0  0  0  0  0
  121.6079  101.8902  124.7233 F   0  0  0  0  0  0  0  0  0  0  0  0
  120.3791  101.9086  126.5142 F   0  0  0  0  0  0  0  0  0  0  0  0
  123.5755   91.7268  120.0976 H   0  0  0  0  0  0  0  0  0  0  0  0
  124.4930   93.1444  120.5465 H   0  0  0  0  0  0  0  0  0  0  0  0
  122.7472   93.2083  120.5125 H   0  0  0  0  0  0  0  0  0  0  0  0
  123.7858   96.5662  123.6603 H   0  0  0  0  0  0  0  0  0  0  0  0
  123.7729   94.8899  121.9125 H   0  0  0  0  0  0  0  0  0  0  0  0
  122.9751   89.9010  120.7578 H   0  0  0  0  0  0  0  0  0  0  0  0
  122.9683   88.8589  122.1675 H   0  0  0  0  0  0  0  0  0  0  0  0
  121.8489   96.5386  127.2818 H   0  0  0  0  0  0  0  0  0  0  0  0
  121.9413   96.9602  125.5592 H   0  0  0  0  0  0  0  0  0  0  0  0
  124.5682   97.8237  127.9713 H   0  0  0  0  0  0  0  0  0  0  0  0
  125.1939  100.1029  128.4963 H   0  0  0  0  0  0  0  0  0  0  0  0
  123.8744  101.9525  127.6569 H   0  0  0  0  0  0  0  0  0  0  0  0
  121.2924   99.2365  125.7454 H   0  0  0  0  0  0  0  0  0  0  0  0
  122.2013  102.7563  126.4408 H   0  0  0  0  0  0  0  0  0  0  0  0
  1  2  1  0
  1 30  1  0
  1 31  1  0
  1 32  1  0
  2  3  2  0
  3 14  1  0
  3  4  1  0
  4  5  2  0
  4  6  1  0
  6  7  1  0
  7  8  2  0
  8  9  1  0
  8 10  1  0
 10 19  1  0
 10 11  2  0
 11 12  1  0
 11 33  1  0
 12 13  2  0
 12 34  1  0
 13  2  1  0
 13  7  1  0
 14 15  1  0
 14 35  1  0
 14 36  1  0
 15 16  2  0
 15 17  1  0
 17 18  1  0
 19 20  1  0
 20 21  1  0
 20 37  1  0
 20 38  1  0
 21 22  2  0
 22 23  1  0
 22 39  1  0
 23 24  2  0
 23 40  1  0
 24 25  1  0
 24 41  1  0
 25 27  1  0
 25 26  2  0
 26 21  1  0
 26 42  1  0
 27 28  1  0
 27 29  1  0
 27 43  1  0
M  END
>  <minimizedAffinity>  (8) 
-9.23931

>  <mol_id>  (8) 
116771

>  <source_index>  (8) 
7

>  <layer>  (8) 
L3

>  <uniprot>  (8) 
P40879

>  <paff>  (8) 
6.5621999999999998

>  <smiles>  (8) 
Cc1c(CC(=O)O)c(=O)oc2c(F)c(OCc3cccc(C(F)F)c3)ccc12

$$$$
L3:P40879:121141
     RDKit          3D

 43 45  0  0  0  0  0  0  0  0999 V2000
  123.2699   93.5710  126.9667 C   0  0  0  0  0  0  0  0  0  0  0  0
  123.3724   93.9643  125.5161 C   0  0  0  0  0  0  0  0  0  0  0  0
  123.5003   95.3129  125.1465 C   0  0  0  0  0  0  0  0  0  0  0  0
  123.6235   95.6428  123.7955 C   0  0  0  0  0  0  0  0  0  0  0  0
  123.6309   94.6433  122.8126 C   0  0  0  0  0  0  0  0  0  0  0  0
  123.5222   93.2894  123.1512 C   0  0  0  0  0  0  0  0  0  0  0  0
  123.4058   92.9817  124.5065 C   0  0  0  0  0  0  0  0  0  0  0  0
  123.3272   91.6384  124.9212 O   0  0  0  0  0  0  0  0  0  0  0  0
  123.3759   90.5857  124.0302 C   0  0  0  0  0  0  0  0  0  0  0  0
  123.3368   89.4225  124.4195 O   0  0  0  0  0  0  0  0  0  0  0  0
  123.4854   90.9179  122.5836 C   0  0  0  0  0  0  0  0  0  0  0  0
  123.5346   92.1976  122.1536 C   0  0  0  0  0  0  0  0  0  0  0  0
  123.5757   92.5915  120.6984 C   0  0  0  0  0  0  0  0  0  0  0  0
  123.5280   89.6848  121.7101 C   0  0  0  0  0  0  0  0  0  0  0  0
  124.9597   89.2984  121.4158 C   0  0  0  0  0  0  0  0  0  0  0  0
  125.4127   88.8616  120.3705 O   0  0  0  0  0  0  0  0  0  0  0  0
  125.7772   89.5504  122.4591 O   0  0  0  0  0  0  0  0  0  0  0  0
  126.6550   89.2384  122.1530 H   0  0  0  0  0  0  0  0  0  0  0  0
  123.5041   96.2179  126.1737 O   0  0  0  0  0  0  0  0  0  0  0  0
  122.3141   96.9636  126.4122 C   0  0  0  0  0  0  0  0  0  0  0  0
  122.7127   98.3792  126.7496 C   0  0  0  0  0  0  0  0  0  0  0  0
  123.9671   98.6426  127.3211 C   0  0  0  0  0  0  0  0  0  0  0  0
  124.3487   99.9505  127.6258 C   0  0  0  0  0  0  0  0  0  0  0  0
  123.4835  101.0105  127.3570 C   0  0  0  0  0  0  0  0  0  0  0  0
  122.2416  100.7566  126.7786 C   0  0  0  0  0  0  0  0  0  0  0  0
  121.8535   99.4520  126.4711 C   0  0  0  0  0  0  0  0  0  0  0  0
  121.0713  102.1942  126.4043 Br  0  0  0  0  0  0  0  0  0  0  0  0
  123.2585   94.4512  127.5749 H   0  0  0  0  0  0  0  0  0  0  0  0
  124.1108   92.9649  127.2322 H   0  0  0  0  0  0  0  0  0  0  0  0
  122.3677   93.0175  127.1233 H   0  0  0  0  0  0  0  0  0  0  0  0
  123.7100   96.6329  123.5175 H   0  0  0  0  0  0  0  0  0  0  0  0
  123.7182   94.9109  121.8197 H   0  0  0  0  0  0  0  0  0  0  0  0
  123.5808   91.7109  120.0906 H   0  0  0  0  0  0  0  0  0  0  0  0
  124.4611   93.1614  120.5080 H   0  0  0  0  0  0  0  0  0  0  0  0
  122.7144   93.1816  120.4642 H   0  0  0  0  0  0  0  0  0  0  0  0
  123.0207   89.8866  120.7899 H   0  0  0  0  0  0  0  0  0  0  0  0
  123.0487   88.8779  122.2240 H   0  0  0  0  0  0  0  0  0  0  0  0
  121.7735   96.5337  127.2294 H   0  0  0  0  0  0  0  0  0  0  0  0
  121.6862   96.9500  125.5459 H   0  0  0  0  0  0  0  0  0  0  0  0
  124.6133   97.8624  127.5179 H   0  0  0  0  0  0  0  0  0  0  0  0
  125.2716  100.1329  128.0502 H   0  0  0  0  0  0  0  0  0  0  0  0
  123.7615  101.9778  127.5852 H   0  0  0  0  0  0  0  0  0  0  0  0
  120.9332   99.2764  126.0383 H   0  0  0  0  0  0  0  0  0  0  0  0
  1  2  1  0
  1 28  1  0
  1 29  1  0
  1 30  1  0
  2  3  2  0
  3  4  1  0
  3 19  1  0
  4  5  2  0
  4 31  1  0
  5  6  1  0
  5 32  1  0
  6  7  2  0
  7  8  1  0
  7  2  1  0
  8  9  1  0
  9 10  2  0
  9 11  1  0
 11 12  2  0
 11 14  1  0
 12 13  1  0
 12  6  1  0
 13 33  1  0
 13 34  1  0
 13 35  1  0
 14 15  1  0
 14 36  1  0
 14 37  1  0
 15 16  2  0
 15 17  1  0
 17 18  1  0
 19 20  1  0
 20 21  1  0
 20 38  1  0
 20 39  1  0
 21 22  2  0
 22 23  1  0
 22 40  1  0
 23 24  2  0
 23 41  1  0
 24 25  1  0
 24 42  1  0
 25 26  2  0
 25 27  1  0
 26 21  1  0
 26 43  1  0
M  END
>  <minimizedAffinity>  (9) 
-8.71419

>  <mol_id>  (9) 
121141

>  <source_index>  (9) 
8

>  <layer>  (9) 
L3

>  <uniprot>  (9) 
P40879

>  <paff>  (9) 
6.8539000000000003

>  <smiles>  (9) 
Cc1c(ccc2c1OC(=O)C(=C2C)CC(=O)O)OCc3cccc(c3)Br

$$$$
L3:P40879:145984
     RDKit          3D

 40 42  0  0  0  0  0  0  0  0999 V2000
  123.3940   92.5954  120.4379 C   0  0  0  0  0  0  0  0  0  0  0  0
  123.4413   92.1272  121.8702 C   0  0  0  0  0  0  0  0  0  0  0  0
  123.4100   90.8279  122.2406 C   0  0  0  0  0  0  0  0  0  0  0  0
  123.5261   90.4168  123.6688 C   0  0  0  0  0  0  0  0  0  0  0  0
  123.5044   89.2347  123.9951 O   0  0  0  0  0  0  0  0  0  0  0  0
  123.6477   91.4160  124.6127 O   0  0  0  0  0  0  0  0  0  0  0  0
  123.6564   92.7705  124.2490 C   0  0  0  0  0  0  0  0  0  0  0  0
  123.7674   93.7006  125.2846 C   0  0  0  0  0  0  0  0  0  0  0  0
  123.8575   93.2679  126.5533 F   0  0  0  0  0  0  0  0  0  0  0  0
  123.7817   95.0698  125.0165 C   0  0  0  0  0  0  0  0  0  0  0  0
  123.6770   95.4861  123.6897 C   0  0  0  0  0  0  0  0  0  0  0  0
  123.5635   94.5416  122.6551 C   0  0  0  0  0  0  0  0  0  0  0  0
  123.5553   93.1627  122.9182 C   0  0  0  0  0  0  0  0  0  0  0  0
  123.2664   89.6436  121.3112 C   0  0  0  0  0  0  0  0  0  0  0  0
  124.6282   89.1169  120.9216 C   0  0  0  0  0  0  0  0  0  0  0  0
  125.7162   89.6194  121.1620 O   0  0  0  0  0  0  0  0  0  0  0  0
  124.5424   87.9958  120.1761 O   0  0  0  0  0  0  0  0  0  0  0  0
  125.4784   87.7433  120.0194 H   0  0  0  0  0  0  0  0  0  0  0  0
  123.8958   95.8882  126.1052 O   0  0  0  0  0  0  0  0  0  0  0  0
  122.7243   96.5734  126.5455 C   0  0  0  0  0  0  0  0  0  0  0  0
  123.0591   98.0190  126.8361 C   0  0  0  0  0  0  0  0  0  0  0  0
  124.2165   98.3634  127.5529 C   0  0  0  0  0  0  0  0  0  0  0  0
  124.5029   99.6980  127.8479 C   0  0  0  0  0  0  0  0  0  0  0  0
  123.6302  100.7058  127.4397 C   0  0  0  0  0  0  0  0  0  0  0  0
  122.4731  100.3717  126.7393 C   0  0  0  0  0  0  0  0  0  0  0  0
  121.2840  101.7346  126.1912 Br  0  0  0  0  0  0  0  0  0  0  0  0
  122.1811   99.0398  126.4405 C   0  0  0  0  0  0  0  0  0  0  0  0
  123.3116   91.7490  119.7885 H   0  0  0  0  0  0  0  0  0  0  0  0
  124.2895   93.1346  120.2092 H   0  0  0  0  0  0  0  0  0  0  0  0
  122.5474   93.2349  120.2995 H   0  0  0  0  0  0  0  0  0  0  0  0
  123.6829   96.4936  123.4662 H   0  0  0  0  0  0  0  0  0  0  0  0
  123.4844   94.8693  121.6797 H   0  0  0  0  0  0  0  0  0  0  0  0
  122.7399   89.9473  120.4306 H   0  0  0  0  0  0  0  0  0  0  0  0
  122.7237   88.8700  121.8132 H   0  0  0  0  0  0  0  0  0  0  0  0
  122.3533   96.1084  127.4349 H   0  0  0  0  0  0  0  0  0  0  0  0
  121.9786   96.5292  125.7794 H   0  0  0  0  0  0  0  0  0  0  0  0
  124.8627   97.6219  127.8652 H   0  0  0  0  0  0  0  0  0  0  0  0
  125.3610   99.9384  128.3683 H   0  0  0  0  0  0  0  0  0  0  0  0
  123.8400  101.6930  127.6550 H   0  0  0  0  0  0  0  0  0  0  0  0
  121.3171   98.8051  125.9272 H   0  0  0  0  0  0  0  0  0  0  0  0
  1  2  1  0
  1 28  1  0
  1 29  1  0
  1 30  1  0
  2  3  2  0
  3 14  1  0
  3  4  1  0
  4  5  2  0
  4  6  1  0
  6  7  1  0
  7  8  2  0
  8  9  1  0
  8 10  1  0
 10 19  1  0
 10 11  2  0
 11 12  1  0
 11 31  1  0
 12 13  2  0
 12 32  1  0
 13  2  1  0
 13  7  1  0
 14 15  1  0
 14 33  1  0
 14 34  1  0
 15 16  2  0
 15 17  1  0
 17 18  1  0
 19 20  1  0
 20 21  1  0
 20 35  1  0
 20 36  1  0
 21 22  2  0
 22 23  1  0
 22 37  1  0
 23 24  2  0
 23 38  1  0
 24 25  1  0
 24 39  1  0
 25 26  1  0
 25 27  2  0
 27 21  1  0
 27 40  1  0
M  END
>  <minimizedAffinity>  (10) 
-8.68850

>  <mol_id>  (10) 
145984

>  <source_index>  (10) 
9

>  <layer>  (10) 
L3

>  <uniprot>  (10) 
P40879

>  <paff>  (10) 
7.1078999999999999

>  <smiles>  (10) 
Cc1c(CC(=O)O)c(=O)oc2c(F)c(OCc3cccc(Br)c3)ccc12

$$$$
