L3:Q15878:4124
     RDKit          3D

 47 48  0  0  0  0  0  0  0  0999 V2000
  145.8190  174.8795  159.9223 C   0  0  1  0  0  0  0  0  0  0  0  0
  144.9266  175.8649  159.1944 C   0  0  0  0  0  0  0  0  0  0  0  0
  145.3962  176.9513  158.4763 C   0  0  0  0  0  0  0  0  0  0  0  0
  144.5231  177.8313  157.8493 C   0  0  0  0  0  0  0  0  0  0  0  0
  143.1536  177.6161  157.9088 C   0  0  0  0  0  0  0  0  0  0  0  0
  142.6701  176.5258  158.6228 C   0  0  0  0  0  0  0  0  0  0  0  0
  143.5456  175.6680  159.2478 C   0  0  0  0  0  0  0  0  0  0  0  0
  142.2134  178.4144  157.3175 O   0  0  0  0  0  0  0  0  0  0  0  0
  142.6711  179.3808  156.3936 C   0  0  0  0  0  0  0  0  0  0  0  0
  147.3076  175.2331  159.9510 C   0  0  0  0  0  0  0  0  0  0  0  0
  147.5777  176.3962  160.6056 F   0  0  0  0  0  0  0  0  0  0  0  0
  148.0360  174.2709  160.5745 F   0  0  0  0  0  0  0  0  0  0  0  0
  147.8368  175.3511  158.7101 F   0  0  0  0  0  0  0  0  0  0  0  0
  145.2998  174.6334  161.2552 N   0  0  0  0  0  0  0  0  0  0  0  0
  145.2891  173.1472  162.0518 S   0  0  0  0  0  0  0  0  0  0  0  0
  144.0241  173.0810  162.8151 O   0  0  0  0  0  0  0  0  0  0  0  0
  146.5588  172.9502  162.7992 O   0  0  0  0  0  0  0  0  0  0  0  0
  145.1958  171.9059  160.7255 C   0  0  0  0  0  0  0  0  0  0  0  0
  143.9416  172.0719  159.8916 C   0  0  0  0  0  0  0  0  0  0  0  0
  143.5582  170.7419  159.2663 C   0  0  0  0  0  0  0  0  0  0  0  0
  143.3013  169.6968  160.2059 O   0  0  0  0  0  0  0  0  0  0  0  0
  143.8577  169.9345  161.5002 C   0  0  0  0  0  0  0  0  0  0  0  0
  145.2420  170.5303  161.3967 C   0  0  0  0  0  0  0  0  0  0  0  0
  145.8229  176.1107  163.2337 C   0  0  0  0  0  0  0  0  0  0  0  0
  144.8695  175.7444  162.1140 C   0  0  0  0  0  0  0  0  0  0  0  0
  145.7817  173.9703  159.3186 H   0  0  0  0  0  0  0  0  0  0  0  0
  146.4583  177.1153  158.3857 H   0  0  0  0  0  0  0  0  0  0  0  0
  144.9147  178.6818  157.3113 H   0  0  0  0  0  0  0  0  0  0  0  0
  141.6005  176.3823  158.6714 H   0  0  0  0  0  0  0  0  0  0  0  0
  143.1505  174.8392  159.8167 H   0  0  0  0  0  0  0  0  0  0  0  0
  141.7842  179.8332  155.9619 H   0  0  0  0  0  0  0  0  0  0  0  0
  143.2659  178.9268  155.5966 H   0  0  0  0  0  0  0  0  0  0  0  0
  143.2647  180.1613  156.8786 H   0  0  0  0  0  0  0  0  0  0  0  0
  146.0943  172.0732  160.1408 H   0  0  0  0  0  0  0  0  0  0  0  0
  144.0885  172.7939  159.0945 H   0  0  0  0  0  0  0  0  0  0  0  0
  143.1265  172.4208  160.5201 H   0  0  0  0  0  0  0  0  0  0  0  0
  144.3643  170.4233  158.5972 H   0  0  0  0  0  0  0  0  0  0  0  0
  142.6560  170.8656  158.6657 H   0  0  0  0  0  0  0  0  0  0  0  0
  143.8862  168.9698  162.0010 H   0  0  0  0  0  0  0  0  0  0  0  0
  143.2173  170.5932  162.0894 H   0  0  0  0  0  0  0  0  0  0  0  0
  145.8731  169.8748  160.7980 H   0  0  0  0  0  0  0  0  0  0  0  0
  145.6812  170.5875  162.3898 H   0  0  0  0  0  0  0  0  0  0  0  0
  145.4536  177.0089  163.7263 H   0  0  0  0  0  0  0  0  0  0  0  0
  146.8244  176.3070  162.8645 H   0  0  0  0  0  0  0  0  0  0  0  0
  145.8713  175.3192  163.9765 H   0  0  0  0  0  0  0  0  0  0  0  0
  144.7232  176.6020  161.4684 H   0  0  0  0  0  0  0  0  0  0  0  0
  143.9025  175.4887  162.5432 H   0  0  0  0  0  0  0  0  0  0  0  0
  1  2  1  0
  1 10  1  0
  1 26  1  6
  2  3  2  0
  3  4  1  0
  3 27  1  0
  4  5  2  0
  4 28  1  0
  5  8  1  0
  5  6  1  0
  6  7  2  0
  6 29  1  0
  7  2  1  0
  7 30  1  0
  8  9  1  0
  9 31  1  0
  9 32  1  0
  9 33  1  0
 10 11  1  0
 10 12  1  0
 10 13  1  0
 14  1  1  0
 14 15  1  0
 15 16  2  0
 15 17  2  0
 15 18  1  0
 18 19  1  0
 18 34  1  0
 19 20  1  0
 19 35  1  0
 19 36  1  0
 20 21  1  0
 20 37  1  0
 20 38  1  0
 21 22  1  0
 22 23  1  0
 22 39  1  0
 22 40  1  0
 23 18  1  0
 23 41  1  0
 23 42  1  0
 24 25  1  0
 24 43  1  0
 24 44  1  0
 24 45  1  0
 25 14  1  0
 25 46  1  0
 25 47  1  0
M  END
>  <minimizedAffinity>  (1) 
-6.61787

>  <mol_id>  (1) 
4124

>  <source_index>  (1) 
0

>  <layer>  (1) 
L3

>  <uniprot>  (1) 
Q15878

>  <paff>  (1) 
6.1101000000000001

>  <smiles>  (1) 
CCN(C(c1ccc(OC)cc1)C(F)(F)F)S(=O)(=O)C1CCOCC1

>  <aimnet_interaction_kcal_mol>  (1) 
-40.622047192734328

$$$$
L3:Q15878:12360
     RDKit          3D

 41 43  0  0  0  0  0  0  0  0999 V2000
  144.9226  175.7043  161.9543 S   0  0  0  0  0  0  0  0  0  0  0  0
  145.0031  176.2632  160.6000 O   0  0  0  0  0  0  0  0  0  0  0  0
  145.6728  176.3231  163.0742 O   0  0  0  0  0  0  0  0  0  0  0  0
  143.1875  175.7722  162.4529 C   0  0  0  0  0  0  0  0  0  0  0  0
  142.7364  177.0271  162.9005 C   0  0  0  0  0  0  0  0  0  0  0  0
  141.4220  177.2299  163.2617 C   0  0  0  0  0  0  0  0  0  0  0  0
  140.5784  176.1269  163.1571 C   0  0  0  0  0  0  0  0  0  0  0  0
  139.2645  175.9109  163.4179 N   0  0  0  0  0  0  0  0  0  0  0  0
  138.9195  174.6145  163.1759 N   0  0  0  0  0  0  0  0  0  0  0  0
  139.9729  173.9887  162.7660 N   0  0  0  0  0  0  0  0  0  0  0  0
  141.0309  174.8679  162.7256 C   0  0  0  0  0  0  0  0  0  0  0  0
  142.3644  174.6788  162.3493 C   0  0  0  0  0  0  0  0  0  0  0  0
  138.5610  176.5592  163.7259 H   0  0  0  0  0  0  0  0  0  0  0  0
  145.2652  174.0627  161.8835 N   0  0  0  0  0  0  0  0  0  0  0  0
  144.9611  172.1473  163.5101 C   0  0  0  0  0  0  0  0  0  0  0  0
  145.6758  173.4383  163.1456 C   0  0  0  0  0  0  0  0  0  0  0  0
  145.7868  173.5437  160.5893 C   0  0  1  0  0  0  0  0  0  0  0  0
  147.2828  173.7544  160.4379 C   0  0  0  0  0  0  0  0  0  0  0  0
  145.2943  172.1420  160.3798 C   0  0  0  0  0  0  0  0  0  0  0  0
  146.1234  171.0327  160.4364 C   0  0  0  0  0  0  0  0  0  0  0  0
  145.6094  169.7478  160.4252 C   0  0  0  0  0  0  0  0  0  0  0  0
  144.2457  169.5968  160.2931 C   0  0  0  0  0  0  0  0  0  0  0  0
  143.7233  168.3443  160.3120 F   0  0  0  0  0  0  0  0  0  0  0  0
  143.3952  170.6722  160.1348 C   0  0  0  0  0  0  0  0  0  0  0  0
  143.9400  171.9413  160.1354 C   0  0  0  0  0  0  0  0  0  0  0  0
  143.4494  177.8387  162.9474 H   0  0  0  0  0  0  0  0  0  0  0  0
  141.0753  178.1884  163.6169 H   0  0  0  0  0  0  0  0  0  0  0  0
  142.7379  173.7204  162.0303 H   0  0  0  0  0  0  0  0  0  0  0  0
  145.2256  171.8615  164.5321 H   0  0  0  0  0  0  0  0  0  0  0  0
  145.2381  171.3306  162.8532 H   0  0  0  0  0  0  0  0  0  0  0  0
  143.8794  172.2464  163.4648 H   0  0  0  0  0  0  0  0  0  0  0  0
  146.7565  173.2695  163.1409 H   0  0  0  0  0  0  0  0  0  0  0  0
  145.4984  174.1693  163.9285 H   0  0  0  0  0  0  0  0  0  0  0  0
  145.3147  174.1435  159.8151 H   0  0  0  0  0  0  0  0  0  0  0  0
  147.8480  173.2567  161.2234 H   0  0  0  0  0  0  0  0  0  0  0  0
  147.5209  174.8162  160.4719 H   0  0  0  0  0  0  0  0  0  0  0  0
  147.6033  173.3683  159.4741 H   0  0  0  0  0  0  0  0  0  0  0  0
  147.1897  171.1700  160.4167 H   0  0  0  0  0  0  0  0  0  0  0  0
  146.2494  168.8787  160.5041 H   0  0  0  0  0  0  0  0  0  0  0  0
  142.3329  170.5184  160.0198 H   0  0  0  0  0  0  0  0  0  0  0  0
  143.3135  172.7944  159.9114 H   0  0  0  0  0  0  0  0  0  0  0  0
  1  2  2  0
  1  3  2  0
  1  4  1  0
  4  5  2  0
  5  6  1  0
  5 26  1  0
  6  7  2  0
  6 27  1  0
  7  8  1  0
  8  9  1  0
  8 13  1  0
  9 10  2  0
 10 11  1  0
 11 12  2  0
 11  7  1  0
 12  4  1  0
 12 28  1  0
 14 17  1  0
 14  1  1  0
 15 16  1  0
 15 29  1  0
 15 30  1  0
 15 31  1  0
 16 14  1  0
 16 32  1  0
 16 33  1  0
 17 18  1  0
 17 19  1  0
 17 34  1  6
 18 35  1  0
 18 36  1  0
 18 37  1  0
 19 20  2  0
 20 21  1  0
 20 38  1  0
 21 22  2  0
 21 39  1  0
 22 23  1  0
 22 24  1  0
 24 25  2  0
 24 40  1  0
 25 19  1  0
 25 41  1  0
M  END
>  <minimizedAffinity>  (2) 
-7.77259

>  <mol_id>  (2) 
12360

>  <source_index>  (2) 
1

>  <layer>  (2) 
L3

>  <uniprot>  (2) 
Q15878

>  <paff>  (2) 
6.7798999999999996

>  <smiles>  (2) 
CCN([C@@H](C)c1ccc(F)cc1)S(=O)(=O)c1ccc2[nH]nnc2c1

>  <aimnet_interaction_kcal_mol>  (2) 
-32.689989633342179

$$$$
L3:Q15878:19284
     RDKit          3D

 37 38  0  0  0  0  0  0  0  0999 V2000
  144.0574  173.6359  162.5913 N   0  0  0  0  0  0  0  0  0  0  0  0
  144.6284  175.2226  162.7253 S   0  0  0  0  0  0  0  0  0  0  0  0
  143.4727  176.0756  163.0385 O   0  0  0  0  0  0  0  0  0  0  0  0
  145.8455  175.2191  163.5542 O   0  0  0  0  0  0  0  0  0  0  0  0
  145.1668  175.6286  161.0841 C   0  0  0  0  0  0  0  0  0  0  0  0
  144.3351  176.0618  160.0890 C   0  0  0  0  0  0  0  0  0  0  0  0
  145.1800  176.3659  158.6237 S   0  0  0  0  0  0  0  0  0  0  0  0
  146.6874  175.9677  159.4041 C   0  0  0  0  0  0  0  0  0  0  0  0
  146.5173  175.5664  160.7014 C   0  0  0  0  0  0  0  0  0  0  0  0
  147.9175  176.1076  158.7554 C   0  0  0  0  0  0  0  0  0  0  0  0
  148.9881  176.2159  158.3240 N   0  0  0  0  0  0  0  0  0  0  0  0
  141.5843  173.5441  162.6960 C   0  0  0  0  0  0  0  0  0  0  0  0
  142.8065  173.5656  161.8140 C   0  0  0  0  0  0  0  0  0  0  0  0
  145.0371  172.5540  162.6171 C   0  0  2  0  0  0  0  0  0  0  0  0
  144.9018  171.4500  161.5946 C   0  0  0  0  0  0  0  0  0  0  0  0
  146.0142  171.1482  160.8200 C   0  0  0  0  0  0  0  0  0  0  0  0
  146.1019  169.9390  160.1515 C   0  0  0  0  0  0  0  0  0  0  0  0
  144.9616  169.1783  160.0461 C   0  0  0  0  0  0  0  0  0  0  0  0
  144.9902  168.0552  159.2689 F   0  0  0  0  0  0  0  0  0  0  0  0
  143.7852  169.5243  160.6709 C   0  0  0  0  0  0  0  0  0  0  0  0
  143.7803  170.6227  161.5096 C   0  0  0  0  0  0  0  0  0  0  0  0
  145.1411  171.8953  164.0150 C   0  0  0  0  0  0  0  0  0  0  0  0
  144.0207  171.3091  164.4240 F   0  0  0  0  0  0  0  0  0  0  0  0
  145.4851  172.8088  164.9719 F   0  0  0  0  0  0  0  0  0  0  0  0
  146.1284  170.9689  164.0223 F   0  0  0  0  0  0  0  0  0  0  0  0
  143.2823  176.2712  160.1610 H   0  0  0  0  0  0  0  0  0  0  0  0
  147.3111  175.2563  161.3614 H   0  0  0  0  0  0  0  0  0  0  0  0
  140.6837  173.3614  162.1053 H   0  0  0  0  0  0  0  0  0  0  0  0
  141.4748  174.4927  163.2120 H   0  0  0  0  0  0  0  0  0  0  0  0
  141.6744  172.7628  163.4413 H   0  0  0  0  0  0  0  0  0  0  0  0
  142.7664  174.4227  161.1459 H   0  0  0  0  0  0  0  0  0  0  0  0
  142.8655  172.7036  161.1710 H   0  0  0  0  0  0  0  0  0  0  0  0
  146.0123  173.0175  162.4726 H   0  0  0  0  0  0  0  0  0  0  0  0
  146.8157  171.8667  160.7189 H   0  0  0  0  0  0  0  0  0  0  0  0
  147.0140  169.6227  159.6762 H   0  0  0  0  0  0  0  0  0  0  0  0
  142.8933  168.9484  160.4884 H   0  0  0  0  0  0  0  0  0  0  0  0
  142.9111  170.8057  162.1279 H   0  0  0  0  0  0  0  0  0  0  0  0
  1 14  1  0
  1  2  1  0
  2  3  2  0
  2  4  2  0
  2  5  1  0
  5  6  2  0
  6  7  1  0
  6 26  1  0
  7  8  1  0
  8 10  1  0
  8  9  2  0
  9  5  1  0
  9 27  1  0
 10 11  3  0
 12 13  1  0
 12 28  1  0
 12 29  1  0
 12 30  1  0
 13  1  1  0
 13 31  1  0
 13 32  1  0
 14 15  1  0
 14 22  1  0
 14 33  1  6
 15 16  2  0
 16 17  1  0
 16 34  1  0
 17 18  2  0
 17 35  1  0
 18 19  1  0
 18 20  1  0
 20 21  2  0
 20 36  1  0
 21 15  1  0
 21 37  1  0
 22 23  1  0
 22 24  1  0
 22 25  1  0
M  END
>  <minimizedAffinity>  (3) 
-7.73375

>  <mol_id>  (3) 
19284

>  <source_index>  (3) 
2

>  <layer>  (3) 
L3

>  <uniprot>  (3) 
Q15878

>  <paff>  (3) 
6.6904000000000003

>  <smiles>  (3) 
CCN([C@H](c1ccc(F)cc1)C(F)(F)F)S(=O)(=O)c1csc(C#N)c1

>  <aimnet_interaction_kcal_mol>  (3) 
-38.708696189753653

$$$$
L3:Q15878:45224
     RDKit          3D

 42 44  0  0  0  0  0  0  0  0999 V2000
  144.7657  173.8088  162.2811 N   0  0  0  0  0  0  0  0  0  0  0  0
  143.5439  174.9926  162.2498 S   0  0  0  0  0  0  0  0  0  0  0  0
  143.8943  176.0431  163.2297 O   0  0  0  0  0  0  0  0  0  0  0  0
  142.2540  174.2758  162.3353 O   0  0  0  0  0  0  0  0  0  0  0  0
  143.6278  175.7347  160.6306 C   0  0  0  0  0  0  0  0  0  0  0  0
  143.3185  177.1032  160.5511 C   0  0  0  0  0  0  0  0  0  0  0  0
  143.1797  177.7618  159.4089 N   0  0  0  0  0  0  0  0  0  0  0  0
  143.3732  177.0508  158.2860 C   0  0  0  0  0  0  0  0  0  0  0  0
  143.3265  177.4436  156.9252 C   0  0  0  0  0  0  0  0  0  0  0  0
  143.7099  176.3428  156.1880 C   0  0  0  0  0  0  0  0  0  0  0  0
  143.9504  175.2806  157.0109 N   0  0  0  0  0  0  0  0  0  0  0  0
  143.7653  175.6763  158.3031 C   0  0  0  0  0  0  0  0  0  0  0  0
  143.8881  174.9838  159.4938 C   0  0  0  0  0  0  0  0  0  0  0  0
  144.5291  174.4382  156.8073 H   0  0  0  0  0  0  0  0  0  0  0  0
  146.7755  174.8793  161.2101 C   0  0  0  0  0  0  0  0  0  0  0  0
  146.1320  174.3151  162.4623 C   0  0  0  0  0  0  0  0  0  0  0  0
  144.3654  172.4532  162.6145 C   0  0  1  0  0  0  0  0  0  0  0  0
  144.4647  171.4743  161.4691 C   0  0  0  0  0  0  0  0  0  0  0  0
  143.3534  170.7479  161.0526 C   0  0  0  0  0  0  0  0  0  0  0  0
  143.5093  169.6476  160.2209 C   0  0  0  0  0  0  0  0  0  0  0  0
  144.7880  169.2773  159.8590 C   0  0  0  0  0  0  0  0  0  0  0  0
  144.9803  168.1348  159.1294 F   0  0  0  0  0  0  0  0  0  0  0  0
  145.8964  170.0228  160.1969 C   0  0  0  0  0  0  0  0  0  0  0  0
  145.6990  171.1943  160.9002 C   0  0  0  0  0  0  0  0  0  0  0  0
  145.0871  171.8616  163.8525 C   0  0  0  0  0  0  0  0  0  0  0  0
  145.2641  172.7935  164.8428 F   0  0  0  0  0  0  0  0  0  0  0  0
  146.3419  171.4167  163.6003 F   0  0  0  0  0  0  0  0  0  0  0  0
  144.4076  170.8410  164.3736 F   0  0  0  0  0  0  0  0  0  0  0  0
  143.1958  177.6681  161.4649 H   0  0  0  0  0  0  0  0  0  0  0  0
  143.0482  178.4078  156.5408 H   0  0  0  0  0  0  0  0  0  0  0  0
  143.8206  176.2318  155.1207 H   0  0  0  0  0  0  0  0  0  0  0  0
  144.2057  173.9497  159.5318 H   0  0  0  0  0  0  0  0  0  0  0  0
  147.8416  175.0226  161.3892 H   0  0  0  0  0  0  0  0  0  0  0  0
  146.3465  175.8394  160.9370 H   0  0  0  0  0  0  0  0  0  0  0  0
  146.6515  174.2087  160.3633 H   0  0  0  0  0  0  0  0  0  0  0  0
  146.1256  175.0672  163.2503 H   0  0  0  0  0  0  0  0  0  0  0  0
  146.7370  173.4926  162.8249 H   0  0  0  0  0  0  0  0  0  0  0  0
  143.3204  172.5198  162.9025 H   0  0  0  0  0  0  0  0  0  0  0  0
  142.3656  171.0267  161.3968 H   0  0  0  0  0  0  0  0  0  0  0  0
  142.6512  169.0890  159.8720 H   0  0  0  0  0  0  0  0  0  0  0  0
  146.8813  169.7002  159.8929 H   0  0  0  0  0  0  0  0  0  0  0  0
  146.5253  171.8772  161.0259 H   0  0  0  0  0  0  0  0  0  0  0  0
  1 17  1  0
  1  2  1  0
  2  3  2  0
  2  4  2  0
  2  5  1  0
  5  6  2  0
  6  7  1  0
  6 29  1  0
  7  8  2  0
  8  9  1  0
  9 10  2  0
  9 30  1  0
 10 11  1  0
 10 31  1  0
 11 12  1  0
 11 14  1  0
 12 13  2  0
 12  8  1  0
 13  5  1  0
 13 32  1  0
 15 16  1  0
 15 33  1  0
 15 34  1  0
 15 35  1  0
 16  1  1  0
 16 36  1  0
 16 37  1  0
 17 18  1  0
 17 25  1  0
 17 38  1  1
 18 19  2  0
 19 20  1  0
 19 39  1  0
 20 21  2  0
 20 40  1  0
 21 22  1  0
 21 23  1  0
 23 24  2  0
 23 41  1  0
 24 18  1  0
 24 42  1  0
 25 26  1  0
 25 27  1  0
 25 28  1  0
M  END
>  <minimizedAffinity>  (4) 
-8.34757

>  <mol_id>  (4) 
45224

>  <source_index>  (4) 
3

>  <layer>  (4) 
L3

>  <uniprot>  (4) 
Q15878

>  <paff>  (4) 
6.6108000000000002

>  <smiles>  (4) 
CCN(C(c1ccc(F)cc1)C(F)(F)F)S(=O)(=O)c1cnc2cc[nH]c2c1

>  <aimnet_interaction_kcal_mol>  (4) 
-55.307731902172748

$$$$
L3:Q15878:57801
     RDKit          3D

 38 40  0  0  0  0  0  0  0  0999 V2000
  145.0089  174.5501  163.2264 S   0  0  0  0  0  0  0  0  0  0  0  0
  145.1629  175.8551  163.9048 O   0  0  0  0  0  0  0  0  0  0  0  0
  145.1944  173.2855  163.9652 O   0  0  0  0  0  0  0  0  0  0  0  0
  146.1807  174.5283  161.8646 C   0  0  0  0  0  0  0  0  0  0  0  0
  146.4847  173.3130  161.2007 C   0  0  0  0  0  0  0  0  0  0  0  0
  147.2766  173.3346  160.0996 C   0  0  0  0  0  0  0  0  0  0  0  0
  147.8016  174.5381  159.7205 N   0  0  0  0  0  0  0  0  0  0  0  0
  148.6658  174.7231  158.6957 N   0  0  0  0  0  0  0  0  0  0  0  0
  148.9271  176.0032  158.6477 N   0  0  0  0  0  0  0  0  0  0  0  0
  148.2551  176.6597  159.6092 C   0  0  0  0  0  0  0  0  0  0  0  0
  147.5236  175.7410  160.3454 C   0  0  0  0  0  0  0  0  0  0  0  0
  146.6945  175.7268  161.4760 C   0  0  0  0  0  0  0  0  0  0  0  0
  143.4799  174.5382  162.5146 N   0  0  0  0  0  0  0  0  0  0  0  0
  143.3098  175.4984  161.4342 C   0  0  0  0  0  0  0  0  0  0  0  0
  141.2771  173.4860  162.3736 C   0  0  0  0  0  0  0  0  0  0  0  0
  142.7639  173.2497  162.5229 C   0  0  1  0  0  0  0  0  0  0  0  0
  143.3084  172.1562  161.6375 C   0  0  0  0  0  0  0  0  0  0  0  0
  143.4370  172.2647  160.2594 C   0  0  0  0  0  0  0  0  0  0  0  0
  144.0165  171.2540  159.5088 C   0  0  0  0  0  0  0  0  0  0  0  0
  144.4395  170.1047  160.1527 C   0  0  0  0  0  0  0  0  0  0  0  0
  145.2623  168.8401  159.2472 Cl  0  0  0  0  0  0  0  0  0  0  0  0
  144.2847  169.9498  161.5189 C   0  0  0  0  0  0  0  0  0  0  0  0
  143.7244  170.9765  162.2531 C   0  0  0  0  0  0  0  0  0  0  0  0
  146.0844  172.3791  161.5531 H   0  0  0  0  0  0  0  0  0  0  0  0
  147.5252  172.4828  159.4904 H   0  0  0  0  0  0  0  0  0  0  0  0
  148.3096  177.7256  159.7131 H   0  0  0  0  0  0  0  0  0  0  0  0
  146.4606  176.6254  162.0228 H   0  0  0  0  0  0  0  0  0  0  0  0
  143.7505  175.1767  160.4891 H   0  0  0  0  0  0  0  0  0  0  0  0
  143.7547  176.4472  161.7206 H   0  0  0  0  0  0  0  0  0  0  0  0
  142.2466  175.6678  161.2926 H   0  0  0  0  0  0  0  0  0  0  0  0
  140.7536  172.5376  162.4538 H   0  0  0  0  0  0  0  0  0  0  0  0
  141.0289  173.9296  161.4116 H   0  0  0  0  0  0  0  0  0  0  0  0
  140.9214  174.1561  163.1540 H   0  0  0  0  0  0  0  0  0  0  0  0
  142.9124  172.9055  163.5361 H   0  0  0  0  0  0  0  0  0  0  0  0
  143.1147  173.1519  159.7331 H   0  0  0  0  0  0  0  0  0  0  0  0
  144.1668  171.3987  158.4494 H   0  0  0  0  0  0  0  0  0  0  0  0
  144.6092  169.0430  162.0032 H   0  0  0  0  0  0  0  0  0  0  0  0
  143.6096  170.8641  163.3203 H   0  0  0  0  0  0  0  0  0  0  0  0
  1  2  2  0
  1  3  2  0
  1  4  1  0
  4  5  1  0
  5  6  2  0
  5 24  1  0
  6  7  1  0
  6 25  1  0
  7  8  1  0
  8  9  2  0
  9 10  1  0
 10 11  2  0
 10 26  1  0
 11 12  1  0
 11  7  1  0
 12  4  2  0
 12 27  1  0
 13 14  1  0
 13  1  1  0
 14 28  1  0
 14 29  1  0
 14 30  1  0
 15 16  1  0
 15 31  1  0
 15 32  1  0
 15 33  1  0
 16 17  1  0
 16 13  1  0
 16 34  1  1
 17 18  2  0
 18 19  1  0
 18 35  1  0
 19 20  2  0
 19 36  1  0
 20 21  1  0
 20 22  1  0
 22 23  2  0
 22 37  1  0
 23 17  1  0
 23 38  1  0
M  END
>  <minimizedAffinity>  (5) 
-7.83860

>  <mol_id>  (5) 
57801

>  <source_index>  (5) 
4

>  <layer>  (5) 
L3

>  <uniprot>  (5) 
Q15878

>  <paff>  (5) 
6.5406000000000004

>  <smiles>  (5) 
C[C@@H](c1ccc(Cl)cc1)N(C)S(=O)(=O)c1ccn2nncc2c1

>  <aimnet_interaction_kcal_mol>  (5) 
-50.362759563871371

$$$$
L3:Q15878:67332
     RDKit          3D

 39 41  0  0  0  0  0  0  0  0999 V2000
  144.0377  171.2684  161.8469 N   0  0  0  0  0  0  0  0  0  0  0  0
  142.9348  171.9843  160.8122 S   0  0  0  0  0  0  0  0  0  0  0  0
  141.8888  170.9812  160.5388 O   0  0  0  0  0  0  0  0  0  0  0  0
  143.6251  172.6625  159.7085 O   0  0  0  0  0  0  0  0  0  0  0  0
  142.1513  173.2698  161.8167 C   0  0  0  0  0  0  0  0  0  0  0  0
  140.9928  172.9216  162.5538 C   0  0  0  0  0  0  0  0  0  0  0  0
  140.2605  173.7654  163.2424 N   0  0  0  0  0  0  0  0  0  0  0  0
  140.6718  175.0539  163.2306 C   0  0  0  0  0  0  0  0  0  0  0  0
  140.0596  176.0204  163.9309 N   0  0  0  0  0  0  0  0  0  0  0  0
  140.8684  177.4060  163.5712 S   0  0  0  0  0  0  0  0  0  0  0  0
  142.0119  176.8322  162.5376 N   0  0  0  0  0  0  0  0  0  0  0  0
  141.7958  175.5147  162.4548 C   0  0  0  0  0  0  0  0  0  0  0  0
  142.5459  174.5716  161.7146 C   0  0  0  0  0  0  0  0  0  0  0  0
  145.2602  169.4294  160.6557 C   0  0  0  0  0  0  0  0  0  0  0  0
  144.2088  169.8375  161.6676 C   0  0  0  0  0  0  0  0  0  0  0  0
  144.8174  172.1115  162.7501 C   0  0  1  0  0  0  0  0  0  0  0  0
  145.4403  171.2905  163.8654 C   0  0  0  0  0  0  0  0  0  0  0  0
  145.8048  173.0451  162.0771 C   0  0  0  0  0  0  0  0  0  0  0  0
  146.1241  174.2352  162.7302 C   0  0  0  0  0  0  0  0  0  0  0  0
  146.9236  175.1957  162.1316 C   0  0  0  0  0  0  0  0  0  0  0  0
  147.4303  174.9321  160.8752 C   0  0  0  0  0  0  0  0  0  0  0  0
  148.2334  175.8597  160.2766 F   0  0  0  0  0  0  0  0  0  0  0  0
  147.1398  173.7718  160.1939 C   0  0  0  0  0  0  0  0  0  0  0  0
  146.3340  172.8231  160.8100 C   0  0  0  0  0  0  0  0  0  0  0  0
  140.6938  171.8881  162.5354 H   0  0  0  0  0  0  0  0  0  0  0  0
  143.3713  174.8833  161.0905 H   0  0  0  0  0  0  0  0  0  0  0  0
  145.1998  168.3556  160.4781 H   0  0  0  0  0  0  0  0  0  0  0  0
  146.2685  169.6570  160.9919 H   0  0  0  0  0  0  0  0  0  0  0  0
  145.0883  169.9291  159.7052 H   0  0  0  0  0  0  0  0  0  0  0  0
  144.4055  169.4016  162.6402 H   0  0  0  0  0  0  0  0  0  0  0  0
  143.2465  169.4442  161.3639 H   0  0  0  0  0  0  0  0  0  0  0  0
  144.0918  172.7571  163.2427 H   0  0  0  0  0  0  0  0  0  0  0  0
  146.1214  170.5369  163.4859 H   0  0  0  0  0  0  0  0  0  0  0  0
  144.6635  170.7953  164.4438 H   0  0  0  0  0  0  0  0  0  0  0  0
  146.0090  171.9379  164.5322 H   0  0  0  0  0  0  0  0  0  0  0  0
  145.7189  174.4391  163.7169 H   0  0  0  0  0  0  0  0  0  0  0  0
  147.1231  176.1414  162.6121 H   0  0  0  0  0  0  0  0  0  0  0  0
  147.4723  173.6463  159.1734 H   0  0  0  0  0  0  0  0  0  0  0  0
  146.0531  171.9470  160.2441 H   0  0  0  0  0  0  0  0  0  0  0  0
  1 16  1  0
  1  2  1  0
  2  3  2  0
  2  4  2  0
  2  5  1  0
  5  6  1  0
  6  7  2  0
  6 25  1  0
  7  8  1  0
  8  9  2  0
  9 10  1  0
 10 11  1  0
 11 12  2  0
 12 13  1  0
 12  8  1  0
 13  5  2  0
 13 26  1  0
 14 15  1  0
 14 27  1  0
 14 28  1  0
 14 29  1  0
 15  1  1  0
 15 30  1  0
 15 31  1  0
 16 17  1  0
 16 18  1  0
 16 32  1  1
 17 33  1  0
 17 34  1  0
 17 35  1  0
 18 19  2  0
 19 20  1  0
 19 36  1  0
 20 21  2  0
 20 37  1  0
 21 22  1  0
 21 23  1  0
 23 24  2  0
 23 38  1  0
 24 18  1  0
 24 39  1  0
M  END
>  <minimizedAffinity>  (6) 
-7.33791

>  <mol_id>  (6) 
67332

>  <source_index>  (6) 
5

>  <layer>  (6) 
L3

>  <uniprot>  (6) 
Q15878

>  <paff>  (6) 
6.8013000000000003

>  <smiles>  (6) 
CCN([C@@H](C)c1ccc(F)cc1)S(=O)(=O)c1cnc2nsnc2c1

>  <aimnet_interaction_kcal_mol>  (6) 
-37.698873129512656

$$$$
L3:Q15878:76146
     RDKit          3D

 42 44  0  0  0  0  0  0  0  0999 V2000
  144.7197  175.1543  161.0651 N   0  0  0  0  0  0  0  0  0  0  0  0
  143.2074  175.5382  160.4326 S   0  0  0  0  0  0  0  0  0  0  0  0
  143.1687  176.9926  160.1802 O   0  0  0  0  0  0  0  0  0  0  0  0
  142.9053  174.5681  159.3708 O   0  0  0  0  0  0  0  0  0  0  0  0
  142.0715  175.2468  161.8034 C   0  0  0  0  0  0  0  0  0  0  0  0
  141.7757  173.9266  162.1910 C   0  0  0  0  0  0  0  0  0  0  0  0
  140.9277  173.6796  163.2441 C   0  0  0  0  0  0  0  0  0  0  0  0
  140.3555  174.7710  163.9150 C   0  0  0  0  0  0  0  0  0  0  0  0
  139.5066  174.9568  165.0403 C   0  0  0  0  0  0  0  0  0  0  0  0
  139.3644  176.2405  165.3373 N   0  0  0  0  0  0  0  0  0  0  0  0
  140.0641  176.9135  164.3972 N   0  0  0  0  0  0  0  0  0  0  0  0
  140.7005  176.0814  163.5198 C   0  0  0  0  0  0  0  0  0  0  0  0
  141.5459  176.3443  162.4431 C   0  0  0  0  0  0  0  0  0  0  0  0
  140.2283  177.8936  164.5422 H   0  0  0  0  0  0  0  0  0  0  0  0
  145.0268  175.6755  163.5070 C   0  0  0  0  0  0  0  0  0  0  0  0
  145.2463  176.0919  162.0636 C   0  0  0  0  0  0  0  0  0  0  0  0
  145.4546  174.0601  160.4223 C   0  0  2  0  0  0  0  0  0  0  0  0
  144.9743  172.6762  160.8015 C   0  0  0  0  0  0  0  0  0  0  0  0
  145.2032  172.1150  162.0527 C   0  0  0  0  0  0  0  0  0  0  0  0
  144.8879  170.7924  162.3137 C   0  0  0  0  0  0  0  0  0  0  0  0
  144.3124  170.0486  161.3057 C   0  0  0  0  0  0  0  0  0  0  0  0
  144.0562  168.7322  161.5153 F   0  0  0  0  0  0  0  0  0  0  0  0
  143.9883  170.5993  160.0838 C   0  0  0  0  0  0  0  0  0  0  0  0
  144.2974  171.9260  159.8434 C   0  0  0  0  0  0  0  0  0  0  0  0
  146.9631  174.2021  160.5836 C   0  0  0  0  0  0  0  0  0  0  0  0
  147.4133  175.3866  160.0912 F   0  0  0  0  0  0  0  0  0  0  0  0
  147.3896  174.1423  161.8931 F   0  0  0  0  0  0  0  0  0  0  0  0
  147.6203  173.2321  159.9345 F   0  0  0  0  0  0  0  0  0  0  0  0
  142.2474  173.0990  161.6832 H   0  0  0  0  0  0  0  0  0  0  0  0
  140.8086  172.6625  163.5839 H   0  0  0  0  0  0  0  0  0  0  0  0
  139.0195  174.2194  165.6547 H   0  0  0  0  0  0  0  0  0  0  0  0
  141.7924  177.3471  162.1309 H   0  0  0  0  0  0  0  0  0  0  0  0
  145.4867  176.4136  164.1620 H   0  0  0  0  0  0  0  0  0  0  0  0
  145.4737  174.7097  163.7313 H   0  0  0  0  0  0  0  0  0  0  0  0
  143.9715  175.6199  163.7564 H   0  0  0  0  0  0  0  0  0  0  0  0
  146.2992  176.2396  161.8740 H   0  0  0  0  0  0  0  0  0  0  0  0
  144.7888  177.0583  161.8811 H   0  0  0  0  0  0  0  0  0  0  0  0
  145.3009  174.1341  159.3318 H   0  0  0  0  0  0  0  0  0  0  0  0
  145.6549  172.7073  162.8339 H   0  0  0  0  0  0  0  0  0  0  0  0
  145.0740  170.3405  163.2776 H   0  0  0  0  0  0  0  0  0  0  0  0
  143.5049  169.9941  159.3284 H   0  0  0  0  0  0  0  0  0  0  0  0
  144.0351  172.3814  158.9019 H   0  0  0  0  0  0  0  0  0  0  0  0
  1 17  1  0
  1  2  1  0
  2  3  2  0
  2  4  2  0
  2  5  1  0
  5  6  2  0
  6  7  1  0
  6 29  1  0
  7  8  2  0
  7 30  1  0
  8  9  1  0
  9 10  2  0
  9 31  1  0
 10 11  1  0
 11 12  1  0
 11 14  1  0
 12 13  2  0
 12  8  1  0
 13  5  1  0
 13 32  1  0
 15 16  1  0
 15 33  1  0
 15 34  1  0
 15 35  1  0
 16  1  1  0
 16 36  1  0
 16 37  1  0
 17 18  1  0
 17 25  1  0
 17 38  1  6
 18 19  2  0
 19 20  1  0
 19 39  1  0
 20 21  2  0
 20 40  1  0
 21 22  1  0
 21 23  1  0
 23 24  2  0
 23 41  1  0
 24 18  1  0
 24 42  1  0
 25 26  1  0
 25 27  1  0
 25 28  1  0
M  END
>  <minimizedAffinity>  (7) 
-7.81575

>  <mol_id>  (7) 
76146

>  <source_index>  (7) 
6

>  <layer>  (7) 
L3

>  <uniprot>  (7) 
Q15878

>  <paff>  (7) 
6.3297999999999996

>  <smiles>  (7) 
CCN(C(c1ccc(F)cc1)C(F)(F)F)S(=O)(=O)c1ccc2cn[nH]c2c1

>  <aimnet_interaction_kcal_mol>  (7) 
-39.360773528812715

$$$$
L3:Q15878:84015
     RDKit          3D

 40 41  0  0  0  0  0  0  0  0999 V2000
  145.2811  172.8197  162.8470 N   0  0  0  0  0  0  0  0  0  0  0  0
  146.1277  174.2497  163.0227 S   0  0  0  0  0  0  0  0  0  0  0  0
  145.5101  175.0926  164.0763 O   0  0  0  0  0  0  0  0  0  0  0  0
  147.5640  173.9128  163.1504 O   0  0  0  0  0  0  0  0  0  0  0  0
  145.9264  175.1068  161.4408 C   0  0  0  0  0  0  0  0  0  0  0  0
  144.7763  175.8004  161.0993 C   0  0  0  0  0  0  0  0  0  0  0  0
  144.6729  176.4532  159.9447 N   0  0  0  0  0  0  0  0  0  0  0  0
  145.6873  176.4725  159.1010 N   0  0  0  0  0  0  0  0  0  0  0  0
  146.8159  175.8164  159.3773 C   0  0  0  0  0  0  0  0  0  0  0  0
  147.8816  175.8114  158.3538 C   0  0  0  0  0  0  0  0  0  0  0  0
  146.9784  175.1190  160.5704 C   0  0  0  0  0  0  0  0  0  0  0  0
  146.1698  171.0489  164.3783 C   0  0  0  0  0  0  0  0  0  0  0  0
  145.1057  172.0764  164.0968 C   0  0  0  0  0  0  0  0  0  0  0  0
  144.3109  172.5791  161.7598 C   0  0  2  0  0  0  0  0  0  0  0  0
  142.8796  172.9248  162.1307 C   0  0  0  0  0  0  0  0  0  0  0  0
  144.5265  171.1835  161.2287 C   0  0  0  0  0  0  0  0  0  0  0  0
  145.7937  170.8817  160.7491 C   0  0  0  0  0  0  0  0  0  0  0  0
  146.0554  169.6934  160.0958 C   0  0  0  0  0  0  0  0  0  0  0  0
  144.9921  168.8675  159.8113 C   0  0  0  0  0  0  0  0  0  0  0  0
  145.2033  167.8268  158.9435 F   0  0  0  0  0  0  0  0  0  0  0  0
  143.7293  169.0932  160.3180 C   0  0  0  0  0  0  0  0  0  0  0  0
  143.5184  170.2392  161.0807 C   0  0  0  0  0  0  0  0  0  0  0  0
  143.9280  175.8602  161.7659 H   0  0  0  0  0  0  0  0  0  0  0  0
  147.9687  176.7740  157.8601 H   0  0  0  0  0  0  0  0  0  0  0  0
  147.6424  175.0739  157.5876 H   0  0  0  0  0  0  0  0  0  0  0  0
  148.8351  175.5535  158.8092 H   0  0  0  0  0  0  0  0  0  0  0  0
  147.8978  174.6052  160.7992 H   0  0  0  0  0  0  0  0  0  0  0  0
  145.9781  170.5824  165.3398 H   0  0  0  0  0  0  0  0  0  0  0  0
  147.1474  171.5114  164.4358 H   0  0  0  0  0  0  0  0  0  0  0  0
  146.1792  170.2675  163.6243 H   0  0  0  0  0  0  0  0  0  0  0  0
  145.1007  172.7896  164.9180 H   0  0  0  0  0  0  0  0  0  0  0  0
  144.1262  171.6034  164.0886 H   0  0  0  0  0  0  0  0  0  0  0  0
  144.6096  173.2407  160.9502 H   0  0  0  0  0  0  0  0  0  0  0  0
  142.4770  172.2700  162.8958 H   0  0  0  0  0  0  0  0  0  0  0  0
  142.2537  172.8406  161.2431 H   0  0  0  0  0  0  0  0  0  0  0  0
  142.8106  173.9448  162.5014 H   0  0  0  0  0  0  0  0  0  0  0  0
  146.5785  171.6198  160.8374 H   0  0  0  0  0  0  0  0  0  0  0  0
  147.0435  169.4382  159.7472 H   0  0  0  0  0  0  0  0  0  0  0  0
  142.9215  168.4052  160.1086 H   0  0  0  0  0  0  0  0  0  0  0  0
  142.5531  170.3876  161.5443 H   0  0  0  0  0  0  0  0  0  0  0  0
  1 14  1  0
  1  2  1  0
  2  3  2  0
  2  4  2  0
  2  5  1  0
  5  6  2  0
  6  7  1  0
  6 23  1  0
  7  8  2  0
  8  9  1  0
  9 10  1  0
  9 11  2  0
 10 24  1  0
 10 25  1  0
 10 26  1  0
 11  5  1  0
 11 27  1  0
 12 13  1  0
 12 28  1  0
 12 29  1  0
 12 30  1  0
 13  1  1  0
 13 31  1  0
 13 32  1  0
 14 15  1  0
 14 16  1  0
 14 33  1  6
 15 34  1  0
 15 35  1  0
 15 36  1  0
 16 17  2  0
 17 18  1  0
 17 37  1  0
 18 19  2  0
 18 38  1  0
 19 20  1  0
 19 21  1  0
 21 22  2  0
 21 39  1  0
 22 16  1  0
 22 40  1  0
M  END
>  <minimizedAffinity>  (8) 
-7.65931

>  <mol_id>  (8) 
84015

>  <source_index>  (8) 
7

>  <layer>  (8) 
L3

>  <uniprot>  (8) 
Q15878

>  <paff>  (8) 
6.7190000000000003

>  <smiles>  (8) 
CCN(C(C)c1ccc(F)cc1)S(=O)(=O)c1cnnc(C)c1

>  <aimnet_interaction_kcal_mol>  (8) 
-44.13805738682958

$$$$
L3:Q15878:107192
     RDKit          3D

 36 37  0  0  0  0  0  0  0  0999 V2000
  142.7375  174.6499  160.7931 N   0  0  0  0  0  0  0  0  0  0  0  0
  143.1312  174.3267  159.4164 C   0  0  0  0  0  0  0  0  0  0  0  0
  143.2543  176.1526  161.3426 S   0  0  0  0  0  0  0  0  0  0  0  0
  142.6405  176.3958  162.6605 O   0  0  0  0  0  0  0  0  0  0  0  0
  143.1228  177.1239  160.2471 O   0  0  0  0  0  0  0  0  0  0  0  0
  145.0185  175.9066  161.6338 C   0  0  0  0  0  0  0  0  0  0  0  0
  145.4927  175.6859  162.9194 C   0  0  0  0  0  0  0  0  0  0  0  0
  146.7575  175.3317  163.1721 N   0  0  0  0  0  0  0  0  0  0  0  0
  147.5902  175.2524  162.1404 C   0  0  0  0  0  0  0  0  0  0  0  0
  147.2102  175.5643  160.8334 C   0  0  0  0  0  0  0  0  0  0  0  0
  145.8828  175.8796  160.5617 C   0  0  0  0  0  0  0  0  0  0  0  0
  148.1756  175.5742  159.7955 C   0  0  0  0  0  0  0  0  0  0  0  0
  148.9830  175.6166  158.9670 N   0  0  0  0  0  0  0  0  0  0  0  0
  141.4491  173.4695  162.5248 C   0  0  0  0  0  0  0  0  0  0  0  0
  142.7926  173.5751  161.8324 C   0  0  1  0  0  0  0  0  0  0  0  0
  143.3348  172.2763  161.2928 C   0  0  0  0  0  0  0  0  0  0  0  0
  142.5142  171.2549  160.8337 C   0  0  0  0  0  0  0  0  0  0  0  0
  143.0436  170.1090  160.2615 C   0  0  0  0  0  0  0  0  0  0  0  0
  144.4211  169.9754  160.1990 C   0  0  0  0  0  0  0  0  0  0  0  0
  145.1462  168.5350  159.4977 Cl  0  0  0  0  0  0  0  0  0  0  0  0
  145.2659  170.9658  160.6640 C   0  0  0  0  0  0  0  0  0  0  0  0
  144.7117  172.1068  161.2146 C   0  0  0  0  0  0  0  0  0  0  0  0
  142.5499  173.4726  159.0925 H   0  0  0  0  0  0  0  0  0  0  0  0
  144.1808  174.0710  159.2813 H   0  0  0  0  0  0  0  0  0  0  0  0
  142.9011  175.1797  158.7903 H   0  0  0  0  0  0  0  0  0  0  0  0
  144.8203  175.7860  163.7612 H   0  0  0  0  0  0  0  0  0  0  0  0
  148.6028  174.9334  162.3381 H   0  0  0  0  0  0  0  0  0  0  0  0
  145.5520  176.0856  159.5553 H   0  0  0  0  0  0  0  0  0  0  0  0
  141.4877  172.7008  163.2896 H   0  0  0  0  0  0  0  0  0  0  0  0
  140.6582  173.1949  161.8323 H   0  0  0  0  0  0  0  0  0  0  0  0
  141.1893  174.4160  162.9867 H   0  0  0  0  0  0  0  0  0  0  0  0
  143.4967  173.9130  162.5886 H   0  0  0  0  0  0  0  0  0  0  0  0
  141.4429  171.3289  160.9432 H   0  0  0  0  0  0  0  0  0  0  0  0
  142.3995  169.3341  159.8724 H   0  0  0  0  0  0  0  0  0  0  0  0
  146.3332  170.8566  160.5556 H   0  0  0  0  0  0  0  0  0  0  0  0
  145.3744  172.8879  161.5664 H   0  0  0  0  0  0  0  0  0  0  0  0
  1  2  1  0
  1  3  1  0
  2 23  1  0
  2 24  1  0
  2 25  1  0
  3  4  2  0
  3  5  2  0
  3  6  1  0
  6  7  2  0
  7  8  1  0
  7 26  1  0
  8  9  2  0
  9 10  1  0
  9 27  1  0
 10 12  1  0
 10 11  2  0
 11  6  1  0
 11 28  1  0
 12 13  3  0
 14 15  1  0
 14 29  1  0
 14 30  1  0
 14 31  1  0
 15 16  1  0
 15  1  1  0
 15 32  1  1
 16 17  2  0
 17 18  1  0
 17 33  1  0
 18 19  2  0
 18 34  1  0
 19 20  1  0
 19 21  1  0
 21 22  2  0
 21 35  1  0
 22 16  1  0
 22 36  1  0
M  END
>  <minimizedAffinity>  (9) 
-6.79453

>  <mol_id>  (9) 
107192

>  <source_index>  (9) 
8

>  <layer>  (9) 
L3

>  <uniprot>  (9) 
Q15878

>  <paff>  (9) 
7.5900999999999996

>  <smiles>  (9) 
C[C@@H](c1ccc(Cl)cc1)N(C)S(=O)(=O)c1cncc(C#N)c1

>  <aimnet_interaction_kcal_mol>  (9) 
-46.43811353239893

$$$$
L3:Q15878:123336
     RDKit          3D

 37 38  0  0  0  0  0  0  0  0999 V2000
  144.8078  172.1461  162.6324 C   0  0  2  0  0  0  0  0  0  0  0  0
  145.7683  173.0808  161.9197 C   0  0  0  0  0  0  0  0  0  0  0  0
  145.7877  174.4229  162.3003 C   0  0  0  0  0  0  0  0  0  0  0  0
  146.4374  175.3677  161.5265 C   0  0  0  0  0  0  0  0  0  0  0  0
  147.0984  174.9713  160.3697 C   0  0  0  0  0  0  0  0  0  0  0  0
  147.1374  173.6329  160.0173 C   0  0  0  0  0  0  0  0  0  0  0  0
  146.5028  172.6932  160.8078 C   0  0  0  0  0  0  0  0  0  0  0  0
  147.7327  175.9930  159.4804 C   0  0  0  0  0  0  0  0  0  0  0  0
  148.6938  176.7133  160.1483 F   0  0  0  0  0  0  0  0  0  0  0  0
  146.8424  176.8853  158.9978 F   0  0  0  0  0  0  0  0  0  0  0  0
  148.3590  175.4442  158.4193 F   0  0  0  0  0  0  0  0  0  0  0  0
  145.3246  171.6044  163.9800 C   0  0  0  0  0  0  0  0  0  0  0  0
  144.3157  171.1686  164.7408 F   0  0  0  0  0  0  0  0  0  0  0  0
  146.2348  170.6155  163.8857 F   0  0  0  0  0  0  0  0  0  0  0  0
  145.9189  172.6235  164.6641 F   0  0  0  0  0  0  0  0  0  0  0  0
  144.8582  169.9236  161.3475 C   0  0  0  0  0  0  0  0  0  0  0  0
  144.1534  171.0986  161.8685 N   0  0  0  0  0  0  0  0  0  0  0  0
  143.0006  171.6156  160.7268 S   0  0  0  0  0  0  0  0  0  0  0  0
  143.6711  172.1965  159.5563 O   0  0  0  0  0  0  0  0  0  0  0  0
  142.0516  170.5007  160.6162 O   0  0  0  0  0  0  0  0  0  0  0  0
  142.1553  172.9718  161.5521 C   0  0  0  0  0  0  0  0  0  0  0  0
  142.4501  174.2953  161.2611 C   0  0  0  0  0  0  0  0  0  0  0  0
  141.6629  175.2825  161.7031 N   0  0  0  0  0  0  0  0  0  0  0  0
  140.6128  174.9221  162.4384 C   0  0  0  0  0  0  0  0  0  0  0  0
  140.2630  173.6830  162.7894 N   0  0  0  0  0  0  0  0  0  0  0  0
  141.0456  172.7056  162.3306 C   0  0  0  0  0  0  0  0  0  0  0  0
  144.0008  172.7840  162.9857 H   0  0  0  0  0  0  0  0  0  0  0  0
  145.2724  174.7370  163.1997 H   0  0  0  0  0  0  0  0  0  0  0  0
  146.4108  176.4131  161.8039 H   0  0  0  0  0  0  0  0  0  0  0  0
  147.6153  173.3266  159.1013 H   0  0  0  0  0  0  0  0  0  0  0  0
  146.5461  171.6604  160.5042 H   0  0  0  0  0  0  0  0  0  0  0  0
  145.7067  169.6852  161.9743 H   0  0  0  0  0  0  0  0  0  0  0  0
  145.2019  170.0734  160.3248 H   0  0  0  0  0  0  0  0  0  0  0  0
  144.1702  169.0845  161.3579 H   0  0  0  0  0  0  0  0  0  0  0  0
  143.3051  174.5579  160.6478 H   0  0  0  0  0  0  0  0  0  0  0  0
  139.9712  175.7230  162.7912 H   0  0  0  0  0  0  0  0  0  0  0  0
  140.7923  171.6897  162.5818 H   0  0  0  0  0  0  0  0  0  0  0  0
  1  2  1  0
  1 12  1  0
  1 27  1  1
  2  3  2  0
  3  4  1  0
  3 28  1  0
  4  5  2  0
  4 29  1  0
  5  8  1  0
  5  6  1  0
  6  7  2  0
  6 30  1  0
  7  2  1  0
  7 31  1  0
  8  9  1  0
  8 10  1  0
  8 11  1  0
 12 13  1  0
 12 14  1  0
 12 15  1  0
 16 17  1  0
 16 32  1  0
 16 33  1  0
 16 34  1  0
 17  1  1  0
 17 18  1  0
 18 19  2  0
 18 20  2  0
 18 21  1  0
 21 22  2  0
 22 23  1  0
 22 35  1  0
 23 24  2  0
 24 25  1  0
 24 36  1  0
 25 26  2  0
 26 21  1  0
 26 37  1  0
M  END
>  <minimizedAffinity>  (10) 
-7.72921

>  <mol_id>  (10) 
123336

>  <source_index>  (10) 
9

>  <layer>  (10) 
L3

>  <uniprot>  (10) 
Q15878

>  <paff>  (10) 
7.2298999999999998

>  <smiles>  (10) 
CN(C(c1ccc(C(F)(F)F)cc1)C(F)(F)F)S(=O)(=O)c1cncnc1

>  <aimnet_interaction_kcal_mol>  (10) 
-28.11292843613214

$$$$
