L3:Q15878:4124
     RDKit          3D

 47 48  0  0  0  0  0  0  0  0999 V2000
  146.3066  174.4612  160.7479 C   0  0  1  0  0  0  0  0  0  0  0  0
  145.5237  175.4605  159.8864 C   0  0  0  0  0  0  0  0  0  0  0  0
  146.1414  176.3244  158.9672 C   0  0  0  0  0  0  0  0  0  0  0  0
  145.3891  177.1986  158.1684 C   0  0  0  0  0  0  0  0  0  0  0  0
  144.0008  177.2261  158.2657 C   0  0  0  0  0  0  0  0  0  0  0  0
  143.3729  176.3704  159.1675 C   0  0  0  0  0  0  0  0  0  0  0  0
  144.1210  175.4998  159.9661 C   0  0  0  0  0  0  0  0  0  0  0  0
  143.1562  178.0236  157.5455 O   0  0  0  0  0  0  0  0  0  0  0  0
  143.6691  179.2785  157.1169 C   0  0  0  0  0  0  0  0  0  0  0  0
  147.8485  174.6165  160.7517 C   0  0  0  0  0  0  0  0  0  0  0  0
  148.2694  175.8677  161.0259 F   0  0  0  0  0  0  0  0  0  0  0  0
  148.4008  173.7986  161.6882 F   0  0  0  0  0  0  0  0  0  0  0  0
  148.3908  174.2517  159.5649 F   0  0  0  0  0  0  0  0  0  0  0  0
  145.7140  174.2768  162.1382 N   0  0  0  0  0  0  0  0  0  0  0  0
  145.0002  172.8197  162.5731 S   0  0  0  0  0  0  0  0  0  0  0  0
  143.5892  173.0828  162.7638 O   0  0  0  0  0  0  0  0  0  0  0  0
  145.7903  172.2585  163.6463 O   0  0  0  0  0  0  0  0  0  0  0  0
  145.1601  171.6988  161.1528 C   0  0  0  0  0  0  0  0  0  0  0  0
  143.9755  171.7782  160.1879 C   0  0  0  0  0  0  0  0  0  0  0  0
  143.8315  170.4736  159.4225 C   0  0  0  0  0  0  0  0  0  0  0  0
  143.5535  169.3676  160.2783 O   0  0  0  0  0  0  0  0  0  0  0  0
  144.0699  169.4724  161.6058 C   0  0  0  0  0  0  0  0  0  0  0  0
  145.3715  170.2563  161.6534 C   0  0  0  0  0  0  0  0  0  0  0  0
  146.4698  175.9071  163.8359 C   0  0  0  0  0  0  0  0  0  0  0  0
  145.3698  175.5193  162.8622 C   0  0  0  0  0  0  0  0  0  0  0  0
  146.1666  173.5363  160.2285 H   0  0  0  0  0  0  0  0  0  0  0  0
  147.1695  176.3159  158.8776 H   0  0  0  0  0  0  0  0  0  0  0  0
  145.8685  177.8259  157.5038 H   0  0  0  0  0  0  0  0  0  0  0  0
  142.3440  176.3790  159.2472 H   0  0  0  0  0  0  0  0  0  0  0  0
  143.6339  174.8742  160.6266 H   0  0  0  0  0  0  0  0  0  0  0  0
  142.9155  179.8030  156.5675 H   0  0  0  0  0  0  0  0  0  0  0  0
  144.5220  179.1201  156.4905 H   0  0  0  0  0  0  0  0  0  0  0  0
  143.9558  179.8569  157.9702 H   0  0  0  0  0  0  0  0  0  0  0  0
  146.0151  172.0134  160.5916 H   0  0  0  0  0  0  0  0  0  0  0  0
  144.1370  172.5778  159.4955 H   0  0  0  0  0  0  0  0  0  0  0  0
  143.0810  171.9540  160.7481 H   0  0  0  0  0  0  0  0  0  0  0  0
  144.7439  170.2809  158.8978 H   0  0  0  0  0  0  0  0  0  0  0  0
  143.0064  170.5802  158.7497 H   0  0  0  0  0  0  0  0  0  0  0  0
  144.2461  168.4879  161.9861 H   0  0  0  0  0  0  0  0  0  0  0  0
  143.3490  169.9949  162.1993 H   0  0  0  0  0  0  0  0  0  0  0  0
  146.0957  169.7719  161.0322 H   0  0  0  0  0  0  0  0  0  0  0  0
  145.7139  170.2915  162.6665 H   0  0  0  0  0  0  0  0  0  0  0  0
  146.1948  176.8074  164.3446 H   0  0  0  0  0  0  0  0  0  0  0  0
  147.3819  176.0651  163.2992 H   0  0  0  0  0  0  0  0  0  0  0  0
  146.6075  175.1219  164.5497 H   0  0  0  0  0  0  0  0  0  0  0  0
  145.2347  176.3103  162.1544 H   0  0  0  0  0  0  0  0  0  0  0  0
  144.4693  175.3521  163.4155 H   0  0  0  0  0  0  0  0  0  0  0  0
  1  2  1  0
  1 10  1  0
  1 26  1  6
  2  3  2  0
  3  4  1  0
  3 27  1  0
  4  5  2  0
  4 28  1  0
  5  8  1  0
  5  6  1  0
  6  7  2  0
  6 29  1  0
  7  2  1  0
  7 30  1  0
  8  9  1  0
  9 31  1  0
  9 32  1  0
  9 33  1  0
 10 11  1  0
 10 12  1  0
 10 13  1  0
 14  1  1  0
 14 15  1  0
 15 16  2  0
 15 17  2  0
 15 18  1  0
 18 19  1  0
 18 34  1  0
 19 20  1  0
 19 35  1  0
 19 36  1  0
 20 21  1  0
 20 37  1  0
 20 38  1  0
 21 22  1  0
 22 23  1  0
 22 39  1  0
 22 40  1  0
 23 18  1  0
 23 41  1  0
 23 42  1  0
 24 25  1  0
 24 43  1  0
 24 44  1  0
 24 45  1  0
 25 14  1  0
 25 46  1  0
 25 47  1  0
M  END
>  <minimizedAffinity>  (1) 
-6.61787

>  <mol_id>  (1) 
4124

>  <source_index>  (1) 
0

>  <layer>  (1) 
L3

>  <uniprot>  (1) 
Q15878

>  <paff>  (1) 
6.1101000000000001

>  <smiles>  (1) 
CCN(C(c1ccc(OC)cc1)C(F)(F)F)S(=O)(=O)C1CCOCC1

$$$$
L3:Q15878:12360
     RDKit          3D

 41 43  0  0  0  0  0  0  0  0999 V2000
  145.1198  175.7634  161.8863 S   0  0  0  0  0  0  0  0  0  0  0  0
  145.1753  176.1216  160.4856 O   0  0  0  0  0  0  0  0  0  0  0  0
  145.9056  176.4756  162.8723 O   0  0  0  0  0  0  0  0  0  0  0  0
  143.4116  175.8477  162.3689 C   0  0  0  0  0  0  0  0  0  0  0  0
  142.9347  176.9658  163.0670 C   0  0  0  0  0  0  0  0  0  0  0  0
  141.5903  177.0521  163.4467 C   0  0  0  0  0  0  0  0  0  0  0  0
  140.7750  175.9771  163.0869 C   0  0  0  0  0  0  0  0  0  0  0  0
  139.4479  175.7045  163.2718 N   0  0  0  0  0  0  0  0  0  0  0  0
  139.1007  174.5204  162.7432 N   0  0  0  0  0  0  0  0  0  0  0  0
  140.1881  173.9954  162.1923 N   0  0  0  0  0  0  0  0  0  0  0  0
  141.2266  174.8652  162.3867 C   0  0  0  0  0  0  0  0  0  0  0  0
  142.5699  174.7850  162.0052 C   0  0  0  0  0  0  0  0  0  0  0  0
  138.7379  176.2583  163.7346 H   0  0  0  0  0  0  0  0  0  0  0  0
  145.4700  174.0997  162.0412 N   0  0  0  0  0  0  0  0  0  0  0  0
  145.5793  172.6356  164.0279 C   0  0  0  0  0  0  0  0  0  0  0  0
  146.2947  173.7047  163.2180 C   0  0  0  0  0  0  0  0  0  0  0  0
  145.8214  173.4201  160.7477 C   0  0  1  0  0  0  0  0  0  0  0  0
  147.3367  173.3774  160.5107 C   0  0  0  0  0  0  0  0  0  0  0  0
  145.1072  172.0765  160.6022 C   0  0  0  0  0  0  0  0  0  0  0  0
  145.8556  170.8971  160.7915 C   0  0  0  0  0  0  0  0  0  0  0  0
  145.2613  169.6414  160.6583 C   0  0  0  0  0  0  0  0  0  0  0  0
  143.9154  169.5551  160.3318 C   0  0  0  0  0  0  0  0  0  0  0  0
  143.3423  168.3516  160.2012 F   0  0  0  0  0  0  0  0  0  0  0  0
  143.1545  170.7001  160.1344 C   0  0  0  0  0  0  0  0  0  0  0  0
  143.7475  171.9586  160.2669 C   0  0  0  0  0  0  0  0  0  0  0  0
  143.5821  177.7339  163.3036 H   0  0  0  0  0  0  0  0  0  0  0  0
  141.2219  177.8655  163.9641 H   0  0  0  0  0  0  0  0  0  0  0  0
  142.9287  173.9748  161.4761 H   0  0  0  0  0  0  0  0  0  0  0  0
  146.1821  172.3619  164.8685 H   0  0  0  0  0  0  0  0  0  0  0  0
  145.4119  171.7754  163.4139 H   0  0  0  0  0  0  0  0  0  0  0  0
  144.6404  173.0169  164.3713 H   0  0  0  0  0  0  0  0  0  0  0  0
  147.2339  173.3208  162.8781 H   0  0  0  0  0  0  0  0  0  0  0  0
  146.4523  174.5633  163.8368 H   0  0  0  0  0  0  0  0  0  0  0  0
  145.4446  174.0179  159.9442 H   0  0  0  0  0  0  0  0  0  0  0  0
  147.8013  172.7930  161.2772 H   0  0  0  0  0  0  0  0  0  0  0  0
  147.7294  174.3725  160.5335 H   0  0  0  0  0  0  0  0  0  0  0  0
  147.5361  172.9370  159.5562 H   0  0  0  0  0  0  0  0  0  0  0  0
  146.8570  170.9631  161.0320 H   0  0  0  0  0  0  0  0  0  0  0  0
  145.8181  168.7843  160.8014 H   0  0  0  0  0  0  0  0  0  0  0  0
  142.1547  170.6218  159.8907 H   0  0  0  0  0  0  0  0  0  0  0  0
  143.1820  172.8088  160.1172 H   0  0  0  0  0  0  0  0  0  0  0  0
  1  2  2  0
  1  3  2  0
  1  4  1  0
  4  5  2  0
  5  6  1  0
  5 26  1  0
  6  7  2  0
  6 27  1  0
  7  8  1  0
  8  9  1  0
  8 13  1  0
  9 10  2  0
 10 11  1  0
 11 12  2  0
 11  7  1  0
 12  4  1  0
 12 28  1  0
 14 17  1  0
 14  1  1  0
 15 16  1  0
 15 29  1  0
 15 30  1  0
 15 31  1  0
 16 14  1  0
 16 32  1  0
 16 33  1  0
 17 18  1  0
 17 19  1  0
 17 34  1  6
 18 35  1  0
 18 36  1  0
 18 37  1  0
 19 20  2  0
 20 21  1  0
 20 38  1  0
 21 22  2  0
 21 39  1  0
 22 23  1  0
 22 24  1  0
 24 25  2  0
 24 40  1  0
 25 19  1  0
 25 41  1  0
M  END
>  <minimizedAffinity>  (2) 
-7.77259

>  <mol_id>  (2) 
12360

>  <source_index>  (2) 
1

>  <layer>  (2) 
L3

>  <uniprot>  (2) 
Q15878

>  <paff>  (2) 
6.7798999999999996

>  <smiles>  (2) 
CCN([C@@H](C)c1ccc(F)cc1)S(=O)(=O)c1ccc2[nH]nnc2c1

$$$$
L3:Q15878:19284
     RDKit          3D

 37 38  0  0  0  0  0  0  0  0999 V2000
  144.4314  173.2288  162.7473 N   0  0  0  0  0  0  0  0  0  0  0  0
  145.0829  174.7808  162.8977 S   0  0  0  0  0  0  0  0  0  0  0  0
  144.0623  175.6726  163.3938 O   0  0  0  0  0  0  0  0  0  0  0  0
  146.3868  174.6801  163.5076 O   0  0  0  0  0  0  0  0  0  0  0  0
  145.3796  175.3891  161.3007 C   0  0  0  0  0  0  0  0  0  0  0  0
  144.4173  175.9369  160.4813 C   0  0  0  0  0  0  0  0  0  0  0  0
  145.0772  176.4417  158.9849 S   0  0  0  0  0  0  0  0  0  0  0  0
  146.6476  175.9167  159.4208 C   0  0  0  0  0  0  0  0  0  0  0  0
  146.6713  175.3719  160.6884 C   0  0  0  0  0  0  0  0  0  0  0  0
  147.7815  176.0437  158.5606 C   0  0  0  0  0  0  0  0  0  0  0  0
  148.7131  176.1563  157.8781 N   0  0  0  0  0  0  0  0  0  0  0  0
  142.0014  173.0878  162.0797 C   0  0  0  0  0  0  0  0  0  0  0  0
  143.4548  172.9709  161.6604 C   0  0  0  0  0  0  0  0  0  0  0  0
  145.3433  172.0647  163.0914 C   0  0  2  0  0  0  0  0  0  0  0  0
  145.1861  170.9598  162.0445 C   0  0  0  0  0  0  0  0  0  0  0  0
  146.0232  170.9712  160.9100 C   0  0  0  0  0  0  0  0  0  0  0  0
  145.9033  169.9930  159.9208 C   0  0  0  0  0  0  0  0  0  0  0  0
  144.9404  169.0024  160.0517 C   0  0  0  0  0  0  0  0  0  0  0  0
  144.8231  168.0659  159.1018 F   0  0  0  0  0  0  0  0  0  0  0  0
  144.0932  168.9755  161.1507 C   0  0  0  0  0  0  0  0  0  0  0  0
  144.2119  169.9526  162.1429 C   0  0  0  0  0  0  0  0  0  0  0  0
  145.3494  171.5998  164.5811 C   0  0  0  0  0  0  0  0  0  0  0  0
  144.1871  171.0759  165.0099 F   0  0  0  0  0  0  0  0  0  0  0  0
  145.6573  172.6335  165.4020 F   0  0  0  0  0  0  0  0  0  0  0  0
  146.3110  170.6616  164.7783 F   0  0  0  0  0  0  0  0  0  0  0  0
  143.4221  176.0312  160.7378 H   0  0  0  0  0  0  0  0  0  0  0  0
  147.5199  174.9969  161.1403 H   0  0  0  0  0  0  0  0  0  0  0  0
  141.3704  172.8872  161.2391 H   0  0  0  0  0  0  0  0  0  0  0  0
  141.8124  174.0777  162.4393 H   0  0  0  0  0  0  0  0  0  0  0  0
  141.7963  172.3810  162.8564 H   0  0  0  0  0  0  0  0  0  0  0  0
  143.6340  173.6760  160.8758 H   0  0  0  0  0  0  0  0  0  0  0  0
  143.6022  171.9566  161.3531 H   0  0  0  0  0  0  0  0  0  0  0  0
  146.3477  172.4283  163.0285 H   0  0  0  0  0  0  0  0  0  0  0  0
  146.7341  171.7125  160.8093 H   0  0  0  0  0  0  0  0  0  0  0  0
  146.5264  170.0066  159.0982 H   0  0  0  0  0  0  0  0  0  0  0  0
  143.3779  168.2364  161.2350 H   0  0  0  0  0  0  0  0  0  0  0  0
  143.5772  169.9339  162.9564 H   0  0  0  0  0  0  0  0  0  0  0  0
  1 14  1  0
  1  2  1  0
  2  3  2  0
  2  4  2  0
  2  5  1  0
  5  6  2  0
  6  7  1  0
  6 26  1  0
  7  8  1  0
  8 10  1  0
  8  9  2  0
  9  5  1  0
  9 27  1  0
 10 11  3  0
 12 13  1  0
 12 28  1  0
 12 29  1  0
 12 30  1  0
 13  1  1  0
 13 31  1  0
 13 32  1  0
 14 15  1  0
 14 22  1  0
 14 33  1  6
 15 16  2  0
 16 17  1  0
 16 34  1  0
 17 18  2  0
 17 35  1  0
 18 19  1  0
 18 20  1  0
 20 21  2  0
 20 36  1  0
 21 15  1  0
 21 37  1  0
 22 23  1  0
 22 24  1  0
 22 25  1  0
M  END
>  <minimizedAffinity>  (3) 
-7.73375

>  <mol_id>  (3) 
19284

>  <source_index>  (3) 
2

>  <layer>  (3) 
L3

>  <uniprot>  (3) 
Q15878

>  <paff>  (3) 
6.6904000000000003

>  <smiles>  (3) 
CCN([C@H](c1ccc(F)cc1)C(F)(F)F)S(=O)(=O)c1csc(C#N)c1

$$$$
L3:Q15878:45224
     RDKit          3D

 42 44  0  0  0  0  0  0  0  0999 V2000
  145.1839  173.1246  162.2357 N   0  0  0  0  0  0  0  0  0  0  0  0
  144.0107  174.3631  162.3816 S   0  0  0  0  0  0  0  0  0  0  0  0
  144.5439  175.3601  163.2817 O   0  0  0  0  0  0  0  0  0  0  0  0
  142.7351  173.7253  162.6238 O   0  0  0  0  0  0  0  0  0  0  0  0
  143.9540  175.0395  160.7587 C   0  0  0  0  0  0  0  0  0  0  0  0
  144.5288  176.2757  160.5116 C   0  0  0  0  0  0  0  0  0  0  0  0
  144.5539  176.8875  159.3052 N   0  0  0  0  0  0  0  0  0  0  0  0
  143.9363  176.2080  158.3076 C   0  0  0  0  0  0  0  0  0  0  0  0
  143.7816  176.5666  156.9489 C   0  0  0  0  0  0  0  0  0  0  0  0
  143.0765  175.5557  156.3319 C   0  0  0  0  0  0  0  0  0  0  0  0
  142.7986  174.5980  157.2750 N   0  0  0  0  0  0  0  0  0  0  0  0
  143.3199  174.9711  158.4919 C   0  0  0  0  0  0  0  0  0  0  0  0
  143.3063  174.3428  159.7370 C   0  0  0  0  0  0  0  0  0  0  0  0
  142.2849  173.7441  157.1025 H   0  0  0  0  0  0  0  0  0  0  0  0
  147.4136  173.8380  161.4591 C   0  0  0  0  0  0  0  0  0  0  0  0
  146.5660  173.4913  162.6724 C   0  0  0  0  0  0  0  0  0  0  0  0
  144.6831  171.7762  162.7724 C   0  0  1  0  0  0  0  0  0  0  0  0
  144.8494  170.6793  161.7109 C   0  0  0  0  0  0  0  0  0  0  0  0
  143.7276  169.8949  161.3726 C   0  0  0  0  0  0  0  0  0  0  0  0
  143.8192  168.8968  160.4014 C   0  0  0  0  0  0  0  0  0  0  0  0
  145.0292  168.6789  159.7578 C   0  0  0  0  0  0  0  0  0  0  0  0
  145.1179  167.7235  158.8238 F   0  0  0  0  0  0  0  0  0  0  0  0
  146.1481  169.4420  160.0657 C   0  0  0  0  0  0  0  0  0  0  0  0
  146.0604  170.4423  161.0375 C   0  0  0  0  0  0  0  0  0  0  0  0
  145.1726  171.4053  164.2044 C   0  0  0  0  0  0  0  0  0  0  0  0
  145.3976  172.4985  164.9642 F   0  0  0  0  0  0  0  0  0  0  0  0
  146.3118  170.6750  164.1811 F   0  0  0  0  0  0  0  0  0  0  0  0
  144.2430  170.6699  164.8650 F   0  0  0  0  0  0  0  0  0  0  0  0
  144.9699  176.7655  161.3057 H   0  0  0  0  0  0  0  0  0  0  0  0
  144.1324  177.4276  156.5010 H   0  0  0  0  0  0  0  0  0  0  0  0
  142.8054  175.5244  155.3366 H   0  0  0  0  0  0  0  0  0  0  0  0
  142.8508  173.4298  159.8917 H   0  0  0  0  0  0  0  0  0  0  0  0
  148.4012  174.0996  161.7770 H   0  0  0  0  0  0  0  0  0  0  0  0
  146.9745  174.6654  160.9419 H   0  0  0  0  0  0  0  0  0  0  0  0
  147.4617  172.9931  160.8044 H   0  0  0  0  0  0  0  0  0  0  0  0
  146.5194  174.3367  163.3266 H   0  0  0  0  0  0  0  0  0  0  0  0
  147.0062  172.6622  163.1860 H   0  0  0  0  0  0  0  0  0  0  0  0
  143.6320  171.8803  162.9435 H   0  0  0  0  0  0  0  0  0  0  0  0
  142.8274  170.0609  161.8492 H   0  0  0  0  0  0  0  0  0  0  0  0
  142.9935  168.3252  160.1637 H   0  0  0  0  0  0  0  0  0  0  0  0
  147.0415  169.2708  159.5783 H   0  0  0  0  0  0  0  0  0  0  0  0
  146.8912  171.0116  161.2626 H   0  0  0  0  0  0  0  0  0  0  0  0
  1 17  1  0
  1  2  1  0
  2  3  2  0
  2  4  2  0
  2  5  1  0
  5  6  2  0
  6  7  1  0
  6 29  1  0
  7  8  2  0
  8  9  1  0
  9 10  2  0
  9 30  1  0
 10 11  1  0
 10 31  1  0
 11 12  1  0
 11 14  1  0
 12 13  2  0
 12  8  1  0
 13  5  1  0
 13 32  1  0
 15 16  1  0
 15 33  1  0
 15 34  1  0
 15 35  1  0
 16  1  1  0
 16 36  1  0
 16 37  1  0
 17 18  1  0
 17 25  1  0
 17 38  1  1
 18 19  2  0
 19 20  1  0
 19 39  1  0
 20 21  2  0
 20 40  1  0
 21 22  1  0
 21 23  1  0
 23 24  2  0
 23 41  1  0
 24 18  1  0
 24 42  1  0
 25 26  1  0
 25 27  1  0
 25 28  1  0
M  END
>  <minimizedAffinity>  (4) 
-8.34757

>  <mol_id>  (4) 
45224

>  <source_index>  (4) 
3

>  <layer>  (4) 
L3

>  <uniprot>  (4) 
Q15878

>  <paff>  (4) 
6.6108000000000002

>  <smiles>  (4) 
CCN(C(c1ccc(F)cc1)C(F)(F)F)S(=O)(=O)c1cnc2cc[nH]c2c1

$$$$
L3:Q15878:57801
     RDKit          3D

 38 40  0  0  0  0  0  0  0  0999 V2000
  144.6349  174.6064  162.6786 S   0  0  0  0  0  0  0  0  0  0  0  0
  144.3848  175.9539  163.1545 O   0  0  0  0  0  0  0  0  0  0  0  0
  144.9603  173.5617  163.6302 O   0  0  0  0  0  0  0  0  0  0  0  0
  145.9082  174.6746  161.4645 C   0  0  0  0  0  0  0  0  0  0  0  0
  146.9336  173.6312  161.3982 C   0  0  0  0  0  0  0  0  0  0  0  0
  147.9013  173.7239  160.4690 C   0  0  0  0  0  0  0  0  0  0  0  0
  147.9134  174.8004  159.5832 N   0  0  0  0  0  0  0  0  0  0  0  0
  148.7944  175.0817  158.5941 N   0  0  0  0  0  0  0  0  0  0  0  0
  148.4193  176.2065  157.9970 N   0  0  0  0  0  0  0  0  0  0  0  0
  147.2863  176.6583  158.6071 C   0  0  0  0  0  0  0  0  0  0  0  0
  146.9400  175.8002  159.6203 C   0  0  0  0  0  0  0  0  0  0  0  0
  145.9093  175.7131  160.5983 C   0  0  0  0  0  0  0  0  0  0  0  0
  143.2316  174.1129  161.8639 N   0  0  0  0  0  0  0  0  0  0  0  0
  142.2950  175.1445  161.3997 C   0  0  0  0  0  0  0  0  0  0  0  0
  141.1446  172.7600  162.0463 C   0  0  0  0  0  0  0  0  0  0  0  0
  142.6755  172.7636  162.1525 C   0  0  1  0  0  0  0  0  0  0  0  0
  143.3890  171.6997  161.3214 C   0  0  0  0  0  0  0  0  0  0  0  0
  143.2431  171.5703  159.9312 C   0  0  0  0  0  0  0  0  0  0  0  0
  143.9307  170.5737  159.2298 C   0  0  0  0  0  0  0  0  0  0  0  0
  144.7733  169.6977  159.9092 C   0  0  0  0  0  0  0  0  0  0  0  0
  145.6165  168.4756  159.0407 Cl  0  0  0  0  0  0  0  0  0  0  0  0
  144.9365  169.8084  161.2856 C   0  0  0  0  0  0  0  0  0  0  0  0
  144.2491  170.8031  161.9855 C   0  0  0  0  0  0  0  0  0  0  0  0
  146.9139  172.8358  162.0554 H   0  0  0  0  0  0  0  0  0  0  0  0
  148.6339  172.9993  160.4117 H   0  0  0  0  0  0  0  0  0  0  0  0
  146.7696  177.5129  158.3471 H   0  0  0  0  0  0  0  0  0  0  0  0
  145.1720  176.4336  160.6457 H   0  0  0  0  0  0  0  0  0  0  0  0
  141.4663  174.6788  160.9084 H   0  0  0  0  0  0  0  0  0  0  0  0
  142.7945  175.7976  160.7150 H   0  0  0  0  0  0  0  0  0  0  0  0
  141.9418  175.7086  162.2375 H   0  0  0  0  0  0  0  0  0  0  0  0
  140.7747  171.7787  162.2586 H   0  0  0  0  0  0  0  0  0  0  0  0
  140.8551  173.0438  161.0561 H   0  0  0  0  0  0  0  0  0  0  0  0
  140.7366  173.4550  162.7502 H   0  0  0  0  0  0  0  0  0  0  0  0
  142.8729  172.5014  163.1709 H   0  0  0  0  0  0  0  0  0  0  0  0
  142.6219  172.2173  159.4209 H   0  0  0  0  0  0  0  0  0  0  0  0
  143.8132  170.4878  158.2081 H   0  0  0  0  0  0  0  0  0  0  0  0
  145.5622  169.1591  161.7876 H   0  0  0  0  0  0  0  0  0  0  0  0
  144.3736  170.8825  163.0069 H   0  0  0  0  0  0  0  0  0  0  0  0
  1  2  2  0
  1  3  2  0
  1  4  1  0
  4  5  1  0
  5  6  2  0
  5 24  1  0
  6  7  1  0
  6 25  1  0
  7  8  1  0
  8  9  2  0
  9 10  1  0
 10 11  2  0
 10 26  1  0
 11 12  1  0
 11  7  1  0
 12  4  2  0
 12 27  1  0
 13 14  1  0
 13  1  1  0
 14 28  1  0
 14 29  1  0
 14 30  1  0
 15 16  1  0
 15 31  1  0
 15 32  1  0
 15 33  1  0
 16 17  1  0
 16 13  1  0
 16 34  1  1
 17 18  2  0
 18 19  1  0
 18 35  1  0
 19 20  2  0
 19 36  1  0
 20 21  1  0
 20 22  1  0
 22 23  2  0
 22 37  1  0
 23 17  1  0
 23 38  1  0
M  END
>  <minimizedAffinity>  (5) 
-7.83860

>  <mol_id>  (5) 
57801

>  <source_index>  (5) 
4

>  <layer>  (5) 
L3

>  <uniprot>  (5) 
Q15878

>  <paff>  (5) 
6.5406000000000004

>  <smiles>  (5) 
C[C@@H](c1ccc(Cl)cc1)N(C)S(=O)(=O)c1ccn2nncc2c1

$$$$
L3:Q15878:67332
     RDKit          3D

 39 41  0  0  0  0  0  0  0  0999 V2000
  144.1021  171.4951  161.6704 N   0  0  0  0  0  0  0  0  0  0  0  0
  142.8715  172.0627  160.6674 S   0  0  0  0  0  0  0  0  0  0  0  0
  141.8474  171.0478  160.5557 O   0  0  0  0  0  0  0  0  0  0  0  0
  143.4760  172.6446  159.4882 O   0  0  0  0  0  0  0  0  0  0  0  0
  142.1643  173.3946  161.5931 C   0  0  0  0  0  0  0  0  0  0  0  0
  141.1492  173.1023  162.5146 C   0  0  0  0  0  0  0  0  0  0  0  0
  140.4823  173.9868  163.3086 N   0  0  0  0  0  0  0  0  0  0  0  0
  140.8595  175.2870  163.1213 C   0  0  0  0  0  0  0  0  0  0  0  0
  140.3292  176.3029  163.8020 N   0  0  0  0  0  0  0  0  0  0  0  0
  141.0915  177.6633  163.2222 S   0  0  0  0  0  0  0  0  0  0  0  0
  142.1314  176.9950  162.1017 N   0  0  0  0  0  0  0  0  0  0  0  0
  141.9112  175.6703  162.1296 C   0  0  0  0  0  0  0  0  0  0  0  0
  142.5731  174.7079  161.3401 C   0  0  0  0  0  0  0  0  0  0  0  0
  145.1761  169.5818  160.5529 C   0  0  0  0  0  0  0  0  0  0  0  0
  144.3669  170.0450  161.7538 C   0  0  0  0  0  0  0  0  0  0  0  0
  144.6410  172.3794  162.7382 C   0  0  1  0  0  0  0  0  0  0  0  0
  144.9932  171.5854  164.0034 C   0  0  0  0  0  0  0  0  0  0  0  0
  145.7533  173.2747  162.2020 C   0  0  0  0  0  0  0  0  0  0  0  0
  145.9603  174.5234  162.8232 C   0  0  0  0  0  0  0  0  0  0  0  0
  146.9517  175.3951  162.3707 C   0  0  0  0  0  0  0  0  0  0  0  0
  147.7415  175.0277  161.2911 C   0  0  0  0  0  0  0  0  0  0  0  0
  148.6934  175.8618  160.8529 F   0  0  0  0  0  0  0  0  0  0  0  0
  147.5562  173.8067  160.6555 C   0  0  0  0  0  0  0  0  0  0  0  0
  146.5635  172.9322  161.1066 C   0  0  0  0  0  0  0  0  0  0  0  0
  140.8776  172.1105  162.6011 H   0  0  0  0  0  0  0  0  0  0  0  0
  143.2923  174.9500  160.6407 H   0  0  0  0  0  0  0  0  0  0  0  0
  145.3584  168.5303  160.6298 H   0  0  0  0  0  0  0  0  0  0  0  0
  146.1093  170.1047  160.5285 H   0  0  0  0  0  0  0  0  0  0  0  0
  144.6301  169.7844  159.6553 H   0  0  0  0  0  0  0  0  0  0  0  0
  144.9153  169.8381  162.6490 H   0  0  0  0  0  0  0  0  0  0  0  0
  143.4331  169.5226  161.7643 H   0  0  0  0  0  0  0  0  0  0  0  0
  143.8734  173.0549  163.0535 H   0  0  0  0  0  0  0  0  0  0  0  0
  145.7628  170.8772  163.7774 H   0  0  0  0  0  0  0  0  0  0  0  0
  144.1243  171.0683  164.3534 H   0  0  0  0  0  0  0  0  0  0  0  0
  145.3380  172.2571  164.7616 H   0  0  0  0  0  0  0  0  0  0  0  0
  145.3700  174.7968  163.6243 H   0  0  0  0  0  0  0  0  0  0  0  0
  147.0960  176.3053  162.8353 H   0  0  0  0  0  0  0  0  0  0  0  0
  148.1497  173.5459  159.8525 H   0  0  0  0  0  0  0  0  0  0  0  0
  146.4245  172.0270  160.6308 H   0  0  0  0  0  0  0  0  0  0  0  0
  1 16  1  0
  1  2  1  0
  2  3  2  0
  2  4  2  0
  2  5  1  0
  5  6  1  0
  6  7  2  0
  6 25  1  0
  7  8  1  0
  8  9  2  0
  9 10  1  0
 10 11  1  0
 11 12  2  0
 12 13  1  0
 12  8  1  0
 13  5  2  0
 13 26  1  0
 14 15  1  0
 14 27  1  0
 14 28  1  0
 14 29  1  0
 15  1  1  0
 15 30  1  0
 15 31  1  0
 16 17  1  0
 16 18  1  0
 16 32  1  1
 17 33  1  0
 17 34  1  0
 17 35  1  0
 18 19  2  0
 19 20  1  0
 19 36  1  0
 20 21  2  0
 20 37  1  0
 21 22  1  0
 21 23  1  0
 23 24  2  0
 23 38  1  0
 24 18  1  0
 24 39  1  0
M  END
>  <minimizedAffinity>  (6) 
-7.33791

>  <mol_id>  (6) 
67332

>  <source_index>  (6) 
5

>  <layer>  (6) 
L3

>  <uniprot>  (6) 
Q15878

>  <paff>  (6) 
6.8013000000000003

>  <smiles>  (6) 
CCN([C@@H](C)c1ccc(F)cc1)S(=O)(=O)c1cnc2nsnc2c1

$$$$
L3:Q15878:76146
     RDKit          3D

 42 44  0  0  0  0  0  0  0  0999 V2000
  145.1832  175.0769  161.9017 N   0  0  0  0  0  0  0  0  0  0  0  0
  143.9489  175.8397  160.9946 S   0  0  0  0  0  0  0  0  0  0  0  0
  144.2300  177.2581  160.9855 O   0  0  0  0  0  0  0  0  0  0  0  0
  143.7749  175.0897  159.7702 O   0  0  0  0  0  0  0  0  0  0  0  0
  142.5043  175.5590  161.9944 C   0  0  0  0  0  0  0  0  0  0  0  0
  141.8563  174.3222  161.9008 C   0  0  0  0  0  0  0  0  0  0  0  0
  140.7152  174.0632  162.6699 C   0  0  0  0  0  0  0  0  0  0  0  0
  140.2330  175.0695  163.5261 C   0  0  0  0  0  0  0  0  0  0  0  0
  139.1578  175.2056  164.4322 C   0  0  0  0  0  0  0  0  0  0  0  0
  139.1272  176.4037  165.0210 N   0  0  0  0  0  0  0  0  0  0  0  0
  140.1798  177.0445  164.4830 N   0  0  0  0  0  0  0  0  0  0  0  0
  140.8927  176.2932  163.5843 C   0  0  0  0  0  0  0  0  0  0  0  0
  142.0340  176.5831  162.8294 C   0  0  0  0  0  0  0  0  0  0  0  0
  140.3603  177.9989  164.7739 H   0  0  0  0  0  0  0  0  0  0  0  0
  145.7884  175.8930  164.1494 C   0  0  0  0  0  0  0  0  0  0  0  0
  146.0837  175.9952  162.6618 C   0  0  0  0  0  0  0  0  0  0  0  0
  145.9087  173.9874  161.1020 C   0  0  2  0  0  0  0  0  0  0  0  0
  145.4403  172.5933  161.5433 C   0  0  0  0  0  0  0  0  0  0  0  0
  145.0249  172.4152  162.8790 C   0  0  0  0  0  0  0  0  0  0  0  0
  144.6070  171.1652  163.3377 C   0  0  0  0  0  0  0  0  0  0  0  0
  144.6060  170.0838  162.4679 C   0  0  0  0  0  0  0  0  0  0  0  0
  144.2079  168.8830  162.9070 F   0  0  0  0  0  0  0  0  0  0  0  0
  145.0174  170.2291  161.1494 C   0  0  0  0  0  0  0  0  0  0  0  0
  145.4369  171.4790  160.6863 C   0  0  0  0  0  0  0  0  0  0  0  0
  147.4512  174.1692  160.9765 C   0  0  0  0  0  0  0  0  0  0  0  0
  147.7975  175.4570  160.7656 F   0  0  0  0  0  0  0  0  0  0  0  0
  148.1072  173.7397  162.0799 F   0  0  0  0  0  0  0  0  0  0  0  0
  147.9437  173.4677  159.9244 F   0  0  0  0  0  0  0  0  0  0  0  0
  142.2209  173.5980  161.2623 H   0  0  0  0  0  0  0  0  0  0  0  0
  140.2368  173.1508  162.6096 H   0  0  0  0  0  0  0  0  0  0  0  0
  138.4699  174.4593  164.6190 H   0  0  0  0  0  0  0  0  0  0  0  0
  142.5042  177.5002  162.8838 H   0  0  0  0  0  0  0  0  0  0  0  0
  146.4363  176.5527  164.6878 H   0  0  0  0  0  0  0  0  0  0  0  0
  145.9510  174.8875  164.4770 H   0  0  0  0  0  0  0  0  0  0  0  0
  144.7700  176.1669  164.3305 H   0  0  0  0  0  0  0  0  0  0  0  0
  147.1026  175.7220  162.4825 H   0  0  0  0  0  0  0  0  0  0  0  0
  145.9171  177.0011  162.3373 H   0  0  0  0  0  0  0  0  0  0  0  0
  145.6115  174.1010  160.0804 H   0  0  0  0  0  0  0  0  0  0  0  0
  145.0300  173.2195  163.5256 H   0  0  0  0  0  0  0  0  0  0  0  0
  144.3011  171.0459  164.3161 H   0  0  0  0  0  0  0  0  0  0  0  0
  145.0133  169.4163  160.5135 H   0  0  0  0  0  0  0  0  0  0  0  0
  145.7466  171.5849  159.7076 H   0  0  0  0  0  0  0  0  0  0  0  0
  1 17  1  0
  1  2  1  0
  2  3  2  0
  2  4  2  0
  2  5  1  0
  5  6  2  0
  6  7  1  0
  6 29  1  0
  7  8  2  0
  7 30  1  0
  8  9  1  0
  9 10  2  0
  9 31  1  0
 10 11  1  0
 11 12  1  0
 11 14  1  0
 12 13  2  0
 12  8  1  0
 13  5  1  0
 13 32  1  0
 15 16  1  0
 15 33  1  0
 15 34  1  0
 15 35  1  0
 16  1  1  0
 16 36  1  0
 16 37  1  0
 17 18  1  0
 17 25  1  0
 17 38  1  6
 18 19  2  0
 19 20  1  0
 19 39  1  0
 20 21  2  0
 20 40  1  0
 21 22  1  0
 21 23  1  0
 23 24  2  0
 23 41  1  0
 24 18  1  0
 24 42  1  0
 25 26  1  0
 25 27  1  0
 25 28  1  0
M  END
>  <minimizedAffinity>  (7) 
-7.81575

>  <mol_id>  (7) 
76146

>  <source_index>  (7) 
6

>  <layer>  (7) 
L3

>  <uniprot>  (7) 
Q15878

>  <paff>  (7) 
6.3297999999999996

>  <smiles>  (7) 
CCN(C(c1ccc(F)cc1)C(F)(F)F)S(=O)(=O)c1ccc2cn[nH]c2c1

$$$$
L3:Q15878:84015
     RDKit          3D

 40 41  0  0  0  0  0  0  0  0999 V2000
  144.8948  172.8005  163.0412 N   0  0  0  0  0  0  0  0  0  0  0  0
  145.9976  174.0506  163.2641 S   0  0  0  0  0  0  0  0  0  0  0  0
  145.5338  174.8987  164.3405 O   0  0  0  0  0  0  0  0  0  0  0  0
  147.3317  173.4882  163.2805 O   0  0  0  0  0  0  0  0  0  0  0  0
  145.8619  174.9750  161.7736 C   0  0  0  0  0  0  0  0  0  0  0  0
  144.7686  175.7857  161.5752 C   0  0  0  0  0  0  0  0  0  0  0  0
  144.6359  176.5243  160.4575 N   0  0  0  0  0  0  0  0  0  0  0  0
  145.6224  176.4953  159.5098 N   0  0  0  0  0  0  0  0  0  0  0  0
  146.7305  175.7458  159.6991 C   0  0  0  0  0  0  0  0  0  0  0  0
  147.7872  175.7887  158.6413 C   0  0  0  0  0  0  0  0  0  0  0  0
  146.8875  174.9692  160.8339 C   0  0  0  0  0  0  0  0  0  0  0  0
  145.9420  171.1213  164.5425 C   0  0  0  0  0  0  0  0  0  0  0  0
  144.6596  171.8012  164.1008 C   0  0  0  0  0  0  0  0  0  0  0  0
  144.1893  172.6499  161.7452 C   0  0  2  0  0  0  0  0  0  0  0  0
  142.6952  172.9372  161.9411 C   0  0  0  0  0  0  0  0  0  0  0  0
  144.5176  171.3265  161.0564 C   0  0  0  0  0  0  0  0  0  0  0  0
  145.8304  170.8994  160.7898 C   0  0  0  0  0  0  0  0  0  0  0  0
  146.0689  169.6788  160.1511 C   0  0  0  0  0  0  0  0  0  0  0  0
  144.9998  168.8777  159.7736 C   0  0  0  0  0  0  0  0  0  0  0  0
  145.2337  167.7097  159.1614 F   0  0  0  0  0  0  0  0  0  0  0  0
  143.6937  169.2727  160.0216 C   0  0  0  0  0  0  0  0  0  0  0  0
  143.4540  170.4912  160.6598 C   0  0  0  0  0  0  0  0  0  0  0  0
  144.0341  175.8287  162.2988 H   0  0  0  0  0  0  0  0  0  0  0  0
  147.4765  176.4422  157.8531 H   0  0  0  0  0  0  0  0  0  0  0  0
  147.9398  174.8048  158.2495 H   0  0  0  0  0  0  0  0  0  0  0  0
  148.7012  176.1498  159.0646 H   0  0  0  0  0  0  0  0  0  0  0  0
  147.7386  174.4037  160.9783 H   0  0  0  0  0  0  0  0  0  0  0  0
  145.7218  170.4080  165.3090 H   0  0  0  0  0  0  0  0  0  0  0  0
  146.6219  171.8548  164.9226 H   0  0  0  0  0  0  0  0  0  0  0  0
  146.3867  170.6216  163.7074 H   0  0  0  0  0  0  0  0  0  0  0  0
  144.2208  172.2909  164.9450 H   0  0  0  0  0  0  0  0  0  0  0  0
  144.0090  171.0496  163.7049 H   0  0  0  0  0  0  0  0  0  0  0  0
  144.5474  173.3797  161.0495 H   0  0  0  0  0  0  0  0  0  0  0  0
  142.2840  172.2316  162.6324 H   0  0  0  0  0  0  0  0  0  0  0  0
  142.1896  172.8525  161.0019 H   0  0  0  0  0  0  0  0  0  0  0  0
  142.5699  173.9278  162.3256 H   0  0  0  0  0  0  0  0  0  0  0  0
  146.6268  171.4935  161.0687 H   0  0  0  0  0  0  0  0  0  0  0  0
  147.0365  169.3744  159.9609 H   0  0  0  0  0  0  0  0  0  0  0  0
  142.9053  168.6708  159.7367 H   0  0  0  0  0  0  0  0  0  0  0  0
  142.4820  170.7850  160.8441 H   0  0  0  0  0  0  0  0  0  0  0  0
  1 14  1  0
  1  2  1  0
  2  3  2  0
  2  4  2  0
  2  5  1  0
  5  6  2  0
  6  7  1  0
  6 23  1  0
  7  8  2  0
  8  9  1  0
  9 10  1  0
  9 11  2  0
 10 24  1  0
 10 25  1  0
 10 26  1  0
 11  5  1  0
 11 27  1  0
 12 13  1  0
 12 28  1  0
 12 29  1  0
 12 30  1  0
 13  1  1  0
 13 31  1  0
 13 32  1  0
 14 15  1  0
 14 16  1  0
 14 33  1  6
 15 34  1  0
 15 35  1  0
 15 36  1  0
 16 17  2  0
 17 18  1  0
 17 37  1  0
 18 19  2  0
 18 38  1  0
 19 20  1  0
 19 21  1  0
 21 22  2  0
 21 39  1  0
 22 16  1  0
 22 40  1  0
M  END
>  <minimizedAffinity>  (8) 
-7.65931

>  <mol_id>  (8) 
84015

>  <source_index>  (8) 
7

>  <layer>  (8) 
L3

>  <uniprot>  (8) 
Q15878

>  <paff>  (8) 
6.7190000000000003

>  <smiles>  (8) 
CCN(C(C)c1ccc(F)cc1)S(=O)(=O)c1cnnc(C)c1

$$$$
L3:Q15878:107192
     RDKit          3D

 36 37  0  0  0  0  0  0  0  0999 V2000
  142.7273  174.5228  161.0737 N   0  0  0  0  0  0  0  0  0  0  0  0
  143.0644  174.2547  159.6518 C   0  0  0  0  0  0  0  0  0  0  0  0
  143.6032  175.8347  161.7229 S   0  0  0  0  0  0  0  0  0  0  0  0
  143.2537  175.9446  163.1243 O   0  0  0  0  0  0  0  0  0  0  0  0
  143.4451  176.9763  160.8486 O   0  0  0  0  0  0  0  0  0  0  0  0
  145.2856  175.3349  161.6733 C   0  0  0  0  0  0  0  0  0  0  0  0
  145.8484  174.7718  162.8057 C   0  0  0  0  0  0  0  0  0  0  0  0
  147.1408  174.3674  162.8655 N   0  0  0  0  0  0  0  0  0  0  0  0
  147.8909  174.5493  161.7503 C   0  0  0  0  0  0  0  0  0  0  0  0
  147.4133  175.1340  160.5841 C   0  0  0  0  0  0  0  0  0  0  0  0
  146.0829  175.5525  160.5502 C   0  0  0  0  0  0  0  0  0  0  0  0
  148.2637  175.2816  159.4469 C   0  0  0  0  0  0  0  0  0  0  0  0
  148.9444  175.4129  158.5168 N   0  0  0  0  0  0  0  0  0  0  0  0
  141.0846  173.0576  162.3189 C   0  0  0  0  0  0  0  0  0  0  0  0
  142.5334  173.2551  161.8613 C   0  0  1  0  0  0  0  0  0  0  0  0
  143.2005  172.0448  161.2142 C   0  0  0  0  0  0  0  0  0  0  0  0
  142.4851  171.0317  160.5542 C   0  0  0  0  0  0  0  0  0  0  0  0
  143.1494  169.9469  159.9715 C   0  0  0  0  0  0  0  0  0  0  0  0
  144.5357  169.8558  160.0511 C   0  0  0  0  0  0  0  0  0  0  0  0
  145.3495  168.5345  159.3113 Cl  0  0  0  0  0  0  0  0  0  0  0  0
  145.2641  170.8311  160.7228 C   0  0  0  0  0  0  0  0  0  0  0  0
  144.5996  171.9121  161.3080 C   0  0  0  0  0  0  0  0  0  0  0  0
  142.4877  173.4254  159.2988 H   0  0  0  0  0  0  0  0  0  0  0  0
  144.1063  174.0255  159.5694 H   0  0  0  0  0  0  0  0  0  0  0  0
  142.8419  175.1201  159.0632 H   0  0  0  0  0  0  0  0  0  0  0  0
  145.2567  174.6545  163.6431 H   0  0  0  0  0  0  0  0  0  0  0  0
  148.8737  174.2351  161.7691 H   0  0  0  0  0  0  0  0  0  0  0  0
  145.6969  176.0135  159.7114 H   0  0  0  0  0  0  0  0  0  0  0  0
  141.0064  172.1447  162.8716 H   0  0  0  0  0  0  0  0  0  0  0  0
  140.4434  173.0127  161.4635 H   0  0  0  0  0  0  0  0  0  0  0  0
  140.7922  173.8774  162.9412 H   0  0  0  0  0  0  0  0  0  0  0  0
  143.0708  173.3679  162.7797 H   0  0  0  0  0  0  0  0  0  0  0  0
  141.4562  171.0884  160.4985 H   0  0  0  0  0  0  0  0  0  0  0  0
  142.6113  169.2144  159.4827 H   0  0  0  0  0  0  0  0  0  0  0  0
  146.2913  170.7570  160.7889 H   0  0  0  0  0  0  0  0  0  0  0  0
  145.1435  172.6257  161.8179 H   0  0  0  0  0  0  0  0  0  0  0  0
  1  2  1  0
  1  3  1  0
  2 23  1  0
  2 24  1  0
  2 25  1  0
  3  4  2  0
  3  5  2  0
  3  6  1  0
  6  7  2  0
  7  8  1  0
  7 26  1  0
  8  9  2  0
  9 10  1  0
  9 27  1  0
 10 12  1  0
 10 11  2  0
 11  6  1  0
 11 28  1  0
 12 13  3  0
 14 15  1  0
 14 29  1  0
 14 30  1  0
 14 31  1  0
 15 16  1  0
 15  1  1  0
 15 32  1  1
 16 17  2  0
 17 18  1  0
 17 33  1  0
 18 19  2  0
 18 34  1  0
 19 20  1  0
 19 21  1  0
 21 22  2  0
 21 35  1  0
 22 16  1  0
 22 36  1  0
M  END
>  <minimizedAffinity>  (9) 
-6.79453

>  <mol_id>  (9) 
107192

>  <source_index>  (9) 
8

>  <layer>  (9) 
L3

>  <uniprot>  (9) 
Q15878

>  <paff>  (9) 
7.5900999999999996

>  <smiles>  (9) 
C[C@@H](c1ccc(Cl)cc1)N(C)S(=O)(=O)c1cncc(C#N)c1

$$$$
L3:Q15878:123336
     RDKit          3D

 37 38  0  0  0  0  0  0  0  0999 V2000
  144.6670  172.4707  162.8619 C   0  0  2  0  0  0  0  0  0  0  0  0
  145.6527  173.3314  162.0706 C   0  0  0  0  0  0  0  0  0  0  0  0
  145.6151  174.7280  162.2383 C   0  0  0  0  0  0  0  0  0  0  0  0
  146.4870  175.5626  161.5344 C   0  0  0  0  0  0  0  0  0  0  0  0
  147.4127  175.0242  160.6319 C   0  0  0  0  0  0  0  0  0  0  0  0
  147.4528  173.6344  160.4596 C   0  0  0  0  0  0  0  0  0  0  0  0
  146.5804  172.7989  161.1653 C   0  0  0  0  0  0  0  0  0  0  0  0
  148.3682  175.9224  159.8854 C   0  0  0  0  0  0  0  0  0  0  0  0
  149.2855  176.5245  160.6924 F   0  0  0  0  0  0  0  0  0  0  0  0
  147.7253  176.9296  159.2323 F   0  0  0  0  0  0  0  0  0  0  0  0
  149.0870  175.2612  158.9350 F   0  0  0  0  0  0  0  0  0  0  0  0
  145.1860  171.8368  164.1874 C   0  0  0  0  0  0  0  0  0  0  0  0
  144.2626  171.1316  164.8659 F   0  0  0  0  0  0  0  0  0  0  0  0
  146.2288  171.0037  163.9399 F   0  0  0  0  0  0  0  0  0  0  0  0
  145.6612  172.8004  165.0157 F   0  0  0  0  0  0  0  0  0  0  0  0
  144.8273  170.5215  161.3063 C   0  0  0  0  0  0  0  0  0  0  0  0
  143.9225  171.5264  161.9162 N   0  0  0  0  0  0  0  0  0  0  0  0
  142.8502  172.2930  160.8324 S   0  0  0  0  0  0  0  0  0  0  0  0
  143.6171  173.1003  159.9134 O   0  0  0  0  0  0  0  0  0  0  0  0
  141.9290  171.2807  160.3671 O   0  0  0  0  0  0  0  0  0  0  0  0
  141.9820  173.3939  161.8599 C   0  0  0  0  0  0  0  0  0  0  0  0
  142.2716  174.7355  161.8534 C   0  0  0  0  0  0  0  0  0  0  0  0
  141.6289  175.6231  162.6427 N   0  0  0  0  0  0  0  0  0  0  0  0
  140.6642  175.1162  163.4303 C   0  0  0  0  0  0  0  0  0  0  0  0
  140.3010  173.8230  163.4995 N   0  0  0  0  0  0  0  0  0  0  0  0
  140.9744  172.9757  162.6913 C   0  0  0  0  0  0  0  0  0  0  0  0
  143.9488  173.1454  163.2788 H   0  0  0  0  0  0  0  0  0  0  0  0
  144.9324  175.1426  162.8918 H   0  0  0  0  0  0  0  0  0  0  0  0
  146.4486  176.5835  161.6806 H   0  0  0  0  0  0  0  0  0  0  0  0
  148.1345  173.2218  159.8038 H   0  0  0  0  0  0  0  0  0  0  0  0
  146.6205  171.7783  161.0174 H   0  0  0  0  0  0  0  0  0  0  0  0
  145.4556  170.1011  162.0636 H   0  0  0  0  0  0  0  0  0  0  0  0
  145.4335  170.9930  160.5612 H   0  0  0  0  0  0  0  0  0  0  0  0
  144.2455  169.7456  160.8542 H   0  0  0  0  0  0  0  0  0  0  0  0
  143.0100  175.0798  161.2200 H   0  0  0  0  0  0  0  0  0  0  0  0
  140.1565  175.7794  164.0365 H   0  0  0  0  0  0  0  0  0  0  0  0
  140.7211  171.9753  162.6997 H   0  0  0  0  0  0  0  0  0  0  0  0
  1  2  1  0
  1 12  1  0
  1 27  1  1
  2  3  2  0
  3  4  1  0
  3 28  1  0
  4  5  2  0
  4 29  1  0
  5  8  1  0
  5  6  1  0
  6  7  2  0
  6 30  1  0
  7  2  1  0
  7 31  1  0
  8  9  1  0
  8 10  1  0
  8 11  1  0
 12 13  1  0
 12 14  1  0
 12 15  1  0
 16 17  1  0
 16 32  1  0
 16 33  1  0
 16 34  1  0
 17  1  1  0
 17 18  1  0
 18 19  2  0
 18 20  2  0
 18 21  1  0
 21 22  2  0
 22 23  1  0
 22 35  1  0
 23 24  2  0
 24 25  1  0
 24 36  1  0
 25 26  2  0
 26 21  1  0
 26 37  1  0
M  END
>  <minimizedAffinity>  (10) 
-7.72921

>  <mol_id>  (10) 
123336

>  <source_index>  (10) 
9

>  <layer>  (10) 
L3

>  <uniprot>  (10) 
Q15878

>  <paff>  (10) 
7.2298999999999998

>  <smiles>  (10) 
CN(C(c1ccc(C(F)(F)F)cc1)C(F)(F)F)S(=O)(=O)c1cncnc1

$$$$
