L1:Q06124:1874
     RDKit          3D

 57 61  0  0  0  0  0  0  0  0999 V2000
   26.9167   21.3066    2.1532 C   0  0  0  0  0  0  0  0  0  0  0  0
   27.8202   21.7654    3.0622 O   0  0  0  0  0  0  0  0  0  0  0  0
   29.0075   21.9465    2.3985 C   0  0  0  0  0  0  0  0  0  0  0  0
   30.1669   22.4163    2.9510 C   0  0  0  0  0  0  0  0  0  0  0  0
   31.2728   22.5037    2.1047 C   0  0  0  0  0  0  0  0  0  0  0  0
   32.4140   23.0018    2.6289 O   0  0  0  0  0  0  0  0  0  0  0  0
   31.1818   22.0858    0.7407 C   0  0  0  0  0  0  0  0  0  0  0  0
   29.9682   21.6286    0.2274 C   0  0  0  0  0  0  0  0  0  0  0  0
   28.8635   21.5821    1.0514 C   0  0  0  0  0  0  0  0  0  0  0  0
   27.4804   21.1850    0.8983 C   0  0  0  0  0  0  0  0  0  0  0  0
   33.1313   22.8607    1.9801 H   0  0  0  0  0  0  0  0  0  0  0  0
   23.1392   20.1354    3.5920 C   0  0  0  0  0  0  0  0  0  0  0  0
   23.2181   20.8510    2.4025 C   0  0  0  0  0  0  0  0  0  0  0  0
   24.4626   21.2122    1.9111 C   0  0  0  0  0  0  0  0  0  0  0  0
   25.6155   20.9415    2.6413 C   0  0  0  0  0  0  0  0  0  0  0  0
   25.5094   20.2915    3.8714 C   0  0  0  0  0  0  0  0  0  0  0  0
   24.2872   19.8059    4.2965 C   0  0  0  0  0  0  0  0  0  0  0  0
   21.9420   19.6996    4.1304 O   0  0  0  0  0  0  0  0  0  0  0  0
   20.8408   20.5866    4.0452 C   0  0  0  0  0  0  0  0  0  0  0  0
   20.4973   21.4067    6.2972 O   0  0  0  0  0  0  0  0  0  0  0  0
   20.1690   20.6223    5.4144 C   0  0  0  0  0  0  0  0  0  0  0  0
   19.1704   19.7140    5.5701 N   0  0  0  0  0  0  0  0  0  0  0  0
   19.0370   19.0473    4.8237 H   0  0  0  0  0  0  0  0  0  0  0  0
   18.7391   19.3138    6.8881 C   0  0  0  0  0  0  0  0  0  0  0  0
   17.3085   18.9586    7.1053 C   0  0  0  0  0  0  0  0  0  0  0  0
   17.8774   20.1698    7.7458 C   0  0  0  0  0  0  0  0  0  0  0  0
   32.3474   22.1551   -0.1202 C   0  0  0  0  0  0  0  0  0  0  0  0
   33.4325   22.6783    0.1621 O   0  0  0  0  0  0  0  0  0  0  0  0
   32.1789   21.5709   -1.3269 O   0  0  0  0  0  0  0  0  0  0  0  0
   33.0216   21.6595   -1.7925 H   0  0  0  0  0  0  0  0  0  0  0  0
   26.8465   20.7209   -0.2609 C   0  0  0  0  0  0  0  0  0  0  0  0
   26.4231   20.3470   -1.3350 C   0  0  0  0  0  0  0  0  0  0  0  0
   26.0845   20.0152   -2.6666 C   0  0  0  0  0  0  0  0  0  0  0  0
   26.8620   20.5366   -3.7122 C   0  0  0  0  0  0  0  0  0  0  0  0
   26.5219   20.2734   -5.0274 C   0  0  0  0  0  0  0  0  0  0  0  0
   25.4173   19.4983   -5.3310 C   0  0  0  0  0  0  0  0  0  0  0  0
   24.6344   18.9667   -4.3055 C   0  0  0  0  0  0  0  0  0  0  0  0
   23.5564   18.2327   -4.6673 O   0  0  0  0  0  0  0  0  0  0  0  0
   24.9813   19.2080   -2.9796 C   0  0  0  0  0  0  0  0  0  0  0  0
   22.8978   18.1778   -3.9444 H   0  0  0  0  0  0  0  0  0  0  0  0
   30.2273   22.6975    3.9948 H   0  0  0  0  0  0  0  0  0  0  0  0
   29.9006   21.3198   -0.8050 H   0  0  0  0  0  0  0  0  0  0  0  0
   22.3337   21.1214    1.8469 H   0  0  0  0  0  0  0  0  0  0  0  0
   24.5394   21.7217    0.9632 H   0  0  0  0  0  0  0  0  0  0  0  0
   26.3852   20.2014    4.4976 H   0  0  0  0  0  0  0  0  0  0  0  0
   24.1984   19.1888    5.1742 H   0  0  0  0  0  0  0  0  0  0  0  0
   21.1643   21.5995    3.8123 H   0  0  0  0  0  0  0  0  0  0  0  0
   20.1515   20.2536    3.2665 H   0  0  0  0  0  0  0  0  0  0  0  0
   19.4887   18.7409    7.4125 H   0  0  0  0  0  0  0  0  0  0  0  0
   17.0918   18.0975    7.7145 H   0  0  0  0  0  0  0  0  0  0  0  0
   16.6162   19.0871    6.2804 H   0  0  0  0  0  0  0  0  0  0  0  0
   18.0895   20.1374    8.8019 H   0  0  0  0  0  0  0  0  0  0  0  0
   17.5763   21.1337    7.3745 H   0  0  0  0  0  0  0  0  0  0  0  0
   27.7347   21.1300   -3.4761 H   0  0  0  0  0  0  0  0  0  0  0  0
   27.1324   20.6776   -5.8242 H   0  0  0  0  0  0  0  0  0  0  0  0
   25.1364   19.2895   -6.3539 H   0  0  0  0  0  0  0  0  0  0  0  0
   24.4035   18.7568   -2.1843 H   0  0  0  0  0  0  0  0  0  0  0  0
  1  2  1  0
  2  3  1  0
  3  4  2  0
  4  5  1  0
  4 41  1  0
  5  6  1  0
  5  7  2  0
  6 11  1  0
  7 27  1  0
  7  8  1  0
  8  9  2  0
  8 42  1  0
  9 10  1  0
  9  3  1  0
 10 31  1  0
 10  1  2  0
 12 13  2  0
 13 14  1  0
 13 43  1  0
 14 15  2  0
 14 44  1  0
 15  1  1  0
 15 16  1  0
 16 17  2  0
 16 45  1  0
 17 12  1  0
 17 46  1  0
 18 12  1  0
 19 18  1  0
 19 47  1  0
 19 48  1  0
 20 21  2  0
 21 19  1  0
 21 22  1  0
 22 24  1  0
 22 23  1  0
 24 25  1  0
 24 49  1  0
 25 26  1  0
 25 50  1  0
 25 51  1  0
 26 24  1  0
 26 52  1  0
 26 53  1  0
 27 28  2  0
 27 29  1  0
 29 30  1  0
 31 32  3  0
 32 33  1  0
 33 34  2  0
 34 35  1  0
 34 54  1  0
 35 36  2  0
 35 55  1  0
 36 37  1  0
 36 56  1  0
 37 38  1  0
 37 39  2  0
 38 40  1  0
 39 33  1  0
 39 57  1  0
M  END
>  <minimizedAffinity>  (1) 
-9.13873

>  <mol_id>  (1) 
1874

>  <source_index>  (1) 
0

>  <layer>  (1) 
L1

>  <uniprot>  (1) 
Q06124

>  <paff>  (1) 
6.0269000000000004

>  <smiles>  (1) 
O=C(COc1ccc(-c2oc3cc(O)c(C(=O)O)cc3c2C#Cc2cccc(O)c2)cc1)NC1CC1

>  <aimnet_interaction_kcal_mol>  (1) 
-62.533427445674448

$$$$
L1:Q06124:26663
     RDKit          3D

 46 48  0  0  0  0  0  0  0  0999 V2000
   24.2337   20.9832    2.9874 C   0  0  0  0  0  0  0  0  0  0  0  0
   23.5963   20.1899    3.9839 C   0  0  0  0  0  0  0  0  0  0  0  0
   22.2920   20.2608    4.1588 N   0  0  0  0  0  0  0  0  0  0  0  0
   21.5596   20.9682    3.3156 C   0  0  0  0  0  0  0  0  0  0  0  0
   22.1593   21.6227    2.2241 C   0  0  0  0  0  0  0  0  0  0  0  0
   21.3899   22.1670    1.2099 N   0  0  0  0  0  0  0  0  0  0  0  0
   23.4692   21.6402    2.0973 N   0  0  0  0  0  0  0  0  0  0  0  0
   22.0064   22.5587    0.5077 H   0  0  0  0  0  0  0  0  0  0  0  0
   20.7186   22.8652    1.4950 H   0  0  0  0  0  0  0  0  0  0  0  0
   28.9874   19.4943    1.7605 C   0  0  0  0  0  0  0  0  0  0  0  0
   28.4443   20.8438    2.2142 C   0  0  0  0  0  0  0  0  0  0  0  0
   27.3161   21.2907    1.2630 C   0  0  0  0  0  0  0  0  0  0  0  0
   26.2056   22.0319    1.9894 C   0  0  0  0  0  0  0  0  0  0  0  0
   25.5600   21.1092    2.9156 N   0  0  0  0  0  0  0  0  0  0  0  0
   26.4566   20.2382    3.6817 C   0  0  0  0  0  0  0  0  0  0  0  0
   27.8764   20.7522    3.6300 C   0  0  0  0  0  0  0  0  0  0  0  0
   29.5609   21.8997    2.1958 C   0  0  0  0  0  0  0  0  0  0  0  0
   30.5516   21.7020    3.2385 N   0  0  0  0  0  0  0  0  0  0  0  0
   31.1067   20.8525    3.1147 H   0  0  0  0  0  0  0  0  0  0  0  0
   31.1865   22.4859    3.2818 H   0  0  0  0  0  0  0  0  0  0  0  0
   19.7821   20.9626    3.4247 S   0  0  0  0  0  0  0  0  0  0  0  0
   19.4367   20.3808    5.0740 C   0  0  0  0  0  0  0  0  0  0  0  0
   20.2674   20.6342    6.1634 C   0  0  0  0  0  0  0  0  0  0  0  0
   19.7863   20.5427    7.4586 C   0  0  0  0  0  0  0  0  0  0  0  0
   18.4586   20.1968    7.6973 C   0  0  0  0  0  0  0  0  0  0  0  0
   17.6461   19.8987    6.6197 C   0  0  0  0  0  0  0  0  0  0  0  0
   15.9139   19.7149    6.9083 Cl  0  0  0  0  0  0  0  0  0  0  0  0
   18.1435   19.8875    5.3155 C   0  0  0  0  0  0  0  0  0  0  0  0
   17.1745   19.3074    3.9739 Cl  0  0  0  0  0  0  0  0  0  0  0  0
   24.1468   19.5296    4.6391 H   0  0  0  0  0  0  0  0  0  0  0  0
   29.2948   19.5372    0.7132 H   0  0  0  0  0  0  0  0  0  0  0  0
   28.2327   18.7108    1.8538 H   0  0  0  0  0  0  0  0  0  0  0  0
   29.8531   19.1987    2.3418 H   0  0  0  0  0  0  0  0  0  0  0  0
   26.8759   20.4225    0.7660 H   0  0  0  0  0  0  0  0  0  0  0  0
   27.7177   21.9289    0.4719 H   0  0  0  0  0  0  0  0  0  0  0  0
   25.4532   22.4191    1.3132 H   0  0  0  0  0  0  0  0  0  0  0  0
   26.6120   22.8732    2.5461 H   0  0  0  0  0  0  0  0  0  0  0  0
   26.3789   19.2162    3.2943 H   0  0  0  0  0  0  0  0  0  0  0  0
   26.1508   20.2176    4.7210 H   0  0  0  0  0  0  0  0  0  0  0  0
   28.5144   20.1188    4.2382 H   0  0  0  0  0  0  0  0  0  0  0  0
   27.9069   21.7276    4.1111 H   0  0  0  0  0  0  0  0  0  0  0  0
   29.0846   22.8758    2.3327 H   0  0  0  0  0  0  0  0  0  0  0  0
   30.0028   21.9054    1.1851 H   0  0  0  0  0  0  0  0  0  0  0  0
   21.2887   20.9119    5.9749 H   0  0  0  0  0  0  0  0  0  0  0  0
   20.4476   20.7445    8.2876 H   0  0  0  0  0  0  0  0  0  0  0  0
   18.0707   20.1281    8.7020 H   0  0  0  0  0  0  0  0  0  0  0  0
  1  2  2  0
  2  3  1  0
  2 30  1  0
  3  4  2  0
  4 21  1  0
  4  5  1  0
  5  6  1  0
  5  7  2  0
  6  8  1  0
  6  9  1  0
  7  1  1  0
 10 11  1  0
 10 31  1  0
 10 32  1  0
 10 33  1  0
 11 17  1  0
 11 12  1  0
 12 13  1  0
 12 34  1  0
 12 35  1  0
 13 14  1  0
 13 36  1  0
 13 37  1  0
 14  1  1  0
 14 15  1  0
 15 16  1  0
 15 38  1  0
 15 39  1  0
 16 11  1  0
 16 40  1  0
 16 41  1  0
 17 18  1  0
 17 42  1  0
 17 43  1  0
 18 19  1  0
 18 20  1  0
 21 22  1  0
 22 23  2  0
 23 24  1  0
 23 44  1  0
 24 25  2  0
 24 45  1  0
 25 26  1  0
 25 46  1  0
 26 27  1  0
 26 28  2  0
 28 29  1  0
 28 22  1  0
M  END
>  <minimizedAffinity>  (2) 
-8.94140

>  <mol_id>  (2) 
26663

>  <source_index>  (2) 
1

>  <layer>  (2) 
L1

>  <uniprot>  (2) 
Q06124

>  <paff>  (2) 
7.6383000000000001

>  <smiles>  (2) 
CC1(CCN(CC1)c2cnc(c(n2)N)Sc3cccc(c3Cl)Cl)CN

>  <aimnet_interaction_kcal_mol>  (2) 
-81.360706233708711

$$$$
L1:Q06124:32578
     RDKit          3D

 54 58  0  0  0  0  0  0  0  0999 V2000
   22.4427   22.2506    1.8432 C   0  0  0  0  0  0  0  0  0  0  0  0
   22.6416   21.3039    2.9761 C   0  0  0  0  0  0  0  0  0  0  0  0
   21.6333   21.1439    3.8234 N   0  0  0  0  0  0  0  0  0  0  0  0
   21.7611   20.1523    4.7302 C   0  0  0  0  0  0  0  0  0  0  0  0
   20.9553   19.6834    5.8024 C   0  0  0  0  0  0  0  0  0  0  0  0
   21.6196   18.7488    6.4942 N   0  0  0  0  0  0  0  0  0  0  0  0
   22.7908   18.5542    5.8562 N   0  0  0  0  0  0  0  0  0  0  0  0
   22.9168   19.3675    4.7749 C   0  0  0  0  0  0  0  0  0  0  0  0
   23.9306   19.4621    3.9260 N   0  0  0  0  0  0  0  0  0  0  0  0
   23.8575   20.4913    3.0838 C   0  0  0  0  0  0  0  0  0  0  0  0
   23.4953   17.9132    6.2378 H   0  0  0  0  0  0  0  0  0  0  0  0
   24.9274   20.7392    2.2739 N   0  0  0  0  0  0  0  0  0  0  0  0
   25.9461   19.6900    2.1622 C   0  0  0  0  0  0  0  0  0  0  0  0
   26.9566   19.7914    3.2850 C   0  0  0  0  0  0  0  0  0  0  0  0
   27.6371   21.1465    3.3763 C   0  0  0  0  0  0  0  0  0  0  0  0
   26.5314   22.2054    3.4079 C   0  0  0  0  0  0  0  0  0  0  0  0
   25.5430   22.0840    2.2686 C   0  0  0  0  0  0  0  0  0  0  0  0
   28.4652   21.2326    4.6664 C   0  0  0  0  0  0  0  0  0  0  0  0
   29.8221   21.5362    4.3150 O   0  0  0  0  0  0  0  0  0  0  0  0
   29.7372   22.2581    3.0918 C   0  0  1  0  0  0  0  0  0  0  0  0
   31.1004   22.4368    2.4801 C   0  0  0  0  0  0  0  0  0  0  0  0
   28.7119   21.4373    2.2939 C   0  0  1  0  0  0  0  0  0  0  0  0
   29.2571   20.1974    1.7349 N   0  0  0  0  0  0  0  0  0  0  0  0
   29.8491   20.4318    0.9476 H   0  0  0  0  0  0  0  0  0  0  0  0
   29.9165   19.7994    2.4018 H   0  0  0  0  0  0  0  0  0  0  0  0
   19.5537   19.9368    6.0645 C   0  0  0  0  0  0  0  0  0  0  0  0
   18.5737   19.5211    5.1528 C   0  0  0  0  0  0  0  0  0  0  0  0
   17.2575   19.3635    5.5491 C   0  0  0  0  0  0  0  0  0  0  0  0
   16.8506   19.7621    6.8175 C   0  0  0  0  0  0  0  0  0  0  0  0
   17.7794   20.3664    7.6557 C   0  0  0  0  0  0  0  0  0  0  0  0
   17.2651   20.9996    9.1965 Cl  0  0  0  0  0  0  0  0  0  0  0  0
   19.1125   20.4604    7.2817 C   0  0  0  0  0  0  0  0  0  0  0  0
   19.9914   21.0809    8.0818 F   0  0  0  0  0  0  0  0  0  0  0  0
   21.4027   22.2182    1.5322 H   0  0  0  0  0  0  0  0  0  0  0  0
   23.0681   21.9933    1.0001 H   0  0  0  0  0  0  0  0  0  0  0  0
   22.6743   23.2676    2.1390 H   0  0  0  0  0  0  0  0  0  0  0  0
   26.4381   19.8162    1.1979 H   0  0  0  0  0  0  0  0  0  0  0  0
   25.4535   18.7214    2.1547 H   0  0  0  0  0  0  0  0  0  0  0  0
   27.7044   19.0083    3.1937 H   0  0  0  0  0  0  0  0  0  0  0  0
   26.4239   19.6145    4.2186 H   0  0  0  0  0  0  0  0  0  0  0  0
   26.9685   23.1989    3.3994 H   0  0  0  0  0  0  0  0  0  0  0  0
   25.9711   22.1064    4.3379 H   0  0  0  0  0  0  0  0  0  0  0  0
   26.0323   22.2270    1.3070 H   0  0  0  0  0  0  0  0  0  0  0  0
   24.7703   22.8369    2.3427 H   0  0  0  0  0  0  0  0  0  0  0  0
   28.4841   20.2989    5.2175 H   0  0  0  0  0  0  0  0  0  0  0  0
   28.0827   22.0038    5.3287 H   0  0  0  0  0  0  0  0  0  0  0  0
   29.2882   23.2394    3.2849 H   0  0  0  0  0  0  0  0  0  0  0  0
   31.6243   21.4850    2.4605 H   0  0  0  0  0  0  0  0  0  0  0  0
   31.6950   23.1312    3.0778 H   0  0  0  0  0  0  0  0  0  0  0  0
   31.0378   22.8319    1.4603 H   0  0  0  0  0  0  0  0  0  0  0  0
   28.2944   22.0315    1.4789 H   0  0  0  0  0  0  0  0  0  0  0  0
   18.8789   19.2674    4.1464 H   0  0  0  0  0  0  0  0  0  0  0  0
   16.5514   18.8924    4.8804 H   0  0  0  0  0  0  0  0  0  0  0  0
   15.8487   19.5802    7.1783 H   0  0  0  0  0  0  0  0  0  0  0  0
  1  2  1  0
  1 34  1  0
  1 35  1  0
  1 36  1  0
  2  3  2  0
  3  4  1  0
  4  5  1  0
  5 26  1  0
  5  6  2  0
  6  7  1  0
  7  8  1  0
  7 11  1  0
  8  9  1  0
  8  4  2  0
  9 10  2  0
 10 12  1  0
 10  2  1  0
 12 13  1  0
 13 14  1  0
 13 37  1  0
 13 38  1  0
 14 15  1  0
 14 39  1  0
 14 40  1  0
 15 16  1  0
 15 18  1  0
 16 17  1  0
 16 41  1  0
 16 42  1  0
 17 12  1  0
 17 43  1  0
 17 44  1  0
 18 19  1  0
 18 45  1  0
 18 46  1  0
 19 20  1  0
 20 21  1  0
 20 22  1  0
 20 47  1  1
 21 48  1  0
 21 49  1  0
 21 50  1  0
 22 23  1  0
 22 15  1  0
 22 51  1  6
 23 24  1  0
 23 25  1  0
 26 27  2  0
 27 28  1  0
 27 52  1  0
 28 29  2  0
 28 53  1  0
 29 30  1  0
 29 54  1  0
 30 31  1  0
 30 32  2  0
 32 33  1  0
 32 26  1  0
M  END
>  <minimizedAffinity>  (3) 
-10.89865

>  <mol_id>  (3) 
32578

>  <source_index>  (3) 
2

>  <layer>  (3) 
L1

>  <uniprot>  (3) 
Q06124

>  <paff>  (3) 
8.0088000000000008

>  <smiles>  (3) 
Cc1nc2c(-c3cccc(Cl)c3F)n[nH]c2nc1N1CCC2(CC1)CO[C@@H](C)[C@H]2N

>  <aimnet_interaction_kcal_mol>  (3) 
-78.19122921071795

$$$$
L1:Q06124:39617
     RDKit          3D

 59 63  0  0  0  0  0  0  0  0999 V2000
   27.3042   19.3357    2.4256 C   0  0  0  0  0  0  0  0  0  0  0  0
   26.4587   18.6680    1.6841 N   0  0  0  0  0  0  0  0  0  0  0  0
   25.1568   18.7125    1.9702 C   0  0  0  0  0  0  0  0  0  0  0  0
   24.7186   19.4802    3.0451 C   0  0  0  0  0  0  0  0  0  0  0  0
   25.5595   20.1803    3.8000 N   0  0  0  0  0  0  0  0  0  0  0  0
   26.8631   20.1330    3.5333 C   0  0  0  0  0  0  0  0  0  0  0  0
   27.7012   20.8386    4.3000 N   0  0  0  0  0  0  0  0  0  0  0  0
   28.6954   20.7890    4.1722 H   0  0  0  0  0  0  0  0  0  0  0  0
   27.3557   21.1788    5.1906 H   0  0  0  0  0  0  0  0  0  0  0  0
   23.3459   19.5176    3.3981 N   0  0  0  0  0  0  0  0  0  0  0  0
   23.0560   19.1836    4.7919 C   0  0  0  0  0  0  0  0  0  0  0  0
   21.5729   18.9330    4.9014 C   0  0  0  0  0  0  0  0  0  0  0  0
   20.7747   20.2443    4.7711 C   0  0  0  0  0  0  0  0  0  0  0  0
   21.6489   21.2461    4.0125 C   0  0  0  0  0  0  0  0  0  0  0  0
   22.6055   20.7015    2.9536 C   0  0  0  0  0  0  0  0  0  0  0  0
   20.4113   20.7641    6.1950 C   0  0  0  0  0  0  0  0  0  0  0  0
   18.9826   20.7569    6.3317 O   0  0  0  0  0  0  0  0  0  0  0  0
   18.5387   19.7603    5.4252 C   0  0  0  0  0  0  0  0  0  0  0  0
   19.3743   19.9353    4.1726 C   0  0  1  0  0  0  0  0  0  0  0  0
   18.7324   20.9787    3.3022 N   0  0  0  0  0  0  0  0  0  0  0  0
   19.4573   21.2877    2.6614 H   0  0  0  0  0  0  0  0  0  0  0  0
   18.1062   20.4601    2.6857 H   0  0  0  0  0  0  0  0  0  0  0  0
   29.0514   19.2122    2.0746 S   0  0  0  0  0  0  0  0  0  0  0  0
   27.8850   20.0174   -4.6794 C   0  0  0  0  0  0  0  0  0  0  0  0
   28.5735   21.0843   -3.8663 C   0  0  0  0  0  0  0  0  0  0  0  0
   28.4939   22.2682   -4.1713 O   0  0  0  0  0  0  0  0  0  0  0  0
   29.2919   20.6790   -2.7603 N   0  0  0  0  0  0  0  0  0  0  0  0
   29.8999   21.6881   -1.8862 C   0  0  0  0  0  0  0  0  0  0  0  0
   29.4772   21.2598   -0.4798 C   0  0  0  0  0  0  0  0  0  0  0  0
   30.4202   21.5709    0.4426 F   0  0  0  0  0  0  0  0  0  0  0  0
   28.3297   21.9409   -0.1037 F   0  0  0  0  0  0  0  0  0  0  0  0
   29.1935   19.7873   -0.6264 C   0  0  0  0  0  0  0  0  0  0  0  0
   28.9432   18.8226    0.3387 C   0  0  0  0  0  0  0  0  0  0  0  0
   28.6994   17.5175   -0.1002 C   0  0  0  0  0  0  0  0  0  0  0  0
   28.7450   17.2089   -1.4468 C   0  0  0  0  0  0  0  0  0  0  0  0
   28.9734   18.1837   -2.4158 C   0  0  0  0  0  0  0  0  0  0  0  0
   29.1365   19.4916   -1.9893 C   0  0  0  0  0  0  0  0  0  0  0  0
   24.5042   18.0747    1.3925 H   0  0  0  0  0  0  0  0  0  0  0  0
   23.3743   19.9780    5.4540 H   0  0  0  0  0  0  0  0  0  0  0  0
   23.6106   18.3135    5.1127 H   0  0  0  0  0  0  0  0  0  0  0  0
   21.3272   18.4288    5.8332 H   0  0  0  0  0  0  0  0  0  0  0  0
   21.3069   18.2532    4.1027 H   0  0  0  0  0  0  0  0  0  0  0  0
   22.2774   21.7550    4.7384 H   0  0  0  0  0  0  0  0  0  0  0  0
   21.0542   22.0293    3.5531 H   0  0  0  0  0  0  0  0  0  0  0  0
   23.3020   21.5029    2.7054 H   0  0  0  0  0  0  0  0  0  0  0  0
   22.0625   20.4818    2.0354 H   0  0  0  0  0  0  0  0  0  0  0  0
   20.7516   21.7751    6.3884 H   0  0  0  0  0  0  0  0  0  0  0  0
   20.8421   20.1247    6.9685 H   0  0  0  0  0  0  0  0  0  0  0  0
   17.4724   19.8865    5.2574 H   0  0  0  0  0  0  0  0  0  0  0  0
   18.7043   18.7666    5.8418 H   0  0  0  0  0  0  0  0  0  0  0  0
   19.4071   19.0196    3.5989 H   0  0  0  0  0  0  0  0  0  0  0  0
   27.3344   20.5099   -5.4716 H   0  0  0  0  0  0  0  0  0  0  0  0
   27.2025   19.4350   -4.0651 H   0  0  0  0  0  0  0  0  0  0  0  0
   28.6000   19.3282   -5.1261 H   0  0  0  0  0  0  0  0  0  0  0  0
   29.5896   22.6917   -2.1420 H   0  0  0  0  0  0  0  0  0  0  0  0
   30.9826   21.6280   -1.9531 H   0  0  0  0  0  0  0  0  0  0  0  0
   28.4411   16.7548    0.6196 H   0  0  0  0  0  0  0  0  0  0  0  0
   28.5803   16.1848   -1.7546 H   0  0  0  0  0  0  0  0  0  0  0  0
   29.0292   17.9088   -3.4562 H   0  0  0  0  0  0  0  0  0  0  0  0
  1  2  2  0
  2  3  1  0
  3  4  2  0
  3 38  1  0
  4 10  1  0
  4  5  1  0
  5  6  2  0
  6  7  1  0
  6  1  1  0
  7  8  1  0
  7  9  1  0
 10 11  1  0
 11 12  1  0
 11 39  1  0
 11 40  1  0
 12 13  1  0
 12 41  1  0
 12 42  1  0
 13 14  1  0
 13 16  1  0
 14 15  1  0
 14 43  1  0
 14 44  1  0
 15 10  1  0
 15 45  1  0
 15 46  1  0
 16 17  1  0
 16 47  1  0
 16 48  1  0
 17 18  1  0
 18 19  1  0
 18 49  1  0
 18 50  1  0
 19 20  1  0
 19 13  1  0
 19 51  1  6
 20 21  1  0
 20 22  1  0
 23  1  1  0
 24 25  1  0
 24 52  1  0
 24 53  1  0
 24 54  1  0
 25 26  2  0
 25 27  1  0
 27 28  1  0
 28 29  1  0
 28 55  1  0
 28 56  1  0
 29 30  1  0
 29 31  1  0
 29 32  1  0
 32 33  2  0
 33 23  1  0
 33 34  1  0
 34 35  2  0
 34 57  1  0
 35 36  1  0
 35 58  1  0
 36 37  2  0
 36 59  1  0
 37 27  1  0
 37 32  1  0
M  END
>  <minimizedAffinity>  (4) 
-9.22511

>  <mol_id>  (4) 
39617

>  <source_index>  (4) 
3

>  <layer>  (4) 
L1

>  <uniprot>  (4) 
Q06124

>  <paff>  (4) 
7.585

>  <smiles>  (4) 
CC(=O)N1CC(F)(F)c2c(Sc3ncc(N4CCC5(CC4)COC[C@H]5N)nc3N)cccc21

>  <aimnet_interaction_kcal_mol>  (4) 
-63.224590817623977

$$$$
L1:Q06124:53896
     RDKit          3D

 42 44  0  0  0  0  0  0  0  0999 V2000
   23.6403   20.6041    3.7129 C   0  0  0  0  0  0  0  0  0  0  0  0
   22.6010   21.5642    3.5387 C   0  0  0  0  0  0  0  0  0  0  0  0
   21.3998   21.3313    4.0378 N   0  0  0  0  0  0  0  0  0  0  0  0
   21.1889   20.2694    4.8198 C   0  0  0  0  0  0  0  0  0  0  0  0
   22.2631   19.3594    5.0470 C   0  0  0  0  0  0  0  0  0  0  0  0
   22.1502   18.2958    5.8715 N   0  0  0  0  0  0  0  0  0  0  0  0
   23.4233   19.4989    4.4290 N   0  0  0  0  0  0  0  0  0  0  0  0
   22.9867   17.7982    6.1514 H   0  0  0  0  0  0  0  0  0  0  0  0
   21.3522   18.1843    6.4713 H   0  0  0  0  0  0  0  0  0  0  0  0
   28.8834   20.4634    2.4891 C   0  0  0  0  0  0  0  0  0  0  0  0
   27.5608   20.9980    1.9754 C   0  0  0  0  0  0  0  0  0  0  0  0
   27.7426   21.7200    0.6884 N   0  0  0  0  0  0  0  0  0  0  0  0
   26.5819   19.8476    1.7131 C   0  0  0  0  0  0  0  0  0  0  0  0
   25.6860   19.5818    2.9090 C   0  0  0  0  0  0  0  0  0  0  0  0
   24.8433   20.7501    3.1494 N   0  0  0  0  0  0  0  0  0  0  0  0
   25.4558   22.0561    2.8834 C   0  0  0  0  0  0  0  0  0  0  0  0
   26.9551   21.9230    3.0297 C   0  0  0  0  0  0  0  0  0  0  0  0
   28.7125   22.0113    0.6238 H   0  0  0  0  0  0  0  0  0  0  0  0
   27.2050   22.5782    0.7434 H   0  0  0  0  0  0  0  0  0  0  0  0
   19.8440   20.0892    5.3583 C   0  0  0  0  0  0  0  0  0  0  0  0
   18.8321   19.5643    4.5466 C   0  0  0  0  0  0  0  0  0  0  0  0
   17.5732   19.2757    5.0430 C   0  0  0  0  0  0  0  0  0  0  0  0
   17.2612   19.5633    6.3660 C   0  0  0  0  0  0  0  0  0  0  0  0
   18.2161   20.1809    7.1642 C   0  0  0  0  0  0  0  0  0  0  0  0
   17.7483   20.6528    8.7842 Cl  0  0  0  0  0  0  0  0  0  0  0  0
   19.4879   20.4505    6.6725 C   0  0  0  0  0  0  0  0  0  0  0  0
   20.6583   21.2931    7.6637 Cl  0  0  0  0  0  0  0  0  0  0  0  0
   22.7695   22.4740    2.9812 H   0  0  0  0  0  0  0  0  0  0  0  0
   29.4004   19.8701    1.7372 H   0  0  0  0  0  0  0  0  0  0  0  0
   28.7179   19.8257    3.3555 H   0  0  0  0  0  0  0  0  0  0  0  0
   29.5513   21.2676    2.7971 H   0  0  0  0  0  0  0  0  0  0  0  0
   27.1271   18.9404    1.4552 H   0  0  0  0  0  0  0  0  0  0  0  0
   25.9597   20.0958    0.8534 H   0  0  0  0  0  0  0  0  0  0  0  0
   26.2743   19.3740    3.8018 H   0  0  0  0  0  0  0  0  0  0  0  0
   25.0479   18.7183    2.7496 H   0  0  0  0  0  0  0  0  0  0  0  0
   25.0708   22.7920    3.5835 H   0  0  0  0  0  0  0  0  0  0  0  0
   25.1861   22.4058    1.8851 H   0  0  0  0  0  0  0  0  0  0  0  0
   27.1675   21.5402    4.0262 H   0  0  0  0  0  0  0  0  0  0  0  0
   27.4187   22.9025    2.9667 H   0  0  0  0  0  0  0  0  0  0  0  0
   19.0594   19.3532    3.5102 H   0  0  0  0  0  0  0  0  0  0  0  0
   16.8509   18.7767    4.4128 H   0  0  0  0  0  0  0  0  0  0  0  0
   16.3061   19.2918    6.7874 H   0  0  0  0  0  0  0  0  0  0  0  0
  1  2  2  0
  2  3  1  0
  2 28  1  0
  3  4  2  0
  4 20  1  0
  4  5  1  0
  5  6  1  0
  5  7  2  0
  6  8  1  0
  6  9  1  0
  7  1  1  0
 10 11  1  0
 10 29  1  0
 10 30  1  0
 10 31  1  0
 11 12  1  0
 11 13  1  0
 12 18  1  0
 12 19  1  0
 13 14  1  0
 13 32  1  0
 13 33  1  0
 14 15  1  0
 14 34  1  0
 14 35  1  0
 15  1  1  0
 15 16  1  0
 16 17  1  0
 16 36  1  0
 16 37  1  0
 17 11  1  0
 17 38  1  0
 17 39  1  0
 20 21  2  0
 21 22  1  0
 21 40  1  0
 22 23  2  0
 22 41  1  0
 23 24  1  0
 23 42  1  0
 24 25  1  0
 24 26  2  0
 26 27  1  0
 26 20  1  0
M  END
>  <minimizedAffinity>  (5) 
-10.13197

>  <mol_id>  (5) 
53896

>  <source_index>  (5) 
4

>  <layer>  (5) 
L1

>  <uniprot>  (5) 
Q06124

>  <paff>  (5) 
7.1367000000000003

>  <smiles>  (5) 
CC1(N)CCN(CC1)c1cnc(c(N)n1)-c1cccc(Cl)c1Cl

>  <aimnet_interaction_kcal_mol>  (5) 
-73.808860621896542

$$$$
L1:Q06124:82531
     RDKit          3D

 50 53  0  0  0  0  0  0  0  0999 V2000
   25.4564   22.4850    3.1394 O   0  0  0  0  0  0  0  0  0  0  0  0
   25.3885   21.3952    2.5921 C   0  0  0  0  0  0  0  0  0  0  0  0
   26.4329   20.5788    1.9750 C   0  0  0  0  0  0  0  0  0  0  0  0
   27.6928   20.9127    1.8230 N   0  0  0  0  0  0  0  0  0  0  0  0
   25.8008   19.3670    1.5208 C   0  0  0  0  0  0  0  0  0  0  0  0
   24.5081   19.4056    1.7626 N   0  0  0  0  0  0  0  0  0  0  0  0
   24.2482   20.6066    2.4095 N   0  0  0  0  0  0  0  0  0  0  0  0
   26.4600   18.2309    0.8987 C   0  0  0  0  0  0  0  0  0  0  0  0
   25.7271   17.3179    0.1345 C   0  0  0  0  0  0  0  0  0  0  0  0
   26.3669   16.2935   -0.5263 C   0  0  0  0  0  0  0  0  0  0  0  0
   27.7405   16.1503   -0.3840 C   0  0  0  0  0  0  0  0  0  0  0  0
   28.4850   17.0165    0.4035 C   0  0  0  0  0  0  0  0  0  0  0  0
   27.8434   18.0462    1.0540 C   0  0  0  0  0  0  0  0  0  0  0  0
   28.4179   15.0504   -1.0586 N   0  0  0  0  0  0  0  0  0  0  0  0
   27.7983   14.3965   -1.8967 O   0  0  0  0  0  0  0  0  0  0  0  0
   29.5991   14.8190   -0.7515 O   0  0  0  0  0  0  0  0  0  0  0  0
   22.9272   20.8555    2.8328 C   0  0  0  0  0  0  0  0  0  0  0  0
   22.3749   20.0777    3.8553 C   0  0  0  0  0  0  0  0  0  0  0  0
   21.0192   20.1098    4.1042 C   0  0  0  0  0  0  0  0  0  0  0  0
   20.2065   20.9375    3.3255 C   0  0  0  0  0  0  0  0  0  0  0  0
   20.7716   21.8275    2.4052 C   0  0  0  0  0  0  0  0  0  0  0  0
   22.1352   21.8184    2.1960 C   0  0  0  0  0  0  0  0  0  0  0  0
   18.7864   20.8732    3.4597 N   0  0  0  0  0  0  0  0  0  0  0  0
   18.0783   21.7680    2.8376 O   0  0  0  0  0  0  0  0  0  0  0  0
   18.2490   20.0285    4.1949 O   0  0  0  0  0  0  0  0  0  0  0  0
   28.1206   22.0052    2.3400 N   0  0  0  0  0  0  0  0  0  0  0  0
   27.4592   22.6449    2.8082 H   0  0  0  0  0  0  0  0  0  0  0  0
   29.4900   22.2975    2.2842 C   0  0  0  0  0  0  0  0  0  0  0  0
   30.2718   21.8676    1.2102 C   0  0  0  0  0  0  0  0  0  0  0  0
   31.6335   22.0809    1.2382 C   0  0  0  0  0  0  0  0  0  0  0  0
   32.2242   22.6821    2.3416 C   0  0  0  0  0  0  0  0  0  0  0  0
   31.4363   23.1498    3.3797 C   0  0  0  0  0  0  0  0  0  0  0  0
   30.0617   23.0004    3.3417 C   0  0  0  0  0  0  0  0  0  0  0  0
   34.0355   22.8333    2.4308 S   0  0  0  0  0  0  0  0  0  0  0  0
   34.3044   23.7362    3.5881 O   0  0  0  0  0  0  0  0  0  0  0  0
   34.4294   23.3993    1.1007 O   0  0  0  0  0  0  0  0  0  0  0  0
   34.5802   21.4347    2.6231 O   0  0  0  0  0  0  0  0  0  0  0  0
   34.1859   20.3001    3.6230 H   0  0  0  0  0  0  0  0  0  0  0  0
   24.6526   17.3757    0.1230 H   0  0  0  0  0  0  0  0  0  0  0  0
   25.8102   15.5789   -1.1109 H   0  0  0  0  0  0  0  0  0  0  0  0
   29.5493   16.8777    0.5014 H   0  0  0  0  0  0  0  0  0  0  0  0
   28.4053   18.7187    1.6812 H   0  0  0  0  0  0  0  0  0  0  0  0
   23.0092   19.4254    4.4405 H   0  0  0  0  0  0  0  0  0  0  0  0
   20.5846   19.4817    4.8630 H   0  0  0  0  0  0  0  0  0  0  0  0
   20.1391   22.5179    1.8713 H   0  0  0  0  0  0  0  0  0  0  0  0
   22.5887   22.5532    1.5446 H   0  0  0  0  0  0  0  0  0  0  0  0
   29.8060   21.3567    0.3797 H   0  0  0  0  0  0  0  0  0  0  0  0
   32.2492   21.7510    0.4140 H   0  0  0  0  0  0  0  0  0  0  0  0
   31.9084   23.6256    4.2275 H   0  0  0  0  0  0  0  0  0  0  0  0
   29.4266   23.4040    4.1161 H   0  0  0  0  0  0  0  0  0  0  0  0
  1  2  2  0
  2  3  1  0
  3  4  2  0
  3  5  1  0
  4 26  1  0
  5  8  1  0
  5  6  2  0
  6  7  1  0
  7 17  1  0
  7  2  1  0
  8  9  2  0
  9 10  1  0
  9 39  1  0
 10 11  2  0
 10 40  1  0
 11 14  1  0
 11 12  1  0
 12 13  2  0
 12 41  1  0
 13  8  1  0
 13 42  1  0
 14 15  2  0
 14 16  1  0
 17 18  2  0
 18 19  1  0
 18 43  1  0
 19 20  2  0
 19 44  1  0
 20 23  1  0
 20 21  1  0
 21 22  2  0
 21 45  1  0
 22 17  1  0
 22 46  1  0
 23 24  2  0
 23 25  1  0
 26 28  1  0
 26 27  1  0
 28 29  2  0
 29 30  1  0
 29 47  1  0
 30 31  2  0
 30 48  1  0
 31 34  1  0
 31 32  1  0
 32 33  2  0
 32 49  1  0
 33 28  1  0
 33 50  1  0
 34 35  2  0
 34 36  2  0
 34 37  1  0
 37 38  1  0
M  CHG  4  14   1  16  -1  23   1  25  -1
M  END
>  <minimizedAffinity>  (6) 
-9.27830

>  <mol_id>  (6) 
82531

>  <source_index>  (6) 
5

>  <layer>  (6) 
L1

>  <uniprot>  (6) 
Q06124

>  <paff>  (6) 
7.1486999999999998

>  <smiles>  (6) 
OS(=O)(=O)c1ccc(N\N=C2\C(=O)N(N=C2c2ccc(cc2)[N+]([O-])=O)c2ccc(cc2)[N+]([O-])=O)cc1 |c:14|

>  <aimnet_interaction_kcal_mol>  (6) 
-207.57994927504666

$$$$
L1:Q06124:95742
     RDKit          3D

 42 44  0  0  0  0  0  0  0  0999 V2000
   21.6077   20.2128    4.2734 C   0  0  0  0  0  0  0  0  0  0  0  0
   21.4022   21.0041    3.1331 C   0  0  0  0  0  0  0  0  0  0  0  0
   22.4130   21.4843    2.4258 N   0  0  0  0  0  0  0  0  0  0  0  0
   23.6442   21.1408    2.7954 C   0  0  0  0  0  0  0  0  0  0  0  0
   23.8497   20.2369    3.8483 C   0  0  0  0  0  0  0  0  0  0  0  0
   22.8406   19.7988    4.5726 N   0  0  0  0  0  0  0  0  0  0  0  0
   17.4448   19.3078    7.9952 C   0  0  0  0  0  0  0  0  0  0  0  0
   18.5317   19.8190    7.0780 C   0  0  0  0  0  0  0  0  0  0  0  0
   18.6945   21.2517    7.2886 N   0  0  0  0  0  0  0  0  0  0  0  0
   19.8725   19.2320    7.4259 C   0  0  0  0  0  0  0  0  0  0  0  0
   20.9690   19.7747    6.5575 C   0  0  0  0  0  0  0  0  0  0  0  0
   20.5990   19.8360    5.1371 N   0  0  0  0  0  0  0  0  0  0  0  0
   19.2437   19.9171    4.6491 C   0  0  0  0  0  0  0  0  0  0  0  0
   18.1957   19.4594    5.6414 C   0  0  0  0  0  0  0  0  0  0  0  0
   17.7950   21.7017    7.2820 H   0  0  0  0  0  0  0  0  0  0  0  0
   19.2512   21.6295    6.5379 H   0  0  0  0  0  0  0  0  0  0  0  0
   24.9814   21.9417    1.9540 S   0  0  0  0  0  0  0  0  0  0  0  0
   26.2753   20.7334    2.2643 C   0  0  0  0  0  0  0  0  0  0  0  0
   26.2130   19.4614    1.6946 C   0  0  0  0  0  0  0  0  0  0  0  0
   27.3457   18.6705    1.7938 C   0  0  0  0  0  0  0  0  0  0  0  0
   28.4861   19.0591    2.3466 N   0  0  0  0  0  0  0  0  0  0  0  0
   28.5537   20.2679    2.9191 C   0  0  0  0  0  0  0  0  0  0  0  0
   29.7488   20.6802    3.3659 N   0  0  0  0  0  0  0  0  0  0  0  0
   27.3838   21.0901    3.0066 C   0  0  0  0  0  0  0  0  0  0  0  0
   27.3877   22.4464    4.0758 Cl  0  0  0  0  0  0  0  0  0  0  0  0
   29.8145   21.4849    3.9623 H   0  0  0  0  0  0  0  0  0  0  0  0
   30.6047   20.1208    3.2070 H   0  0  0  0  0  0  0  0  0  0  0  0
   20.4093   21.2585    2.7791 H   0  0  0  0  0  0  0  0  0  0  0  0
   24.8390   19.8946    4.1133 H   0  0  0  0  0  0  0  0  0  0  0  0
   17.6799   19.5300    9.0317 H   0  0  0  0  0  0  0  0  0  0  0  0
   17.3243   18.2346    7.9018 H   0  0  0  0  0  0  0  0  0  0  0  0
   16.4876   19.7745    7.7553 H   0  0  0  0  0  0  0  0  0  0  0  0
   19.8533   18.1576    7.3454 H   0  0  0  0  0  0  0  0  0  0  0  0
   20.0878   19.4757    8.4595 H   0  0  0  0  0  0  0  0  0  0  0  0
   21.8682   19.1800    6.6493 H   0  0  0  0  0  0  0  0  0  0  0  0
   21.2426   20.7690    6.9129 H   0  0  0  0  0  0  0  0  0  0  0  0
   19.1520   19.3347    3.7335 H   0  0  0  0  0  0  0  0  0  0  0  0
   19.0275   20.9474    4.3485 H   0  0  0  0  0  0  0  0  0  0  0  0
   18.0818   18.3886    5.5585 H   0  0  0  0  0  0  0  0  0  0  0  0
   17.2325   19.8860    5.3738 H   0  0  0  0  0  0  0  0  0  0  0  0
   25.3230   19.0818    1.2141 H   0  0  0  0  0  0  0  0  0  0  0  0
   27.3229   17.6561    1.4104 H   0  0  0  0  0  0  0  0  0  0  0  0
  1  2  2  0
  2  3  1  0
  2 28  1  0
  3  4  2  0
  4 17  1  0
  4  5  1  0
  5  6  2  0
  5 29  1  0
  6  1  1  0
  7  8  1  0
  7 30  1  0
  7 31  1  0
  7 32  1  0
  8  9  1  0
  8 10  1  0
  9 15  1  0
  9 16  1  0
 10 11  1  0
 10 33  1  0
 10 34  1  0
 11 12  1  0
 11 35  1  0
 11 36  1  0
 12  1  1  0
 12 13  1  0
 13 14  1  0
 13 37  1  0
 13 38  1  0
 14  8  1  0
 14 39  1  0
 14 40  1  0
 17 18  1  0
 18 19  2  0
 19 20  1  0
 19 41  1  0
 20 21  2  0
 20 42  1  0
 21 22  1  0
 22 23  1  0
 22 24  2  0
 23 26  1  0
 23 27  1  0
 24 25  1  0
 24 18  1  0
M  END
>  <minimizedAffinity>  (7) 
-7.98748

>  <mol_id>  (7) 
95742

>  <source_index>  (7) 
6

>  <layer>  (7) 
L1

>  <uniprot>  (7) 
Q06124

>  <paff>  (7) 
8.0314999999999994

>  <smiles>  (7) 
CC1(N)CCN(c2cnc(Sc3ccnc(N)c3Cl)cn2)CC1

>  <aimnet_interaction_kcal_mol>  (7) 
-43.525421980409675

$$$$
L1:Q06124:118200
     RDKit          3D

 50 53  0  0  0  0  0  0  0  0999 V2000
   25.7699   22.7355    3.9698 O   0  0  0  0  0  0  0  0  0  0  0  0
   26.2592   21.7083    3.5439 C   0  0  0  0  0  0  0  0  0  0  0  0
   27.5718   21.2988    3.6149 N   0  0  0  0  0  0  0  0  0  0  0  0
   27.7729   20.1228    2.8967 C   0  0  0  0  0  0  0  0  0  0  0  0
   28.9538   19.4732    2.6022 C   0  0  0  0  0  0  0  0  0  0  0  0
   28.8732   18.3037    1.8484 C   0  0  0  0  0  0  0  0  0  0  0  0
   27.6569   17.8439    1.3621 C   0  0  0  0  0  0  0  0  0  0  0  0
   26.4593   18.4898    1.6518 C   0  0  0  0  0  0  0  0  0  0  0  0
   26.5287   19.6481    2.4045 C   0  0  0  0  0  0  0  0  0  0  0  0
   25.5355   20.6236    2.8019 C   0  0  0  0  0  0  0  0  0  0  0  0
   24.2620   20.6066    2.5983 N   0  0  0  0  0  0  0  0  0  0  0  0
   28.2627   21.7871    4.1676 H   0  0  0  0  0  0  0  0  0  0  0  0
   27.6498   16.4633    0.2153 S   0  0  0  0  0  0  0  0  0  0  0  0
   26.8355   16.8336   -0.9639 O   0  0  0  0  0  0  0  0  0  0  0  0
   29.0557   16.0344    0.0044 O   0  0  0  0  0  0  0  0  0  0  0  0
   26.9127   15.2618    1.1013 N   0  0  0  0  0  0  0  0  0  0  0  0
   25.9042   15.4039    1.3075 H   0  0  0  0  0  0  0  0  0  0  0  0
   27.2668   13.8801    0.8401 C   0  0  0  0  0  0  0  0  0  0  0  0
   26.1039   13.1037    0.2979 C   0  0  0  0  0  0  0  0  0  0  0  0
   25.7795   13.1691   -1.0525 C   0  0  0  0  0  0  0  0  0  0  0  0
   24.6868   12.4761   -1.5500 C   0  0  0  0  0  0  0  0  0  0  0  0
   23.9074   11.7477   -0.6704 C   0  0  0  0  0  0  0  0  0  0  0  0
   22.8376   11.0602   -1.1551 F   0  0  0  0  0  0  0  0  0  0  0  0
   24.1757   11.6990    0.6822 C   0  0  0  0  0  0  0  0  0  0  0  0
   25.2826   12.3840    1.1536 C   0  0  0  0  0  0  0  0  0  0  0  0
   23.5879   21.7388    2.7510 N   0  0  0  0  0  0  0  0  0  0  0  0
   24.1068   22.5712    3.0651 H   0  0  0  0  0  0  0  0  0  0  0  0
   22.1874   21.6649    2.7959 C   0  0  0  0  0  0  0  0  0  0  0  0
   21.4114   22.5170    2.0050 C   0  0  0  0  0  0  0  0  0  0  0  0
   20.0309   22.3848    2.0154 C   0  0  0  0  0  0  0  0  0  0  0  0
   19.4099   21.4901    2.8689 C   0  0  0  0  0  0  0  0  0  0  0  0
   20.1809   20.7480    3.7697 C   0  0  0  0  0  0  0  0  0  0  0  0
   21.5706   20.7654    3.6627 C   0  0  0  0  0  0  0  0  0  0  0  0
   19.4916   20.0727    4.8720 C   0  0  0  0  0  0  0  0  0  0  0  0
   18.2773   20.1138    5.0640 O   0  0  0  0  0  0  0  0  0  0  0  0
   20.3460   19.4464    5.6986 O   0  0  0  0  0  0  0  0  0  0  0  0
   19.8402   19.0516    6.4267 H   0  0  0  0  0  0  0  0  0  0  0  0
   29.9244   19.8322    2.9178 H   0  0  0  0  0  0  0  0  0  0  0  0
   29.7774   17.7609    1.6188 H   0  0  0  0  0  0  0  0  0  0  0  0
   25.5069   18.1006    1.3148 H   0  0  0  0  0  0  0  0  0  0  0  0
   27.6027   13.4406    1.7790 H   0  0  0  0  0  0  0  0  0  0  0  0
   28.1120   13.8336    0.1541 H   0  0  0  0  0  0  0  0  0  0  0  0
   26.3742   13.7866   -1.7151 H   0  0  0  0  0  0  0  0  0  0  0  0
   24.4233   12.5087   -2.5977 H   0  0  0  0  0  0  0  0  0  0  0  0
   23.5106   11.1704    1.3483 H   0  0  0  0  0  0  0  0  0  0  0  0
   25.4803   12.4066    2.2155 H   0  0  0  0  0  0  0  0  0  0  0  0
   21.8971   23.2623    1.3929 H   0  0  0  0  0  0  0  0  0  0  0  0
   19.4526   23.0075    1.3513 H   0  0  0  0  0  0  0  0  0  0  0  0
   18.3524   21.2791    2.7651 H   0  0  0  0  0  0  0  0  0  0  0  0
   22.1976   20.0909    4.2270 H   0  0  0  0  0  0  0  0  0  0  0  0
  1  2  2  0
  2  3  1  0
  3  4  1  0
  3 12  1  0
  4  5  2  0
  5  6  1  0
  5 38  1  0
  6  7  2  0
  6 39  1  0
  7 13  1  0
  7  8  1  0
  8  9  2  0
  8 40  1  0
  9 10  1  0
  9  4  1  0
 10 11  2  0
 10  2  1  0
 11 26  1  0
 13 14  2  0
 13 15  2  0
 13 16  1  0
 16 18  1  0
 16 17  1  0
 18 19  1  0
 18 41  1  0
 18 42  1  0
 19 20  2  0
 20 21  1  0
 20 43  1  0
 21 22  2  0
 21 44  1  0
 22 23  1  0
 22 24  1  0
 24 25  2  0
 24 45  1  0
 25 19  1  0
 25 46  1  0
 26 28  1  0
 26 27  1  0
 28 29  2  0
 29 30  1  0
 29 47  1  0
 30 31  2  0
 30 48  1  0
 31 32  1  0
 31 49  1  0
 32 34  1  0
 32 33  2  0
 33 28  1  0
 33 50  1  0
 34 35  2  0
 34 36  1  0
 36 37  1  0
M  END
>  <minimizedAffinity>  (8) 
-9.75103

>  <mol_id>  (8) 
118200

>  <source_index>  (8) 
7

>  <layer>  (8) 
L1

>  <uniprot>  (8) 
Q06124

>  <paff>  (8) 
6

>  <smiles>  (8) 
OC(=O)c1cccc(N\N=C2/C(=O)Nc3ccc(cc23)S(=O)(=O)NCc2ccc(F)cc2)c1

>  <aimnet_interaction_kcal_mol>  (8) 
-85.855530643335129

$$$$
L1:Q06124:125082
     RDKit          3D

 56 60  0  0  0  0  0  0  0  0999 V2000
   29.5761   21.9951    2.1339 C   0  0  0  0  0  0  0  0  0  0  0  0
   28.6756   21.6750    1.1986 N   0  0  0  0  0  0  0  0  0  0  0  0
   27.4737   21.6522    1.8581 C   0  0  0  0  0  0  0  0  0  0  0  0
   26.2562   21.3975    1.3828 N   0  0  0  0  0  0  0  0  0  0  0  0
   25.2869   21.5021    2.2904 C   0  0  0  0  0  0  0  0  0  0  0  0
   25.4997   21.8696    3.6235 C   0  0  0  0  0  0  0  0  0  0  0  0
   26.7153   22.0937    4.1190 N   0  0  0  0  0  0  0  0  0  0  0  0
   27.6576   21.9758    3.2314 C   0  0  0  0  0  0  0  0  0  0  0  0
   29.0122   22.1708    3.3851 N   0  0  0  0  0  0  0  0  0  0  0  0
   29.4544   22.4573    4.2459 H   0  0  0  0  0  0  0  0  0  0  0  0
   34.5565   21.0798    1.7946 C   0  0  1  0  0  0  0  0  0  0  0  0
   35.8150   21.6345    2.4756 C   0  0  0  0  0  0  0  0  0  0  0  0
   36.1974   22.8968    1.6881 C   0  0  0  0  0  0  0  0  0  0  0  0
   34.9840   23.2185    0.8037 C   0  0  0  0  0  0  0  0  0  0  0  0
   33.8150   22.3478    1.3127 C   0  0  0  0  0  0  0  0  0  0  0  0
   33.1193   23.0446    2.5001 C   0  0  0  0  0  0  0  0  0  0  0  0
   31.8462   22.3702    2.9985 C   0  0  0  0  0  0  0  0  0  0  0  0
   30.9004   22.1464    1.9044 N   0  0  0  0  0  0  0  0  0  0  0  0
   31.4723   21.4731    0.7309 C   0  0  0  0  0  0  0  0  0  0  0  0
   32.7475   22.1344    0.2402 C   0  0  0  0  0  0  0  0  0  0  0  0
   33.8107   19.2566    0.2594 N   0  0  0  0  0  0  0  0  0  0  0  0
   34.9425   20.0578    0.7297 C   0  0  0  0  0  0  0  0  0  0  0  0
   33.2999   18.9241    1.0747 H   0  0  0  0  0  0  0  0  0  0  0  0
   34.1471   18.4425   -0.2386 H   0  0  0  0  0  0  0  0  0  0  0  0
   23.6088   21.2483    1.6348 S   0  0  0  0  0  0  0  0  0  0  0  0
   22.7284   20.6469    3.0709 C   0  0  0  0  0  0  0  0  0  0  0  0
   23.3342   19.7638    3.9734 C   0  0  0  0  0  0  0  0  0  0  0  0
   22.6000   19.2446    5.0198 C   0  0  0  0  0  0  0  0  0  0  0  0
   21.2833   19.6581    5.1827 C   0  0  0  0  0  0  0  0  0  0  0  0
   20.6849   20.5189    4.3593 N   0  0  0  0  0  0  0  0  0  0  0  0
   21.3797   20.9589    3.3136 C   0  0  0  0  0  0  0  0  0  0  0  0
   20.5773   21.8022    2.3391 C   0  0  0  0  0  0  0  0  0  0  0  0
   20.6683   21.3117    1.0848 F   0  0  0  0  0  0  0  0  0  0  0  0
   20.9370   23.0922    2.3108 F   0  0  0  0  0  0  0  0  0  0  0  0
   19.2301   21.7983    2.6557 F   0  0  0  0  0  0  0  0  0  0  0  0
   24.6702   22.0068    4.2885 H   0  0  0  0  0  0  0  0  0  0  0  0
   33.9574   20.5552    2.5201 H   0  0  0  0  0  0  0  0  0  0  0  0
   36.6135   20.8948    2.4995 H   0  0  0  0  0  0  0  0  0  0  0  0
   35.5953   21.8639    3.5153 H   0  0  0  0  0  0  0  0  0  0  0  0
   37.0821   22.7326    1.0725 H   0  0  0  0  0  0  0  0  0  0  0  0
   36.4355   23.7274    2.3523 H   0  0  0  0  0  0  0  0  0  0  0  0
   35.1996   22.9586   -0.2366 H   0  0  0  0  0  0  0  0  0  0  0  0
   34.7607   24.2828    0.8185 H   0  0  0  0  0  0  0  0  0  0  0  0
   32.8564   24.0675    2.2217 H   0  0  0  0  0  0  0  0  0  0  0  0
   33.8127   23.1268    3.3366 H   0  0  0  0  0  0  0  0  0  0  0  0
   31.3812   23.0144    3.7453 H   0  0  0  0  0  0  0  0  0  0  0  0
   32.0850   21.4187    3.4740 H   0  0  0  0  0  0  0  0  0  0  0  0
   30.7135   21.4839   -0.0434 H   0  0  0  0  0  0  0  0  0  0  0  0
   31.6662   20.4383    1.0008 H   0  0  0  0  0  0  0  0  0  0  0  0
   32.4768   23.0860   -0.2185 H   0  0  0  0  0  0  0  0  0  0  0  0
   33.1530   21.5080   -0.5509 H   0  0  0  0  0  0  0  0  0  0  0  0
   35.4274   20.5619   -0.1165 H   0  0  0  0  0  0  0  0  0  0  0  0
   35.7080   19.4165    1.1808 H   0  0  0  0  0  0  0  0  0  0  0  0
   24.3683   19.4861    3.8371 H   0  0  0  0  0  0  0  0  0  0  0  0
   23.0384   18.5477    5.7207 H   0  0  0  0  0  0  0  0  0  0  0  0
   20.6861   19.2734    5.9989 H   0  0  0  0  0  0  0  0  0  0  0  0
  1  2  2  0
  2  3  1  0
  3  4  2  0
  4  5  1  0
  5 25  1  0
  5  6  2  0
  6  7  1  0
  6 36  1  0
  7  8  2  0
  8  9  1  0
  8  3  1  0
  9  1  1  0
  9 10  1  0
 11 12  1  0
 11 37  1  1
 12 13  1  0
 12 38  1  0
 12 39  1  0
 13 14  1  0
 13 40  1  0
 13 41  1  0
 14 15  1  0
 14 42  1  0
 14 43  1  0
 15 16  1  0
 15 11  1  0
 16 17  1  0
 16 44  1  0
 16 45  1  0
 17 18  1  0
 17 46  1  0
 17 47  1  0
 18  1  1  0
 18 19  1  0
 19 20  1  0
 19 48  1  0
 19 49  1  0
 20 15  1  0
 20 50  1  0
 20 51  1  0
 21 22  1  0
 21 23  1  0
 21 24  1  0
 22 11  1  0
 22 52  1  0
 22 53  1  0
 25 26  1  0
 26 27  2  0
 27 28  1  0
 27 54  1  0
 28 29  2  0
 28 55  1  0
 29 30  1  0
 29 56  1  0
 30 31  2  0
 31 32  1  0
 31 26  1  0
 32 33  1  0
 32 34  1  0
 32 35  1  0
M  END
>  <minimizedAffinity>  (9) 
-7.94376

>  <mol_id>  (9) 
125082

>  <source_index>  (9) 
8

>  <layer>  (9) 
L1

>  <uniprot>  (9) 
Q06124

>  <paff>  (9) 
6.0209000000000001

>  <smiles>  (9) 
NCC1CCCC12CCN(c1nc3nc(Sc4cccnc4C(F)(F)F)cnc3[nH]1)CC2

>  <aimnet_interaction_kcal_mol>  (9) 
-66.238398928343514

$$$$
L1:Q06124:129145
     RDKit          3D

 56 60  0  0  0  0  0  0  0  0999 V2000
   26.9841   21.3929    2.3219 C   0  0  0  0  0  0  0  0  0  0  0  0
   27.8964   21.7760    3.2547 O   0  0  0  0  0  0  0  0  0  0  0  0
   29.0934   21.9461    2.6033 C   0  0  0  0  0  0  0  0  0  0  0  0
   30.2710   22.3231    3.1876 C   0  0  0  0  0  0  0  0  0  0  0  0
   31.3776   22.4441    2.3440 C   0  0  0  0  0  0  0  0  0  0  0  0
   32.5282   22.8865    2.8928 O   0  0  0  0  0  0  0  0  0  0  0  0
   31.2767   22.1097    0.9592 C   0  0  0  0  0  0  0  0  0  0  0  0
   30.0511   21.7164    0.4198 C   0  0  0  0  0  0  0  0  0  0  0  0
   28.9416   21.6690    1.2355 C   0  0  0  0  0  0  0  0  0  0  0  0
   27.5507   21.3199    1.0645 C   0  0  0  0  0  0  0  0  0  0  0  0
   33.2437   22.7728    2.2375 H   0  0  0  0  0  0  0  0  0  0  0  0
   23.1743   20.1427    3.6084 C   0  0  0  0  0  0  0  0  0  0  0  0
   24.3051   19.7967    4.3338 C   0  0  0  0  0  0  0  0  0  0  0  0
   25.5374   20.2990    3.9592 C   0  0  0  0  0  0  0  0  0  0  0  0
   25.6725   21.0057    2.7637 C   0  0  0  0  0  0  0  0  0  0  0  0
   24.5393   21.2776    2.0008 C   0  0  0  0  0  0  0  0  0  0  0  0
   23.2837   20.8812    2.4351 C   0  0  0  0  0  0  0  0  0  0  0  0
   21.9650   19.6992    4.1127 O   0  0  0  0  0  0  0  0  0  0  0  0
   20.8642   20.5886    4.0304 C   0  0  0  0  0  0  0  0  0  0  0  0
   20.5147   21.4076    6.2830 O   0  0  0  0  0  0  0  0  0  0  0  0
   20.1903   20.6225    5.3992 C   0  0  0  0  0  0  0  0  0  0  0  0
   19.1924   19.7129    5.5542 N   0  0  0  0  0  0  0  0  0  0  0  0
   19.0593   19.0472    4.8069 H   0  0  0  0  0  0  0  0  0  0  0  0
   18.7580   19.3146    6.8720 C   0  0  0  0  0  0  0  0  0  0  0  0
   17.8961   20.1714    7.7291 C   0  0  0  0  0  0  0  0  0  0  0  0
   17.3269   18.9594    7.0902 C   0  0  0  0  0  0  0  0  0  0  0  0
   32.4479   22.1700    0.1072 C   0  0  0  0  0  0  0  0  0  0  0  0
   33.5334   22.6884    0.3959 O   0  0  0  0  0  0  0  0  0  0  0  0
   32.2807   21.5896   -1.1032 O   0  0  0  0  0  0  0  0  0  0  0  0
   33.1335   21.6488   -1.5551 H   0  0  0  0  0  0  0  0  0  0  0  0
   26.8861   20.8230   -0.0611 C   0  0  0  0  0  0  0  0  0  0  0  0
   26.3137   20.2667   -0.9763 C   0  0  0  0  0  0  0  0  0  0  0  0
   25.6758   19.4411   -1.9260 C   0  0  0  0  0  0  0  0  0  0  0  0
   25.6475   19.8023   -3.2801 C   0  0  0  0  0  0  0  0  0  0  0  0
   25.0798   18.9611   -4.2208 C   0  0  0  0  0  0  0  0  0  0  0  0
   24.5398   17.7416   -3.8453 C   0  0  0  0  0  0  0  0  0  0  0  0
   24.5633   17.3843   -2.5042 C   0  0  0  0  0  0  0  0  0  0  0  0
   23.9093   15.8382   -2.0348 Cl  0  0  0  0  0  0  0  0  0  0  0  0
   25.0901   18.2206   -1.5357 C   0  0  0  0  0  0  0  0  0  0  0  0
   30.3580   22.4730    4.2566 H   0  0  0  0  0  0  0  0  0  0  0  0
   29.9794   21.4527   -0.6250 H   0  0  0  0  0  0  0  0  0  0  0  0
   24.1915   19.1571    5.1921 H   0  0  0  0  0  0  0  0  0  0  0  0
   26.4002   20.1790    4.5976 H   0  0  0  0  0  0  0  0  0  0  0  0
   24.6376   21.8053    1.0650 H   0  0  0  0  0  0  0  0  0  0  0  0
   22.4156   21.1451    1.8509 H   0  0  0  0  0  0  0  0  0  0  0  0
   21.1881   21.6014    3.7977 H   0  0  0  0  0  0  0  0  0  0  0  0
   20.1744   20.2548    3.2531 H   0  0  0  0  0  0  0  0  0  0  0  0
   19.5066   18.7420    7.3983 H   0  0  0  0  0  0  0  0  0  0  0  0
   17.5950   21.1350    7.3570 H   0  0  0  0  0  0  0  0  0  0  0  0
   18.1093   20.1412    8.7849 H   0  0  0  0  0  0  0  0  0  0  0  0
   16.6335   19.0861    6.2659 H   0  0  0  0  0  0  0  0  0  0  0  0
   17.1098   18.1003    7.7022 H   0  0  0  0  0  0  0  0  0  0  0  0
   26.0789   20.7463   -3.5828 H   0  0  0  0  0  0  0  0  0  0  0  0
   25.0523   19.2576   -5.2607 H   0  0  0  0  0  0  0  0  0  0  0  0
   24.0800   17.0836   -4.5678 H   0  0  0  0  0  0  0  0  0  0  0  0
   25.0645   17.9326   -0.4928 H   0  0  0  0  0  0  0  0  0  0  0  0
  1  2  1  0
  2  3  1  0
  3  4  2  0
  4  5  1  0
  4 40  1  0
  5  6  1  0
  5  7  2  0
  6 11  1  0
  7 27  1  0
  7  8  1  0
  8  9  2  0
  8 41  1  0
  9 10  1  0
  9  3  1  0
 10 31  1  0
 10  1  2  0
 12 13  2  0
 13 14  1  0
 13 42  1  0
 14 15  2  0
 14 43  1  0
 15  1  1  0
 15 16  1  0
 16 17  2  0
 16 44  1  0
 17 12  1  0
 17 45  1  0
 18 12  1  0
 19 18  1  0
 19 46  1  0
 19 47  1  0
 20 21  2  0
 21 19  1  0
 21 22  1  0
 22 24  1  0
 22 23  1  0
 24 25  1  0
 24 48  1  0
 25 26  1  0
 25 49  1  0
 25 50  1  0
 26 24  1  0
 26 51  1  0
 26 52  1  0
 27 28  2  0
 27 29  1  0
 29 30  1  0
 31 32  3  0
 32 33  1  0
 33 34  2  0
 34 35  1  0
 34 53  1  0
 35 36  2  0
 35 54  1  0
 36 37  1  0
 36 55  1  0
 37 38  1  0
 37 39  2  0
 39 33  1  0
 39 56  1  0
M  END
>  <minimizedAffinity>  (10) 
-9.06223

>  <mol_id>  (10) 
129145

>  <source_index>  (10) 
9

>  <layer>  (10) 
L1

>  <uniprot>  (10) 
Q06124

>  <paff>  (10) 
6.1675000000000004

>  <smiles>  (10) 
c1cc(cc(c1)Cl)C#Cc2c3cc(c(cc3oc2c4ccc(cc4)OCC(=O)NC5CC5)O)C(=O)O

>  <aimnet_interaction_kcal_mol>  (10) 
-58.934119729611453

$$$$
