L1:Q06124:1874
     RDKit          3D

 57 61  0  0  0  0  0  0  0  0999 V2000
   26.8480   21.1570    2.4058 C   0  0  0  0  0  0  0  0  0  0  0  0
   27.7240   21.5701    3.3773 O   0  0  0  0  0  0  0  0  0  0  0  0
   28.9245   21.7984    2.7827 C   0  0  0  0  0  0  0  0  0  0  0  0
   30.0756   22.2325    3.4330 C   0  0  0  0  0  0  0  0  0  0  0  0
   31.2143   22.4039    2.6396 C   0  0  0  0  0  0  0  0  0  0  0  0
   32.3304   22.8315    3.3122 O   0  0  0  0  0  0  0  0  0  0  0  0
   31.1955   22.1508    1.2577 C   0  0  0  0  0  0  0  0  0  0  0  0
   30.0065   21.7126    0.6397 C   0  0  0  0  0  0  0  0  0  0  0  0
   28.8483   21.5349    1.4227 C   0  0  0  0  0  0  0  0  0  0  0  0
   27.5074   21.1199    1.1882 C   0  0  0  0  0  0  0  0  0  0  0  0
   33.0628   22.9016    2.6632 H   0  0  0  0  0  0  0  0  0  0  0  0
   22.8579   20.3593    3.7755 C   0  0  0  0  0  0  0  0  0  0  0  0
   23.1679   21.5764    3.1747 C   0  0  0  0  0  0  0  0  0  0  0  0
   24.4721   21.8276    2.7260 C   0  0  0  0  0  0  0  0  0  0  0  0
   25.4921   20.8752    2.8762 C   0  0  0  0  0  0  0  0  0  0  0  0
   25.1686   19.6596    3.4898 C   0  0  0  0  0  0  0  0  0  0  0  0
   23.8671   19.4093    3.9395 C   0  0  0  0  0  0  0  0  0  0  0  0
   21.6362   19.9828    4.2569 O   0  0  0  0  0  0  0  0  0  0  0  0
   21.0343   20.7994    5.2458 C   0  0  0  0  0  0  0  0  0  0  0  0
   20.9252   19.5881    7.3638 O   0  0  0  0  0  0  0  0  0  0  0  0
   20.3360   20.0702    6.4014 C   0  0  0  0  0  0  0  0  0  0  0  0
   18.9573   20.0220    6.2498 N   0  0  0  0  0  0  0  0  0  0  0  0
   18.5378   20.4014    5.4089 H   0  0  0  0  0  0  0  0  0  0  0  0
   18.1092   19.3664    7.1939 C   0  0  0  0  0  0  0  0  0  0  0  0
   16.6195   19.3446    6.9901 C   0  0  0  0  0  0  0  0  0  0  0  0
   17.2107   20.1627    8.1006 C   0  0  0  0  0  0  0  0  0  0  0  0
   32.3766   22.3182    0.3739 C   0  0  0  0  0  0  0  0  0  0  0  0
   33.5179   22.5324    0.7358 O   0  0  0  0  0  0  0  0  0  0  0  0
   32.0772   22.2110   -0.9368 O   0  0  0  0  0  0  0  0  0  0  0  0
   32.9497   22.3476   -1.3722 H   0  0  0  0  0  0  0  0  0  0  0  0
   26.9578   20.7192   -0.0656 C   0  0  0  0  0  0  0  0  0  0  0  0
   26.4980   20.3796   -1.1219 C   0  0  0  0  0  0  0  0  0  0  0  0
   25.9548   19.9839   -2.3841 C   0  0  0  0  0  0  0  0  0  0  0  0
   26.1188   20.8062   -3.5032 C   0  0  0  0  0  0  0  0  0  0  0  0
   25.5904   20.4208   -4.7371 C   0  0  0  0  0  0  0  0  0  0  0  0
   24.8996   19.2147   -4.8515 C   0  0  0  0  0  0  0  0  0  0  0  0
   24.7409   18.4020   -3.7336 C   0  0  0  0  0  0  0  0  0  0  0  0
   24.0570   17.2323   -3.8930 O   0  0  0  0  0  0  0  0  0  0  0  0
   25.2627   18.7747   -2.4976 C   0  0  0  0  0  0  0  0  0  0  0  0
   24.0071   16.7792   -3.0353 H   0  0  0  0  0  0  0  0  0  0  0  0
   30.0883   22.4183    4.4481 H   0  0  0  0  0  0  0  0  0  0  0  0
   29.9845   21.5241   -0.3747 H   0  0  0  0  0  0  0  0  0  0  0  0
   22.4362   22.2950    3.0594 H   0  0  0  0  0  0  0  0  0  0  0  0
   24.6866   22.7312    2.2761 H   0  0  0  0  0  0  0  0  0  0  0  0
   25.8979   18.9398    3.6120 H   0  0  0  0  0  0  0  0  0  0  0  0
   23.6508   18.5106    4.3983 H   0  0  0  0  0  0  0  0  0  0  0  0
   21.7991   21.4183    5.6664 H   0  0  0  0  0  0  0  0  0  0  0  0
   20.2593   21.3351    4.7385 H   0  0  0  0  0  0  0  0  0  0  0  0
   18.8663   18.6248    7.3415 H   0  0  0  0  0  0  0  0  0  0  0  0
   16.0618   18.4599    7.2162 H   0  0  0  0  0  0  0  0  0  0  0  0
   15.9659   19.5468    6.1674 H   0  0  0  0  0  0  0  0  0  0  0  0
   17.0745   19.8610    9.1181 H   0  0  0  0  0  0  0  0  0  0  0  0
   17.1532   21.1892    8.3970 H   0  0  0  0  0  0  0  0  0  0  0  0
   26.6305   21.6983   -3.4172 H   0  0  0  0  0  0  0  0  0  0  0  0
   25.7109   21.0276   -5.5631 H   0  0  0  0  0  0  0  0  0  0  0  0
   24.5078   18.9263   -5.7616 H   0  0  0  0  0  0  0  0  0  0  0  0
   25.1398   18.1648   -1.6742 H   0  0  0  0  0  0  0  0  0  0  0  0
  1  2  1  0
  2  3  1  0
  3  4  2  0
  4  5  1  0
  4 41  1  0
  5  6  1  0
  5  7  2  0
  6 11  1  0
  7 27  1  0
  7  8  1  0
  8  9  2  0
  8 42  1  0
  9 10  1  0
  9  3  1  0
 10 31  1  0
 10  1  2  0
 12 13  2  0
 13 14  1  0
 13 43  1  0
 14 15  2  0
 14 44  1  0
 15  1  1  0
 15 16  1  0
 16 17  2  0
 16 45  1  0
 17 12  1  0
 17 46  1  0
 18 12  1  0
 19 18  1  0
 19 47  1  0
 19 48  1  0
 20 21  2  0
 21 19  1  0
 21 22  1  0
 22 24  1  0
 22 23  1  0
 24 25  1  0
 24 49  1  0
 25 26  1  0
 25 50  1  0
 25 51  1  0
 26 24  1  0
 26 52  1  0
 26 53  1  0
 27 28  2  0
 27 29  1  0
 29 30  1  0
 31 32  3  0
 32 33  1  0
 33 34  2  0
 34 35  1  0
 34 54  1  0
 35 36  2  0
 35 55  1  0
 36 37  1  0
 36 56  1  0
 37 38  1  0
 37 39  2  0
 38 40  1  0
 39 33  1  0
 39 57  1  0
M  END
>  <minimizedAffinity>  (1) 
-8.88849

>  <mol_id>  (1) 
1874

>  <source_index>  (1) 
0

>  <layer>  (1) 
L1

>  <uniprot>  (1) 
Q06124

>  <paff>  (1) 
6.0269000000000004

>  <smiles>  (1) 
O=C(COc1ccc(-c2oc3cc(O)c(C(=O)O)cc3c2C#Cc2cccc(O)c2)cc1)NC1CC1

$$$$
L1:Q06124:26663
     RDKit          3D

 46 48  0  0  0  0  0  0  0  0999 V2000
   24.7853   20.1778    3.3943 C   0  0  0  0  0  0  0  0  0  0  0  0
   25.5452   19.3089    2.6020 C   0  0  0  0  0  0  0  0  0  0  0  0
   26.8597   19.4770    2.3080 N   0  0  0  0  0  0  0  0  0  0  0  0
   27.4280   20.5728    2.8590 C   0  0  0  0  0  0  0  0  0  0  0  0
   26.7036   21.4586    3.6830 C   0  0  0  0  0  0  0  0  0  0  0  0
   25.3946   21.2549    3.9439 N   0  0  0  0  0  0  0  0  0  0  0  0
   27.2825   22.6170    4.2421 N   0  0  0  0  0  0  0  0  0  0  0  0
   27.5966   23.2154    3.4796 H   0  0  0  0  0  0  0  0  0  0  0  0
   28.1132   22.3479    4.7632 H   0  0  0  0  0  0  0  0  0  0  0  0
   20.5292   20.4385    6.4967 C   0  0  0  0  0  0  0  0  0  0  0  0
   20.7783   20.0958    5.0087 C   0  0  0  0  0  0  0  0  0  0  0  0
   21.4876   21.3090    4.3507 C   0  0  0  0  0  0  0  0  0  0  0  0
   22.4370   20.9194    3.2153 C   0  0  0  0  0  0  0  0  0  0  0  0
   23.4392   19.9479    3.6683 N   0  0  0  0  0  0  0  0  0  0  0  0
   23.1591   19.1885    4.8890 C   0  0  0  0  0  0  0  0  0  0  0  0
   21.6727   18.8311    4.9324 C   0  0  0  0  0  0  0  0  0  0  0  0
   19.3868   19.8370    4.3676 C   0  0  0  0  0  0  0  0  0  0  0  0
   18.9786   20.8308    3.3790 N   0  0  0  0  0  0  0  0  0  0  0  0
   19.5989   20.7942    2.5707 H   0  0  0  0  0  0  0  0  0  0  0  0
   18.0530   20.5884    3.0248 H   0  0  0  0  0  0  0  0  0  0  0  0
   29.1645   20.8303    2.5142 S   0  0  0  0  0  0  0  0  0  0  0  0
   29.1642   20.5735    0.7380 C   0  0  0  0  0  0  0  0  0  0  0  0
   28.8531   21.6825   -0.0655 C   0  0  0  0  0  0  0  0  0  0  0  0
   28.8265   21.5718   -1.4549 C   0  0  0  0  0  0  0  0  0  0  0  0
   29.1070   20.3484   -2.0569 C   0  0  0  0  0  0  0  0  0  0  0  0
   29.4130   19.2322   -1.2715 C   0  0  0  0  0  0  0  0  0  0  0  0
   29.4416   19.3337    0.1293 C   0  0  0  0  0  0  0  0  0  0  0  0
   29.8062   17.9364    1.0996 Cl  0  0  0  0  0  0  0  0  0  0  0  0
   29.7435   17.7513   -2.1050 Cl  0  0  0  0  0  0  0  0  0  0  0  0
   25.0708   18.4792    2.2127 H   0  0  0  0  0  0  0  0  0  0  0  0
   19.9125   21.3104    6.5635 H   0  0  0  0  0  0  0  0  0  0  0  0
   21.4648   20.6254    6.9811 H   0  0  0  0  0  0  0  0  0  0  0  0
   20.0380   19.6168    6.9746 H   0  0  0  0  0  0  0  0  0  0  0  0
   22.0511   21.8206    5.1028 H   0  0  0  0  0  0  0  0  0  0  0  0
   20.7246   21.9265    3.9248 H   0  0  0  0  0  0  0  0  0  0  0  0
   22.9369   21.7971    2.8623 H   0  0  0  0  0  0  0  0  0  0  0  0
   21.8615   20.4710    2.4326 H   0  0  0  0  0  0  0  0  0  0  0  0
   23.4092   19.7813    5.7440 H   0  0  0  0  0  0  0  0  0  0  0  0
   23.7435   18.2922    4.8954 H   0  0  0  0  0  0  0  0  0  0  0  0
   21.4876   18.2235    5.7935 H   0  0  0  0  0  0  0  0  0  0  0  0
   21.4304   18.3062    4.0320 H   0  0  0  0  0  0  0  0  0  0  0  0
   18.6563   19.8244    5.1494 H   0  0  0  0  0  0  0  0  0  0  0  0
   19.4612   18.9048    3.8475 H   0  0  0  0  0  0  0  0  0  0  0  0
   28.6417   22.5901    0.3778 H   0  0  0  0  0  0  0  0  0  0  0  0
   28.5995   22.3943   -2.0354 H   0  0  0  0  0  0  0  0  0  0  0  0
   29.0891   20.2648   -3.0854 H   0  0  0  0  0  0  0  0  0  0  0  0
  1  2  2  0
  2  3  1  0
  2 30  1  0
  3  4  2  0
  4  5  1  0
  4 21  1  0
  5  6  2  0
  5  7  1  0
  6  1  1  0
  7  8  1  0
  7  9  1  0
 10 11  1  0
 10 31  1  0
 10 32  1  0
 10 33  1  0
 11 12  1  0
 11 17  1  0
 12 13  1  0
 12 34  1  0
 12 35  1  0
 13 14  1  0
 13 36  1  0
 13 37  1  0
 14 15  1  0
 14  1  1  0
 15 16  1  0
 15 38  1  0
 15 39  1  0
 16 11  1  0
 16 40  1  0
 16 41  1  0
 17 18  1  0
 17 42  1  0
 17 43  1  0
 18 19  1  0
 18 20  1  0
 21 22  1  0
 22 23  2  0
 23 24  1  0
 23 44  1  0
 24 25  2  0
 24 45  1  0
 25 26  1  0
 25 46  1  0
 26 27  2  0
 26 29  1  0
 27 28  1  0
 27 22  1  0
M  END
>  <minimizedAffinity>  (2) 
-8.13550

>  <mol_id>  (2) 
26663

>  <source_index>  (2) 
1

>  <layer>  (2) 
L1

>  <uniprot>  (2) 
Q06124

>  <paff>  (2) 
7.6383000000000001

>  <smiles>  (2) 
CC1(CCN(CC1)c2cnc(c(n2)N)Sc3cccc(c3Cl)Cl)CN

$$$$
L1:Q06124:32578
     RDKit          3D

 54 58  0  0  0  0  0  0  0  0999 V2000
   25.1033   19.2422    4.3260 C   0  0  0  0  0  0  0  0  0  0  0  0
   24.0898   20.0329    3.5467 C   0  0  0  0  0  0  0  0  0  0  0  0
   22.8098   19.9572    4.0143 N   0  0  0  0  0  0  0  0  0  0  0  0
   21.9244   20.6598    3.2602 C   0  0  0  0  0  0  0  0  0  0  0  0
   20.5174   20.8749    3.3563 C   0  0  0  0  0  0  0  0  0  0  0  0
   20.0790   21.6417    2.3370 N   0  0  0  0  0  0  0  0  0  0  0  0
   21.1952   21.9288    1.6379 N   0  0  0  0  0  0  0  0  0  0  0  0
   22.3258   21.3623    2.1386 C   0  0  0  0  0  0  0  0  0  0  0  0
   23.5766   21.4633    1.6512 N   0  0  0  0  0  0  0  0  0  0  0  0
   24.4771   20.7766    2.3996 C   0  0  0  0  0  0  0  0  0  0  0  0
   21.1221   22.5180    0.8181 H   0  0  0  0  0  0  0  0  0  0  0  0
   25.8450   20.8240    2.0197 N   0  0  0  0  0  0  0  0  0  0  0  0
   26.1788   22.1903    1.5750 C   0  0  0  0  0  0  0  0  0  0  0  0
   27.5171   22.2103    0.8173 C   0  0  0  0  0  0  0  0  0  0  0  0
   28.4474   21.0236    1.1879 C   0  0  0  0  0  0  0  0  0  0  0  0
   27.6924   19.7073    0.8764 C   0  0  0  0  0  0  0  0  0  0  0  0
   26.1674   19.8076    1.0178 C   0  0  0  0  0  0  0  0  0  0  0  0
   28.8822   21.1255    2.6593 C   0  0  0  0  0  0  0  0  0  0  0  0
   30.0151   22.0121    2.7114 O   0  0  0  0  0  0  0  0  0  0  0  0
   30.5042   22.2177    1.3716 C   0  0  1  0  0  0  0  0  0  0  0  0
   32.0248   22.2281    1.3733 C   0  0  0  0  0  0  0  0  0  0  0  0
   29.8166   21.1549    0.4840 C   0  0  1  0  0  0  0  0  0  0  0  0
   30.5863   19.9013    0.4445 N   0  0  0  0  0  0  0  0  0  0  0  0
   30.0721   19.1683   -0.0374 H   0  0  0  0  0  0  0  0  0  0  0  0
   30.7644   19.5694    1.3929 H   0  0  0  0  0  0  0  0  0  0  0  0
   19.6033   20.3477    4.3645 C   0  0  0  0  0  0  0  0  0  0  0  0
   18.4512   19.6450    3.9730 C   0  0  0  0  0  0  0  0  0  0  0  0
   17.5630   19.1424    4.9278 C   0  0  0  0  0  0  0  0  0  0  0  0
   17.8175   19.3338    6.2849 C   0  0  0  0  0  0  0  0  0  0  0  0
   18.9630   20.0234    6.6836 C   0  0  0  0  0  0  0  0  0  0  0  0
   19.2685   20.2353    8.3666 Cl  0  0  0  0  0  0  0  0  0  0  0  0
   19.8516   20.5260    5.7310 C   0  0  0  0  0  0  0  0  0  0  0  0
   20.9652   21.1554    6.1429 F   0  0  0  0  0  0  0  0  0  0  0  0
   24.6207   18.7554    5.1476 H   0  0  0  0  0  0  0  0  0  0  0  0
   25.8610   19.9006    4.6966 H   0  0  0  0  0  0  0  0  0  0  0  0
   25.5496   18.5078    3.6885 H   0  0  0  0  0  0  0  0  0  0  0  0
   26.2511   22.8291    2.4304 H   0  0  0  0  0  0  0  0  0  0  0  0
   25.4083   22.5328    0.9163 H   0  0  0  0  0  0  0  0  0  0  0  0
   28.0240   23.1243    1.0465 H   0  0  0  0  0  0  0  0  0  0  0  0
   27.2934   22.1254   -0.2256 H   0  0  0  0  0  0  0  0  0  0  0  0
   28.0427   18.9524    1.5489 H   0  0  0  0  0  0  0  0  0  0  0  0
   27.8913   19.4742   -0.1488 H   0  0  0  0  0  0  0  0  0  0  0  0
   25.7733   18.8621    1.3270 H   0  0  0  0  0  0  0  0  0  0  0  0
   25.7354   20.0789    0.0773 H   0  0  0  0  0  0  0  0  0  0  0  0
   29.1565   20.1591    3.0277 H   0  0  0  0  0  0  0  0  0  0  0  0
   28.0826   21.4972    3.2653 H   0  0  0  0  0  0  0  0  0  0  0  0
   30.2540   23.1723    0.9580 H   0  0  0  0  0  0  0  0  0  0  0  0
   32.3873   21.3046    1.7740 H   0  0  0  0  0  0  0  0  0  0  0  0
   32.3752   23.0402    1.9755 H   0  0  0  0  0  0  0  0  0  0  0  0
   32.3818   22.3469    0.3716 H   0  0  0  0  0  0  0  0  0  0  0  0
   29.7323   21.4123   -0.5511 H   0  0  0  0  0  0  0  0  0  0  0  0
   18.2589   19.4985    2.9697 H   0  0  0  0  0  0  0  0  0  0  0  0
   16.7189   18.6297    4.6282 H   0  0  0  0  0  0  0  0  0  0  0  0
   17.1613   18.9669    6.9919 H   0  0  0  0  0  0  0  0  0  0  0  0
  1  2  1  0
  1 34  1  0
  1 35  1  0
  1 36  1  0
  2  3  2  0
  3  4  1  0
  4  5  1  0
  5 26  1  0
  5  6  2  0
  6  7  1  0
  7  8  1  0
  7 11  1  0
  8  9  1  0
  8  4  2  0
  9 10  2  0
 10 12  1  0
 10  2  1  0
 12 13  1  0
 13 14  1  0
 13 37  1  0
 13 38  1  0
 14 15  1  0
 14 39  1  0
 14 40  1  0
 15 16  1  0
 15 18  1  0
 16 17  1  0
 16 41  1  0
 16 42  1  0
 17 12  1  0
 17 43  1  0
 17 44  1  0
 18 19  1  0
 18 45  1  0
 18 46  1  0
 19 20  1  0
 20 21  1  0
 20 22  1  0
 20 47  1  6
 21 48  1  0
 21 49  1  0
 21 50  1  0
 22 23  1  0
 22 15  1  0
 22 51  1  6
 23 24  1  0
 23 25  1  0
 26 27  2  0
 27 28  1  0
 27 52  1  0
 28 29  2  0
 28 53  1  0
 29 30  1  0
 29 54  1  0
 30 31  1  0
 30 32  2  0
 32 33  1  0
 32 26  1  0
M  END
>  <minimizedAffinity>  (3) 
-9.49966

>  <mol_id>  (3) 
32578

>  <source_index>  (3) 
2

>  <layer>  (3) 
L1

>  <uniprot>  (3) 
Q06124

>  <paff>  (3) 
8.0088000000000008

>  <smiles>  (3) 
Cc1nc2c(-c3cccc(Cl)c3F)n[nH]c2nc1N1CCC2(CC1)CO[C@@H](C)[C@H]2N

$$$$
L1:Q06124:39617
     RDKit          3D

 59 63  0  0  0  0  0  0  0  0999 V2000
   25.1173   20.5303    1.8124 C   0  0  0  0  0  0  0  0  0  0  0  0
   24.8185   19.2985    2.2872 N   0  0  0  0  0  0  0  0  0  0  0  0
   23.7784   19.2561    3.1542 C   0  0  0  0  0  0  0  0  0  0  0  0
   23.0335   20.3732    3.5529 C   0  0  0  0  0  0  0  0  0  0  0  0
   23.3558   21.5926    3.0613 N   0  0  0  0  0  0  0  0  0  0  0  0
   24.3836   21.6777    2.1874 C   0  0  0  0  0  0  0  0  0  0  0  0
   24.6850   22.9675    1.7023 N   0  0  0  0  0  0  0  0  0  0  0  0
   24.6779   22.9474    0.6846 H   0  0  0  0  0  0  0  0  0  0  0  0
   25.6296   23.2109    1.9829 H   0  0  0  0  0  0  0  0  0  0  0  0
   21.9835   20.2385    4.4827 N   0  0  0  0  0  0  0  0  0  0  0  0
   20.6640   20.0919    3.8675 C   0  0  0  0  0  0  0  0  0  0  0  0
   19.5684   20.3551    4.9109 C   0  0  0  0  0  0  0  0  0  0  0  0
   19.9689   20.0065    6.3607 C   0  0  0  0  0  0  0  0  0  0  0  0
   21.0239   18.8729    6.3194 C   0  0  0  0  0  0  0  0  0  0  0  0
   22.2893   19.2770    5.5517 C   0  0  0  0  0  0  0  0  0  0  0  0
   20.5087   21.2171    7.1349 C   0  0  0  0  0  0  0  0  0  0  0  0
   20.4390   20.8563    8.5266 O   0  0  0  0  0  0  0  0  0  0  0  0
   19.3787   19.8912    8.6733 C   0  0  0  0  0  0  0  0  0  0  0  0
   18.7937   19.6167    7.2769 C   0  0  1  0  0  0  0  0  0  0  0  0
   17.5953   20.4419    7.0598 N   0  0  0  0  0  0  0  0  0  0  0  0
   16.9192   20.2776    7.8069 H   0  0  0  0  0  0  0  0  0  0  0  0
   17.1334   20.1666    6.1932 H   0  0  0  0  0  0  0  0  0  0  0  0
   26.5008   20.5989    0.6859 S   0  0  0  0  0  0  0  0  0  0  0  0
   33.6603   22.5659    0.8244 C   0  0  0  0  0  0  0  0  0  0  0  0
   32.5385   22.4499    1.8372 C   0  0  0  0  0  0  0  0  0  0  0  0
   32.7580   22.7134    3.0172 O   0  0  0  0  0  0  0  0  0  0  0  0
   31.3137   22.0469    1.3311 N   0  0  0  0  0  0  0  0  0  0  0  0
   31.0332   21.7098   -0.0777 C   0  0  0  0  0  0  0  0  0  0  0  0
   29.5432   21.3614   -0.1805 C   0  0  0  0  0  0  0  0  0  0  0  0
   29.3996   20.1507   -0.7712 F   0  0  0  0  0  0  0  0  0  0  0  0
   28.9164   22.2683   -0.9778 F   0  0  0  0  0  0  0  0  0  0  0  0
   29.0906   21.4172    1.2451 C   0  0  0  0  0  0  0  0  0  0  0  0
   27.8243   21.1337    1.7558 C   0  0  0  0  0  0  0  0  0  0  0  0
   27.6399   21.2629    3.1398 C   0  0  0  0  0  0  0  0  0  0  0  0
   28.6828   21.6973    3.9702 C   0  0  0  0  0  0  0  0  0  0  0  0
   29.9392   21.9859    3.4394 C   0  0  0  0  0  0  0  0  0  0  0  0
   30.1349   21.8356    2.0763 C   0  0  0  0  0  0  0  0  0  0  0  0
   23.5172   18.3385    3.5476 H   0  0  0  0  0  0  0  0  0  0  0  0
   20.5590   19.0978    3.4859 H   0  0  0  0  0  0  0  0  0  0  0  0
   20.5671   20.7980    3.0694 H   0  0  0  0  0  0  0  0  0  0  0  0
   18.7114   19.7696    4.6508 H   0  0  0  0  0  0  0  0  0  0  0  0
   19.3768   21.4076    4.8925 H   0  0  0  0  0  0  0  0  0  0  0  0
   20.5912   18.0184    5.8425 H   0  0  0  0  0  0  0  0  0  0  0  0
   21.3098   18.6574    7.3277 H   0  0  0  0  0  0  0  0  0  0  0  0
   22.7279   18.4025    5.1184 H   0  0  0  0  0  0  0  0  0  0  0  0
   22.9663   19.7407    6.2384 H   0  0  0  0  0  0  0  0  0  0  0  0
   19.9064   22.0805    6.9433 H   0  0  0  0  0  0  0  0  0  0  0  0
   21.5087   21.4584    6.8405 H   0  0  0  0  0  0  0  0  0  0  0  0
   18.6177   20.2819    9.3161 H   0  0  0  0  0  0  0  0  0  0  0  0
   19.7543   18.9870    9.1048 H   0  0  0  0  0  0  0  0  0  0  0  0
   18.4615   18.6134    7.1099 H   0  0  0  0  0  0  0  0  0  0  0  0
   34.5554   22.8817    1.3183 H   0  0  0  0  0  0  0  0  0  0  0  0
   33.3932   23.2834    0.0769 H   0  0  0  0  0  0  0  0  0  0  0  0
   33.8241   21.6145    0.3631 H   0  0  0  0  0  0  0  0  0  0  0  0
   31.6260   20.8711   -0.3776 H   0  0  0  0  0  0  0  0  0  0  0  0
   31.2726   22.5336   -0.7172 H   0  0  0  0  0  0  0  0  0  0  0  0
   26.7224   21.0347    3.5536 H   0  0  0  0  0  0  0  0  0  0  0  0
   28.5189   21.8044    4.9835 H   0  0  0  0  0  0  0  0  0  0  0  0
   30.7079   22.3050    4.0496 H   0  0  0  0  0  0  0  0  0  0  0  0
  1  2  2  0
  2  3  1  0
  3  4  2  0
  3 38  1  0
  4 10  1  0
  4  5  1  0
  5  6  2  0
  6  7  1  0
  6  1  1  0
  7  8  1  0
  7  9  1  0
 10 11  1  0
 11 12  1  0
 11 39  1  0
 11 40  1  0
 12 13  1  0
 12 41  1  0
 12 42  1  0
 13 14  1  0
 13 16  1  0
 14 15  1  0
 14 43  1  0
 14 44  1  0
 15 10  1  0
 15 45  1  0
 15 46  1  0
 16 17  1  0
 16 47  1  0
 16 48  1  0
 17 18  1  0
 18 19  1  0
 18 49  1  0
 18 50  1  0
 19 20  1  0
 19 13  1  0
 19 51  1  1
 20 21  1  0
 20 22  1  0
 23  1  1  0
 24 25  1  0
 24 52  1  0
 24 53  1  0
 24 54  1  0
 25 26  2  0
 25 27  1  0
 27 28  1  0
 28 29  1  0
 28 55  1  0
 28 56  1  0
 29 30  1  0
 29 31  1  0
 29 32  1  0
 32 33  2  0
 33 23  1  0
 33 34  1  0
 34 35  2  0
 34 57  1  0
 35 36  1  0
 35 58  1  0
 36 37  2  0
 36 59  1  0
 37 27  1  0
 37 32  1  0
M  END
>  <minimizedAffinity>  (4) 
-8.76813

>  <mol_id>  (4) 
39617

>  <source_index>  (4) 
3

>  <layer>  (4) 
L1

>  <uniprot>  (4) 
Q06124

>  <paff>  (4) 
7.585

>  <smiles>  (4) 
CC(=O)N1CC(F)(F)c2c(Sc3ncc(N4CCC5(CC4)COC[C@H]5N)nc3N)cccc21

$$$$
L1:Q06124:53896
     RDKit          3D

 42 44  0  0  0  0  0  0  0  0999 V2000
   22.9176   20.8226    3.1560 C   0  0  0  0  0  0  0  0  0  0  0  0
   21.6919   21.4776    2.9953 C   0  0  0  0  0  0  0  0  0  0  0  0
   20.5815   21.2155    3.7280 N   0  0  0  0  0  0  0  0  0  0  0  0
   20.7127   20.2185    4.6383 C   0  0  0  0  0  0  0  0  0  0  0  0
   21.9377   19.5415    4.8244 C   0  0  0  0  0  0  0  0  0  0  0  0
   22.1046   18.5157    5.7713 N   0  0  0  0  0  0  0  0  0  0  0  0
   23.0240   19.8419    4.0807 N   0  0  0  0  0  0  0  0  0  0  0  0
   21.5007   17.7354    5.5204 H   0  0  0  0  0  0  0  0  0  0  0  0
   21.8315   18.8434    6.6923 H   0  0  0  0  0  0  0  0  0  0  0  0
   27.6621   20.5033    2.3136 C   0  0  0  0  0  0  0  0  0  0  0  0
   26.7650   21.3081    1.3581 C   0  0  0  0  0  0  0  0  0  0  0  0
   27.6527   21.8572    0.3166 N   0  0  0  0  0  0  0  0  0  0  0  0
   25.6949   20.4152    0.7038 C   0  0  0  0  0  0  0  0  0  0  0  0
   24.6230   19.9747    1.7041 C   0  0  0  0  0  0  0  0  0  0  0  0
   24.0263   21.1595    2.3435 N   0  0  0  0  0  0  0  0  0  0  0  0
   24.9949   22.0095    3.0549 C   0  0  0  0  0  0  0  0  0  0  0  0
   26.0817   22.4797    2.0854 C   0  0  0  0  0  0  0  0  0  0  0  0
   28.0809   21.0955   -0.2097 H   0  0  0  0  0  0  0  0  0  0  0  0
   27.1022   22.3868   -0.3600 H   0  0  0  0  0  0  0  0  0  0  0  0
   19.5027   19.9631    5.4360 C   0  0  0  0  0  0  0  0  0  0  0  0
   18.4147   19.3181    4.8106 C   0  0  0  0  0  0  0  0  0  0  0  0
   17.2347   19.0450    5.5014 C   0  0  0  0  0  0  0  0  0  0  0  0
   17.1199   19.4063    6.8394 C   0  0  0  0  0  0  0  0  0  0  0  0
   18.1866   20.0328    7.4898 C   0  0  0  0  0  0  0  0  0  0  0  0
   17.9583   20.4444    9.1556 Cl  0  0  0  0  0  0  0  0  0  0  0  0
   19.3799   20.3095    6.7985 C   0  0  0  0  0  0  0  0  0  0  0  0
   20.7080   21.0662    7.6293 Cl  0  0  0  0  0  0  0  0  0  0  0  0
   21.6286   22.2094    2.2704 H   0  0  0  0  0  0  0  0  0  0  0  0
   28.1212   19.6983    1.7787 H   0  0  0  0  0  0  0  0  0  0  0  0
   27.0691   20.1086    3.1120 H   0  0  0  0  0  0  0  0  0  0  0  0
   28.4201   21.1431    2.7149 H   0  0  0  0  0  0  0  0  0  0  0  0
   26.1703   19.5450    0.3018 H   0  0  0  0  0  0  0  0  0  0  0  0
   25.2149   20.9848   -0.0643 H   0  0  0  0  0  0  0  0  0  0  0  0
   25.0684   19.3528    2.4523 H   0  0  0  0  0  0  0  0  0  0  0  0
   23.8610   19.4272    1.1898 H   0  0  0  0  0  0  0  0  0  0  0  0
   25.4444   21.4489    3.8478 H   0  0  0  0  0  0  0  0  0  0  0  0
   24.4883   22.8614    3.4581 H   0  0  0  0  0  0  0  0  0  0  0  0
   26.8223   23.0215    2.6357 H   0  0  0  0  0  0  0  0  0  0  0  0
   25.6149   23.0957    1.3454 H   0  0  0  0  0  0  0  0  0  0  0  0
   18.4941   19.0422    3.8193 H   0  0  0  0  0  0  0  0  0  0  0  0
   16.4499   18.5768    5.0219 H   0  0  0  0  0  0  0  0  0  0  0  0
   16.2460   19.2116    7.3527 H   0  0  0  0  0  0  0  0  0  0  0  0
  1  2  2  0
  2  3  1  0
  2 28  1  0
  3  4  2  0
  4  5  1  0
  4 20  1  0
  5  6  1  0
  5  7  2  0
  6  8  1  0
  6  9  1  0
  7  1  1  0
 10 11  1  0
 10 29  1  0
 10 30  1  0
 10 31  1  0
 11 12  1  0
 11 13  1  0
 12 18  1  0
 12 19  1  0
 13 14  1  0
 13 32  1  0
 13 33  1  0
 14 15  1  0
 14 34  1  0
 14 35  1  0
 15 16  1  0
 15  1  1  0
 16 17  1  0
 16 36  1  0
 16 37  1  0
 17 11  1  0
 17 38  1  0
 17 39  1  0
 20 21  2  0
 21 22  1  0
 21 40  1  0
 22 23  2  0
 22 41  1  0
 23 24  1  0
 23 42  1  0
 24 25  1  0
 24 26  2  0
 26 27  1  0
 26 20  1  0
M  END
>  <minimizedAffinity>  (5) 
-9.56398

>  <mol_id>  (5) 
53896

>  <source_index>  (5) 
4

>  <layer>  (5) 
L1

>  <uniprot>  (5) 
Q06124

>  <paff>  (5) 
7.1367000000000003

>  <smiles>  (5) 
CC1(N)CCN(CC1)c1cnc(c(N)n1)-c1cccc(Cl)c1Cl

$$$$
L1:Q06124:82531
     RDKit          3D

 50 53  0  0  0  0  0  0  0  0999 V2000
   25.8205   20.2310    2.3331 N   0  0  0  0  0  0  0  0  0  0  0  0
   27.1128   20.3396    2.3148 C   0  0  0  0  0  0  0  0  0  0  0  0
   28.0048   21.2849    3.0653 C   0  0  0  0  0  0  0  0  0  0  0  0
   27.6514   21.9453    4.0196 O   0  0  0  0  0  0  0  0  0  0  0  0
   29.2074   21.1285    2.3873 N   0  0  0  0  0  0  0  0  0  0  0  0
   29.1941   20.1193    1.4106 N   0  0  0  0  0  0  0  0  0  0  0  0
   27.9953   19.6015    1.3712 C   0  0  0  0  0  0  0  0  0  0  0  0
   27.6000   18.4806    0.5004 C   0  0  0  0  0  0  0  0  0  0  0  0
   27.5967   17.1809    1.0366 C   0  0  0  0  0  0  0  0  0  0  0  0
   27.2321   16.0842    0.2396 C   0  0  0  0  0  0  0  0  0  0  0  0
   26.8597   16.2947   -1.0993 C   0  0  0  0  0  0  0  0  0  0  0  0
   26.8402   17.5867   -1.6398 C   0  0  0  0  0  0  0  0  0  0  0  0
   27.2108   18.6778   -0.8367 C   0  0  0  0  0  0  0  0  0  0  0  0
   26.4949   15.1503   -1.9474 N   0  0  0  0  0  0  0  0  0  0  0  0
   25.9885   14.1616   -1.3932 O   0  0  0  0  0  0  0  0  0  0  0  0
   26.7074   15.2453   -3.1656 O   0  0  0  0  0  0  0  0  0  0  0  0
   30.4026   21.8645    2.5706 C   0  0  0  0  0  0  0  0  0  0  0  0
   31.2238   22.2180    1.4861 C   0  0  0  0  0  0  0  0  0  0  0  0
   32.4292   22.9063    1.6885 C   0  0  0  0  0  0  0  0  0  0  0  0
   32.8302   23.2436    2.9908 C   0  0  0  0  0  0  0  0  0  0  0  0
   32.0188   22.9223    4.0845 C   0  0  0  0  0  0  0  0  0  0  0  0
   30.8139   22.2359    3.8660 C   0  0  0  0  0  0  0  0  0  0  0  0
   34.1113   23.9289    3.2097 N   0  0  0  0  0  0  0  0  0  0  0  0
   34.8214   24.1539    2.2244 O   0  0  0  0  0  0  0  0  0  0  0  0
   34.3955   24.2533    4.3692 O   0  0  0  0  0  0  0  0  0  0  0  0
   25.1544   21.0477    3.1849 N   0  0  0  0  0  0  0  0  0  0  0  0
   25.5509   21.2913    4.1043 H   0  0  0  0  0  0  0  0  0  0  0  0
   20.9754   21.4016    2.6762 C   0  0  0  0  0  0  0  0  0  0  0  0
   21.4744   20.6845    3.7653 C   0  0  0  0  0  0  0  0  0  0  0  0
   22.8656   20.5785    3.9376 C   0  0  0  0  0  0  0  0  0  0  0  0
   23.7619   21.1833    3.0418 C   0  0  0  0  0  0  0  0  0  0  0  0
   23.2371   21.8783    1.9417 C   0  0  0  0  0  0  0  0  0  0  0  0
   21.8478   22.0014    1.7602 C   0  0  0  0  0  0  0  0  0  0  0  0
   18.9233   20.8734    1.0528 O   0  0  0  0  0  0  0  0  0  0  0  0
   19.2235   21.5550    2.4830 S   0  0  0  0  0  0  0  0  0  0  0  0
   18.5921   20.7359    3.4832 O   0  0  0  0  0  0  0  0  0  0  0  0
   18.8841   22.9551    2.3194 O   0  0  0  0  0  0  0  0  0  0  0  0
   18.3619   21.5076    0.5381 H   0  0  0  0  0  0  0  0  0  0  0  0
   27.8640   17.0322    2.0222 H   0  0  0  0  0  0  0  0  0  0  0  0
   27.2375   15.1305    0.6339 H   0  0  0  0  0  0  0  0  0  0  0  0
   26.5557   17.7358   -2.6205 H   0  0  0  0  0  0  0  0  0  0  0  0
   27.1974   19.6315   -1.2307 H   0  0  0  0  0  0  0  0  0  0  0  0
   30.9359   21.9676    0.5272 H   0  0  0  0  0  0  0  0  0  0  0  0
   33.0196   23.1640    0.8822 H   0  0  0  0  0  0  0  0  0  0  0  0
   32.3028   23.1869    5.0407 H   0  0  0  0  0  0  0  0  0  0  0  0
   30.2157   21.9979    4.6726 H   0  0  0  0  0  0  0  0  0  0  0  0
   20.8297   20.2376    4.4358 H   0  0  0  0  0  0  0  0  0  0  0  0
   23.2360   20.0448    4.7395 H   0  0  0  0  0  0  0  0  0  0  0  0
   23.8795   22.3052    1.2561 H   0  0  0  0  0  0  0  0  0  0  0  0
   21.4739   22.5305    0.9569 H   0  0  0  0  0  0  0  0  0  0  0  0
  1  2  2  0
  2  3  1  0
  3  4  2  0
  3  5  1  0
  5  6  1  0
  5 17  1  0
  6  7  2  0
  7  8  1  0
  7  2  1  0
  8  9  2  0
  9 10  1  0
  9 39  1  0
 10 11  2  0
 10 40  1  0
 11 12  1  0
 11 14  1  0
 12 13  2  0
 12 41  1  0
 13  8  1  0
 13 42  1  0
 14 15  1  0
 14 16  2  0
 17 18  2  0
 18 19  1  0
 18 43  1  0
 19 20  2  0
 19 44  1  0
 20 21  1  0
 20 23  1  0
 21 22  2  0
 21 45  1  0
 22 17  1  0
 22 46  1  0
 23 24  1  0
 23 25  2  0
 26  1  1  0
 26 27  1  0
 28 29  2  0
 29 30  1  0
 29 47  1  0
 30 31  2  0
 30 48  1  0
 31 26  1  0
 31 32  1  0
 32 33  2  0
 32 49  1  0
 33 28  1  0
 33 50  1  0
 34 35  1  0
 34 38  1  0
 35 36  2  0
 35 37  2  0
 35 28  1  0
M  CHG  4  14   1  15  -1  23   1  24  -1
M  END
>  <minimizedAffinity>  (6) 
-8.93781

>  <mol_id>  (6) 
82531

>  <source_index>  (6) 
5

>  <layer>  (6) 
L1

>  <uniprot>  (6) 
Q06124

>  <paff>  (6) 
7.1486999999999998

>  <smiles>  (6) 
OS(=O)(=O)c1ccc(N\N=C2\C(=O)N(N=C2c2ccc(cc2)[N+]([O-])=O)c2ccc(cc2)[N+]([O-])=O)cc1 |c:14|

$$$$
L1:Q06124:95742
     RDKit          3D

 42 44  0  0  0  0  0  0  0  0999 V2000
   22.4279   20.0766    4.1045 C   0  0  0  0  0  0  0  0  0  0  0  0
   22.3652   21.2118    3.2845 C   0  0  0  0  0  0  0  0  0  0  0  0
   23.4072   21.7031    2.5624 N   0  0  0  0  0  0  0  0  0  0  0  0
   24.5658   21.0232    2.6782 C   0  0  0  0  0  0  0  0  0  0  0  0
   24.6549   19.9169    3.5144 C   0  0  0  0  0  0  0  0  0  0  0  0
   23.6081   19.4292    4.2314 N   0  0  0  0  0  0  0  0  0  0  0  0
   19.1636   20.8631    7.5592 C   0  0  0  0  0  0  0  0  0  0  0  0
   19.0955   19.5652    6.7349 C   0  0  0  0  0  0  0  0  0  0  0  0
   17.9470   18.7884    7.2352 N   0  0  0  0  0  0  0  0  0  0  0  0
   20.3701   18.7213    6.9070 C   0  0  0  0  0  0  0  0  0  0  0  0
   21.5866   19.3555    6.2277 C   0  0  0  0  0  0  0  0  0  0  0  0
   21.2912   19.6296    4.8123 N   0  0  0  0  0  0  0  0  0  0  0  0
   20.1147   20.4851    4.5906 C   0  0  0  0  0  0  0  0  0  0  0  0
   18.8796   19.8561    5.2398 C   0  0  0  0  0  0  0  0  0  0  0  0
   18.0537   18.6058    8.2325 H   0  0  0  0  0  0  0  0  0  0  0  0
   17.0883   19.3288    7.1340 H   0  0  0  0  0  0  0  0  0  0  0  0
   25.9472   21.6445    1.7482 S   0  0  0  0  0  0  0  0  0  0  0  0
   26.7778   20.1372    1.2492 C   0  0  0  0  0  0  0  0  0  0  0  0
   26.2713   19.4903    0.1181 C   0  0  0  0  0  0  0  0  0  0  0  0
   26.8761   18.3212   -0.3037 C   0  0  0  0  0  0  0  0  0  0  0  0
   27.9321   17.7598    0.3175 N   0  0  0  0  0  0  0  0  0  0  0  0
   28.4073   18.3716    1.4208 C   0  0  0  0  0  0  0  0  0  0  0  0
   29.5240   17.7574    1.9902 N   0  0  0  0  0  0  0  0  0  0  0  0
   27.8643   19.5622    1.9253 C   0  0  0  0  0  0  0  0  0  0  0  0
   28.5238   20.2550    3.3713 Cl  0  0  0  0  0  0  0  0  0  0  0  0
   29.4315   17.6557    2.9951 H   0  0  0  0  0  0  0  0  0  0  0  0
   29.6777   16.8755    1.5095 H   0  0  0  0  0  0  0  0  0  0  0  0
   21.4636   21.7103    3.2246 H   0  0  0  0  0  0  0  0  0  0  0  0
   25.5661   19.4392    3.5955 H   0  0  0  0  0  0  0  0  0  0  0  0
   19.3140   20.6229    8.5910 H   0  0  0  0  0  0  0  0  0  0  0  0
   18.2471   21.4042    7.4489 H   0  0  0  0  0  0  0  0  0  0  0  0
   19.9771   21.4646    7.2108 H   0  0  0  0  0  0  0  0  0  0  0  0
   20.2027   17.7550    6.4792 H   0  0  0  0  0  0  0  0  0  0  0  0
   20.5788   18.6558    7.9544 H   0  0  0  0  0  0  0  0  0  0  0  0
   22.4175   18.6844    6.2921 H   0  0  0  0  0  0  0  0  0  0  0  0
   21.8221   20.2757    6.7204 H   0  0  0  0  0  0  0  0  0  0  0  0
   19.9470   20.5912    3.5392 H   0  0  0  0  0  0  0  0  0  0  0  0
   20.2912   21.4451    5.0289 H   0  0  0  0  0  0  0  0  0  0  0  0
   18.6565   18.9375    4.7384 H   0  0  0  0  0  0  0  0  0  0  0  0
   18.0717   20.5523    5.1532 H   0  0  0  0  0  0  0  0  0  0  0  0
   25.4621   19.8779   -0.3917 H   0  0  0  0  0  0  0  0  0  0  0  0
   26.4978   17.8519   -1.1413 H   0  0  0  0  0  0  0  0  0  0  0  0
  1  2  2  0
  2  3  1  0
  2 28  1  0
  3  4  2  0
  4 17  1  0
  4  5  1  0
  5  6  2  0
  5 29  1  0
  6  1  1  0
  7  8  1  0
  7 30  1  0
  7 31  1  0
  7 32  1  0
  8  9  1  0
  8 10  1  0
  9 15  1  0
  9 16  1  0
 10 11  1  0
 10 33  1  0
 10 34  1  0
 11 12  1  0
 11 35  1  0
 11 36  1  0
 12  1  1  0
 12 13  1  0
 13 14  1  0
 13 37  1  0
 13 38  1  0
 14  8  1  0
 14 39  1  0
 14 40  1  0
 17 18  1  0
 18 19  2  0
 19 20  1  0
 19 41  1  0
 20 21  2  0
 20 42  1  0
 21 22  1  0
 22 23  1  0
 22 24  2  0
 23 26  1  0
 23 27  1  0
 24 25  1  0
 24 18  1  0
M  END
>  <minimizedAffinity>  (7) 
-7.32483

>  <mol_id>  (7) 
95742

>  <source_index>  (7) 
6

>  <layer>  (7) 
L1

>  <uniprot>  (7) 
Q06124

>  <paff>  (7) 
8.0314999999999994

>  <smiles>  (7) 
CC1(N)CCN(c2cnc(Sc3ccnc(N)c3Cl)cn2)CC1

$$$$
L1:Q06124:118200
     RDKit          3D

 50 53  0  0  0  0  0  0  0  0999 V2000
   22.2593   19.5078    4.4525 N   0  0  0  0  0  0  0  0  0  0  0  0
   22.5741   20.3884    3.5576 C   0  0  0  0  0  0  0  0  0  0  0  0
   21.6520   21.2622    2.7006 C   0  0  0  0  0  0  0  0  0  0  0  0
   20.4402   21.2140    2.6908 O   0  0  0  0  0  0  0  0  0  0  0  0
   22.4936   22.0624    1.9548 N   0  0  0  0  0  0  0  0  0  0  0  0
   23.8255   21.7633    2.2221 C   0  0  0  0  0  0  0  0  0  0  0  0
   24.9431   22.3376    1.6546 C   0  0  0  0  0  0  0  0  0  0  0  0
   26.1928   21.8567    2.0695 C   0  0  0  0  0  0  0  0  0  0  0  0
   26.2864   20.8195    3.0281 C   0  0  0  0  0  0  0  0  0  0  0  0
   25.1473   20.2500    3.6020 C   0  0  0  0  0  0  0  0  0  0  0  0
   23.9340   20.7511    3.1767 C   0  0  0  0  0  0  0  0  0  0  0  0
   22.1596   22.7369    1.2836 H   0  0  0  0  0  0  0  0  0  0  0  0
   27.8912   20.2076    3.4810 S   0  0  0  0  0  0  0  0  0  0  0  0
   27.9854   18.8233    3.0723 O   0  0  0  0  0  0  0  0  0  0  0  0
   28.1579   20.6354    4.8324 O   0  0  0  0  0  0  0  0  0  0  0  0
   28.8925   21.0653    2.4287 N   0  0  0  0  0  0  0  0  0  0  0  0
   29.6779   20.4739    2.1379 H   0  0  0  0  0  0  0  0  0  0  0  0
   29.3985   22.3306    2.9976 C   0  0  0  0  0  0  0  0  0  0  0  0
   30.8703   22.4807    2.7021 C   0  0  0  0  0  0  0  0  0  0  0  0
   31.7870   22.7800    3.7204 C   0  0  0  0  0  0  0  0  0  0  0  0
   33.1459   22.9110    3.4255 C   0  0  0  0  0  0  0  0  0  0  0  0
   33.5866   22.7360    2.1182 C   0  0  0  0  0  0  0  0  0  0  0  0
   34.8906   22.8638    1.8389 F   0  0  0  0  0  0  0  0  0  0  0  0
   32.6964   22.4311    1.0983 C   0  0  0  0  0  0  0  0  0  0  0  0
   31.3384   22.3011    1.3888 C   0  0  0  0  0  0  0  0  0  0  0  0
   20.9351   19.3075    4.6638 N   0  0  0  0  0  0  0  0  0  0  0  0
   20.4008   18.6284    4.1100 H   0  0  0  0  0  0  0  0  0  0  0  0
   18.3430   20.0830    7.2070 C   0  0  0  0  0  0  0  0  0  0  0  0
   19.0991   20.7440    8.1812 C   0  0  0  0  0  0  0  0  0  0  0  0
   20.4671   20.9302    7.9912 C   0  0  0  0  0  0  0  0  0  0  0  0
   21.0772   20.4567    6.8264 C   0  0  0  0  0  0  0  0  0  0  0  0
   20.3402   19.7848    5.8395 C   0  0  0  0  0  0  0  0  0  0  0  0
   18.9650   19.6062    6.0404 C   0  0  0  0  0  0  0  0  0  0  0  0
   16.3992   18.7764    6.9002 O   0  0  0  0  0  0  0  0  0  0  0  0
   16.8899   19.9075    7.4467 C   0  0  0  0  0  0  0  0  0  0  0  0
   16.1716   20.6742    8.0596 O   0  0  0  0  0  0  0  0  0  0  0  0
   15.4503   18.7911    7.1410 H   0  0  0  0  0  0  0  0  0  0  0  0
   24.8629   23.0904    0.9533 H   0  0  0  0  0  0  0  0  0  0  0  0
   27.0539   22.2633    1.6717 H   0  0  0  0  0  0  0  0  0  0  0  0
   25.2097   19.4967    4.3047 H   0  0  0  0  0  0  0  0  0  0  0  0
   29.2490   22.3269    4.0571 H   0  0  0  0  0  0  0  0  0  0  0  0
   28.8680   23.1490    2.5575 H   0  0  0  0  0  0  0  0  0  0  0  0
   31.4566   22.9038    4.6902 H   0  0  0  0  0  0  0  0  0  0  0  0
   33.8196   23.1365    4.1740 H   0  0  0  0  0  0  0  0  0  0  0  0
   33.0364   22.3016    0.1326 H   0  0  0  0  0  0  0  0  0  0  0  0
   30.6727   22.0715    0.6344 H   0  0  0  0  0  0  0  0  0  0  0  0
   18.6444   21.0932    9.0393 H   0  0  0  0  0  0  0  0  0  0  0  0
   21.0279   21.4162    8.7084 H   0  0  0  0  0  0  0  0  0  0  0  0
   22.0894   20.6041    6.6895 H   0  0  0  0  0  0  0  0  0  0  0  0
   18.4032   19.1196    5.3244 H   0  0  0  0  0  0  0  0  0  0  0  0
  1  2  2  0
  2  3  1  0
  3  4  2  0
  3  5  1  0
  5  6  1  0
  5 12  1  0
  6  7  2  0
  7  8  1  0
  7 38  1  0
  8  9  2  0
  8 39  1  0
  9 10  1  0
  9 13  1  0
 10 11  2  0
 10 40  1  0
 11  2  1  0
 11  6  1  0
 13 14  2  0
 13 15  2  0
 13 16  1  0
 16 18  1  0
 16 17  1  0
 18 19  1  0
 18 41  1  0
 18 42  1  0
 19 20  2  0
 20 21  1  0
 20 43  1  0
 21 22  2  0
 21 44  1  0
 22 23  1  0
 22 24  1  0
 24 25  2  0
 24 45  1  0
 25 19  1  0
 25 46  1  0
 26  1  1  0
 26 27  1  0
 28 29  2  0
 29 30  1  0
 29 47  1  0
 30 31  2  0
 30 48  1  0
 31 32  1  0
 31 49  1  0
 32 26  1  0
 32 33  2  0
 33 28  1  0
 33 50  1  0
 34 35  1  0
 34 37  1  0
 35 36  2  0
 35 28  1  0
M  END
>  <minimizedAffinity>  (8) 
-9.90259

>  <mol_id>  (8) 
118200

>  <source_index>  (8) 
7

>  <layer>  (8) 
L1

>  <uniprot>  (8) 
Q06124

>  <paff>  (8) 
6

>  <smiles>  (8) 
OC(=O)c1cccc(N\N=C2/C(=O)Nc3ccc(cc23)S(=O)(=O)NCc2ccc(F)cc2)c1

$$$$
L1:Q06124:125082
     RDKit          3D

 56 60  0  0  0  0  0  0  0  0999 V2000
   28.2662   22.0141    1.9977 C   0  0  0  0  0  0  0  0  0  0  0  0
   28.9689   21.8042    0.9004 N   0  0  0  0  0  0  0  0  0  0  0  0
   30.2650   22.0478    1.2479 C   0  0  0  0  0  0  0  0  0  0  0  0
   31.3497   21.9651    0.4397 N   0  0  0  0  0  0  0  0  0  0  0  0
   32.5061   22.2500    1.0843 C   0  0  0  0  0  0  0  0  0  0  0  0
   32.5693   22.5985    2.4405 C   0  0  0  0  0  0  0  0  0  0  0  0
   31.4924   22.6854    3.2717 N   0  0  0  0  0  0  0  0  0  0  0  0
   30.3674   22.3912    2.5891 C   0  0  0  0  0  0  0  0  0  0  0  0
   29.0888   22.3520    3.0506 N   0  0  0  0  0  0  0  0  0  0  0  0
   28.8053   22.5004    4.0046 H   0  0  0  0  0  0  0  0  0  0  0  0
   22.6059   21.4984    2.9109 C   0  0  1  0  0  0  0  0  0  0  0  0
   22.2227   20.8090    4.2338 C   0  0  0  0  0  0  0  0  0  0  0  0
   23.0686   19.5389    4.3103 C   0  0  0  0  0  0  0  0  0  0  0  0
   24.1174   19.6437    3.2031 C   0  0  0  0  0  0  0  0  0  0  0  0
   24.1151   21.1203    2.7524 C   0  0  0  0  0  0  0  0  0  0  0  0
   24.9801   22.0003    3.6983 C   0  0  0  0  0  0  0  0  0  0  0  0
   26.4852   21.7538    3.5667 C   0  0  0  0  0  0  0  0  0  0  0  0
   26.9172   21.8786    2.1640 N   0  0  0  0  0  0  0  0  0  0  0  0
   26.1788   21.0078    1.2394 C   0  0  0  0  0  0  0  0  0  0  0  0
   24.6771   21.2838    1.3294 C   0  0  0  0  0  0  0  0  0  0  0  0
   21.1098   22.1287    1.0076 N   0  0  0  0  0  0  0  0  0  0  0  0
   21.6417   21.0279    1.8002 C   0  0  0  0  0  0  0  0  0  0  0  0
   20.4254   21.7659    0.3452 H   0  0  0  0  0  0  0  0  0  0  0  0
   20.6024   22.7730    1.6140 H   0  0  0  0  0  0  0  0  0  0  0  0
   34.0002   22.1495    0.1118 S   0  0  0  0  0  0  0  0  0  0  0  0
   34.5929   20.5340    0.6048 C   0  0  0  0  0  0  0  0  0  0  0  0
   33.9006   19.3996    0.1560 C   0  0  0  0  0  0  0  0  0  0  0  0
   34.3275   18.1257    0.5155 C   0  0  0  0  0  0  0  0  0  0  0  0
   35.4484   18.0139    1.3124 C   0  0  0  0  0  0  0  0  0  0  0  0
   36.1536   19.0754    1.7566 N   0  0  0  0  0  0  0  0  0  0  0  0
   35.7308   20.3319    1.4003 C   0  0  0  0  0  0  0  0  0  0  0  0
   36.5458   21.5153    1.9005 C   0  0  0  0  0  0  0  0  0  0  0  0
   37.0356   22.2917    0.8862 F   0  0  0  0  0  0  0  0  0  0  0  0
   37.6315   21.1426    2.6417 F   0  0  0  0  0  0  0  0  0  0  0  0
   35.8444   22.3772    2.6946 F   0  0  0  0  0  0  0  0  0  0  0  0
   33.4989   22.8043    2.8387 H   0  0  0  0  0  0  0  0  0  0  0  0
   22.5075   22.5631    2.8699 H   0  0  0  0  0  0  0  0  0  0  0  0
   21.1815   20.5624    4.2360 H   0  0  0  0  0  0  0  0  0  0  0  0
   22.4003   21.4481    5.0734 H   0  0  0  0  0  0  0  0  0  0  0  0
   22.4542   18.6766    4.1561 H   0  0  0  0  0  0  0  0  0  0  0  0
   23.5304   19.4407    5.2705 H   0  0  0  0  0  0  0  0  0  0  0  0
   23.8589   19.0048    2.3846 H   0  0  0  0  0  0  0  0  0  0  0  0
   25.0837   19.3412    3.5490 H   0  0  0  0  0  0  0  0  0  0  0  0
   24.6916   21.7947    4.7079 H   0  0  0  0  0  0  0  0  0  0  0  0
   24.8058   23.0192    3.4220 H   0  0  0  0  0  0  0  0  0  0  0  0
   26.7107   20.7680    3.9164 H   0  0  0  0  0  0  0  0  0  0  0  0
   27.0039   22.4851    4.1507 H   0  0  0  0  0  0  0  0  0  0  0  0
   26.3650   19.9853    1.4939 H   0  0  0  0  0  0  0  0  0  0  0  0
   26.5080   21.2046    0.2405 H   0  0  0  0  0  0  0  0  0  0  0  0
   24.1666   20.6020    0.6817 H   0  0  0  0  0  0  0  0  0  0  0  0
   24.5233   22.3029    1.0419 H   0  0  0  0  0  0  0  0  0  0  0  0
   22.1693   20.3623    1.1494 H   0  0  0  0  0  0  0  0  0  0  0  0
   20.8138   20.5458    2.2766 H   0  0  0  0  0  0  0  0  0  0  0  0
   33.0690   19.5110   -0.4449 H   0  0  0  0  0  0  0  0  0  0  0  0
   33.8195   17.2865    0.1948 H   0  0  0  0  0  0  0  0  0  0  0  0
   35.7640   17.0693    1.5829 H   0  0  0  0  0  0  0  0  0  0  0  0
  1  2  2  0
  2  3  1  0
  3  4  2  0
  4  5  1  0
  5 25  1  0
  5  6  2  0
  6  7  1  0
  6 36  1  0
  7  8  2  0
  8  9  1  0
  8  3  1  0
  9  1  1  0
  9 10  1  0
 11 12  1  0
 11 37  1  1
 12 13  1  0
 12 38  1  0
 12 39  1  0
 13 14  1  0
 13 40  1  0
 13 41  1  0
 14 15  1  0
 14 42  1  0
 14 43  1  0
 15 16  1  0
 15 11  1  0
 16 17  1  0
 16 44  1  0
 16 45  1  0
 17 18  1  0
 17 46  1  0
 17 47  1  0
 18  1  1  0
 18 19  1  0
 19 20  1  0
 19 48  1  0
 19 49  1  0
 20 15  1  0
 20 50  1  0
 20 51  1  0
 21 22  1  0
 21 23  1  0
 21 24  1  0
 22 11  1  0
 22 52  1  0
 22 53  1  0
 25 26  1  0
 26 27  2  0
 27 28  1  0
 27 54  1  0
 28 29  2  0
 28 55  1  0
 29 30  1  0
 29 56  1  0
 30 31  2  0
 31 32  1  0
 31 26  1  0
 32 33  1  0
 32 34  1  0
 32 35  1  0
M  END
>  <minimizedAffinity>  (9) 
-7.27555

>  <mol_id>  (9) 
125082

>  <source_index>  (9) 
8

>  <layer>  (9) 
L1

>  <uniprot>  (9) 
Q06124

>  <paff>  (9) 
6.0209000000000001

>  <smiles>  (9) 
NCC1CCCC12CCN(c1nc3nc(Sc4cccnc4C(F)(F)F)cnc3[nH]1)CC2

$$$$
L1:Q06124:129145
     RDKit          3D

 56 60  0  0  0  0  0  0  0  0999 V2000
   27.6027   21.0951    1.1865 C   0  0  0  0  0  0  0  0  0  0  0  0
   28.9418   21.5226    1.4079 C   0  0  0  0  0  0  0  0  0  0  0  0
   30.0988   21.6831    0.6194 C   0  0  0  0  0  0  0  0  0  0  0  0
   31.2833   22.1540    1.2222 C   0  0  0  0  0  0  0  0  0  0  0  0
   31.2983   22.4582    2.5938 C   0  0  0  0  0  0  0  0  0  0  0  0
   30.1602   22.3067    3.3920 C   0  0  0  0  0  0  0  0  0  0  0  0
   29.0135   21.8393    2.7572 C   0  0  0  0  0  0  0  0  0  0  0  0
   27.8122   21.6301    3.3578 O   0  0  0  0  0  0  0  0  0  0  0  0
   26.9448   21.1678    2.4029 C   0  0  0  0  0  0  0  0  0  0  0  0
   32.4095   22.9208    3.2512 O   0  0  0  0  0  0  0  0  0  0  0  0
   33.1369   22.9925    2.5971 H   0  0  0  0  0  0  0  0  0  0  0  0
   25.5973   20.8735    2.8838 C   0  0  0  0  0  0  0  0  0  0  0  0
   24.5610   21.8033    2.7146 C   0  0  0  0  0  0  0  0  0  0  0  0
   23.2614   21.5347    3.1650 C   0  0  0  0  0  0  0  0  0  0  0  0
   22.9777   20.3266    3.7976 C   0  0  0  0  0  0  0  0  0  0  0  0
   24.0052   19.3998    3.9822 C   0  0  0  0  0  0  0  0  0  0  0  0
   25.3017   19.6678    3.5298 C   0  0  0  0  0  0  0  0  0  0  0  0
   21.7668   19.9404    4.3025 O   0  0  0  0  0  0  0  0  0  0  0  0
   21.0734   20.8566    5.1429 C   0  0  0  0  0  0  0  0  0  0  0  0
   20.3714   20.2193    6.3436 C   0  0  0  0  0  0  0  0  0  0  0  0
   20.9716   19.9484    7.3807 O   0  0  0  0  0  0  0  0  0  0  0  0
   19.0170   20.0208    6.1553 N   0  0  0  0  0  0  0  0  0  0  0  0
   18.6616   20.1610    5.2143 H   0  0  0  0  0  0  0  0  0  0  0  0
   18.2026   19.3391    7.1067 C   0  0  0  0  0  0  0  0  0  0  0  0
   16.7047   19.3632    6.9779 C   0  0  0  0  0  0  0  0  0  0  0  0
   17.3718   20.1075    8.0970 C   0  0  0  0  0  0  0  0  0  0  0  0
   32.4638   22.2987    0.3338 C   0  0  0  0  0  0  0  0  0  0  0  0
   33.6225   22.3931    0.6921 O   0  0  0  0  0  0  0  0  0  0  0  0
   32.1425   22.3165   -0.9759 O   0  0  0  0  0  0  0  0  0  0  0  0
   33.0182   22.4134   -1.4151 H   0  0  0  0  0  0  0  0  0  0  0  0
   26.5618   20.3612   -1.1117 C   0  0  0  0  0  0  0  0  0  0  0  0
   27.0383   20.6936   -0.0604 C   0  0  0  0  0  0  0  0  0  0  0  0
   25.3643   20.4882   -4.6401 C   0  0  0  0  0  0  0  0  0  0  0  0
   25.9219   20.8735   -3.4192 C   0  0  0  0  0  0  0  0  0  0  0  0
   25.9911   19.9627   -2.3606 C   0  0  0  0  0  0  0  0  0  0  0  0
   25.5033   18.6645   -2.5232 C   0  0  0  0  0  0  0  0  0  0  0  0
   24.9481   18.2861   -3.7450 C   0  0  0  0  0  0  0  0  0  0  0  0
   24.8761   19.1915   -4.8035 C   0  0  0  0  0  0  0  0  0  0  0  0
   24.3463   16.6869   -3.9502 Cl  0  0  0  0  0  0  0  0  0  0  0  0
   30.0793   21.4585   -0.3877 H   0  0  0  0  0  0  0  0  0  0  0  0
   30.1702   22.5299    4.3995 H   0  0  0  0  0  0  0  0  0  0  0  0
   24.7594   22.7029    2.2493 H   0  0  0  0  0  0  0  0  0  0  0  0
   22.5138   22.2327    3.0278 H   0  0  0  0  0  0  0  0  0  0  0  0
   23.8060   18.5061    4.4582 H   0  0  0  0  0  0  0  0  0  0  0  0
   26.0476   18.9693    3.6739 H   0  0  0  0  0  0  0  0  0  0  0  0
   20.3347   21.3569    4.5522 H   0  0  0  0  0  0  0  0  0  0  0  0
   21.8130   21.5186    5.5424 H   0  0  0  0  0  0  0  0  0  0  0  0
   18.9469   18.5738    7.1785 H   0  0  0  0  0  0  0  0  0  0  0  0
   16.1357   18.4814    7.1865 H   0  0  0  0  0  0  0  0  0  0  0  0
   16.0166   19.6237    6.2010 H   0  0  0  0  0  0  0  0  0  0  0  0
   17.2784   19.7562    9.1034 H   0  0  0  0  0  0  0  0  0  0  0  0
   17.3562   21.1181    8.4481 H   0  0  0  0  0  0  0  0  0  0  0  0
   25.3134   21.1617   -5.4204 H   0  0  0  0  0  0  0  0  0  0  0  0
   26.2836   21.8324   -3.2980 H   0  0  0  0  0  0  0  0  0  0  0  0
   25.5534   17.9895   -1.7442 H   0  0  0  0  0  0  0  0  0  0  0  0
   24.4632   18.9033   -5.7043 H   0  0  0  0  0  0  0  0  0  0  0  0
  1  2  1  0
  2  3  2  0
  3  4  1  0
  3 40  1  0
  4  5  2  0
  4 27  1  0
  5  6  1  0
  5 10  1  0
  6  7  2  0
  6 41  1  0
  7  8  1  0
  7  2  1  0
  8  9  1  0
  9 12  1  0
  9  1  2  0
 10 11  1  0
 12 13  2  0
 13 14  1  0
 13 42  1  0
 14 15  2  0
 14 43  1  0
 15 16  1  0
 15 18  1  0
 16 17  2  0
 16 44  1  0
 17 12  1  0
 17 45  1  0
 18 19  1  0
 19 20  1  0
 19 46  1  0
 19 47  1  0
 20 21  2  0
 20 22  1  0
 22 24  1  0
 22 23  1  0
 24 25  1  0
 24 48  1  0
 25 26  1  0
 25 49  1  0
 25 50  1  0
 26 24  1  0
 26 51  1  0
 26 52  1  0
 27 28  2  0
 27 29  1  0
 29 30  1  0
 31 32  3  0
 32  1  1  0
 33 34  2  0
 33 53  1  0
 34 35  1  0
 34 54  1  0
 35 36  2  0
 35 31  1  0
 36 37  1  0
 36 55  1  0
 37 38  2  0
 37 39  1  0
 38 33  1  0
 38 56  1  0
M  END
>  <minimizedAffinity>  (10) 
-8.79940

>  <mol_id>  (10) 
129145

>  <source_index>  (10) 
9

>  <layer>  (10) 
L1

>  <uniprot>  (10) 
Q06124

>  <paff>  (10) 
6.1675000000000004

>  <smiles>  (10) 
c1cc(cc(c1)Cl)C#Cc2c3cc(c(cc3oc2c4ccc(cc4)OCC(=O)NC5CC5)O)C(=O)O

$$$$
