L1:Q06124:1874
     RDKit          3D

 57 61  0  0  0  0  0  0  0  0999 V2000
   26.9624   21.1921    2.3038 C   0  0  0  0  0  0  0  0  0  0  0  0
   27.8337   21.5687    3.2925 O   0  0  0  0  0  0  0  0  0  0  0  0
   29.0457   21.7831    2.7159 C   0  0  0  0  0  0  0  0  0  0  0  0
   30.1966   22.1835    3.3880 C   0  0  0  0  0  0  0  0  0  0  0  0
   31.3465   22.3443    2.6104 C   0  0  0  0  0  0  0  0  0  0  0  0
   32.4679   22.7392    3.2976 O   0  0  0  0  0  0  0  0  0  0  0  0
   31.3379   22.1128    1.2241 C   0  0  0  0  0  0  0  0  0  0  0  0
   30.1514   21.7080    0.5816 C   0  0  0  0  0  0  0  0  0  0  0  0
   28.9809   21.5429    1.3501 C   0  0  0  0  0  0  0  0  0  0  0  0
   27.6348   21.1589    1.0938 C   0  0  0  0  0  0  0  0  0  0  0  0
   33.2190   22.8232    2.6703 H   0  0  0  0  0  0  0  0  0  0  0  0
   22.9422   20.4569    3.6095 C   0  0  0  0  0  0  0  0  0  0  0  0
   23.2373   21.5697    2.8250 C   0  0  0  0  0  0  0  0  0  0  0  0
   24.5524   21.8011    2.3997 C   0  0  0  0  0  0  0  0  0  0  0  0
   25.5956   20.9313    2.7510 C   0  0  0  0  0  0  0  0  0  0  0  0
   25.2844   19.8138    3.5337 C   0  0  0  0  0  0  0  0  0  0  0  0
   23.9714   19.5816    3.9588 C   0  0  0  0  0  0  0  0  0  0  0  0
   21.7099   20.1124    4.0900 O   0  0  0  0  0  0  0  0  0  0  0  0
   21.1972   20.8929    5.1677 C   0  0  0  0  0  0  0  0  0  0  0  0
   21.1841   19.3557    7.0297 O   0  0  0  0  0  0  0  0  0  0  0  0
   20.5286   20.0129    6.2237 C   0  0  0  0  0  0  0  0  0  0  0  0
   19.1491   20.0392    6.1906 N   0  0  0  0  0  0  0  0  0  0  0  0
   18.7179   20.6253    5.4820 H   0  0  0  0  0  0  0  0  0  0  0  0
   18.3330   19.2875    7.0838 C   0  0  0  0  0  0  0  0  0  0  0  0
   16.8346   19.3513    6.9814 C   0  0  0  0  0  0  0  0  0  0  0  0
   17.5315   19.9760    8.1542 C   0  0  0  0  0  0  0  0  0  0  0  0
   32.5869   22.2983    0.4507 C   0  0  0  0  0  0  0  0  0  0  0  0
   33.7076   22.2006    0.9221 O   0  0  0  0  0  0  0  0  0  0  0  0
   32.3855   22.5908   -0.8440 O   0  0  0  0  0  0  0  0  0  0  0  0
   33.2851   22.6824   -1.2234 H   0  0  0  0  0  0  0  0  0  0  0  0
   27.0887   20.7835   -0.1690 C   0  0  0  0  0  0  0  0  0  0  0  0
   26.6306   20.4610   -1.2313 C   0  0  0  0  0  0  0  0  0  0  0  0
   26.0817   20.0623   -2.4901 C   0  0  0  0  0  0  0  0  0  0  0  0
   26.3019   20.8444   -3.6277 C   0  0  0  0  0  0  0  0  0  0  0  0
   25.7628   20.4577   -4.8564 C   0  0  0  0  0  0  0  0  0  0  0  0
   25.0046   19.2910   -4.9468 C   0  0  0  0  0  0  0  0  0  0  0  0
   24.7901   18.5182   -3.8105 C   0  0  0  0  0  0  0  0  0  0  0  0
   24.0426   17.3856   -3.9472 O   0  0  0  0  0  0  0  0  0  0  0  0
   25.3219   18.8926   -2.5794 C   0  0  0  0  0  0  0  0  0  0  0  0
   23.9836   16.9427   -3.0846 H   0  0  0  0  0  0  0  0  0  0  0  0
   30.2007   22.3526    4.4060 H   0  0  0  0  0  0  0  0  0  0  0  0
   30.1391   21.5350   -0.4357 H   0  0  0  0  0  0  0  0  0  0  0  0
   22.4863   22.2247    2.5566 H   0  0  0  0  0  0  0  0  0  0  0  0
   24.7575   22.6275    1.8166 H   0  0  0  0  0  0  0  0  0  0  0  0
   26.0314   19.1536    3.8004 H   0  0  0  0  0  0  0  0  0  0  0  0
   23.7618   18.7532    4.5375 H   0  0  0  0  0  0  0  0  0  0  0  0
   22.0027   21.4311    5.6220 H   0  0  0  0  0  0  0  0  0  0  0  0
   20.4637   21.5668    4.7768 H   0  0  0  0  0  0  0  0  0  0  0  0
   19.0619   18.5043    7.0712 H   0  0  0  0  0  0  0  0  0  0  0  0
   16.2512   18.4646    7.1163 H   0  0  0  0  0  0  0  0  0  0  0  0
   16.1412   19.6956    6.2427 H   0  0  0  0  0  0  0  0  0  0  0  0
   17.4451   19.5345    9.1250 H   0  0  0  0  0  0  0  0  0  0  0  0
   17.5408   20.9497    8.5977 H   0  0  0  0  0  0  0  0  0  0  0  0
   26.8630   21.7078   -3.5594 H   0  0  0  0  0  0  0  0  0  0  0  0
   25.9253   21.0347   -5.6965 H   0  0  0  0  0  0  0  0  0  0  0  0
   24.6043   19.0021   -5.8531 H   0  0  0  0  0  0  0  0  0  0  0  0
   25.1568   18.3127   -1.7419 H   0  0  0  0  0  0  0  0  0  0  0  0
  1  2  1  0
  2  3  1  0
  3  4  2  0
  4  5  1  0
  4 41  1  0
  5  6  1  0
  5  7  2  0
  6 11  1  0
  7 27  1  0
  7  8  1  0
  8  9  2  0
  8 42  1  0
  9 10  1  0
  9  3  1  0
 10 31  1  0
 10  1  2  0
 12 13  2  0
 13 14  1  0
 13 43  1  0
 14 15  2  0
 14 44  1  0
 15  1  1  0
 15 16  1  0
 16 17  2  0
 16 45  1  0
 17 12  1  0
 17 46  1  0
 18 12  1  0
 19 18  1  0
 19 47  1  0
 19 48  1  0
 20 21  2  0
 21 19  1  0
 21 22  1  0
 22 24  1  0
 22 23  1  0
 24 25  1  0
 24 49  1  0
 25 26  1  0
 25 50  1  0
 25 51  1  0
 26 24  1  0
 26 52  1  0
 26 53  1  0
 27 28  2  0
 27 29  1  0
 29 30  1  0
 31 32  3  0
 32 33  1  0
 33 34  2  0
 34 35  1  0
 34 54  1  0
 35 36  2  0
 35 55  1  0
 36 37  1  0
 36 56  1  0
 37 38  1  0
 37 39  2  0
 38 40  1  0
 39 33  1  0
 39 57  1  0
M  END
>  <minimizedAffinity>  (1) 
-9.13873

>  <mol_id>  (1) 
1874

>  <source_index>  (1) 
0

>  <layer>  (1) 
L1

>  <uniprot>  (1) 
Q06124

>  <paff>  (1) 
6.0269000000000004

>  <smiles>  (1) 
O=C(COc1ccc(-c2oc3cc(O)c(C(=O)O)cc3c2C#Cc2cccc(O)c2)cc1)NC1CC1

$$$$
L1:Q06124:26663
     RDKit          3D

 46 48  0  0  0  0  0  0  0  0999 V2000
   24.4627   20.8733    2.7634 C   0  0  0  0  0  0  0  0  0  0  0  0
   23.7976   19.9939    3.6247 C   0  0  0  0  0  0  0  0  0  0  0  0
   22.4516   19.9386    3.7926 N   0  0  0  0  0  0  0  0  0  0  0  0
   21.7458   20.8188    3.0454 C   0  0  0  0  0  0  0  0  0  0  0  0
   22.3780   21.7189    2.1688 C   0  0  0  0  0  0  0  0  0  0  0  0
   21.6900   22.6076    1.3578 N   0  0  0  0  0  0  0  0  0  0  0  0
   23.7224   21.7327    2.0227 N   0  0  0  0  0  0  0  0  0  0  0  0
   22.2959   23.1902    0.7956 H   0  0  0  0  0  0  0  0  0  0  0  0
   20.8335   23.0042    1.7182 H   0  0  0  0  0  0  0  0  0  0  0  0
   29.5202   19.5621    1.5389 C   0  0  0  0  0  0  0  0  0  0  0  0
   28.7835   20.7373    2.2174 C   0  0  0  0  0  0  0  0  0  0  0  0
   27.7773   21.3280    1.1924 C   0  0  0  0  0  0  0  0  0  0  0  0
   26.5345   21.9241    1.8558 C   0  0  0  0  0  0  0  0  0  0  0  0
   25.8384   20.9001    2.6251 N   0  0  0  0  0  0  0  0  0  0  0  0
   26.6045   19.7809    3.1746 C   0  0  0  0  0  0  0  0  0  0  0  0
   28.0346   20.2290    3.4772 C   0  0  0  0  0  0  0  0  0  0  0  0
   29.8015   21.8425    2.6154 C   0  0  0  0  0  0  0  0  0  0  0  0
   30.3470   21.6875    3.9605 N   0  0  0  0  0  0  0  0  0  0  0  0
   30.9107   20.8403    4.0133 H   0  0  0  0  0  0  0  0  0  0  0  0
   30.9839   22.4588    4.1585 H   0  0  0  0  0  0  0  0  0  0  0  0
   19.9637   20.7822    3.2171 S   0  0  0  0  0  0  0  0  0  0  0  0
   19.8079   20.4663    4.9765 C   0  0  0  0  0  0  0  0  0  0  0  0
   20.8524   20.9262    5.7958 C   0  0  0  0  0  0  0  0  0  0  0  0
   20.8191   20.7262    7.1750 C   0  0  0  0  0  0  0  0  0  0  0  0
   19.7414   20.0598    7.7509 C   0  0  0  0  0  0  0  0  0  0  0  0
   18.6963   19.5886    6.9492 C   0  0  0  0  0  0  0  0  0  0  0  0
   17.4014   18.7657    7.7520 Cl  0  0  0  0  0  0  0  0  0  0  0  0
   18.7218   19.7833    5.5580 C   0  0  0  0  0  0  0  0  0  0  0  0
   17.4297   19.1688    4.5684 Cl  0  0  0  0  0  0  0  0  0  0  0  0
   24.3740   19.3374    4.1741 H   0  0  0  0  0  0  0  0  0  0  0  0
   30.0351   19.9174    0.6708 H   0  0  0  0  0  0  0  0  0  0  0  0
   28.8106   18.8145    1.2517 H   0  0  0  0  0  0  0  0  0  0  0  0
   30.2254   19.1400    2.2240 H   0  0  0  0  0  0  0  0  0  0  0  0
   27.4690   20.5480    0.5279 H   0  0  0  0  0  0  0  0  0  0  0  0
   28.2753   22.1196    0.6725 H   0  0  0  0  0  0  0  0  0  0  0  0
   25.8794   22.3066    1.1012 H   0  0  0  0  0  0  0  0  0  0  0  0
   26.8327   22.7141    2.5130 H   0  0  0  0  0  0  0  0  0  0  0  0
   26.6259   18.9821    2.4630 H   0  0  0  0  0  0  0  0  0  0  0  0
   26.1409   19.4467    4.0792 H   0  0  0  0  0  0  0  0  0  0  0  0
   28.5740   19.3995    3.8843 H   0  0  0  0  0  0  0  0  0  0  0  0
   27.9779   21.0432    4.1692 H   0  0  0  0  0  0  0  0  0  0  0  0
   29.3087   22.7906    2.5589 H   0  0  0  0  0  0  0  0  0  0  0  0
   30.6244   21.7661    1.9358 H   0  0  0  0  0  0  0  0  0  0  0  0
   21.6542   21.4182    5.3714 H   0  0  0  0  0  0  0  0  0  0  0  0
   21.5909   21.0711    7.7670 H   0  0  0  0  0  0  0  0  0  0  0  0
   19.7132   19.9129    8.7720 H   0  0  0  0  0  0  0  0  0  0  0  0
  1  2  2  0
  2  3  1  0
  2 30  1  0
  3  4  2  0
  4 21  1  0
  4  5  1  0
  5  6  1  0
  5  7  2  0
  6  8  1  0
  6  9  1  0
  7  1  1  0
 10 11  1  0
 10 31  1  0
 10 32  1  0
 10 33  1  0
 11 17  1  0
 11 12  1  0
 12 13  1  0
 12 34  1  0
 12 35  1  0
 13 14  1  0
 13 36  1  0
 13 37  1  0
 14  1  1  0
 14 15  1  0
 15 16  1  0
 15 38  1  0
 15 39  1  0
 16 11  1  0
 16 40  1  0
 16 41  1  0
 17 18  1  0
 17 42  1  0
 17 43  1  0
 18 19  1  0
 18 20  1  0
 21 22  1  0
 22 23  2  0
 23 24  1  0
 23 44  1  0
 24 25  2  0
 24 45  1  0
 25 26  1  0
 25 46  1  0
 26 27  1  0
 26 28  2  0
 28 29  1  0
 28 22  1  0
M  END
>  <minimizedAffinity>  (2) 
-8.94140

>  <mol_id>  (2) 
26663

>  <source_index>  (2) 
1

>  <layer>  (2) 
L1

>  <uniprot>  (2) 
Q06124

>  <paff>  (2) 
7.6383000000000001

>  <smiles>  (2) 
CC1(CCN(CC1)c2cnc(c(n2)N)Sc3cccc(c3Cl)Cl)CN

$$$$
L1:Q06124:32578
     RDKit          3D

 54 58  0  0  0  0  0  0  0  0999 V2000
   21.5126   22.2481    2.0290 C   0  0  0  0  0  0  0  0  0  0  0  0
   21.8910   21.1937    3.0321 C   0  0  0  0  0  0  0  0  0  0  0  0
   20.9026   20.8741    3.9199 N   0  0  0  0  0  0  0  0  0  0  0  0
   21.2956   19.9654    4.8495 C   0  0  0  0  0  0  0  0  0  0  0  0
   20.6316   19.3414    5.9468 C   0  0  0  0  0  0  0  0  0  0  0  0
   21.4683   18.5140    6.6062 N   0  0  0  0  0  0  0  0  0  0  0  0
   22.6223   18.5939    5.9131 N   0  0  0  0  0  0  0  0  0  0  0  0
   22.5784   19.4518    4.8591 C   0  0  0  0  0  0  0  0  0  0  0  0
   23.5709   19.7418    3.9989 N   0  0  0  0  0  0  0  0  0  0  0  0
   23.1943   20.6256    3.0427 C   0  0  0  0  0  0  0  0  0  0  0  0
   23.4136   18.0374    6.2111 H   0  0  0  0  0  0  0  0  0  0  0  0
   24.1412   20.9661    2.0738 N   0  0  0  0  0  0  0  0  0  0  0  0
   24.7389   19.8576    1.3309 C   0  0  0  0  0  0  0  0  0  0  0  0
   26.0130   19.3759    2.0260 C   0  0  0  0  0  0  0  0  0  0  0  0
   27.0329   20.5166    2.2164 C   0  0  0  0  0  0  0  0  0  0  0  0
   26.3269   21.6469    3.0206 C   0  0  0  0  0  0  0  0  0  0  0  0
   25.0163   22.0991    2.3698 C   0  0  0  0  0  0  0  0  0  0  0  0
   28.2692   20.0354    2.9813 C   0  0  0  0  0  0  0  0  0  0  0  0
   29.3187   20.9811    2.7199 O   0  0  0  0  0  0  0  0  0  0  0  0
   28.9824   21.7091    1.5240 C   0  0  1  0  0  0  0  0  0  0  0  0
   30.1991   21.7852    0.6155 C   0  0  0  0  0  0  0  0  0  0  0  0
   27.7000   21.0636    0.9334 C   0  0  1  0  0  0  0  0  0  0  0  0
   27.9838   19.9980   -0.0418 N   0  0  0  0  0  0  0  0  0  0  0  0
   27.1243   19.6983   -0.4980 H   0  0  0  0  0  0  0  0  0  0  0  0
   28.5788   20.3556   -0.7890 H   0  0  0  0  0  0  0  0  0  0  0  0
   19.2537   19.5423    6.3837 C   0  0  0  0  0  0  0  0  0  0  0  0
   18.1896   19.0651    5.6000 C   0  0  0  0  0  0  0  0  0  0  0  0
   16.8650   19.2584    6.0017 C   0  0  0  0  0  0  0  0  0  0  0  0
   16.5893   19.9282    7.1927 C   0  0  0  0  0  0  0  0  0  0  0  0
   17.6396   20.3986    7.9815 C   0  0  0  0  0  0  0  0  0  0  0  0
   17.2780   21.2096    9.4589 Cl  0  0  0  0  0  0  0  0  0  0  0  0
   18.9635   20.2063    7.5816 C   0  0  0  0  0  0  0  0  0  0  0  0
   19.9567   20.6383    8.3773 F   0  0  0  0  0  0  0  0  0  0  0  0
   20.4963   22.5428    2.1875 H   0  0  0  0  0  0  0  0  0  0  0  0
   21.6196   21.8542    1.0399 H   0  0  0  0  0  0  0  0  0  0  0  0
   22.1526   23.0976    2.1458 H   0  0  0  0  0  0  0  0  0  0  0  0
   24.9796   20.1855    0.3412 H   0  0  0  0  0  0  0  0  0  0  0  0
   24.0388   19.0494    1.2902 H   0  0  0  0  0  0  0  0  0  0  0  0
   26.4613   18.6072    1.4319 H   0  0  0  0  0  0  0  0  0  0  0  0
   25.7430   19.0086    2.9940 H   0  0  0  0  0  0  0  0  0  0  0  0
   26.9866   22.4870    3.0832 H   0  0  0  0  0  0  0  0  0  0  0  0
   26.0917   21.2583    3.9894 H   0  0  0  0  0  0  0  0  0  0  0  0
   25.2407   22.6116    1.4577 H   0  0  0  0  0  0  0  0  0  0  0  0
   24.5077   22.7434    3.0562 H   0  0  0  0  0  0  0  0  0  0  0  0
   28.5572   19.0631    2.6400 H   0  0  0  0  0  0  0  0  0  0  0  0
   28.0676   19.9686    4.0300 H   0  0  0  0  0  0  0  0  0  0  0  0
   28.7375   22.7361    1.6978 H   0  0  0  0  0  0  0  0  0  0  0  0
   30.5292   20.7955    0.3778 H   0  0  0  0  0  0  0  0  0  0  0  0
   30.9846   22.3129    1.1148 H   0  0  0  0  0  0  0  0  0  0  0  0
   29.9397   22.3007   -0.2855 H   0  0  0  0  0  0  0  0  0  0  0  0
   27.0961   21.7441    0.3702 H   0  0  0  0  0  0  0  0  0  0  0  0
   18.3882   18.5666    4.7185 H   0  0  0  0  0  0  0  0  0  0  0  0
   16.0914   18.9054    5.4169 H   0  0  0  0  0  0  0  0  0  0  0  0
   15.6121   20.0756    7.4898 H   0  0  0  0  0  0  0  0  0  0  0  0
  1  2  1  0
  1 34  1  0
  1 35  1  0
  1 36  1  0
  2  3  2  0
  3  4  1  0
  4  5  1  0
  5 26  1  0
  5  6  2  0
  6  7  1  0
  7  8  1  0
  7 11  1  0
  8  9  1  0
  8  4  2  0
  9 10  2  0
 10 12  1  0
 10  2  1  0
 12 13  1  0
 13 14  1  0
 13 37  1  0
 13 38  1  0
 14 15  1  0
 14 39  1  0
 14 40  1  0
 15 16  1  0
 15 18  1  0
 16 17  1  0
 16 41  1  0
 16 42  1  0
 17 12  1  0
 17 43  1  0
 17 44  1  0
 18 19  1  0
 18 45  1  0
 18 46  1  0
 19 20  1  0
 20 21  1  0
 20 22  1  0
 20 47  1  1
 21 48  1  0
 21 49  1  0
 21 50  1  0
 22 23  1  0
 22 15  1  0
 22 51  1  6
 23 24  1  0
 23 25  1  0
 26 27  2  0
 27 28  1  0
 27 52  1  0
 28 29  2  0
 28 53  1  0
 29 30  1  0
 29 54  1  0
 30 31  1  0
 30 32  2  0
 32 33  1  0
 32 26  1  0
M  END
>  <minimizedAffinity>  (3) 
-10.89865

>  <mol_id>  (3) 
32578

>  <source_index>  (3) 
2

>  <layer>  (3) 
L1

>  <uniprot>  (3) 
Q06124

>  <paff>  (3) 
8.0088000000000008

>  <smiles>  (3) 
Cc1nc2c(-c3cccc(Cl)c3F)n[nH]c2nc1N1CCC2(CC1)CO[C@@H](C)[C@H]2N

$$$$
L1:Q06124:39617
     RDKit          3D

 59 63  0  0  0  0  0  0  0  0999 V2000
   27.3854   19.0833    2.3607 C   0  0  0  0  0  0  0  0  0  0  0  0
   26.3732   18.5518    1.6375 N   0  0  0  0  0  0  0  0  0  0  0  0
   25.1286   18.8240    2.1042 C   0  0  0  0  0  0  0  0  0  0  0  0
   24.8500   19.5921    3.2399 C   0  0  0  0  0  0  0  0  0  0  0  0
   25.8886   20.1003    3.9448 N   0  0  0  0  0  0  0  0  0  0  0  0
   27.1466   19.8651    3.5057 C   0  0  0  0  0  0  0  0  0  0  0  0
   28.1485   20.3844    4.3060 N   0  0  0  0  0  0  0  0  0  0  0  0
   29.0305   20.6453    3.8806 H   0  0  0  0  0  0  0  0  0  0  0  0
   27.8081   20.9329    5.0840 H   0  0  0  0  0  0  0  0  0  0  0  0
   23.5632   19.8462    3.6822 N   0  0  0  0  0  0  0  0  0  0  0  0
   23.0912   19.1458    4.8752 C   0  0  0  0  0  0  0  0  0  0  0  0
   21.5730   18.9763    4.7973 C   0  0  0  0  0  0  0  0  0  0  0  0
   20.8085   20.3310    4.6569 C   0  0  0  0  0  0  0  0  0  0  0  0
   21.7650   21.4330    4.1655 C   0  0  0  0  0  0  0  0  0  0  0  0
   22.7479   20.9153    3.1178 C   0  0  0  0  0  0  0  0  0  0  0  0
   20.1820   20.7131    6.0019 C   0  0  0  0  0  0  0  0  0  0  0  0
   18.9691   19.9564    6.1320 O   0  0  0  0  0  0  0  0  0  0  0  0
   18.6173   19.4275    4.8397 C   0  0  0  0  0  0  0  0  0  0  0  0
   19.5377   20.1019    3.8108 C   0  0  1  0  0  0  0  0  0  0  0  0
   18.8830   21.3162    3.3052 N   0  0  0  0  0  0  0  0  0  0  0  0
   18.6364   21.9369    4.0762 H   0  0  0  0  0  0  0  0  0  0  0  0
   19.4913   21.8319    2.6753 H   0  0  0  0  0  0  0  0  0  0  0  0
   29.0274   18.7423    1.7480 S   0  0  0  0  0  0  0  0  0  0  0  0
   27.9702   20.3392   -5.1917 C   0  0  0  0  0  0  0  0  0  0  0  0
   28.3725   21.3099   -4.1194 C   0  0  0  0  0  0  0  0  0  0  0  0
   28.5431   22.4967   -4.4172 O   0  0  0  0  0  0  0  0  0  0  0  0
   28.5437   20.8769   -2.8238 N   0  0  0  0  0  0  0  0  0  0  0  0
   28.9123   21.8650   -1.7917 C   0  0  0  0  0  0  0  0  0  0  0  0
   28.9540   21.1440   -0.4454 C   0  0  0  0  0  0  0  0  0  0  0  0
   30.1547   21.3581    0.1584 F   0  0  0  0  0  0  0  0  0  0  0  0
   28.0040   21.6577    0.3790 F   0  0  0  0  0  0  0  0  0  0  0  0
   28.7091   19.7200   -0.8368 C   0  0  0  0  0  0  0  0  0  0  0  0
   28.7084   18.6065    0.0010 C   0  0  0  0  0  0  0  0  0  0  0  0
   28.4237   17.3610   -0.5684 C   0  0  0  0  0  0  0  0  0  0  0  0
   28.1703   17.2439   -1.9398 C   0  0  0  0  0  0  0  0  0  0  0  0
   28.1906   18.3692   -2.7697 C   0  0  0  0  0  0  0  0  0  0  0  0
   28.4586   19.6098   -2.2144 C   0  0  0  0  0  0  0  0  0  0  0  0
   24.3275   18.4354    1.5824 H   0  0  0  0  0  0  0  0  0  0  0  0
   23.3427   19.7144    5.7460 H   0  0  0  0  0  0  0  0  0  0  0  0
   23.5559   18.1836    4.9322 H   0  0  0  0  0  0  0  0  0  0  0  0
   21.2392   18.4884    5.6892 H   0  0  0  0  0  0  0  0  0  0  0  0
   21.3622   18.4002    3.9207 H   0  0  0  0  0  0  0  0  0  0  0  0
   22.3176   21.8082    5.0014 H   0  0  0  0  0  0  0  0  0  0  0  0
   21.1758   22.2028    3.7126 H   0  0  0  0  0  0  0  0  0  0  0  0
   23.3834   21.7162    2.8021 H   0  0  0  0  0  0  0  0  0  0  0  0
   22.2003   20.5343    2.2812 H   0  0  0  0  0  0  0  0  0  0  0  0
   19.9651   21.7607    6.0215 H   0  0  0  0  0  0  0  0  0  0  0  0
   20.8521   20.5006    6.8085 H   0  0  0  0  0  0  0  0  0  0  0  0
   17.5942   19.6494    4.6183 H   0  0  0  0  0  0  0  0  0  0  0  0
   18.7356   18.3643    4.8179 H   0  0  0  0  0  0  0  0  0  0  0  0
   19.7637   19.5550    2.9193 H   0  0  0  0  0  0  0  0  0  0  0  0
   27.8865   20.8542   -6.1259 H   0  0  0  0  0  0  0  0  0  0  0  0
   27.0270   19.9008   -4.9404 H   0  0  0  0  0  0  0  0  0  0  0  0
   28.7103   19.5708   -5.2731 H   0  0  0  0  0  0  0  0  0  0  0  0
   28.1843   22.6486   -1.7621 H   0  0  0  0  0  0  0  0  0  0  0  0
   29.8658   22.2971   -2.0129 H   0  0  0  0  0  0  0  0  0  0  0  0
   28.4003   16.5198    0.0289 H   0  0  0  0  0  0  0  0  0  0  0  0
   27.9661   16.3163   -2.3433 H   0  0  0  0  0  0  0  0  0  0  0  0
   28.0086   18.2768   -3.7813 H   0  0  0  0  0  0  0  0  0  0  0  0
  1  2  2  0
  2  3  1  0
  3  4  2  0
  3 38  1  0
  4 10  1  0
  4  5  1  0
  5  6  2  0
  6  7  1  0
  6  1  1  0
  7  8  1  0
  7  9  1  0
 10 11  1  0
 11 12  1  0
 11 39  1  0
 11 40  1  0
 12 13  1  0
 12 41  1  0
 12 42  1  0
 13 14  1  0
 13 16  1  0
 14 15  1  0
 14 43  1  0
 14 44  1  0
 15 10  1  0
 15 45  1  0
 15 46  1  0
 16 17  1  0
 16 47  1  0
 16 48  1  0
 17 18  1  0
 18 19  1  0
 18 49  1  0
 18 50  1  0
 19 20  1  0
 19 13  1  0
 19 51  1  6
 20 21  1  0
 20 22  1  0
 23  1  1  0
 24 25  1  0
 24 52  1  0
 24 53  1  0
 24 54  1  0
 25 26  2  0
 25 27  1  0
 27 28  1  0
 28 29  1  0
 28 55  1  0
 28 56  1  0
 29 30  1  0
 29 31  1  0
 29 32  1  0
 32 33  2  0
 33 23  1  0
 33 34  1  0
 34 35  2  0
 34 57  1  0
 35 36  1  0
 35 58  1  0
 36 37  2  0
 36 59  1  0
 37 27  1  0
 37 32  1  0
M  END
>  <minimizedAffinity>  (4) 
-9.22511

>  <mol_id>  (4) 
39617

>  <source_index>  (4) 
3

>  <layer>  (4) 
L1

>  <uniprot>  (4) 
Q06124

>  <paff>  (4) 
7.585

>  <smiles>  (4) 
CC(=O)N1CC(F)(F)c2c(Sc3ncc(N4CCC5(CC4)COC[C@H]5N)nc3N)cccc21

$$$$
L1:Q06124:53896
     RDKit          3D

 42 44  0  0  0  0  0  0  0  0999 V2000
   23.3063   20.6204    3.4709 C   0  0  0  0  0  0  0  0  0  0  0  0
   22.1557   21.3917    3.2798 C   0  0  0  0  0  0  0  0  0  0  0  0
   20.9699   21.1846    3.9076 N   0  0  0  0  0  0  0  0  0  0  0  0
   20.9439   20.1244    4.7511 C   0  0  0  0  0  0  0  0  0  0  0  0
   22.0873   19.3421    4.9869 C   0  0  0  0  0  0  0  0  0  0  0  0
   22.1095   18.2604    5.8497 N   0  0  0  0  0  0  0  0  0  0  0  0
   23.2495   19.5829    4.3410 N   0  0  0  0  0  0  0  0  0  0  0  0
   23.0101   17.7994    5.8793 H   0  0  0  0  0  0  0  0  0  0  0  0
   21.5693   18.3005    6.7000 H   0  0  0  0  0  0  0  0  0  0  0  0
   28.1573   19.9576    1.4043 C   0  0  0  0  0  0  0  0  0  0  0  0
   27.1258   21.0965    1.4770 C   0  0  0  0  0  0  0  0  0  0  0  0
   27.7102   22.2377    0.7519 N   0  0  0  0  0  0  0  0  0  0  0  0
   25.8239   20.6902    0.7584 C   0  0  0  0  0  0  0  0  0  0  0  0
   24.8543   19.9777    1.7012 C   0  0  0  0  0  0  0  0  0  0  0  0
   24.5000   20.8608    2.8145 N   0  0  0  0  0  0  0  0  0  0  0  0
   25.4307   21.9115    3.2108 C   0  0  0  0  0  0  0  0  0  0  0  0
   26.8681   21.4603    2.9549 C   0  0  0  0  0  0  0  0  0  0  0  0
   28.5821   22.5287    1.1932 H   0  0  0  0  0  0  0  0  0  0  0  0
   27.0843   23.0411    0.7884 H   0  0  0  0  0  0  0  0  0  0  0  0
   19.6544   19.8982    5.4152 C   0  0  0  0  0  0  0  0  0  0  0  0
   18.6076   19.3163    4.6708 C   0  0  0  0  0  0  0  0  0  0  0  0
   17.3561   19.0842    5.2392 C   0  0  0  0  0  0  0  0  0  0  0  0
   17.1293   19.4248    6.5689 C   0  0  0  0  0  0  0  0  0  0  0  0
   18.1545   19.9891    7.3342 C   0  0  0  0  0  0  0  0  0  0  0  0
   17.7840   20.3721    8.9815 Cl  0  0  0  0  0  0  0  0  0  0  0  0
   19.4193   20.2248    6.7676 C   0  0  0  0  0  0  0  0  0  0  0  0
   20.6975   20.8939    7.7393 Cl  0  0  0  0  0  0  0  0  0  0  0  0
   22.2121   22.1765    2.6121 H   0  0  0  0  0  0  0  0  0  0  0  0
   28.3372   19.7041    0.3804 H   0  0  0  0  0  0  0  0  0  0  0  0
   27.7800   19.1010    1.9228 H   0  0  0  0  0  0  0  0  0  0  0  0
   29.0722   20.2755    1.8591 H   0  0  0  0  0  0  0  0  0  0  0  0
   26.0655   20.0335   -0.0511 H   0  0  0  0  0  0  0  0  0  0  0  0
   25.3485   21.5803    0.4025 H   0  0  0  0  0  0  0  0  0  0  0  0
   25.3181   19.0928    2.0843 H   0  0  0  0  0  0  0  0  0  0  0  0
   23.9671   19.7176    1.1625 H   0  0  0  0  0  0  0  0  0  0  0  0
   25.3054   22.1215    4.2525 H   0  0  0  0  0  0  0  0  0  0  0  0
   25.2315   22.7921    2.6365 H   0  0  0  0  0  0  0  0  0  0  0  0
   27.0693   20.6003    3.5589 H   0  0  0  0  0  0  0  0  0  0  0  0
   27.5119   22.2783    3.2027 H   0  0  0  0  0  0  0  0  0  0  0  0
   18.7713   19.0571    3.6854 H   0  0  0  0  0  0  0  0  0  0  0  0
   16.6014   18.6617    4.6763 H   0  0  0  0  0  0  0  0  0  0  0  0
   16.2022   19.2606    6.9914 H   0  0  0  0  0  0  0  0  0  0  0  0
  1  2  2  0
  2  3  1  0
  2 28  1  0
  3  4  2  0
  4 20  1  0
  4  5  1  0
  5  6  1  0
  5  7  2  0
  6  8  1  0
  6  9  1  0
  7  1  1  0
 10 11  1  0
 10 29  1  0
 10 30  1  0
 10 31  1  0
 11 12  1  0
 11 13  1  0
 12 18  1  0
 12 19  1  0
 13 14  1  0
 13 32  1  0
 13 33  1  0
 14 15  1  0
 14 34  1  0
 14 35  1  0
 15  1  1  0
 15 16  1  0
 16 17  1  0
 16 36  1  0
 16 37  1  0
 17 11  1  0
 17 38  1  0
 17 39  1  0
 20 21  2  0
 21 22  1  0
 21 40  1  0
 22 23  2  0
 22 41  1  0
 23 24  1  0
 23 42  1  0
 24 25  1  0
 24 26  2  0
 26 27  1  0
 26 20  1  0
M  END
>  <minimizedAffinity>  (5) 
-10.13197

>  <mol_id>  (5) 
53896

>  <source_index>  (5) 
4

>  <layer>  (5) 
L1

>  <uniprot>  (5) 
Q06124

>  <paff>  (5) 
7.1367000000000003

>  <smiles>  (5) 
CC1(N)CCN(CC1)c1cnc(c(N)n1)-c1cccc(Cl)c1Cl

$$$$
L1:Q06124:82531
     RDKit          3D

 50 53  0  0  0  0  0  0  0  0999 V2000
   26.0178   21.7953    3.8212 O   0  0  0  0  0  0  0  0  0  0  0  0
   25.8065   20.7958    3.1648 C   0  0  0  0  0  0  0  0  0  0  0  0
   26.8168   20.1706    2.2484 C   0  0  0  0  0  0  0  0  0  0  0  0
   28.0478   20.5141    2.0348 N   0  0  0  0  0  0  0  0  0  0  0  0
   26.1352   19.0026    1.6257 C   0  0  0  0  0  0  0  0  0  0  0  0
   24.9253   18.9014    2.1090 N   0  0  0  0  0  0  0  0  0  0  0  0
   24.7178   19.9500    3.0137 N   0  0  0  0  0  0  0  0  0  0  0  0
   26.6983   18.0771    0.6283 C   0  0  0  0  0  0  0  0  0  0  0  0
   26.4535   18.2117   -0.7434 C   0  0  0  0  0  0  0  0  0  0  0  0
   27.0039   17.3007   -1.6538 C   0  0  0  0  0  0  0  0  0  0  0  0
   27.7983   16.2454   -1.1877 C   0  0  0  0  0  0  0  0  0  0  0  0
   28.0410   16.0944    0.1826 C   0  0  0  0  0  0  0  0  0  0  0  0
   27.4871   17.0088    1.0851 C   0  0  0  0  0  0  0  0  0  0  0  0
   28.3745   15.2882   -2.1414 N   0  0  0  0  0  0  0  0  0  0  0  0
   27.9071   15.2672   -3.2886 O   0  0  0  0  0  0  0  0  0  0  0  0
   29.2922   14.5589   -1.7405 O   0  0  0  0  0  0  0  0  0  0  0  0
   23.4571   20.0419    3.6550 C   0  0  0  0  0  0  0  0  0  0  0  0
   23.0607   19.1247    4.6402 C   0  0  0  0  0  0  0  0  0  0  0  0
   21.8103   19.2289    5.2653 C   0  0  0  0  0  0  0  0  0  0  0  0
   20.9389   20.2615    4.9056 C   0  0  0  0  0  0  0  0  0  0  0  0
   21.3113   21.1870    3.9268 C   0  0  0  0  0  0  0  0  0  0  0  0
   22.5631   21.0717    3.3101 C   0  0  0  0  0  0  0  0  0  0  0  0
   19.6285   20.3744    5.5581 N   0  0  0  0  0  0  0  0  0  0  0  0
   18.6239   20.1134    4.8813 O   0  0  0  0  0  0  0  0  0  0  0  0
   19.6052   20.7239    6.7466 O   0  0  0  0  0  0  0  0  0  0  0  0
   28.4993   21.6021    2.7043 N   0  0  0  0  0  0  0  0  0  0  0  0
   27.8927   22.1593    3.3160 H   0  0  0  0  0  0  0  0  0  0  0  0
   29.8442   21.9919    2.6102 C   0  0  0  0  0  0  0  0  0  0  0  0
   30.4708   21.9950    1.3540 C   0  0  0  0  0  0  0  0  0  0  0  0
   31.8107   22.3697    1.2165 C   0  0  0  0  0  0  0  0  0  0  0  0
   32.5338   22.7488    2.3475 C   0  0  0  0  0  0  0  0  0  0  0  0
   31.9374   22.7465    3.6086 C   0  0  0  0  0  0  0  0  0  0  0  0
   30.5971   22.3697    3.7318 C   0  0  0  0  0  0  0  0  0  0  0  0
   34.2389   23.1970    2.1938 S   0  0  0  0  0  0  0  0  0  0  0  0
   34.5113   24.2318    3.1641 O   0  0  0  0  0  0  0  0  0  0  0  0
   34.5394   23.3609    0.7874 O   0  0  0  0  0  0  0  0  0  0  0  0
   35.0491   21.8725    2.6343 O   0  0  0  0  0  0  0  0  0  0  0  0
   35.6393   21.6321    1.8888 H   0  0  0  0  0  0  0  0  0  0  0  0
   25.8641   18.9866   -1.0858 H   0  0  0  0  0  0  0  0  0  0  0  0
   26.8248   17.4066   -2.6646 H   0  0  0  0  0  0  0  0  0  0  0  0
   28.6240   15.3146    0.5245 H   0  0  0  0  0  0  0  0  0  0  0  0
   27.6599   16.8971    2.0964 H   0  0  0  0  0  0  0  0  0  0  0  0
   23.7003   18.3607    4.9090 H   0  0  0  0  0  0  0  0  0  0  0  0
   21.5340   18.5461    5.9882 H   0  0  0  0  0  0  0  0  0  0  0  0
   20.6687   21.9494    3.6607 H   0  0  0  0  0  0  0  0  0  0  0  0
   22.8355   21.7564    2.5876 H   0  0  0  0  0  0  0  0  0  0  0  0
   29.9335   21.7161    0.5182 H   0  0  0  0  0  0  0  0  0  0  0  0
   32.2603   22.3659    0.2876 H   0  0  0  0  0  0  0  0  0  0  0  0
   32.4805   23.0203    4.4423 H   0  0  0  0  0  0  0  0  0  0  0  0
   30.1539   22.3694    4.6638 H   0  0  0  0  0  0  0  0  0  0  0  0
  1  2  2  0
  2  3  1  0
  3  4  2  0
  3  5  1  0
  4 26  1  0
  5  8  1  0
  5  6  2  0
  6  7  1  0
  7 17  1  0
  7  2  1  0
  8  9  2  0
  9 10  1  0
  9 39  1  0
 10 11  2  0
 10 40  1  0
 11 14  1  0
 11 12  1  0
 12 13  2  0
 12 41  1  0
 13  8  1  0
 13 42  1  0
 14 15  2  0
 14 16  1  0
 17 18  2  0
 18 19  1  0
 18 43  1  0
 19 20  2  0
 19 44  1  0
 20 23  1  0
 20 21  1  0
 21 22  2  0
 21 45  1  0
 22 17  1  0
 22 46  1  0
 23 24  2  0
 23 25  1  0
 26 28  1  0
 26 27  1  0
 28 29  2  0
 29 30  1  0
 29 47  1  0
 30 31  2  0
 30 48  1  0
 31 34  1  0
 31 32  1  0
 32 33  2  0
 32 49  1  0
 33 28  1  0
 33 50  1  0
 34 35  2  0
 34 36  2  0
 34 37  1  0
 37 38  1  0
M  CHG  4  14   1  16  -1  23   1  25  -1
M  END
>  <minimizedAffinity>  (6) 
-9.27830

>  <mol_id>  (6) 
82531

>  <source_index>  (6) 
5

>  <layer>  (6) 
L1

>  <uniprot>  (6) 
Q06124

>  <paff>  (6) 
7.1486999999999998

>  <smiles>  (6) 
OS(=O)(=O)c1ccc(N\N=C2\C(=O)N(N=C2c2ccc(cc2)[N+]([O-])=O)c2ccc(cc2)[N+]([O-])=O)cc1 |c:14|

$$$$
L1:Q06124:95742
     RDKit          3D

 42 44  0  0  0  0  0  0  0  0999 V2000
   21.8001   20.1424    4.1304 C   0  0  0  0  0  0  0  0  0  0  0  0
   21.6863   21.1335    3.1465 C   0  0  0  0  0  0  0  0  0  0  0  0
   22.6511   21.4436    2.2379 N   0  0  0  0  0  0  0  0  0  0  0  0
   23.7863   20.7215    2.3320 C   0  0  0  0  0  0  0  0  0  0  0  0
   23.9317   19.7533    3.3142 C   0  0  0  0  0  0  0  0  0  0  0  0
   22.9616   19.4533    4.2180 N   0  0  0  0  0  0  0  0  0  0  0  0
   17.5798   18.8707    7.7306 C   0  0  0  0  0  0  0  0  0  0  0  0
   18.5795   19.7474    6.9591 C   0  0  0  0  0  0  0  0  0  0  0  0
   18.3385   21.1367    7.3799 N   0  0  0  0  0  0  0  0  0  0  0  0
   20.0143   19.3222    7.3137 C   0  0  0  0  0  0  0  0  0  0  0  0
   21.0734   20.0198    6.4628 C   0  0  0  0  0  0  0  0  0  0  0  0
   20.7739   19.8660    5.0364 N   0  0  0  0  0  0  0  0  0  0  0  0
   19.4313   20.2569    4.5978 C   0  0  0  0  0  0  0  0  0  0  0  0
   18.3617   19.5699    5.4463 C   0  0  0  0  0  0  0  0  0  0  0  0
   17.3737   21.3994    7.1773 H   0  0  0  0  0  0  0  0  0  0  0  0
   18.9209   21.7843    6.8507 H   0  0  0  0  0  0  0  0  0  0  0  0
   25.1069   21.0570    1.1878 S   0  0  0  0  0  0  0  0  0  0  0  0
   26.5112   20.4163    2.0994 C   0  0  0  0  0  0  0  0  0  0  0  0
   27.1089   19.2500    1.6178 C   0  0  0  0  0  0  0  0  0  0  0  0
   28.1950   18.7357    2.3001 C   0  0  0  0  0  0  0  0  0  0  0  0
   28.7246   19.3013    3.4045 N   0  0  0  0  0  0  0  0  0  0  0  0
   28.1548   20.4349    3.8621 C   0  0  0  0  0  0  0  0  0  0  0  0
   28.7166   20.9374    5.0211 N   0  0  0  0  0  0  0  0  0  0  0  0
   27.0412   21.0239    3.2464 C   0  0  0  0  0  0  0  0  0  0  0  0
   26.3776   22.4912    3.8971 Cl  0  0  0  0  0  0  0  0  0  0  0  0
   28.6722   21.9323    5.1860 H   0  0  0  0  0  0  0  0  0  0  0  0
   29.5172   20.4163    5.3518 H   0  0  0  0  0  0  0  0  0  0  0  0
   20.8047   21.6686    3.1078 H   0  0  0  0  0  0  0  0  0  0  0  0
   24.8222   19.2338    3.3614 H   0  0  0  0  0  0  0  0  0  0  0  0
   17.7332   18.9958    8.7821 H   0  0  0  0  0  0  0  0  0  0  0  0
   17.7289   17.8442    7.4680 H   0  0  0  0  0  0  0  0  0  0  0  0
   16.5815   19.1619    7.4786 H   0  0  0  0  0  0  0  0  0  0  0  0
   20.1022   18.2658    7.1682 H   0  0  0  0  0  0  0  0  0  0  0  0
   20.1877   19.6022    8.3318 H   0  0  0  0  0  0  0  0  0  0  0  0
   22.0305   19.5883    6.6695 H   0  0  0  0  0  0  0  0  0  0  0  0
   21.0770   21.0623    6.7036 H   0  0  0  0  0  0  0  0  0  0  0  0
   19.3010   19.9754    3.5737 H   0  0  0  0  0  0  0  0  0  0  0  0
   19.3291   21.3162    4.7088 H   0  0  0  0  0  0  0  0  0  0  0  0
   18.3704   18.5237    5.2222 H   0  0  0  0  0  0  0  0  0  0  0  0
   17.4242   20.0256    5.2050 H   0  0  0  0  0  0  0  0  0  0  0  0
   26.7478   18.7826    0.7715 H   0  0  0  0  0  0  0  0  0  0  0  0
   28.6262   17.8683    1.9440 H   0  0  0  0  0  0  0  0  0  0  0  0
  1  2  2  0
  2  3  1  0
  2 28  1  0
  3  4  2  0
  4 17  1  0
  4  5  1  0
  5  6  2  0
  5 29  1  0
  6  1  1  0
  7  8  1  0
  7 30  1  0
  7 31  1  0
  7 32  1  0
  8  9  1  0
  8 10  1  0
  9 15  1  0
  9 16  1  0
 10 11  1  0
 10 33  1  0
 10 34  1  0
 11 12  1  0
 11 35  1  0
 11 36  1  0
 12  1  1  0
 12 13  1  0
 13 14  1  0
 13 37  1  0
 13 38  1  0
 14  8  1  0
 14 39  1  0
 14 40  1  0
 17 18  1  0
 18 19  2  0
 19 20  1  0
 19 41  1  0
 20 21  2  0
 20 42  1  0
 21 22  1  0
 22 23  1  0
 22 24  2  0
 23 26  1  0
 23 27  1  0
 24 25  1  0
 24 18  1  0
M  END
>  <minimizedAffinity>  (7) 
-7.98748

>  <mol_id>  (7) 
95742

>  <source_index>  (7) 
6

>  <layer>  (7) 
L1

>  <uniprot>  (7) 
Q06124

>  <paff>  (7) 
8.0314999999999994

>  <smiles>  (7) 
CC1(N)CCN(c2cnc(Sc3ccnc(N)c3Cl)cn2)CC1

$$$$
L1:Q06124:118200
     RDKit          3D

 50 53  0  0  0  0  0  0  0  0999 V2000
   25.1882   22.2358    3.9699 O   0  0  0  0  0  0  0  0  0  0  0  0
   25.7819   21.3090    3.4614 C   0  0  0  0  0  0  0  0  0  0  0  0
   27.0731   20.8781    3.6834 N   0  0  0  0  0  0  0  0  0  0  0  0
   27.3689   19.7746    2.8881 C   0  0  0  0  0  0  0  0  0  0  0  0
   28.5566   19.0757    2.8368 C   0  0  0  0  0  0  0  0  0  0  0  0
   28.6262   17.9919    1.9522 C   0  0  0  0  0  0  0  0  0  0  0  0
   27.5153   17.6438    1.1473 C   0  0  0  0  0  0  0  0  0  0  0  0
   26.3112   18.3513    1.2170 C   0  0  0  0  0  0  0  0  0  0  0  0
   26.2786   19.4150    2.0946 C   0  0  0  0  0  0  0  0  0  0  0  0
   25.2112   20.3598    2.4004 C   0  0  0  0  0  0  0  0  0  0  0  0
   24.0373   20.3637    1.8551 N   0  0  0  0  0  0  0  0  0  0  0  0
   27.6955   21.3220    4.3427 H   0  0  0  0  0  0  0  0  0  0  0  0
   27.6478   16.2475    0.0553 S   0  0  0  0  0  0  0  0  0  0  0  0
   26.6583   16.4163   -0.9845 O   0  0  0  0  0  0  0  0  0  0  0  0
   29.0427   16.0192   -0.2426 O   0  0  0  0  0  0  0  0  0  0  0  0
   27.1036   15.0067    1.0336 N   0  0  0  0  0  0  0  0  0  0  0  0
   26.2656   15.2473    1.5611 H   0  0  0  0  0  0  0  0  0  0  0  0
   27.2162   13.6401    0.5339 C   0  0  0  0  0  0  0  0  0  0  0  0
   25.8466   13.0329    0.3465 C   0  0  0  0  0  0  0  0  0  0  0  0
   25.0961   13.2997   -0.8096 C   0  0  0  0  0  0  0  0  0  0  0  0
   23.8222   12.7503   -0.9646 C   0  0  0  0  0  0  0  0  0  0  0  0
   23.2966   11.9416    0.0359 C   0  0  0  0  0  0  0  0  0  0  0  0
   22.0734   11.4172   -0.1144 F   0  0  0  0  0  0  0  0  0  0  0  0
   24.0192   11.6723    1.1917 C   0  0  0  0  0  0  0  0  0  0  0  0
   25.2928   12.2201    1.3500 C   0  0  0  0  0  0  0  0  0  0  0  0
   23.1885   21.3322    2.2742 N   0  0  0  0  0  0  0  0  0  0  0  0
   23.3653   22.3257    2.0939 H   0  0  0  0  0  0  0  0  0  0  0  0
   22.0296   21.0016    2.9929 C   0  0  0  0  0  0  0  0  0  0  0  0
   20.7454   21.3239    2.5341 C   0  0  0  0  0  0  0  0  0  0  0  0
   19.6072   20.9857    3.2707 C   0  0  0  0  0  0  0  0  0  0  0  0
   19.7379   20.3167    4.4860 C   0  0  0  0  0  0  0  0  0  0  0  0
   21.0106   19.9867    4.9633 C   0  0  0  0  0  0  0  0  0  0  0  0
   22.1473   20.3299    4.2168 C   0  0  0  0  0  0  0  0  0  0  0  0
   21.2068   19.2766    6.2494 C   0  0  0  0  0  0  0  0  0  0  0  0
   20.4282   19.2641    7.1850 O   0  0  0  0  0  0  0  0  0  0  0  0
   22.3740   18.6106    6.3077 O   0  0  0  0  0  0  0  0  0  0  0  0
   22.3630   18.2010    7.1979 H   0  0  0  0  0  0  0  0  0  0  0  0
   29.3614   19.3404    3.4261 H   0  0  0  0  0  0  0  0  0  0  0  0
   29.4967   17.4414    1.8867 H   0  0  0  0  0  0  0  0  0  0  0  0
   25.4929   18.0922    0.6440 H   0  0  0  0  0  0  0  0  0  0  0  0
   27.7691   13.0524    1.2366 H   0  0  0  0  0  0  0  0  0  0  0  0
   27.7204   13.6563   -0.4097 H   0  0  0  0  0  0  0  0  0  0  0  0
   25.4879   13.9047   -1.5482 H   0  0  0  0  0  0  0  0  0  0  0  0
   23.2739   12.9436   -1.8173 H   0  0  0  0  0  0  0  0  0  0  0  0
   23.6168   11.0714    1.9279 H   0  0  0  0  0  0  0  0  0  0  0  0
   25.8311   12.0271    2.2091 H   0  0  0  0  0  0  0  0  0  0  0  0
   20.6383   21.8202    1.6356 H   0  0  0  0  0  0  0  0  0  0  0  0
   18.6702   21.2313    2.9148 H   0  0  0  0  0  0  0  0  0  0  0  0
   18.8988   20.0656    5.0319 H   0  0  0  0  0  0  0  0  0  0  0  0
   23.0838   20.0842    4.5741 H   0  0  0  0  0  0  0  0  0  0  0  0
  1  2  2  0
  2  3  1  0
  3  4  1  0
  3 12  1  0
  4  5  2  0
  5  6  1  0
  5 38  1  0
  6  7  2  0
  6 39  1  0
  7 13  1  0
  7  8  1  0
  8  9  2  0
  8 40  1  0
  9 10  1  0
  9  4  1  0
 10 11  2  0
 10  2  1  0
 11 26  1  0
 13 14  2  0
 13 15  2  0
 13 16  1  0
 16 18  1  0
 16 17  1  0
 18 19  1  0
 18 41  1  0
 18 42  1  0
 19 20  2  0
 20 21  1  0
 20 43  1  0
 21 22  2  0
 21 44  1  0
 22 23  1  0
 22 24  1  0
 24 25  2  0
 24 45  1  0
 25 19  1  0
 25 46  1  0
 26 28  1  0
 26 27  1  0
 28 29  2  0
 29 30  1  0
 29 47  1  0
 30 31  2  0
 30 48  1  0
 31 32  1  0
 31 49  1  0
 32 34  1  0
 32 33  2  0
 33 28  1  0
 33 50  1  0
 34 35  2  0
 34 36  1  0
 36 37  1  0
M  END
>  <minimizedAffinity>  (8) 
-9.75103

>  <mol_id>  (8) 
118200

>  <source_index>  (8) 
7

>  <layer>  (8) 
L1

>  <uniprot>  (8) 
Q06124

>  <paff>  (8) 
6

>  <smiles>  (8) 
OC(=O)c1cccc(N\N=C2/C(=O)Nc3ccc(cc23)S(=O)(=O)NCc2ccc(F)cc2)c1

$$$$
L1:Q06124:125082
     RDKit          3D

 56 60  0  0  0  0  0  0  0  0999 V2000
   29.8965   22.1258    2.6747 C   0  0  0  0  0  0  0  0  0  0  0  0
   29.2444   21.4196    1.7700 N   0  0  0  0  0  0  0  0  0  0  0  0
   27.9676   21.3150    2.2372 C   0  0  0  0  0  0  0  0  0  0  0  0
   26.9317   20.6815    1.6359 N   0  0  0  0  0  0  0  0  0  0  0  0
   25.7841   20.7482    2.3523 C   0  0  0  0  0  0  0  0  0  0  0  0
   25.6904   21.3978    3.5913 C   0  0  0  0  0  0  0  0  0  0  0  0
   26.7186   22.0373    4.2180 N   0  0  0  0  0  0  0  0  0  0  0  0
   27.8320   21.9508    3.4629 C   0  0  0  0  0  0  0  0  0  0  0  0
   29.0686   22.4540    3.7248 N   0  0  0  0  0  0  0  0  0  0  0  0
   29.3253   22.9507    4.5597 H   0  0  0  0  0  0  0  0  0  0  0  0
   34.9554   22.1495    3.0728 C   0  0  1  0  0  0  0  0  0  0  0  0
   35.9328   22.7816    4.0842 C   0  0  0  0  0  0  0  0  0  0  0  0
   36.0962   24.2410    3.6645 C   0  0  0  0  0  0  0  0  0  0  0  0
   35.0344   24.5086    2.5998 C   0  0  0  0  0  0  0  0  0  0  0  0
   34.0213   23.3496    2.7114 C   0  0  0  0  0  0  0  0  0  0  0  0
   33.0093   23.6628    3.8497 C   0  0  0  0  0  0  0  0  0  0  0  0
   31.8777   22.6391    3.9467 C   0  0  0  0  0  0  0  0  0  0  0  0
   31.2090   22.4829    2.6508 N   0  0  0  0  0  0  0  0  0  0  0  0
   32.0827   22.1883    1.5139 C   0  0  0  0  0  0  0  0  0  0  0  0
   33.2042   23.2232    1.4142 C   0  0  0  0  0  0  0  0  0  0  0  0
   35.3427   20.1737    1.5828 N   0  0  0  0  0  0  0  0  0  0  0  0
   35.7734   21.5277    1.9167 C   0  0  0  0  0  0  0  0  0  0  0  0
   35.5012   19.5646    2.3866 H   0  0  0  0  0  0  0  0  0  0  0  0
   35.9406   19.8090    0.8405 H   0  0  0  0  0  0  0  0  0  0  0  0
   24.3268   19.9491    1.6843 S   0  0  0  0  0  0  0  0  0  0  0  0
   23.2096   20.0011    3.0787 C   0  0  0  0  0  0  0  0  0  0  0  0
   23.4660   19.1368    4.1517 C   0  0  0  0  0  0  0  0  0  0  0  0
   22.6404   19.1403    5.2713 C   0  0  0  0  0  0  0  0  0  0  0  0
   21.5792   20.0223    5.2957 C   0  0  0  0  0  0  0  0  0  0  0  0
   21.3028   20.8826    4.2942 N   0  0  0  0  0  0  0  0  0  0  0  0
   22.1113   20.8671    3.1836 C   0  0  0  0  0  0  0  0  0  0  0  0
   21.7872   21.8468    2.0675 C   0  0  0  0  0  0  0  0  0  0  0  0
   21.1860   21.2643    0.9869 F   0  0  0  0  0  0  0  0  0  0  0  0
   22.8968   22.4747    1.5731 F   0  0  0  0  0  0  0  0  0  0  0  0
   20.9454   22.8571    2.4398 F   0  0  0  0  0  0  0  0  0  0  0  0
   24.7735   21.3914    4.0649 H   0  0  0  0  0  0  0  0  0  0  0  0
   34.3582   21.3298    3.4139 H   0  0  0  0  0  0  0  0  0  0  0  0
   36.8766   22.2785    4.0519 H   0  0  0  0  0  0  0  0  0  0  0  0
   35.5628   22.7030    5.0851 H   0  0  0  0  0  0  0  0  0  0  0  0
   37.0737   24.4019    3.2601 H   0  0  0  0  0  0  0  0  0  0  0  0
   35.9799   24.8989    4.5003 H   0  0  0  0  0  0  0  0  0  0  0  0
   35.4786   24.5221    1.6264 H   0  0  0  0  0  0  0  0  0  0  0  0
   34.5627   25.4579    2.7455 H   0  0  0  0  0  0  0  0  0  0  0  0
   32.5815   24.6268    3.6690 H   0  0  0  0  0  0  0  0  0  0  0  0
   33.5486   23.6297    4.7733 H   0  0  0  0  0  0  0  0  0  0  0  0
   31.1648   22.9710    4.6723 H   0  0  0  0  0  0  0  0  0  0  0  0
   32.2906   21.6957    4.2372 H   0  0  0  0  0  0  0  0  0  0  0  0
   31.5058   22.2072    0.6130 H   0  0  0  0  0  0  0  0  0  0  0  0
   32.5177   21.2209    1.6549 H   0  0  0  0  0  0  0  0  0  0  0  0
   32.7707   24.1754    1.1899 H   0  0  0  0  0  0  0  0  0  0  0  0
   33.8728   22.8980    0.6447 H   0  0  0  0  0  0  0  0  0  0  0  0
   35.6634   22.1449    1.0496 H   0  0  0  0  0  0  0  0  0  0  0  0
   36.7926   21.4714    2.2375 H   0  0  0  0  0  0  0  0  0  0  0  0
   24.2722   18.4938    4.1110 H   0  0  0  0  0  0  0  0  0  0  0  0
   22.8166   18.5009    6.0620 H   0  0  0  0  0  0  0  0  0  0  0  0
   20.9643   20.0237    6.1245 H   0  0  0  0  0  0  0  0  0  0  0  0
  1  2  2  0
  2  3  1  0
  3  4  2  0
  4  5  1  0
  5 25  1  0
  5  6  2  0
  6  7  1  0
  6 36  1  0
  7  8  2  0
  8  9  1  0
  8  3  1  0
  9  1  1  0
  9 10  1  0
 11 12  1  0
 11 37  1  1
 12 13  1  0
 12 38  1  0
 12 39  1  0
 13 14  1  0
 13 40  1  0
 13 41  1  0
 14 15  1  0
 14 42  1  0
 14 43  1  0
 15 16  1  0
 15 11  1  0
 16 17  1  0
 16 44  1  0
 16 45  1  0
 17 18  1  0
 17 46  1  0
 17 47  1  0
 18  1  1  0
 18 19  1  0
 19 20  1  0
 19 48  1  0
 19 49  1  0
 20 15  1  0
 20 50  1  0
 20 51  1  0
 21 22  1  0
 21 23  1  0
 21 24  1  0
 22 11  1  0
 22 52  1  0
 22 53  1  0
 25 26  1  0
 26 27  2  0
 27 28  1  0
 27 54  1  0
 28 29  2  0
 28 55  1  0
 29 30  1  0
 29 56  1  0
 30 31  2  0
 31 32  1  0
 31 26  1  0
 32 33  1  0
 32 34  1  0
 32 35  1  0
M  END
>  <minimizedAffinity>  (9) 
-7.94376

>  <mol_id>  (9) 
125082

>  <source_index>  (9) 
8

>  <layer>  (9) 
L1

>  <uniprot>  (9) 
Q06124

>  <paff>  (9) 
6.0209000000000001

>  <smiles>  (9) 
NCC1CCCC12CCN(c1nc3nc(Sc4cccnc4C(F)(F)F)cnc3[nH]1)CC2

$$$$
L1:Q06124:129145
     RDKit          3D

 56 60  0  0  0  0  0  0  0  0999 V2000
   26.8567   21.1942    2.2816 C   0  0  0  0  0  0  0  0  0  0  0  0
   27.7154   21.6526    3.2465 O   0  0  0  0  0  0  0  0  0  0  0  0
   28.9290   21.8399    2.6639 C   0  0  0  0  0  0  0  0  0  0  0  0
   30.0722   22.2959    3.3131 C   0  0  0  0  0  0  0  0  0  0  0  0
   31.2247   22.4251    2.5318 C   0  0  0  0  0  0  0  0  0  0  0  0
   32.3321   22.8765    3.2031 O   0  0  0  0  0  0  0  0  0  0  0  0
   31.2267   22.1112    1.1625 C   0  0  0  0  0  0  0  0  0  0  0  0
   30.0451   21.6528    0.5446 C   0  0  0  0  0  0  0  0  0  0  0  0
   28.8740   21.5137    1.3160 C   0  0  0  0  0  0  0  0  0  0  0  0
   27.5333   21.1020    1.0770 C   0  0  0  0  0  0  0  0  0  0  0  0
   33.0716   22.9294    2.5609 H   0  0  0  0  0  0  0  0  0  0  0  0
   22.8526   20.4186    3.6105 C   0  0  0  0  0  0  0  0  0  0  0  0
   23.9036   19.5894    4.0054 C   0  0  0  0  0  0  0  0  0  0  0  0
   25.2122   19.8371    3.5766 C   0  0  0  0  0  0  0  0  0  0  0  0
   25.4967   20.9239    2.7423 C   0  0  0  0  0  0  0  0  0  0  0  0
   24.4355   21.7578    2.3607 C   0  0  0  0  0  0  0  0  0  0  0  0
   23.1240   21.5097    2.7882 C   0  0  0  0  0  0  0  0  0  0  0  0
   21.6312   20.0664    4.1141 O   0  0  0  0  0  0  0  0  0  0  0  0
   21.0896   20.8595    5.1636 C   0  0  0  0  0  0  0  0  0  0  0  0
   20.9822   19.6733    7.2674 O   0  0  0  0  0  0  0  0  0  0  0  0
   20.3859   20.0704    6.2693 C   0  0  0  0  0  0  0  0  0  0  0  0
   19.0335   19.8942    6.0521 N   0  0  0  0  0  0  0  0  0  0  0  0
   18.6575   20.2104    5.1633 H   0  0  0  0  0  0  0  0  0  0  0  0
   18.1817   19.2189    6.9733 C   0  0  0  0  0  0  0  0  0  0  0  0
   17.5159   19.9745    8.0891 C   0  0  0  0  0  0  0  0  0  0  0  0
   16.6951   19.4455    6.9500 C   0  0  0  0  0  0  0  0  0  0  0  0
   32.4231   22.2314    0.2917 C   0  0  0  0  0  0  0  0  0  0  0  0
   33.5791   22.2855    0.6667 O   0  0  0  0  0  0  0  0  0  0  0  0
   32.1200   22.2794   -1.0217 O   0  0  0  0  0  0  0  0  0  0  0  0
   33.0040   22.3564   -1.4481 H   0  0  0  0  0  0  0  0  0  0  0  0
   26.9827   20.6968   -0.1745 C   0  0  0  0  0  0  0  0  0  0  0  0
   26.5153   20.3614   -1.2288 C   0  0  0  0  0  0  0  0  0  0  0  0
   25.9458   19.9698   -2.4803 C   0  0  0  0  0  0  0  0  0  0  0  0
   25.8966   20.8816   -3.5390 C   0  0  0  0  0  0  0  0  0  0  0  0
   25.3393   20.5049   -4.7626 C   0  0  0  0  0  0  0  0  0  0  0  0
   24.8305   19.2164   -4.9279 C   0  0  0  0  0  0  0  0  0  0  0  0
   24.8819   18.3104   -3.8688 C   0  0  0  0  0  0  0  0  0  0  0  0
   24.2525   16.7220   -4.0756 Cl  0  0  0  0  0  0  0  0  0  0  0  0
   25.4373   18.6798   -2.6445 C   0  0  0  0  0  0  0  0  0  0  0  0
   30.0696   22.5267    4.3189 H   0  0  0  0  0  0  0  0  0  0  0  0
   30.0380   21.4218   -0.4612 H   0  0  0  0  0  0  0  0  0  0  0  0
   23.7131   18.7836    4.6213 H   0  0  0  0  0  0  0  0  0  0  0  0
   25.9755   19.2118    3.8788 H   0  0  0  0  0  0  0  0  0  0  0  0
   24.6241   22.5703    1.7530 H   0  0  0  0  0  0  0  0  0  0  0  0
   22.3586   22.1360    2.4935 H   0  0  0  0  0  0  0  0  0  0  0  0
   21.8896   21.4137    5.6083 H   0  0  0  0  0  0  0  0  0  0  0  0
   20.3422   21.4805    4.7156 H   0  0  0  0  0  0  0  0  0  0  0  0
   18.8168   18.3600    6.9121 H   0  0  0  0  0  0  0  0  0  0  0  0
   17.6739   21.0279    8.1904 H   0  0  0  0  0  0  0  0  0  0  0  0
   17.4829   19.8767    9.1541 H   0  0  0  0  0  0  0  0  0  0  0  0
   16.2682   20.1217    6.2391 H   0  0  0  0  0  0  0  0  0  0  0  0
   15.8350   18.8145    6.8665 H   0  0  0  0  0  0  0  0  0  0  0  0
   26.2728   21.8347   -3.4159 H   0  0  0  0  0  0  0  0  0  0  0  0
   25.3038   21.1786   -5.5435 H   0  0  0  0  0  0  0  0  0  0  0  0
   24.4175   18.9347   -5.8307 H   0  0  0  0  0  0  0  0  0  0  0  0
   25.4723   18.0044   -1.8650 H   0  0  0  0  0  0  0  0  0  0  0  0
  1  2  1  0
  2  3  1  0
  3  4  2  0
  4  5  1  0
  4 40  1  0
  5  6  1  0
  5  7  2  0
  6 11  1  0
  7 27  1  0
  7  8  1  0
  8  9  2  0
  8 41  1  0
  9 10  1  0
  9  3  1  0
 10 31  1  0
 10  1  2  0
 12 13  2  0
 13 14  1  0
 13 42  1  0
 14 15  2  0
 14 43  1  0
 15  1  1  0
 15 16  1  0
 16 17  2  0
 16 44  1  0
 17 12  1  0
 17 45  1  0
 18 12  1  0
 19 18  1  0
 19 46  1  0
 19 47  1  0
 20 21  2  0
 21 19  1  0
 21 22  1  0
 22 24  1  0
 22 23  1  0
 24 25  1  0
 24 48  1  0
 25 26  1  0
 25 49  1  0
 25 50  1  0
 26 24  1  0
 26 51  1  0
 26 52  1  0
 27 28  2  0
 27 29  1  0
 29 30  1  0
 31 32  3  0
 32 33  1  0
 33 34  2  0
 34 35  1  0
 34 53  1  0
 35 36  2  0
 35 54  1  0
 36 37  1  0
 36 55  1  0
 37 38  1  0
 37 39  2  0
 39 33  1  0
 39 56  1  0
M  END
>  <minimizedAffinity>  (10) 
-9.06223

>  <mol_id>  (10) 
129145

>  <source_index>  (10) 
9

>  <layer>  (10) 
L1

>  <uniprot>  (10) 
Q06124

>  <paff>  (10) 
6.1675000000000004

>  <smiles>  (10) 
c1cc(cc(c1)Cl)C#Cc2c3cc(c(cc3oc2c4ccc(cc4)OCC(=O)NC5CC5)O)C(=O)O

$$$$
