L3:A0A1D8PKB4:10448
 OpenBabel09212617463D

 35 38  0  0  0  0  0  0  0  0999 V2000
   22.3665  -20.7643  -16.6364 C   0  0  0  0  0  0  0  0  0  0  0  0
   23.6739  -21.0487  -16.0547 C   0  0  0  0  0  0  0  0  0  0  0  0
   24.2730  -20.1888  -15.2094 C   0  0  0  0  0  0  0  0  0  0  0  0
   23.6178  -18.9693  -14.8638 C   0  0  0  0  0  0  0  0  0  0  0  0
   23.9092  -17.8878  -14.0570 C   0  0  0  0  0  0  0  0  0  0  0  0
   22.8031  -16.9988  -14.2151 C   0  0  0  0  0  0  0  0  0  0  0  0
   21.8961  -17.5071  -15.0632 N   0  0  0  0  0  0  0  0  0  0  0  0
   22.3789  -18.7086  -15.4471 N   0  0  0  0  0  0  0  0  0  0  0  0
   21.7636  -19.6052  -16.3199 C   0  0  0  0  0  0  0  0  0  0  0  0
   22.5783  -15.6866  -13.5997 C   0  0  0  0  0  0  0  0  0  0  0  0
   21.3489  -15.4070  -12.9790 C   0  0  0  0  0  0  0  0  0  0  0  0
   21.1143  -14.1608  -12.3930 C   0  0  0  0  0  0  0  0  0  0  0  0
   22.1109  -13.1939  -12.4214 C   0  0  0  0  0  0  0  0  0  0  0  0
   21.8875  -11.9985  -11.8608 F   0  0  0  0  0  0  0  0  0  0  0  0
   23.3385  -13.4510  -13.0194 C   0  0  0  0  0  0  0  0  0  0  0  0
   23.5747  -14.6981  -13.6050 C   0  0  0  0  0  0  0  0  0  0  0  0
   25.1409  -17.7500  -13.3039 C   0  0  0  0  0  0  0  0  0  0  0  0
   26.3750  -17.7611  -13.9549 C   0  0  0  0  0  0  0  0  0  0  0  0
   27.5199  -17.6397  -13.1866 C   0  0  0  0  0  0  0  0  0  0  0  0
   27.5106  -17.5118  -11.8431 N   0  0  0  0  0  0  0  0  0  0  0  0
   26.3037  -17.5063  -11.2375 C   0  0  0  0  0  0  0  0  0  0  0  0
   25.1028  -17.6218  -11.9157 C   0  0  0  0  0  0  0  0  0  0  0  0
   21.2666  -22.4573  -18.2486 N   0  0  0  0  0  0  0  0  0  0  0  0
   21.7628  -21.6995  -17.5239 C   0  0  0  0  0  0  0  0  0  0  0  0
   24.1514  -21.9309  -16.2972 H   0  0  0  0  0  0  0  0  0  0  0  0
   25.2001  -20.4103  -14.8140 H   0  0  0  0  0  0  0  0  0  0  0  0
   20.8418  -19.3781  -16.7245 H   0  0  0  0  0  0  0  0  0  0  0  0
   20.6122  -16.1293  -12.9559 H   0  0  0  0  0  0  0  0  0  0  0  0
   20.2077  -13.9602  -11.9426 H   0  0  0  0  0  0  0  0  0  0  0  0
   24.0720  -12.7251  -13.0311 H   0  0  0  0  0  0  0  0  0  0  0  0
   24.4879  -14.8933  -14.0442 H   0  0  0  0  0  0  0  0  0  0  0  0
   26.4325  -17.8572  -14.9808 H   0  0  0  0  0  0  0  0  0  0  0  0
   28.4325  -17.6474  -13.6685 H   0  0  0  0  0  0  0  0  0  0  0  0
   26.2752  -17.4105  -10.2104 H   0  0  0  0  0  0  0  0  0  0  0  0
   24.2042  -17.6133  -11.4083 H   0  0  0  0  0  0  0  0  0  0  0  0
  1  2  1  0  0  0  0
  2  3  2  0  0  0  0
  2 25  1  0  0  0  0
  3  4  1  0  0  0  0
  3 26  1  0  0  0  0
  4  5  2  0  0  0  0
  5 17  1  0  0  0  0
  5  6  1  0  0  0  0
  6 10  1  0  0  0  0
  6  7  2  0  0  0  0
  7  8  1  0  0  0  0
  8  9  1  0  0  0  0
  8  4  1  0  0  0  0
  9  1  2  0  0  0  0
  9 27  1  0  0  0  0
 10 11  2  0  0  0  0
 11 12  1  0  0  0  0
 11 28  1  0  0  0  0
 12 13  2  0  0  0  0
 12 29  1  0  0  0  0
 13 14  1  0  0  0  0
 13 15  1  0  0  0  0
 15 16  2  0  0  0  0
 15 30  1  0  0  0  0
 16 10  1  0  0  0  0
 16 31  1  0  0  0  0
 17 18  2  0  0  0  0
 18 19  1  0  0  0  0
 18 32  1  0  0  0  0
 19 20  2  0  0  0  0
 19 33  1  0  0  0  0
 20 21  1  0  0  0  0
 21 22  2  0  0  0  0
 21 34  1  0  0  0  0
 22 17  1  0  0  0  0
 22 35  1  0  0  0  0
 23 24  3  0  0  0  0
 24  1  1  0  0  0  0
M  END
>  <minimizedAffinity>
-9.73044

$$$$
