L3:A0A1D8PKB4:10448
     RDKit          3D

 35 38  0  0  0  0  0  0  0  0999 V2000
   -6.2264    2.1881    2.4294 N   0  0  0  0  0  0  0  0  0  0  0  0
   -5.2554    1.7410    1.9789 C   0  0  0  0  0  0  0  0  0  0  0  0
   -4.0678    1.1866    1.4231 C   0  0  0  0  0  0  0  0  0  0  0  0
   -4.1416   -0.0024    0.5810 C   0  0  0  0  0  0  0  0  0  0  0  0
   -3.0389   -0.5553    0.0414 C   0  0  0  0  0  0  0  0  0  0  0  0
   -1.7615    0.0260    0.2989 C   0  0  0  0  0  0  0  0  0  0  0  0
   -0.4595   -0.2544   -0.0638 C   0  0  0  0  0  0  0  0  0  0  0  0
   -0.0809   -1.3534   -0.9310 C   0  0  0  0  0  0  0  0  0  0  0  0
   -0.2962   -2.6744   -0.5366 C   0  0  0  0  0  0  0  0  0  0  0  0
    0.0965   -3.6852   -1.3967 C   0  0  0  0  0  0  0  0  0  0  0  0
    0.6767   -3.4658   -2.5954 N   0  0  0  0  0  0  0  0  0  0  0  0
    0.8759   -2.1788   -2.9521 C   0  0  0  0  0  0  0  0  0  0  0  0
    0.5194   -1.0985   -2.1638 C   0  0  0  0  0  0  0  0  0  0  0  0
    0.3225    0.7807    0.5329 C   0  0  0  0  0  0  0  0  0  0  0  0
    1.7726    0.9924    0.4738 C   0  0  0  0  0  0  0  0  0  0  0  0
    2.2853    2.2977    0.3819 C   0  0  0  0  0  0  0  0  0  0  0  0
    3.6632    2.5186    0.3184 C   0  0  0  0  0  0  0  0  0  0  0  0
    4.5312    1.4350    0.3526 C   0  0  0  0  0  0  0  0  0  0  0  0
    5.8524    1.6449    0.2910 F   0  0  0  0  0  0  0  0  0  0  0  0
    4.0483    0.1361    0.4544 C   0  0  0  0  0  0  0  0  0  0  0  0
    2.6698   -0.0860    0.5193 C   0  0  0  0  0  0  0  0  0  0  0  0
   -0.4538    1.6359    1.2157 N   0  0  0  0  0  0  0  0  0  0  0  0
   -1.7164    1.1734    1.0891 N   0  0  0  0  0  0  0  0  0  0  0  0
   -2.8627    1.7389    1.6465 C   0  0  0  0  0  0  0  0  0  0  0  0
   -5.1202   -0.4363    0.3875 H   0  0  0  0  0  0  0  0  0  0  0  0
   -3.1152   -1.4342   -0.5927 H   0  0  0  0  0  0  0  0  0  0  0  0
   -0.7491   -2.9177    0.4184 H   0  0  0  0  0  0  0  0  0  0  0  0
   -0.0465   -4.7302   -1.1364 H   0  0  0  0  0  0  0  0  0  0  0  0
    1.3462   -2.0340   -3.9208 H   0  0  0  0  0  0  0  0  0  0  0  0
    0.7072   -0.0874   -2.5095 H   0  0  0  0  0  0  0  0  0  0  0  0
    1.6087    3.1503    0.3609 H   0  0  0  0  0  0  0  0  0  0  0  0
    4.0601    3.5260    0.2466 H   0  0  0  0  0  0  0  0  0  0  0  0
    4.7456   -0.6950    0.4887 H   0  0  0  0  0  0  0  0  0  0  0  0
    2.3125   -1.1077    0.6198 H   0  0  0  0  0  0  0  0  0  0  0  0
   -2.7024    2.6249    2.2486 H   0  0  0  0  0  0  0  0  0  0  0  0
  1  2  3  0
  2  3  1  0
  3  4  1  0
  4  5  2  0
  5  6  1  0
  6  7  2  0
  7  8  1  0
  8  9  2  0
  9 10  1  0
 10 11  2  0
 11 12  1  0
 12 13  2  0
  7 14  1  0
 14 15  1  0
 15 16  2  0
 16 17  1  0
 17 18  2  0
 18 19  1  0
 18 20  1  0
 20 21  2  0
 14 22  2  0
 22 23  1  0
 23 24  1  0
 24  3  2  0
 23  6  1  0
 13  8  1  0
 21 15  1  0
  4 25  1  0
  5 26  1  0
  9 27  1  0
 10 28  1  0
 12 29  1  0
 13 30  1  0
 16 31  1  0
 17 32  1  0
 20 33  1  0
 21 34  1  0
 24 35  1  0
M  END
>  <mol_id>  (1) 
10448

>  <source_index>  (1) 
2

>  <layer>  (1) 
L3

>  <uniprot>  (1) 
A0A1D8PKB4

>  <paff>  (1) 
7.1078999999999999

>  <smiles>  (1) 
c1cc(ccc1c2c(c3ccc(cn3n2)C#N)c4ccncc4)F

$$$$
