L3:A0A1D8PKB4:121070
     RDKit          3D

 33 36  0  0  0  0  0  0  0  0999 V2000
    4.2058    0.0431   -1.6315 C   0  0  0  0  0  0  0  0  0  0  0  0
    2.8926    0.3352   -1.9756 C   0  0  0  0  0  0  0  0  0  0  0  0
    1.8644    0.0260   -1.0865 C   0  0  0  0  0  0  0  0  0  0  0  0
    2.1857   -0.5726    0.1244 C   0  0  0  0  0  0  0  0  0  0  0  0
    1.2117   -0.9425    1.1453 C   0  0  0  0  0  0  0  0  0  0  0  0
    1.6480   -1.3152    2.3958 N   0  0  0  0  0  0  0  0  0  0  0  0
    0.6709   -1.6140    3.2693 N   0  0  0  0  0  0  0  0  0  0  0  0
   -0.4390   -1.4586    2.5483 C   0  0  0  0  0  0  0  0  0  0  0  0
   -0.1697   -1.0430    1.2240 C   0  0  0  0  0  0  0  0  0  0  0  0
   -1.1140   -0.8035    0.1514 C   0  0  0  0  0  0  0  0  0  0  0  0
   -1.3365   -1.8332   -0.7632 C   0  0  0  0  0  0  0  0  0  0  0  0
   -2.2359   -1.6092   -1.7822 C   0  0  0  0  0  0  0  0  0  0  0  0
   -2.9114   -0.4534   -1.9434 N   0  0  0  0  0  0  0  0  0  0  0  0
   -2.7065    0.5376   -1.0587 C   0  0  0  0  0  0  0  0  0  0  0  0
   -3.4074    1.7245   -1.2261 C   0  0  0  0  0  0  0  0  0  0  0  0
   -3.2500    2.8066   -0.3572 C   0  0  0  0  0  0  0  0  0  0  0  0
   -2.3690    2.7086    0.7097 C   0  0  0  0  0  0  0  0  0  0  0  0
   -1.6527    1.5285    0.9014 C   0  0  0  0  0  0  0  0  0  0  0  0
   -1.8095    0.4244    0.0255 C   0  0  0  0  0  0  0  0  0  0  0  0
    3.4650   -0.8560    0.4816 N   0  0  0  0  0  0  0  0  0  0  0  0
    4.4400   -0.5462   -0.4022 C   0  0  0  0  0  0  0  0  0  0  0  0
    5.0257    0.2723   -2.3029 H   0  0  0  0  0  0  0  0  0  0  0  0
    2.6656    0.8046   -2.9291 H   0  0  0  0  0  0  0  0  0  0  0  0
    0.8450    0.2700   -1.3563 H   0  0  0  0  0  0  0  0  0  0  0  0
    2.6178   -1.3748    2.6903 H   0  0  0  0  0  0  0  0  0  0  0  0
   -1.3985   -1.6551    3.0101 H   0  0  0  0  0  0  0  0  0  0  0  0
   -0.8221   -2.7855   -0.6852 H   0  0  0  0  0  0  0  0  0  0  0  0
   -2.4471   -2.3757   -2.5226 H   0  0  0  0  0  0  0  0  0  0  0  0
   -4.0996    1.8094   -2.0611 H   0  0  0  0  0  0  0  0  0  0  0  0
   -3.8167    3.7198   -0.5193 H   0  0  0  0  0  0  0  0  0  0  0  0
   -2.2375    3.5445    1.3920 H   0  0  0  0  0  0  0  0  0  0  0  0
   -0.9647    1.4756    1.7432 H   0  0  0  0  0  0  0  0  0  0  0  0
    5.4494   -0.7924   -0.0845 H   0  0  0  0  0  0  0  0  0  0  0  0
  1  2  2  0
  2  3  1  0
  3  4  2  0
  4  5  1  0
  5  6  1  0
  6  7  1  0
  7  8  2  0
  8  9  1  0
  9 10  1  0
 10 11  2  0
 11 12  1  0
 12 13  2  0
 13 14  1  0
 14 15  2  0
 15 16  1  0
 16 17  2  0
 17 18  1  0
 18 19  2  0
  4 20  1  0
 20 21  2  0
 21  1  1  0
  9  5  2  0
 19 10  1  0
 19 14  1  0
  1 22  1  0
  2 23  1  0
  3 24  1  0
  6 25  1  0
  8 26  1  0
 11 27  1  0
 12 28  1  0
 15 29  1  0
 16 30  1  0
 17 31  1  0
 18 32  1  0
 21 33  1  0
M  END
>  <mol_id>  (1) 
121070

>  <source_index>  (1) 
8

>  <layer>  (1) 
L3

>  <uniprot>  (1) 
A0A1D8PKB4

>  <paff>  (1) 
6.8239000000000001

>  <smiles>  (1) 
c1ccc(-c2[nH]ncc2-c2ccnc3ccccc23)nc1

$$$$
