L3:A0A1D8PKB4:121070


 22 25  0  0  0  0  0  0  0  0999 V2000
   23.9861  -17.6880  -14.2096 C   0  0  0  0  0  0  0  0  0  0  0  0
   24.4298  -18.3752  -15.3160 N   0  0  0  0  0  0  0  0  0  0  0  0
   23.5594  -18.4211  -16.3393 N   0  0  0  0  0  0  0  0  0  0  0  0
   22.5250  -17.7109  -15.8903 C   0  0  0  0  0  0  0  0  0  0  0  0
   22.7289  -17.2301  -14.5764 C   0  0  0  0  0  0  0  0  0  0  0  0
   25.3321  -18.8320  -15.4057 H   0  0  0  0  0  0  0  0  0  0  0  0
   21.8457  -16.4040  -13.7783 C   0  0  0  0  0  0  0  0  0  0  0  0
   20.6119  -16.9386  -13.4068 C   0  0  0  0  0  0  0  0  0  0  0  0
   19.7715  -16.1564  -12.6456 C   0  0  0  0  0  0  0  0  0  0  0  0
   20.0751  -14.9066  -12.2406 N   0  0  0  0  0  0  0  0  0  0  0  0
   21.2669  -14.3917  -12.5889 C   0  0  0  0  0  0  0  0  0  0  0  0
   21.5771  -13.1060  -12.1660 C   0  0  0  0  0  0  0  0  0  0  0  0
   22.7898  -12.4927  -12.4882 C   0  0  0  0  0  0  0  0  0  0  0  0
   23.7228  -13.1754  -13.2546 C   0  0  0  0  0  0  0  0  0  0  0  0
   23.4374  -14.4675  -13.6922 C   0  0  0  0  0  0  0  0  0  0  0  0
   22.2098  -15.0981  -13.3665 C   0  0  0  0  0  0  0  0  0  0  0  0
   26.6493  -17.4736  -10.9681 C   0  0  0  0  0  0  0  0  0  0  0  0
   25.2963  -17.3205  -10.6959 C   0  0  0  0  0  0  0  0  0  0  0  0
   24.3742  -17.3834  -11.7395 C   0  0  0  0  0  0  0  0  0  0  0  0
   24.8396  -17.5953  -13.0304 C   0  0  0  0  0  0  0  0  0  0  0  0
   26.1580  -17.7574  -13.3134 N   0  0  0  0  0  0  0  0  0  0  0  0
   27.0280  -17.6894  -12.2809 C   0  0  0  0  0  0  0  0  0  0  0  0
 17 18  2  0  0  0
 18 19  1  0  0  0
 19 20  2  0  0  0
 20  1  1  0  0  0
  1  2  1  0  0  0
  2  3  1  0  0  0
  3  4  2  0  0  0
  4  5  1  0  0  0
  5  7  1  0  0  0
  7  8  2  0  0  0
  8  9  1  0  0  0
  9 10  2  0  0  0
 10 11  1  0  0  0
 11 12  2  0  0  0
 12 13  1  0  0  0
 13 14  2  0  0  0
 14 15  1  0  0  0
 15 16  2  0  0  0
 20 21  1  0  0  0
 21 22  2  0  0  0
 22 17  1  0  0  0
  5  1  2  0  0  0
 16  7  1  0  0  0
 16 11  1  0  0  0
  2  6  1  0  0  0
M  END
> <minimizedAffinity>
-8.66517

$$$$
