L3:A0A1D8PKB4:127503


 35 39  0  0  0  0  0  0  0  0999 V2000
   22.1842  -17.1383  -14.1434 C   0  0  0  0  0  0  0  0  0  0  0  0
   22.0190  -18.1888  -15.0668 C   0  0  0  0  0  0  0  0  0  0  0  0
   20.9137  -18.2465  -15.9124 C   0  0  0  0  0  0  0  0  0  0  0  0
   19.9820  -17.2302  -15.8026 C   0  0  0  0  0  0  0  0  0  0  0  0
   20.0864  -16.1984  -14.9329 N   0  0  0  0  0  0  0  0  0  0  0  0
   21.1849  -16.1500  -14.1294 C   0  0  0  0  0  0  0  0  0  0  0  0
   27.7859  -18.5637  -14.1337 C   0  0  0  0  0  0  0  0  0  0  0  0
   27.0727  -18.0342  -12.9462 C   0  0  0  0  0  0  0  0  0  0  0  0
   27.7217  -17.8589  -11.7879 N   0  0  0  0  0  0  0  0  0  0  0  0
   26.7796  -17.3719  -10.9629 N   0  0  0  0  0  0  0  0  0  0  0  0
   25.5458  -17.2317  -11.5386 C   0  0  0  0  0  0  0  0  0  0  0  0
   24.3292  -16.7748  -11.0283 C   0  0  0  0  0  0  0  0  0  0  0  0
   23.2382  -16.7562  -11.9067 C   0  0  0  0  0  0  0  0  0  0  0  0
   23.3510  -17.1682  -13.2458 C   0  0  0  0  0  0  0  0  0  0  0  0
   24.5968  -17.6314  -13.7170 C   0  0  0  0  0  0  0  0  0  0  0  0
   25.7054  -17.6588  -12.8500 C   0  0  0  0  0  0  0  0  0  0  0  0
   27.0442  -17.1533  -10.0095 H   0  0  0  0  0  0  0  0  0  0  0  0
   21.1941  -14.9779  -13.2642 C   0  0  0  0  0  0  0  0  0  0  0  0
   22.1606  -13.9335  -13.1872 C   0  0  0  0  0  0  0  0  0  0  0  0
   21.7483  -13.0893  -12.1842 C   0  0  0  0  0  0  0  0  0  0  0  0
   20.6065  -13.5531  -11.6165 O   0  0  0  0  0  0  0  0  0  0  0  0
   20.2868  -14.7076  -12.2599 C   0  0  0  0  0  0  0  0  0  0  0  0
   20.8744  -19.3170  -16.7556 O   0  0  0  0  0  0  0  0  0  0  0  0
   20.8272  -20.6157  -16.1518 C   0  0  0  0  0  0  0  0  0  0  0  0
   21.7271  -21.5914  -16.9440 C   0  0  0  0  0  0  0  0  0  0  0  0
   21.0118  -22.0679  -18.1445 N   0  0  0  0  0  0  0  0  0  0  0  0
   21.6436  -22.6507  -18.6967 H   0  0  0  0  0  0  0  0  0  0  0  0
   20.7892  -21.2625  -18.7316 H   0  0  0  0  0  0  0  0  0  0  0  0
   23.0754  -20.9227  -17.3023 C   0  0  0  0  0  0  0  0  0  0  0  0
   24.2657  -21.5381  -16.6009 C   0  0  0  0  0  0  0  0  0  0  0  0
   24.8485  -20.9031  -15.4954 C   0  0  0  0  0  0  0  0  0  0  0  0
   25.9403  -21.4783  -14.8435 C   0  0  0  0  0  0  0  0  0  0  0  0
   26.4609  -22.6913  -15.2900 C   0  0  0  0  0  0  0  0  0  0  0  0
   25.8913  -23.3297  -16.3898 C   0  0  0  0  0  0  0  0  0  0  0  0
   24.7994  -22.7565  -17.0433 C   0  0  0  0  0  0  0  0  0  0  0  0
  7  8  1  0  0  0
  8  9  2  0  0  0
  9 10  1  0  0  0
 10 11  1  0  0  0
 11 12  2  0  0  0
 12 13  1  0  0  0
 13 14  2  0  0  0
 14  1  1  0  0  0
  1  2  2  0  0  0
  2  3  1  0  0  0
  3 23  1  0  0  0
 23 24  1  0  0  0
 24 25  1  0  0  0
 25 26  1  0  0  0
 25 29  1  0  0  0
 29 30  1  0  0  0
 30 31  2  0  0  0
 31 32  1  0  0  0
 32 33  2  0  0  0
 33 34  1  0  0  0
 34 35  2  0  0  0
  3  4  2  0  0  0
  4  5  1  0  0  0
  5  6  2  0  0  0
  6 18  1  0  0  0
 18 19  1  0  0  0
 19 20  2  0  0  0
 20 21  1  0  0  0
 21 22  1  0  0  0
 14 15  1  0  0  0
 15 16  2  0  0  0
 16  8  1  0  0  0
 16 11  1  0  0  0
  6  1  1  0  0  0
 22 18  2  0  0  0
 35 30  1  0  0  0
 10 17  1  0  0  0
 26 27  1  0  0  0
 26 28  1  0  0  0
M  END
> <minimizedAffinity>
-9.78738

$$$$
