L3:A0A1D8PKB4:127503
     RDKit          3D

 56 60  0  0  0  0  0  0  0  0999 V2000
   -4.8640   -0.8230   -4.0120 C   0  0  0  0  0  0  0  0  0  0  0  0
   -5.1245    0.2411   -3.0125 C   0  0  0  0  0  0  0  0  0  0  0  0
   -6.0753    1.1586   -3.2312 N   0  0  0  0  0  0  0  0  0  0  0  0
   -6.0286    1.9361   -2.1363 N   0  0  0  0  0  0  0  0  0  0  0  0
   -5.0813    1.5629   -1.2215 C   0  0  0  0  0  0  0  0  0  0  0  0
   -4.7207    2.1022    0.0147 C   0  0  0  0  0  0  0  0  0  0  0  0
   -3.6891    1.4602    0.7118 C   0  0  0  0  0  0  0  0  0  0  0  0
   -3.0434    0.3192    0.2052 C   0  0  0  0  0  0  0  0  0  0  0  0
   -1.9609   -0.3315    0.9620 C   0  0  0  0  0  0  0  0  0  0  0  0
   -0.6547   -0.2913    0.4368 C   0  0  0  0  0  0  0  0  0  0  0  0
    0.4226   -0.8458    1.1237 C   0  0  0  0  0  0  0  0  0  0  0  0
    1.6327   -0.7362    0.5055 O   0  0  0  0  0  0  0  0  0  0  0  0
    2.7656   -1.2732    1.1995 C   0  0  0  0  0  0  0  0  0  0  0  0
    4.0425   -1.0609    0.3547 C   0  0  1  0  0  0  0  0  0  0  0  0
    3.9733   -1.8820   -0.8704 N   0  0  0  0  0  0  0  0  0  0  0  0
    4.2425    0.4394    0.0341 C   0  0  0  0  0  0  0  0  0  0  0  0
    5.5695    0.7503   -0.6216 C   0  0  0  0  0  0  0  0  0  0  0  0
    6.7605    0.6887    0.1150 C   0  0  0  0  0  0  0  0  0  0  0  0
    7.9848    0.9659   -0.4950 C   0  0  0  0  0  0  0  0  0  0  0  0
    8.0310    1.3084   -1.8449 C   0  0  0  0  0  0  0  0  0  0  0  0
    6.8530    1.3756   -2.5860 C   0  0  0  0  0  0  0  0  0  0  0  0
    5.6275    1.0987   -1.9782 C   0  0  0  0  0  0  0  0  0  0  0  0
    0.1555   -1.4332    2.3471 C   0  0  0  0  0  0  0  0  0  0  0  0
   -1.0772   -1.4986    2.9022 N   0  0  0  0  0  0  0  0  0  0  0  0
   -2.1199   -0.9685    2.2048 C   0  0  0  0  0  0  0  0  0  0  0  0
   -3.3935   -1.1303    2.8934 C   0  0  0  0  0  0  0  0  0  0  0  0
   -3.6634   -1.0865    4.2920 C   0  0  0  0  0  0  0  0  0  0  0  0
   -5.0044   -1.3466    4.4421 C   0  0  0  0  0  0  0  0  0  0  0  0
   -5.5790   -1.5748    3.2343 O   0  0  0  0  0  0  0  0  0  0  0  0
   -4.5953   -1.4634    2.3021 C   0  0  0  0  0  0  0  0  0  0  0  0
   -3.4332   -0.1866   -1.0521 C   0  0  0  0  0  0  0  0  0  0  0  0
   -4.4672    0.4446   -1.7690 C   0  0  0  0  0  0  0  0  0  0  0  0
   -5.5253   -0.7325   -4.8800 H   0  0  0  0  0  0  0  0  0  0  0  0
   -3.8302   -0.7669   -4.3674 H   0  0  0  0  0  0  0  0  0  0  0  0
   -5.0233   -1.8105   -3.5672 H   0  0  0  0  0  0  0  0  0  0  0  0
   -6.6753    2.7135   -2.0729 H   0  0  0  0  0  0  0  0  0  0  0  0
   -5.2128    2.9776    0.4255 H   0  0  0  0  0  0  0  0  0  0  0  0
   -3.3900    1.8661    1.6782 H   0  0  0  0  0  0  0  0  0  0  0  0
   -0.4712    0.1962   -0.5194 H   0  0  0  0  0  0  0  0  0  0  0  0
    2.8875   -0.7577    2.1605 H   0  0  0  0  0  0  0  0  0  0  0  0
    2.6235   -2.3464    1.3808 H   0  0  0  0  0  0  0  0  0  0  0  0
    4.8927   -1.4281    0.9419 H   0  0  0  0  0  0  0  0  0  0  0  0
    4.7860   -1.6751   -1.4539 H   0  0  0  0  0  0  0  0  0  0  0  0
    3.1583   -1.5899   -1.4121 H   0  0  0  0  0  0  0  0  0  0  0  0
    4.1797    1.0255    0.9607 H   0  0  0  0  0  0  0  0  0  0  0  0
    3.4263    0.8054   -0.6027 H   0  0  0  0  0  0  0  0  0  0  0  0
    6.7433    0.4249    1.1699 H   0  0  0  0  0  0  0  0  0  0  0  0
    8.9036    0.9152    0.0835 H   0  0  0  0  0  0  0  0  0  0  0  0
    8.9848    1.5247   -2.3188 H   0  0  0  0  0  0  0  0  0  0  0  0
    6.8885    1.6451   -3.6384 H   0  0  0  0  0  0  0  0  0  0  0  0
    4.7179    1.1571   -2.5719 H   0  0  0  0  0  0  0  0  0  0  0  0
    0.9279   -1.8900    2.9561 H   0  0  0  0  0  0  0  0  0  0  0  0
   -2.9549   -0.8916    5.0848 H   0  0  0  0  0  0  0  0  0  0  0  0
   -5.6642   -1.4162    5.2954 H   0  0  0  0  0  0  0  0  0  0  0  0
   -4.9097   -1.6522    1.2850 H   0  0  0  0  0  0  0  0  0  0  0  0
   -2.9482   -1.0661   -1.4680 H   0  0  0  0  0  0  0  0  0  0  0  0
  1  2  1  0
  2  3  2  0
  3  4  1  0
  4  5  1  0
  5  6  2  0
  6  7  1  0
  7  8  2  0
  8  9  1  0
  9 10  2  0
 10 11  1  0
 11 12  1  0
 12 13  1  0
 13 14  1  0
 14 15  1  0
 14 16  1  0
 16 17  1  0
 17 18  2  0
 18 19  1  0
 19 20  2  0
 20 21  1  0
 21 22  2  0
 11 23  2  0
 23 24  1  0
 24 25  2  0
 25 26  1  0
 26 27  1  0
 27 28  2  0
 28 29  1  0
 29 30  1  0
  8 31  1  0
 31 32  2  0
 32  2  1  0
 32  5  1  0
 25  9  1  0
 30 26  2  0
 22 17  1  0
  1 33  1  0
  1 34  1  0
  1 35  1  0
  4 36  1  0
  6 37  1  0
  7 38  1  0
 10 39  1  0
 13 40  1  0
 13 41  1  0
 14 42  1  1
 15 43  1  0
 15 44  1  0
 16 45  1  0
 16 46  1  0
 18 47  1  0
 19 48  1  0
 20 49  1  0
 21 50  1  0
 22 51  1  0
 23 52  1  0
 27 53  1  0
 28 54  1  0
 30 55  1  0
 31 56  1  0
M  END
>  <mol_id>  (1) 
127503

>  <source_index>  (1) 
9

>  <layer>  (1) 
L3

>  <uniprot>  (1) 
A0A1D8PKB4

>  <paff>  (1) 
6.7958999999999996

>  <smiles>  (1) 
Cc1n[nH]c2ccc(-c3cc(OC[C@@H](N)Cc4ccccc4)cnc3-c3ccoc3)cc12

$$$$
