L3:A0A1D8PKB4:1740
 OpenBabel09212617463D

 37 40  0  0  0  0  0  0  0  0999 V2000
   21.8568  -21.8152  -17.6174 C   0  0  0  0  0  0  0  0  0  0  0  0
   22.4324  -20.7950  -16.6877 C   0  0  0  0  0  0  0  0  0  0  0  0
   23.7349  -21.0648  -16.0885 C   0  0  0  0  0  0  0  0  0  0  0  0
   24.3220  -20.1951  -15.2450 C   0  0  0  0  0  0  0  0  0  0  0  0
   23.6673  -18.9685  -14.9235 C   0  0  0  0  0  0  0  0  0  0  0  0
   23.9540  -17.8737  -14.1337 C   0  0  0  0  0  0  0  0  0  0  0  0
   22.8154  -17.0207  -14.2560 C   0  0  0  0  0  0  0  0  0  0  0  0
   21.8935  -17.5601  -15.0679 N   0  0  0  0  0  0  0  0  0  0  0  0
   22.4141  -18.7364  -15.4881 N   0  0  0  0  0  0  0  0  0  0  0  0
   21.8144  -19.6440  -16.3641 C   0  0  0  0  0  0  0  0  0  0  0  0
   22.5668  -15.7192  -13.6273 C   0  0  0  0  0  0  0  0  0  0  0  0
   21.3421  -15.4319  -13.0049 C   0  0  0  0  0  0  0  0  0  0  0  0
   21.1218  -14.1828  -12.4177 C   0  0  0  0  0  0  0  0  0  0  0  0
   22.1272  -13.2239  -12.4446 C   0  0  0  0  0  0  0  0  0  0  0  0
   21.9137  -12.0280  -11.8807 F   0  0  0  0  0  0  0  0  0  0  0  0
   23.3516  -13.4898  -13.0438 C   0  0  0  0  0  0  0  0  0  0  0  0
   23.5723  -14.7374  -13.6320 C   0  0  0  0  0  0  0  0  0  0  0  0
   25.1575  -17.7463  -13.3345 C   0  0  0  0  0  0  0  0  0  0  0  0
   26.4104  -17.7589  -13.9468 C   0  0  0  0  0  0  0  0  0  0  0  0
   27.5315  -17.6499  -13.1425 C   0  0  0  0  0  0  0  0  0  0  0  0
   27.4824  -17.5330  -11.7979 N   0  0  0  0  0  0  0  0  0  0  0  0
   26.2575  -17.5245  -11.2305 C   0  0  0  0  0  0  0  0  0  0  0  0
   25.0775  -17.6278  -11.9466 C   0  0  0  0  0  0  0  0  0  0  0  0
   22.5367  -22.6361  -17.7113 H   0  0  0  0  0  0  0  0  0  0  0  0
   21.6974  -21.3724  -18.5783 H   0  0  0  0  0  0  0  0  0  0  0  0
   20.9245  -22.1671  -17.2277 H   0  0  0  0  0  0  0  0  0  0  0  0
   24.2196  -21.9466  -16.3175 H   0  0  0  0  0  0  0  0  0  0  0  0
   25.2421  -20.4147  -14.8324 H   0  0  0  0  0  0  0  0  0  0  0  0
   20.8887  -19.4300  -16.7670 H   0  0  0  0  0  0  0  0  0  0  0  0
   20.5992  -16.1478  -12.9806 H   0  0  0  0  0  0  0  0  0  0  0  0
   20.2174  -13.9738  -11.9666 H   0  0  0  0  0  0  0  0  0  0  0  0
   24.0924  -12.7714  -13.0544 H   0  0  0  0  0  0  0  0  0  0  0  0
   24.4824  -14.9401  -14.0742 H   0  0  0  0  0  0  0  0  0  0  0  0
   26.4992  -17.8471  -14.9712 H   0  0  0  0  0  0  0  0  0  0  0  0
   28.4583  -17.6584  -13.5964 H   0  0  0  0  0  0  0  0  0  0  0  0
   26.1975  -17.4359  -10.2041 H   0  0  0  0  0  0  0  0  0  0  0  0
   24.1637  -17.6175  -11.4671 H   0  0  0  0  0  0  0  0  0  0  0  0
  1  2  1  0  0  0  0
  1 24  1  0  0  0  0
  1 25  1  0  0  0  0
  1 26  1  0  0  0  0
  2  3  1  0  0  0  0
  3  4  2  0  0  0  0
  3 27  1  0  0  0  0
  4  5  1  0  0  0  0
  4 28  1  0  0  0  0
  5  6  2  0  0  0  0
  6 18  1  0  0  0  0
  6  7  1  0  0  0  0
  7 11  1  0  0  0  0
  7  8  2  0  0  0  0
  8  9  1  0  0  0  0
  9 10  1  0  0  0  0
  9  5  1  0  0  0  0
 10  2  2  0  0  0  0
 10 29  1  0  0  0  0
 11 12  2  0  0  0  0
 12 13  1  0  0  0  0
 12 30  1  0  0  0  0
 13 14  2  0  0  0  0
 13 31  1  0  0  0  0
 14 15  1  0  0  0  0
 14 16  1  0  0  0  0
 16 17  2  0  0  0  0
 16 32  1  0  0  0  0
 17 11  1  0  0  0  0
 17 33  1  0  0  0  0
 18 19  2  0  0  0  0
 19 20  1  0  0  0  0
 19 34  1  0  0  0  0
 20 21  2  0  0  0  0
 20 35  1  0  0  0  0
 21 22  1  0  0  0  0
 22 23  2  0  0  0  0
 22 36  1  0  0  0  0
 23 18  1  0  0  0  0
 23 37  1  0  0  0  0
M  END
>  <minimizedAffinity>
-10.12759

$$$$
