L3:A0A1D8PKB4:1740
     RDKit          3D

 37 40  0  0  0  0  0  0  0  0999 V2000
    4.6982   -3.0679   -0.5975 C   0  0  0  0  0  0  0  0  0  0  0  0
    3.5244   -2.1455   -0.5083 C   0  0  0  0  0  0  0  0  0  0  0  0
    3.7047   -0.7578   -0.9208 C   0  0  0  0  0  0  0  0  0  0  0  0
    2.6965    0.1333   -0.8741 C   0  0  0  0  0  0  0  0  0  0  0  0
    1.4087   -0.2776   -0.4167 C   0  0  0  0  0  0  0  0  0  0  0  0
    0.1820    0.3305   -0.2436 C   0  0  0  0  0  0  0  0  0  0  0  0
   -0.0712    1.7321   -0.5167 C   0  0  0  0  0  0  0  0  0  0  0  0
   -0.4539    2.5894    0.5145 C   0  0  0  0  0  0  0  0  0  0  0  0
   -0.6997    3.9156    0.2039 C   0  0  0  0  0  0  0  0  0  0  0  0
   -0.5915    4.4277   -1.0411 N   0  0  0  0  0  0  0  0  0  0  0  0
   -0.2206    3.5763   -2.0209 C   0  0  0  0  0  0  0  0  0  0  0  0
    0.0473    2.2344   -1.8130 C   0  0  0  0  0  0  0  0  0  0  0  0
   -0.6632   -0.6874    0.2935 C   0  0  0  0  0  0  0  0  0  0  0  0
   -2.0756   -0.6040    0.6797 C   0  0  0  0  0  0  0  0  0  0  0  0
   -2.9957    0.1392   -0.0760 C   0  0  0  0  0  0  0  0  0  0  0  0
   -4.3363    0.2124    0.3127 C   0  0  0  0  0  0  0  0  0  0  0  0
   -4.7597   -0.4632    1.4508 C   0  0  0  0  0  0  0  0  0  0  0  0
   -6.0449   -0.3918    1.8207 F   0  0  0  0  0  0  0  0  0  0  0  0
   -3.8700   -1.2149    2.2073 C   0  0  0  0  0  0  0  0  0  0  0  0
   -2.5298   -1.2877    1.8204 C   0  0  0  0  0  0  0  0  0  0  0  0
    0.0045   -1.8420    0.4387 N   0  0  0  0  0  0  0  0  0  0  0  0
    1.2596   -1.6015   -0.0065 N   0  0  0  0  0  0  0  0  0  0  0  0
    2.3112   -2.5190   -0.0610 C   0  0  0  0  0  0  0  0  0  0  0  0
    5.0511   -3.1426   -1.6316 H   0  0  0  0  0  0  0  0  0  0  0  0
    4.4461   -4.0785   -0.2585 H   0  0  0  0  0  0  0  0  0  0  0  0
    5.5222   -2.7041    0.0254 H   0  0  0  0  0  0  0  0  0  0  0  0
    4.6882   -0.4486   -1.2650 H   0  0  0  0  0  0  0  0  0  0  0  0
    2.8587    1.1637   -1.1753 H   0  0  0  0  0  0  0  0  0  0  0  0
   -0.5584    2.2410    1.5366 H   0  0  0  0  0  0  0  0  0  0  0  0
   -0.9999    4.6235    0.9714 H   0  0  0  0  0  0  0  0  0  0  0  0
   -0.1445    4.0159   -3.0114 H   0  0  0  0  0  0  0  0  0  0  0  0
    0.3328    1.5999   -2.6451 H   0  0  0  0  0  0  0  0  0  0  0  0
   -2.6870    0.6570   -0.9805 H   0  0  0  0  0  0  0  0  0  0  0  0
   -5.0509    0.7865   -0.2685 H   0  0  0  0  0  0  0  0  0  0  0  0
   -4.2215   -1.7419    3.0883 H   0  0  0  0  0  0  0  0  0  0  0  0
   -1.8361   -1.8828    2.4117 H   0  0  0  0  0  0  0  0  0  0  0  0
    2.0744   -3.5194    0.2761 H   0  0  0  0  0  0  0  0  0  0  0  0
  1  2  1  0
  2  3  1  0
  3  4  2  0
  4  5  1  0
  5  6  2  0
  6  7  1  0
  7  8  2  0
  8  9  1  0
  9 10  2  0
 10 11  1  0
 11 12  2  0
  6 13  1  0
 13 14  1  0
 14 15  2  0
 15 16  1  0
 16 17  2  0
 17 18  1  0
 17 19  1  0
 19 20  2  0
 13 21  2  0
 21 22  1  0
 22 23  1  0
 23  2  2  0
 22  5  1  0
 12  7  1  0
 20 14  1  0
  1 24  1  0
  1 25  1  0
  1 26  1  0
  3 27  1  0
  4 28  1  0
  8 29  1  0
  9 30  1  0
 11 31  1  0
 12 32  1  0
 15 33  1  0
 16 34  1  0
 19 35  1  0
 20 36  1  0
 23 37  1  0
M  END
>  <mol_id>  (1) 
1740

>  <source_index>  (1) 
0

>  <layer>  (1) 
L3

>  <uniprot>  (1) 
A0A1D8PKB4

>  <paff>  (1) 
6.9585999999999997

>  <smiles>  (1) 
Cc1ccc2c(c(nn2c1)c3ccc(cc3)F)c4ccncc4

$$$$
