L3:A0A1D8PKB4:21866
 OpenBabel09212617463D

 64 69  0  0  0  0  0  0  0  0999 V2000
   22.7019  -22.1954  -16.9849 C   0  0  0  0  0  0  0  0  0  0  0  0
   21.3451  -22.0636  -17.0398 N   0  0  0  0  0  0  0  0  0  0  0  0
   20.7717  -21.0262  -16.4097 C   0  0  0  0  0  0  0  0  0  0  0  0
   19.3806  -20.9404  -16.4345 N   0  0  0  0  0  0  0  0  0  0  0  0
   21.5256  -20.0976  -15.6919 C   0  0  0  0  0  0  0  0  0  0  0  0
   22.9052  -20.2478  -15.6125 C   0  0  0  0  0  0  0  0  0  0  0  0
   23.5326  -21.3132  -16.2754 C   0  0  0  0  0  0  0  0  0  0  0  0
   18.9653  -21.1846  -15.5453 H   0  0  0  0  0  0  0  0  0  0  0  0
   19.0616  -20.0082  -16.7223 H   0  0  0  0  0  0  0  0  0  0  0  0
   24.9906  -21.4304  -16.2168 C   0  0  0  0  0  0  0  0  0  0  0  0
   25.7862  -21.1330  -17.3249 C   0  0  0  0  0  0  0  0  0  0  0  0
   27.1693  -21.2784  -17.1628 C   0  0  0  0  0  0  0  0  0  0  0  0
   28.3265  -21.0919  -17.9653 C   0  0  0  0  0  0  0  0  0  0  0  0
   28.3898  -20.6353  -19.3752 C   0  0  0  0  0  0  0  0  0  0  0  0
   29.4497  -21.3825  -17.2956 N   0  0  0  0  0  0  0  0  0  0  0  0
   29.0147  -21.7475  -16.0774 N   0  0  0  0  0  0  0  0  0  0  0  0
   27.6565  -21.7091  -15.9372 C   0  0  0  0  0  0  0  0  0  0  0  0
   26.8261  -22.0056  -14.8709 C   0  0  0  0  0  0  0  0  0  0  0  0
   25.4896  -21.8688  -15.0334 N   0  0  0  0  0  0  0  0  0  0  0  0
   29.7041  -22.0138  -15.3836 H   0  0  0  0  0  0  0  0  0  0  0  0
   21.9163  -23.0877  -19.9815 C   0  0  0  0  0  0  0  0  0  0  0  0
   22.8257  -23.7019  -18.9893 C   0  0  0  0  0  0  0  0  0  0  0  0
   23.4497  -24.8495  -19.3839 O   0  0  0  0  0  0  0  0  0  0  0  0
   24.2183  -25.2608  -18.3464 C   0  0  0  0  0  0  0  0  0  0  0  0
   24.0999  -24.3941  -17.2866 C   0  0  0  0  0  0  0  0  0  0  0  0
   23.2046  -23.3656  -17.6987 C   0  0  0  0  0  0  0  0  0  0  0  0
   20.9214  -19.0655  -15.0249 O   0  0  0  0  0  0  0  0  0  0  0  0
   21.5429  -17.8104  -15.3468 C   0  0  0  0  0  0  0  0  0  0  0  0
   21.1864  -16.7275  -14.3014 C   0  0  1  0  0  0  0  0  0  0  0  0
   20.8210  -17.3506  -13.0064 N   0  0  0  0  0  0  0  0  0  0  0  0
   19.9500  -17.8735  -13.1223 H   0  0  0  0  0  0  0  0  0  0  0  0
   20.5950  -16.6004  -12.3455 H   0  0  0  0  0  0  0  0  0  0  0  0
   22.3451  -15.7184  -14.1355 C   0  0  0  0  0  0  0  0  0  0  0  0
   23.4235  -16.2053  -13.2109 C   0  0  0  0  0  0  0  0  0  0  0  0
   23.5010  -15.9737  -11.8508 C   0  0  0  0  0  0  0  0  0  0  0  0
   24.6310  -16.5820  -11.3741 N   0  0  0  0  0  0  0  0  0  0  0  0
   25.2988  -17.2142  -12.3959 C   0  0  0  0  0  0  0  0  0  0  0  0
   26.4850  -17.9578  -12.3737 C   0  0  0  0  0  0  0  0  0  0  0  0
   26.9392  -18.4898  -13.5839 C   0  0  0  0  0  0  0  0  0  0  0  0
   26.2347  -18.2836  -14.7672 C   0  0  0  0  0  0  0  0  0  0  0  0
   25.0515  -17.5362  -14.7711 C   0  0  0  0  0  0  0  0  0  0  0  0
   24.5696  -16.9897  -13.5636 C   0  0  0  0  0  0  0  0  0  0  0  0
   24.9384  -16.5706  -10.4116 H   0  0  0  0  0  0  0  0  0  0  0  0
   23.4673  -19.5763  -15.0665 H   0  0  0  0  0  0  0  0  0  0  0  0
   25.3753  -20.8215  -18.2189 H   0  0  0  0  0  0  0  0  0  0  0  0
   27.3990  -20.4540  -19.7362 H   0  0  0  0  0  0  0  0  0  0  0  0
   28.8550  -21.3902  -19.9740 H   0  0  0  0  0  0  0  0  0  0  0  0
   28.9610  -19.7323  -19.4324 H   0  0  0  0  0  0  0  0  0  0  0  0
   27.2176  -22.3243  -13.9708 H   0  0  0  0  0  0  0  0  0  0  0  0
   21.9091  -23.6794  -20.8730 H   0  0  0  0  0  0  0  0  0  0  0  0
   22.2552  -22.0993  -20.2121 H   0  0  0  0  0  0  0  0  0  0  0  0
   20.9268  -23.0401  -19.5770 H   0  0  0  0  0  0  0  0  0  0  0  0
   24.8097  -26.1065  -18.3515 H   0  0  0  0  0  0  0  0  0  0  0  0
   24.5684  -24.4730  -16.3705 H   0  0  0  0  0  0  0  0  0  0  0  0
   21.2053  -17.4904  -16.3104 H   0  0  0  0  0  0  0  0  0  0  0  0
   22.6042  -17.9469  -15.3460 H   0  0  0  0  0  0  0  0  0  0  0  0
   20.3347  -16.1851  -14.6552 H   0  0  0  0  0  0  0  0  0  0  0  0
   21.9478  -14.8053  -13.7441 H   0  0  0  0  0  0  0  0  0  0  0  0
   22.7893  -15.5819  -15.0993 H   0  0  0  0  0  0  0  0  0  0  0  0
   22.8229  -15.4343  -11.2902 H   0  0  0  0  0  0  0  0  0  0  0  0
   27.0054  -18.1077  -11.4952 H   0  0  0  0  0  0  0  0  0  0  0  0
   27.8098  -19.0437  -13.6007 H   0  0  0  0  0  0  0  0  0  0  0  0
   26.5883  -18.6856  -15.6494 H   0  0  0  0  0  0  0  0  0  0  0  0
   24.5350  -17.3859  -15.6518 H   0  0  0  0  0  0  0  0  0  0  0  0
  1  2  2  0  0  0  0
  2  3  1  0  0  0  0
  3  4  1  0  0  0  0
  3  5  2  0  0  0  0
  4  8  1  0  0  0  0
  4  9  1  0  0  0  0
  5 27  1  0  0  0  0
  5  6  1  0  0  0  0
  6  7  2  0  0  0  0
  6 44  1  0  0  0  0
  7 10  1  0  0  0  0
  7  1  1  0  0  0  0
 10 11  2  0  0  0  0
 11 12  1  0  0  0  0
 11 45  1  0  0  0  0
 12 13  1  0  0  0  0
 13 14  1  0  0  0  0
 13 15  2  0  0  0  0
 14 46  1  0  0  0  0
 14 47  1  0  0  0  0
 14 48  1  0  0  0  0
 15 16  1  0  0  0  0
 16 17  1  0  0  0  0
 16 20  1  0  0  0  0
 17 18  1  0  0  0  0
 17 12  2  0  0  0  0
 18 19  2  0  0  0  0
 18 49  1  0  0  0  0
 19 10  1  0  0  0  0
 21 22  1  0  0  0  0
 21 50  1  0  0  0  0
 21 51  1  0  0  0  0
 21 52  1  0  0  0  0
 22 23  1  0  0  0  0
 23 24  1  0  0  0  0
 24 25  2  0  0  0  0
 24 53  1  0  0  0  0
 25 26  1  0  0  0  0
 25 54  1  0  0  0  0
 26  1  1  0  0  0  0
 26 22  2  0  0  0  0
 27 28  1  0  0  0  0
 28 29  1  0  0  0  0
 28 55  1  0  0  0  0
 28 56  1  0  0  0  0
 29 30  1  0  0  0  0
 29 33  1  0  0  0  0
 29 57  1  6  0  0  0
 30 31  1  0  0  0  0
 30 32  1  0  0  0  0
 33 34  1  0  0  0  0
 33 58  1  0  0  0  0
 33 59  1  0  0  0  0
 34 35  2  0  0  0  0
 35 36  1  0  0  0  0
 35 60  1  0  0  0  0
 36 37  1  0  0  0  0
 36 43  1  0  0  0  0
 37 38  2  0  0  0  0
 38 39  1  0  0  0  0
 38 61  1  0  0  0  0
 39 40  2  0  0  0  0
 39 62  1  0  0  0  0
 40 41  1  0  0  0  0
 40 63  1  0  0  0  0
 41 42  2  0  0  0  0
 41 64  1  0  0  0  0
 42 34  1  0  0  0  0
 42 37  1  0  0  0  0
M  END
>  <minimizedAffinity>
-9.46725

$$$$
