L3:A0A1D8PKB4:21866


 43 48  0  0  0  0  0  0  0  0999 V2000
   22.7019  -22.1954  -16.9849 C   0  0  0  0  0  0  0  0  0  0  0  0
   21.3451  -22.0636  -17.0398 N   0  0  0  0  0  0  0  0  0  0  0  0
   20.7717  -21.0262  -16.4097 C   0  0  0  0  0  0  0  0  0  0  0  0
   19.3806  -20.9404  -16.4345 N   0  0  0  0  0  0  0  0  0  0  0  0
   21.5256  -20.0976  -15.6919 C   0  0  0  0  0  0  0  0  0  0  0  0
   22.9052  -20.2478  -15.6125 C   0  0  0  0  0  0  0  0  0  0  0  0
   23.5326  -21.3132  -16.2754 C   0  0  0  0  0  0  0  0  0  0  0  0
   18.9653  -21.1846  -15.5453 H   0  0  0  0  0  0  0  0  0  0  0  0
   19.0616  -20.0082  -16.7223 H   0  0  0  0  0  0  0  0  0  0  0  0
   24.9906  -21.4304  -16.2168 C   0  0  0  0  0  0  0  0  0  0  0  0
   25.7862  -21.1330  -17.3249 C   0  0  0  0  0  0  0  0  0  0  0  0
   27.1693  -21.2784  -17.1628 C   0  0  0  0  0  0  0  0  0  0  0  0
   28.3265  -21.0919  -17.9653 C   0  0  0  0  0  0  0  0  0  0  0  0
   28.3898  -20.6353  -19.3752 C   0  0  0  0  0  0  0  0  0  0  0  0
   29.4497  -21.3825  -17.2956 N   0  0  0  0  0  0  0  0  0  0  0  0
   29.0147  -21.7475  -16.0774 N   0  0  0  0  0  0  0  0  0  0  0  0
   27.6565  -21.7091  -15.9372 C   0  0  0  0  0  0  0  0  0  0  0  0
   26.8261  -22.0056  -14.8709 C   0  0  0  0  0  0  0  0  0  0  0  0
   25.4896  -21.8688  -15.0334 N   0  0  0  0  0  0  0  0  0  0  0  0
   29.7041  -22.0138  -15.3836 H   0  0  0  0  0  0  0  0  0  0  0  0
   21.9163  -23.0877  -19.9815 C   0  0  0  0  0  0  0  0  0  0  0  0
   22.8257  -23.7019  -18.9893 C   0  0  0  0  0  0  0  0  0  0  0  0
   23.4497  -24.8495  -19.3839 O   0  0  0  0  0  0  0  0  0  0  0  0
   24.2183  -25.2608  -18.3464 C   0  0  0  0  0  0  0  0  0  0  0  0
   24.0999  -24.3941  -17.2866 C   0  0  0  0  0  0  0  0  0  0  0  0
   23.2046  -23.3656  -17.6987 C   0  0  0  0  0  0  0  0  0  0  0  0
   20.9214  -19.0655  -15.0249 O   0  0  0  0  0  0  0  0  0  0  0  0
   21.5429  -17.8104  -15.3468 C   0  0  0  0  0  0  0  0  0  0  0  0
   21.1864  -16.7275  -14.3014 C   0  0  0  0  0  0  0  0  0  0  0  0
   20.8210  -17.3506  -13.0064 N   0  0  0  0  0  0  0  0  0  0  0  0
   19.9500  -17.8735  -13.1223 H   0  0  0  0  0  0  0  0  0  0  0  0
   20.5950  -16.6004  -12.3455 H   0  0  0  0  0  0  0  0  0  0  0  0
   22.3451  -15.7184  -14.1355 C   0  0  0  0  0  0  0  0  0  0  0  0
   23.4235  -16.2053  -13.2109 C   0  0  0  0  0  0  0  0  0  0  0  0
   23.5010  -15.9737  -11.8508 C   0  0  0  0  0  0  0  0  0  0  0  0
   24.6310  -16.5820  -11.3741 N   0  0  0  0  0  0  0  0  0  0  0  0
   25.2988  -17.2142  -12.3959 C   0  0  0  0  0  0  0  0  0  0  0  0
   26.4850  -17.9578  -12.3737 C   0  0  0  0  0  0  0  0  0  0  0  0
   26.9392  -18.4898  -13.5839 C   0  0  0  0  0  0  0  0  0  0  0  0
   26.2347  -18.2836  -14.7672 C   0  0  0  0  0  0  0  0  0  0  0  0
   25.0515  -17.5362  -14.7711 C   0  0  0  0  0  0  0  0  0  0  0  0
   24.5696  -16.9897  -13.5636 C   0  0  0  0  0  0  0  0  0  0  0  0
   24.9384  -16.5706  -10.4116 H   0  0  0  0  0  0  0  0  0  0  0  0
 21 22  1  0  0  0
 22 23  1  0  0  0
 23 24  1  0  0  0
 24 25  2  0  0  0
 25 26  1  0  0  0
 26  1  1  0  0  0
  1  2  2  0  0  0
  2  3  1  0  0  0
  3  4  1  0  0  0
  3  5  2  0  0  0
  5 27  1  0  0  0
 27 28  1  0  0  0
 28 29  1  0  0  0
 29 30  1  0  0  0
 29 33  1  0  0  0
 33 34  1  0  0  0
 34 35  2  0  0  0
 35 36  1  0  0  0
 36 37  1  0  0  0
 37 38  2  0  0  0
 38 39  1  0  0  0
 39 40  2  0  0  0
 40 41  1  0  0  0
 41 42  2  0  0  0
  5  6  1  0  0  0
  6  7  2  0  0  0
  7 10  1  0  0  0
 10 11  2  0  0  0
 11 12  1  0  0  0
 12 13  1  0  0  0
 13 14  1  0  0  0
 13 15  2  0  0  0
 15 16  1  0  0  0
 16 17  1  0  0  0
 17 18  1  0  0  0
 18 19  2  0  0  0
 26 22  2  0  0  0
  7  1  1  0  0  0
 19 10  1  0  0  0
 42 34  1  0  0  0
 17 12  2  0  0  0
 42 37  1  0  0  0
  4  8  1  0  0  0
  4  9  1  0  0  0
 30 31  1  0  0  0
 30 32  1  0  0  0
 36 43  1  0  0  0
 16 20  1  0  0  0
M  END
> <minimizedAffinity>
-9.46725

$$$$
