L3:A0A1D8PKB4:21866
     RDKit          3D

 64 69  0  0  0  0  0  0  0  0999 V2000
   -1.8369    4.1872   -1.9439 C   0  0  0  0  0  0  0  0  0  0  0  0
   -2.9308    3.7633   -1.0426 C   0  0  0  0  0  0  0  0  0  0  0  0
   -4.0184    4.5862   -0.9983 O   0  0  0  0  0  0  0  0  0  0  0  0
   -4.8930    4.0418   -0.1180 C   0  0  0  0  0  0  0  0  0  0  0  0
   -4.3855    2.8776    0.4070 C   0  0  0  0  0  0  0  0  0  0  0  0
   -3.1117    2.6782   -0.1987 C   0  0  0  0  0  0  0  0  0  0  0  0
   -2.1216    1.6214   -0.0129 C   0  0  0  0  0  0  0  0  0  0  0  0
   -0.8450    2.0856    0.1146 N   0  0  0  0  0  0  0  0  0  0  0  0
    0.1477    1.2010    0.2990 C   0  0  0  0  0  0  0  0  0  0  0  0
    1.4366    1.7003    0.4795 N   0  0  0  0  0  0  0  0  0  0  0  0
   -0.0982   -0.1698    0.3795 C   0  0  0  0  0  0  0  0  0  0  0  0
    0.9215   -1.0557    0.6040 O   0  0  0  0  0  0  0  0  0  0  0  0
    1.3854   -1.6302   -0.6289 C   0  0  0  0  0  0  0  0  0  0  0  0
    2.8974   -1.3731   -0.8295 C   0  0  1  0  0  0  0  0  0  0  0  0
    3.1433    0.0423   -1.1968 N   0  0  0  0  0  0  0  0  0  0  0  0
    3.6973   -1.7768    0.4297 C   0  0  0  0  0  0  0  0  0  0  0  0
    5.1761   -1.8672    0.1853 C   0  0  0  0  0  0  0  0  0  0  0  0
    5.8599   -2.9672   -0.2963 C   0  0  0  0  0  0  0  0  0  0  0  0
    7.1890   -2.6482   -0.3736 N   0  0  0  0  0  0  0  0  0  0  0  0
    7.3936   -1.3550    0.0455 C   0  0  0  0  0  0  0  0  0  0  0  0
    8.5769   -0.6115    0.1314 C   0  0  0  0  0  0  0  0  0  0  0  0
    8.4850    0.7008    0.6041 C   0  0  0  0  0  0  0  0  0  0  0  0
    7.2584    1.2444    0.9768 C   0  0  0  0  0  0  0  0  0  0  0  0
    6.0857    0.4861    0.8859 C   0  0  0  0  0  0  0  0  0  0  0  0
    6.1496   -0.8401    0.4102 C   0  0  0  0  0  0  0  0  0  0  0  0
   -1.4022   -0.6404    0.2778 C   0  0  0  0  0  0  0  0  0  0  0  0
   -2.4571    0.2603    0.0679 C   0  0  0  0  0  0  0  0  0  0  0  0
   -3.8183   -0.2573   -0.0805 C   0  0  0  0  0  0  0  0  0  0  0  0
   -4.5079   -0.8032    1.0038 C   0  0  0  0  0  0  0  0  0  0  0  0
   -5.8041   -1.2699    0.7539 C   0  0  0  0  0  0  0  0  0  0  0  0
   -6.8477   -1.8684    1.5092 C   0  0  0  0  0  0  0  0  0  0  0  0
   -6.8447   -2.2059    2.9536 C   0  0  0  0  0  0  0  0  0  0  0  0
   -7.9249   -2.1247    0.7552 N   0  0  0  0  0  0  0  0  0  0  0  0
   -7.5742   -1.6915   -0.4678 N   0  0  0  0  0  0  0  0  0  0  0  0
   -6.3127   -1.1717   -0.5332 C   0  0  0  0  0  0  0  0  0  0  0  0
   -5.5847   -0.6347   -1.5802 C   0  0  0  0  0  0  0  0  0  0  0  0
   -4.3304   -0.1896   -1.3355 N   0  0  0  0  0  0  0  0  0  0  0  0
   -1.0159    4.6248   -1.3680 H   0  0  0  0  0  0  0  0  0  0  0  0
   -1.4493    3.3370   -2.5137 H   0  0  0  0  0  0  0  0  0  0  0  0
   -2.1855    4.9371   -2.6611 H   0  0  0  0  0  0  0  0  0  0  0  0
   -5.8107    4.5929    0.0295 H   0  0  0  0  0  0  0  0  0  0  0  0
   -4.8761    2.2568    1.1415 H   0  0  0  0  0  0  0  0  0  0  0  0
    1.7442    1.6297    1.4404 H   0  0  0  0  0  0  0  0  0  0  0  0
    2.1142    1.2372   -0.1369 H   0  0  0  0  0  0  0  0  0  0  0  0
    1.2137   -2.7111   -0.5566 H   0  0  0  0  0  0  0  0  0  0  0  0
    0.8238   -1.2797   -1.5070 H   0  0  0  0  0  0  0  0  0  0  0  0
    3.2262   -1.9853   -1.6791 H   0  0  0  0  0  0  0  0  0  0  0  0
    2.7411    0.2217   -2.1196 H   0  0  0  0  0  0  0  0  0  0  0  0
    4.1534    0.1682   -1.3178 H   0  0  0  0  0  0  0  0  0  0  0  0
    3.5021   -1.0750    1.2508 H   0  0  0  0  0  0  0  0  0  0  0  0
    3.3497   -2.7579    0.7800 H   0  0  0  0  0  0  0  0  0  0  0  0
    5.5145   -3.9507   -0.5860 H   0  0  0  0  0  0  0  0  0  0  0  0
    7.9210   -3.2689   -0.6897 H   0  0  0  0  0  0  0  0  0  0  0  0
    9.5349   -1.0322   -0.1559 H   0  0  0  0  0  0  0  0  0  0  0  0
    9.3857    1.3053    0.6832 H   0  0  0  0  0  0  0  0  0  0  0  0
    7.2080    2.2670    1.3427 H   0  0  0  0  0  0  0  0  0  0  0  0
    5.1343    0.9216    1.1786 H   0  0  0  0  0  0  0  0  0  0  0  0
   -1.5935   -1.7078    0.3464 H   0  0  0  0  0  0  0  0  0  0  0  0
   -4.0668   -0.8507    1.9926 H   0  0  0  0  0  0  0  0  0  0  0  0
   -6.0349   -2.9072    3.1791 H   0  0  0  0  0  0  0  0  0  0  0  0
   -7.7880   -2.6680    3.2623 H   0  0  0  0  0  0  0  0  0  0  0  0
   -6.6975   -1.3031    3.5550 H   0  0  0  0  0  0  0  0  0  0  0  0
   -8.2491   -1.7820   -1.2188 H   0  0  0  0  0  0  0  0  0  0  0  0
   -5.9529   -0.5443   -2.5945 H   0  0  0  0  0  0  0  0  0  0  0  0
  1  2  1  0
  2  3  1  0
  3  4  1  0
  4  5  2  0
  5  6  1  0
  6  7  1  0
  7  8  2  0
  8  9  1  0
  9 10  1  0
  9 11  2  0
 11 12  1  0
 12 13  1  0
 13 14  1  0
 14 15  1  0
 14 16  1  0
 16 17  1  0
 17 18  2  0
 18 19  1  0
 19 20  1  0
 20 21  2  0
 21 22  1  0
 22 23  2  0
 23 24  1  0
 24 25  2  0
 11 26  1  0
 26 27  2  0
 27 28  1  0
 28 29  2  0
 29 30  1  0
 30 31  1  0
 31 32  1  0
 31 33  2  0
 33 34  1  0
 34 35  1  0
 35 36  1  0
 36 37  2  0
  6  2  2  0
 27  7  1  0
 37 28  1  0
 25 17  1  0
 35 30  2  0
 25 20  1  0
  1 38  1  0
  1 39  1  0
  1 40  1  0
  4 41  1  0
  5 42  1  0
 10 43  1  0
 10 44  1  0
 13 45  1  0
 13 46  1  0
 14 47  1  6
 15 48  1  0
 15 49  1  0
 16 50  1  0
 16 51  1  0
 18 52  1  0
 19 53  1  0
 21 54  1  0
 22 55  1  0
 23 56  1  0
 24 57  1  0
 26 58  1  0
 29 59  1  0
 32 60  1  0
 32 61  1  0
 32 62  1  0
 34 63  1  0
 36 64  1  0
M  END
>  <mol_id>  (1) 
21866

>  <source_index>  (1) 
3

>  <layer>  (1) 
L3

>  <uniprot>  (1) 
A0A1D8PKB4

>  <paff>  (1) 
6.7446999999999999

>  <smiles>  (1) 
Cc1occc1-c1nc(N)c(OC[C@@H](N)Cc2c[nH]c3ccccc23)cc1-c1cc2c(C)n[nH]c2cn1

$$$$
