L3:A0A1D8PKB4:3477
 OpenBabel09212617463D

 39 42  0  0  0  0  0  0  0  0999 V2000
   24.3722  -20.8363  -16.8777 N   0  0  0  0  0  0  0  0  0  0  0  0
   24.2738  -19.8045  -16.0118 N   0  0  0  0  0  0  0  0  0  0  0  0
   22.9496  -19.6507  -15.8502 C   0  0  0  0  0  0  0  0  0  0  0  0
   22.2027  -20.6652  -16.5026 C   0  0  0  0  0  0  0  0  0  0  0  0
   20.8848  -21.1281  -16.6147 C   0  0  0  0  0  0  0  0  0  0  0  0
   19.8184  -20.6969  -15.8594 N   0  0  0  0  0  0  0  0  0  0  0  0
   20.6214  -22.1402  -17.4700 N   0  0  0  0  0  0  0  0  0  0  0  0
   21.6420  -22.7073  -18.1363 C   0  0  0  0  0  0  0  0  0  0  0  0
   22.9446  -22.4065  -18.0510 N   0  0  0  0  0  0  0  0  0  0  0  0
   23.1599  -21.3772  -17.2129 C   0  0  0  0  0  0  0  0  0  0  0  0
   19.9783  -20.2230  -14.9850 H   0  0  0  0  0  0  0  0  0  0  0  0
   18.9546  -21.1999  -16.0084 H   0  0  0  0  0  0  0  0  0  0  0  0
   22.4752  -18.4126  -15.0326 C   0  0  0  0  0  0  0  0  0  0  0  0
   21.2233  -18.0560  -14.5894 C   0  0  0  0  0  0  0  0  0  0  0  0
   21.3449  -16.8164  -13.8944 C   0  0  0  0  0  0  0  0  0  0  0  0
   20.4306  -15.9755  -13.2281 C   0  0  0  0  0  0  0  0  0  0  0  0
   20.9079  -14.7984  -12.6464 C   0  0  0  0  0  0  0  0  0  0  0  0
   20.0654  -13.9497  -11.9859 O   0  0  0  0  0  0  0  0  0  0  0  0
   22.2491  -14.4429  -12.7162 C   0  0  0  0  0  0  0  0  0  0  0  0
   23.1698  -15.2581  -13.3805 C   0  0  0  0  0  0  0  0  0  0  0  0
   22.6859  -16.4367  -13.9597 C   0  0  0  0  0  0  0  0  0  0  0  0
   23.3394  -17.4073  -14.6798 N   0  0  0  0  0  0  0  0  0  0  0  0
   19.1661  -14.3136  -12.0290 H   0  0  0  0  0  0  0  0  0  0  0  0
   24.3221  -17.4116  -14.9174 H   0  0  0  0  0  0  0  0  0  0  0  0
   26.3408  -22.2601  -16.3904 C   0  0  0  0  0  0  0  0  0  0  0  0
   25.6920  -21.2522  -17.3385 C   0  0  0  0  0  0  0  0  0  0  0  0
   26.6086  -20.0601  -17.6113 C   0  0  0  0  0  0  0  0  0  0  0  0
   21.3923  -23.4645  -18.7915 H   0  0  0  0  0  0  0  0  0  0  0  0
   20.3519  -18.5897  -14.7338 H   0  0  0  0  0  0  0  0  0  0  0  0
   19.4306  -16.2239  -13.1712 H   0  0  0  0  0  0  0  0  0  0  0  0
   22.5690  -13.5676  -12.2728 H   0  0  0  0  0  0  0  0  0  0  0  0
   24.1674  -15.0010  -13.4415 H   0  0  0  0  0  0  0  0  0  0  0  0
   27.3036  -22.5357  -16.7673 H   0  0  0  0  0  0  0  0  0  0  0  0
   25.7233  -23.1310  -16.3187 H   0  0  0  0  0  0  0  0  0  0  0  0
   26.4498  -21.8193  -15.4215 H   0  0  0  0  0  0  0  0  0  0  0  0
   25.5448  -21.7524  -18.2729 H   0  0  0  0  0  0  0  0  0  0  0  0
   26.7833  -19.5285  -16.6993 H   0  0  0  0  0  0  0  0  0  0  0  0
   26.1438  -19.4079  -18.3209 H   0  0  0  0  0  0  0  0  0  0  0  0
   27.5404  -20.4093  -18.0047 H   0  0  0  0  0  0  0  0  0  0  0  0
  1  2  1  0  0  0  0
  2  3  2  0  0  0  0
  3 13  1  0  0  0  0
  3  4  1  0  0  0  0
  4  5  2  0  0  0  0
  5  6  1  0  0  0  0
  5  7  1  0  0  0  0
  6 11  1  0  0  0  0
  6 12  1  0  0  0  0
  7  8  2  0  0  0  0
  8  9  1  0  0  0  0
  8 28  1  0  0  0  0
  9 10  2  0  0  0  0
 10  1  1  0  0  0  0
 10  4  1  0  0  0  0
 13 14  2  0  0  0  0
 14 15  1  0  0  0  0
 14 29  1  0  0  0  0
 15 16  2  0  0  0  0
 16 17  1  0  0  0  0
 16 30  1  0  0  0  0
 17 18  1  0  0  0  0
 17 19  2  0  0  0  0
 18 23  1  0  0  0  0
 19 20  1  0  0  0  0
 19 31  1  0  0  0  0
 20 21  2  0  0  0  0
 20 32  1  0  0  0  0
 21 22  1  0  0  0  0
 21 15  1  0  0  0  0
 22 13  1  0  0  0  0
 22 24  1  0  0  0  0
 25 26  1  0  0  0  0
 25 33  1  0  0  0  0
 25 34  1  0  0  0  0
 25 35  1  0  0  0  0
 26 27  1  0  0  0  0
 26  1  1  0  0  0  0
 26 36  1  0  0  0  0
 27 37  1  0  0  0  0
 27 38  1  0  0  0  0
 27 39  1  0  0  0  0
M  END
>  <minimizedAffinity>
-8.85682

$$$$
