L3:A0A1D8PKB4:3477
     RDKit          3D

 39 42  0  0  0  0  0  0  0  0999 V2000
   -4.2118   -0.9869   -1.8183 C   0  0  0  0  0  0  0  0  0  0  0  0
   -3.4743   -1.4403   -0.5589 C   0  0  0  0  0  0  0  0  0  0  0  0
   -4.4371   -1.6957    0.6002 C   0  0  0  0  0  0  0  0  0  0  0  0
   -2.4022   -0.5226   -0.1905 N   0  0  0  0  0  0  0  0  0  0  0  0
   -1.1264   -0.9657   -0.1990 N   0  0  0  0  0  0  0  0  0  0  0  0
   -0.4096    0.1240    0.1202 C   0  0  0  0  0  0  0  0  0  0  0  0
    1.1407    0.0035    0.0289 C   0  0  0  0  0  0  0  0  0  0  0  0
    2.1196    0.9685    0.0666 C   0  0  0  0  0  0  0  0  0  0  0  0
    3.3800    0.3148   -0.0692 C   0  0  0  0  0  0  0  0  0  0  0  0
    4.7160    0.7636   -0.0967 C   0  0  0  0  0  0  0  0  0  0  0  0
    5.7340   -0.1799   -0.2553 C   0  0  0  0  0  0  0  0  0  0  0  0
    7.0457    0.2006   -0.2852 O   0  0  0  0  0  0  0  0  0  0  0  0
    5.4574   -1.5347   -0.3903 C   0  0  0  0  0  0  0  0  0  0  0  0
    4.1391   -1.9988   -0.3754 C   0  0  0  0  0  0  0  0  0  0  0  0
    3.1238   -1.0490   -0.2145 C   0  0  0  0  0  0  0  0  0  0  0  0
    1.7590   -1.2031   -0.1808 N   0  0  0  0  0  0  0  0  0  0  0  0
   -1.2290    1.2296    0.4652 C   0  0  0  0  0  0  0  0  0  0  0  0
   -1.1232    2.5287    0.9798 C   0  0  0  0  0  0  0  0  0  0  0  0
    0.0202    3.0940    1.4962 N   0  0  0  0  0  0  0  0  0  0  0  0
   -2.2379    3.2873    1.0654 N   0  0  0  0  0  0  0  0  0  0  0  0
   -3.4173    2.7476    0.7118 C   0  0  0  0  0  0  0  0  0  0  0  0
   -3.6528    1.4997    0.2855 N   0  0  0  0  0  0  0  0  0  0  0  0
   -2.5158    0.7885    0.1871 C   0  0  0  0  0  0  0  0  0  0  0  0
   -4.9220   -1.7540   -2.1450 H   0  0  0  0  0  0  0  0  0  0  0  0
   -4.7744   -0.0625   -1.6527 H   0  0  0  0  0  0  0  0  0  0  0  0
   -3.5091   -0.8067   -2.6393 H   0  0  0  0  0  0  0  0  0  0  0  0
   -2.9851   -2.3956   -0.7933 H   0  0  0  0  0  0  0  0  0  0  0  0
   -5.1532   -2.4821    0.3389 H   0  0  0  0  0  0  0  0  0  0  0  0
   -3.8942   -2.0180    1.4955 H   0  0  0  0  0  0  0  0  0  0  0  0
   -5.0089   -0.7996    0.8622 H   0  0  0  0  0  0  0  0  0  0  0  0
    1.9781    2.0364    0.1359 H   0  0  0  0  0  0  0  0  0  0  0  0
    4.9324    1.8206    0.0059 H   0  0  0  0  0  0  0  0  0  0  0  0
    7.0880    1.1666   -0.1956 H   0  0  0  0  0  0  0  0  0  0  0  0
    6.2752   -2.2402   -0.5135 H   0  0  0  0  0  0  0  0  0  0  0  0
    3.9191   -3.0551   -0.4888 H   0  0  0  0  0  0  0  0  0  0  0  0
    1.2560   -2.0746   -0.2791 H   0  0  0  0  0  0  0  0  0  0  0  0
    0.7828    2.5073    1.7944 H   0  0  0  0  0  0  0  0  0  0  0  0
   -0.1004    4.0096    1.9067 H   0  0  0  0  0  0  0  0  0  0  0  0
   -4.2824    3.3983    0.7950 H   0  0  0  0  0  0  0  0  0  0  0  0
  1  2  1  0
  2  3  1  0
  2  4  1  0
  4  5  1  0
  5  6  2  0
  6  7  1  0
  7  8  2  0
  8  9  1  0
  9 10  2  0
 10 11  1  0
 11 12  1  0
 11 13  2  0
 13 14  1  0
 14 15  2  0
 15 16  1  0
  6 17  1  0
 17 18  2  0
 18 19  1  0
 18 20  1  0
 20 21  2  0
 21 22  1  0
 22 23  2  0
 23  4  1  0
 16  7  1  0
 23 17  1  0
 15  9  1  0
  1 24  1  0
  1 25  1  0
  1 26  1  0
  2 27  1  0
  3 28  1  0
  3 29  1  0
  3 30  1  0
  8 31  1  0
 10 32  1  0
 12 33  1  0
 13 34  1  0
 14 35  1  0
 16 36  1  0
 19 37  1  0
 19 38  1  0
 21 39  1  0
M  END
>  <mol_id>  (1) 
3477

>  <source_index>  (1) 
1

>  <layer>  (1) 
L3

>  <uniprot>  (1) 
A0A1D8PKB4

>  <paff>  (1) 
6.0044000000000004

>  <smiles>  (1) 
CC(C)n1nc(-c2cc3cc(O)ccc3[nH]2)c2c(N)ncnc21

$$$$
