L3:A0A1D8PKB4:38545


 35 38  0  0  0  0  0  0  0  0999 V2000
   27.7926  -20.9634  -14.7916 C   0  0  0  0  0  0  0  0  0  0  0  0
   28.7398  -20.1265  -14.2220 C   0  0  0  0  0  0  0  0  0  0  0  0
   28.4559  -18.9097  -13.7081 N   0  0  0  0  0  0  0  0  0  0  0  0
   27.1748  -18.5062  -13.7571 C   0  0  0  0  0  0  0  0  0  0  0  0
   26.8390  -17.2649  -13.2467 C   0  0  0  0  0  0  0  0  0  0  0  0
   25.5255  -16.8010  -13.2910 C   0  0  0  0  0  0  0  0  0  0  0  0
   24.5500  -17.6155  -13.8470 C   0  0  0  0  0  0  0  0  0  0  0  0
   24.8415  -18.8386  -14.3473 N   0  0  0  0  0  0  0  0  0  0  0  0
   26.1291  -19.2701  -14.3173 C   0  0  0  0  0  0  0  0  0  0  0  0
   26.4658  -20.5188  -14.8783 C   0  0  0  0  0  0  0  0  0  0  0  0
   23.1374  -17.2221  -13.9275 C   0  0  0  0  0  0  0  0  0  0  0  0
   22.2899  -17.7297  -14.9272 C   0  0  0  0  0  0  0  0  0  0  0  0
   20.9438  -17.3535  -14.9895 C   0  0  0  0  0  0  0  0  0  0  0  0
   19.9616  -18.0293  -16.2372 Cl  0  0  0  0  0  0  0  0  0  0  0  0
   20.4221  -16.4555  -14.0583 C   0  0  0  0  0  0  0  0  0  0  0  0
   19.1032  -16.0892  -14.1297 O   0  0  0  0  0  0  0  0  0  0  0  0
   21.2536  -15.9417  -13.0622 C   0  0  0  0  0  0  0  0  0  0  0  0
   20.6391  -14.8177  -11.9058 Cl  0  0  0  0  0  0  0  0  0  0  0  0
   22.5934  -16.3272  -12.9898 C   0  0  0  0  0  0  0  0  0  0  0  0
   18.9222  -15.4691  -13.3990 H   0  0  0  0  0  0  0  0  0  0  0  0
   29.6349  -22.4455  -15.7999 C   0  0  0  0  0  0  0  0  0  0  0  0
   28.2570  -22.3012  -15.2090 C   0  0  0  0  0  0  0  0  0  0  0  0
   27.4921  -23.2577  -15.1028 O   0  0  0  0  0  0  0  0  0  0  0  0
   25.4563  -21.2166  -15.5860 N   0  0  0  0  0  0  0  0  0  0  0  0
   24.5721  -21.1978  -15.0696 H   0  0  0  0  0  0  0  0  0  0  0  0
   25.3224  -21.0022  -17.0351 C   0  0  0  0  0  0  0  0  0  0  0  0
   25.3810  -22.3602  -17.7561 C   0  0  0  0  0  0  0  0  0  0  0  0
   24.0319  -22.8469  -18.2926 C   0  0  0  0  0  0  0  0  0  0  0  0
   22.8876  -22.5712  -17.3061 C   0  0  0  0  0  0  0  0  0  0  0  0
   22.7555  -21.0575  -17.0551 C   0  0  0  0  0  0  0  0  0  0  0  0
   24.0251  -20.2525  -17.3551 C   0  0  0  0  0  0  0  0  0  0  0  0
   21.5774  -23.2184  -17.8253 C   0  0  0  0  0  0  0  0  0  0  0  0
   20.6713  -22.4308  -18.6695 N   0  0  0  0  0  0  0  0  0  0  0  0
   20.6974  -22.8308  -20.0705 C   0  0  0  0  0  0  0  0  0  0  0  0
   19.3091  -22.3126  -18.1712 C   0  0  0  0  0  0  0  0  0  0  0  0
 21 22  1  0  0  0
 22 23  2  0  0  0
 22  1  1  0  0  0
  1  2  2  0  0  0
  2  3  1  0  0  0
  3  4  2  0  0  0
  4  5  1  0  0  0
  5  6  2  0  0  0
  6  7  1  0  0  0
  7 11  1  0  0  0
 11 12  2  0  0  0
 12 13  1  0  0  0
 13 14  1  0  0  0
 13 15  2  0  0  0
 15 16  1  0  0  0
 15 17  1  0  0  0
 17 18  1  0  0  0
 17 19  2  0  0  0
  7  8  2  0  0  0
  8  9  1  0  0  0
  9 10  2  0  0  0
 10 24  1  0  0  0
 24 26  1  0  0  0
 26 27  1  0  0  0
 27 28  1  0  0  0
 28 29  1  0  0  0
 29 32  1  0  0  0
 32 33  1  0  0  0
 33 34  1  0  0  0
 33 35  1  0  0  0
 29 30  1  0  0  0
 30 31  1  0  0  0
 10  1  1  0  0  0
 31 26  1  0  0  0
  9  4  1  0  0  0
 19 11  1  0  0  0
 16 20  1  0  0  0
 24 25  1  0  0  0
M  END
> <minimizedAffinity>
-8.93704

$$$$
