L3:A0A1D8PKB4:38545
     RDKit          3D

 61 64  0  0  0  0  0  0  0  0999 V2000
   -0.9122   -4.1327   -3.1388 C   0  0  0  0  0  0  0  0  0  0  0  0
   -0.4025   -4.7373   -1.8569 C   0  0  0  0  0  0  0  0  0  0  0  0
    0.2607   -5.7723   -1.8452 O   0  0  0  0  0  0  0  0  0  0  0  0
   -0.7518   -4.0963   -0.5736 C   0  0  0  0  0  0  0  0  0  0  0  0
   -1.1605   -4.9372    0.4501 C   0  0  0  0  0  0  0  0  0  0  0  0
   -1.5984   -4.5010    1.6515 N   0  0  0  0  0  0  0  0  0  0  0  0
   -1.6372   -3.1716    1.8452 C   0  0  0  0  0  0  0  0  0  0  0  0
   -2.0745   -2.6802    3.0623 C   0  0  0  0  0  0  0  0  0  0  0  0
   -2.1161   -1.3094    3.3109 C   0  0  0  0  0  0  0  0  0  0  0  0
   -1.7218   -0.4382    2.3060 C   0  0  0  0  0  0  0  0  0  0  0  0
   -1.7424    1.0214    2.4665 C   0  0  0  0  0  0  0  0  0  0  0  0
   -1.1656    1.6449    3.5863 C   0  0  0  0  0  0  0  0  0  0  0  0
   -1.1846    3.0370    3.7248 C   0  0  0  0  0  0  0  0  0  0  0  0
   -0.4439    3.7312    5.1204 Cl  0  0  0  0  0  0  0  0  0  0  0  0
   -1.7887    3.8312    2.7502 C   0  0  0  0  0  0  0  0  0  0  0  0
   -1.8064    5.1940    2.8964 O   0  0  0  0  0  0  0  0  0  0  0  0
   -2.3677    3.2246    1.6347 C   0  0  0  0  0  0  0  0  0  0  0  0
   -3.1350    4.1812    0.4204 Cl  0  0  0  0  0  0  0  0  0  0  0  0
   -2.3369    1.8367    1.4877 C   0  0  0  0  0  0  0  0  0  0  0  0
   -1.2971   -0.8839    1.1010 N   0  0  0  0  0  0  0  0  0  0  0  0
   -1.2412   -2.2228    0.8789 C   0  0  0  0  0  0  0  0  0  0  0  0
   -0.7541   -2.7123   -0.3501 C   0  0  0  0  0  0  0  0  0  0  0  0
   -0.2030   -1.7765   -1.2598 N   0  0  0  0  0  0  0  0  0  0  0  0
    1.2274   -1.8617   -1.5924 C   0  0  1  0  0  0  0  0  0  0  0  0
    1.4809   -1.1425   -2.9288 C   0  0  0  0  0  0  0  0  0  0  0  0
    2.1899    0.2079   -2.7925 C   0  0  0  0  0  0  0  0  0  0  0  0
    1.6653    1.0144   -1.5954 C   0  0  2  0  0  0  0  0  0  0  0  0
    2.3015    2.4287   -1.5939 C   0  0  0  0  0  0  0  0  0  0  0  0
    1.7058    3.4846   -0.7668 N   0  0  0  0  0  0  0  0  0  0  0  0
    0.3205    3.7743   -1.1139 C   0  0  0  0  0  0  0  0  0  0  0  0
    1.8741    3.3138    0.6686 C   0  0  0  0  0  0  0  0  0  0  0  0
    1.9086    0.2411   -0.2860 C   0  0  0  0  0  0  0  0  0  0  0  0
    2.0823   -1.2713   -0.4664 C   0  0  0  0  0  0  0  0  0  0  0  0
   -1.3390   -4.9295   -3.7554 H   0  0  0  0  0  0  0  0  0  0  0  0
   -0.0887   -3.6588   -3.6769 H   0  0  0  0  0  0  0  0  0  0  0  0
   -1.7052   -3.4031   -2.9564 H   0  0  0  0  0  0  0  0  0  0  0  0
   -1.1618   -6.0185    0.3268 H   0  0  0  0  0  0  0  0  0  0  0  0
   -2.3856   -3.3791    3.8351 H   0  0  0  0  0  0  0  0  0  0  0  0
   -2.4681   -0.9443    4.2706 H   0  0  0  0  0  0  0  0  0  0  0  0
   -0.6778    1.0442    4.3523 H   0  0  0  0  0  0  0  0  0  0  0  0
   -2.2588    5.5749    2.1209 H   0  0  0  0  0  0  0  0  0  0  0  0
   -2.7846    1.3771    0.6074 H   0  0  0  0  0  0  0  0  0  0  0  0
   -0.5363   -0.8304   -1.0536 H   0  0  0  0  0  0  0  0  0  0  0  0
    1.5151   -2.9102   -1.7259 H   0  0  0  0  0  0  0  0  0  0  0  0
    2.1030   -1.7826   -3.5676 H   0  0  0  0  0  0  0  0  0  0  0  0
    0.5389   -1.0033   -3.4749 H   0  0  0  0  0  0  0  0  0  0  0  0
    3.2704    0.0461   -2.6845 H   0  0  0  0  0  0  0  0  0  0  0  0
    2.0538    0.7685   -3.7254 H   0  0  0  0  0  0  0  0  0  0  0  0
    0.5826    1.1182   -1.7395 H   0  0  0  0  0  0  0  0  0  0  0  0
    3.3672    2.3426   -1.3419 H   0  0  0  0  0  0  0  0  0  0  0  0
    2.2979    2.8059   -2.6258 H   0  0  0  0  0  0  0  0  0  0  0  0
    0.2183    3.9653   -2.1878 H   0  0  0  0  0  0  0  0  0  0  0  0
   -0.0182    4.6825   -0.6030 H   0  0  0  0  0  0  0  0  0  0  0  0
   -0.3567    2.9587   -0.8422 H   0  0  0  0  0  0  0  0  0  0  0  0
    1.2338    2.5300    1.0815 H   0  0  0  0  0  0  0  0  0  0  0  0
    1.6264    4.2462    1.1891 H   0  0  0  0  0  0  0  0  0  0  0  0
    2.9160    3.0877    0.9193 H   0  0  0  0  0  0  0  0  0  0  0  0
    1.0645    0.4217    0.3882 H   0  0  0  0  0  0  0  0  0  0  0  0
    2.7991    0.6175    0.2313 H   0  0  0  0  0  0  0  0  0  0  0  0
    3.1377   -1.4737   -0.6934 H   0  0  0  0  0  0  0  0  0  0  0  0
    1.8810   -1.7736    0.4873 H   0  0  0  0  0  0  0  0  0  0  0  0
  1  2  1  0
  2  3  2  0
  2  4  1  0
  4  5  2  0
  5  6  1  0
  6  7  2  0
  7  8  1  0
  8  9  2  0
  9 10  1  0
 10 11  1  0
 11 12  2  0
 12 13  1  0
 13 14  1  0
 13 15  2  0
 15 16  1  0
 15 17  1  0
 17 18  1  0
 17 19  2  0
 10 20  2  0
 20 21  1  0
 21 22  2  0
 22 23  1  0
 23 24  1  0
 24 25  1  0
 25 26  1  0
 26 27  1  0
 27 28  1  0
 28 29  1  0
 29 30  1  0
 29 31  1  0
 27 32  1  0
 32 33  1  0
 22  4  1  0
 33 24  1  0
 21  7  1  0
 19 11  1  0
  1 34  1  0
  1 35  1  0
  1 36  1  0
  5 37  1  0
  8 38  1  0
  9 39  1  0
 12 40  1  0
 16 41  1  0
 19 42  1  0
 23 43  1  0
 24 44  1  6
 25 45  1  0
 25 46  1  0
 26 47  1  0
 26 48  1  0
 27 49  1  6
 28 50  1  0
 28 51  1  0
 30 52  1  0
 30 53  1  0
 30 54  1  0
 31 55  1  0
 31 56  1  0
 31 57  1  0
 32 58  1  0
 32 59  1  0
 33 60  1  0
 33 61  1  0
M  END
>  <mol_id>  (1) 
38545

>  <source_index>  (1) 
4

>  <layer>  (1) 
L3

>  <uniprot>  (1) 
A0A1D8PKB4

>  <paff>  (1) 
6.8860999999999999

>  <smiles>  (1) 
CC(=O)c1cnc2ccc(-c3cc(Cl)c(O)c(Cl)c3)nc2c1N[C@H]1CC[C@H](CN(C)C)CC1

$$$$
