L3:A0A1D8PKB4:65458


 36 40  0  0  0  0  0  0  0  0999 V2000
   21.5385  -17.4343  -15.4341 C   0  0  0  0  0  0  0  0  0  0  0  0
   21.9001  -18.3729  -16.3383 N   0  0  0  0  0  0  0  0  0  0  0  0
   23.1702  -18.6894  -16.0201 N   0  0  0  0  0  0  0  0  0  0  0  0
   23.8342  -19.7225  -16.7786 C   0  0  0  0  0  0  0  0  0  0  0  0
   23.6664  -17.9511  -14.9876 C   0  0  0  0  0  0  0  0  0  0  0  0
   22.6493  -17.0830  -14.6057 C   0  0  0  0  0  0  0  0  0  0  0  0
   22.8281  -16.1030  -13.4554 C   0  0  0  0  0  0  0  0  0  0  0  0
   22.1630  -16.6640  -12.1831 C   0  0  0  0  0  0  0  0  0  0  0  0
   22.2559  -14.7059  -13.7633 C   0  0  0  0  0  0  0  0  0  0  0  0
   24.3651  -15.8858  -13.1681 C   0  0  0  0  0  0  0  0  0  0  0  0
   25.2515  -17.0818  -13.3811 C   0  0  0  0  0  0  0  0  0  0  0  0
   26.4472  -17.2590  -12.7358 C   0  0  0  0  0  0  0  0  0  0  0  0
   27.2664  -18.2987  -12.9757 N   0  0  0  0  0  0  0  0  0  0  0  0
   26.9004  -19.1782  -13.9269 C   0  0  0  0  0  0  0  0  0  0  0  0
   25.7590  -19.0808  -14.6282 N   0  0  0  0  0  0  0  0  0  0  0  0
   24.9595  -18.0429  -14.3297 C   0  0  0  0  0  0  0  0  0  0  0  0
   18.1213  -16.7906  -16.8323 C   0  0  0  0  0  0  0  0  0  0  0  0
   19.4962  -17.1389  -16.6190 N   0  0  0  0  0  0  0  0  0  0  0  0
   20.1395  -16.9578  -15.4133 C   0  0  0  0  0  0  0  0  0  0  0  0
   19.5879  -16.4769  -14.4293 O   0  0  0  0  0  0  0  0  0  0  0  0
   20.0462  -17.6075  -17.3355 H   0  0  0  0  0  0  0  0  0  0  0  0
   27.7856  -20.2390  -14.0922 N   0  0  0  0  0  0  0  0  0  0  0  0
   28.6144  -20.0654  -13.5427 H   0  0  0  0  0  0  0  0  0  0  0  0
   27.7733  -21.3985  -14.8671 C   0  0  0  0  0  0  0  0  0  0  0  0
   28.8867  -21.8883  -15.5413 C   0  0  0  0  0  0  0  0  0  0  0  0
   28.8103  -23.0414  -16.3394 C   0  0  0  0  0  0  0  0  0  0  0  0
   27.6160  -23.7545  -16.5071 C   0  0  0  0  0  0  0  0  0  0  0  0
   26.5001  -23.2488  -15.8278 C   0  0  0  0  0  0  0  0  0  0  0  0
   26.5738  -22.0967  -15.0288 C   0  0  0  0  0  0  0  0  0  0  0  0
   27.5429  -24.8885  -17.2952 N   0  0  0  0  0  0  0  0  0  0  0  0
   26.6211  -24.9803  -18.4396 C   0  0  0  0  0  0  0  0  0  0  0  0
   26.2387  -26.4534  -18.7146 C   0  0  0  0  0  0  0  0  0  0  0  0
   27.3864  -27.3305  -19.0319 N   0  0  0  0  0  0  0  0  0  0  0  0
   27.0664  -28.7227  -18.7296 C   0  0  0  0  0  0  0  0  0  0  0  0
   28.6120  -26.8839  -18.3370 C   0  0  0  0  0  0  0  0  0  0  0  0
   28.3937  -26.0628  -17.0434 C   0  0  0  0  0  0  0  0  0  0  0  0
 17 18  1  0  0  0
 18 19  1  0  0  0
 19 20  2  0  0  0
 19  1  1  0  0  0
  1  2  2  0  0  0
  2  3  1  0  0  0
  3  4  1  0  0  0
  3  5  1  0  0  0
  5  6  2  0  0  0
  6  7  1  0  0  0
  7  8  1  0  0  0
  7  9  1  0  0  0
  7 10  1  0  0  0
 10 11  1  0  0  0
 11 12  2  0  0  0
 12 13  1  0  0  0
 13 14  2  0  0  0
 14 22  1  0  0  0
 22 24  1  0  0  0
 24 25  2  0  0  0
 25 26  1  0  0  0
 26 27  2  0  0  0
 27 30  1  0  0  0
 30 31  1  0  0  0
 31 32  1  0  0  0
 32 33  1  0  0  0
 33 34  1  0  0  0
 33 35  1  0  0  0
 35 36  1  0  0  0
 27 28  1  0  0  0
 28 29  2  0  0  0
 14 15  1  0  0  0
 15 16  2  0  0  0
  6  1  1  0  0  0
 16 11  1  0  0  0
 16  5  1  0  0  0
 29 24  1  0  0  0
 36 30  1  0  0  0
 18 21  1  0  0  0
 22 23  1  0  0  0
M  END
> <minimizedAffinity>
-9.82226

$$$$
