L3:A0A1D8PKB4:65458
     RDKit          3D

 66 70  0  0  0  0  0  0  0  0999 V2000
   -6.5799    4.3186   -1.5086 C   0  0  0  0  0  0  0  0  0  0  0  0
   -5.5350    3.5192   -0.9372 N   0  0  0  0  0  0  0  0  0  0  0  0
   -5.7740    2.3463   -0.2535 C   0  0  0  0  0  0  0  0  0  0  0  0
   -6.9009    1.8976   -0.0735 O   0  0  0  0  0  0  0  0  0  0  0  0
   -4.5322    1.6855    0.2003 C   0  0  0  0  0  0  0  0  0  0  0  0
   -3.3401    2.1640   -0.2232 N   0  0  0  0  0  0  0  0  0  0  0  0
   -2.4298    1.2861    0.2407 N   0  0  0  0  0  0  0  0  0  0  0  0
   -1.0411    1.4900   -0.0960 C   0  0  0  0  0  0  0  0  0  0  0  0
   -2.9763    0.2940    0.9986 C   0  0  0  0  0  0  0  0  0  0  0  0
   -4.3437    0.5438    1.0396 C   0  0  0  0  0  0  0  0  0  0  0  0
   -5.2994   -0.3745    1.7873 C   0  0  0  0  0  0  0  0  0  0  0  0
   -5.9966   -1.3239    0.7931 C   0  0  0  0  0  0  0  0  0  0  0  0
   -6.3610    0.3953    2.5963 C   0  0  0  0  0  0  0  0  0  0  0  0
   -4.5010   -1.2409    2.8380 C   0  0  0  0  0  0  0  0  0  0  0  0
   -3.1088   -1.6449    2.4381 C   0  0  0  0  0  0  0  0  0  0  0  0
   -2.4754   -2.7562    2.9293 C   0  0  0  0  0  0  0  0  0  0  0  0
   -1.2075   -3.0795    2.6171 N   0  0  0  0  0  0  0  0  0  0  0  0
   -0.5265   -2.2403    1.8144 C   0  0  0  0  0  0  0  0  0  0  0  0
    0.7656   -2.6615    1.5157 N   0  0  0  0  0  0  0  0  0  0  0  0
    1.8566   -2.0652    0.8838 C   0  0  0  0  0  0  0  0  0  0  0  0
    1.9632   -0.6977    0.6545 C   0  0  0  0  0  0  0  0  0  0  0  0
    3.0676   -0.1528   -0.0208 C   0  0  0  0  0  0  0  0  0  0  0  0
    4.1131   -0.9498   -0.5050 C   0  0  0  0  0  0  0  0  0  0  0  0
    5.1985   -0.4111   -1.1714 N   0  0  0  0  0  0  0  0  0  0  0  0
    5.1409    0.9185   -1.8012 C   0  0  0  0  0  0  0  0  0  0  0  0
    6.1377    1.0066   -2.9804 C   0  0  0  0  0  0  0  0  0  0  0  0
    7.5499    0.7857   -2.6007 N   0  0  0  0  0  0  0  0  0  0  0  0
    8.3251    0.3318   -3.7518 C   0  0  0  0  0  0  0  0  0  0  0  0
    7.6597   -0.1480   -1.4602 C   0  0  0  0  0  0  0  0  0  0  0  0
    6.4783   -1.1305   -1.2757 C   0  0  0  0  0  0  0  0  0  0  0  0
    3.9923   -2.3260   -0.2731 C   0  0  0  0  0  0  0  0  0  0  0  0
    2.8898   -2.8734    0.4022 C   0  0  0  0  0  0  0  0  0  0  0  0
   -1.0517   -1.1168    1.2987 N   0  0  0  0  0  0  0  0  0  0  0  0
   -2.3312   -0.8543    1.6140 C   0  0  0  0  0  0  0  0  0  0  0  0
   -6.1957    5.3269   -1.6781 H   0  0  0  0  0  0  0  0  0  0  0  0
   -7.4410    4.3545   -0.8359 H   0  0  0  0  0  0  0  0  0  0  0  0
   -6.8804    3.8726   -2.4601 H   0  0  0  0  0  0  0  0  0  0  0  0
   -4.5527    3.7468   -1.0737 H   0  0  0  0  0  0  0  0  0  0  0  0
   -0.4731    1.5907    0.8312 H   0  0  0  0  0  0  0  0  0  0  0  0
   -0.6974    0.6429   -0.6934 H   0  0  0  0  0  0  0  0  0  0  0  0
   -0.9392    2.4088   -0.6806 H   0  0  0  0  0  0  0  0  0  0  0  0
   -5.2693   -1.9342    0.2451 H   0  0  0  0  0  0  0  0  0  0  0  0
   -6.6828   -2.0049    1.3091 H   0  0  0  0  0  0  0  0  0  0  0  0
   -6.5800   -0.7703    0.0495 H   0  0  0  0  0  0  0  0  0  0  0  0
   -5.9053    1.1932    3.1941 H   0  0  0  0  0  0  0  0  0  0  0  0
   -6.8903   -0.2758    3.2839 H   0  0  0  0  0  0  0  0  0  0  0  0
   -7.1274    0.8489    1.9671 H   0  0  0  0  0  0  0  0  0  0  0  0
   -5.0867   -2.1322    3.0992 H   0  0  0  0  0  0  0  0  0  0  0  0
   -4.3872   -0.6638    3.7674 H   0  0  0  0  0  0  0  0  0  0  0  0
   -2.9720   -3.4450    3.6064 H   0  0  0  0  0  0  0  0  0  0  0  0
    0.9056   -3.5877    1.8919 H   0  0  0  0  0  0  0  0  0  0  0  0
    1.2050   -0.0209    1.0305 H   0  0  0  0  0  0  0  0  0  0  0  0
    3.1000    0.9270   -0.1337 H   0  0  0  0  0  0  0  0  0  0  0  0
    5.3639    1.6917   -1.0562 H   0  0  0  0  0  0  0  0  0  0  0  0
    4.1408    1.1134   -2.2073 H   0  0  0  0  0  0  0  0  0  0  0  0
    6.0519    1.9940   -3.4486 H   0  0  0  0  0  0  0  0  0  0  0  0
    5.8256    0.2661   -3.7304 H   0  0  0  0  0  0  0  0  0  0  0  0
    9.3887    0.2685   -3.4969 H   0  0  0  0  0  0  0  0  0  0  0  0
    8.2430    1.0473   -4.5776 H   0  0  0  0  0  0  0  0  0  0  0  0
    7.9978   -0.6507   -4.1105 H   0  0  0  0  0  0  0  0  0  0  0  0
    8.6014   -0.7100   -1.4959 H   0  0  0  0  0  0  0  0  0  0  0  0
    7.7237    0.4703   -0.5547 H   0  0  0  0  0  0  0  0  0  0  0  0
    6.4383   -1.8307   -2.1188 H   0  0  0  0  0  0  0  0  0  0  0  0
    6.6744   -1.7055   -0.3624 H   0  0  0  0  0  0  0  0  0  0  0  0
    4.7474   -3.0155   -0.6395 H   0  0  0  0  0  0  0  0  0  0  0  0
    2.8470   -3.9518    0.5328 H   0  0  0  0  0  0  0  0  0  0  0  0
  1  2  1  0
  2  3  1  0
  3  4  2  0
  3  5  1  0
  5  6  2  0
  6  7  1  0
  7  8  1  0
  7  9  1  0
  9 10  2  0
 10 11  1  0
 11 12  1  0
 11 13  1  0
 11 14  1  0
 14 15  1  0
 15 16  2  0
 16 17  1  0
 17 18  2  0
 18 19  1  0
 19 20  1  0
 20 21  2  0
 21 22  1  0
 22 23  2  0
 23 24  1  0
 24 25  1  0
 25 26  1  0
 26 27  1  0
 27 28  1  0
 27 29  1  0
 29 30  1  0
 23 31  1  0
 31 32  2  0
 18 33  1  0
 33 34  2  0
 10  5  1  0
 34 15  1  0
 34  9  1  0
 32 20  1  0
 30 24  1  0
  1 35  1  0
  1 36  1  0
  1 37  1  0
  2 38  1  0
  8 39  1  0
  8 40  1  0
  8 41  1  0
 12 42  1  0
 12 43  1  0
 12 44  1  0
 13 45  1  0
 13 46  1  0
 13 47  1  0
 14 48  1  0
 14 49  1  0
 16 50  1  0
 19 51  1  0
 21 52  1  0
 22 53  1  0
 25 54  1  0
 25 55  1  0
 26 56  1  0
 26 57  1  0
 28 58  1  0
 28 59  1  0
 28 60  1  0
 29 61  1  0
 29 62  1  0
 30 63  1  0
 30 64  1  0
 31 65  1  0
 32 66  1  0
M  END
>  <mol_id>  (1) 
65458

>  <source_index>  (1) 
5

>  <layer>  (1) 
L3

>  <uniprot>  (1) 
A0A1D8PKB4

>  <paff>  (1) 
6.1135000000000002

>  <smiles>  (1) 
CNC(=O)c1nn(C)c-2c1C(C)(C)Cc1cnc(Nc3ccc(cc3)N3CCN(C)CC3)nc-21

$$$$
