L3:A0A1D8PKB4:66338


 34 36  0  0  0  0  0  0  0  0999 V2000
   19.7111  -20.9101  -16.4922 N   0  0  0  0  0  0  0  0  0  0  0  0
   20.9817  -20.6098  -16.2766 C   0  0  0  0  0  0  0  0  0  0  0  0
   21.6685  -21.3204  -15.3519 N   0  0  0  0  0  0  0  0  0  0  0  0
   22.8837  -20.8312  -15.4361 C   0  0  0  0  0  0  0  0  0  0  0  0
   22.8661  -19.7011  -16.2609 N   0  0  0  0  0  0  0  0  0  0  0  0
   21.6654  -19.6667  -16.9050 N   0  0  0  0  0  0  0  0  0  0  0  0
   19.2550  -21.6544  -15.9855 H   0  0  0  0  0  0  0  0  0  0  0  0
   19.1704  -20.4100  -17.1834 H   0  0  0  0  0  0  0  0  0  0  0  0
   23.9733  -21.3426  -14.8093 N   0  0  0  0  0  0  0  0  0  0  0  0
   23.8103  -21.6440  -13.8483 H   0  0  0  0  0  0  0  0  0  0  0  0
   25.0298  -22.0741  -15.4042 C   0  0  0  0  0  0  0  0  0  0  0  0
   26.3535  -22.0367  -14.9400 C   0  0  0  0  0  0  0  0  0  0  0  0
   27.3424  -22.8369  -15.5212 C   0  0  0  0  0  0  0  0  0  0  0  0
   27.0060  -23.6966  -16.5668 C   0  0  0  0  0  0  0  0  0  0  0  0
   25.7004  -23.7415  -17.0548 C   0  0  0  0  0  0  0  0  0  0  0  0
   24.7206  -22.9349  -16.4701 C   0  0  0  0  0  0  0  0  0  0  0  0
   28.2533  -24.7190  -17.3038 S   0  0  0  0  0  0  0  0  0  0  0  0
   28.0808  -26.1436  -16.4224 N   0  0  0  0  0  0  0  0  0  0  0  0
   27.8734  -24.9930  -18.6689 O   0  0  0  0  0  0  0  0  0  0  0  0
   29.5481  -24.1885  -16.9461 O   0  0  0  0  0  0  0  0  0  0  0  0
   28.9392  -26.3098  -15.8936 H   0  0  0  0  0  0  0  0  0  0  0  0
   27.2572  -26.1509  -15.8221 H   0  0  0  0  0  0  0  0  0  0  0  0
   23.7991  -18.6409  -16.4449 C   0  0  0  0  0  0  0  0  0  0  0  0
   25.1304  -18.7279  -17.4779 S   0  0  0  0  0  0  0  0  0  0  0  0
   23.4769  -17.5657  -15.6108 N   0  0  0  0  0  0  0  0  0  0  0  0
   22.9184  -16.8126  -16.0129 H   0  0  0  0  0  0  0  0  0  0  0  0
   23.7445  -17.3668  -14.2284 C   0  0  0  0  0  0  0  0  0  0  0  0
   24.8099  -17.9205  -13.5135 C   0  0  0  0  0  0  0  0  0  0  0  0
   25.7717  -18.6230  -14.1254 F   0  0  0  0  0  0  0  0  0  0  0  0
   24.9868  -17.6564  -12.1520 C   0  0  0  0  0  0  0  0  0  0  0  0
   24.1131  -16.8026  -11.4815 C   0  0  0  0  0  0  0  0  0  0  0  0
   23.0789  -16.1943  -12.1860 C   0  0  0  0  0  0  0  0  0  0  0  0
   22.9152  -16.4691  -13.5434 C   0  0  0  0  0  0  0  0  0  0  0  0
   21.9177  -15.8578  -14.2008 F   0  0  0  0  0  0  0  0  0  0  0  0
  1  2  1  0  0  0
  2  3  1  0  0  0
  3  4  2  0  0  0
  4  9  1  0  0  0
  9 11  1  0  0  0
 11 12  2  0  0  0
 12 13  1  0  0  0
 13 14  2  0  0  0
 14 17  1  0  0  0
 17 18  1  0  0  0
 17 19  2  0  0  0
 17 20  2  0  0  0
 14 15  1  0  0  0
 15 16  2  0  0  0
  4  5  1  0  0  0
  5 23  1  0  0  0
 23 24  2  0  0  0
 23 25  1  0  0  0
 25 27  1  0  0  0
 27 28  2  0  0  0
 28 29  1  0  0  0
 28 30  1  0  0  0
 30 31  2  0  0  0
 31 32  1  0  0  0
 32 33  2  0  0  0
 33 34  1  0  0  0
  5  6  1  0  0  0
  6  2  2  0  0  0
 16 11  1  0  0  0
 33 27  1  0  0  0
  1  7  1  0  0  0
  1  8  1  0  0  0
  9 10  1  0  0  0
 18 21  1  0  0  0
 18 22  1  0  0  0
 25 26  1  0  0  0
M  END
> <minimizedAffinity>
-8.75095

$$$$
