L3:A0A1D8PKB4:69135
     RDKit          3D

 35 38  0  0  0  0  0  0  0  0999 V2000
    3.3611    6.1322   -0.6566 N   0  0  0  0  0  0  0  0  0  0  0  0
    2.7970    5.1188   -0.6299 C   0  0  0  0  0  0  0  0  0  0  0  0
    2.1021    3.8733   -0.6084 C   0  0  0  0  0  0  0  0  0  0  0  0
    1.5425    3.3529   -1.8553 C   0  0  0  0  0  0  0  0  0  0  0  0
    0.8918    2.1762   -1.8474 C   0  0  0  0  0  0  0  0  0  0  0  0
    0.7605    1.4687   -0.6483 N   0  0  0  0  0  0  0  0  0  0  0  0
    0.1418    0.2543   -0.3825 C   0  0  0  0  0  0  0  0  0  0  0  0
   -0.5537   -0.5415   -1.3909 C   0  0  0  0  0  0  0  0  0  0  0  0
   -1.9392   -0.6926   -1.3349 C   0  0  0  0  0  0  0  0  0  0  0  0
   -2.5554   -1.4618   -2.3070 C   0  0  0  0  0  0  0  0  0  0  0  0
   -1.8913   -2.0762   -3.3091 N   0  0  0  0  0  0  0  0  0  0  0  0
   -0.5511   -1.9234   -3.3374 C   0  0  0  0  0  0  0  0  0  0  0  0
    0.1565   -1.1750   -2.4120 C   0  0  0  0  0  0  0  0  0  0  0  0
    0.2983    0.0808    0.9893 C   0  0  0  0  0  0  0  0  0  0  0  0
   -0.1948   -1.0198    1.8055 C   0  0  0  0  0  0  0  0  0  0  0  0
   -0.1876   -2.3480    1.3540 C   0  0  0  0  0  0  0  0  0  0  0  0
   -0.6694   -3.3759    2.1697 C   0  0  0  0  0  0  0  0  0  0  0  0
   -1.1475   -3.0788    3.4400 C   0  0  0  0  0  0  0  0  0  0  0  0
   -1.6076   -4.0657    4.2196 F   0  0  0  0  0  0  0  0  0  0  0  0
   -1.1485   -1.7738    3.9146 C   0  0  0  0  0  0  0  0  0  0  0  0
   -0.6684   -0.7463    3.0992 C   0  0  0  0  0  0  0  0  0  0  0  0
    0.9824    1.1356    1.5517 N   0  0  0  0  0  0  0  0  0  0  0  0
    1.2634    1.9452    0.5585 C   0  0  0  0  0  0  0  0  0  0  0  0
    1.9597    3.1877    0.5456 C   0  0  0  0  0  0  0  0  0  0  0  0
    1.6570    3.9278   -2.7703 H   0  0  0  0  0  0  0  0  0  0  0  0
    0.4514    1.7487   -2.7397 H   0  0  0  0  0  0  0  0  0  0  0  0
   -2.5310   -0.2278   -0.5531 H   0  0  0  0  0  0  0  0  0  0  0  0
   -3.6318   -1.6099   -2.3048 H   0  0  0  0  0  0  0  0  0  0  0  0
   -0.0438   -2.4378   -4.1488 H   0  0  0  0  0  0  0  0  0  0  0  0
    1.2363   -1.1020   -2.4853 H   0  0  0  0  0  0  0  0  0  0  0  0
    0.2045   -2.6045    0.3738 H   0  0  0  0  0  0  0  0  0  0  0  0
   -0.6676   -4.4046    1.8233 H   0  0  0  0  0  0  0  0  0  0  0  0
   -1.5165   -1.5626    4.9132 H   0  0  0  0  0  0  0  0  0  0  0  0
   -0.6619    0.2750    3.4767 H   0  0  0  0  0  0  0  0  0  0  0  0
    2.3608    3.5507    1.4871 H   0  0  0  0  0  0  0  0  0  0  0  0
  1  2  3  0
  2  3  1  0
  3  4  1  0
  4  5  2  0
  5  6  1  0
  6  7  1  0
  7  8  1  0
  8  9  2  0
  9 10  1  0
 10 11  2  0
 11 12  1  0
 12 13  2  0
  7 14  2  0
 14 15  1  0
 15 16  2  0
 16 17  1  0
 17 18  2  0
 18 19  1  0
 18 20  1  0
 20 21  2  0
 14 22  1  0
 22 23  2  0
 23 24  1  0
 24  3  2  0
 23  6  1  0
 13  8  1  0
 21 15  1  0
  4 25  1  0
  5 26  1  0
  9 27  1  0
 10 28  1  0
 12 29  1  0
 13 30  1  0
 16 31  1  0
 17 32  1  0
 20 33  1  0
 21 34  1  0
 24 35  1  0
M  END
>  <mol_id>  (1) 
69135

>  <source_index>  (1) 
7

>  <layer>  (1) 
L3

>  <uniprot>  (1) 
A0A1D8PKB4

>  <paff>  (1) 
6.8860999999999999

>  <smiles>  (1) 
N#Cc1ccn2c(-c3ccncc3)c(-c3ccc(F)cc3)nc2c1

$$$$
