L3:A0A1D8PKB4:69135
 OpenBabel09212617473D

 35 38  0  0  0  0  0  0  0  0999 V2000
   22.5854  -20.8690  -16.6331 C   0  0  0  0  0  0  0  0  0  0  0  0
   23.8760  -21.0885  -15.9813 C   0  0  0  0  0  0  0  0  0  0  0  0
   24.3696  -20.1465  -15.1585 C   0  0  0  0  0  0  0  0  0  0  0  0
   23.6423  -18.9724  -14.9391 N   0  0  0  0  0  0  0  0  0  0  0  0
   23.9306  -17.8695  -14.1462 C   0  0  0  0  0  0  0  0  0  0  0  0
   22.8240  -17.0390  -14.2956 C   0  0  0  0  0  0  0  0  0  0  0  0
   21.8911  -17.5967  -15.1416 N   0  0  0  0  0  0  0  0  0  0  0  0
   22.4027  -18.7413  -15.5276 C   0  0  0  0  0  0  0  0  0  0  0  0
   21.8862  -19.7370  -16.4055 C   0  0  0  0  0  0  0  0  0  0  0  0
   22.5869  -15.7541  -13.6527 C   0  0  0  0  0  0  0  0  0  0  0  0
   23.5408  -14.7254  -13.6618 C   0  0  0  0  0  0  0  0  0  0  0  0
   23.2731  -13.5058  -13.0333 C   0  0  0  0  0  0  0  0  0  0  0  0
   22.0490  -13.3097  -12.4059 C   0  0  0  0  0  0  0  0  0  0  0  0
   21.7951  -12.1400  -11.8054 F   0  0  0  0  0  0  0  0  0  0  0  0
   21.0832  -14.3073  -12.3989 C   0  0  0  0  0  0  0  0  0  0  0  0
   21.3509  -15.5266  -13.0257 C   0  0  0  0  0  0  0  0  0  0  0  0
   25.1307  -17.7526  -13.3217 C   0  0  0  0  0  0  0  0  0  0  0  0
   25.0228  -17.6216  -11.9372 C   0  0  0  0  0  0  0  0  0  0  0  0
   26.1864  -17.5062  -11.1961 C   0  0  0  0  0  0  0  0  0  0  0  0
   27.4233  -17.5129  -11.7372 N   0  0  0  0  0  0  0  0  0  0  0  0
   27.5024  -17.6314  -13.0788 C   0  0  0  0  0  0  0  0  0  0  0  0
   26.3985  -17.7526  -13.9057 C   0  0  0  0  0  0  0  0  0  0  0  0
   21.6536  -22.6810  -18.2264 N   0  0  0  0  0  0  0  0  0  0  0  0
   22.0749  -21.8716  -17.5099 C   0  0  0  0  0  0  0  0  0  0  0  0
   24.4035  -21.9591  -16.1514 H   0  0  0  0  0  0  0  0  0  0  0  0
   25.2791  -20.2890  -14.6920 H   0  0  0  0  0  0  0  0  0  0  0  0
   20.9753  -19.5926  -16.8686 H   0  0  0  0  0  0  0  0  0  0  0  0
   24.4461  -14.8700  -14.1356 H   0  0  0  0  0  0  0  0  0  0  0  0
   23.9811  -12.7549  -13.0353 H   0  0  0  0  0  0  0  0  0  0  0  0
   20.1752  -14.1493  -11.9345 H   0  0  0  0  0  0  0  0  0  0  0  0
   20.6330  -16.2680  -13.0281 H   0  0  0  0  0  0  0  0  0  0  0  0
   24.0991  -17.6110  -11.4771 H   0  0  0  0  0  0  0  0  0  0  0  0
   26.1037  -17.4096  -10.1720 H   0  0  0  0  0  0  0  0  0  0  0  0
   28.4385  -17.6317  -13.5132 H   0  0  0  0  0  0  0  0  0  0  0  0
   26.5102  -17.8407  -14.9278 H   0  0  0  0  0  0  0  0  0  0  0  0
  1  2  1  0  0  0  0
  2  3  2  0  0  0  0
  2 25  1  0  0  0  0
  3  4  1  0  0  0  0
  3 26  1  0  0  0  0
  4  5  1  0  0  0  0
  5 17  1  0  0  0  0
  5  6  2  0  0  0  0
  6 10  1  0  0  0  0
  6  7  1  0  0  0  0
  7  8  2  0  0  0  0
  8  9  1  0  0  0  0
  8  4  1  0  0  0  0
  9  1  2  0  0  0  0
  9 27  1  0  0  0  0
 10 11  2  0  0  0  0
 11 12  1  0  0  0  0
 11 28  1  0  0  0  0
 12 13  2  0  0  0  0
 12 29  1  0  0  0  0
 13 14  1  0  0  0  0
 13 15  1  0  0  0  0
 15 16  2  0  0  0  0
 15 30  1  0  0  0  0
 16 10  1  0  0  0  0
 16 31  1  0  0  0  0
 17 18  2  0  0  0  0
 18 19  1  0  0  0  0
 18 32  1  0  0  0  0
 19 20  2  0  0  0  0
 19 33  1  0  0  0  0
 20 21  1  0  0  0  0
 21 22  2  0  0  0  0
 21 34  1  0  0  0  0
 22 17  1  0  0  0  0
 22 35  1  0  0  0  0
 23 24  3  0  0  0  0
 24  1  1  0  0  0  0
M  END
>  <minimizedAffinity>
-9.70938

$$$$
