L2:Q8NER1:27152
     RDKit          3D

 61 64  0  0  0  0  0  0  0  0999 V2000
  140.6965  151.8447  171.7257 N   0  0  0  0  0  0  0  0  0  0  0  0
  141.6103  152.2725  170.7861 C   0  0  0  0  0  0  0  0  0  0  0  0
  141.7291  151.7334  169.6837 O   0  0  0  0  0  0  0  0  0  0  0  0
  140.6152  152.3336  172.6059 H   0  0  0  0  0  0  0  0  0  0  0  0
  142.5129  153.4888  171.1987 C   0  0  0  0  0  0  0  0  0  0  0  0
  141.5878  154.6114  171.7207 C   0  0  0  0  0  0  0  0  0  0  0  0
  142.2141  156.0041  171.7462 C   0  0  0  0  0  0  0  0  0  0  0  0
  143.0145  156.3563  170.4931 C   0  0  0  0  0  0  0  0  0  0  0  0
  142.9750  155.2762  169.4196 C   0  0  0  0  0  0  0  0  0  0  0  0
  143.3758  153.9158  169.9865 C   0  0  0  0  0  0  0  0  0  0  0  0
  143.3360  152.9327  172.2863 N   0  0  0  0  0  0  0  0  0  0  0  0
  144.3496  152.0313  172.1950 C   0  0  0  0  0  0  0  0  0  0  0  0
  144.7185  151.4877  171.1637 O   0  0  0  0  0  0  0  0  0  0  0  0
  143.1332  153.2805  173.2207 H   0  0  0  0  0  0  0  0  0  0  0  0
  144.8769  151.8223  173.4613 O   0  0  0  0  0  0  0  0  0  0  0  0
  146.2709  151.9086  173.5637 C   0  0  0  0  0  0  0  0  0  0  0  0
  146.8961  151.1280  174.5345 C   0  0  0  0  0  0  0  0  0  0  0  0
  148.2767  151.2260  174.7041 C   0  0  0  0  0  0  0  0  0  0  0  0
  149.0161  152.1100  173.9150 C   0  0  0  0  0  0  0  0  0  0  0  0
  148.3766  152.9026  172.9586 C   0  0  0  0  0  0  0  0  0  0  0  0
  146.9958  152.8102  172.7855 C   0  0  0  0  0  0  0  0  0  0  0  0
  139.8548  150.6769  171.5194 C   0  0  0  0  0  0  0  0  0  0  0  0
  140.6292  149.3635  171.6681 C   0  0  0  0  0  0  0  0  0  0  0  0
  144.9771  147.8823  172.6461 C   0  0  0  0  0  0  0  0  0  0  0  0
  145.2871  148.0033  173.9990 C   0  0  0  0  0  0  0  0  0  0  0  0
  144.3547  148.5111  174.9137 C   0  0  0  0  0  0  0  0  0  0  0  0
  143.1009  148.8920  174.4254 C   0  0  0  0  0  0  0  0  0  0  0  0
  142.0099  149.4080  175.0834 N   0  0  0  0  0  0  0  0  0  0  0  0
  140.9872  149.6324  174.2020 C   0  0  0  0  0  0  0  0  0  0  0  0
  141.4169  149.2734  172.9381 C   0  0  0  0  0  0  0  0  0  0  0  0
  142.7576  148.7903  173.0788 C   0  0  0  0  0  0  0  0  0  0  0  0
  143.7149  148.2748  172.1818 C   0  0  0  0  0  0  0  0  0  0  0  0
  141.9732  149.5863  176.0786 H   0  0  0  0  0  0  0  0  0  0  0  0
  146.3210  148.3280  170.7338 C   0  0  0  0  0  0  0  0  0  0  0  0
  145.8074  147.3931  171.6736 O   0  0  0  0  0  0  0  0  0  0  0  0
  141.2932  154.3616  172.7185 H   0  0  0  0  0  0  0  0  0  0  0  0
  140.7671  154.6650  171.0363 H   0  0  0  0  0  0  0  0  0  0  0  0
  142.8698  156.0613  172.5898 H   0  0  0  0  0  0  0  0  0  0  0  0
  141.4056  156.7029  171.8000 H   0  0  0  0  0  0  0  0  0  0  0  0
  144.0341  156.5142  170.7765 H   0  0  0  0  0  0  0  0  0  0  0  0
  142.5682  157.2330  170.0722 H   0  0  0  0  0  0  0  0  0  0  0  0
  143.6525  155.5400  168.6346 H   0  0  0  0  0  0  0  0  0  0  0  0
  141.9741  155.2057  169.0479 H   0  0  0  0  0  0  0  0  0  0  0  0
  144.3990  153.9632  170.2959 H   0  0  0  0  0  0  0  0  0  0  0  0
  143.2256  153.1901  169.2147 H   0  0  0  0  0  0  0  0  0  0  0  0
  146.3430  150.4842  175.1216 H   0  0  0  0  0  0  0  0  0  0  0  0
  148.7521  150.6454  175.4126 H   0  0  0  0  0  0  0  0  0  0  0  0
  150.0384  152.1779  174.0389 H   0  0  0  0  0  0  0  0  0  0  0  0
  148.9263  153.5568  172.3799 H   0  0  0  0  0  0  0  0  0  0  0  0
  146.5162  153.4023  172.0895 H   0  0  0  0  0  0  0  0  0  0  0  0
  139.0636  150.6924  172.2395 H   0  0  0  0  0  0  0  0  0  0  0  0
  139.4767  150.7206  170.5194 H   0  0  0  0  0  0  0  0  0  0  0  0
  139.9299  148.5539  171.6455 H   0  0  0  0  0  0  0  0  0  0  0  0
  141.3295  149.3186  170.8603 H   0  0  0  0  0  0  0  0  0  0  0  0
  146.2196  147.7139  174.3334 H   0  0  0  0  0  0  0  0  0  0  0  0
  144.5859  148.6011  175.9154 H   0  0  0  0  0  0  0  0  0  0  0  0
  140.0550  150.0057  174.4401 H   0  0  0  0  0  0  0  0  0  0  0  0
  143.4852  148.1862  171.1796 H   0  0  0  0  0  0  0  0  0  0  0  0
  146.9508  147.8203  170.0334 H   0  0  0  0  0  0  0  0  0  0  0  0
  146.8889  149.0751  171.2478 H   0  0  0  0  0  0  0  0  0  0  0  0
  145.5099  148.7922  170.2128 H   0  0  0  0  0  0  0  0  0  0  0  0
  1  2  1  0
  1  4  1  0
  2  3  2  0
  2  5  1  0
  5 11  1  0
  5  6  1  0
  6  7  1  0
  6 36  1  0
  6 37  1  0
  7  8  1  0
  7 38  1  0
  7 39  1  0
  8  9  1  0
  8 40  1  0
  8 41  1  0
  9 10  1  0
  9 42  1  0
  9 43  1  0
 10  5  1  0
 10 44  1  0
 10 45  1  0
 11 12  1  0
 11 14  1  0
 12 13  2  0
 12 15  1  0
 15 16  1  0
 16 17  2  0
 17 18  1  0
 17 46  1  0
 18 19  2  0
 18 47  1  0
 19 20  1  0
 19 48  1  0
 20 21  2  0
 20 49  1  0
 21 16  1  0
 21 50  1  0
 22  1  1  0
 22 51  1  0
 22 52  1  0
 23 22  1  0
 23 53  1  0
 23 54  1  0
 24 25  2  0
 25 26  1  0
 25 55  1  0
 26 27  2  0
 26 56  1  0
 27 28  1  0
 28 29  1  0
 28 33  1  0
 29 30  2  0
 29 57  1  0
 30 23  1  0
 30 31  1  0
 31 32  2  0
 31 27  1  0
 32 24  1  0
 32 58  1  0
 34 35  1  0
 34 59  1  0
 34 60  1  0
 34 61  1  0
 35 24  1  0
M  END
>  <minimizedAffinity>  (1) 
-8.87394

>  <mol_id>  (1) 
27152

>  <source_index>  (1) 
0

>  <layer>  (1) 
L2

>  <uniprot>  (1) 
Q8NER1

>  <paff>  (1) 
7.0223000000000004

>  <smiles>  (1) 
COc1ccc2[nH]cc(CCNC(=O)C3(NC(=O)Oc4ccccc4)CCCCC3)c2c1

$$$$
L2:Q8NER1:35078
     RDKit          3D

 57 60  0  0  0  0  0  0  0  0999 V2000
  142.9852  153.7611  171.4577 C   0  0  0  0  0  0  0  0  0  0  0  0
  144.1170  154.4415  170.6559 C   0  0  0  0  0  0  0  0  0  0  0  0
  143.6621  155.5804  169.7412 C   0  0  0  0  0  0  0  0  0  0  0  0
  142.7770  156.5864  170.4626 C   0  0  0  0  0  0  0  0  0  0  0  0
  141.5938  155.9027  171.1320 C   0  0  0  0  0  0  0  0  0  0  0  0
  142.0589  154.8223  172.1049 C   0  0  0  0  0  0  0  0  0  0  0  0
  144.8573  151.5570  171.2943 O   0  0  0  0  0  0  0  0  0  0  0  0
  144.5438  152.0257  172.3772 C   0  0  0  0  0  0  0  0  0  0  0  0
  143.5512  152.9520  172.5679 N   0  0  0  0  0  0  0  0  0  0  0  0
  143.5839  153.3718  173.4872 H   0  0  0  0  0  0  0  0  0  0  0  0
  145.1045  151.7153  173.6044 O   0  0  0  0  0  0  0  0  0  0  0  0
  146.4945  151.8558  173.6535 C   0  0  0  0  0  0  0  0  0  0  0  0
  147.1374  152.7895  172.8415 C   0  0  0  0  0  0  0  0  0  0  0  0
  148.5186  152.9462  172.9487 C   0  0  0  0  0  0  0  0  0  0  0  0
  149.2392  152.1840  173.8713 C   0  0  0  0  0  0  0  0  0  0  0  0
  148.5807  151.2657  174.6928 C   0  0  0  0  0  0  0  0  0  0  0  0
  147.1998  151.1035  174.5909 C   0  0  0  0  0  0  0  0  0  0  0  0
  142.0937  152.8419  170.5552 C   0  0  0  0  0  0  0  0  0  0  0  0
  142.1074  152.8803  169.3281 O   0  0  0  0  0  0  0  0  0  0  0  0
  141.1470  152.1155  171.2635 N   0  0  0  0  0  0  0  0  0  0  0  0
  141.4134  151.9212  172.2212 H   0  0  0  0  0  0  0  0  0  0  0  0
  140.3236  151.1294  170.5854 C   0  0  0  0  0  0  0  0  0  0  0  0
  140.4424  149.7545  171.2403 C   0  0  0  0  0  0  0  0  0  0  0  0
  141.8410  149.2281  171.2286 C   0  0  0  0  0  0  0  0  0  0  0  0
  142.5794  148.8874  170.1122 C   0  0  0  0  0  0  0  0  0  0  0  0
  143.8098  148.4529  170.5266 N   0  0  0  0  0  0  0  0  0  0  0  0
  143.8961  148.5023  171.8977 C   0  0  0  0  0  0  0  0  0  0  0  0
  144.9544  148.1591  172.7483 C   0  0  0  0  0  0  0  0  0  0  0  0
  144.7555  148.3105  174.1232 C   0  0  0  0  0  0  0  0  0  0  0  0
  143.5466  148.7865  174.6248 C   0  0  0  0  0  0  0  0  0  0  0  0
  142.4994  149.1256  173.7598 C   0  0  0  0  0  0  0  0  0  0  0  0
  142.6739  148.9829  172.3677 C   0  0  0  0  0  0  0  0  0  0  0  0
  144.5530  148.1401  169.9180 H   0  0  0  0  0  0  0  0  0  0  0  0
  144.5894  153.6968  170.0500 H   0  0  0  0  0  0  0  0  0  0  0  0
  144.7748  154.8797  171.3771 H   0  0  0  0  0  0  0  0  0  0  0  0
  143.1129  155.1648  168.9223 H   0  0  0  0  0  0  0  0  0  0  0  0
  144.5364  156.0976  169.4051 H   0  0  0  0  0  0  0  0  0  0  0  0
  142.4118  157.3002  169.7541 H   0  0  0  0  0  0  0  0  0  0  0  0
  143.3607  157.0680  171.2191 H   0  0  0  0  0  0  0  0  0  0  0  0
  140.9788  155.4540  170.3801 H   0  0  0  0  0  0  0  0  0  0  0  0
  141.0431  156.6382  171.6803 H   0  0  0  0  0  0  0  0  0  0  0  0
  141.1959  154.3248  172.4956 H   0  0  0  0  0  0  0  0  0  0  0  0
  142.6274  155.3112  172.8682 H   0  0  0  0  0  0  0  0  0  0  0  0
  146.5977  153.3573  172.1697 H   0  0  0  0  0  0  0  0  0  0  0  0
  149.0089  153.6256  172.3462 H   0  0  0  0  0  0  0  0  0  0  0  0
  150.2619  152.2997  173.9463 H   0  0  0  0  0  0  0  0  0  0  0  0
  149.1167  150.7072  175.3753 H   0  0  0  0  0  0  0  0  0  0  0  0
  146.7059  150.4345  175.2021 H   0  0  0  0  0  0  0  0  0  0  0  0
  140.6376  151.0567  169.5651 H   0  0  0  0  0  0  0  0  0  0  0  0
  139.3029  151.4440  170.6485 H   0  0  0  0  0  0  0  0  0  0  0  0
  139.8141  149.0683  170.7118 H   0  0  0  0  0  0  0  0  0  0  0  0
  140.1447  149.8572  172.2629 H   0  0  0  0  0  0  0  0  0  0  0  0
  142.2586  148.9497  169.1333 H   0  0  0  0  0  0  0  0  0  0  0  0
  145.8490  147.8070  172.3732 H   0  0  0  0  0  0  0  0  0  0  0  0
  145.5159  148.0659  174.7767 H   0  0  0  0  0  0  0  0  0  0  0  0
  143.4216  148.8902  175.6439 H   0  0  0  0  0  0  0  0  0  0  0  0
  141.6061  149.4775  174.1382 H   0  0  0  0  0  0  0  0  0  0  0  0
  1 18  1  0
  1  2  1  0
  2  3  1  0
  2 34  1  0
  2 35  1  0
  3  4  1  0
  3 36  1  0
  3 37  1  0
  4  5  1  0
  4 38  1  0
  4 39  1  0
  5  6  1  0
  5 40  1  0
  5 41  1  0
  6  1  1  0
  6 42  1  0
  6 43  1  0
  7  8  2  0
  8  9  1  0
  8 11  1  0
  9  1  1  0
  9 10  1  0
 11 12  1  0
 12 13  2  0
 13 14  1  0
 13 44  1  0
 14 15  2  0
 14 45  1  0
 15 16  1  0
 15 46  1  0
 16 17  2  0
 16 47  1  0
 17 12  1  0
 17 48  1  0
 18 19  2  0
 18 20  1  0
 20 22  1  0
 20 21  1  0
 22 23  1  0
 22 49  1  0
 22 50  1  0
 23 24  1  0
 23 51  1  0
 23 52  1  0
 24 25  2  0
 25 26  1  0
 25 53  1  0
 26 27  1  0
 26 33  1  0
 27 28  2  0
 28 29  1  0
 28 54  1  0
 29 30  2  0
 29 55  1  0
 30 31  1  0
 30 56  1  0
 31 32  2  0
 31 57  1  0
 32 24  1  0
 32 27  1  0
M  END
>  <minimizedAffinity>  (2) 
-9.06979

>  <mol_id>  (2) 
35078

>  <source_index>  (2) 
1

>  <layer>  (2) 
L2

>  <uniprot>  (2) 
Q8NER1

>  <paff>  (2) 
6.6497999999999999

>  <smiles>  (2) 
O=C(NC1(C(=O)NCCc2c[nH]c3ccccc23)CCCCC1)Oc1ccccc1

$$$$
L2:Q8NER1:38542
     RDKit          3D

 65 68  0  0  0  0  0  0  0  0999 V2000
  143.0249  153.3487  172.4928 N   0  0  0  0  0  0  0  0  0  0  0  0
  143.7337  152.1888  172.3079 C   0  0  0  0  0  0  0  0  0  0  0  0
  144.4133  151.9477  171.3229 O   0  0  0  0  0  0  0  0  0  0  0  0
  143.5786  151.3580  173.3917 N   0  0  0  0  0  0  0  0  0  0  0  0
  142.8418  153.5967  173.4539 H   0  0  0  0  0  0  0  0  0  0  0  0
  142.6052  151.3728  173.6733 H   0  0  0  0  0  0  0  0  0  0  0  0
  144.1526  149.9898  173.4294 C   0  0  0  0  0  0  0  0  0  0  0  0
  143.6180  149.2093  172.1947 C   0  0  0  0  0  0  0  0  0  0  0  0
  142.3234  148.4242  172.4545 C   0  0  0  0  0  0  0  0  0  0  0  0
  141.4727  149.0349  173.5604 C   0  0  0  0  0  0  0  0  0  0  0  0
  142.2335  149.1209  174.8849 C   0  0  0  0  0  0  0  0  0  0  0  0
  143.7533  149.2106  174.7026 C   0  0  0  0  0  0  0  0  0  0  0  0
  145.7000  150.1662  173.2418 C   0  0  0  0  0  0  0  0  0  0  0  0
  146.3424  149.3330  172.5973 O   0  0  0  0  0  0  0  0  0  0  0  0
  146.2650  151.2099  173.9577 N   0  0  0  0  0  0  0  0  0  0  0  0
  145.6616  151.7240  174.5845 H   0  0  0  0  0  0  0  0  0  0  0  0
  147.6124  151.6303  173.9405 C   0  0  0  0  0  0  0  0  0  0  0  0
  147.9928  152.5024  172.9123 C   0  0  0  0  0  0  0  0  0  0  0  0
  149.3073  152.9617  172.8143 C   0  0  0  0  0  0  0  0  0  0  0  0
  150.2612  152.5412  173.7380 C   0  0  0  0  0  0  0  0  0  0  0  0
  149.9070  151.6594  174.7696 C   0  0  0  0  0  0  0  0  0  0  0  0
  148.5746  151.2173  174.8654 C   0  0  0  0  0  0  0  0  0  0  0  0
  150.9449  151.2117  175.7699 C   0  0  0  0  0  0  0  0  0  0  0  0
  150.5372  150.1369  176.5028 F   0  0  0  0  0  0  0  0  0  0  0  0
  152.1071  150.8290  175.1700 F   0  0  0  0  0  0  0  0  0  0  0  0
  151.2882  152.1670  176.6768 F   0  0  0  0  0  0  0  0  0  0  0  0
  143.0858  154.4282  171.5236 C   0  0  0  0  0  0  0  0  0  0  0  0
  141.8152  154.5331  170.6752 C   0  0  0  0  0  0  0  0  0  0  0  0
  138.4235  151.3273  171.2355 C   0  0  0  0  0  0  0  0  0  0  0  0
  138.5375  150.2731  170.3299 C   0  0  0  0  0  0  0  0  0  0  0  0
  139.5721  150.2373  169.3851 C   0  0  0  0  0  0  0  0  0  0  0  0
  140.4889  151.2938  169.3799 C   0  0  0  0  0  0  0  0  0  0  0  0
  141.5845  151.5156  168.5791 N   0  0  0  0  0  0  0  0  0  0  0  0
  142.1982  152.6865  168.9314 C   0  0  0  0  0  0  0  0  0  0  0  0
  141.4943  153.2487  169.9786 C   0  0  0  0  0  0  0  0  0  0  0  0
  140.4061  152.3646  170.2683 C   0  0  0  0  0  0  0  0  0  0  0  0
  139.3540  152.3751  171.2076 C   0  0  0  0  0  0  0  0  0  0  0  0
  141.8853  150.9036  167.8350 H   0  0  0  0  0  0  0  0  0  0  0  0
  136.9477  152.7645  172.4272 C   0  0  0  0  0  0  0  0  0  0  0  0
  137.4586  151.4574  172.1993 O   0  0  0  0  0  0  0  0  0  0  0  0
  144.3725  148.5175  171.8833 H   0  0  0  0  0  0  0  0  0  0  0  0
  143.3885  149.9393  171.4468 H   0  0  0  0  0  0  0  0  0  0  0  0
  142.5808  147.4240  172.7344 H   0  0  0  0  0  0  0  0  0  0  0  0
  141.7461  148.4491  171.5539 H   0  0  0  0  0  0  0  0  0  0  0  0
  140.6015  148.4297  173.7007 H   0  0  0  0  0  0  0  0  0  0  0  0
  141.2088  150.0288  173.2648 H   0  0  0  0  0  0  0  0  0  0  0  0
  142.0110  148.2480  175.4624 H   0  0  0  0  0  0  0  0  0  0  0  0
  141.9182  150.0180  175.3756 H   0  0  0  0  0  0  0  0  0  0  0  0
  144.1499  148.2190  174.6364 H   0  0  0  0  0  0  0  0  0  0  0  0
  144.1507  149.7384  175.5443 H   0  0  0  0  0  0  0  0  0  0  0  0
  147.2927  152.8090  172.2189 H   0  0  0  0  0  0  0  0  0  0  0  0
  149.5721  153.6122  172.0582 H   0  0  0  0  0  0  0  0  0  0  0  0
  151.2331  152.8800  173.6630 H   0  0  0  0  0  0  0  0  0  0  0  0
  148.3043  150.5788  175.6298 H   0  0  0  0  0  0  0  0  0  0  0  0
  143.2249  155.3509  172.0472 H   0  0  0  0  0  0  0  0  0  0  0  0
  143.9006  154.2223  170.8613 H   0  0  0  0  0  0  0  0  0  0  0  0
  140.9959  154.7939  171.3121 H   0  0  0  0  0  0  0  0  0  0  0  0
  141.9798  155.2806  169.9275 H   0  0  0  0  0  0  0  0  0  0  0  0
  137.8479  149.5057  170.3558 H   0  0  0  0  0  0  0  0  0  0  0  0
  139.6548  149.4568  168.7150 H   0  0  0  0  0  0  0  0  0  0  0  0
  143.0430  153.0822  168.4901 H   0  0  0  0  0  0  0  0  0  0  0  0
  139.2691  153.1566  171.8763 H   0  0  0  0  0  0  0  0  0  0  0  0
  136.2068  152.7284  173.1983 H   0  0  0  0  0  0  0  0  0  0  0  0
  136.5070  153.1373  171.5263 H   0  0  0  0  0  0  0  0  0  0  0  0
  137.7449  153.4115  172.7285 H   0  0  0  0  0  0  0  0  0  0  0  0
  1  2  1  0
  1  5  1  0
  2  3  2  0
  2  4  1  0
  4  7  1  0
  4  6  1  0
  7 13  1  0
  7  8  1  0
  8  9  1  0
  8 41  1  0
  8 42  1  0
  9 10  1  0
  9 43  1  0
  9 44  1  0
 10 11  1  0
 10 45  1  0
 10 46  1  0
 11 12  1  0
 11 47  1  0
 11 48  1  0
 12  7  1  0
 12 49  1  0
 12 50  1  0
 13 14  2  0
 13 15  1  0
 15 17  1  0
 15 16  1  0
 17 18  2  0
 18 19  1  0
 18 51  1  0
 19 20  2  0
 19 52  1  0
 20 21  1  0
 20 53  1  0
 21 23  1  0
 21 22  2  0
 22 17  1  0
 22 54  1  0
 23 24  1  0
 23 25  1  0
 23 26  1  0
 27  1  1  0
 27 55  1  0
 27 56  1  0
 28 27  1  0
 28 57  1  0
 28 58  1  0
 29 30  2  0
 30 31  1  0
 30 59  1  0
 31 32  2  0
 31 60  1  0
 32 33  1  0
 33 34  1  0
 33 38  1  0
 34 35  2  0
 34 61  1  0
 35 28  1  0
 35 36  1  0
 36 37  2  0
 36 32  1  0
 37 29  1  0
 37 62  1  0
 39 40  1  0
 39 63  1  0
 39 64  1  0
 39 65  1  0
 40 29  1  0
M  END
>  <minimizedAffinity>  (3) 
-9.65521

>  <mol_id>  (3) 
38542

>  <source_index>  (3) 
2

>  <layer>  (3) 
L2

>  <uniprot>  (3) 
Q8NER1

>  <paff>  (3) 
6.1593

>  <smiles>  (3) 
COc1ccc2[nH]cc(CCNC(=O)NC3(C(=O)Nc4cccc(C(F)(F)F)c4)CCCCC3)c2c1

$$$$
L2:Q8NER1:52263
     RDKit          3D

 58 61  0  0  0  0  0  0  0  0999 V2000
  149.5852  151.4725  173.5992 O   0  0  0  0  0  0  0  0  0  0  0  0
  149.2918  152.5697  173.1521 C   0  0  0  0  0  0  0  0  0  0  0  0
  148.0541  152.9003  172.6592 N   0  0  0  0  0  0  0  0  0  0  0  0
  150.1343  153.6544  173.1672 N   0  0  0  0  0  0  0  0  0  0  0  0
  148.0462  153.6119  171.9454 H   0  0  0  0  0  0  0  0  0  0  0  0
  149.8754  154.3863  172.5250 H   0  0  0  0  0  0  0  0  0  0  0  0
  151.5903  153.5142  173.4319 C   0  0  0  0  0  0  0  0  0  0  0  0
  152.3159  152.7641  172.2922 C   0  0  0  0  0  0  0  0  0  0  0  0
  152.3191  153.5441  170.9780 C   0  0  0  0  0  0  0  0  0  0  0  0
  152.9413  154.9239  171.1548 C   0  0  0  0  0  0  0  0  0  0  0  0
  152.2494  155.7171  172.2564 C   0  0  0  0  0  0  0  0  0  0  0  0
  152.1907  154.9406  173.5739 C   0  0  0  0  0  0  0  0  0  0  0  0
  151.8678  152.8136  174.8078 C   0  0  0  0  0  0  0  0  0  0  0  0
  152.9056  152.1858  175.0085 O   0  0  0  0  0  0  0  0  0  0  0  0
  150.9358  153.1547  175.7774 N   0  0  0  0  0  0  0  0  0  0  0  0
  150.0920  153.5798  175.4099 H   0  0  0  0  0  0  0  0  0  0  0  0
  150.9398  152.8199  177.1442 C   0  0  0  0  0  0  0  0  0  0  0  0
  151.7797  153.5698  177.9796 C   0  0  0  0  0  0  0  0  0  0  0  0
  151.8528  153.3002  179.3488 C   0  0  0  0  0  0  0  0  0  0  0  0
  151.0896  152.2723  179.8958 C   0  0  0  0  0  0  0  0  0  0  0  0
  150.2579  151.5222  179.0677 C   0  0  0  0  0  0  0  0  0  0  0  0
  149.2290  150.1169  179.8100 Br  0  0  0  0  0  0  0  0  0  0  0  0
  150.1796  151.7889  177.6984 C   0  0  0  0  0  0  0  0  0  0  0  0
  147.0398  151.8635  172.5300 C   0  0  0  0  0  0  0  0  0  0  0  0
  145.6693  152.3509  172.9998 C   0  0  0  0  0  0  0  0  0  0  0  0
  144.5856  152.0448  172.0183 C   0  0  0  0  0  0  0  0  0  0  0  0
  144.0069  150.8099  171.7982 C   0  0  0  0  0  0  0  0  0  0  0  0
  143.0622  150.9465  170.8168 N   0  0  0  0  0  0  0  0  0  0  0  0
  143.0063  152.2518  170.3873 C   0  0  0  0  0  0  0  0  0  0  0  0
  142.1999  152.8450  169.4078 C   0  0  0  0  0  0  0  0  0  0  0  0
  142.3630  154.2137  169.1752 C   0  0  0  0  0  0  0  0  0  0  0  0
  143.2949  154.9567  169.8952 C   0  0  0  0  0  0  0  0  0  0  0  0
  144.0926  154.3474  170.8716 C   0  0  0  0  0  0  0  0  0  0  0  0
  143.9493  152.9674  171.1254 C   0  0  0  0  0  0  0  0  0  0  0  0
  142.4876  150.1995  170.4523 H   0  0  0  0  0  0  0  0  0  0  0  0
  151.8245  151.8271  172.1325 H   0  0  0  0  0  0  0  0  0  0  0  0
  153.3348  152.6320  172.5910 H   0  0  0  0  0  0  0  0  0  0  0  0
  151.3111  153.6573  170.6374 H   0  0  0  0  0  0  0  0  0  0  0  0
  152.9011  153.0001  170.2637 H   0  0  0  0  0  0  0  0  0  0  0  0
  152.8571  155.4628  170.2343 H   0  0  0  0  0  0  0  0  0  0  0  0
  153.9669  154.7944  171.4309 H   0  0  0  0  0  0  0  0  0  0  0  0
  151.2512  155.9430  171.9442 H   0  0  0  0  0  0  0  0  0  0  0  0
  152.8146  156.6099  172.4247 H   0  0  0  0  0  0  0  0  0  0  0  0
  151.5892  155.4931  174.2652 H   0  0  0  0  0  0  0  0  0  0  0  0
  153.1987  154.8233  173.9130 H   0  0  0  0  0  0  0  0  0  0  0  0
  152.3508  154.3300  177.5785 H   0  0  0  0  0  0  0  0  0  0  0  0
  152.4717  153.8623  179.9537 H   0  0  0  0  0  0  0  0  0  0  0  0
  151.1396  152.0679  180.9061 H   0  0  0  0  0  0  0  0  0  0  0  0
  149.5599  151.2238  177.0970 H   0  0  0  0  0  0  0  0  0  0  0  0
  147.3291  151.0199  173.1212 H   0  0  0  0  0  0  0  0  0  0  0  0
  146.9631  151.5992  171.4960 H   0  0  0  0  0  0  0  0  0  0  0  0
  145.7127  153.4103  173.1436 H   0  0  0  0  0  0  0  0  0  0  0  0
  145.4370  151.8393  173.9104 H   0  0  0  0  0  0  0  0  0  0  0  0
  144.2458  149.9343  172.2894 H   0  0  0  0  0  0  0  0  0  0  0  0
  141.5098  152.2913  168.8766 H   0  0  0  0  0  0  0  0  0  0  0  0
  141.7843  154.6803  168.4594 H   0  0  0  0  0  0  0  0  0  0  0  0
  143.3987  155.9662  169.7074 H   0  0  0  0  0  0  0  0  0  0  0  0
  144.7807  154.9044  171.4019 H   0  0  0  0  0  0  0  0  0  0  0  0
  1  2  2  0
  2  3  1  0
  2  4  1  0
  3 24  1  0
  3  5  1  0
  4  7  1  0
  4  6  1  0
  7 13  1  0
  7  8  1  0
  8  9  1  0
  8 36  1  0
  8 37  1  0
  9 10  1  0
  9 38  1  0
  9 39  1  0
 10 11  1  0
 10 40  1  0
 10 41  1  0
 11 12  1  0
 11 42  1  0
 11 43  1  0
 12  7  1  0
 12 44  1  0
 12 45  1  0
 13 14  2  0
 13 15  1  0
 15 17  1  0
 15 16  1  0
 17 18  2  0
 18 19  1  0
 18 46  1  0
 19 20  2  0
 19 47  1  0
 20 21  1  0
 20 48  1  0
 21 22  1  0
 21 23  2  0
 23 17  1  0
 23 49  1  0
 24 25  1  0
 24 50  1  0
 24 51  1  0
 25 26  1  0
 25 52  1  0
 25 53  1  0
 26 27  2  0
 27 28  1  0
 27 54  1  0
 28 29  1  0
 28 35  1  0
 29 30  2  0
 30 31  1  0
 30 55  1  0
 31 32  2  0
 31 56  1  0
 32 33  1  0
 32 57  1  0
 33 34  2  0
 33 58  1  0
 34 26  1  0
 34 29  1  0
M  END
>  <minimizedAffinity>  (4) 
-9.80968

>  <mol_id>  (4) 
52263

>  <source_index>  (4) 
3

>  <layer>  (4) 
L2

>  <uniprot>  (4) 
Q8NER1

>  <paff>  (4) 
6.1661999999999999

>  <smiles>  (4) 
O=C(NCCc1c[nH]c2ccccc12)NC1(C(=O)Nc2cccc(Br)c2)CCCCC1

$$$$
L2:Q8NER1:62450
     RDKit          3D

 62 65  0  0  0  0  0  0  0  0999 V2000
  141.8166  155.2339  171.3492 C   0  0  0  0  0  0  0  0  0  0  0  0
  141.7443  155.9968  172.7093 C   0  0  0  0  0  0  0  0  0  0  0  0
  140.9363  157.2872  172.5991 C   0  0  0  0  0  0  0  0  0  0  0  0
  141.5970  158.2766  171.6398 C   0  0  0  0  0  0  0  0  0  0  0  0
  142.4548  157.5964  170.5738 C   0  0  0  0  0  0  0  0  0  0  0  0
  141.8772  156.2437  170.1659 C   0  0  0  0  0  0  0  0  0  0  0  0
  140.5929  154.3868  171.2583 N   0  0  0  0  0  0  0  0  0  0  0  0
  140.3797  153.4280  170.3076 C   0  0  0  0  0  0  0  0  0  0  0  0
  141.2122  153.0896  169.4777 O   0  0  0  0  0  0  0  0  0  0  0  0
  139.1236  152.8931  170.4161 N   0  0  0  0  0  0  0  0  0  0  0  0
  139.7369  154.8343  171.5529 H   0  0  0  0  0  0  0  0  0  0  0  0
  138.7812  152.8546  171.3660 H   0  0  0  0  0  0  0  0  0  0  0  0
  138.7197  151.7870  169.5610 C   0  0  0  0  0  0  0  0  0  0  0  0
  138.5693  150.4658  170.3211 C   0  0  0  0  0  0  0  0  0  0  0  0
  139.8943  149.8899  170.7102 C   0  0  0  0  0  0  0  0  0  0  0  0
  140.8995  149.4979  169.8478 C   0  0  0  0  0  0  0  0  0  0  0  0
  141.9485  149.0313  170.5923 N   0  0  0  0  0  0  0  0  0  0  0  0
  141.6537  149.1121  171.9330 C   0  0  0  0  0  0  0  0  0  0  0  0
  142.4216  148.7553  173.0480 C   0  0  0  0  0  0  0  0  0  0  0  0
  141.8571  148.9485  174.3121 C   0  0  0  0  0  0  0  0  0  0  0  0
  140.5760  149.4764  174.4524 C   0  0  0  0  0  0  0  0  0  0  0  0
  139.8222  149.8278  173.3265 C   0  0  0  0  0  0  0  0  0  0  0  0
  140.3684  149.6441  172.0393 C   0  0  0  0  0  0  0  0  0  0  0  0
  142.8172  148.6769  170.2172 H   0  0  0  0  0  0  0  0  0  0  0  0
  142.9667  153.1518  172.0973 N   0  0  0  0  0  0  0  0  0  0  0  0
  143.1052  154.3193  171.3676 C   0  0  0  0  0  0  0  0  0  0  0  0
  144.1171  154.6283  170.7388 O   0  0  0  0  0  0  0  0  0  0  0  0
  142.0872  153.0485  172.6069 H   0  0  0  0  0  0  0  0  0  0  0  0
  145.7585  150.0680  172.8403 C   0  0  0  0  0  0  0  0  0  0  0  0
  145.1872  150.8070  173.8760 C   0  0  0  0  0  0  0  0  0  0  0  0
  144.2661  151.8222  173.6019 C   0  0  0  0  0  0  0  0  0  0  0  0
  143.9015  152.1163  172.2838 C   0  0  0  0  0  0  0  0  0  0  0  0
  144.4728  151.3752  171.2500 C   0  0  0  0  0  0  0  0  0  0  0  0
  145.3970  150.3564  171.5256 C   0  0  0  0  0  0  0  0  0  0  0  0
  146.1035  147.8253  173.5423 C   0  0  0  0  0  0  0  0  0  0  0  0
  146.6432  149.1061  173.2415 O   0  0  0  0  0  0  0  0  0  0  0  0
  142.7384  156.2375  173.0236 H   0  0  0  0  0  0  0  0  0  0  0  0
  141.2570  155.3614  173.4191 H   0  0  0  0  0  0  0  0  0  0  0  0
  140.8635  157.7365  173.5675 H   0  0  0  0  0  0  0  0  0  0  0  0
  139.9654  157.0461  172.2194 H   0  0  0  0  0  0  0  0  0  0  0  0
  142.2191  158.9371  172.2070 H   0  0  0  0  0  0  0  0  0  0  0  0
  140.8139  158.8005  171.1326 H   0  0  0  0  0  0  0  0  0  0  0  0
  143.4406  157.4498  170.9631 H   0  0  0  0  0  0  0  0  0  0  0  0
  142.4749  158.2260  169.7089 H   0  0  0  0  0  0  0  0  0  0  0  0
  142.4901  155.8289  169.3932 H   0  0  0  0  0  0  0  0  0  0  0  0
  140.8746  156.4086  169.8306 H   0  0  0  0  0  0  0  0  0  0  0  0
  139.4586  151.6589  168.7977 H   0  0  0  0  0  0  0  0  0  0  0  0
  137.7614  152.0319  169.1528 H   0  0  0  0  0  0  0  0  0  0  0  0
  138.0575  149.7640  169.6963 H   0  0  0  0  0  0  0  0  0  0  0  0
  138.0173  150.6604  171.2168 H   0  0  0  0  0  0  0  0  0  0  0  0
  140.8652  149.5483  168.8176 H   0  0  0  0  0  0  0  0  0  0  0  0
  143.3703  148.3637  172.9405 H   0  0  0  0  0  0  0  0  0  0  0  0
  142.3978  148.6961  175.1541 H   0  0  0  0  0  0  0  0  0  0  0  0
  140.1786  149.6098  175.3955 H   0  0  0  0  0  0  0  0  0  0  0  0
  138.8735  150.2185  173.4375 H   0  0  0  0  0  0  0  0  0  0  0  0
  145.4468  150.6025  174.8536 H   0  0  0  0  0  0  0  0  0  0  0  0
  143.8513  152.3596  174.3791 H   0  0  0  0  0  0  0  0  0  0  0  0
  144.2131  151.5783  170.2721 H   0  0  0  0  0  0  0  0  0  0  0  0
  145.8119  149.8170  170.7498 H   0  0  0  0  0  0  0  0  0  0  0  0
  146.8923  147.1672  173.8417 H   0  0  0  0  0  0  0  0  0  0  0  0
  145.6191  147.4296  172.6742 H   0  0  0  0  0  0  0  0  0  0  0  0
  145.3931  147.9154  174.3373 H   0  0  0  0  0  0  0  0  0  0  0  0
  1  7  1  0
  1  2  1  0
  2  3  1  0
  2 37  1  0
  2 38  1  0
  3  4  1  0
  3 39  1  0
  3 40  1  0
  4  5  1  0
  4 41  1  0
  4 42  1  0
  5  6  1  0
  5 43  1  0
  5 44  1  0
  6  1  1  0
  6 45  1  0
  6 46  1  0
  7  8  1  0
  7 11  1  0
  8  9  2  0
  8 10  1  0
 10 13  1  0
 10 12  1  0
 13 14  1  0
 13 47  1  0
 13 48  1  0
 14 15  1  0
 14 49  1  0
 14 50  1  0
 15 16  2  0
 16 17  1  0
 16 51  1  0
 17 18  1  0
 17 24  1  0
 18 19  2  0
 19 20  1  0
 19 52  1  0
 20 21  2  0
 20 53  1  0
 21 22  1  0
 21 54  1  0
 22 23  2  0
 22 55  1  0
 23 15  1  0
 23 18  1  0
 25 26  1  0
 25 28  1  0
 26 27  2  0
 26  1  1  0
 29 30  2  0
 30 31  1  0
 30 56  1  0
 31 32  2  0
 31 57  1  0
 32 25  1  0
 32 33  1  0
 33 34  2  0
 33 58  1  0
 34 29  1  0
 34 59  1  0
 35 36  1  0
 35 60  1  0
 35 61  1  0
 35 62  1  0
 36 29  1  0
M  END
>  <minimizedAffinity>  (5) 
-8.18559

>  <mol_id>  (5) 
62450

>  <source_index>  (5) 
4

>  <layer>  (5) 
L2

>  <uniprot>  (5) 
Q8NER1

>  <paff>  (5) 
6.0297000000000001

>  <smiles>  (5) 
COc1ccc(NC(=O)C2(NC(=O)NCCc3c[nH]c4ccccc34)CCCCC2)cc1

$$$$
L2:Q8NER1:119254
     RDKit          3D

 50 52  0  0  0  0  0  0  0  0999 V2000
  141.0031  150.7587  170.9003 C   0  0  0  0  0  0  0  0  0  0  0  0
  141.1990  149.6326  171.9528 C   0  0  0  0  0  0  0  0  0  0  0  0
  142.4874  148.8344  171.7462 C   0  0  0  0  0  0  0  0  0  0  0  0
  142.5645  148.2505  170.3418 C   0  0  0  0  0  0  0  0  0  0  0  0
  142.3831  149.3268  169.2784 C   0  0  0  0  0  0  0  0  0  0  0  0
  141.0935  150.1199  169.4923 C   0  0  0  0  0  0  0  0  0  0  0  0
  141.9691  152.8928  169.1428 O   0  0  0  0  0  0  0  0  0  0  0  0
  142.4143  152.7716  170.2773 C   0  0  0  0  0  0  0  0  0  0  0  0
  142.0340  151.7895  171.1448 N   0  0  0  0  0  0  0  0  0  0  0  0
  142.3444  151.9353  172.0968 H   0  0  0  0  0  0  0  0  0  0  0  0
  143.3208  153.6071  170.9027 O   0  0  0  0  0  0  0  0  0  0  0  0
  142.8419  154.9045  171.1012 C   0  0  0  0  0  0  0  0  0  0  0  0
  143.2016  155.9254  170.2217 C   0  0  0  0  0  0  0  0  0  0  0  0
  142.6745  157.2020  170.4110 C   0  0  0  0  0  0  0  0  0  0  0  0
  141.7862  157.4425  171.4620 C   0  0  0  0  0  0  0  0  0  0  0  0
  141.4176  156.4065  172.3236 C   0  0  0  0  0  0  0  0  0  0  0  0
  141.9418  155.1273  172.1409 C   0  0  0  0  0  0  0  0  0  0  0  0
  139.5855  151.3993  171.1187 C   0  0  0  0  0  0  0  0  0  0  0  0
  138.9655  151.2345  172.1676 O   0  0  0  0  0  0  0  0  0  0  0  0
  139.1369  152.1483  170.0423 N   0  0  0  0  0  0  0  0  0  0  0  0
  139.8010  152.2775  169.2769 H   0  0  0  0  0  0  0  0  0  0  0  0
  137.9123  152.8285  169.9018 C   0  0  0  0  0  0  0  0  0  0  0  0
  137.9795  154.1986  169.6191 C   0  0  0  0  0  0  0  0  0  0  0  0
  136.8161  154.9536  169.4640 C   0  0  0  0  0  0  0  0  0  0  0  0
  135.5702  154.3438  169.5867 C   0  0  0  0  0  0  0  0  0  0  0  0
  135.4786  152.9707  169.8580 C   0  0  0  0  0  0  0  0  0  0  0  0
  136.6598  152.2233  170.0206 C   0  0  0  0  0  0  0  0  0  0  0  0
  134.1313  152.3105  170.0150 C   0  0  0  0  0  0  0  0  0  0  0  0
  133.7406  152.1726  171.3123 F   0  0  0  0  0  0  0  0  0  0  0  0
  134.0914  151.0545  169.4844 F   0  0  0  0  0  0  0  0  0  0  0  0
  133.1383  153.0061  169.3937 F   0  0  0  0  0  0  0  0  0  0  0  0
  140.3687  148.9606  171.8908 H   0  0  0  0  0  0  0  0  0  0  0  0
  141.2649  150.1013  172.9124 H   0  0  0  0  0  0  0  0  0  0  0  0
  142.5188  148.0352  172.4570 H   0  0  0  0  0  0  0  0  0  0  0  0
  143.3171  149.4967  171.8799 H   0  0  0  0  0  0  0  0  0  0  0  0
  141.7947  147.5161  170.2279 H   0  0  0  0  0  0  0  0  0  0  0  0
  143.5319  147.8116  170.2135 H   0  0  0  0  0  0  0  0  0  0  0  0
  142.3483  148.8610  168.3157 H   0  0  0  0  0  0  0  0  0  0  0  0
  143.2076  150.0054  169.3459 H   0  0  0  0  0  0  0  0  0  0  0  0
  140.2616  149.4595  169.3633 H   0  0  0  0  0  0  0  0  0  0  0  0
  141.0852  150.9165  168.7780 H   0  0  0  0  0  0  0  0  0  0  0  0
  143.8497  155.7382  169.4407 H   0  0  0  0  0  0  0  0  0  0  0  0
  142.9406  157.9696  169.7746 H   0  0  0  0  0  0  0  0  0  0  0  0
  141.4007  158.3894  171.6025 H   0  0  0  0  0  0  0  0  0  0  0  0
  140.7571  156.5879  173.0956 H   0  0  0  0  0  0  0  0  0  0  0  0
  141.6664  154.3553  172.7680 H   0  0  0  0  0  0  0  0  0  0  0  0
  138.9001  154.6552  169.5244 H   0  0  0  0  0  0  0  0  0  0  0  0
  136.8790  155.9630  169.2585 H   0  0  0  0  0  0  0  0  0  0  0  0
  134.7107  154.9045  169.4776 H   0  0  0  0  0  0  0  0  0  0  0  0
  136.5994  151.2147  170.2304 H   0  0  0  0  0  0  0  0  0  0  0  0
  1 18  1  0
  1  2  1  0
  2  3  1  0
  2 32  1  0
  2 33  1  0
  3  4  1  0
  3 34  1  0
  3 35  1  0
  4  5  1  0
  4 36  1  0
  4 37  1  0
  5  6  1  0
  5 38  1  0
  5 39  1  0
  6  1  1  0
  6 40  1  0
  6 41  1  0
  7  8  2  0
  8  9  1  0
  8 11  1  0
  9  1  1  0
  9 10  1  0
 11 12  1  0
 12 13  2  0
 13 14  1  0
 13 42  1  0
 14 15  2  0
 14 43  1  0
 15 16  1  0
 15 44  1  0
 16 17  2  0
 16 45  1  0
 17 12  1  0
 17 46  1  0
 18 19  2  0
 18 20  1  0
 20 22  1  0
 20 21  1  0
 22 23  2  0
 23 24  1  0
 23 47  1  0
 24 25  2  0
 24 48  1  0
 25 26  1  0
 25 49  1  0
 26 28  1  0
 26 27  2  0
 27 22  1  0
 27 50  1  0
 28 29  1  0
 28 30  1  0
 28 31  1  0
M  END
>  <minimizedAffinity>  (6) 
-8.76161

>  <mol_id>  (6) 
119254

>  <source_index>  (6) 
5

>  <layer>  (6) 
L2

>  <uniprot>  (6) 
Q8NER1

>  <paff>  (6) 
6.4044999999999996

>  <smiles>  (6) 
O=C(NC1(C(=O)Nc2cccc(C(F)(F)F)c2)CCCCC1)Oc1ccccc1

$$$$
L2:Q8NER1:125391
     RDKit          3D

 47 49  0  0  0  0  0  0  0  0999 V2000
  144.2859  150.4281  172.7824 C   0  0  0  0  0  0  0  0  0  0  0  0
  144.7890  149.9838  171.3879 C   0  0  0  0  0  0  0  0  0  0  0  0
  143.7077  149.2799  170.5686 C   0  0  0  0  0  0  0  0  0  0  0  0
  143.1340  148.0876  171.3235 C   0  0  0  0  0  0  0  0  0  0  0  0
  142.5659  148.5033  172.6741 C   0  0  0  0  0  0  0  0  0  0  0  0
  143.5841  149.2683  173.5229 C   0  0  0  0  0  0  0  0  0  0  0  0
  146.7044  149.1006  173.8079 O   0  0  0  0  0  0  0  0  0  0  0  0
  146.4280  150.2483  174.1192 C   0  0  0  0  0  0  0  0  0  0  0  0
  145.3857  150.9754  173.6136 N   0  0  0  0  0  0  0  0  0  0  0  0
  145.1873  151.8056  174.1607 H   0  0  0  0  0  0  0  0  0  0  0  0
  147.0992  151.0301  175.0458 O   0  0  0  0  0  0  0  0  0  0  0  0
  148.3994  151.3975  174.6819 C   0  0  0  0  0  0  0  0  0  0  0  0
  148.6243  152.2328  173.5883 C   0  0  0  0  0  0  0  0  0  0  0  0
  149.9286  152.6237  173.2880 C   0  0  0  0  0  0  0  0  0  0  0  0
  150.9896  152.1923  174.0876 C   0  0  0  0  0  0  0  0  0  0  0  0
  150.7496  151.3719  175.1923 C   0  0  0  0  0  0  0  0  0  0  0  0
  149.4479  150.9766  175.4977 C   0  0  0  0  0  0  0  0  0  0  0  0
  143.3180  151.6505  172.5976 C   0  0  0  0  0  0  0  0  0  0  0  0
  142.1399  151.6155  172.9361 O   0  0  0  0  0  0  0  0  0  0  0  0
  143.9366  152.7191  171.9552 N   0  0  0  0  0  0  0  0  0  0  0  0
  144.9164  152.5818  171.7307 H   0  0  0  0  0  0  0  0  0  0  0  0
  143.3770  153.9591  171.5938 C   0  0  0  0  0  0  0  0  0  0  0  0
  142.2622  154.5257  172.2150 C   0  0  0  0  0  0  0  0  0  0  0  0
  141.7688  155.7666  171.7948 C   0  0  0  0  0  0  0  0  0  0  0  0
  142.3907  156.4443  170.7503 C   0  0  0  0  0  0  0  0  0  0  0  0
  141.7236  158.1190  170.1844 Br  0  0  0  0  0  0  0  0  0  0  0  0
  143.5022  155.8927  170.1206 C   0  0  0  0  0  0  0  0  0  0  0  0
  143.9925  154.6530  170.5427 C   0  0  0  0  0  0  0  0  0  0  0  0
  145.6115  149.3119  171.5186 H   0  0  0  0  0  0  0  0  0  0  0  0
  145.0789  150.8639  170.8529 H   0  0  0  0  0  0  0  0  0  0  0  0
  144.1338  148.9383  169.6484 H   0  0  0  0  0  0  0  0  0  0  0  0
  142.9166  149.9758  170.3823 H   0  0  0  0  0  0  0  0  0  0  0  0
  143.9107  147.3683  171.4794 H   0  0  0  0  0  0  0  0  0  0  0  0
  142.3404  147.6705  170.7394 H   0  0  0  0  0  0  0  0  0  0  0  0
  142.2655  147.6248  173.2060 H   0  0  0  0  0  0  0  0  0  0  0  0
  141.7360  149.1541  172.4934 H   0  0  0  0  0  0  0  0  0  0  0  0
  144.3331  148.5781  173.8506 H   0  0  0  0  0  0  0  0  0  0  0  0
  143.0397  149.7070  174.3329 H   0  0  0  0  0  0  0  0  0  0  0  0
  147.8350  152.5577  173.0082 H   0  0  0  0  0  0  0  0  0  0  0  0
  150.1102  153.2321  172.4745 H   0  0  0  0  0  0  0  0  0  0  0  0
  151.9543  152.4808  173.8613 H   0  0  0  0  0  0  0  0  0  0  0  0
  151.5359  151.0583  175.7825 H   0  0  0  0  0  0  0  0  0  0  0  0
  149.2630  150.3791  176.3186 H   0  0  0  0  0  0  0  0  0  0  0  0
  141.7985  154.0259  172.9897 H   0  0  0  0  0  0  0  0  0  0  0  0
  140.9444  156.1786  172.2593 H   0  0  0  0  0  0  0  0  0  0  0  0
  143.9624  156.3960  169.3460 H   0  0  0  0  0  0  0  0  0  0  0  0
  144.8168  154.2443  170.0751 H   0  0  0  0  0  0  0  0  0  0  0  0
  1 18  1  0
  1  2  1  0
  2  3  1  0
  2 29  1  0
  2 30  1  0
  3  4  1  0
  3 31  1  0
  3 32  1  0
  4  5  1  0
  4 33  1  0
  4 34  1  0
  5  6  1  0
  5 35  1  0
  5 36  1  0
  6  1  1  0
  6 37  1  0
  6 38  1  0
  7  8  2  0
  8  9  1  0
  8 11  1  0
  9  1  1  0
  9 10  1  0
 11 12  1  0
 12 13  2  0
 13 14  1  0
 13 39  1  0
 14 15  2  0
 14 40  1  0
 15 16  1  0
 15 41  1  0
 16 17  2  0
 16 42  1  0
 17 12  1  0
 17 43  1  0
 18 19  2  0
 18 20  1  0
 20 22  1  0
 20 21  1  0
 22 23  2  0
 23 24  1  0
 23 44  1  0
 24 25  2  0
 24 45  1  0
 25 26  1  0
 25 27  1  0
 27 28  2  0
 27 46  1  0
 28 22  1  0
 28 47  1  0
M  END
>  <minimizedAffinity>  (7) 
-8.92152

>  <mol_id>  (7) 
125391

>  <source_index>  (7) 
6

>  <layer>  (7) 
L2

>  <uniprot>  (7) 
Q8NER1

>  <paff>  (7) 
6.3497000000000003

>  <smiles>  (7) 
O=C(NC1(C(=O)Nc2ccc(Br)cc2)CCCCC1)Oc1ccccc1

$$$$
L2:Q8NER1:131041
     RDKit          3D

 47 50  0  0  0  0  0  0  0  0999 V2000
  145.6996  147.7084  173.7281 C   0  0  0  0  0  0  0  0  0  0  0  0
  145.8833  149.1688  173.5934 C   0  0  0  0  0  0  0  0  0  0  0  0
  147.0370  149.7586  174.0672 N   0  0  0  0  0  0  0  0  0  0  0  0
  146.8938  151.0346  173.7871 C   0  0  0  0  0  0  0  0  0  0  0  0
  145.7283  151.3272  173.1435 O   0  0  0  0  0  0  0  0  0  0  0  0
  145.0686  150.1307  173.0219 C   0  0  0  0  0  0  0  0  0  0  0  0
  143.7687  150.1866  172.3596 C   0  0  0  0  0  0  0  0  0  0  0  0
  142.8125  151.1560  172.6986 C   0  0  0  0  0  0  0  0  0  0  0  0
  141.5669  151.1961  172.0587 C   0  0  0  0  0  0  0  0  0  0  0  0
  141.2433  150.2621  171.0630 C   0  0  0  0  0  0  0  0  0  0  0  0
  142.1985  149.2985  170.7095 C   0  0  0  0  0  0  0  0  0  0  0  0
  143.4409  149.2617  171.3523 C   0  0  0  0  0  0  0  0  0  0  0  0
  139.9093  150.3172  170.3600 C   0  0  0  0  0  0  0  0  0  0  0  0
  138.9670  149.5207  170.9375 F   0  0  0  0  0  0  0  0  0  0  0  0
  139.3705  151.5692  170.3345 F   0  0  0  0  0  0  0  0  0  0  0  0
  139.9917  149.9190  169.0605 F   0  0  0  0  0  0  0  0  0  0  0  0
  147.7924  152.0095  174.0059 N   0  0  0  0  0  0  0  0  0  0  0  0
  147.5271  152.9152  173.6430 H   0  0  0  0  0  0  0  0  0  0  0  0
  149.1113  151.9396  174.5007 C   0  0  0  0  0  0  0  0  0  0  0  0
  149.3946  151.5226  175.8105 C   0  0  0  0  0  0  0  0  0  0  0  0
  150.7009  151.4826  176.2961 C   0  0  0  0  0  0  0  0  0  0  0  0
  151.7568  151.8670  175.4798 C   0  0  0  0  0  0  0  0  0  0  0  0
  151.5191  152.2995  174.1694 C   0  0  0  0  0  0  0  0  0  0  0  0
  152.7017  152.7406  173.3414 C   0  0  0  0  0  0  0  0  0  0  0  0
  152.4006  152.8116  171.8518 C   0  0  0  0  0  0  0  0  0  0  0  0
  151.1111  153.5843  171.6202 C   0  0  1  0  0  0  0  0  0  0  0  0
  150.8650  153.6949  170.2196 O   0  0  0  0  0  0  0  0  0  0  0  0
  149.9307  152.8616  172.2746 C   0  0  0  0  0  0  0  0  0  0  0  0
  150.1922  152.3663  173.6832 C   0  0  0  0  0  0  0  0  0  0  0  0
  151.6273  154.1490  169.8198 H   0  0  0  0  0  0  0  0  0  0  0  0
  146.5453  147.2874  174.2306 H   0  0  0  0  0  0  0  0  0  0  0  0
  145.6070  147.2695  172.7567 H   0  0  0  0  0  0  0  0  0  0  0  0
  144.8135  147.5111  174.2945 H   0  0  0  0  0  0  0  0  0  0  0  0
  143.0302  151.8501  173.4306 H   0  0  0  0  0  0  0  0  0  0  0  0
  140.8803  151.9200  172.3224 H   0  0  0  0  0  0  0  0  0  0  0  0
  141.9838  148.6115  169.9700 H   0  0  0  0  0  0  0  0  0  0  0  0
  144.1296  148.5422  171.0820 H   0  0  0  0  0  0  0  0  0  0  0  0
  148.6182  151.2391  176.4284 H   0  0  0  0  0  0  0  0  0  0  0  0
  150.8832  151.1675  177.2618 H   0  0  0  0  0  0  0  0  0  0  0  0
  152.7228  151.8337  175.8414 H   0  0  0  0  0  0  0  0  0  0  0  0
  153.5009  152.0456  173.4936 H   0  0  0  0  0  0  0  0  0  0  0  0
  152.9605  153.7288  173.6598 H   0  0  0  0  0  0  0  0  0  0  0  0
  152.2946  151.8201  171.4637 H   0  0  0  0  0  0  0  0  0  0  0  0
  153.2049  153.3112  171.3534 H   0  0  0  0  0  0  0  0  0  0  0  0
  151.2143  154.5571  172.0537 H   0  0  0  0  0  0  0  0  0  0  0  0
  149.6778  152.0183  171.6665 H   0  0  0  0  0  0  0  0  0  0  0  0
  149.1408  153.5796  172.3489 H   0  0  0  0  0  0  0  0  0  0  0  0
  1  2  1  0
  1 31  1  0
  1 32  1  0
  1 33  1  0
  2  3  1  0
  3  4  2  0
  4 17  1  0
  4  5  1  0
  5  6  1  0
  6  7  1  0
  6  2  2  0
  7  8  2  0
  8  9  1  0
  8 34  1  0
  9 10  2  0
  9 35  1  0
 10 11  1  0
 10 13  1  0
 11 12  2  0
 11 36  1  0
 12  7  1  0
 12 37  1  0
 13 14  1  0
 13 15  1  0
 13 16  1  0
 17 19  1  0
 17 18  1  0
 19 20  2  0
 20 21  1  0
 20 38  1  0
 21 22  2  0
 21 39  1  0
 22 23  1  0
 22 40  1  0
 23 24  1  0
 24 25  1  0
 24 41  1  0
 24 42  1  0
 25 26  1  0
 25 43  1  0
 25 44  1  0
 26 27  1  0
 26 28  1  0
 26 45  1  1
 27 30  1  0
 28 29  1  0
 28 46  1  0
 28 47  1  0
 29 19  1  0
 29 23  2  0
M  END
>  <minimizedAffinity>  (8) 
-9.70348

>  <mol_id>  (8) 
131041

>  <source_index>  (8) 
7

>  <layer>  (8) 
L2

>  <uniprot>  (8) 
Q8NER1

>  <paff>  (8) 
7.8239000000000001

>  <smiles>  (8) 
Cc1nc(Nc2cccc3CC[C@@H](O)Cc23)oc1-c1ccc(cc1)C(F)(F)F |r|

$$$$
L2:Q8NER1:132261
     RDKit          3D

 61 64  0  0  0  0  0  0  0  0999 V2000
  143.0391  154.7941  170.8368 C   0  0  0  0  0  0  0  0  0  0  0  0
  142.3324  155.0064  172.1979 C   0  0  0  0  0  0  0  0  0  0  0  0
  141.2358  156.0688  172.1346 C   0  0  0  0  0  0  0  0  0  0  0  0
  141.7784  157.3902  171.6052 C   0  0  0  0  0  0  0  0  0  0  0  0
  142.4049  157.2232  170.2269 C   0  0  0  0  0  0  0  0  0  0  0  0
  143.4779  156.1322  170.2042 C   0  0  0  0  0  0  0  0  0  0  0  0
  143.3627  152.5035  172.6185 O   0  0  0  0  0  0  0  0  0  0  0  0
  144.2642  152.8426  171.8689 C   0  0  0  0  0  0  0  0  0  0  0  0
  145.4929  152.2343  171.8172 N   0  0  0  0  0  0  0  0  0  0  0  0
  144.2000  153.8696  170.9631 N   0  0  0  0  0  0  0  0  0  0  0  0
  145.9496  152.2621  170.9167 H   0  0  0  0  0  0  0  0  0  0  0  0
  145.1019  154.3167  170.8501 H   0  0  0  0  0  0  0  0  0  0  0  0
  145.7540  151.0376  172.6003 C   0  0  0  0  0  0  0  0  0  0  0  0
  145.4628  149.7376  171.8398 C   0  0  0  0  0  0  0  0  0  0  0  0
  144.0033  149.3898  171.7981 C   0  0  0  0  0  0  0  0  0  0  0  0
  143.2670  149.1044  170.6634 C   0  0  0  0  0  0  0  0  0  0  0  0
  141.9754  148.8550  171.0388 N   0  0  0  0  0  0  0  0  0  0  0  0
  141.8505  148.9504  172.4049 C   0  0  0  0  0  0  0  0  0  0  0  0
  140.7275  148.7690  173.2218 C   0  0  0  0  0  0  0  0  0  0  0  0
  140.8914  148.9482  174.5983 C   0  0  0  0  0  0  0  0  0  0  0  0
  142.1285  149.2983  175.1332 C   0  0  0  0  0  0  0  0  0  0  0  0
  143.2405  149.4770  174.3017 C   0  0  0  0  0  0  0  0  0  0  0  0
  143.1046  149.2967  172.9095 C   0  0  0  0  0  0  0  0  0  0  0  0
  141.2141  148.6440  170.4087 H   0  0  0  0  0  0  0  0  0  0  0  0
  142.0548  154.0167  169.8925 C   0  0  0  0  0  0  0  0  0  0  0  0
  142.0915  154.1127  168.6707 O   0  0  0  0  0  0  0  0  0  0  0  0
  141.1019  153.3004  170.6108 N   0  0  0  0  0  0  0  0  0  0  0  0
  141.2225  153.3324  171.6183 H   0  0  0  0  0  0  0  0  0  0  0  0
  140.0333  152.5295  170.1196 C   0  0  0  0  0  0  0  0  0  0  0  0
  140.3607  151.3539  169.4335 C   0  0  0  0  0  0  0  0  0  0  0  0
  139.3614  150.5279  168.9162 C   0  0  0  0  0  0  0  0  0  0  0  0
  138.0214  150.8701  169.0803 C   0  0  0  0  0  0  0  0  0  0  0  0
  137.6704  152.0450  169.7597 C   0  0  0  0  0  0  0  0  0  0  0  0
  138.6878  152.8659  170.2808 C   0  0  0  0  0  0  0  0  0  0  0  0
  136.2222  152.4170  169.9660 C   0  0  0  0  0  0  0  0  0  0  0  0
  135.3571  151.4700  169.5095 F   0  0  0  0  0  0  0  0  0  0  0  0
  135.8877  153.5733  169.3302 F   0  0  0  0  0  0  0  0  0  0  0  0
  135.9001  152.6082  171.2773 F   0  0  0  0  0  0  0  0  0  0  0  0
  143.0624  155.3106  172.9187 H   0  0  0  0  0  0  0  0  0  0  0  0
  141.8697  154.0806  172.4693 H   0  0  0  0  0  0  0  0  0  0  0  0
  140.8414  156.2222  173.1174 H   0  0  0  0  0  0  0  0  0  0  0  0
  140.4704  155.7263  171.4699 H   0  0  0  0  0  0  0  0  0  0  0  0
  142.5207  157.7578  172.2825 H   0  0  0  0  0  0  0  0  0  0  0  0
  140.9639  158.0792  171.5229 H   0  0  0  0  0  0  0  0  0  0  0  0
  142.8519  158.1513  169.9375 H   0  0  0  0  0  0  0  0  0  0  0  0
  141.6299  156.9339  169.5483 H   0  0  0  0  0  0  0  0  0  0  0  0
  144.3320  156.4914  170.7394 H   0  0  0  0  0  0  0  0  0  0  0  0
  143.6863  155.9297  169.1744 H   0  0  0  0  0  0  0  0  0  0  0  0
  145.1390  151.0638  173.4755 H   0  0  0  0  0  0  0  0  0  0  0  0
  146.7969  151.0374  172.8394 H   0  0  0  0  0  0  0  0  0  0  0  0
  145.9890  148.9385  172.3188 H   0  0  0  0  0  0  0  0  0  0  0  0
  145.7837  149.8823  170.8293 H   0  0  0  0  0  0  0  0  0  0  0  0
  143.6299  149.0831  169.6976 H   0  0  0  0  0  0  0  0  0  0  0  0
  139.8115  148.5122  172.8217 H   0  0  0  0  0  0  0  0  0  0  0  0
  140.0836  148.8191  175.2275 H   0  0  0  0  0  0  0  0  0  0  0  0
  142.2265  149.4273  176.1524 H   0  0  0  0  0  0  0  0  0  0  0  0
  144.1537  149.7389  174.7048 H   0  0  0  0  0  0  0  0  0  0  0  0
  141.3519  151.0951  169.3088 H   0  0  0  0  0  0  0  0  0  0  0  0
  139.6155  149.6639  168.4123 H   0  0  0  0  0  0  0  0  0  0  0  0
  137.2839  150.2563  168.7002 H   0  0  0  0  0  0  0  0  0  0  0  0
  138.4360  153.7281  170.7889 H   0  0  0  0  0  0  0  0  0  0  0  0
  1 25  1  0
  1  2  1  0
  2  3  1  0
  2 39  1  0
  2 40  1  0
  3  4  1  0
  3 41  1  0
  3 42  1  0
  4  5  1  0
  4 43  1  0
  4 44  1  0
  5  6  1  0
  5 45  1  0
  5 46  1  0
  6  1  1  0
  6 47  1  0
  6 48  1  0
  7  8  2  0
  8  9  1  0
  8 10  1  0
  9 13  1  0
  9 11  1  0
 10  1  1  0
 10 12  1  0
 13 14  1  0
 13 49  1  0
 13 50  1  0
 14 15  1  0
 14 51  1  0
 14 52  1  0
 15 16  2  0
 16 17  1  0
 16 53  1  0
 17 18  1  0
 17 24  1  0
 18 19  2  0
 19 20  1  0
 19 54  1  0
 20 21  2  0
 20 55  1  0
 21 22  1  0
 21 56  1  0
 22 23  2  0
 22 57  1  0
 23 15  1  0
 23 18  1  0
 25 26  2  0
 25 27  1  0
 27 29  1  0
 27 28  1  0
 29 30  2  0
 30 31  1  0
 30 58  1  0
 31 32  2  0
 31 59  1  0
 32 33  1  0
 32 60  1  0
 33 35  1  0
 33 34  2  0
 34 29  1  0
 34 61  1  0
 35 36  1  0
 35 37  1  0
 35 38  1  0
M  END
>  <minimizedAffinity>  (9) 
-9.53433

>  <mol_id>  (9) 
132261

>  <source_index>  (9) 
8

>  <layer>  (9) 
L2

>  <uniprot>  (9) 
Q8NER1

>  <paff>  (9) 
6.202

>  <smiles>  (9) 
O=C(NCCc1c[nH]c2ccccc12)NC1(C(=O)Nc2cccc(C(F)(F)F)c2)CCCCC1

$$$$
L2:Q8NER1:140296
     RDKit          3D

 62 65  0  0  0  0  0  0  0  0999 V2000
  147.8309  151.8713  172.5232 N   0  0  0  0  0  0  0  0  0  0  0  0
  146.5021  151.6546  172.7957 C   0  0  0  0  0  0  0  0  0  0  0  0
  145.9693  151.9166  173.8612 O   0  0  0  0  0  0  0  0  0  0  0  0
  145.8720  151.1082  171.7074 N   0  0  0  0  0  0  0  0  0  0  0  0
  148.0357  152.0680  171.5547 H   0  0  0  0  0  0  0  0  0  0  0  0
  146.4959  150.5077  171.1817 H   0  0  0  0  0  0  0  0  0  0  0  0
  144.4559  150.6444  171.7193 C   0  0  0  0  0  0  0  0  0  0  0  0
  143.9118  150.5174  173.1667 C   0  0  0  0  0  0  0  0  0  0  0  0
  142.5860  149.7606  173.2055 C   0  0  0  0  0  0  0  0  0  0  0  0
  142.6859  148.3564  172.6108 C   0  0  0  0  0  0  0  0  0  0  0  0
  143.9402  148.1255  171.7742 C   0  0  0  0  0  0  0  0  0  0  0  0
  144.2935  149.3327  170.9082 C   0  0  0  0  0  0  0  0  0  0  0  0
  143.6561  151.8165  171.0398 C   0  0  0  0  0  0  0  0  0  0  0  0
  142.8348  151.6285  170.1478 O   0  0  0  0  0  0  0  0  0  0  0  0
  143.9028  153.0384  171.6581 N   0  0  0  0  0  0  0  0  0  0  0  0
  144.5643  152.9973  172.4263 H   0  0  0  0  0  0  0  0  0  0  0  0
  143.3576  154.2987  171.3552 C   0  0  0  0  0  0  0  0  0  0  0  0
  142.2792  154.7306  172.1385 C   0  0  0  0  0  0  0  0  0  0  0  0
  141.6837  155.9735  171.9095 C   0  0  0  0  0  0  0  0  0  0  0  0
  142.1611  156.7961  170.8936 C   0  0  0  0  0  0  0  0  0  0  0  0
  143.2317  156.3739  170.1084 C   0  0  0  0  0  0  0  0  0  0  0  0
  143.8283  155.1299  170.3382 C   0  0  0  0  0  0  0  0  0  0  0  0
  148.6786  152.5412  173.4973 C   0  0  0  0  0  0  0  0  0  0  0  0
  149.7013  151.6051  174.1482 C   0  0  0  0  0  0  0  0  0  0  0  0
  149.1168  151.2267  178.8007 C   0  0  0  0  0  0  0  0  0  0  0  0
  150.0077  152.0290  179.5122 C   0  0  0  0  0  0  0  0  0  0  0  0
  150.9421  152.8375  178.8511 C   0  0  0  0  0  0  0  0  0  0  0  0
  150.9523  152.8134  177.4526 C   0  0  0  0  0  0  0  0  0  0  0  0
  151.7453  153.4938  176.5587 N   0  0  0  0  0  0  0  0  0  0  0  0
  151.4070  153.1577  175.2761 C   0  0  0  0  0  0  0  0  0  0  0  0
  150.3726  152.2441  175.3236 C   0  0  0  0  0  0  0  0  0  0  0  0
  150.0774  152.0244  176.7075 C   0  0  0  0  0  0  0  0  0  0  0  0
  149.1472  151.2217  177.3992 C   0  0  0  0  0  0  0  0  0  0  0  0
  152.4727  154.1463  176.8166 H   0  0  0  0  0  0  0  0  0  0  0  0
  148.6387  149.3151  180.1339 C   0  0  0  0  0  0  0  0  0  0  0  0
  148.1696  150.4015  179.3463 O   0  0  0  0  0  0  0  0  0  0  0  0
  143.7637  151.4977  173.5691 H   0  0  0  0  0  0  0  0  0  0  0  0
  144.6262  149.9701  173.7455 H   0  0  0  0  0  0  0  0  0  0  0  0
  141.8594  150.3159  172.6500 H   0  0  0  0  0  0  0  0  0  0  0  0
  142.3060  149.6553  174.2328 H   0  0  0  0  0  0  0  0  0  0  0  0
  141.8312  148.1930  171.9881 H   0  0  0  0  0  0  0  0  0  0  0  0
  142.7323  147.6740  173.4336 H   0  0  0  0  0  0  0  0  0  0  0  0
  143.7775  147.2815  171.1370 H   0  0  0  0  0  0  0  0  0  0  0  0
  144.7548  147.9577  172.4474 H   0  0  0  0  0  0  0  0  0  0  0  0
  143.5148  149.4732  170.1879 H   0  0  0  0  0  0  0  0  0  0  0  0
  145.2371  149.1265  170.4477 H   0  0  0  0  0  0  0  0  0  0  0  0
  141.9209  154.1241  172.8927 H   0  0  0  0  0  0  0  0  0  0  0  0
  140.8903  156.2814  172.4933 H   0  0  0  0  0  0  0  0  0  0  0  0
  141.7239  157.7151  170.7226 H   0  0  0  0  0  0  0  0  0  0  0  0
  143.5862  156.9819  169.3536 H   0  0  0  0  0  0  0  0  0  0  0  0
  144.6212  154.8251  169.7522 H   0  0  0  0  0  0  0  0  0  0  0  0
  149.2055  153.3311  173.0041 H   0  0  0  0  0  0  0  0  0  0  0  0
  148.0421  152.9087  174.2750 H   0  0  0  0  0  0  0  0  0  0  0  0
  149.1996  150.7186  174.4759 H   0  0  0  0  0  0  0  0  0  0  0  0
  150.4521  151.3764  173.4209 H   0  0  0  0  0  0  0  0  0  0  0  0
  149.9786  152.0275  180.5438 H   0  0  0  0  0  0  0  0  0  0  0  0
  151.6010  153.4312  179.3787 H   0  0  0  0  0  0  0  0  0  0  0  0
  151.8496  153.5246  174.4191 H   0  0  0  0  0  0  0  0  0  0  0  0
  148.4869  150.6289  176.8723 H   0  0  0  0  0  0  0  0  0  0  0  0
  147.8047  148.7525  180.4983 H   0  0  0  0  0  0  0  0  0  0  0  0
  149.2035  149.6919  180.9609 H   0  0  0  0  0  0  0  0  0  0  0  0
  149.2610  148.6832  179.5353 H   0  0  0  0  0  0  0  0  0  0  0  0
  1  2  1  0
  1  5  1  0
  2  3  2  0
  2  4  1  0
  4  7  1  0
  4  6  1  0
  7 13  1  0
  7  8  1  0
  8  9  1  0
  8 37  1  0
  8 38  1  0
  9 10  1  0
  9 39  1  0
  9 40  1  0
 10 11  1  0
 10 41  1  0
 10 42  1  0
 11 12  1  0
 11 43  1  0
 11 44  1  0
 12  7  1  0
 12 45  1  0
 12 46  1  0
 13 14  2  0
 13 15  1  0
 15 17  1  0
 15 16  1  0
 17 18  2  0
 18 19  1  0
 18 47  1  0
 19 20  2  0
 19 48  1  0
 20 21  1  0
 20 49  1  0
 21 22  2  0
 21 50  1  0
 22 17  1  0
 22 51  1  0
 23  1  1  0
 23 52  1  0
 23 53  1  0
 24 23  1  0
 24 54  1  0
 24 55  1  0
 25 26  2  0
 26 27  1  0
 26 56  1  0
 27 28  2  0
 27 57  1  0
 28 29  1  0
 29 30  1  0
 29 34  1  0
 30 31  2  0
 30 58  1  0
 31 24  1  0
 31 32  1  0
 32 33  2  0
 32 28  1  0
 33 25  1  0
 33 59  1  0
 35 36  1  0
 35 60  1  0
 35 61  1  0
 35 62  1  0
 36 25  1  0
M  END
>  <minimizedAffinity>  (10) 
-9.46791

>  <mol_id>  (10) 
140296

>  <source_index>  (10) 
9

>  <layer>  (10) 
L2

>  <uniprot>  (10) 
Q8NER1

>  <paff>  (10) 
6.9393000000000002

>  <smiles>  (10) 
COc1ccc2[nH]cc(CCNC(=O)NC3(C(=O)Nc4ccccc4)CCCCC3)c2c1

$$$$
