L2:P18825:14322
     RDKit          3D

 58 62  0  0  0  0  0  0  0  0999 V2000
   -8.8903    3.2971   58.1265 C   0  0  0  0  0  0  0  0  0  0  0  0
   -9.2401    4.5647   58.1935 N   0  0  0  0  0  0  0  0  0  0  0  0
   -9.4767    5.0818   56.9361 C   0  0  0  0  0  0  0  0  0  0  0  0
   -9.3062    4.2075   55.8862 C   0  0  0  0  0  0  0  0  0  0  0  0
   -8.8354    2.6847   56.5022 S   0  0  0  0  0  0  0  0  0  0  0  0
   -5.8196    1.8274   60.4289 F   0  0  0  0  0  0  0  0  0  0  0  0
   -6.9554    1.0640   60.3532 C   0  0  2  0  0  0  0  0  0  0  0  0
   -7.6923    1.4074   59.0533 C   0  0  0  0  0  0  0  0  0  0  0  0
   -8.6186    2.5300   59.2278 N   0  0  0  0  0  0  0  0  0  0  0  0
   -9.6002    2.4234   60.3030 C   0  0  0  0  0  0  0  0  0  0  0  0
   -9.2740    1.2963   61.2862 C   0  0  0  0  0  0  0  0  0  0  0  0
   -7.7787    1.3006   61.6489 C   0  0  1  0  0  0  0  0  0  0  0  0
   -7.4319    0.3030   62.7172 N   0  0  0  0  0  0  0  0  0  0  0  0
   -7.4821   -1.0784   62.1950 C   0  0  0  0  0  0  0  0  0  0  0  0
   -7.3976   -2.1073   63.3303 C   0  0  0  0  0  0  0  0  0  0  0  0
   -6.6998   -1.5640   64.5723 C   0  0  0  0  0  0  0  0  0  0  0  0
   -5.6251   -0.5924   64.1755 C   0  0  1  0  0  0  0  0  0  0  0  0
   -4.5096   -0.3144   65.1796 C   0  0  0  0  0  0  0  0  0  0  0  0
   -4.2436   -1.1158   63.9641 C   0  0  0  0  0  0  0  0  0  0  0  0
   -3.9673   -2.4590   64.0735 F   0  0  0  0  0  0  0  0  0  0  0  0
   -3.4266   -0.6105   62.9795 F   0  0  0  0  0  0  0  0  0  0  0  0
   -6.0915    0.5476   63.2962 C   0  0  0  0  0  0  0  0  0  0  0  0
   -9.4844    4.4868   54.4770 C   0  0  0  0  0  0  0  0  0  0  0  0
  -10.1724    3.7795   53.7441 O   0  0  0  0  0  0  0  0  0  0  0  0
   -8.8422    5.6101   53.9987 N   0  0  0  0  0  0  0  0  0  0  0  0
   -8.5207    6.2723   54.6938 H   0  0  0  0  0  0  0  0  0  0  0  0
   -9.1806    6.1715   52.7052 C   0  0  0  0  0  0  0  0  0  0  0  0
   -9.3197    7.6763   52.7701 C   0  0  0  0  0  0  0  0  0  0  0  0
   -8.8746    8.4099   51.7043 N   0  0  0  0  0  0  0  0  0  0  0  0
   -9.0365    9.7543   51.7810 C   0  0  0  0  0  0  0  0  0  0  0  0
   -9.6361   10.3949   52.8537 C   0  0  0  0  0  0  0  0  0  0  0  0
   -9.7700   11.7267   52.8603 F   0  0  0  0  0  0  0  0  0  0  0  0
  -10.1054    9.6410   53.9171 C   0  0  0  0  0  0  0  0  0  0  0  0
   -9.9473    8.2630   53.8688 C   0  0  0  0  0  0  0  0  0  0  0  0
  -10.4105    7.5107   54.8766 F   0  0  0  0  0  0  0  0  0  0  0  0
   -9.7635    6.0626   56.7917 H   0  0  0  0  0  0  0  0  0  0  0  0
   -6.7508    0.0148   60.3065 H   0  0  0  0  0  0  0  0  0  0  0  0
   -8.2456    0.5495   58.7328 H   0  0  0  0  0  0  0  0  0  0  0  0
   -6.9622    1.6913   58.3244 H   0  0  0  0  0  0  0  0  0  0  0  0
  -10.5615    2.2354   59.8724 H   0  0  0  0  0  0  0  0  0  0  0  0
   -9.5860    3.3440   60.8481 H   0  0  0  0  0  0  0  0  0  0  0  0
   -9.5232    0.3572   60.8380 H   0  0  0  0  0  0  0  0  0  0  0  0
   -9.8432    1.4463   62.1797 H   0  0  0  0  0  0  0  0  0  0  0  0
   -7.5331    2.2546   62.0667 H   0  0  0  0  0  0  0  0  0  0  0  0
   -6.6600   -1.2285   61.5268 H   0  0  0  0  0  0  0  0  0  0  0  0
   -8.4135   -1.2132   61.6858 H   0  0  0  0  0  0  0  0  0  0  0  0
   -6.8546   -2.9597   62.9789 H   0  0  0  0  0  0  0  0  0  0  0  0
   -8.3990   -2.3606   63.6094 H   0  0  0  0  0  0  0  0  0  0  0  0
   -6.2612   -2.3749   65.1153 H   0  0  0  0  0  0  0  0  0  0  0  0
   -7.4176   -1.0615   65.1864 H   0  0  0  0  0  0  0  0  0  0  0  0
   -4.5230   -0.7854   66.1403 H   0  0  0  0  0  0  0  0  0  0  0  0
   -4.0842    0.5639   65.6183 H   0  0  0  0  0  0  0  0  0  0  0  0
   -5.3905    0.6746   62.4979 H   0  0  0  0  0  0  0  0  0  0  0  0
   -6.1550    1.4245   63.9060 H   0  0  0  0  0  0  0  0  0  0  0  0
  -10.1078    5.7510   52.3761 H   0  0  0  0  0  0  0  0  0  0  0  0
   -8.3909    5.9377   52.0221 H   0  0  0  0  0  0  0  0  0  0  0  0
   -8.6943   10.3321   50.9973 H   0  0  0  0  0  0  0  0  0  0  0  0
  -10.5613   10.0929   54.7252 H   0  0  0  0  0  0  0  0  0  0  0  0
  1  2  2  0
  2  3  1  0
  3  4  2  0
  3 36  1  0
  4  5  1  0
  4 23  1  0
  5  1  1  0
  6  7  1  0
  7  8  1  0
  7 37  1  6
  8  9  1  0
  8 38  1  0
  8 39  1  0
  9 10  1  0
  9  1  1  0
 10 11  1  0
 10 40  1  0
 10 41  1  0
 11 12  1  0
 11 42  1  0
 11 43  1  0
 12 13  1  0
 12  7  1  0
 12 44  1  1
 13 14  1  0
 14 15  1  0
 14 45  1  0
 14 46  1  0
 15 16  1  0
 15 47  1  0
 15 48  1  0
 16 49  1  0
 16 50  1  0
 17 16  1  1
 17 18  1  0
 17 22  1  0
 18 19  1  0
 18 51  1  0
 18 52  1  0
 19 20  1  0
 19 21  1  0
 19 17  1  0
 22 13  1  0
 22 53  1  0
 22 54  1  0
 23 24  2  0
 23 25  1  0
 25 27  1  0
 25 26  1  0
 27 28  1  0
 27 55  1  0
 27 56  1  0
 28 29  2  0
 29 30  1  0
 30 31  2  0
 30 57  1  0
 31 32  1  0
 31 33  1  0
 33 34  2  0
 33 58  1  0
 34 35  1  0
 34 28  1  0
M  END
>  <minimizedAffinity>  (1) 
-8.65236

>  <mol_id>  (1) 
14322

>  <source_index>  (1) 
0

>  <layer>  (1) 
L2

>  <uniprot>  (1) 
P18825

>  <paff>  (1) 
9.1308000000000007

>  <smiles>  (1) 
FC1CN(CCC1N1CCCC2(CC2(F)F)C1)c1ncc(s1)C(=O)NCc1ncc(F)cc1F

$$$$
L2:P18825:42511
     RDKit          3D

 57 60  0  0  0  0  0  0  0  0999 V2000
   -8.9727    3.3487   57.7816 C   0  0  0  0  0  0  0  0  0  0  0  0
   -8.7070    2.3526   56.9600 N   0  0  0  0  0  0  0  0  0  0  0  0
   -8.8243    2.7432   55.6421 C   0  0  0  0  0  0  0  0  0  0  0  0
   -9.1852    4.0557   55.4328 C   0  0  0  0  0  0  0  0  0  0  0  0
   -9.3871    4.8139   56.9566 S   0  0  0  0  0  0  0  0  0  0  0  0
   -8.8710    2.2392   61.7620 C   0  0  0  0  0  0  0  0  0  0  0  0
   -7.5406    2.6819   61.1183 C   0  0  0  0  0  0  0  0  0  0  0  0
   -7.7242    3.6021   59.9073 C   0  0  0  0  0  0  0  0  0  0  0  0
   -8.9030    3.2189   59.1429 N   0  0  0  0  0  0  0  0  0  0  0  0
  -10.1854    3.2067   59.8590 C   0  0  0  0  0  0  0  0  0  0  0  0
  -10.0011    3.2009   61.3772 C   0  0  0  0  0  0  0  0  0  0  0  0
   -5.7288    0.2172   64.7367 C   0  0  0  0  0  0  0  0  0  0  0  0
   -6.6701    1.3775   64.4174 C   0  0  2  0  0  0  0  0  0  0  0  0
   -7.1360    2.0726   65.7045 C   0  0  0  0  0  0  0  0  0  0  0  0
   -8.4608    2.8123   65.5235 C   0  0  0  0  0  0  0  0  0  0  0  0
   -8.7203    3.1786   64.0633 C   0  0  0  0  0  0  0  0  0  0  0  0
   -8.7965    1.9867   63.2146 N   0  0  0  0  0  0  0  0  0  0  0  0
   -7.8715    0.9058   63.5849 C   0  0  0  0  0  0  0  0  0  0  0  0
   -9.3989    4.8116   54.2143 C   0  0  0  0  0  0  0  0  0  0  0  0
  -10.1663    4.4646   53.3175 O   0  0  0  0  0  0  0  0  0  0  0  0
   -8.6712    5.9816   54.1041 N   0  0  0  0  0  0  0  0  0  0  0  0
   -7.9976    6.2359   54.8095 H   0  0  0  0  0  0  0  0  0  0  0  0
   -8.7274    6.8085   52.9194 C   0  0  0  0  0  0  0  0  0  0  0  0
   -9.2519    8.1763   53.2422 C   0  0  0  0  0  0  0  0  0  0  0  0
   -9.8078    8.4593   54.4961 C   0  0  0  0  0  0  0  0  0  0  0  0
  -10.2980    9.7356   54.7384 C   0  0  0  0  0  0  0  0  0  0  0  0
  -10.2763   10.7349   53.8273 N   0  0  0  0  0  0  0  0  0  0  0  0
   -9.7439   10.4372   52.6184 C   0  0  0  0  0  0  0  0  0  0  0  0
   -9.2338    9.1922   52.2897 C   0  0  0  0  0  0  0  0  0  0  0  0
   -8.7361    8.9714   51.0645 F   0  0  0  0  0  0  0  0  0  0  0  0
   -8.6521    2.0915   54.8606 H   0  0  0  0  0  0  0  0  0  0  0  0
   -9.0984    1.2769   61.3532 H   0  0  0  0  0  0  0  0  0  0  0  0
   -7.0099    1.8081   60.8024 H   0  0  0  0  0  0  0  0  0  0  0  0
   -7.0029    3.2380   61.8576 H   0  0  0  0  0  0  0  0  0  0  0  0
   -6.8606    3.5326   59.2794 H   0  0  0  0  0  0  0  0  0  0  0  0
   -7.8512    4.6062   60.2546 H   0  0  0  0  0  0  0  0  0  0  0  0
  -10.7300    2.3306   59.5749 H   0  0  0  0  0  0  0  0  0  0  0  0
  -10.7159    4.0981   59.5966 H   0  0  0  0  0  0  0  0  0  0  0  0
  -10.9105    2.8844   61.8438 H   0  0  0  0  0  0  0  0  0  0  0  0
   -9.7506    4.1880   61.7054 H   0  0  0  0  0  0  0  0  0  0  0  0
   -4.9039    0.5762   65.3160 H   0  0  0  0  0  0  0  0  0  0  0  0
   -5.3657   -0.2088   63.8248 H   0  0  0  0  0  0  0  0  0  0  0  0
   -6.2576   -0.5284   65.2930 H   0  0  0  0  0  0  0  0  0  0  0  0
   -6.1259    2.0887   63.8318 H   0  0  0  0  0  0  0  0  0  0  0  0
   -6.3881    2.7766   66.0043 H   0  0  0  0  0  0  0  0  0  0  0  0
   -7.2846    1.3164   66.4468 H   0  0  0  0  0  0  0  0  0  0  0  0
   -8.4369    3.7100   66.1053 H   0  0  0  0  0  0  0  0  0  0  0  0
   -9.2475    2.1620   65.8446 H   0  0  0  0  0  0  0  0  0  0  0  0
   -7.9241    3.8028   63.7149 H   0  0  0  0  0  0  0  0  0  0  0  0
   -9.6585    3.6901   64.0078 H   0  0  0  0  0  0  0  0  0  0  0  0
   -7.5037    0.4540   62.6874 H   0  0  0  0  0  0  0  0  0  0  0  0
   -8.4219    0.2186   64.1929 H   0  0  0  0  0  0  0  0  0  0  0  0
   -9.3724    6.3471   52.2010 H   0  0  0  0  0  0  0  0  0  0  0  0
   -7.7374    6.9075   52.5258 H   0  0  0  0  0  0  0  0  0  0  0  0
   -9.8523    7.7321   55.2270 H   0  0  0  0  0  0  0  0  0  0  0  0
  -10.7022    9.9331   55.6672 H   0  0  0  0  0  0  0  0  0  0  0  0
   -9.7167   11.1795   51.9019 H   0  0  0  0  0  0  0  0  0  0  0  0
  1  2  2  0
  2  3  1  0
  3  4  2  0
  3 31  1  0
  4  5  1  0
  4 19  1  0
  5  1  1  0
  6  7  1  0
  6 32  1  0
  7  8  1  0
  7 33  1  0
  7 34  1  0
  8  9  1  0
  8 35  1  0
  8 36  1  0
  9 10  1  0
  9  1  1  0
 10 11  1  0
 10 37  1  0
 10 38  1  0
 11  6  1  0
 11 39  1  0
 11 40  1  0
 12 13  1  0
 12 41  1  0
 12 42  1  0
 12 43  1  0
 13 14  1  0
 13 44  1  6
 14 15  1  0
 14 45  1  0
 14 46  1  0
 15 16  1  0
 15 47  1  0
 15 48  1  0
 16 17  1  0
 16 49  1  0
 16 50  1  0
 17 18  1  0
 17  6  1  0
 18 13  1  0
 18 51  1  0
 18 52  1  0
 19 20  2  0
 19 21  1  0
 21 23  1  0
 21 22  1  0
 23 24  1  0
 23 53  1  0
 23 54  1  0
 24 25  2  0
 25 26  1  0
 25 55  1  0
 26 27  2  0
 26 56  1  0
 27 28  1  0
 28 29  2  0
 28 57  1  0
 29 30  1  0
 29 24  1  0
M  END
>  <minimizedAffinity>  (2) 
-8.23316

>  <mol_id>  (2) 
42511

>  <source_index>  (2) 
1

>  <layer>  (2) 
L2

>  <uniprot>  (2) 
P18825

>  <paff>  (2) 
6.3978999999999999

>  <smiles>  (2) 
C[C@@H]1CCCN(C1)C1CCN(CC1)c1ncc(s1)C(=O)NCc1ccncc1F |r|

$$$$
L2:P18825:61015
     RDKit          3D

 61 64  0  0  0  0  0  0  0  0999 V2000
   -8.2395    2.1655   59.0757 C   0  0  0  0  0  0  0  0  0  0  0  0
   -9.3660    2.8500   59.1163 N   0  0  0  0  0  0  0  0  0  0  0  0
   -9.7410    3.2720   57.8579 C   0  0  0  0  0  0  0  0  0  0  0  0
   -8.9109    2.8968   56.8252 C   0  0  0  0  0  0  0  0  0  0  0  0
   -7.6039    2.0003   57.4723 S   0  0  0  0  0  0  0  0  0  0  0  0
   -6.6838   -0.1252   62.1371 C   0  0  0  0  0  0  0  0  0  0  0  0
   -7.8294    0.8142   62.5455 C   0  0  0  0  0  0  0  0  0  0  0  0
   -8.5712    1.3261   61.3065 C   0  0  0  0  0  0  0  0  0  0  0  0
   -7.6635    1.6246   60.1945 N   0  0  0  0  0  0  0  0  0  0  0  0
   -6.2810    1.8916   60.5585 C   0  0  0  0  0  0  0  0  0  0  0  0
   -5.6773    0.6835   61.2793 C   0  0  0  0  0  0  0  0  0  0  0  0
   -3.0390   -0.8150   64.5907 C   0  0  0  0  0  0  0  0  0  0  0  0
   -4.4304   -0.6178   65.2003 C   0  0  2  0  0  0  0  0  0  0  0  0
   -5.0062   -1.9743   65.6410 C   0  0  0  0  0  0  0  0  0  0  0  0
   -6.5118   -2.0062   65.4462 C   0  0  0  0  0  0  0  0  0  0  0  0
   -6.8813   -1.7362   63.9806 C   0  0  0  0  0  0  0  0  0  0  0  0
   -5.9863   -0.7875   63.2739 N   0  0  0  0  0  0  0  0  0  0  0  0
   -5.3735    0.1371   64.2345 C   0  0  0  0  0  0  0  0  0  0  0  0
   -8.9873    3.1489   55.4003 C   0  0  0  0  0  0  0  0  0  0  0  0
   -9.0228    2.2625   54.5490 O   0  0  0  0  0  0  0  0  0  0  0  0
   -9.0306    4.4844   55.0419 N   0  0  0  0  0  0  0  0  0  0  0  0
   -9.2127    5.1768   55.7518 H   0  0  0  0  0  0  0  0  0  0  0  0
   -9.2420    4.8912   53.6710 C   0  0  0  0  0  0  0  0  0  0  0  0
   -9.4037    6.3870   53.5767 C   0  0  0  0  0  0  0  0  0  0  0  0
   -9.7940    7.1263   54.7020 C   0  0  0  0  0  0  0  0  0  0  0  0
   -9.9228    8.5150   54.6304 C   0  0  0  0  0  0  0  0  0  0  0  0
   -9.6524    9.1945   53.4340 C   0  0  0  0  0  0  0  0  0  0  0  0
   -9.2622    8.4532   52.3080 C   0  0  0  0  0  0  0  0  0  0  0  0
   -9.1323    7.0638   52.3803 C   0  0  0  0  0  0  0  0  0  0  0  0
   -9.8148   10.6919   53.3470 C   0  0  0  0  0  0  0  0  0  0  0  0
   -9.2307   11.3381   54.3933 F   0  0  0  0  0  0  0  0  0  0  0  0
  -11.1192   11.0866   53.3468 F   0  0  0  0  0  0  0  0  0  0  0  0
   -9.2661   11.2291   52.2216 F   0  0  0  0  0  0  0  0  0  0  0  0
  -10.5917    3.8345   57.6999 H   0  0  0  0  0  0  0  0  0  0  0  0
   -7.1188   -0.9294   61.5812 H   0  0  0  0  0  0  0  0  0  0  0  0
   -7.4271    1.6467   63.0840 H   0  0  0  0  0  0  0  0  0  0  0  0
   -8.5171    0.2737   63.1618 H   0  0  0  0  0  0  0  0  0  0  0  0
   -9.1002    2.2189   61.5673 H   0  0  0  0  0  0  0  0  0  0  0  0
   -9.2387    0.5544   60.9843 H   0  0  0  0  0  0  0  0  0  0  0  0
   -6.2447    2.7429   61.2057 H   0  0  0  0  0  0  0  0  0  0  0  0
   -5.7180    2.0825   59.6688 H   0  0  0  0  0  0  0  0  0  0  0  0
   -4.8970    1.0340   61.9221 H   0  0  0  0  0  0  0  0  0  0  0  0
   -5.3265    0.0196   60.5170 H   0  0  0  0  0  0  0  0  0  0  0  0
   -2.4163   -1.3391   65.2853 H   0  0  0  0  0  0  0  0  0  0  0  0
   -2.6063    0.1392   64.3733 H   0  0  0  0  0  0  0  0  0  0  0  0
   -3.1225   -1.3828   63.6877 H   0  0  0  0  0  0  0  0  0  0  0  0
   -4.3409   -0.0005   66.0697 H   0  0  0  0  0  0  0  0  0  0  0  0
   -4.7823   -2.1317   66.6754 H   0  0  0  0  0  0  0  0  0  0  0  0
   -4.5654   -2.7456   65.0446 H   0  0  0  0  0  0  0  0  0  0  0  0
   -6.9608   -1.2570   66.0643 H   0  0  0  0  0  0  0  0  0  0  0  0
   -6.8705   -2.9777   65.7155 H   0  0  0  0  0  0  0  0  0  0  0  0
   -7.8738   -1.3371   63.9564 H   0  0  0  0  0  0  0  0  0  0  0  0
   -6.7878   -2.6723   63.4709 H   0  0  0  0  0  0  0  0  0  0  0  0
   -6.1446    0.6163   64.8007 H   0  0  0  0  0  0  0  0  0  0  0  0
   -4.8015    0.8625   63.6945 H   0  0  0  0  0  0  0  0  0  0  0  0
  -10.1259    4.4183   53.2968 H   0  0  0  0  0  0  0  0  0  0  0  0
   -8.3909    4.6005   53.0913 H   0  0  0  0  0  0  0  0  0  0  0  0
   -9.9879    6.6399   55.5913 H   0  0  0  0  0  0  0  0  0  0  0  0
  -10.2193    9.0453   55.4646 H   0  0  0  0  0  0  0  0  0  0  0  0
   -9.0694    8.9389   51.4181 H   0  0  0  0  0  0  0  0  0  0  0  0
   -8.8345    6.5327   51.5471 H   0  0  0  0  0  0  0  0  0  0  0  0
  1  2  2  0
  2  3  1  0
  3  4  2  0
  3 34  1  0
  4  5  1  0
  4 19  1  0
  5  1  1  0
  6  7  1  0
  6 35  1  0
  7  8  1  0
  7 36  1  0
  7 37  1  0
  8  9  1  0
  8 38  1  0
  8 39  1  0
  9 10  1  0
  9  1  1  0
 10 11  1  0
 10 40  1  0
 10 41  1  0
 11  6  1  0
 11 42  1  0
 11 43  1  0
 12 13  1  0
 12 44  1  0
 12 45  1  0
 12 46  1  0
 13 14  1  0
 13 47  1  1
 14 15  1  0
 14 48  1  0
 14 49  1  0
 15 16  1  0
 15 50  1  0
 15 51  1  0
 16 17  1  0
 16 52  1  0
 16 53  1  0
 17 18  1  0
 17  6  1  0
 18 13  1  0
 18 54  1  0
 18 55  1  0
 19 20  2  0
 19 21  1  0
 21 23  1  0
 21 22  1  0
 23 24  1  0
 23 56  1  0
 23 57  1  0
 24 25  2  0
 25 26  1  0
 25 58  1  0
 26 27  2  0
 26 59  1  0
 27 28  1  0
 27 30  1  0
 28 29  2  0
 28 60  1  0
 29 24  1  0
 29 61  1  0
 30 31  1  0
 30 32  1  0
 30 33  1  0
M  END
>  <minimizedAffinity>  (3) 
-8.70991

>  <mol_id>  (3) 
61015

>  <source_index>  (3) 
2

>  <layer>  (3) 
L2

>  <uniprot>  (3) 
P18825

>  <paff>  (3) 
6.1938000000000004

>  <smiles>  (3) 
C[C@@H]1CCCN(C1)C1CCN(CC1)c1ncc(s1)C(=O)NCc1ccc(cc1)C(F)(F)F |r|

$$$$
L2:P18825:66479
     RDKit          3D

 58 61  0  0  0  0  0  0  0  0999 V2000
   -9.7026    2.7049   59.6382 C   0  0  0  0  0  0  0  0  0  0  0  0
   -8.9323    1.7661   60.1513 N   0  0  0  0  0  0  0  0  0  0  0  0
   -9.4801    1.2442   61.3053 C   0  0  0  0  0  0  0  0  0  0  0  0
  -10.6849    1.7851   61.6929 C   0  0  0  0  0  0  0  0  0  0  0  0
  -11.1382    2.9898   60.5693 S   0  0  0  0  0  0  0  0  0  0  0  0
   -9.3422    5.0750   56.2319 C   0  0  0  0  0  0  0  0  0  0  0  0
   -8.3616    5.3703   57.3780 C   0  0  0  0  0  0  0  0  0  0  0  0
   -8.8599    4.7490   58.6857 C   0  0  0  0  0  0  0  0  0  0  0  0
   -9.3734    3.3887   58.4989 N   0  0  0  0  0  0  0  0  0  0  0  0
   -9.0006    2.7231   57.2621 C   0  0  0  0  0  0  0  0  0  0  0  0
   -9.4715    3.5412   56.0598 C   0  0  0  0  0  0  0  0  0  0  0  0
   -9.6917    9.1446   53.3411 C   0  0  0  0  0  0  0  0  0  0  0  0
   -9.1292    7.7270   53.4413 C   0  0  2  0  0  0  0  0  0  0  0  0
   -9.6208    6.8709   52.2747 C   0  0  0  0  0  0  0  0  0  0  0  0
   -9.1314    5.4405   52.4392 C   0  0  0  0  0  0  0  0  0  0  0  0
   -9.5235    4.8775   53.8044 C   0  0  0  0  0  0  0  0  0  0  0  0
   -9.0071    5.7032   54.9185 N   0  0  0  0  0  0  0  0  0  0  0  0
   -9.5032    7.0864   54.7917 C   0  0  0  0  0  0  0  0  0  0  0  0
  -11.4739    1.4262   62.8522 C   0  0  0  0  0  0  0  0  0  0  0  0
  -10.9888    0.8822   63.8417 O   0  0  0  0  0  0  0  0  0  0  0  0
  -12.8186    1.7214   62.7795 N   0  0  0  0  0  0  0  0  0  0  0  0
  -13.1854    2.0735   61.9049 H   0  0  0  0  0  0  0  0  0  0  0  0
  -13.7557    1.3273   63.8031 C   0  0  0  0  0  0  0  0  0  0  0  0
  -15.1572    1.7211   63.4356 C   0  0  0  0  0  0  0  0  0  0  0  0
  -15.4466    3.0247   63.0030 C   0  0  0  0  0  0  0  0  0  0  0  0
  -16.7562    3.3818   62.6759 C   0  0  0  0  0  0  0  0  0  0  0  0
  -17.0952    4.9788   62.1307 Cl  0  0  0  0  0  0  0  0  0  0  0  0
  -17.7922    2.4544   62.7843 C   0  0  0  0  0  0  0  0  0  0  0  0
  -17.5162    1.1610   63.2277 C   0  0  0  0  0  0  0  0  0  0  0  0
  -16.2082    0.8073   63.5510 C   0  0  0  0  0  0  0  0  0  0  0  0
  -15.9639   -0.4371   63.9837 F   0  0  0  0  0  0  0  0  0  0  0  0
   -9.0159    0.4959   61.8435 H   0  0  0  0  0  0  0  0  0  0  0  0
  -10.2687    5.5243   56.5228 H   0  0  0  0  0  0  0  0  0  0  0  0
   -8.2745    6.4295   57.5024 H   0  0  0  0  0  0  0  0  0  0  0  0
   -7.4093    4.9471   57.1354 H   0  0  0  0  0  0  0  0  0  0  0  0
   -9.6441    5.3611   59.0799 H   0  0  0  0  0  0  0  0  0  0  0  0
   -8.0292    4.6943   59.3579 H   0  0  0  0  0  0  0  0  0  0  0  0
   -9.4552    1.7550   57.2308 H   0  0  0  0  0  0  0  0  0  0  0  0
   -7.9355    2.6279   57.2241 H   0  0  0  0  0  0  0  0  0  0  0  0
  -10.5013    3.3111   55.8825 H   0  0  0  0  0  0  0  0  0  0  0  0
   -8.8344    3.2733   55.2430 H   0  0  0  0  0  0  0  0  0  0  0  0
   -9.4207    9.5700   52.3974 H   0  0  0  0  0  0  0  0  0  0  0  0
   -9.2902    9.7443   54.1311 H   0  0  0  0  0  0  0  0  0  0  0  0
  -10.7579    9.1120   53.4246 H   0  0  0  0  0  0  0  0  0  0  0  0
   -8.0620    7.7825   53.3869 H   0  0  0  0  0  0  0  0  0  0  0  0
   -9.2435    7.2715   51.3571 H   0  0  0  0  0  0  0  0  0  0  0  0
  -10.6907    6.8773   52.2597 H   0  0  0  0  0  0  0  0  0  0  0  0
   -8.0655    5.4233   52.3473 H   0  0  0  0  0  0  0  0  0  0  0  0
   -9.5845    4.8373   51.6804 H   0  0  0  0  0  0  0  0  0  0  0  0
   -9.1267    3.8880   53.8960 H   0  0  0  0  0  0  0  0  0  0  0  0
  -10.5918    4.8756   53.8645 H   0  0  0  0  0  0  0  0  0  0  0  0
   -9.0816    7.6755   55.5792 H   0  0  0  0  0  0  0  0  0  0  0  0
  -10.5711    7.0551   54.8515 H   0  0  0  0  0  0  0  0  0  0  0  0
  -13.4889    1.8041   64.7231 H   0  0  0  0  0  0  0  0  0  0  0  0
  -13.7183    0.2629   63.9056 H   0  0  0  0  0  0  0  0  0  0  0  0
  -14.6891    3.7214   62.9265 H   0  0  0  0  0  0  0  0  0  0  0  0
  -18.7575    2.7236   62.5379 H   0  0  0  0  0  0  0  0  0  0  0  0
  -18.2772    0.4696   63.3158 H   0  0  0  0  0  0  0  0  0  0  0  0
  1  2  2  0
  2  3  1  0
  3  4  2  0
  3 32  1  0
  4  5  1  0
  4 19  1  0
  5  1  1  0
  6  7  1  0
  6 33  1  0
  7  8  1  0
  7 34  1  0
  7 35  1  0
  8  9  1  0
  8 36  1  0
  8 37  1  0
  9 10  1  0
  9  1  1  0
 10 11  1  0
 10 38  1  0
 10 39  1  0
 11  6  1  0
 11 40  1  0
 11 41  1  0
 12 13  1  0
 12 42  1  0
 12 43  1  0
 12 44  1  0
 13 14  1  0
 13 45  1  1
 14 15  1  0
 14 46  1  0
 14 47  1  0
 15 16  1  0
 15 48  1  0
 15 49  1  0
 16 17  1  0
 16 50  1  0
 16 51  1  0
 17 18  1  0
 17  6  1  0
 18 13  1  0
 18 52  1  0
 18 53  1  0
 19 20  2  0
 19 21  1  0
 21 23  1  0
 21 22  1  0
 23 24  1  0
 23 54  1  0
 23 55  1  0
 24 25  2  0
 25 26  1  0
 25 56  1  0
 26 27  1  0
 26 28  2  0
 28 29  1  0
 28 57  1  0
 29 30  2  0
 29 58  1  0
 30 31  1  0
 30 24  1  0
M  END
>  <minimizedAffinity>  (4) 
-8.21153

>  <mol_id>  (4) 
66479

>  <source_index>  (4) 
3

>  <layer>  (4) 
L2

>  <uniprot>  (4) 
P18825

>  <paff>  (4) 
8.1426999999999996

>  <smiles>  (4) 
C[C@@H]1CCCN(C1)C1CCN(CC1)c1ncc(s1)C(=O)NCc1cc(Cl)ccc1F |r|

$$$$
L2:P18825:93624
     RDKit          3D

 60 63  0  0  0  0  0  0  0  0999 V2000
   -9.0652    3.6662   58.1762 C   0  0  0  0  0  0  0  0  0  0  0  0
   -8.5766    2.6161   57.5465 N   0  0  0  0  0  0  0  0  0  0  0  0
   -8.6746    2.7642   56.1786 C   0  0  0  0  0  0  0  0  0  0  0  0
   -9.2744    3.9242   55.7432 C   0  0  0  0  0  0  0  0  0  0  0  0
   -9.7268    4.8578   57.0988 S   0  0  0  0  0  0  0  0  0  0  0  0
   -9.7982    3.8705   62.4085 C   0  0  0  0  0  0  0  0  0  0  0  0
   -8.7754    2.8815   61.8133 C   0  0  0  0  0  0  0  0  0  0  0  0
   -9.0754    2.5540   60.3515 C   0  0  0  0  0  0  0  0  0  0  0  0
   -9.0991    3.7833   59.5455 N   0  0  0  0  0  0  0  0  0  0  0  0
  -10.0200    4.8157   60.0568 C   0  0  0  0  0  0  0  0  0  0  0  0
   -9.7167    5.1318   61.5215 C   0  0  0  0  0  0  0  0  0  0  0  0
  -12.9519    0.3758   64.0890 C   0  0  0  0  0  0  0  0  0  0  0  0
  -12.7128    1.4420   63.0057 C   0  0  0  0  0  0  0  0  0  0  0  0
  -12.7654    0.7529   61.6286 C   0  0  0  0  0  0  0  0  0  0  0  0
  -13.8298    2.5124   63.0663 C   0  0  0  0  0  0  0  0  0  0  0  0
  -13.3457    3.7626   63.7825 C   0  0  0  0  0  0  0  0  0  0  0  0
  -12.1125    4.3482   63.0804 C   0  0  0  0  0  0  0  0  0  0  0  0
  -11.1834    3.3435   62.5126 N   0  0  0  0  0  0  0  0  0  0  0  0
  -11.3077    2.0742   63.2386 C   0  0  0  0  0  0  0  0  0  0  0  0
   -9.5090    4.3265   54.3722 C   0  0  0  0  0  0  0  0  0  0  0  0
  -10.2495    3.7011   53.6214 O   0  0  0  0  0  0  0  0  0  0  0  0
   -8.8398    5.4568   53.9587 N   0  0  0  0  0  0  0  0  0  0  0  0
   -8.2688    5.9478   54.6330 H   0  0  0  0  0  0  0  0  0  0  0  0
   -9.0636    6.0711   52.6660 C   0  0  0  0  0  0  0  0  0  0  0  0
   -9.2758    7.5620   52.7780 C   0  0  0  0  0  0  0  0  0  0  0  0
   -8.8826    8.3463   51.7372 N   0  0  0  0  0  0  0  0  0  0  0  0
   -9.1038    9.6789   51.8509 C   0  0  0  0  0  0  0  0  0  0  0  0
   -9.6969   10.2633   52.9574 C   0  0  0  0  0  0  0  0  0  0  0  0
   -9.8867   11.5872   53.0083 F   0  0  0  0  0  0  0  0  0  0  0  0
  -10.0959    9.4609   54.0126 C   0  0  0  0  0  0  0  0  0  0  0  0
   -9.8846    8.0928   53.9150 C   0  0  0  0  0  0  0  0  0  0  0  0
  -10.2768    7.2924   54.9159 F   0  0  0  0  0  0  0  0  0  0  0  0
   -8.3205    2.0503   55.5229 H   0  0  0  0  0  0  0  0  0  0  0  0
   -9.5502    4.0758   63.4289 H   0  0  0  0  0  0  0  0  0  0  0  0
   -8.8005    1.9755   62.3819 H   0  0  0  0  0  0  0  0  0  0  0  0
   -7.8099    3.3406   61.8564 H   0  0  0  0  0  0  0  0  0  0  0  0
  -10.0282    2.0714   60.2866 H   0  0  0  0  0  0  0  0  0  0  0  0
   -8.3097    1.9076   59.9763 H   0  0  0  0  0  0  0  0  0  0  0  0
  -11.0261    4.4608   59.9750 H   0  0  0  0  0  0  0  0  0  0  0  0
   -9.8930    5.7071   59.4787 H   0  0  0  0  0  0  0  0  0  0  0  0
  -10.4264    5.8504   61.8750 H   0  0  0  0  0  0  0  0  0  0  0  0
   -8.7196    5.5157   61.5796 H   0  0  0  0  0  0  0  0  0  0  0  0
  -13.9139   -0.0699   63.9446 H   0  0  0  0  0  0  0  0  0  0  0  0
  -12.9124    0.8339   65.0552 H   0  0  0  0  0  0  0  0  0  0  0  0
  -12.1956   -0.3781   64.0206 H   0  0  0  0  0  0  0  0  0  0  0  0
  -13.7343    0.3235   61.4814 H   0  0  0  0  0  0  0  0  0  0  0  0
  -12.0238   -0.0173   61.5866 H   0  0  0  0  0  0  0  0  0  0  0  0
  -12.5746    1.4740   60.8614 H   0  0  0  0  0  0  0  0  0  0  0  0
  -14.6711    2.1113   63.5919 H   0  0  0  0  0  0  0  0  0  0  0  0
  -14.1046    2.7763   62.0664 H   0  0  0  0  0  0  0  0  0  0  0  0
  -13.0899    3.5126   64.7910 H   0  0  0  0  0  0  0  0  0  0  0  0
  -14.1284    4.4920   63.7674 H   0  0  0  0  0  0  0  0  0  0  0  0
  -11.5720    4.9359   63.7927 H   0  0  0  0  0  0  0  0  0  0  0  0
  -12.4802    4.9188   62.2533 H   0  0  0  0  0  0  0  0  0  0  0  0
  -11.1721    2.2532   64.2848 H   0  0  0  0  0  0  0  0  0  0  0  0
  -10.5617    1.3971   62.8781 H   0  0  0  0  0  0  0  0  0  0  0  0
   -9.9310    5.6312   52.2198 H   0  0  0  0  0  0  0  0  0  0  0  0
   -8.1935    5.9050   52.0658 H   0  0  0  0  0  0  0  0  0  0  0  0
   -8.8148   10.2904   51.0714 H   0  0  0  0  0  0  0  0  0  0  0  0
  -10.5391    9.8696   54.8502 H   0  0  0  0  0  0  0  0  0  0  0  0
  1  2  2  0
  2  3  1  0
  3  4  2  0
  3 33  1  0
  4  5  1  0
  4 20  1  0
  5  1  1  0
  6  7  1  0
  6 34  1  0
  7  8  1  0
  7 35  1  0
  7 36  1  0
  8  9  1  0
  8 37  1  0
  8 38  1  0
  9 10  1  0
  9  1  1  0
 10 11  1  0
 10 39  1  0
 10 40  1  0
 11  6  1  0
 11 41  1  0
 11 42  1  0
 12 13  1  0
 12 43  1  0
 12 44  1  0
 12 45  1  0
 13 14  1  0
 13 15  1  0
 14 46  1  0
 14 47  1  0
 14 48  1  0
 15 16  1  0
 15 49  1  0
 15 50  1  0
 16 17  1  0
 16 51  1  0
 16 52  1  0
 17 18  1  0
 17 53  1  0
 17 54  1  0
 18 19  1  0
 18  6  1  0
 19 13  1  0
 19 55  1  0
 19 56  1  0
 20 21  2  0
 20 22  1  0
 22 24  1  0
 22 23  1  0
 24 25  1  0
 24 57  1  0
 24 58  1  0
 25 26  2  0
 26 27  1  0
 27 28  2  0
 27 59  1  0
 28 29  1  0
 28 30  1  0
 30 31  2  0
 30 60  1  0
 31 32  1  0
 31 25  1  0
M  END
>  <minimizedAffinity>  (5) 
-8.62117

>  <mol_id>  (5) 
93624

>  <source_index>  (5) 
4

>  <layer>  (5) 
L2

>  <uniprot>  (5) 
P18825

>  <paff>  (5) 
6.2441000000000004

>  <smiles>  (5) 
CC1(C)CCCN(C1)C1CCN(CC1)c1ncc(s1)C(=O)NCc1ncc(F)cc1F

$$$$
L2:P18825:126879
     RDKit          3D

 63 66  0  0  0  0  0  0  0  0999 V2000
   -7.4622    2.3313   60.3281 C   0  0  2  0  0  0  0  0  0  0  0  0
   -6.1594    2.2558   61.0477 N   0  0  0  0  0  0  0  0  0  0  0  0
   -5.5583    1.0141   61.0292 C   0  0  0  0  0  0  0  0  0  0  0  0
   -6.2738   -0.0070   60.5516 C   0  0  0  0  0  0  0  0  0  0  0  0
   -7.8396    0.4853   59.9764 S   0  0  0  0  0  0  0  0  0  0  0  0
   -5.5432    3.0220   60.8002 H   0  0  0  0  0  0  0  0  0  0  0  0
   -7.5726    3.1606   59.1187 N   0  0  0  0  0  0  0  0  0  0  0  0
   -8.2885    2.4994   58.0190 C   0  0  0  0  0  0  0  0  0  0  0  0
   -9.5647    3.2271   57.6006 C   0  0  0  0  0  0  0  0  0  0  0  0
   -9.2827    4.6675   57.1252 C   0  0  0  0  0  0  0  0  0  0  0  0
   -8.1914    5.2889   58.0333 C   0  0  0  0  0  0  0  0  0  0  0  0
   -8.0099    4.5373   59.3542 C   0  0  0  0  0  0  0  0  0  0  0  0
   -8.8926    4.8189   55.7026 N   0  0  0  0  0  0  0  0  0  0  0  0
   -9.7171    4.0626   54.7523 C   0  0  0  0  0  0  0  0  0  0  0  0
   -9.4551    4.4680   53.3021 C   0  0  0  0  0  0  0  0  0  0  0  0
   -9.7977    5.9336   53.0518 C   0  0  0  0  0  0  0  0  0  0  0  0
   -9.7483    6.7676   54.3379 C   0  0  2  0  0  0  0  0  0  0  0  0
   -9.5101    8.2426   54.0159 C   0  0  0  0  0  0  0  0  0  0  0  0
   -8.6788    6.2235   55.2985 C   0  0  0  0  0  0  0  0  0  0  0  0
   -9.8599    2.1768   61.0752 N   0  0  0  0  0  0  0  0  0  0  0  0
   -8.6221    2.7313   61.3829 C   0  0  0  0  0  0  0  0  0  0  0  0
   -8.4590    3.4508   62.3685 O   0  0  0  0  0  0  0  0  0  0  0  0
   -9.9037    1.7656   60.1437 H   0  0  0  0  0  0  0  0  0  0  0  0
  -12.2184    1.5744   61.4512 C   0  0  0  0  0  0  0  0  0  0  0  0
  -11.0752    2.5391   61.7794 C   0  0  2  0  0  0  0  0  0  0  0  0
  -11.4698    3.9632   61.4476 C   0  0  0  0  0  0  0  0  0  0  0  0
  -11.5238    4.4252   60.1213 C   0  0  0  0  0  0  0  0  0  0  0  0
  -11.8919    5.7413   59.8529 C   0  0  0  0  0  0  0  0  0  0  0  0
  -11.9305    6.1668   58.5837 F   0  0  0  0  0  0  0  0  0  0  0  0
  -12.2178    6.6210   60.8792 C   0  0  0  0  0  0  0  0  0  0  0  0
  -12.1748    6.1757   62.1982 C   0  0  0  0  0  0  0  0  0  0  0  0
  -11.8042    4.8592   62.4713 C   0  0  0  0  0  0  0  0  0  0  0  0
  -11.7726    4.4609   63.7501 F   0  0  0  0  0  0  0  0  0  0  0  0
   -4.5938    0.8799   61.3710 H   0  0  0  0  0  0  0  0  0  0  0  0
   -5.9349   -0.9815   60.5265 H   0  0  0  0  0  0  0  0  0  0  0  0
   -8.5493    1.5097   58.3309 H   0  0  0  0  0  0  0  0  0  0  0  0
   -7.6342    2.4979   57.1724 H   0  0  0  0  0  0  0  0  0  0  0  0
  -10.2307    3.2642   58.4372 H   0  0  0  0  0  0  0  0  0  0  0  0
   -9.9975    2.6893   56.7831 H   0  0  0  0  0  0  0  0  0  0  0  0
  -10.2182    5.1810   57.2030 H   0  0  0  0  0  0  0  0  0  0  0  0
   -8.4652    6.3000   58.2516 H   0  0  0  0  0  0  0  0  0  0  0  0
   -7.2639    5.2306   57.5030 H   0  0  0  0  0  0  0  0  0  0  0  0
   -8.9419    4.5233   59.8797 H   0  0  0  0  0  0  0  0  0  0  0  0
   -7.2614    5.0386   59.9315 H   0  0  0  0  0  0  0  0  0  0  0  0
  -10.7485    4.2377   54.9770 H   0  0  0  0  0  0  0  0  0  0  0  0
   -9.4641    3.0278   54.8525 H   0  0  0  0  0  0  0  0  0  0  0  0
  -10.0537    3.8578   52.6585 H   0  0  0  0  0  0  0  0  0  0  0  0
   -8.4128    4.3316   53.1021 H   0  0  0  0  0  0  0  0  0  0  0  0
  -10.7840    5.9917   52.6411 H   0  0  0  0  0  0  0  0  0  0  0  0
   -9.0701    6.3302   52.3748 H   0  0  0  0  0  0  0  0  0  0  0  0
  -10.6960    6.6898   54.8286 H   0  0  0  0  0  0  0  0  0  0  0  0
   -8.5667    8.3522   53.5230 H   0  0  0  0  0  0  0  0  0  0  0  0
   -9.5065    8.8097   54.9233 H   0  0  0  0  0  0  0  0  0  0  0  0
  -10.2903    8.5985   53.3760 H   0  0  0  0  0  0  0  0  0  0  0  0
   -8.6778    6.8306   56.1796 H   0  0  0  0  0  0  0  0  0  0  0  0
   -7.7466    6.2563   54.7743 H   0  0  0  0  0  0  0  0  0  0  0  0
  -11.9218    0.5749   61.6918 H   0  0  0  0  0  0  0  0  0  0  0  0
  -12.4493    1.6367   60.4083 H   0  0  0  0  0  0  0  0  0  0  0  0
  -13.0828    1.8376   62.0242 H   0  0  0  0  0  0  0  0  0  0  0  0
  -10.8818    2.4699   62.8295 H   0  0  0  0  0  0  0  0  0  0  0  0
  -11.2901    3.7875   59.3443 H   0  0  0  0  0  0  0  0  0  0  0  0
  -12.4887    7.5937   60.6658 H   0  0  0  0  0  0  0  0  0  0  0  0
  -12.4161    6.8170   62.9699 H   0  0  0  0  0  0  0  0  0  0  0  0
  1 21  1  0
  1  7  1  6
  1  2  1  0
  2  3  1  0
  2  6  1  0
  3  4  2  0
  3 34  1  0
  4  5  1  0
  4 35  1  0
  5  1  1  0
  7  8  1  0
  8  9  1  0
  8 36  1  0
  8 37  1  0
  9 10  1  0
  9 38  1  0
  9 39  1  0
 10 13  1  0
 10 11  1  0
 10 40  1  0
 11 12  1  0
 11 41  1  0
 11 42  1  0
 12  7  1  0
 12 43  1  0
 12 44  1  0
 13 14  1  0
 14 15  1  0
 14 45  1  0
 14 46  1  0
 15 16  1  0
 15 47  1  0
 15 48  1  0
 16 17  1  0
 16 49  1  0
 16 50  1  0
 17 18  1  0
 17 19  1  0
 17 51  1  1
 18 52  1  0
 18 53  1  0
 18 54  1  0
 19 13  1  0
 19 55  1  0
 19 56  1  0
 20 21  1  0
 20 23  1  0
 21 22  2  0
 24 25  1  0
 24 57  1  0
 24 58  1  0
 24 59  1  0
 25 20  1  0
 25 26  1  0
 25 60  1  1
 26 27  2  0
 27 28  1  0
 27 61  1  0
 28 29  1  0
 28 30  2  0
 30 31  1  0
 30 62  1  0
 31 32  2  0
 31 63  1  0
 32 33  1  0
 32 26  1  0
M  END
>  <minimizedAffinity>  (6) 
-8.40079

>  <mol_id>  (6) 
126879

>  <source_index>  (6) 
5

>  <layer>  (6) 
L2

>  <uniprot>  (6) 
P18825

>  <paff>  (6) 
7.6021000000000001

>  <smiles>  (6) 
CC(NC(=O)C1(N2CCC(N3CCC[C@H](C)C3)CC2)NC=CS1)c1cc(F)ccc1F

$$$$
L2:P18825:129391
     RDKit          3D

 58 61  0  0  0  0  0  0  0  0999 V2000
   -9.2106    3.2473   58.1379 C   0  0  0  0  0  0  0  0  0  0  0  0
   -8.6360    2.3361   57.3780 N   0  0  0  0  0  0  0  0  0  0  0  0
   -8.6397    2.7153   56.0518 C   0  0  0  0  0  0  0  0  0  0  0  0
   -9.2458    3.9198   55.7727 C   0  0  0  0  0  0  0  0  0  0  0  0
   -9.8033    4.6067   57.2376 S   0  0  0  0  0  0  0  0  0  0  0  0
  -10.1153    2.6154   62.2590 C   0  0  0  0  0  0  0  0  0  0  0  0
   -8.8812    1.9576   61.6232 C   0  0  0  0  0  0  0  0  0  0  0  0
   -9.0541    1.8123   60.1126 C   0  0  0  0  0  0  0  0  0  0  0  0
   -9.3602    3.1111   59.4977 N   0  0  0  0  0  0  0  0  0  0  0  0
  -10.5262    3.7999   60.0714 C   0  0  0  0  0  0  0  0  0  0  0  0
  -10.3735    3.9697   61.5821 C   0  0  0  0  0  0  0  0  0  0  0  0
   -7.2464    2.7635   66.3784 C   0  0  0  0  0  0  0  0  0  0  0  0
   -8.5265    3.2337   65.6910 C   0  0  2  0  0  0  0  0  0  0  0  0
   -9.7611    2.9100   66.5318 C   0  0  0  0  0  0  0  0  0  0  0  0
  -11.0402    3.3914   65.8415 C   0  0  0  0  0  0  0  0  0  0  0  0
  -10.8534    3.6865   64.3490 C   0  0  0  0  0  0  0  0  0  0  0  0
  -10.0185    2.6597   63.7312 N   0  0  0  0  0  0  0  0  0  0  0  0
   -8.6561    2.6141   64.2827 C   0  0  0  0  0  0  0  0  0  0  0  0
   -9.4404    4.6172   54.5184 C   0  0  0  0  0  0  0  0  0  0  0  0
  -10.1237    4.1897   53.5903 O   0  0  0  0  0  0  0  0  0  0  0  0
   -8.7813    5.8293   54.4129 N   0  0  0  0  0  0  0  0  0  0  0  0
   -8.0233    6.0184   55.0526 H   0  0  0  0  0  0  0  0  0  0  0  0
   -8.7694    6.5401   53.1542 C   0  0  0  0  0  0  0  0  0  0  0  0
   -9.1486    7.9788   53.3494 C   0  0  0  0  0  0  0  0  0  0  0  0
   -9.4625    8.4678   54.6260 C   0  0  0  0  0  0  0  0  0  0  0  0
   -9.7984    9.8091   54.7934 C   0  0  0  0  0  0  0  0  0  0  0  0
  -10.0972   10.2645   56.0165 F   0  0  0  0  0  0  0  0  0  0  0  0
   -9.8254   10.6841   53.7125 C   0  0  0  0  0  0  0  0  0  0  0  0
   -9.5079   10.2102   52.4408 C   0  0  0  0  0  0  0  0  0  0  0  0
   -9.1712    8.8683   52.2703 C   0  0  0  0  0  0  0  0  0  0  0  0
   -8.8552    8.4355   51.0420 F   0  0  0  0  0  0  0  0  0  0  0  0
   -8.2144    2.1322   55.3142 H   0  0  0  0  0  0  0  0  0  0  0  0
  -10.9839    2.0161   62.0820 H   0  0  0  0  0  0  0  0  0  0  0  0
   -8.7407    0.9883   62.0539 H   0  0  0  0  0  0  0  0  0  0  0  0
   -8.0301    2.5785   61.8103 H   0  0  0  0  0  0  0  0  0  0  0  0
   -9.8561    1.1322   59.9146 H   0  0  0  0  0  0  0  0  0  0  0  0
   -8.1412    1.4410   59.6960 H   0  0  0  0  0  0  0  0  0  0  0  0
  -11.4059    3.2246   59.8711 H   0  0  0  0  0  0  0  0  0  0  0  0
  -10.6027    4.7695   59.6255 H   0  0  0  0  0  0  0  0  0  0  0  0
  -11.2710    4.3954   61.9799 H   0  0  0  0  0  0  0  0  0  0  0  0
   -9.5402    4.6132   61.7727 H   0  0  0  0  0  0  0  0  0  0  0  0
   -7.1803    3.2060   67.3504 H   0  0  0  0  0  0  0  0  0  0  0  0
   -6.3994    3.0574   65.7944 H   0  0  0  0  0  0  0  0  0  0  0  0
   -7.2626    1.6977   66.4720 H   0  0  0  0  0  0  0  0  0  0  0  0
   -8.4647    4.2971   65.5892 H   0  0  0  0  0  0  0  0  0  0  0  0
   -9.6735    3.3941   67.4820 H   0  0  0  0  0  0  0  0  0  0  0  0
   -9.8200    1.8487   66.6543 H   0  0  0  0  0  0  0  0  0  0  0  0
  -11.3702    4.2869   66.3254 H   0  0  0  0  0  0  0  0  0  0  0  0
  -11.7574    2.6012   65.9195 H   0  0  0  0  0  0  0  0  0  0  0  0
  -10.3831    4.6407   64.2338 H   0  0  0  0  0  0  0  0  0  0  0  0
  -11.8111    3.6906   63.8719 H   0  0  0  0  0  0  0  0  0  0  0  0
   -8.0070    3.1471   63.6198 H   0  0  0  0  0  0  0  0  0  0  0  0
   -8.3941    1.5807   64.3743 H   0  0  0  0  0  0  0  0  0  0  0  0
   -9.4677    6.0811   52.4858 H   0  0  0  0  0  0  0  0  0  0  0  0
   -7.7807    6.4988   52.7471 H   0  0  0  0  0  0  0  0  0  0  0  0
   -9.4446    7.8343   55.4405 H   0  0  0  0  0  0  0  0  0  0  0  0
  -10.0782   11.6750   53.8509 H   0  0  0  0  0  0  0  0  0  0  0  0
   -9.5220   10.8489   51.6303 H   0  0  0  0  0  0  0  0  0  0  0  0
  1  2  2  0
  2  3  1  0
  3  4  2  0
  3 32  1  0
  4  5  1  0
  4 19  1  0
  5  1  1  0
  6  7  1  0
  6 33  1  0
  7  8  1  0
  7 34  1  0
  7 35  1  0
  8  9  1  0
  8 36  1  0
  8 37  1  0
  9 10  1  0
  9  1  1  0
 10 11  1  0
 10 38  1  0
 10 39  1  0
 11  6  1  0
 11 40  1  0
 11 41  1  0
 12 13  1  0
 12 42  1  0
 12 43  1  0
 12 44  1  0
 13 14  1  0
 13 45  1  6
 14 15  1  0
 14 46  1  0
 14 47  1  0
 15 16  1  0
 15 48  1  0
 15 49  1  0
 16 17  1  0
 16 50  1  0
 16 51  1  0
 17 18  1  0
 17  6  1  0
 18 13  1  0
 18 52  1  0
 18 53  1  0
 19 20  2  0
 19 21  1  0
 21 23  1  0
 21 22  1  0
 23 24  1  0
 23 54  1  0
 23 55  1  0
 24 25  2  0
 25 26  1  0
 25 56  1  0
 26 27  1  0
 26 28  2  0
 28 29  1  0
 28 57  1  0
 29 30  2  0
 29 58  1  0
 30 31  1  0
 30 24  1  0
M  END
>  <minimizedAffinity>  (7) 
-8.26419

>  <mol_id>  (7) 
129391

>  <source_index>  (7) 
6

>  <layer>  (7) 
L2

>  <uniprot>  (7) 
P18825

>  <paff>  (7) 
7.6536

>  <smiles>  (7) 
C[C@@H]1CCCN(C1)C1CCN(CC1)c1ncc(s1)C(=O)NCc1cc(F)ccc1F |r|

$$$$
L2:P18825:134891
     RDKit          3D

 61 64  0  0  0  0  0  0  0  0999 V2000
   -9.2836    3.7988   55.9835 C   0  0  0  0  0  0  0  0  0  0  0  0
   -8.6367    2.6400   56.3484 C   0  0  0  0  0  0  0  0  0  0  0  0
   -8.5787    2.3872   57.7042 N   0  0  0  0  0  0  0  0  0  0  0  0
   -9.1968    3.3265   58.3898 C   0  0  0  0  0  0  0  0  0  0  0  0
   -9.8169    4.6040   57.3926 S   0  0  0  0  0  0  0  0  0  0  0  0
   -9.2978    3.3086   59.7536 N   0  0  0  0  0  0  0  0  0  0  0  0
   -9.7609    2.0619   60.3709 C   0  0  0  0  0  0  0  0  0  0  0  0
   -9.5929    2.1477   61.8827 C   0  0  0  0  0  0  0  0  0  0  0  0
  -10.4975    3.2400   62.4977 C   0  0  0  0  0  0  0  0  0  0  0  0
  -10.5984    4.4352   61.5126 C   0  0  0  0  0  0  0  0  0  0  0  0
   -9.4170    4.5303   60.5483 C   0  0  0  0  0  0  0  0  0  0  0  0
  -11.8737    2.8269   62.8764 N   0  0  0  0  0  0  0  0  0  0  0  0
  -12.0911    2.4617   64.2790 C   0  0  0  0  0  0  0  0  0  0  0  0
  -11.9585    3.6440   65.2435 C   0  0  0  0  0  0  0  0  0  0  0  0
  -12.5328    4.9438   64.6733 C   0  0  0  0  0  0  0  0  0  0  0  0
  -13.5553    4.6705   63.5707 C   0  0  1  0  0  0  0  0  0  0  0  0
  -12.9173    3.7974   62.4509 C   0  0  0  0  0  0  0  0  0  0  0  0
  -14.6944    3.9842   64.1099 O   0  0  0  0  0  0  0  0  0  0  0  0
  -15.4994    3.3362   63.1134 C   0  0  0  0  0  0  0  0  0  0  0  0
  -16.6463    4.2218   62.6384 C   0  0  0  0  0  0  0  0  0  0  0  0
  -17.2491    4.8583   63.6647 F   0  0  0  0  0  0  0  0  0  0  0  0
  -16.2275    5.1498   61.7524 F   0  0  0  0  0  0  0  0  0  0  0  0
  -17.5885    3.4719   62.0179 F   0  0  0  0  0  0  0  0  0  0  0  0
   -8.8655    5.4717   54.3274 N   0  0  0  0  0  0  0  0  0  0  0  0
   -9.5007    4.2915   54.6400 C   0  0  0  0  0  0  0  0  0  0  0  0
  -10.1948    3.6954   53.8226 O   0  0  0  0  0  0  0  0  0  0  0  0
   -8.1849    5.8329   54.9861 H   0  0  0  0  0  0  0  0  0  0  0  0
   -8.8817    6.0225   52.9869 C   0  0  0  0  0  0  0  0  0  0  0  0
   -9.9960   11.4938   52.7562 F   0  0  0  0  0  0  0  0  0  0  0  0
   -9.7452   10.1828   52.8422 C   0  0  0  0  0  0  0  0  0  0  0  0
   -9.1079    9.5177   51.8075 C   0  0  0  0  0  0  0  0  0  0  0  0
   -8.8280    8.1917   51.8299 N   0  0  0  0  0  0  0  0  0  0  0  0
   -9.1904    7.5007   52.9476 C   0  0  0  0  0  0  0  0  0  0  0  0
   -9.8551    8.1130   54.0118 C   0  0  0  0  0  0  0  0  0  0  0  0
  -10.2321    7.4035   55.0861 F   0  0  0  0  0  0  0  0  0  0  0  0
  -10.1337    9.4725   53.9642 C   0  0  0  0  0  0  0  0  0  0  0  0
   -8.2215    2.0008   55.6527 H   0  0  0  0  0  0  0  0  0  0  0  0
   -9.1848    1.2426   59.9944 H   0  0  0  0  0  0  0  0  0  0  0  0
  -10.7938    1.9110   60.1359 H   0  0  0  0  0  0  0  0  0  0  0  0
   -8.5718    2.3771   62.1056 H   0  0  0  0  0  0  0  0  0  0  0  0
   -9.8750    1.2053   62.3036 H   0  0  0  0  0  0  0  0  0  0  0  0
  -10.0165    3.4942   63.4191 H   0  0  0  0  0  0  0  0  0  0  0  0
  -10.6452    5.3402   62.0815 H   0  0  0  0  0  0  0  0  0  0  0  0
  -11.4767    4.2826   60.9209 H   0  0  0  0  0  0  0  0  0  0  0  0
   -8.5169    4.6737   61.1088 H   0  0  0  0  0  0  0  0  0  0  0  0
   -9.5786    5.3559   59.8872 H   0  0  0  0  0  0  0  0  0  0  0  0
  -11.3705    1.7192   64.5517 H   0  0  0  0  0  0  0  0  0  0  0  0
  -13.0950    2.1001   64.3591 H   0  0  0  0  0  0  0  0  0  0  0  0
  -10.9213    3.7944   65.4591 H   0  0  0  0  0  0  0  0  0  0  0  0
  -12.5170    3.4048   66.1243 H   0  0  0  0  0  0  0  0  0  0  0  0
  -11.7334    5.5286   64.2685 H   0  0  0  0  0  0  0  0  0  0  0  0
  -13.0262    5.4677   65.4652 H   0  0  0  0  0  0  0  0  0  0  0  0
  -13.8659    5.6080   63.1590 H   0  0  0  0  0  0  0  0  0  0  0  0
  -12.4734    4.4590   61.7367 H   0  0  0  0  0  0  0  0  0  0  0  0
  -13.7184    3.2004   62.0678 H   0  0  0  0  0  0  0  0  0  0  0  0
  -15.9062    2.4380   63.5289 H   0  0  0  0  0  0  0  0  0  0  0  0
  -14.8746    3.1256   62.2707 H   0  0  0  0  0  0  0  0  0  0  0  0
   -7.9203    5.8652   52.5443 H   0  0  0  0  0  0  0  0  0  0  0  0
   -9.6614    5.5233   52.4505 H   0  0  0  0  0  0  0  0  0  0  0  0
   -8.8314   10.0611   50.9748 H   0  0  0  0  0  0  0  0  0  0  0  0
  -10.6181    9.9411   54.7457 H   0  0  0  0  0  0  0  0  0  0  0  0
  1  2  2  0
  2  3  1  0
  2 37  1  0
  3  4  2  0
  4  5  1  0
  4  6  1  0
  5  1  1  0
  6  7  1  0
  7  8  1  0
  7 38  1  0
  7 39  1  0
  8  9  1  0
  8 40  1  0
  8 41  1  0
  9 10  1  0
  9 42  1  0
 10 11  1  0
 10 43  1  0
 10 44  1  0
 11  6  1  0
 11 45  1  0
 11 46  1  0
 12  9  1  0
 12 13  1  0
 13 14  1  0
 13 47  1  0
 13 48  1  0
 14 15  1  0
 14 49  1  0
 14 50  1  0
 15 16  1  0
 15 51  1  0
 15 52  1  0
 16 17  1  0
 16 18  1  0
 16 53  1  6
 17 12  1  0
 17 54  1  0
 17 55  1  0
 18 19  1  0
 19 20  1  0
 19 56  1  0
 19 57  1  0
 20 21  1  0
 20 22  1  0
 20 23  1  0
 24 25  1  0
 24 27  1  0
 25 26  2  0
 25  1  1  0
 28 24  1  0
 28 58  1  0
 28 59  1  0
 29 30  1  0
 30 31  2  0
 31 32  1  0
 31 60  1  0
 32 33  2  0
 33 28  1  0
 33 34  1  0
 34 35  1  0
 34 36  2  0
 36 30  1  0
 36 61  1  0
M  END
>  <minimizedAffinity>  (8) 
-8.07405

>  <mol_id>  (8) 
134891

>  <source_index>  (8) 
7

>  <layer>  (8) 
L2

>  <uniprot>  (8) 
P18825

>  <paff>  (8) 
6.1938000000000004

>  <smiles>  (8) 
Fc1cnc(CNC(=O)c2cnc(s2)N2CCC(CC2)N2CCCC(C2)OCC(F)(F)F)c(F)c1

$$$$
L2:P18825:136971
     RDKit          3D

 61 64  0  0  0  0  0  0  0  0999 V2000
   -8.7428    2.7575   58.1759 C   0  0  0  0  0  0  0  0  0  0  0  0
   -9.7816    3.5541   58.3357 N   0  0  0  0  0  0  0  0  0  0  0  0
  -10.1560    4.1332   57.1407 C   0  0  0  0  0  0  0  0  0  0  0  0
   -9.4378    3.7358   56.0376 C   0  0  0  0  0  0  0  0  0  0  0  0
   -8.1768    2.6974   56.5370 S   0  0  0  0  0  0  0  0  0  0  0  0
   -6.7146    0.2459   60.7815 C   0  0  0  0  0  0  0  0  0  0  0  0
   -6.2469    1.7120   60.7622 C   0  0  0  0  0  0  0  0  0  0  0  0
   -6.7679    2.4323   59.5162 C   0  0  0  0  0  0  0  0  0  0  0  0
   -8.1598    2.0872   59.2169 N   0  0  0  0  0  0  0  0  0  0  0  0
   -8.9268    1.5058   60.3057 C   0  0  0  0  0  0  0  0  0  0  0  0
   -8.2642    0.2115   60.7810 C   0  0  0  0  0  0  0  0  0  0  0  0
   -7.7721   -2.5186   64.8166 C   0  0  0  0  0  0  0  0  0  0  0  0
   -6.7123   -1.6997   64.0811 C   0  0  2  0  0  0  0  0  0  0  0  0
   -6.2587   -0.5067   64.9352 C   0  0  0  0  0  0  0  0  0  0  0  0
   -5.7701    0.6606   64.0810 C   0  0  0  0  0  0  0  0  0  0  0  0
   -5.2067    0.1831   62.7451 C   0  0  0  0  0  0  0  0  0  0  0  0
   -6.1791   -0.5539   61.9150 N   0  0  0  0  0  0  0  0  0  0  0  0
   -7.2246   -1.2189   62.7147 C   0  0  0  0  0  0  0  0  0  0  0  0
   -9.5700    4.2167   54.6798 C   0  0  0  0  0  0  0  0  0  0  0  0
   -9.9130    3.4459   53.7812 O   0  0  0  0  0  0  0  0  0  0  0  0
   -9.2900    5.5593   54.4001 N   0  0  0  0  0  0  0  0  0  0  0  0
   -8.5866    6.4660   55.2991 C   0  0  0  0  0  0  0  0  0  0  0  0
   -9.6650    6.0889   53.0908 C   0  0  0  0  0  0  0  0  0  0  0  0
   -9.7574    7.5969   53.0636 C   0  0  0  0  0  0  0  0  0  0  0  0
  -10.5157    8.2822   54.0241 C   0  0  0  0  0  0  0  0  0  0  0  0
  -10.5995    9.6752   54.0021 C   0  0  0  0  0  0  0  0  0  0  0  0
   -9.9266   10.3993   53.0206 C   0  0  0  0  0  0  0  0  0  0  0  0
   -9.1681    9.7312   52.0617 C   0  0  0  0  0  0  0  0  0  0  0  0
   -9.0826    8.3374   52.0823 C   0  0  0  0  0  0  0  0  0  0  0  0
  -10.9244    4.8193   57.0789 H   0  0  0  0  0  0  0  0  0  0  0  0
   -6.3199   -0.2156   59.9005 H   0  0  0  0  0  0  0  0  0  0  0  0
   -5.1772    1.7390   60.7615 H   0  0  0  0  0  0  0  0  0  0  0  0
   -6.6313    2.2061   61.6299 H   0  0  0  0  0  0  0  0  0  0  0  0
   -6.1581    2.1592   58.6804 H   0  0  0  0  0  0  0  0  0  0  0  0
   -6.7242    3.4848   59.7038 H   0  0  0  0  0  0  0  0  0  0  0  0
   -9.9185    1.2918   59.9655 H   0  0  0  0  0  0  0  0  0  0  0  0
   -8.9635    2.2003   61.1189 H   0  0  0  0  0  0  0  0  0  0  0  0
   -8.5807   -0.5822   60.1370 H   0  0  0  0  0  0  0  0  0  0  0  0
   -8.5660    0.0705   61.7978 H   0  0  0  0  0  0  0  0  0  0  0  0
   -7.3844   -2.8371   65.7616 H   0  0  0  0  0  0  0  0  0  0  0  0
   -8.0312   -3.3754   64.2303 H   0  0  0  0  0  0  0  0  0  0  0  0
   -8.6429   -1.9168   64.9729 H   0  0  0  0  0  0  0  0  0  0  0  0
   -5.8701   -2.3372   63.9105 H   0  0  0  0  0  0  0  0  0  0  0  0
   -5.4612   -0.8237   65.5743 H   0  0  0  0  0  0  0  0  0  0  0  0
   -7.1010   -0.1692   65.5023 H   0  0  0  0  0  0  0  0  0  0  0  0
   -5.0037    1.1837   64.6138 H   0  0  0  0  0  0  0  0  0  0  0  0
   -6.6036    1.3015   63.8825 H   0  0  0  0  0  0  0  0  0  0  0  0
   -4.3748   -0.4607   62.9411 H   0  0  0  0  0  0  0  0  0  0  0  0
   -4.9287    1.0577   62.1949 H   0  0  0  0  0  0  0  0  0  0  0  0
   -7.5870   -2.0646   62.1684 H   0  0  0  0  0  0  0  0  0  0  0  0
   -7.9982   -0.5018   62.8944 H   0  0  0  0  0  0  0  0  0  0  0  0
   -8.3704    5.9612   56.2174 H   0  0  0  0  0  0  0  0  0  0  0  0
   -9.2008    7.3194   55.4973 H   0  0  0  0  0  0  0  0  0  0  0  0
   -7.6723    6.7829   54.8425 H   0  0  0  0  0  0  0  0  0  0  0  0
  -10.6182    5.6847   52.8206 H   0  0  0  0  0  0  0  0  0  0  0  0
   -8.8981    5.8045   52.4009 H   0  0  0  0  0  0  0  0  0  0  0  0
  -11.0164    7.7515   54.7539 H   0  0  0  0  0  0  0  0  0  0  0  0
  -11.1605   10.1692   54.7136 H   0  0  0  0  0  0  0  0  0  0  0  0
   -9.9898   11.4292   53.0037 H   0  0  0  0  0  0  0  0  0  0  0  0
   -8.6686   10.2672   51.3349 H   0  0  0  0  0  0  0  0  0  0  0  0
   -8.5184    7.8485   51.3698 H   0  0  0  0  0  0  0  0  0  0  0  0
  1  2  2  0
  2  3  1  0
  3  4  2  0
  3 30  1  0
  4  5  1  0
  4 19  1  0
  5  1  1  0
  6  7  1  0
  6 31  1  0
  7  8  1  0
  7 32  1  0
  7 33  1  0
  8  9  1  0
  8 34  1  0
  8 35  1  0
  9 10  1  0
  9  1  1  0
 10 11  1  0
 10 36  1  0
 10 37  1  0
 11  6  1  0
 11 38  1  0
 11 39  1  0
 12 13  1  0
 12 40  1  0
 12 41  1  0
 12 42  1  0
 13 14  1  0
 13 43  1  6
 14 15  1  0
 14 44  1  0
 14 45  1  0
 15 16  1  0
 15 46  1  0
 15 47  1  0
 16 17  1  0
 16 48  1  0
 16 49  1  0
 17 18  1  0
 17  6  1  0
 18 13  1  0
 18 50  1  0
 18 51  1  0
 19 20  2  0
 19 21  1  0
 21 22  1  0
 21 23  1  0
 22 52  1  0
 22 53  1  0
 22 54  1  0
 23 24  1  0
 23 55  1  0
 23 56  1  0
 24 25  2  0
 25 26  1  0
 25 57  1  0
 26 27  2  0
 26 58  1  0
 27 28  1  0
 27 59  1  0
 28 29  2  0
 28 60  1  0
 29 24  1  0
 29 61  1  0
M  END
>  <minimizedAffinity>  (9) 
-8.44598

>  <mol_id>  (9) 
136971

>  <source_index>  (9) 
8

>  <layer>  (9) 
L2

>  <uniprot>  (9) 
P18825

>  <paff>  (9) 
7.0705999999999998

>  <smiles>  (9) 
C[C@@H]1CCCN(C1)C1CCN(CC1)c1ncc(s1)C(=O)N(C)Cc1ccccc1 |r|

$$$$
L2:P18825:144176
     RDKit          3D

 64 67  0  0  0  0  0  0  0  0999 V2000
   -8.7660    3.9810   56.6534 C   0  0  0  0  0  0  0  0  0  0  0  0
   -8.2260    4.8518   57.5746 C   0  0  0  0  0  0  0  0  0  0  0  0
   -7.7283    4.2806   58.7279 N   0  0  0  0  0  0  0  0  0  0  0  0
   -7.8761    2.9716   58.7139 C   0  0  0  0  0  0  0  0  0  0  0  0
   -8.6257    2.3851   57.2637 S   0  0  0  0  0  0  0  0  0  0  0  0
   -7.4532    2.1540   59.7280 N   0  0  0  0  0  0  0  0  0  0  0  0
   -8.0944    0.8491   59.8616 C   0  0  0  0  0  0  0  0  0  0  0  0
   -8.1420    0.4158   61.3290 C   0  0  0  0  0  0  0  0  0  0  0  0
   -6.8827    0.8142   62.1259 C   0  0  0  0  0  0  0  0  0  0  0  0
   -5.7167    1.1250   61.1797 C   0  0  0  0  0  0  0  0  0  0  0  0
   -6.0903    2.2828   60.2515 C   0  0  0  0  0  0  0  0  0  0  0  0
   -6.5148   -0.1237   63.2053 N   0  0  0  0  0  0  0  0  0  0  0  0
   -5.4784    0.3483   64.1272 C   0  0  0  0  0  0  0  0  0  0  0  0
   -5.0450   -0.7513   65.0957 C   0  0  0  0  0  0  0  0  0  0  0  0
   -4.4627   -1.9643   64.3711 C   0  0  0  0  0  0  0  0  0  0  0  0
   -4.9200   -2.0505   62.9086 C   0  0  1  0  0  0  0  0  0  0  0  0
   -4.8076   -3.4826   62.3889 C   0  0  0  0  0  0  0  0  0  0  0  0
   -6.3504   -1.5132   62.7531 C   0  0  0  0  0  0  0  0  0  0  0  0
   -8.9300    5.3392   54.6904 N   0  0  0  0  0  0  0  0  0  0  0  0
   -9.3716    4.2121   55.3564 C   0  0  0  0  0  0  0  0  0  0  0  0
  -10.2272    3.4827   54.8584 O   0  0  0  0  0  0  0  0  0  0  0  0
   -8.2841    5.9738   55.1330 H   0  0  0  0  0  0  0  0  0  0  0  0
   -9.4482    5.7189   53.3864 C   0  0  2  0  0  0  0  0  0  0  0  0
   -8.6366    5.0766   52.2576 C   0  0  0  0  0  0  0  0  0  0  0  0
   -9.6237   11.5390   52.8935 C   0  0  0  0  0  0  0  0  0  0  0  0
   -9.6053   10.0442   53.0182 C   0  0  0  0  0  0  0  0  0  0  0  0
   -9.1032    9.2525   51.9808 C   0  0  0  0  0  0  0  0  0  0  0  0
   -9.0546    7.8619   52.1091 C   0  0  0  0  0  0  0  0  0  0  0  0
   -9.4885    7.2334   53.2854 C   0  0  0  0  0  0  0  0  0  0  0  0
   -9.9896    8.0340   54.3247 C   0  0  0  0  0  0  0  0  0  0  0  0
  -10.0405    9.4247   54.1948 C   0  0  0  0  0  0  0  0  0  0  0  0
   -8.1956    5.8704   57.4117 H   0  0  0  0  0  0  0  0  0  0  0  0
   -7.5400    0.1265   59.3000 H   0  0  0  0  0  0  0  0  0  0  0  0
   -9.0959    0.9190   59.4915 H   0  0  0  0  0  0  0  0  0  0  0  0
   -8.2438   -0.6487   61.3653 H   0  0  0  0  0  0  0  0  0  0  0  0
   -8.9731    0.9168   61.7798 H   0  0  0  0  0  0  0  0  0  0  0  0
   -7.1340    1.7128   62.6496 H   0  0  0  0  0  0  0  0  0  0  0  0
   -5.4955    0.2578   60.5932 H   0  0  0  0  0  0  0  0  0  0  0  0
   -4.8593    1.4006   61.7575 H   0  0  0  0  0  0  0  0  0  0  0  0
   -5.4055    2.3004   59.4295 H   0  0  0  0  0  0  0  0  0  0  0  0
   -6.0402    3.1885   60.8190 H   0  0  0  0  0  0  0  0  0  0  0  0
   -5.8628    1.1741   64.6887 H   0  0  0  0  0  0  0  0  0  0  0  0
   -4.6261    0.6422   63.5510 H   0  0  0  0  0  0  0  0  0  0  0  0
   -5.8959   -1.0651   65.6634 H   0  0  0  0  0  0  0  0  0  0  0  0
   -4.2810   -0.3491   65.7278 H   0  0  0  0  0  0  0  0  0  0  0  0
   -4.7753   -2.8514   64.8812 H   0  0  0  0  0  0  0  0  0  0  0  0
   -3.3974   -1.8639   64.3733 H   0  0  0  0  0  0  0  0  0  0  0  0
   -4.2731   -1.4364   62.3176 H   0  0  0  0  0  0  0  0  0  0  0  0
   -5.4457   -4.1215   62.9630 H   0  0  0  0  0  0  0  0  0  0  0  0
   -3.7949   -3.8161   62.4786 H   0  0  0  0  0  0  0  0  0  0  0  0
   -5.1035   -3.5133   61.3611 H   0  0  0  0  0  0  0  0  0  0  0  0
   -7.0080   -2.1341   63.3249 H   0  0  0  0  0  0  0  0  0  0  0  0
   -6.5776   -1.5296   61.7076 H   0  0  0  0  0  0  0  0  0  0  0  0
  -10.4470    5.3509   53.2778 H   0  0  0  0  0  0  0  0  0  0  0  0
   -7.6212    5.4093   52.3144 H   0  0  0  0  0  0  0  0  0  0  0  0
   -9.0525    5.3601   51.3134 H   0  0  0  0  0  0  0  0  0  0  0  0
   -8.6690    4.0117   52.3563 H   0  0  0  0  0  0  0  0  0  0  0  0
   -9.2567   11.8210   51.9288 H   0  0  0  0  0  0  0  0  0  0  0  0
   -9.0016   11.9678   53.6511 H   0  0  0  0  0  0  0  0  0  0  0  0
  -10.6260   11.8945   53.0117 H   0  0  0  0  0  0  0  0  0  0  0  0
   -8.7659    9.6987   51.1135 H   0  0  0  0  0  0  0  0  0  0  0  0
   -8.6950    7.2903   51.3287 H   0  0  0  0  0  0  0  0  0  0  0  0
  -10.3241    7.5904   55.1944 H   0  0  0  0  0  0  0  0  0  0  0  0
  -10.4018    9.9989   54.9725 H   0  0  0  0  0  0  0  0  0  0  0  0
  1  2  2  0
  2  3  1  0
  2 32  1  0
  3  4  2  0
  4  6  1  0
  4  5  1  0
  5  1  1  0
  6  7  1  0
  7  8  1  0
  7 33  1  0
  7 34  1  0
  8  9  1  0
  8 35  1  0
  8 36  1  0
  9 12  1  0
  9 10  1  0
  9 37  1  0
 10 11  1  0
 10 38  1  0
 10 39  1  0
 11  6  1  0
 11 40  1  0
 11 41  1  0
 12 13  1  0
 13 14  1  0
 13 42  1  0
 13 43  1  0
 14 15  1  0
 14 44  1  0
 14 45  1  0
 15 16  1  0
 15 46  1  0
 15 47  1  0
 16 17  1  0
 16 18  1  0
 16 48  1  6
 17 49  1  0
 17 50  1  0
 17 51  1  0
 18 12  1  0
 18 52  1  0
 18 53  1  0
 19 20  1  0
 19 22  1  0
 20 21  2  0
 20  1  1  0
 23 24  1  0
 23 19  1  0
 23 54  1  1
 24 55  1  0
 24 56  1  0
 24 57  1  0
 25 26  1  0
 25 58  1  0
 25 59  1  0
 25 60  1  0
 26 27  2  0
 27 28  1  0
 27 61  1  0
 28 29  2  0
 28 62  1  0
 29 23  1  0
 29 30  1  0
 30 31  2  0
 30 63  1  0
 31 26  1  0
 31 64  1  0
M  END
>  <minimizedAffinity>  (10) 
-8.61787

>  <mol_id>  (10) 
144176

>  <source_index>  (10) 
9

>  <layer>  (10) 
L2

>  <uniprot>  (10) 
P18825

>  <paff>  (10) 
6.0968999999999998

>  <smiles>  (10) 
Cc1ccc([C@@H](C)NC(=O)c2cnc(N3CCC(N4CCC[C@@H](C)C4)CC3)s2)cc1

$$$$
