L2:P05177:10077
     RDKit          3D

 37 40  0  0  0  0  0  0  0  0999 V2000
    3.2472   17.5765   20.9626 C   0  0  0  0  0  0  0  0  0  0  0  0
    3.6843   16.4540   21.8459 C   0  0  0  0  0  0  0  0  0  0  0  0
    2.9595   15.3281   21.8115 C   0  0  0  0  0  0  0  0  0  0  0  0
    1.8351   15.2603   20.9639 C   0  0  0  0  0  0  0  0  0  0  0  0
    0.9589   14.3106   20.7240 N   0  0  0  0  0  0  0  0  0  0  0  0
    0.0580   14.7977   19.8046 N   0  0  0  0  0  0  0  0  0  0  0  0
    0.4079   16.0380   19.5051 C   0  0  0  0  0  0  0  0  0  0  0  0
    1.5285   16.3771   20.2115 N   0  0  0  0  0  0  0  0  0  0  0  0
    2.2067   17.5620   20.1838 N   0  0  0  0  0  0  0  0  0  0  0  0
    2.7441   19.9540   19.1939 C   0  0  0  0  0  0  0  0  0  0  0  0
    3.8539   19.9088   20.2059 C   0  0  0  0  0  0  0  0  0  0  0  0
    4.7184   21.0122   20.3232 C   0  0  0  0  0  0  0  0  0  0  0  0
    5.7640   21.0537   21.2681 C   0  0  0  0  0  0  0  0  0  0  0  0
    5.9339   19.9314   22.0965 C   0  0  0  0  0  0  0  0  0  0  0  0
    5.0990   18.8177   21.9897 C   0  0  0  0  0  0  0  0  0  0  0  0
    4.0773   18.7999   21.0360 C   0  0  0  0  0  0  0  0  0  0  0  0
    6.6959   22.2672   21.3694 C   0  0  0  0  0  0  0  0  0  0  0  0
    6.6453   23.2792   20.2231 C   0  0  0  0  0  0  0  0  0  0  0  0
    7.8208   22.3630   20.3365 C   0  0  0  0  0  0  0  0  0  0  0  0
    6.9985   22.8166   22.6826 C   0  0  0  0  0  0  0  0  0  0  0  0
    7.2463   23.2598   23.7262 N   0  0  0  0  0  0  0  0  0  0  0  0
   -0.2257   16.9874   18.5815 C   0  0  0  0  0  0  0  0  0  0  0  0
   -1.2451   16.4246   17.8770 F   0  0  0  0  0  0  0  0  0  0  0  0
   -0.7608   18.0606   19.2238 F   0  0  0  0  0  0  0  0  0  0  0  0
    0.6451   17.4755   17.6577 F   0  0  0  0  0  0  0  0  0  0  0  0
    4.5108   16.5423   22.4576 H   0  0  0  0  0  0  0  0  0  0  0  0
    3.2209   14.5203   22.3982 H   0  0  0  0  0  0  0  0  0  0  0  0
    2.7677   20.8924   18.6804 H   0  0  0  0  0  0  0  0  0  0  0  0
    1.8032   19.8431   19.6912 H   0  0  0  0  0  0  0  0  0  0  0  0
    2.8711   19.1587   18.4895 H   0  0  0  0  0  0  0  0  0  0  0  0
    4.5825   21.8199   19.6954 H   0  0  0  0  0  0  0  0  0  0  0  0
    6.6910   19.9305   22.7978 H   0  0  0  0  0  0  0  0  0  0  0  0
    5.2361   18.0079   22.6146 H   0  0  0  0  0  0  0  0  0  0  0  0
    6.7614   24.3229   20.4282 H   0  0  0  0  0  0  0  0  0  0  0  0
    5.9404   23.5063   19.4508 H   0  0  0  0  0  0  0  0  0  0  0  0
    8.7751   22.7534   20.6225 H   0  0  0  0  0  0  0  0  0  0  0  0
    8.2991   21.6679   19.6784 H   0  0  0  0  0  0  0  0  0  0  0  0
  1  2  1  0
  2  3  2  0
  2 26  1  0
  3  4  1  0
  3 27  1  0
  4  5  2  0
  5  6  1  0
  6  7  2  0
  7 22  1  0
  7  8  1  0
  8  9  1  0
  8  4  1  0
  9  1  2  0
 10 11  1  0
 10 28  1  0
 10 29  1  0
 10 30  1  0
 11 12  2  0
 12 13  1  0
 12 31  1  0
 13 17  1  0
 13 14  2  0
 14 15  1  0
 14 32  1  0
 15 16  2  0
 15 33  1  0
 16  1  1  0
 16 11  1  0
 17 20  1  0
 17 18  1  0
 18 19  1  0
 18 34  1  0
 18 35  1  0
 19 17  1  0
 19 36  1  0
 19 37  1  0
 20 21  3  0
 22 23  1  0
 22 24  1  0
 22 25  1  0
M  END
>  <minimizedAffinity>  (1) 
-9.82555

>  <mol_id>  (1) 
10077

>  <source_index>  (1) 
0

>  <layer>  (1) 
L2

>  <uniprot>  (1) 
P05177

>  <paff>  (1) 
7.1871

>  <smiles>  (1) 
Cc1cc(C2(C#N)CC2)ccc1-c1ccc2nnc(C(F)(F)F)n2n1

$$$$
L2:P05177:25940
     RDKit          3D

 31 33  0  0  0  0  0  0  0  0999 V2000
    3.3421   16.9381   21.4941 O   0  0  0  0  0  0  0  0  0  0  0  0
    3.4474   18.0131   20.9078 C   0  0  0  0  0  0  0  0  0  0  0  0
    2.5621   18.4298   19.9144 N   0  0  0  0  0  0  0  0  0  0  0  0
    2.7592   19.3374   19.5090 H   0  0  0  0  0  0  0  0  0  0  0  0
    1.4341   17.7506   19.4066 C   0  0  0  0  0  0  0  0  0  0  0  0
    0.5531   18.4952   18.6109 C   0  0  0  0  0  0  0  0  0  0  0  0
   -0.5877   17.8986   18.0690 C   0  0  0  0  0  0  0  0  0  0  0  0
   -1.6539   18.8348   17.0949 Cl  0  0  0  0  0  0  0  0  0  0  0  0
   -0.8696   16.5594   18.3083 C   0  0  0  0  0  0  0  0  0  0  0  0
    0.0038   15.8191   19.0979 C   0  0  0  0  0  0  0  0  0  0  0  0
   -0.3347   14.1581   19.4018 Cl  0  0  0  0  0  0  0  0  0  0  0  0
    1.1496   16.4043   19.6464 C   0  0  0  0  0  0  0  0  0  0  0  0
    4.5310   18.9645   21.2083 C   0  0  0  0  0  0  0  0  0  0  0  0
    4.6088   20.1562   20.6489 N   0  0  0  0  0  0  0  0  0  0  0  0
    5.7212   20.8494   21.1039 C   0  0  0  0  0  0  0  0  0  0  0  0
    6.4838   20.1530   22.0219 C   0  0  0  0  0  0  0  0  0  0  0  0
    5.7962   18.6087   22.3178 S   0  0  0  0  0  0  0  0  0  0  0  0
    6.0044   22.1951   20.6151 C   0  0  0  0  0  0  0  0  0  0  0  0
    5.0174   23.0624   20.1475 C   0  0  0  0  0  0  0  0  0  0  0  0
    5.2488   24.3184   19.6869 N   0  0  0  0  0  0  0  0  0  0  0  0
    6.5371   24.7347   19.6924 C   0  0  0  0  0  0  0  0  0  0  0  0
    7.5932   23.9552   20.1348 C   0  0  0  0  0  0  0  0  0  0  0  0
    9.2004   24.5570   20.1094 Cl  0  0  0  0  0  0  0  0  0  0  0  0
    7.3224   22.6721   20.6008 C   0  0  0  0  0  0  0  0  0  0  0  0
    0.7485   19.4912   18.4240 H   0  0  0  0  0  0  0  0  0  0  0  0
   -1.7132   16.1211   17.9068 H   0  0  0  0  0  0  0  0  0  0  0  0
    1.7866   15.8398   20.2299 H   0  0  0  0  0  0  0  0  0  0  0  0
    7.3440   20.5105   22.4661 H   0  0  0  0  0  0  0  0  0  0  0  0
    4.0419   22.7256   20.1519 H   0  0  0  0  0  0  0  0  0  0  0  0
    6.7437   25.6853   19.3479 H   0  0  0  0  0  0  0  0  0  0  0  0
    8.0920   22.0717   20.9359 H   0  0  0  0  0  0  0  0  0  0  0  0
  1  2  2  0
  2  3  1  0
  2 13  1  0
  3  5  1  0
  3  4  1  0
  5  6  2  0
  6  7  1  0
  6 25  1  0
  7  8  1  0
  7  9  2  0
  9 10  1  0
  9 26  1  0
 10 11  1  0
 10 12  2  0
 12  5  1  0
 12 27  1  0
 13 14  2  0
 14 15  1  0
 15 18  1  0
 15 16  2  0
 16 17  1  0
 16 28  1  0
 17 13  1  0
 18 19  2  0
 19 20  1  0
 19 29  1  0
 20 21  2  0
 21 22  1  0
 21 30  1  0
 22 23  1  0
 22 24  2  0
 24 18  1  0
 24 31  1  0
M  END
>  <minimizedAffinity>  (2) 
-8.47402

>  <mol_id>  (2) 
25940

>  <source_index>  (2) 
1

>  <layer>  (2) 
L2

>  <uniprot>  (2) 
P05177

>  <paff>  (2) 
8.0131999999999994

>  <smiles>  (2) 
O=C(Nc1cc(Cl)cc(Cl)c1)c1nc(-c2cncc(Cl)c2)cs1

$$$$
L2:P05177:26843
     RDKit          3D

 36 39  0  0  0  0  0  0  0  0999 V2000
    7.1839   20.0139   22.5861 F   0  0  0  0  0  0  0  0  0  0  0  0
    6.1320   19.8773   21.7667 C   0  0  0  0  0  0  0  0  0  0  0  0
    5.3578   18.7241   21.8350 C   0  0  0  0  0  0  0  0  0  0  0  0
    4.2598   18.5762   20.9796 C   0  0  0  0  0  0  0  0  0  0  0  0
    3.9960   19.6382   20.1082 C   0  0  0  0  0  0  0  0  0  0  0  0
    4.7384   20.7722   20.0158 N   0  0  0  0  0  0  0  0  0  0  0  0
    5.7950   20.8642   20.8521 C   0  0  0  0  0  0  0  0  0  0  0  0
    3.3774   17.3876   20.9978 C   0  0  0  0  0  0  0  0  0  0  0  0
    2.3046   17.3195   20.1761 C   0  0  0  0  0  0  0  0  0  0  0  0
    1.5004   16.1931   20.2309 N   0  0  0  0  0  0  0  0  0  0  0  0
    0.3701   15.7777   19.5750 C   0  0  0  0  0  0  0  0  0  0  0  0
    0.0208   14.5858   20.0392 N   0  0  0  0  0  0  0  0  0  0  0  0
    0.9272   14.2122   21.0106 N   0  0  0  0  0  0  0  0  0  0  0  0
    1.7954   15.1863   21.1039 C   0  0  0  0  0  0  0  0  0  0  0  0
    2.9333   15.3184   21.9552 C   0  0  0  0  0  0  0  0  0  0  0  0
    3.6927   16.3805   21.9087 N   0  0  0  0  0  0  0  0  0  0  0  0
   -0.2802   16.5935   18.5343 C   0  0  0  0  0  0  0  0  0  0  0  0
    0.5941   17.2524   17.7362 F   0  0  0  0  0  0  0  0  0  0  0  0
   -1.1020   17.5301   19.0794 F   0  0  0  0  0  0  0  0  0  0  0  0
   -1.0620   15.8326   17.7229 F   0  0  0  0  0  0  0  0  0  0  0  0
    6.5845   21.9980   20.8089 O   0  0  0  0  0  0  0  0  0  0  0  0
    6.0442   23.1761   21.4436 C   0  0  0  0  0  0  0  0  0  0  0  0
    5.2238   22.9638   22.7378 C   0  0  0  0  0  0  0  0  0  0  0  0
    5.9075   24.2228   23.3029 C   0  0  0  0  0  0  0  0  0  0  0  0
    5.2346   25.3811   23.1132 F   0  0  0  0  0  0  0  0  0  0  0  0
    6.2411   24.1752   24.6111 F   0  0  0  0  0  0  0  0  0  0  0  0
    7.0553   23.9618   22.3087 C   0  0  0  0  0  0  0  0  0  0  0  0
    5.5915   17.9816   22.5125 H   0  0  0  0  0  0  0  0  0  0  0  0
    3.1751   19.5539   19.4885 H   0  0  0  0  0  0  0  0  0  0  0  0
    2.0904   18.0895   19.5232 H   0  0  0  0  0  0  0  0  0  0  0  0
    3.1602   14.5616   22.6192 H   0  0  0  0  0  0  0  0  0  0  0  0
    5.5872   23.5843   20.5664 H   0  0  0  0  0  0  0  0  0  0  0  0
    5.4486   22.0601   23.2647 H   0  0  0  0  0  0  0  0  0  0  0  0
    4.1586   22.8648   22.7173 H   0  0  0  0  0  0  0  0  0  0  0  0
    7.8586   23.3732   22.7002 H   0  0  0  0  0  0  0  0  0  0  0  0
    7.6387   24.7616   21.9027 H   0  0  0  0  0  0  0  0  0  0  0  0
  1  2  1  0
  2  3  2  0
  3  4  1  0
  3 28  1  0
  4  8  1  0
  4  5  2  0
  5  6  1  0
  5 29  1  0
  6  7  2  0
  7 21  1  0
  7  2  1  0
  8  9  2  0
  9 10  1  0
  9 30  1  0
 10 11  1  0
 11 17  1  0
 11 12  2  0
 12 13  1  0
 13 14  2  0
 14 15  1  0
 14 10  1  0
 15 16  2  0
 15 31  1  0
 16  8  1  0
 17 18  1  0
 17 19  1  0
 17 20  1  0
 21 22  1  0
 22 23  1  0
 22 32  1  0
 23 24  1  0
 23 33  1  0
 23 34  1  0
 24 25  1  0
 24 26  1  0
 24 27  1  0
 27 22  1  0
 27 35  1  0
 27 36  1  0
M  END
>  <minimizedAffinity>  (3) 
-9.19171

>  <mol_id>  (3) 
26843

>  <source_index>  (3) 
2

>  <layer>  (3) 
L2

>  <uniprot>  (3) 
P05177

>  <paff>  (3) 
7.6989999999999998

>  <smiles>  (3) 
Fc1cc(-c2cn3c(C(F)(F)F)nnc3cn2)cnc1OC1CC(F)(F)C1

$$$$
L2:P05177:30538
     RDKit          3D

 34 37  0  0  0  0  0  0  0  0999 V2000
    3.3605   17.3857   21.0441 C   0  0  0  0  0  0  0  0  0  0  0  0
    3.8624   16.1722   21.7682 C   0  0  0  0  0  0  0  0  0  0  0  0
    3.0950   15.0733   21.7555 C   0  0  0  0  0  0  0  0  0  0  0  0
    1.8677   15.1011   21.0648 C   0  0  0  0  0  0  0  0  0  0  0  0
    0.9197   14.2060   20.8848 N   0  0  0  0  0  0  0  0  0  0  0  0
   -0.0585   14.7828   20.0991 N   0  0  0  0  0  0  0  0  0  0  0  0
    0.3278   16.0098   19.8187 C   0  0  0  0  0  0  0  0  0  0  0  0
    1.5348   16.2690   20.4148 N   0  0  0  0  0  0  0  0  0  0  0  0
    2.2424   17.4357   20.3784 N   0  0  0  0  0  0  0  0  0  0  0  0
    5.9362   20.8344   21.2091 C   0  0  0  0  0  0  0  0  0  0  0  0
    6.0979   19.7756   22.1022 C   0  0  0  0  0  0  0  0  0  0  0  0
    5.2500   18.6630   22.0355 C   0  0  0  0  0  0  0  0  0  0  0  0
    4.2255   18.6010   21.0830 C   0  0  0  0  0  0  0  0  0  0  0  0
    4.0708   19.6558   20.1799 C   0  0  0  0  0  0  0  0  0  0  0  0
    4.9206   20.7648   20.2503 C   0  0  0  0  0  0  0  0  0  0  0  0
    6.6866   21.9732   21.1526 O   0  0  0  0  0  0  0  0  0  0  0  0
    6.7684   24.1609   21.6750 F   0  0  0  0  0  0  0  0  0  0  0  0
    6.5113   22.9341   22.1807 C   0  0  0  0  0  0  0  0  0  0  0  0
    7.3656   22.7144   23.2028 F   0  0  0  0  0  0  0  0  0  0  0  0
    5.2420   22.9274   22.6410 F   0  0  0  0  0  0  0  0  0  0  0  0
   -0.4734   17.0052   18.9512 C   0  0  2  0  0  0  0  0  0  0  0  0
   -0.6033   16.7469   17.4641 C   0  0  0  0  0  0  0  0  0  0  0  0
    0.2550   17.8443   17.9682 C   0  0  0  0  0  0  0  0  0  0  0  0
    1.6215   17.7713   17.8218 F   0  0  0  0  0  0  0  0  0  0  0  0
   -0.1113   19.1543   17.7567 F   0  0  0  0  0  0  0  0  0  0  0  0
    4.7694   16.1828   22.2604 H   0  0  0  0  0  0  0  0  0  0  0  0
    3.3995   14.2177   22.2456 H   0  0  0  0  0  0  0  0  0  0  0  0
    6.8442   19.8120   22.8140 H   0  0  0  0  0  0  0  0  0  0  0  0
    5.3816   17.8805   22.6954 H   0  0  0  0  0  0  0  0  0  0  0  0
    3.3306   19.6168   19.4618 H   0  0  0  0  0  0  0  0  0  0  0  0
    4.7961   21.5434   19.5845 H   0  0  0  0  0  0  0  0  0  0  0  0
   -1.1576   17.1899   19.7528 H   0  0  0  0  0  0  0  0  0  0  0  0
   -1.5193   16.9709   16.9584 H   0  0  0  0  0  0  0  0  0  0  0  0
   -0.4593   15.9019   16.8237 H   0  0  0  0  0  0  0  0  0  0  0  0
  1  2  1  0
  2  3  2  0
  2 26  1  0
  3  4  1  0
  3 27  1  0
  4  5  2  0
  5  6  1  0
  6  7  2  0
  7 21  1  0
  7  8  1  0
  8  9  1  0
  8  4  1  0
  9  1  2  0
 10 11  2  0
 11 12  1  0
 11 28  1  0
 12 13  2  0
 12 29  1  0
 13  1  1  0
 13 14  1  0
 14 15  2  0
 14 30  1  0
 15 10  1  0
 15 31  1  0
 16 10  1  0
 17 18  1  0
 18 19  1  0
 18 20  1  0
 18 16  1  0
 21 22  1  0
 21 32  1  1
 22 23  1  0
 22 33  1  0
 22 34  1  0
 23 24  1  0
 23 25  1  0
 23 21  1  0
M  END
>  <minimizedAffinity>  (4) 
-9.68717

>  <mol_id>  (4) 
30538

>  <source_index>  (4) 
3

>  <layer>  (4) 
L2

>  <uniprot>  (4) 
P05177

>  <paff>  (4) 
7.6989999999999998

>  <smiles>  (4) 
FC(F)(F)Oc1ccc(-c2ccc3nnc([C@@H]4CC4(F)F)n3n2)cc1

$$$$
L2:P05177:41092
     RDKit          3D

 30 32  0  0  0  0  0  0  0  0999 V2000
    3.3489   17.3207   21.0529 C   0  0  0  0  0  0  0  0  0  0  0  0
    2.2797   17.2930   20.2242 C   0  0  0  0  0  0  0  0  0  0  0  0
    1.4691   16.1716   20.2255 N   0  0  0  0  0  0  0  0  0  0  0  0
    0.3409   15.7913   19.5453 C   0  0  0  0  0  0  0  0  0  0  0  0
   -0.0218   14.5848   19.9600 N   0  0  0  0  0  0  0  0  0  0  0  0
    0.8745   14.1657   20.9221 N   0  0  0  0  0  0  0  0  0  0  0  0
    1.7501   15.1283   21.0591 C   0  0  0  0  0  0  0  0  0  0  0  0
    2.8821   15.2178   21.9235 C   0  0  0  0  0  0  0  0  0  0  0  0
    3.6492   16.2746   21.9281 N   0  0  0  0  0  0  0  0  0  0  0  0
    3.2079   19.5484   19.2129 F   0  0  0  0  0  0  0  0  0  0  0  0
    4.1405   19.5640   20.1784 C   0  0  0  0  0  0  0  0  0  0  0  0
    5.0039   20.6582   20.2316 C   0  0  0  0  0  0  0  0  0  0  0  0
    6.0061   20.7235   21.2007 C   0  0  0  0  0  0  0  0  0  0  0  0
    6.1320   19.6747   22.1109 C   0  0  0  0  0  0  0  0  0  0  0  0
    5.2600   18.5774   22.0515 C   0  0  0  0  0  0  0  0  0  0  0  0
    4.2400   18.5066   21.0900 C   0  0  0  0  0  0  0  0  0  0  0  0
    6.7795   21.8464   21.1410 O   0  0  0  0  0  0  0  0  0  0  0  0
    6.5912   22.8362   22.1391 C   0  0  0  0  0  0  0  0  0  0  0  0
    7.3620   22.5896   23.2193 F   0  0  0  0  0  0  0  0  0  0  0  0
    6.9478   24.0365   21.6318 F   0  0  0  0  0  0  0  0  0  0  0  0
    5.2963   22.9062   22.5145 F   0  0  0  0  0  0  0  0  0  0  0  0
   -0.2964   16.6521   18.5331 C   0  0  0  0  0  0  0  0  0  0  0  0
   -1.0712   17.6103   19.1067 F   0  0  0  0  0  0  0  0  0  0  0  0
    0.5920   17.2917   17.7332 F   0  0  0  0  0  0  0  0  0  0  0  0
   -1.1168   15.9384   17.7165 F   0  0  0  0  0  0  0  0  0  0  0  0
    2.0731   18.0916   19.6041 H   0  0  0  0  0  0  0  0  0  0  0  0
    3.0986   14.4324   22.5570 H   0  0  0  0  0  0  0  0  0  0  0  0
    4.9008   21.4254   19.5491 H   0  0  0  0  0  0  0  0  0  0  0  0
    6.8700   19.7058   22.8316 H   0  0  0  0  0  0  0  0  0  0  0  0
    5.3708   17.8065   22.7286 H   0  0  0  0  0  0  0  0  0  0  0  0
  1  2  2  0
  2  3  1  0
  2 26  1  0
  3  4  1  0
  4  5  2  0
  4 22  1  0
  5  6  1  0
  6  7  2  0
  7  8  1  0
  7  3  1  0
  8  9  2  0
  8 27  1  0
  9  1  1  0
 10 11  1  0
 11 12  2  0
 12 13  1  0
 12 28  1  0
 13 17  1  0
 13 14  2  0
 14 15  1  0
 14 29  1  0
 15 16  2  0
 15 30  1  0
 16  1  1  0
 16 11  1  0
 17 18  1  0
 18 19  1  0
 18 20  1  0
 18 21  1  0
 22 23  1  0
 22 24  1  0
 22 25  1  0
M  END
>  <minimizedAffinity>  (5) 
-9.48089

>  <mol_id>  (5) 
41092

>  <source_index>  (5) 
4

>  <layer>  (5) 
L2

>  <uniprot>  (5) 
P05177

>  <paff>  (5) 
7.6989999999999998

>  <smiles>  (5) 
Fc1cc(OC(F)(F)F)ccc1-c1cn2c(nnc2cn1)C(F)(F)F

$$$$
L2:P05177:64085
     RDKit          3D

 30 32  0  0  0  0  0  0  0  0999 V2000
    0.3206   15.9094   19.5644 C   0  0  0  0  0  0  0  0  0  0  0  0
   -0.0415   14.6946   19.9501 N   0  0  0  0  0  0  0  0  0  0  0  0
    0.8774   14.2406   20.8751 N   0  0  0  0  0  0  0  0  0  0  0  0
    1.7631   15.1940   21.0189 C   0  0  0  0  0  0  0  0  0  0  0  0
    2.9281   15.2454   21.8412 C   0  0  0  0  0  0  0  0  0  0  0  0
    3.7095   16.2921   21.8480 N   0  0  0  0  0  0  0  0  0  0  0  0
    3.3722   17.3793   21.0380 C   0  0  0  0  0  0  0  0  0  0  0  0
    2.2880   17.3770   20.2291 C   0  0  0  0  0  0  0  0  0  0  0  0
    1.4681   16.2637   20.2252 N   0  0  0  0  0  0  0  0  0  0  0  0
    4.2848   18.5482   21.0648 C   0  0  0  0  0  0  0  0  0  0  0  0
    5.3068   18.6065   22.0226 C   0  0  0  0  0  0  0  0  0  0  0  0
    6.1752   19.7028   22.0800 C   0  0  0  0  0  0  0  0  0  0  0  0
    6.0410   20.7722   21.1902 C   0  0  0  0  0  0  0  0  0  0  0  0
    5.0216   20.7341   20.2426 C   0  0  0  0  0  0  0  0  0  0  0  0
    4.1579   19.6355   20.1905 C   0  0  0  0  0  0  0  0  0  0  0  0
    3.1802   19.6577   19.2706 F   0  0  0  0  0  0  0  0  0  0  0  0
    6.9565   21.7699   21.3631 O   0  0  0  0  0  0  0  0  0  0  0  0
    6.6692   22.7746   22.3214 C   0  0  0  0  0  0  0  0  0  0  0  0
    5.3733   22.7294   22.6970 F   0  0  0  0  0  0  0  0  0  0  0  0
    7.4586   22.6474   23.4090 F   0  0  0  0  0  0  0  0  0  0  0  0
    6.9057   23.9837   21.7673 F   0  0  0  0  0  0  0  0  0  0  0  0
    0.5531   17.3936   17.7733 F   0  0  0  0  0  0  0  0  0  0  0  0
   -0.3514   16.7864   18.5891 C   0  0  0  0  0  0  0  0  0  0  0  0
   -1.1665   16.0673   17.7689 F   0  0  0  0  0  0  0  0  0  0  0  0
    3.1580   14.4391   22.4429 H   0  0  0  0  0  0  0  0  0  0  0  0
    2.0773   18.1888   19.6278 H   0  0  0  0  0  0  0  0  0  0  0  0
    5.4204   17.8311   22.6941 H   0  0  0  0  0  0  0  0  0  0  0  0
    6.9248   19.7217   22.7891 H   0  0  0  0  0  0  0  0  0  0  0  0
    4.9035   21.5158   19.5793 H   0  0  0  0  0  0  0  0  0  0  0  0
   -0.9038   17.5029   19.1605 H   0  0  0  0  0  0  0  0  0  0  0  0
  1  2  2  0
  2  3  1  0
  3  4  2  0
  4  5  1  0
  5  6  2  0
  5 25  1  0
  6  7  1  0
  7  8  2  0
  7 10  1  0
  8  9  1  0
  8 26  1  0
  9  1  1  0
  9  4  1  0
 10 11  2  0
 11 12  1  0
 11 27  1  0
 12 13  2  0
 12 28  1  0
 13 17  1  0
 13 14  1  0
 14 15  2  0
 14 29  1  0
 15 16  1  0
 15 10  1  0
 17 18  1  0
 18 19  1  0
 18 20  1  0
 18 21  1  0
 22 23  1  0
 23 24  1  0
 23  1  1  0
 23 30  1  0
M  END
>  <minimizedAffinity>  (6) 
-9.13341

>  <mol_id>  (6) 
64085

>  <source_index>  (6) 
5

>  <layer>  (6) 
L2

>  <uniprot>  (6) 
P05177

>  <paff>  (6) 
7.6989999999999998

>  <smiles>  (6) 
FC(F)c1nnc2cnc(cn12)-c1ccc(OC(F)(F)F)cc1F

$$$$
L2:P05177:78823
     RDKit          3D

 43 47  0  0  0  0  0  0  0  0999 V2000
    5.8095   25.6000   21.7985 O   0  0  0  0  0  0  0  0  0  0  0  0
    5.2689   24.7544   21.0903 C   0  0  0  0  0  0  0  0  0  0  0  0
    5.5830   23.3927   21.2826 N   0  0  0  0  0  0  0  0  0  0  0  0
    6.6349   22.8838   22.0510 C   0  0  0  0  0  0  0  0  0  0  0  0
    6.6947   21.5683   21.9743 N   0  0  0  0  0  0  0  0  0  0  0  0
    5.6517   21.1835   21.1911 C   0  0  0  0  0  0  0  0  0  0  0  0
    5.2760   19.8814   20.8283 C   0  0  0  0  0  0  0  0  0  0  0  0
    4.1400   19.7119   20.0400 C   0  0  0  0  0  0  0  0  0  0  0  0
    3.6530   18.1249   19.5829 Cl  0  0  0  0  0  0  0  0  0  0  0  0
    3.3855   20.8061   19.6266 C   0  0  0  0  0  0  0  0  0  0  0  0
    3.7523   22.1117   19.9798 C   0  0  0  0  0  0  0  0  0  0  0  0
    4.9139   22.2822   20.7546 C   0  0  0  0  0  0  0  0  0  0  0  0
    7.5986   23.6839   22.8157 C   0  0  0  0  0  0  0  0  0  0  0  0
    7.3883   23.8255   24.1973 C   0  0  0  0  0  0  0  0  0  0  0  0
    8.2706   24.5701   24.9725 C   0  0  0  0  0  0  0  0  0  0  0  0
    9.3668   25.1868   24.3739 C   0  0  0  0  0  0  0  0  0  0  0  0
    9.5931   25.0783   22.9926 C   0  0  0  0  0  0  0  0  0  0  0  0
   10.6989   25.7158   22.4054 C   0  0  0  0  0  0  0  0  0  0  0  0
   10.9350   25.6282   21.0341 C   0  0  0  0  0  0  0  0  0  0  0  0
   10.0659   24.9035   20.2295 C   0  0  0  0  0  0  0  0  0  0  0  0
    8.9634   24.2619   20.7977 C   0  0  0  0  0  0  0  0  0  0  0  0
    8.7009   24.3263   22.1875 C   0  0  0  0  0  0  0  0  0  0  0  0
    4.3621   25.2691   20.0685 C   0  0  0  0  0  0  0  0  0  0  0  0
    3.0725   25.6614   20.4067 C   0  0  0  0  0  0  0  0  0  0  0  0
    2.6150   25.4996   21.6551 F   0  0  0  0  0  0  0  0  0  0  0  0
    2.2216   26.1933   19.4415 C   0  0  0  0  0  0  0  0  0  0  0  0
    2.6805   26.3388   18.1318 C   0  0  0  0  0  0  0  0  0  0  0  0
    1.5330   27.0563   16.8134 Br  0  0  0  0  0  0  0  0  0  0  0  0
    3.9765   25.9564   17.7845 C   0  0  0  0  0  0  0  0  0  0  0  0
    4.8129   25.4264   18.7625 C   0  0  0  0  0  0  0  0  0  0  0  0
    6.0573   25.0605   18.4266 F   0  0  0  0  0  0  0  0  0  0  0  0
    5.8290   19.0672   21.1385 H   0  0  0  0  0  0  0  0  0  0  0  0
    2.5427   20.6535   19.0509 H   0  0  0  0  0  0  0  0  0  0  0  0
    3.1880   22.9224   19.6809 H   0  0  0  0  0  0  0  0  0  0  0  0
    6.5731   23.3737   24.6403 H   0  0  0  0  0  0  0  0  0  0  0  0
    8.1137   24.6655   25.9880 H   0  0  0  0  0  0  0  0  0  0  0  0
   10.0228   25.7319   24.9548 H   0  0  0  0  0  0  0  0  0  0  0  0
   11.3467   26.2575   22.9986 H   0  0  0  0  0  0  0  0  0  0  0  0
   11.7531   26.1005   20.6184 H   0  0  0  0  0  0  0  0  0  0  0  0
   10.2344   24.8391   19.2134 H   0  0  0  0  0  0  0  0  0  0  0  0
    8.3238   23.7273   20.1893 H   0  0  0  0  0  0  0  0  0  0  0  0
    1.2615   26.4770   19.6921 H   0  0  0  0  0  0  0  0  0  0  0  0
    4.3109   26.0652   16.8143 H   0  0  0  0  0  0  0  0  0  0  0  0
  1  2  2  0
  2 23  1  0
  2  3  1  0
  3  4  1  0
  4 13  1  0
  4  5  2  0
  5  6  1  0
  6  7  2  0
  7  8  1  0
  7 32  1  0
  8  9  1  0
  8 10  2  0
 10 11  1  0
 10 33  1  0
 11 12  2  0
 11 34  1  0
 12  3  1  0
 12  6  1  0
 13 14  2  0
 14 15  1  0
 14 35  1  0
 15 16  2  0
 15 36  1  0
 16 17  1  0
 16 37  1  0
 17 18  2  0
 18 19  1  0
 18 38  1  0
 19 20  2  0
 19 39  1  0
 20 21  1  0
 20 40  1  0
 21 22  2  0
 21 41  1  0
 22 13  1  0
 22 17  1  0
 23 24  2  0
 24 25  1  0
 24 26  1  0
 26 27  2  0
 26 42  1  0
 27 28  1  0
 27 29  1  0
 29 30  2  0
 29 43  1  0
 30 31  1  0
 30 23  1  0
M  END
>  <minimizedAffinity>  (7) 
-6.13877

>  <mol_id>  (7) 
78823

>  <source_index>  (7) 
6

>  <layer>  (7) 
L2

>  <uniprot>  (7) 
P05177

>  <paff>  (7) 
6.5228999999999999

>  <smiles>  (7) 
O=C(c1c(F)cc(Br)cc1F)n1c(-c2cccc3ccccc23)nc2cc(Cl)ccc21

$$$$
L2:P05177:105080
     RDKit          3D

 29 31  0  0  0  0  0  0  0  0999 V2000
    3.2694   17.3936   20.9905 C   0  0  0  0  0  0  0  0  0  0  0  0
    2.2121   17.3053   20.1512 C   0  0  0  0  0  0  0  0  0  0  0  0
    1.4256   16.1677   20.1932 N   0  0  0  0  0  0  0  0  0  0  0  0
    0.3093   15.7366   19.5239 C   0  0  0  0  0  0  0  0  0  0  0  0
   -0.0239   14.5356   19.9774 N   0  0  0  0  0  0  0  0  0  0  0  0
    0.8805   14.1712   20.9543 N   0  0  0  0  0  0  0  0  0  0  0  0
    1.7302   15.1603   21.0621 C   0  0  0  0  0  0  0  0  0  0  0  0
    2.8665   15.3002   21.9140 C   0  0  0  0  0  0  0  0  0  0  0  0
    3.6135   16.3707   21.8768 N   0  0  0  0  0  0  0  0  0  0  0  0
    5.3217   17.9622   22.9467 F   0  0  0  0  0  0  0  0  0  0  0  0
    5.1308   18.8287   21.9397 C   0  0  0  0  0  0  0  0  0  0  0  0
    5.9504   19.9571   21.8905 C   0  0  0  0  0  0  0  0  0  0  0  0
    5.8149   20.8860   20.8507 C   0  0  0  0  0  0  0  0  0  0  0  0
    4.8347   20.6612   19.8739 C   0  0  0  0  0  0  0  0  0  0  0  0
    4.0170   19.5257   19.9317 C   0  0  0  0  0  0  0  0  0  0  0  0
    4.1443   18.5922   20.9730 C   0  0  0  0  0  0  0  0  0  0  0  0
    6.6852   22.1176   20.8061 C   0  0  0  0  0  0  0  0  0  0  0  0
    6.9114   22.6590   22.0347 F   0  0  0  0  0  0  0  0  0  0  0  0
    6.1518   23.1169   20.0506 F   0  0  0  0  0  0  0  0  0  0  0  0
    7.9121   21.8603   20.2766 F   0  0  0  0  0  0  0  0  0  0  0  0
   -0.3464   16.5468   18.4821 C   0  0  0  0  0  0  0  0  0  0  0  0
   -1.2051   17.4527   19.0218 F   0  0  0  0  0  0  0  0  0  0  0  0
   -1.0858   15.7771   17.6406 F   0  0  0  0  0  0  0  0  0  0  0  0
    0.5258   17.2441   17.7131 F   0  0  0  0  0  0  0  0  0  0  0  0
    1.9966   18.0706   19.4932 H   0  0  0  0  0  0  0  0  0  0  0  0
    3.1024   14.5410   22.5720 H   0  0  0  0  0  0  0  0  0  0  0  0
    6.6603   20.1081   22.6242 H   0  0  0  0  0  0  0  0  0  0  0  0
    4.7146   21.3389   19.1049 H   0  0  0  0  0  0  0  0  0  0  0  0
    3.3090   19.3724   19.1967 H   0  0  0  0  0  0  0  0  0  0  0  0
  1  2  2  0
  2  3  1  0
  2 25  1  0
  3  4  1  0
  4  5  2  0
  4 21  1  0
  5  6  1  0
  6  7  2  0
  7  8  1  0
  7  3  1  0
  8  9  2  0
  8 26  1  0
  9  1  1  0
 10 11  1  0
 11 12  2  0
 12 13  1  0
 12 27  1  0
 13 14  2  0
 13 17  1  0
 14 15  1  0
 14 28  1  0
 15 16  2  0
 15 29  1  0
 16  1  1  0
 16 11  1  0
 17 18  1  0
 17 19  1  0
 17 20  1  0
 21 22  1  0
 21 23  1  0
 21 24  1  0
M  END
>  <minimizedAffinity>  (8) 
-10.33038

>  <mol_id>  (8) 
105080

>  <source_index>  (8) 
7

>  <layer>  (8) 
L2

>  <uniprot>  (8) 
P05177

>  <paff>  (8) 
8

>  <smiles>  (8) 
Fc1cc(ccc1-c1cn2c(nnc2cn1)C(F)(F)F)C(F)(F)F

$$$$
L2:P05177:111016
     RDKit          3D

 43 47  0  0  0  0  0  0  0  0999 V2000
   -4.3113    9.8434   26.1286 O   0  0  0  0  0  0  0  0  0  0  0  0
   -3.3600    9.2970   25.5758 C   0  0  0  0  0  0  0  0  0  0  0  0
   -2.1291    9.2565   26.2616 N   0  0  0  0  0  0  0  0  0  0  0  0
   -1.6854   10.1703   27.2195 C   0  0  0  0  0  0  0  0  0  0  0  0
   -0.4756    9.8664   27.6497 N   0  0  0  0  0  0  0  0  0  0  0  0
   -0.1165    8.7262   26.9996 C   0  0  0  0  0  0  0  0  0  0  0  0
    1.0721    7.9882   27.1178 C   0  0  0  0  0  0  0  0  0  0  0  0
    1.2193    6.8118   26.3761 C   0  0  0  0  0  0  0  0  0  0  0  0
    0.1918    6.3763   25.5447 C   0  0  0  0  0  0  0  0  0  0  0  0
    0.3840    4.9110   24.6592 Cl  0  0  0  0  0  0  0  0  0  0  0  0
   -1.0011    7.0982   25.4120 C   0  0  0  0  0  0  0  0  0  0  0  0
   -1.1216    8.2989   26.1359 C   0  0  0  0  0  0  0  0  0  0  0  0
   -2.4158   11.3722   27.6363 C   0  0  0  0  0  0  0  0  0  0  0  0
   -2.9876   11.3787   28.9180 C   0  0  0  0  0  0  0  0  0  0  0  0
   -3.7176   12.4769   29.3588 C   0  0  0  0  0  0  0  0  0  0  0  0
   -3.8782   13.5811   28.5249 C   0  0  0  0  0  0  0  0  0  0  0  0
   -3.2998   13.6123   27.2461 C   0  0  0  0  0  0  0  0  0  0  0  0
   -3.4633   14.7404   26.4247 C   0  0  0  0  0  0  0  0  0  0  0  0
   -2.8826   14.7985   25.1586 C   0  0  0  0  0  0  0  0  0  0  0  0
   -2.1234   13.7313   24.6981 C   0  0  0  0  0  0  0  0  0  0  0  0
   -1.9539   12.6011   25.5006 C   0  0  0  0  0  0  0  0  0  0  0  0
   -2.5440   12.5054   26.7851 C   0  0  0  0  0  0  0  0  0  0  0  0
   -3.5970    8.7239   24.2312 C   0  0  0  0  0  0  0  0  0  0  0  0
   -4.3550    7.5507   24.1167 C   0  0  0  0  0  0  0  0  0  0  0  0
   -4.6079    7.0091   22.8558 C   0  0  0  0  0  0  0  0  0  0  0  0
   -4.1174    7.6502   21.7228 C   0  0  0  0  0  0  0  0  0  0  0  0
   -4.3621    7.1300   20.5136 F   0  0  0  0  0  0  0  0  0  0  0  0
   -3.3845    8.8290   21.8242 C   0  0  0  0  0  0  0  0  0  0  0  0
   -3.1280    9.3773   23.0824 C   0  0  0  0  0  0  0  0  0  0  0  0
    1.8271    8.3096   27.7437 H   0  0  0  0  0  0  0  0  0  0  0  0
    2.0920    6.2653   26.4455 H   0  0  0  0  0  0  0  0  0  0  0  0
   -1.7646    6.7615   24.8048 H   0  0  0  0  0  0  0  0  0  0  0  0
   -2.8654   10.5626   29.5377 H   0  0  0  0  0  0  0  0  0  0  0  0
   -4.1391   12.4740   30.3008 H   0  0  0  0  0  0  0  0  0  0  0  0
   -4.4310   14.3888   28.8523 H   0  0  0  0  0  0  0  0  0  0  0  0
   -4.0222   15.5388   26.7640 H   0  0  0  0  0  0  0  0  0  0  0  0
   -3.0167   15.6323   24.5655 H   0  0  0  0  0  0  0  0  0  0  0  0
   -1.6852   13.7731   23.7647 H   0  0  0  0  0  0  0  0  0  0  0  0
   -1.3843   11.8156   25.1491 H   0  0  0  0  0  0  0  0  0  0  0  0
   -4.7249    7.0888   24.9622 H   0  0  0  0  0  0  0  0  0  0  0  0
   -5.1551    6.1389   22.7644 H   0  0  0  0  0  0  0  0  0  0  0  0
   -3.0324    9.2955   20.9737 H   0  0  0  0  0  0  0  0  0  0  0  0
   -2.5966   10.2579   23.1664 H   0  0  0  0  0  0  0  0  0  0  0  0
  1  2  2  0
  2 23  1  0
  2  3  1  0
  3  4  1  0
  4 13  1  0
  4  5  2  0
  5  6  1  0
  6  7  2  0
  7  8  1  0
  7 30  1  0
  8  9  2  0
  8 31  1  0
  9 10  1  0
  9 11  1  0
 11 12  2  0
 11 32  1  0
 12  3  1  0
 12  6  1  0
 13 14  2  0
 14 15  1  0
 14 33  1  0
 15 16  2  0
 15 34  1  0
 16 17  1  0
 16 35  1  0
 17 18  2  0
 18 19  1  0
 18 36  1  0
 19 20  2  0
 19 37  1  0
 20 21  1  0
 20 38  1  0
 21 22  2  0
 21 39  1  0
 22 13  1  0
 22 17  1  0
 23 24  2  0
 24 25  1  0
 24 40  1  0
 25 26  2  0
 25 41  1  0
 26 27  1  0
 26 28  1  0
 28 29  2  0
 28 42  1  0
 29 23  1  0
 29 43  1  0
M  END
>  <minimizedAffinity>  (9) 
-6.03136

>  <mol_id>  (9) 
111016

>  <source_index>  (9) 
8

>  <layer>  (9) 
L2

>  <uniprot>  (9) 
P05177

>  <paff>  (9) 
6.3978999999999999

>  <smiles>  (9) 
O=C(c1ccc(F)cc1)n1c(-c2cccc3ccccc23)nc2ccc(Cl)cc21

$$$$
L2:P05177:132735
     RDKit          3D

 47 51  0  0  0  0  0  0  0  0999 V2000
    5.8251   25.5752   21.7584 O   0  0  0  0  0  0  0  0  0  0  0  0
    5.6216   24.6811   20.9403 C   0  0  0  0  0  0  0  0  0  0  0  0
    5.8710   23.3517   21.3364 N   0  0  0  0  0  0  0  0  0  0  0  0
    6.7787   22.9353   22.3121 C   0  0  0  0  0  0  0  0  0  0  0  0
    6.7925   21.6205   22.4265 N   0  0  0  0  0  0  0  0  0  0  0  0
    5.8669   21.1531   21.5433 C   0  0  0  0  0  0  0  0  0  0  0  0
    5.4929   19.8193   21.2967 C   0  0  0  0  0  0  0  0  0  0  0  0
    4.4849   19.5555   20.3669 C   0  0  0  0  0  0  0  0  0  0  0  0
    3.8577   20.6181   19.7104 C   0  0  0  0  0  0  0  0  0  0  0  0
    4.2181   21.9525   19.9420 C   0  0  0  0  0  0  0  0  0  0  0  0
    5.2571   22.1950   20.8530 C   0  0  0  0  0  0  0  0  0  0  0  0
    7.6793   23.8215   23.0575 C   0  0  0  0  0  0  0  0  0  0  0  0
    7.4211   24.0184   24.4229 C   0  0  0  0  0  0  0  0  0  0  0  0
    8.2258   24.8647   25.1779 C   0  0  0  0  0  0  0  0  0  0  0  0
    9.3000   25.5169   24.5766 C   0  0  0  0  0  0  0  0  0  0  0  0
    9.5953   25.3236   23.2179 C   0  0  0  0  0  0  0  0  0  0  0  0
   10.6908   25.9811   22.6329 C   0  0  0  0  0  0  0  0  0  0  0  0
   11.0111   25.7897   21.2897 C   0  0  0  0  0  0  0  0  0  0  0  0
   10.2432   24.9324   20.5130 C   0  0  0  0  0  0  0  0  0  0  0  0
    9.1493   24.2734   21.0782 C   0  0  0  0  0  0  0  0  0  0  0  0
    8.7900   24.4578   22.4359 C   0  0  0  0  0  0  0  0  0  0  0  0
    5.1253   25.0822   19.6055 C   0  0  0  0  0  0  0  0  0  0  0  0
    3.8118   25.5467   19.4801 C   0  0  0  0  0  0  0  0  0  0  0  0
    3.3346   25.9464   18.2315 C   0  0  0  0  0  0  0  0  0  0  0  0
    4.1716   25.8975   17.1161 C   0  0  0  0  0  0  0  0  0  0  0  0
    5.4902   25.4589   17.2461 C   0  0  0  0  0  0  0  0  0  0  0  0
    5.9740   25.0573   18.4920 C   0  0  0  0  0  0  0  0  0  0  0  0
    4.0101   18.3222   20.0178 O   0  0  0  0  0  0  0  0  0  0  0  0
    3.8522   17.3587   21.0465 C   0  0  0  0  0  0  0  0  0  0  0  0
    2.7775   16.5919   20.7564 F   0  0  0  0  0  0  0  0  0  0  0  0
    4.9317   16.5530   21.1277 F   0  0  0  0  0  0  0  0  0  0  0  0
    3.6348   17.9504   22.2395 F   0  0  0  0  0  0  0  0  0  0  0  0
    5.9578   19.0455   21.7968 H   0  0  0  0  0  0  0  0  0  0  0  0
    3.1056   20.4137   19.0339 H   0  0  0  0  0  0  0  0  0  0  0  0
    3.7370   22.7280   19.4602 H   0  0  0  0  0  0  0  0  0  0  0  0
    6.6284   23.5316   24.8698 H   0  0  0  0  0  0  0  0  0  0  0  0
    8.0279   25.0092   26.1804 H   0  0  0  0  0  0  0  0  0  0  0  0
    9.8878   26.1521   25.1388 H   0  0  0  0  0  0  0  0  0  0  0  0
   11.2675   26.6159   23.2069 H   0  0  0  0  0  0  0  0  0  0  0  0
   11.8163   26.2836   20.8740 H   0  0  0  0  0  0  0  0  0  0  0  0
   10.4804   24.7825   19.5199 H   0  0  0  0  0  0  0  0  0  0  0  0
    8.5884   23.6358   20.4917 H   0  0  0  0  0  0  0  0  0  0  0  0
    3.1979   25.5936   20.3083 H   0  0  0  0  0  0  0  0  0  0  0  0
    2.3624   26.2783   18.1328 H   0  0  0  0  0  0  0  0  0  0  0  0
    3.8145   26.1866   16.1920 H   0  0  0  0  0  0  0  0  0  0  0  0
    6.1081   25.4315   16.4200 H   0  0  0  0  0  0  0  0  0  0  0  0
    6.9521   24.7436   18.5921 H   0  0  0  0  0  0  0  0  0  0  0  0
  1  2  2  0
  2 22  1  0
  2  3  1  0
  3  4  1  0
  4 12  1  0
  4  5  2  0
  5  6  1  0
  6  7  2  0
  7  8  1  0
  7 33  1  0
  8 28  1  0
  8  9  2  0
  9 10  1  0
  9 34  1  0
 10 11  2  0
 10 35  1  0
 11  3  1  0
 11  6  1  0
 12 13  2  0
 13 14  1  0
 13 36  1  0
 14 15  2  0
 14 37  1  0
 15 16  1  0
 15 38  1  0
 16 17  2  0
 17 18  1  0
 17 39  1  0
 18 19  2  0
 18 40  1  0
 19 20  1  0
 19 41  1  0
 20 21  2  0
 20 42  1  0
 21 12  1  0
 21 16  1  0
 22 23  2  0
 23 24  1  0
 23 43  1  0
 24 25  2  0
 24 44  1  0
 25 26  1  0
 25 45  1  0
 26 27  2  0
 26 46  1  0
 27 22  1  0
 27 47  1  0
 28 29  1  0
 29 30  1  0
 29 31  1  0
 29 32  1  0
M  END
>  <minimizedAffinity>  (10) 
-7.27100

>  <mol_id>  (10) 
132735

>  <source_index>  (10) 
9

>  <layer>  (10) 
L2

>  <uniprot>  (10) 
P05177

>  <paff>  (10) 
6.0968999999999998

>  <smiles>  (10) 
O=C(c1ccccc1)n1c(-c2cccc3ccccc23)nc2cc(OC(F)(F)F)ccc21

$$$$
