L3:P40879:105680
     RDKit          3D

 46 48  0  0  0  0  0  0  0  0999 V2000
   -1.7397   -3.1183    0.2933 C   0  0  0  0  0  0  0  0  0  0  0  0
   -1.3049   -1.6764    0.2870 C   0  0  0  0  0  0  0  0  0  0  0  0
    0.0951   -1.4607    0.2589 C   0  0  0  0  0  0  0  0  0  0  0  0
    0.6557   -0.1863    0.3269 C   0  0  0  0  0  0  0  0  0  0  0  0
    2.0199   -0.1538    0.2908 O   0  0  0  0  0  0  0  0  0  0  0  0
    2.6404    1.1324    0.3004 C   0  0  0  0  0  0  0  0  0  0  0  0
    4.1357    0.9553    0.1632 C   0  0  0  0  0  0  0  0  0  0  0  0
    5.0145    1.6157    1.0318 C   0  0  0  0  0  0  0  0  0  0  0  0
    6.3950    1.4746    0.8862 C   0  0  0  0  0  0  0  0  0  0  0  0
    6.9139    0.6744   -0.1314 C   0  0  0  0  0  0  0  0  0  0  0  0
    6.0567    0.0012   -1.0136 C   0  0  0  0  0  0  0  0  0  0  0  0
    6.6131   -0.8468   -2.1302 C   0  0  0  0  0  0  0  0  0  0  0  0
    7.8404   -1.3683   -1.8481 F   0  0  0  0  0  0  0  0  0  0  0  0
    6.7642   -0.1443   -3.2871 F   0  0  0  0  0  0  0  0  0  0  0  0
    5.8220   -1.9119   -2.4408 F   0  0  0  0  0  0  0  0  0  0  0  0
    4.6690    0.1594   -0.8637 C   0  0  0  0  0  0  0  0  0  0  0  0
   -0.1906    0.8998    0.4507 C   0  0  0  0  0  0  0  0  0  0  0  0
   -1.5759    0.6923    0.4641 C   0  0  0  0  0  0  0  0  0  0  0  0
   -2.3277    1.8617    0.6788 O   0  0  0  0  0  0  0  0  0  0  0  0
   -3.6816    1.8000    0.9222 C   0  0  0  0  0  0  0  0  0  0  0  0
   -4.2996    2.7717    1.3443 O   0  0  0  0  0  0  0  0  0  0  0  0
   -4.3634    0.5253    0.5852 C   0  0  0  0  0  0  0  0  0  0  0  0
   -5.8706    0.6485    0.6321 C   0  0  0  0  0  0  0  0  0  0  0  0
   -6.3774    1.4176   -0.5669 C   0  0  0  0  0  0  0  0  0  0  0  0
   -5.7760    1.6696   -1.5980 O   0  0  0  0  0  0  0  0  0  0  0  0
   -7.6667    1.7879   -0.4227 O   0  0  0  0  0  0  0  0  0  0  0  0
   -3.6672   -0.5850    0.2491 C   0  0  0  0  0  0  0  0  0  0  0  0
   -4.3641   -1.7998   -0.3051 C   0  0  0  0  0  0  0  0  0  0  0  0
   -2.1806   -0.5663    0.3311 C   0  0  0  0  0  0  0  0  0  0  0  0
   -2.0978   -3.4235   -0.6929 H   0  0  0  0  0  0  0  0  0  0  0  0
   -0.9075   -3.7839    0.5518 H   0  0  0  0  0  0  0  0  0  0  0  0
   -2.5012   -3.2918    1.0580 H   0  0  0  0  0  0  0  0  0  0  0  0
    0.7725   -2.3127    0.1964 H   0  0  0  0  0  0  0  0  0  0  0  0
    2.4123    1.6400    1.2455 H   0  0  0  0  0  0  0  0  0  0  0  0
    2.2898    1.7415   -0.5421 H   0  0  0  0  0  0  0  0  0  0  0  0
    4.6306    2.2459    1.8315 H   0  0  0  0  0  0  0  0  0  0  0  0
    7.0676    1.9909    1.5673 H   0  0  0  0  0  0  0  0  0  0  0  0
    7.9937    0.5756   -0.2337 H   0  0  0  0  0  0  0  0  0  0  0  0
    3.9925   -0.3510   -1.5504 H   0  0  0  0  0  0  0  0  0  0  0  0
    0.1779    1.9146    0.5511 H   0  0  0  0  0  0  0  0  0  0  0  0
   -6.1751    1.1712    1.5469 H   0  0  0  0  0  0  0  0  0  0  0  0
   -6.3703   -0.3238    0.6564 H   0  0  0  0  0  0  0  0  0  0  0  0
   -7.8640    2.2870   -1.2434 H   0  0  0  0  0  0  0  0  0  0  0  0
   -5.3620   -1.5757   -0.6939 H   0  0  0  0  0  0  0  0  0  0  0  0
   -4.4810   -2.5731    0.4584 H   0  0  0  0  0  0  0  0  0  0  0  0
   -3.8274   -2.2007   -1.1699 H   0  0  0  0  0  0  0  0  0  0  0  0
  1  2  1  0
  2  3  2  0
  3  4  1  0
  4  5  1  0
  5  6  1  0
  6  7  1  0
  7  8  2  0
  8  9  1  0
  9 10  2  0
 10 11  1  0
 11 12  1  0
 12 13  1  0
 12 14  1  0
 12 15  1  0
 11 16  2  0
  4 17  2  0
 17 18  1  0
 18 19  1  0
 19 20  1  0
 20 21  2  0
 20 22  1  0
 22 23  1  0
 23 24  1  0
 24 25  2  0
 24 26  1  0
 22 27  2  0
 27 28  1  0
 27 29  1  0
 29  2  1  0
 16  7  1  0
 29 18  2  0
  1 30  1  0
  1 31  1  0
  1 32  1  0
  3 33  1  0
  6 34  1  0
  6 35  1  0
  8 36  1  0
  9 37  1  0
 10 38  1  0
 16 39  1  0
 17 40  1  0
 23 41  1  0
 23 42  1  0
 26 43  1  0
 28 44  1  0
 28 45  1  0
 28 46  1  0
M  END
>  <mol_id>  (1) 
105680

>  <source_index>  (1) 
4

>  <layer>  (1) 
L3

>  <uniprot>  (1) 
P40879

>  <paff>  (1) 
6.0457999999999998

>  <smiles>  (1) 
Cc1cc(OCc2cccc(C(F)(F)F)c2)cc2oc(=O)c(CC(=O)O)c(C)c12

$$$$
