L3:P40879:105680
 OpenBabel09212617443D

 46 48  0  0  0  0  0  0  0  0999 V2000
  126.5638   93.3670  123.2588 C   0  0  0  0  0  0  0  0  0  0  0  0
  125.2668   93.2466  124.0147 C   0  0  0  0  0  0  0  0  0  0  0  0
  124.9040   94.3762  124.7891 C   0  0  0  0  0  0  0  0  0  0  0  0
  123.7733   94.3907  125.6042 C   0  0  0  0  0  0  0  0  0  0  0  0
  122.9964   93.2493  125.6732 C   0  0  0  0  0  0  0  0  0  0  0  0
  123.3432   92.1352  124.8980 C   0  0  0  0  0  0  0  0  0  0  0  0
  122.5283   91.0097  125.1168 O   0  0  0  0  0  0  0  0  0  0  0  0
  122.8591   89.7811  124.5902 C   0  0  0  0  0  0  0  0  0  0  0  0
  122.3013   88.7548  124.9640 O   0  0  0  0  0  0  0  0  0  0  0  0
  123.8715   89.7704  123.5047 C   0  0  0  0  0  0  0  0  0  0  0  0
  124.5821   90.8766  123.1857 C   0  0  0  0  0  0  0  0  0  0  0  0
  125.4376   90.9188  121.9467 C   0  0  0  0  0  0  0  0  0  0  0  0
  124.4333   92.1036  124.0159 C   0  0  0  0  0  0  0  0  0  0  0  0
  123.5687   95.5556  126.2857 O   0  0  0  0  0  0  0  0  0  0  0  0
  122.7925   96.5622  125.6347 C   0  0  0  0  0  0  0  0  0  0  0  0
  123.1096   97.9033  126.2569 C   0  0  0  0  0  0  0  0  0  0  0  0
  124.1469   98.0287  127.1903 C   0  0  0  0  0  0  0  0  0  0  0  0
  124.4200   99.2608  127.7856 C   0  0  0  0  0  0  0  0  0  0  0  0
  123.6576  100.3816  127.4577 C   0  0  0  0  0  0  0  0  0  0  0  0
  122.6146  100.2841  126.5255 C   0  0  0  0  0  0  0  0  0  0  0  0
  122.3422   99.0362  125.9408 C   0  0  0  0  0  0  0  0  0  0  0  0
  121.7720  101.4880  126.1848 C   0  0  0  0  0  0  0  0  0  0  0  0
  121.6745  101.7132  124.8440 F   0  0  0  0  0  0  0  0  0  0  0  0
  122.2711  102.6367  126.7198 F   0  0  0  0  0  0  0  0  0  0  0  0
  120.4903  101.3917  126.6370 F   0  0  0  0  0  0  0  0  0  0  0  0
  123.9639   88.4261  122.8167 C   0  0  0  0  0  0  0  0  0  0  0  0
  123.3293   88.4873  121.4458 C   0  0  0  0  0  0  0  0  0  0  0  0
  122.3472   89.1274  121.1081 O   0  0  0  0  0  0  0  0  0  0  0  0
  124.0174   87.7657  120.5368 O   0  0  0  0  0  0  0  0  0  0  0  0
  123.5004   87.8695  119.7101 H   0  0  0  0  0  0  0  0  0  0  0  0
  126.9893   94.3333  123.4322 H   0  0  0  0  0  0  0  0  0  0  0  0
  126.3797   93.2409  122.2123 H   0  0  0  0  0  0  0  0  0  0  0  0
  127.2438   92.6123  123.5948 H   0  0  0  0  0  0  0  0  0  0  0  0
  125.4984   95.2188  124.7482 H   0  0  0  0  0  0  0  0  0  0  0  0
  122.1693   93.2183  126.2896 H   0  0  0  0  0  0  0  0  0  0  0  0
  125.4319   89.9577  121.4764 H   0  0  0  0  0  0  0  0  0  0  0  0
  126.4404   91.1790  122.2144 H   0  0  0  0  0  0  0  0  0  0  0  0
  125.0482   91.6497  121.2691 H   0  0  0  0  0  0  0  0  0  0  0  0
  121.7513   96.3472  125.7556 H   0  0  0  0  0  0  0  0  0  0  0  0
  123.0266   96.5822  124.5908 H   0  0  0  0  0  0  0  0  0  0  0  0
  124.7136   97.2030  127.4396 H   0  0  0  0  0  0  0  0  0  0  0  0
  125.1879   99.3429  128.4701 H   0  0  0  0  0  0  0  0  0  0  0  0
  123.8625  101.2891  127.9043 H   0  0  0  0  0  0  0  0  0  0  0  0
  121.5649   98.9505  125.2674 H   0  0  0  0  0  0  0  0  0  0  0  0
  123.4558   87.6927  123.4074 H   0  0  0  0  0  0  0  0  0  0  0  0
  124.9955   88.1631  122.7087 H   0  0  0  0  0  0  0  0  0  0  0  0
  1  2  1  0  0  0  0
  1 31  1  0  0  0  0
  1 32  1  0  0  0  0
  1 33  1  0  0  0  0
  2  3  2  0  0  0  0
  3  4  1  0  0  0  0
  3 34  1  0  0  0  0
  4 14  1  0  0  0  0
  4  5  2  0  0  0  0
  5  6  1  0  0  0  0
  5 35  1  0  0  0  0
  6  7  1  0  0  0  0
  7  8  1  0  0  0  0
  8  9  2  0  0  0  0
  8 10  1  0  0  0  0
 10 26  1  0  0  0  0
 10 11  2  0  0  0  0
 11 12  1  0  0  0  0
 11 13  1  0  0  0  0
 12 36  1  0  0  0  0
 12 37  1  0  0  0  0
 12 38  1  0  0  0  0
 13  2  1  0  0  0  0
 13  6  2  0  0  0  0
 14 15  1  0  0  0  0
 15 16  1  0  0  0  0
 15 39  1  0  0  0  0
 15 40  1  0  0  0  0
 16 17  2  0  0  0  0
 17 18  1  0  0  0  0
 17 41  1  0  0  0  0
 18 19  2  0  0  0  0
 18 42  1  0  0  0  0
 19 20  1  0  0  0  0
 19 43  1  0  0  0  0
 20 22  1  0  0  0  0
 20 21  2  0  0  0  0
 21 16  1  0  0  0  0
 21 44  1  0  0  0  0
 22 23  1  0  0  0  0
 22 24  1  0  0  0  0
 22 25  1  0  0  0  0
 26 27  1  0  0  0  0
 26 45  1  0  0  0  0
 26 46  1  0  0  0  0
 27 28  2  0  0  0  0
 27 29  1  0  0  0  0
 29 30  1  0  0  0  0
M  END
>  <minimizedAffinity>
-10.44589

$$$$
