L3:P40879:109901
     RDKit          3D

 43 45  0  0  0  0  0  0  0  0999 V2000
   -4.3363    2.1652   -0.1090 C   0  0  0  0  0  0  0  0  0  0  0  0
   -3.6910    0.8799   -0.5637 C   0  0  0  0  0  0  0  0  0  0  0  0
   -4.3368   -0.0746   -1.2690 C   0  0  0  0  0  0  0  0  0  0  0  0
   -5.7625    0.0007   -1.7676 C   0  0  0  0  0  0  0  0  0  0  0  0
   -6.6695   -0.8250   -0.8838 C   0  0  0  0  0  0  0  0  0  0  0  0
   -6.4488   -1.2090    0.2532 O   0  0  0  0  0  0  0  0  0  0  0  0
   -7.8601   -1.0716   -1.4678 O   0  0  0  0  0  0  0  0  0  0  0  0
   -3.6757   -1.3577   -1.6336 C   0  0  0  0  0  0  0  0  0  0  0  0
   -4.2665   -2.2233   -2.2710 O   0  0  0  0  0  0  0  0  0  0  0  0
   -2.3668   -1.5305   -1.2336 O   0  0  0  0  0  0  0  0  0  0  0  0
   -1.6571   -0.5423   -0.5253 C   0  0  0  0  0  0  0  0  0  0  0  0
   -0.3199   -0.8125   -0.1901 C   0  0  0  0  0  0  0  0  0  0  0  0
    0.3959   -2.3245   -0.6508 Cl  0  0  0  0  0  0  0  0  0  0  0  0
    0.4347    0.1420    0.5078 C   0  0  0  0  0  0  0  0  0  0  0  0
    1.7299   -0.1886    0.8047 O   0  0  0  0  0  0  0  0  0  0  0  0
    2.5471    0.7881    1.4470 C   0  0  0  0  0  0  0  0  0  0  0  0
    3.9505    0.2465    1.6067 C   0  0  0  0  0  0  0  0  0  0  0  0
    4.6822    0.5176    2.7711 C   0  0  0  0  0  0  0  0  0  0  0  0
    5.9911    0.0551    2.9116 C   0  0  0  0  0  0  0  0  0  0  0  0
    6.5880   -0.6780    1.8866 C   0  0  0  0  0  0  0  0  0  0  0  0
    5.8804   -0.9609    0.7095 C   0  0  0  0  0  0  0  0  0  0  0  0
    6.5343   -1.7289   -0.4128 C   0  0  0  0  0  0  0  0  0  0  0  0
    5.6558   -2.4669   -1.1464 F   0  0  0  0  0  0  0  0  0  0  0  0
    7.4838   -2.6056    0.0204 F   0  0  0  0  0  0  0  0  0  0  0  0
    7.1640   -0.9081   -1.2993 F   0  0  0  0  0  0  0  0  0  0  0  0
    4.5665   -0.4822    0.5759 C   0  0  0  0  0  0  0  0  0  0  0  0
   -0.1732    1.3499    0.8542 C   0  0  0  0  0  0  0  0  0  0  0  0
   -1.5101    1.6021    0.5104 C   0  0  0  0  0  0  0  0  0  0  0  0
   -2.2790    0.6574   -0.1837 C   0  0  0  0  0  0  0  0  0  0  0  0
   -5.4100    2.2105   -0.3019 H   0  0  0  0  0  0  0  0  0  0  0  0
   -4.2283    2.2900    0.9745 H   0  0  0  0  0  0  0  0  0  0  0  0
   -3.8791    3.0235   -0.6129 H   0  0  0  0  0  0  0  0  0  0  0  0
   -6.1488    1.0222   -1.7970 H   0  0  0  0  0  0  0  0  0  0  0  0
   -5.8215   -0.3762   -2.7959 H   0  0  0  0  0  0  0  0  0  0  0  0
   -8.3356   -1.6275   -0.8147 H   0  0  0  0  0  0  0  0  0  0  0  0
    2.1291    1.0142    2.4353 H   0  0  0  0  0  0  0  0  0  0  0  0
    2.6039    1.7024    0.8438 H   0  0  0  0  0  0  0  0  0  0  0  0
    4.2371    1.0907    3.5819 H   0  0  0  0  0  0  0  0  0  0  0  0
    6.5475    0.2680    3.8214 H   0  0  0  0  0  0  0  0  0  0  0  0
    7.6111   -1.0308    2.0089 H   0  0  0  0  0  0  0  0  0  0  0  0
    4.0124   -0.6893   -0.3408 H   0  0  0  0  0  0  0  0  0  0  0  0
    0.3588    2.1254    1.3968 H   0  0  0  0  0  0  0  0  0  0  0  0
   -1.9272    2.5628    0.8043 H   0  0  0  0  0  0  0  0  0  0  0  0
  1  2  1  0
  2  3  2  0
  3  4  1  0
  4  5  1  0
  5  6  2  0
  5  7  1  0
  3  8  1  0
  8  9  2  0
  8 10  1  0
 10 11  1  0
 11 12  2  0
 12 13  1  0
 12 14  1  0
 14 15  1  0
 15 16  1  0
 16 17  1  0
 17 18  2  0
 18 19  1  0
 19 20  2  0
 20 21  1  0
 21 22  1  0
 22 23  1  0
 22 24  1  0
 22 25  1  0
 21 26  2  0
 14 27  2  0
 27 28  1  0
 28 29  2  0
 29  2  1  0
 29 11  1  0
 26 17  1  0
  1 30  1  0
  1 31  1  0
  1 32  1  0
  4 33  1  0
  4 34  1  0
  7 35  1  0
 16 36  1  0
 16 37  1  0
 18 38  1  0
 19 39  1  0
 20 40  1  0
 26 41  1  0
 27 42  1  0
 28 43  1  0
M  END
>  <mol_id>  (1) 
109901

>  <source_index>  (1) 
5

>  <layer>  (1) 
L3

>  <uniprot>  (1) 
P40879

>  <paff>  (1) 
7.6021000000000001

>  <smiles>  (1) 
Cc1c(CC(=O)O)c(=O)oc2c(Cl)c(OCc3cccc(C(F)(F)F)c3)ccc12

$$$$
