L3:P40879:111688


 27 29  0  0  0  0  0  0  0  0999 V2000
  126.5618   93.3951  123.3409 C   0  0  0  0  0  0  0  0  0  0  0  0
  125.2471   93.3316  124.0756 C   0  0  0  0  0  0  0  0  0  0  0  0
  124.8929   94.5025  124.7977 C   0  0  0  0  0  0  0  0  0  0  0  0
  123.7485   94.5586  125.5880 C   0  0  0  0  0  0  0  0  0  0  0  0
  122.9565   93.4266  125.6834 C   0  0  0  0  0  0  0  0  0  0  0  0
  123.2920   92.2777  124.9621 C   0  0  0  0  0  0  0  0  0  0  0  0
  122.4541   91.1766  125.2074 O   0  0  0  0  0  0  0  0  0  0  0  0
  122.7710   89.9252  124.7293 C   0  0  0  0  0  0  0  0  0  0  0  0
  122.1850   88.9219  125.1226 O   0  0  0  0  0  0  0  0  0  0  0  0
  123.8064   89.8578  123.6672 C   0  0  0  0  0  0  0  0  0  0  0  0
  124.5414   90.9400  123.3217 C   0  0  0  0  0  0  0  0  0  0  0  0
  125.4196   90.9211  122.0984 C   0  0  0  0  0  0  0  0  0  0  0  0
  124.3960   92.1994  124.1030 C   0  0  0  0  0  0  0  0  0  0  0  0
  123.3203   95.6254  126.3240 O   0  0  0  0  0  0  0  0  0  0  0  0
  122.6636   96.6824  125.6261 C   0  0  0  0  0  0  0  0  0  0  0  0
  123.0281   97.9960  126.2772 C   0  0  0  0  0  0  0  0  0  0  0  0
  124.1260   98.0760  127.1484 C   0  0  0  0  0  0  0  0  0  0  0  0
  124.4564   99.2820  127.7694 C   0  0  0  0  0  0  0  0  0  0  0  0
  123.6904  100.4221  127.5312 C   0  0  0  0  0  0  0  0  0  0  0  0
  122.5967  100.3494  126.6715 C   0  0  0  0  0  0  0  0  0  0  0  0
  121.5545  101.8942  126.3492 Br  0  0  0  0  0  0  0  0  0  0  0  0
  122.2608   99.1472  126.0469 C   0  0  0  0  0  0  0  0  0  0  0  0
  123.8916   88.4871  123.0327 C   0  0  0  0  0  0  0  0  0  0  0  0
  123.3063   88.5103  121.6388 C   0  0  0  0  0  0  0  0  0  0  0  0
  122.2741   89.0488  121.2746 O   0  0  0  0  0  0  0  0  0  0  0  0
  124.1039   87.8912  120.7441 O   0  0  0  0  0  0  0  0  0  0  0  0
  123.6083   87.9546  119.9003 H   0  0  0  0  0  0  0  0  0  0  0  0
  1  2  1  0  0  0
  2  3  2  0  0  0
  3  4  1  0  0  0
  4 14  1  0  0  0
 14 15  1  0  0  0
 15 16  1  0  0  0
 16 17  2  0  0  0
 17 18  1  0  0  0
 18 19  2  0  0  0
 19 20  1  0  0  0
 20 21  1  0  0  0
 20 22  2  0  0  0
  4  5  2  0  0  0
  5  6  1  0  0  0
  6  7  1  0  0  0
  7  8  1  0  0  0
  8  9  2  0  0  0
  8 10  1  0  0  0
 10 23  1  0  0  0
 23 24  1  0  0  0
 24 25  2  0  0  0
 24 26  1  0  0  0
 10 11  2  0  0  0
 11 12  1  0  0  0
 11 13  1  0  0  0
 13  2  1  0  0  0
 22 16  1  0  0  0
 13  6  2  0  0  0
 26 27  1  0  0  0
M  END
> <minimizedAffinity>
-9.43718

$$$$
