L3:P40879:116771
     RDKit          3D

 43 45  0  0  0  0  0  0  0  0999 V2000
   -4.6588   -0.9386    1.2414 C   0  0  0  0  0  0  0  0  0  0  0  0
   -3.8511   -0.4527    0.0645 C   0  0  0  0  0  0  0  0  0  0  0  0
   -4.3939    0.0260   -1.0768 C   0  0  0  0  0  0  0  0  0  0  0  0
   -5.8709    0.1011   -1.3927 C   0  0  0  0  0  0  0  0  0  0  0  0
   -6.3703    1.5180   -1.2240 C   0  0  0  0  0  0  0  0  0  0  0  0
   -5.8415    2.4218   -0.5977 O   0  0  0  0  0  0  0  0  0  0  0  0
   -7.5700    1.7065   -1.8111 O   0  0  0  0  0  0  0  0  0  0  0  0
   -3.5490    0.5577   -2.1840 C   0  0  0  0  0  0  0  0  0  0  0  0
   -4.0502    0.9914   -3.2166 O   0  0  0  0  0  0  0  0  0  0  0  0
   -2.1802    0.5351   -2.0090 O   0  0  0  0  0  0  0  0  0  0  0  0
   -1.5985    0.0139   -0.8442 C   0  0  0  0  0  0  0  0  0  0  0  0
   -0.2036    0.0147   -0.7810 C   0  0  0  0  0  0  0  0  0  0  0  0
    0.5033    0.5076   -1.8110 F   0  0  0  0  0  0  0  0  0  0  0  0
    0.4611   -0.4901    0.3369 C   0  0  0  0  0  0  0  0  0  0  0  0
    1.8263   -0.4415    0.2902 O   0  0  0  0  0  0  0  0  0  0  0  0
    2.5444   -0.8823    1.4414 C   0  0  0  0  0  0  0  0  0  0  0  0
    4.0212   -0.6642    1.2089 C   0  0  0  0  0  0  0  0  0  0  0  0
    4.9394   -1.7017    1.4159 C   0  0  0  0  0  0  0  0  0  0  0  0
    6.3045   -1.4886    1.2200 C   0  0  0  0  0  0  0  0  0  0  0  0
    6.7678   -0.2353    0.8200 C   0  0  0  0  0  0  0  0  0  0  0  0
    5.8710    0.8219    0.6194 C   0  0  0  0  0  0  0  0  0  0  0  0
    6.3586    2.1691    0.1534 C   0  0  0  0  0  0  0  0  0  0  0  0
    5.6640    3.2047    0.7036 F   0  0  0  0  0  0  0  0  0  0  0  0
    7.6668    2.4018    0.4603 F   0  0  0  0  0  0  0  0  0  0  0  0
    4.4997    0.5958    0.8147 C   0  0  0  0  0  0  0  0  0  0  0  0
   -0.3015   -0.9993    1.3869 C   0  0  0  0  0  0  0  0  0  0  0  0
   -1.7049   -0.9955    1.3130 C   0  0  0  0  0  0  0  0  0  0  0  0
   -2.3795   -0.4835    0.1936 C   0  0  0  0  0  0  0  0  0  0  0  0
   -5.7320   -0.7657    1.1392 H   0  0  0  0  0  0  0  0  0  0  0  0
   -4.3629   -0.4136    2.1568 H   0  0  0  0  0  0  0  0  0  0  0  0
   -4.5152   -2.0146    1.3874 H   0  0  0  0  0  0  0  0  0  0  0  0
   -6.0514   -0.2238   -2.4245 H   0  0  0  0  0  0  0  0  0  0  0  0
   -6.4743   -0.5530   -0.7589 H   0  0  0  0  0  0  0  0  0  0  0  0
   -7.7657    2.6544   -1.6542 H   0  0  0  0  0  0  0  0  0  0  0  0
    2.2493   -0.3085    2.3288 H   0  0  0  0  0  0  0  0  0  0  0  0
    2.3477   -1.9481    1.6089 H   0  0  0  0  0  0  0  0  0  0  0  0
    4.5997   -2.6870    1.7275 H   0  0  0  0  0  0  0  0  0  0  0  0
    7.0092   -2.3013    1.3785 H   0  0  0  0  0  0  0  0  0  0  0  0
    7.8354   -0.0836    0.6699 H   0  0  0  0  0  0  0  0  0  0  0  0
    6.2574    2.2390   -0.9341 H   0  0  0  0  0  0  0  0  0  0  0  0
    3.7933    1.4108    0.6539 H   0  0  0  0  0  0  0  0  0  0  0  0
    0.1560   -1.4112    2.2811 H   0  0  0  0  0  0  0  0  0  0  0  0
   -2.2507   -1.4079    2.1589 H   0  0  0  0  0  0  0  0  0  0  0  0
  1  2  1  0
  2  3  2  0
  3  4  1  0
  4  5  1  0
  5  6  2  0
  5  7  1  0
  3  8  1  0
  8  9  2  0
  8 10  1  0
 10 11  1  0
 11 12  2  0
 12 13  1  0
 12 14  1  0
 14 15  1  0
 15 16  1  0
 16 17  1  0
 17 18  2  0
 18 19  1  0
 19 20  2  0
 20 21  1  0
 21 22  1  0
 22 23  1  0
 22 24  1  0
 21 25  2  0
 14 26  2  0
 26 27  1  0
 27 28  2  0
 28  2  1  0
 28 11  1  0
 25 17  1  0
  1 29  1  0
  1 30  1  0
  1 31  1  0
  4 32  1  0
  4 33  1  0
  7 34  1  0
 16 35  1  0
 16 36  1  0
 18 37  1  0
 19 38  1  0
 20 39  1  0
 22 40  1  0
 25 41  1  0
 26 42  1  0
 27 43  1  0
M  END
>  <mol_id>  (1) 
116771

>  <source_index>  (1) 
7

>  <layer>  (1) 
L3

>  <uniprot>  (1) 
P40879

>  <paff>  (1) 
6.5621999999999998

>  <smiles>  (1) 
Cc1c(CC(=O)O)c(=O)oc2c(F)c(OCc3cccc(C(F)F)c3)ccc12

$$$$
