L3:P40879:116771


 29 31  0  0  0  0  0  0  0  0999 V2000
  122.4696   92.3284  120.4053 C   0  0  0  0  0  0  0  0  0  0  0  0
  123.4348   91.9787  121.5097 C   0  0  0  0  0  0  0  0  0  0  0  0
  124.1736   90.8475  121.5356 C   0  0  0  0  0  0  0  0  0  0  0  0
  125.1642   90.5826  122.6178 C   0  0  0  0  0  0  0  0  0  0  0  0
  125.8317   89.5532  122.6331 O   0  0  0  0  0  0  0  0  0  0  0  0
  125.2962   91.5344  123.6085 O   0  0  0  0  0  0  0  0  0  0  0  0
  124.5160   92.6997  123.6142 C   0  0  0  0  0  0  0  0  0  0  0  0
  124.7106   93.5839  124.6772 C   0  0  0  0  0  0  0  0  0  0  0  0
  125.6184   93.2899  125.6223 F   0  0  0  0  0  0  0  0  0  0  0  0
  123.9740   94.7652  124.7678 C   0  0  0  0  0  0  0  0  0  0  0  0
  123.0359   95.0386  123.7736 C   0  0  0  0  0  0  0  0  0  0  0  0
  122.8477   94.1418  122.7080 C   0  0  0  0  0  0  0  0  0  0  0  0
  123.5901   92.9547  122.6082 C   0  0  0  0  0  0  0  0  0  0  0  0
  124.1204   89.7302  120.5178 C   0  0  0  0  0  0  0  0  0  0  0  0
  123.0202   88.7548  120.8692 C   0  0  0  0  0  0  0  0  0  0  0  0
  122.2172   88.8396  121.7839 O   0  0  0  0  0  0  0  0  0  0  0  0
  123.0329   87.6668  120.0719 O   0  0  0  0  0  0  0  0  0  0  0  0
  122.2688   87.1359  120.3813 H   0  0  0  0  0  0  0  0  0  0  0  0
  124.2448   95.5543  125.8506 O   0  0  0  0  0  0  0  0  0  0  0  0
  123.1389   96.0357  126.6124 C   0  0  0  0  0  0  0  0  0  0  0  0
  123.3046   97.5218  126.8284 C   0  0  0  0  0  0  0  0  0  0  0  0
  124.4131   98.0253  127.5212 C   0  0  0  0  0  0  0  0  0  0  0  0
  124.5503   99.3973  127.7362 C   0  0  0  0  0  0  0  0  0  0  0  0
  123.5791  100.2809  127.2657 C   0  0  0  0  0  0  0  0  0  0  0  0
  122.4548   99.8010  126.5818 C   0  0  0  0  0  0  0  0  0  0  0  0
  122.3286   98.4199  126.3668 C   0  0  0  0  0  0  0  0  0  0  0  0
  121.4184  100.7506  126.0394 C   0  0  0  0  0  0  0  0  0  0  0  0
  121.0140  101.6751  126.9556 F   0  0  0  0  0  0  0  0  0  0  0  0
  121.8573  101.4673  124.9654 F   0  0  0  0  0  0  0  0  0  0  0  0
  1  2  1  0  0  0
  2  3  2  0  0  0
  3 14  1  0  0  0
 14 15  1  0  0  0
 15 16  2  0  0  0
 15 17  1  0  0  0
  3  4  1  0  0  0
  4  5  2  0  0  0
  4  6  1  0  0  0
  6  7  1  0  0  0
  7  8  2  0  0  0
  8  9  1  0  0  0
  8 10  1  0  0  0
 10 19  1  0  0  0
 19 20  1  0  0  0
 20 21  1  0  0  0
 21 22  2  0  0  0
 22 23  1  0  0  0
 23 24  2  0  0  0
 24 25  1  0  0  0
 25 27  1  0  0  0
 27 28  1  0  0  0
 27 29  1  0  0  0
 25 26  2  0  0  0
 10 11  2  0  0  0
 11 12  1  0  0  0
 12 13  2  0  0  0
 13  2  1  0  0  0
 13  7  1  0  0  0
 26 21  1  0  0  0
 17 18  1  0  0  0
M  END
> <minimizedAffinity>
-9.96594

$$$$
