L3:P40879:121141
     RDKit          3D

 43 45  0  0  0  0  0  0  0  0999 V2000
   -3.8958   -2.2268    0.2115 C   0  0  0  0  0  0  0  0  0  0  0  0
   -3.3627   -0.8265    0.0398 C   0  0  0  0  0  0  0  0  0  0  0  0
   -4.1446    0.2744   -0.0032 C   0  0  0  0  0  0  0  0  0  0  0  0
   -5.6553    0.2940    0.0476 C   0  0  0  0  0  0  0  0  0  0  0  0
   -6.1297    0.7056    1.4229 C   0  0  0  0  0  0  0  0  0  0  0  0
   -5.4948    0.6897    2.4646 O   0  0  0  0  0  0  0  0  0  0  0  0
   -7.4311    1.0617    1.4245 O   0  0  0  0  0  0  0  0  0  0  0  0
   -3.5622    1.6402   -0.1039 C   0  0  0  0  0  0  0  0  0  0  0  0
   -4.2738    2.6395   -0.1371 O   0  0  0  0  0  0  0  0  0  0  0  0
   -2.1874    1.7408   -0.1687 O   0  0  0  0  0  0  0  0  0  0  0  0
   -1.3475    0.6106   -0.1661 C   0  0  0  0  0  0  0  0  0  0  0  0
    0.0381    0.8450   -0.2726 C   0  0  0  0  0  0  0  0  0  0  0  0
    0.5750    2.2502   -0.3539 C   0  0  0  0  0  0  0  0  0  0  0  0
    0.9107   -0.2545   -0.2365 C   0  0  0  0  0  0  0  0  0  0  0  0
    2.2464    0.0383   -0.3018 O   0  0  0  0  0  0  0  0  0  0  0  0
    3.1723   -1.0393   -0.2064 C   0  0  0  0  0  0  0  0  0  0  0  0
    4.5637   -0.4583   -0.2559 C   0  0  0  0  0  0  0  0  0  0  0  0
    5.1828    0.0030    0.9155 C   0  0  0  0  0  0  0  0  0  0  0  0
    6.4632    0.5582    0.8702 C   0  0  0  0  0  0  0  0  0  0  0  0
    7.1349    0.6667   -0.3469 C   0  0  0  0  0  0  0  0  0  0  0  0
    6.5188    0.2245   -1.5157 C   0  0  0  0  0  0  0  0  0  0  0  0
    7.4232    0.3825   -3.1689 Br  0  0  0  0  0  0  0  0  0  0  0  0
    5.2398   -0.3314   -1.4782 C   0  0  0  0  0  0  0  0  0  0  0  0
    0.3828   -1.5433   -0.1407 C   0  0  0  0  0  0  0  0  0  0  0  0
   -1.0020   -1.7450   -0.0588 C   0  0  0  0  0  0  0  0  0  0  0  0
   -1.8955   -0.6675   -0.0605 C   0  0  0  0  0  0  0  0  0  0  0  0
   -4.9688   -2.2679    0.4091 H   0  0  0  0  0  0  0  0  0  0  0  0
   -3.7085   -2.8221   -0.6887 H   0  0  0  0  0  0  0  0  0  0  0  0
   -3.4215   -2.7190    1.0682 H   0  0  0  0  0  0  0  0  0  0  0  0
   -6.0461    1.0016   -0.6937 H   0  0  0  0  0  0  0  0  0  0  0  0
   -6.1011   -0.6739   -0.1933 H   0  0  0  0  0  0  0  0  0  0  0  0
   -7.6036    1.3247    2.3533 H   0  0  0  0  0  0  0  0  0  0  0  0
   -0.1395    2.9297   -0.8294 H   0  0  0  0  0  0  0  0  0  0  0  0
    1.4848    2.2963   -0.9615 H   0  0  0  0  0  0  0  0  0  0  0  0
    0.7991    2.6208    0.6511 H   0  0  0  0  0  0  0  0  0  0  0  0
    3.0420   -1.5835    0.7376 H   0  0  0  0  0  0  0  0  0  0  0  0
    3.0388   -1.7385   -1.0413 H   0  0  0  0  0  0  0  0  0  0  0  0
    4.6642   -0.0609    1.8702 H   0  0  0  0  0  0  0  0  0  0  0  0
    6.9338    0.9126    1.7839 H   0  0  0  0  0  0  0  0  0  0  0  0
    8.1298    1.1027   -0.3742 H   0  0  0  0  0  0  0  0  0  0  0  0
    4.7630   -0.6601   -2.3987 H   0  0  0  0  0  0  0  0  0  0  0  0
    1.0177   -2.4234   -0.1245 H   0  0  0  0  0  0  0  0  0  0  0  0
   -1.3536   -2.7711    0.0110 H   0  0  0  0  0  0  0  0  0  0  0  0
  1  2  1  0
  2  3  2  0
  3  4  1  0
  4  5  1  0
  5  6  2  0
  5  7  1  0
  3  8  1  0
  8  9  2  0
  8 10  1  0
 10 11  1  0
 11 12  2  0
 12 13  1  0
 12 14  1  0
 14 15  1  0
 15 16  1  0
 16 17  1  0
 17 18  2  0
 18 19  1  0
 19 20  2  0
 20 21  1  0
 21 22  1  0
 21 23  2  0
 14 24  2  0
 24 25  1  0
 25 26  2  0
 26  2  1  0
 26 11  1  0
 23 17  1  0
  1 27  1  0
  1 28  1  0
  1 29  1  0
  4 30  1  0
  4 31  1  0
  7 32  1  0
 13 33  1  0
 13 34  1  0
 13 35  1  0
 16 36  1  0
 16 37  1  0
 18 38  1  0
 19 39  1  0
 20 40  1  0
 23 41  1  0
 24 42  1  0
 25 43  1  0
M  END
>  <mol_id>  (1) 
121141

>  <source_index>  (1) 
8

>  <layer>  (1) 
L3

>  <uniprot>  (1) 
P40879

>  <paff>  (1) 
6.8539000000000003

>  <smiles>  (1) 
Cc1c(ccc2c1OC(=O)C(=C2C)CC(=O)O)OCc3cccc(c3)Br

$$$$
