L3:P40879:121141


 27 29  0  0  0  0  0  0  0  0999 V2000
  122.3459   92.1922  120.4025 C   0  0  0  0  0  0  0  0  0  0  0  0
  123.3561   91.9437  121.4944 C   0  0  0  0  0  0  0  0  0  0  0  0
  124.1734   90.8685  121.5304 C   0  0  0  0  0  0  0  0  0  0  0  0
  125.2017   90.7069  122.5940 C   0  0  0  0  0  0  0  0  0  0  0  0
  125.9471   89.7323  122.6219 O   0  0  0  0  0  0  0  0  0  0  0  0
  125.2795   91.6925  123.5568 O   0  0  0  0  0  0  0  0  0  0  0  0
  124.4159   92.8046  123.5691 C   0  0  0  0  0  0  0  0  0  0  0  0
  124.5734   93.7232  124.6263 C   0  0  0  0  0  0  0  0  0  0  0  0
  125.6434   93.5197  125.6670 C   0  0  0  0  0  0  0  0  0  0  0  0
  123.7555   94.8642  124.6530 C   0  0  0  0  0  0  0  0  0  0  0  0
  122.7863   95.0338  123.6627 C   0  0  0  0  0  0  0  0  0  0  0  0
  122.6393   94.0904  122.6363 C   0  0  0  0  0  0  0  0  0  0  0  0
  123.4605   92.9591  122.5649 C   0  0  0  0  0  0  0  0  0  0  0  0
  124.1777   89.7221  120.5451 C   0  0  0  0  0  0  0  0  0  0  0  0
  123.1092   88.7150  120.9057 C   0  0  0  0  0  0  0  0  0  0  0  0
  122.4378   88.6749  121.9236 O   0  0  0  0  0  0  0  0  0  0  0  0
  122.9864   87.7499  119.9709 O   0  0  0  0  0  0  0  0  0  0  0  0
  122.2581   87.1858  120.3071 H   0  0  0  0  0  0  0  0  0  0  0  0
  123.9830   95.7405  125.6798 O   0  0  0  0  0  0  0  0  0  0  0  0
  122.8545   96.2838  126.3572 C   0  0  0  0  0  0  0  0  0  0  0  0
  123.1685   97.7191  126.6998 C   0  0  0  0  0  0  0  0  0  0  0  0
  124.3218   98.0385  127.4320 C   0  0  0  0  0  0  0  0  0  0  0  0
  124.6057   99.3642  127.7665 C   0  0  0  0  0  0  0  0  0  0  0  0
  123.7359  100.3835  127.3810 C   0  0  0  0  0  0  0  0  0  0  0  0
  122.5810  100.0706  126.6671 C   0  0  0  0  0  0  0  0  0  0  0  0
  121.3939  101.4504  126.1545 Br  0  0  0  0  0  0  0  0  0  0  0  0
  122.2909   98.7485  126.3292 C   0  0  0  0  0  0  0  0  0  0  0  0
  1  2  1  0  0  0
  2  3  2  0  0  0
  3 14  1  0  0  0
 14 15  1  0  0  0
 15 16  2  0  0  0
 15 17  1  0  0  0
  3  4  1  0  0  0
  4  5  2  0  0  0
  4  6  1  0  0  0
  6  7  1  0  0  0
  7  8  2  0  0  0
  8  9  1  0  0  0
  8 10  1  0  0  0
 10 19  1  0  0  0
 19 20  1  0  0  0
 20 21  1  0  0  0
 21 22  2  0  0  0
 22 23  1  0  0  0
 23 24  2  0  0  0
 24 25  1  0  0  0
 25 26  1  0  0  0
 25 27  2  0  0  0
 10 11  2  0  0  0
 11 12  1  0  0  0
 12 13  2  0  0  0
 13  2  1  0  0  0
 13  7  1  0  0  0
 27 21  1  0  0  0
 17 18  1  0  0  0
M  END
> <minimizedAffinity>
-9.49679

$$$$
