L3:P40879:145984
     RDKit          3D

 40 42  0  0  0  0  0  0  0  0999 V2000
   -2.7311    2.2287   -0.6599 C   0  0  0  0  0  0  0  0  0  0  0  0
   -2.6794    0.7677   -0.2904 C   0  0  0  0  0  0  0  0  0  0  0  0
   -3.7491   -0.0575   -0.3242 C   0  0  0  0  0  0  0  0  0  0  0  0
   -5.1406    0.3137   -0.7852 C   0  0  0  0  0  0  0  0  0  0  0  0
   -6.0473    0.5243    0.4061 C   0  0  0  0  0  0  0  0  0  0  0  0
   -5.7180    0.7414    1.5608 O   0  0  0  0  0  0  0  0  0  0  0  0
   -7.3509    0.5166    0.0591 O   0  0  0  0  0  0  0  0  0  0  0  0
   -3.6572   -1.4786    0.1166 C   0  0  0  0  0  0  0  0  0  0  0  0
   -4.6351   -2.2192    0.0882 O   0  0  0  0  0  0  0  0  0  0  0  0
   -2.4285   -1.9340    0.5498 O   0  0  0  0  0  0  0  0  0  0  0  0
   -1.3009   -1.1000    0.5631 C   0  0  0  0  0  0  0  0  0  0  0  0
   -0.1012   -1.6681    0.9965 C   0  0  0  0  0  0  0  0  0  0  0  0
   -0.0800   -2.9567    1.3745 F   0  0  0  0  0  0  0  0  0  0  0  0
    1.0713   -0.9137    1.0435 C   0  0  0  0  0  0  0  0  0  0  0  0
    2.1882   -1.5763    1.4704 O   0  0  0  0  0  0  0  0  0  0  0  0
    3.3562   -0.8209    1.7978 C   0  0  0  0  0  0  0  0  0  0  0  0
    4.2358   -0.5324    0.6013 C   0  0  0  0  0  0  0  0  0  0  0  0
    5.0319    0.6235    0.5820 C   0  0  0  0  0  0  0  0  0  0  0  0
    5.8680    0.8934   -0.5035 C   0  0  0  0  0  0  0  0  0  0  0  0
    5.9268    0.0065   -1.5776 C   0  0  0  0  0  0  0  0  0  0  0  0
    5.1527   -1.1515   -1.5580 C   0  0  0  0  0  0  0  0  0  0  0  0
    5.2389   -2.3599   -3.0095 Br  0  0  0  0  0  0  0  0  0  0  0  0
    4.3167   -1.4280   -0.4761 C   0  0  0  0  0  0  0  0  0  0  0  0
    1.0179    0.4162    0.6311 C   0  0  0  0  0  0  0  0  0  0  0  0
   -0.1938    0.9782    0.1943 C   0  0  0  0  0  0  0  0  0  0  0  0
   -1.3792    0.2280    0.1581 C   0  0  0  0  0  0  0  0  0  0  0  0
   -2.1398    2.4175   -1.5623 H   0  0  0  0  0  0  0  0  0  0  0  0
   -2.3412    2.8480    0.1559 H   0  0  0  0  0  0  0  0  0  0  0  0
   -3.7407    2.5981   -0.8504 H   0  0  0  0  0  0  0  0  0  0  0  0
   -5.1582    1.2206   -1.3942 H   0  0  0  0  0  0  0  0  0  0  0  0
   -5.5529   -0.4838   -1.4149 H   0  0  0  0  0  0  0  0  0  0  0  0
   -7.8244    0.6345    0.9096 H   0  0  0  0  0  0  0  0  0  0  0  0
    3.0900    0.0927    2.3443 H   0  0  0  0  0  0  0  0  0  0  0  0
    3.9409   -1.4343    2.4939 H   0  0  0  0  0  0  0  0  0  0  0  0
    5.0073    1.3234    1.4152 H   0  0  0  0  0  0  0  0  0  0  0  0
    6.4779    1.7936   -0.5101 H   0  0  0  0  0  0  0  0  0  0  0  0
    6.5805    0.2224   -2.4183 H   0  0  0  0  0  0  0  0  0  0  0  0
    3.7227   -2.3401   -0.4690 H   0  0  0  0  0  0  0  0  0  0  0  0
    1.9008    1.0474    0.6161 H   0  0  0  0  0  0  0  0  0  0  0  0
   -0.1751    2.0183   -0.1235 H   0  0  0  0  0  0  0  0  0  0  0  0
  1  2  1  0
  2  3  2  0
  3  4  1  0
  4  5  1  0
  5  6  2  0
  5  7  1  0
  3  8  1  0
  8  9  2  0
  8 10  1  0
 10 11  1  0
 11 12  2  0
 12 13  1  0
 12 14  1  0
 14 15  1  0
 15 16  1  0
 16 17  1  0
 17 18  2  0
 18 19  1  0
 19 20  2  0
 20 21  1  0
 21 22  1  0
 21 23  2  0
 14 24  2  0
 24 25  1  0
 25 26  2  0
 26  2  1  0
 26 11  1  0
 23 17  1  0
  1 27  1  0
  1 28  1  0
  1 29  1  0
  4 30  1  0
  4 31  1  0
  7 32  1  0
 16 33  1  0
 16 34  1  0
 18 35  1  0
 19 36  1  0
 20 37  1  0
 23 38  1  0
 24 39  1  0
 25 40  1  0
M  END
>  <mol_id>  (1) 
145984

>  <source_index>  (1) 
9

>  <layer>  (1) 
L3

>  <uniprot>  (1) 
P40879

>  <paff>  (1) 
7.1078999999999999

>  <smiles>  (1) 
Cc1c(CC(=O)O)c(=O)oc2c(F)c(OCc3cccc(Br)c3)ccc12

$$$$
