L3:P40879:145984
 OpenBabel09212617453D

 40 42  0  0  0  0  0  0  0  0999 V2000
  122.4660   92.2045  120.4051 C   0  0  0  0  0  0  0  0  0  0  0  0
  123.4610   91.9032  121.4973 C   0  0  0  0  0  0  0  0  0  0  0  0
  124.2036   90.7754  121.5513 C   0  0  0  0  0  0  0  0  0  0  0  0
  125.1239   90.4966  122.6905 C   0  0  0  0  0  0  0  0  0  0  0  0
  125.7901   89.4670  122.7344 O   0  0  0  0  0  0  0  0  0  0  0  0
  125.2063   91.4439  123.6907 O   0  0  0  0  0  0  0  0  0  0  0  0
  124.4657   92.6338  123.6359 C   0  0  0  0  0  0  0  0  0  0  0  0
  124.6421   93.5355  124.6874 C   0  0  0  0  0  0  0  0  0  0  0  0
  125.4913   93.2310  125.6823 F   0  0  0  0  0  0  0  0  0  0  0  0
  123.9463   94.7443  124.7170 C   0  0  0  0  0  0  0  0  0  0  0  0
  123.0837   95.0358  123.6622 C   0  0  0  0  0  0  0  0  0  0  0  0
  122.9147   94.1228  122.6074 C   0  0  0  0  0  0  0  0  0  0  0  0
  123.6014   92.8993  122.5794 C   0  0  0  0  0  0  0  0  0  0  0  0
  124.2129   89.6700  120.5196 C   0  0  0  0  0  0  0  0  0  0  0  0
  123.0993   88.6859  120.7975 C   0  0  0  0  0  0  0  0  0  0  0  0
  122.2468   88.7556  121.6677 O   0  0  0  0  0  0  0  0  0  0  0  0
  123.0782   87.6774  119.9018 O   0  0  0  0  0  0  0  0  0  0  0  0
  122.3408   87.1061  120.2039 H   0  0  0  0  0  0  0  0  0  0  0  0
  124.2076   95.5550  125.7862 O   0  0  0  0  0  0  0  0  0  0  0  0
  123.1186   96.2145  126.4350 C   0  0  0  0  0  0  0  0  0  0  0  0
  123.3710   97.6861  126.6784 C   0  0  0  0  0  0  0  0  0  0  0  0
  124.0693   98.0948  127.8254 C   0  0  0  0  0  0  0  0  0  0  0  0
  124.3323   99.4471  128.0540 C   0  0  0  0  0  0  0  0  0  0  0  0
  123.9104  100.4062  127.1343 C   0  0  0  0  0  0  0  0  0  0  0  0
  123.2319  100.0070  125.9850 C   0  0  0  0  0  0  0  0  0  0  0  0
  122.6678  101.3057  124.7322 Br  0  0  0  0  0  0  0  0  0  0  0  0
  122.9674   98.6577  125.7497 C   0  0  0  0  0  0  0  0  0  0  0  0
  122.4662   91.4065  119.6923 H   0  0  0  0  0  0  0  0  0  0  0  0
  122.7368   93.1179  119.9179 H   0  0  0  0  0  0  0  0  0  0  0  0
  121.4889   92.3030  120.8300 H   0  0  0  0  0  0  0  0  0  0  0  0
  122.5655   95.9282  123.6556 H   0  0  0  0  0  0  0  0  0  0  0  0
  122.2709   94.3574  121.8357 H   0  0  0  0  0  0  0  0  0  0  0  0
  125.1527   89.1598  120.5569 H   0  0  0  0  0  0  0  0  0  0  0  0
  124.0669   90.0971  119.5495 H   0  0  0  0  0  0  0  0  0  0  0  0
  122.9463   95.7388  127.3778 H   0  0  0  0  0  0  0  0  0  0  0  0
  122.2710   96.1410  125.7861 H   0  0  0  0  0  0  0  0  0  0  0  0
  124.3914   97.3893  128.5062 H   0  0  0  0  0  0  0  0  0  0  0  0
  124.8396   99.7369  128.9047 H   0  0  0  0  0  0  0  0  0  0  0  0
  124.0997  101.4064  127.3040 H   0  0  0  0  0  0  0  0  0  0  0  0
  122.4732   98.3730  124.8896 H   0  0  0  0  0  0  0  0  0  0  0  0
  1  2  1  0  0  0  0
  1 28  1  0  0  0  0
  1 29  1  0  0  0  0
  1 30  1  0  0  0  0
  2  3  2  0  0  0  0
  3 14  1  0  0  0  0
  3  4  1  0  0  0  0
  4  5  2  0  0  0  0
  4  6  1  0  0  0  0
  6  7  1  0  0  0  0
  7  8  2  0  0  0  0
  8  9  1  0  0  0  0
  8 10  1  0  0  0  0
 10 19  1  0  0  0  0
 10 11  2  0  0  0  0
 11 12  1  0  0  0  0
 11 31  1  0  0  0  0
 12 13  2  0  0  0  0
 12 32  1  0  0  0  0
 13  2  1  0  0  0  0
 13  7  1  0  0  0  0
 14 15  1  0  0  0  0
 14 33  1  0  0  0  0
 14 34  1  0  0  0  0
 15 16  2  0  0  0  0
 15 17  1  0  0  0  0
 17 18  1  0  0  0  0
 19 20  1  0  0  0  0
 20 21  1  0  0  0  0
 20 35  1  0  0  0  0
 20 36  1  0  0  0  0
 21 22  2  0  0  0  0
 22 23  1  0  0  0  0
 22 37  1  0  0  0  0
 23 24  2  0  0  0  0
 23 38  1  0  0  0  0
 24 25  1  0  0  0  0
 24 39  1  0  0  0  0
 25 26  1  0  0  0  0
 25 27  2  0  0  0  0
 27 21  1  0  0  0  0
 27 40  1  0  0  0  0
M  END
>  <minimizedAffinity>
-9.40868

$$$$
