L3:P40879:14931
     RDKit          3D

 43 45  0  0  0  0  0  0  0  0999 V2000
   -4.1280    2.1475   -1.1894 C   0  0  0  0  0  0  0  0  0  0  0  0
   -3.7217    0.7222   -0.9118 C   0  0  0  0  0  0  0  0  0  0  0  0
   -4.5737   -0.3262   -0.9508 C   0  0  0  0  0  0  0  0  0  0  0  0
   -6.0365   -0.2662   -1.3294 C   0  0  0  0  0  0  0  0  0  0  0  0
   -6.9002   -0.3307   -0.0902 C   0  0  0  0  0  0  0  0  0  0  0  0
   -6.5656   -0.1014    1.0605 O   0  0  0  0  0  0  0  0  0  0  0  0
   -8.1846   -0.6224   -0.3816 O   0  0  0  0  0  0  0  0  0  0  0  0
   -4.1343   -1.7071   -0.6010 C   0  0  0  0  0  0  0  0  0  0  0  0
   -4.9154   -2.6527   -0.6355 O   0  0  0  0  0  0  0  0  0  0  0  0
   -2.8125   -1.8849   -0.2458 O   0  0  0  0  0  0  0  0  0  0  0  0
   -1.9074   -0.8137   -0.2289 C   0  0  0  0  0  0  0  0  0  0  0  0
   -0.5882   -1.1082    0.1218 C   0  0  0  0  0  0  0  0  0  0  0  0
   -0.2526   -2.3725    0.4255 F   0  0  0  0  0  0  0  0  0  0  0  0
    0.3810   -0.1056    0.1617 C   0  0  0  0  0  0  0  0  0  0  0  0
    1.6393   -0.5069    0.5138 O   0  0  0  0  0  0  0  0  0  0  0  0
    2.6318    0.5034    0.6866 C   0  0  0  0  0  0  0  0  0  0  0  0
    3.9191   -0.1244    1.1742 C   0  0  0  0  0  0  0  0  0  0  0  0
    3.9057   -1.1311    2.1499 C   0  0  0  0  0  0  0  0  0  0  0  0
    5.0970   -1.6849    2.6187 C   0  0  0  0  0  0  0  0  0  0  0  0
    6.3201   -1.2303    2.1278 C   0  0  0  0  0  0  0  0  0  0  0  0
    6.3644   -0.2090    1.1681 C   0  0  0  0  0  0  0  0  0  0  0  0
    7.6857    0.2734    0.6223 C   0  0  0  0  0  0  0  0  0  0  0  0
    8.0702   -0.4116   -0.4895 F   0  0  0  0  0  0  0  0  0  0  0  0
    8.7114    0.1528    1.5109 F   0  0  0  0  0  0  0  0  0  0  0  0
    7.6631    1.5878    0.2610 F   0  0  0  0  0  0  0  0  0  0  0  0
    5.1567    0.3347    0.6961 C   0  0  0  0  0  0  0  0  0  0  0  0
    0.0015    1.1958   -0.1634 C   0  0  0  0  0  0  0  0  0  0  0  0
   -1.3287    1.4811   -0.5160 C   0  0  0  0  0  0  0  0  0  0  0  0
   -2.3099    0.4780   -0.5509 C   0  0  0  0  0  0  0  0  0  0  0  0
   -5.2041    2.2807   -1.3176 H   0  0  0  0  0  0  0  0  0  0  0  0
   -3.8492    2.7990   -0.3533 H   0  0  0  0  0  0  0  0  0  0  0  0
   -3.6440    2.5139   -2.1012 H   0  0  0  0  0  0  0  0  0  0  0  0
   -6.2954    0.6406   -1.8811 H   0  0  0  0  0  0  0  0  0  0  0  0
   -6.2889   -1.1058   -1.9883 H   0  0  0  0  0  0  0  0  0  0  0  0
   -8.6252   -0.6596    0.4936 H   0  0  0  0  0  0  0  0  0  0  0  0
    2.3097    1.2394    1.4337 H   0  0  0  0  0  0  0  0  0  0  0  0
    2.8110    0.9993   -0.2751 H   0  0  0  0  0  0  0  0  0  0  0  0
    2.9591   -1.4990    2.5435 H   0  0  0  0  0  0  0  0  0  0  0  0
    5.0689   -2.4746    3.3659 H   0  0  0  0  0  0  0  0  0  0  0  0
    7.2418   -1.6754    2.4997 H   0  0  0  0  0  0  0  0  0  0  0  0
    5.1875    1.1240   -0.0549 H   0  0  0  0  0  0  0  0  0  0  0  0
    0.7105    2.0180   -0.1599 H   0  0  0  0  0  0  0  0  0  0  0  0
   -1.5693    2.5125   -0.7645 H   0  0  0  0  0  0  0  0  0  0  0  0
  1  2  1  0
  2  3  2  0
  3  4  1  0
  4  5  1  0
  5  6  2  0
  5  7  1  0
  3  8  1  0
  8  9  2  0
  8 10  1  0
 10 11  1  0
 11 12  2  0
 12 13  1  0
 12 14  1  0
 14 15  1  0
 15 16  1  0
 16 17  1  0
 17 18  2  0
 18 19  1  0
 19 20  2  0
 20 21  1  0
 21 22  1  0
 22 23  1  0
 22 24  1  0
 22 25  1  0
 21 26  2  0
 14 27  2  0
 27 28  1  0
 28 29  2  0
 29  2  1  0
 29 11  1  0
 26 17  1  0
  1 30  1  0
  1 31  1  0
  1 32  1  0
  4 33  1  0
  4 34  1  0
  7 35  1  0
 16 36  1  0
 16 37  1  0
 18 38  1  0
 19 39  1  0
 20 40  1  0
 26 41  1  0
 27 42  1  0
 28 43  1  0
M  END
>  <mol_id>  (1) 
14931

>  <source_index>  (1) 
0

>  <layer>  (1) 
L3

>  <uniprot>  (1) 
P40879

>  <paff>  (1) 
7.0605000000000002

>  <smiles>  (1) 
Cc1c(CC(=O)O)c(=O)oc2c(F)c(OCc3cccc(C(F)(F)F)c3)ccc12

$$$$
