L3:P40879:35122


 29 31  0  0  0  0  0  0  0  0999 V2000
  122.4105   92.1564  120.3753 C   0  0  0  0  0  0  0  0  0  0  0  0
  123.4253   91.8835  121.4570 C   0  0  0  0  0  0  0  0  0  0  0  0
  124.2112   90.7851  121.4902 C   0  0  0  0  0  0  0  0  0  0  0  0
  125.2458   90.5990  122.5438 C   0  0  0  0  0  0  0  0  0  0  0  0
  125.9485   89.5936  122.5815 O   0  0  0  0  0  0  0  0  0  0  0  0
  125.3802   91.5987  123.4857 O   0  0  0  0  0  0  0  0  0  0  0  0
  124.5544   92.7393  123.4969 C   0  0  0  0  0  0  0  0  0  0  0  0
  124.7692   93.6709  124.5322 C   0  0  0  0  0  0  0  0  0  0  0  0
  125.8390   93.4343  125.5648 C   0  0  0  0  0  0  0  0  0  0  0  0
  123.9196   94.7841  124.6169 C   0  0  0  0  0  0  0  0  0  0  0  0
  122.9375   94.9730  123.6434 C   0  0  0  0  0  0  0  0  0  0  0  0
  122.7662   94.0425  122.6101 C   0  0  0  0  0  0  0  0  0  0  0  0
  123.5713   92.9010  122.5205 C   0  0  0  0  0  0  0  0  0  0  0  0
  124.1689   89.6325  120.5131 C   0  0  0  0  0  0  0  0  0  0  0  0
  123.0814   88.6551  120.8976 C   0  0  0  0  0  0  0  0  0  0  0  0
  122.3773   88.6785  121.8935 O   0  0  0  0  0  0  0  0  0  0  0  0
  122.9795   87.6383  120.0164 O   0  0  0  0  0  0  0  0  0  0  0  0
  122.2374   87.0994  120.3635 H   0  0  0  0  0  0  0  0  0  0  0  0
  124.1500   95.6515  125.6517 O   0  0  0  0  0  0  0  0  0  0  0  0
  123.0165   96.1961  126.3337 C   0  0  0  0  0  0  0  0  0  0  0  0
  123.1722   97.6594  126.6889 C   0  0  0  0  0  0  0  0  0  0  0  0
  124.2937   98.0754  127.4207 C   0  0  0  0  0  0  0  0  0  0  0  0
  124.4747   99.4211  127.7403 C   0  0  0  0  0  0  0  0  0  0  0  0
  123.5414  100.3698  127.3248 C   0  0  0  0  0  0  0  0  0  0  0  0
  122.4158   99.9819  126.5863 C   0  0  0  0  0  0  0  0  0  0  0  0
  122.2476   98.6259  126.2632 C   0  0  0  0  0  0  0  0  0  0  0  0
  121.4238  101.0078  126.1017 C   0  0  0  0  0  0  0  0  0  0  0  0
  121.2044  102.0058  127.0027 F   0  0  0  0  0  0  0  0  0  0  0  0
  121.8131  101.6294  124.9522 F   0  0  0  0  0  0  0  0  0  0  0  0
  1  2  1  0  0  0
  2  3  2  0  0  0
  3 14  1  0  0  0
 14 15  1  0  0  0
 15 16  2  0  0  0
 15 17  1  0  0  0
  3  4  1  0  0  0
  4  5  2  0  0  0
  4  6  1  0  0  0
  6  7  1  0  0  0
  7  8  2  0  0  0
  8  9  1  0  0  0
  8 10  1  0  0  0
 10 19  1  0  0  0
 19 20  1  0  0  0
 20 21  1  0  0  0
 21 22  2  0  0  0
 22 23  1  0  0  0
 23 24  2  0  0  0
 24 25  1  0  0  0
 25 27  1  0  0  0
 27 28  1  0  0  0
 27 29  1  0  0  0
 25 26  2  0  0  0
 10 11  2  0  0  0
 11 12  1  0  0  0
 12 13  2  0  0  0
 13  2  1  0  0  0
 13  7  1  0  0  0
 26 21  1  0  0  0
 17 18  1  0  0  0
M  END
> <minimizedAffinity>
-10.14824

$$$$
