L3:P40879:35122
     RDKit          3D

 46 48  0  0  0  0  0  0  0  0999 V2000
    3.5434    0.1929   -2.0629 C   0  0  0  0  0  0  0  0  0  0  0  0
    3.2868   -0.0100   -0.5907 C   0  0  0  0  0  0  0  0  0  0  0  0
    4.2399    0.1007    0.3604 C   0  0  0  0  0  0  0  0  0  0  0  0
    5.7071    0.3741    0.1204 C   0  0  0  0  0  0  0  0  0  0  0  0
    6.0358    1.8129    0.4486 C   0  0  0  0  0  0  0  0  0  0  0  0
    5.2599    2.7481    0.5560 O   0  0  0  0  0  0  0  0  0  0  0  0
    7.3649    2.0152    0.5640 O   0  0  0  0  0  0  0  0  0  0  0  0
    3.9176   -0.0412    1.8064 C   0  0  0  0  0  0  0  0  0  0  0  0
    4.7871    0.0444    2.6683 O   0  0  0  0  0  0  0  0  0  0  0  0
    2.6011   -0.2824    2.1431 O   0  0  0  0  0  0  0  0  0  0  0  0
    1.5913   -0.4353    1.1736 C   0  0  0  0  0  0  0  0  0  0  0  0
    0.2927   -0.7133    1.6450 C   0  0  0  0  0  0  0  0  0  0  0  0
    0.0243   -0.8350    3.1214 C   0  0  0  0  0  0  0  0  0  0  0  0
   -0.7246   -0.9418    0.7064 C   0  0  0  0  0  0  0  0  0  0  0  0
   -1.9658   -1.2309    1.2086 O   0  0  0  0  0  0  0  0  0  0  0  0
   -2.8625   -1.9827    0.3856 C   0  0  0  0  0  0  0  0  0  0  0  0
   -3.8054   -1.1188   -0.4246 C   0  0  0  0  0  0  0  0  0  0  0  0
   -4.4185   -1.6522   -1.5674 C   0  0  0  0  0  0  0  0  0  0  0  0
   -5.3105   -0.8865   -2.3183 C   0  0  0  0  0  0  0  0  0  0  0  0
   -5.6081    0.4194   -1.9315 C   0  0  0  0  0  0  0  0  0  0  0  0
   -5.0150    0.9740   -0.7899 C   0  0  0  0  0  0  0  0  0  0  0  0
   -5.3623    2.3716   -0.3454 C   0  0  0  0  0  0  0  0  0  0  0  0
   -4.3054    3.0370    0.1988 F   0  0  0  0  0  0  0  0  0  0  0  0
   -5.8104    3.1621   -1.3620 F   0  0  0  0  0  0  0  0  0  0  0  0
   -4.1248    0.1918   -0.0368 C   0  0  0  0  0  0  0  0  0  0  0  0
   -0.4415   -0.8217   -0.6550 C   0  0  0  0  0  0  0  0  0  0  0  0
    0.8543   -0.5171   -1.0919 C   0  0  0  0  0  0  0  0  0  0  0  0
    1.9002   -0.3228   -0.1821 C   0  0  0  0  0  0  0  0  0  0  0  0
    3.4108   -0.7472   -2.6091 H   0  0  0  0  0  0  0  0  0  0  0  0
    2.8592    0.9432   -2.4753 H   0  0  0  0  0  0  0  0  0  0  0  0
    4.5470    0.5598   -2.2874 H   0  0  0  0  0  0  0  0  0  0  0  0
    6.3184   -0.2855    0.7482 H   0  0  0  0  0  0  0  0  0  0  0  0
    6.0123    0.1799   -0.9105 H   0  0  0  0  0  0  0  0  0  0  0  0
    7.4392    2.9651    0.7961 H   0  0  0  0  0  0  0  0  0  0  0  0
    0.1805   -1.8691    3.4436 H   0  0  0  0  0  0  0  0  0  0  0  0
   -0.9994   -0.5368    3.3703 H   0  0  0  0  0  0  0  0  0  0  0  0
    0.6796   -0.1794    3.7040 H   0  0  0  0  0  0  0  0  0  0  0  0
   -3.4759   -2.5843    1.0672 H   0  0  0  0  0  0  0  0  0  0  0  0
   -2.3179   -2.6938   -0.2490 H   0  0  0  0  0  0  0  0  0  0  0  0
   -4.2037   -2.6716   -1.8821 H   0  0  0  0  0  0  0  0  0  0  0  0
   -5.7761   -1.3085   -3.2057 H   0  0  0  0  0  0  0  0  0  0  0  0
   -6.3045    1.0074   -2.5272 H   0  0  0  0  0  0  0  0  0  0  0  0
   -6.1530    2.3274    0.4101 H   0  0  0  0  0  0  0  0  0  0  0  0
   -3.6671    0.6174    0.8568 H   0  0  0  0  0  0  0  0  0  0  0  0
   -1.2145   -0.9388   -1.4085 H   0  0  0  0  0  0  0  0  0  0  0  0
    1.0131   -0.4376   -2.1641 H   0  0  0  0  0  0  0  0  0  0  0  0
  1  2  1  0
  2  3  2  0
  3  4  1  0
  4  5  1  0
  5  6  2  0
  5  7  1  0
  3  8  1  0
  8  9  2  0
  8 10  1  0
 10 11  1  0
 11 12  2  0
 12 13  1  0
 12 14  1  0
 14 15  1  0
 15 16  1  0
 16 17  1  0
 17 18  2  0
 18 19  1  0
 19 20  2  0
 20 21  1  0
 21 22  1  0
 22 23  1  0
 22 24  1  0
 21 25  2  0
 14 26  2  0
 26 27  1  0
 27 28  2  0
 28  2  1  0
 28 11  1  0
 25 17  1  0
  1 29  1  0
  1 30  1  0
  1 31  1  0
  4 32  1  0
  4 33  1  0
  7 34  1  0
 13 35  1  0
 13 36  1  0
 13 37  1  0
 16 38  1  0
 16 39  1  0
 18 40  1  0
 19 41  1  0
 20 42  1  0
 22 43  1  0
 25 44  1  0
 26 45  1  0
 27 46  1  0
M  END
>  <mol_id>  (1) 
35122

>  <source_index>  (1) 
1

>  <layer>  (1) 
L3

>  <uniprot>  (1) 
P40879

>  <paff>  (1) 
6.4949000000000003

>  <smiles>  (1) 
Cc1c(CC(=O)O)c(=O)oc2c(C)c(OCc3cccc(C(F)F)c3)ccc12

$$$$
