L3:P40879:53728


 29 31  0  0  0  0  0  0  0  0999 V2000
  122.4146   92.4693  120.4588 C   0  0  0  0  0  0  0  0  0  0  0  0
  123.3852   92.1627  121.5720 C   0  0  0  0  0  0  0  0  0  0  0  0
  124.1430   91.0451  121.6193 C   0  0  0  0  0  0  0  0  0  0  0  0
  125.1384   90.8221  122.7036 C   0  0  0  0  0  0  0  0  0  0  0  0
  125.8255   89.8067  122.7427 O   0  0  0  0  0  0  0  0  0  0  0  0
  125.2512   91.8006  123.6695 O   0  0  0  0  0  0  0  0  0  0  0  0
  124.4531   92.9603  123.6658 C   0  0  0  0  0  0  0  0  0  0  0  0
  124.6309   93.8786  124.7138 C   0  0  0  0  0  0  0  0  0  0  0  0
  125.8117   93.5637  125.9459 Cl  0  0  0  0  0  0  0  0  0  0  0  0
  123.8573   95.0476  124.7599 C   0  0  0  0  0  0  0  0  0  0  0  0
  122.9134   95.2640  123.7548 C   0  0  0  0  0  0  0  0  0  0  0  0
  122.7499   94.3352  122.7159 C   0  0  0  0  0  0  0  0  0  0  0  0
  123.5215   93.1665  122.6497 C   0  0  0  0  0  0  0  0  0  0  0  0
  124.1087   89.9056  120.6256 C   0  0  0  0  0  0  0  0  0  0  0  0
  123.2073   88.8009  121.1280 C   0  0  0  0  0  0  0  0  0  0  0  0
  121.9945   88.8340  121.2577 O   0  0  0  0  0  0  0  0  0  0  0  0
  123.9047   87.7118  121.5115 O   0  0  0  0  0  0  0  0  0  0  0  0
  123.2147   87.0715  121.7865 H   0  0  0  0  0  0  0  0  0  0  0  0
  124.0769   95.8954  125.8123 O   0  0  0  0  0  0  0  0  0  0  0  0
  122.9441   96.4124  126.5085 C   0  0  0  0  0  0  0  0  0  0  0  0
  123.1724   97.8794  126.7895 C   0  0  0  0  0  0  0  0  0  0  0  0
  124.2937   98.3019  127.5154 C   0  0  0  0  0  0  0  0  0  0  0  0
  124.4890   99.6555  127.7924 C   0  0  0  0  0  0  0  0  0  0  0  0
  123.5632  100.6016  127.3528 C   0  0  0  0  0  0  0  0  0  0  0  0
  122.4261  100.2030  126.6386 C   0  0  0  0  0  0  0  0  0  0  0  0
  122.2414   98.8396  126.3615 C   0  0  0  0  0  0  0  0  0  0  0  0
  121.4374  101.2201  126.1306 C   0  0  0  0  0  0  0  0  0  0  0  0
  121.3897  102.3440  126.9002 F   0  0  0  0  0  0  0  0  0  0  0  0
  121.7140  101.6532  124.8673 F   0  0  0  0  0  0  0  0  0  0  0  0
  1  2  1  0  0  0
  2  3  2  0  0  0
  3 14  1  0  0  0
 14 15  1  0  0  0
 15 16  2  0  0  0
 15 17  1  0  0  0
  3  4  1  0  0  0
  4  5  2  0  0  0
  4  6  1  0  0  0
  6  7  1  0  0  0
  7  8  2  0  0  0
  8  9  1  0  0  0
  8 10  1  0  0  0
 10 19  1  0  0  0
 19 20  1  0  0  0
 20 21  1  0  0  0
 21 22  2  0  0  0
 22 23  1  0  0  0
 23 24  2  0  0  0
 24 25  1  0  0  0
 25 27  1  0  0  0
 27 28  1  0  0  0
 27 29  1  0  0  0
 25 26  2  0  0  0
 10 11  2  0  0  0
 11 12  1  0  0  0
 12 13  2  0  0  0
 13  2  1  0  0  0
 13  7  1  0  0  0
 26 21  1  0  0  0
 17 18  1  0  0  0
M  END
> <minimizedAffinity>
-9.73912

$$$$
