L3:P40879:53728
     RDKit          3D

 43 45  0  0  0  0  0  0  0  0999 V2000
   -4.6921   -0.5887    1.2855 C   0  0  0  0  0  0  0  0  0  0  0  0
   -3.8382   -0.5104    0.0445 C   0  0  0  0  0  0  0  0  0  0  0  0
   -4.3404   -0.4177   -1.2064 C   0  0  0  0  0  0  0  0  0  0  0  0
   -5.8058   -0.4385   -1.5794 C   0  0  0  0  0  0  0  0  0  0  0  0
   -6.2876    0.9618   -1.8837 C   0  0  0  0  0  0  0  0  0  0  0  0
   -5.7629    2.0142   -1.5584 O   0  0  0  0  0  0  0  0  0  0  0  0
   -7.4664    0.9615   -2.5394 O   0  0  0  0  0  0  0  0  0  0  0  0
   -3.4550   -0.2713   -2.3942 C   0  0  0  0  0  0  0  0  0  0  0  0
   -3.9145   -0.1864   -3.5284 O   0  0  0  0  0  0  0  0  0  0  0  0
   -2.0942   -0.2440   -2.1691 O   0  0  0  0  0  0  0  0  0  0  0  0
   -1.5396   -0.3711   -0.8814 C   0  0  0  0  0  0  0  0  0  0  0  0
   -0.1394   -0.3587   -0.7695 C   0  0  0  0  0  0  0  0  0  0  0  0
    0.8384   -0.1798   -2.1920 Cl  0  0  0  0  0  0  0  0  0  0  0  0
    0.4640   -0.4872    0.4901 C   0  0  0  0  0  0  0  0  0  0  0  0
    1.8326   -0.4743    0.5263 O   0  0  0  0  0  0  0  0  0  0  0  0
    2.4723   -0.4185    1.8002 C   0  0  0  0  0  0  0  0  0  0  0  0
    3.9589   -0.2457    1.5921 C   0  0  0  0  0  0  0  0  0  0  0  0
    4.8752   -1.0528    2.2789 C   0  0  0  0  0  0  0  0  0  0  0  0
    6.2477   -0.8748    2.1012 C   0  0  0  0  0  0  0  0  0  0  0  0
    6.7204    0.1155    1.2403 C   0  0  0  0  0  0  0  0  0  0  0  0
    5.8249    0.9456    0.5540 C   0  0  0  0  0  0  0  0  0  0  0  0
    6.3246    1.9961   -0.4035 C   0  0  0  0  0  0  0  0  0  0  0  0
    5.5816    3.1383   -0.3729 F   0  0  0  0  0  0  0  0  0  0  0  0
    7.6066    2.3866   -0.1507 F   0  0  0  0  0  0  0  0  0  0  0  0
    4.4464    0.7554    0.7364 C   0  0  0  0  0  0  0  0  0  0  0  0
   -0.3545   -0.6352    1.6109 C   0  0  0  0  0  0  0  0  0  0  0  0
   -1.7514   -0.6453    1.4794 C   0  0  0  0  0  0  0  0  0  0  0  0
   -2.3707   -0.5085    0.2291 C   0  0  0  0  0  0  0  0  0  0  0  0
   -4.5752   -1.5636    1.7710 H   0  0  0  0  0  0  0  0  0  0  0  0
   -4.4146    0.1979    1.9964 H   0  0  0  0  0  0  0  0  0  0  0  0
   -5.7579   -0.4470    1.0956 H   0  0  0  0  0  0  0  0  0  0  0  0
   -5.9602   -1.0719   -2.4613 H   0  0  0  0  0  0  0  0  0  0  0  0
   -6.4383   -0.8558   -0.7923 H   0  0  0  0  0  0  0  0  0  0  0  0
   -7.6518    1.9115   -2.6969 H   0  0  0  0  0  0  0  0  0  0  0  0
    2.1075    0.4348    2.3854 H   0  0  0  0  0  0  0  0  0  0  0  0
    2.2798   -1.3514    2.3433 H   0  0  0  0  0  0  0  0  0  0  0  0
    4.5284   -1.8308    2.9555 H   0  0  0  0  0  0  0  0  0  0  0  0
    6.9513   -1.5097    2.6344 H   0  0  0  0  0  0  0  0  0  0  0  0
    7.7939    0.2425    1.1105 H   0  0  0  0  0  0  0  0  0  0  0  0
    6.2945    1.6046   -1.4251 H   0  0  0  0  0  0  0  0  0  0  0  0
    3.7421    1.3931    0.2011 H   0  0  0  0  0  0  0  0  0  0  0  0
    0.0562   -0.7527    2.6092 H   0  0  0  0  0  0  0  0  0  0  0  0
   -2.3364   -0.7677    2.3884 H   0  0  0  0  0  0  0  0  0  0  0  0
  1  2  1  0
  2  3  2  0
  3  4  1  0
  4  5  1  0
  5  6  2  0
  5  7  1  0
  3  8  1  0
  8  9  2  0
  8 10  1  0
 10 11  1  0
 11 12  2  0
 12 13  1  0
 12 14  1  0
 14 15  1  0
 15 16  1  0
 16 17  1  0
 17 18  2  0
 18 19  1  0
 19 20  2  0
 20 21  1  0
 21 22  1  0
 22 23  1  0
 22 24  1  0
 21 25  2  0
 14 26  2  0
 26 27  1  0
 27 28  2  0
 28  2  1  0
 28 11  1  0
 25 17  1  0
  1 29  1  0
  1 30  1  0
  1 31  1  0
  4 32  1  0
  4 33  1  0
  7 34  1  0
 16 35  1  0
 16 36  1  0
 18 37  1  0
 19 38  1  0
 20 39  1  0
 22 40  1  0
 25 41  1  0
 26 42  1  0
 27 43  1  0
M  END
>  <mol_id>  (1) 
53728

>  <source_index>  (1) 
2

>  <layer>  (1) 
L3

>  <uniprot>  (1) 
P40879

>  <paff>  (1) 
6.6737000000000002

>  <smiles>  (1) 
Cc1c(CC(=O)O)c(=O)oc2c(Cl)c(OCc3cccc(C(F)F)c3)ccc12

$$$$
