L3:P40879:81480
 OpenBabel09212617443D

 46 48  0  0  0  0  0  0  0  0999 V2000
  124.2187   92.6305  122.1146 C   0  0  0  0  0  0  0  0  0  0  0  0
  123.7382   93.0253  123.4878 C   0  0  0  0  0  0  0  0  0  0  0  0
  123.8034   94.4134  123.7830 C   0  0  0  0  0  0  0  0  0  0  0  0
  123.3192   94.9321  124.9804 C   0  0  0  0  0  0  0  0  0  0  0  0
  122.7388   94.0629  125.8889 C   0  0  0  0  0  0  0  0  0  0  0  0
  122.6860   92.6946  125.6098 C   0  0  0  0  0  0  0  0  0  0  0  0
  122.0008   91.9345  126.5728 O   0  0  0  0  0  0  0  0  0  0  0  0
  121.6910   90.6133  126.3421 C   0  0  0  0  0  0  0  0  0  0  0  0
  120.8990   90.0070  127.0562 O   0  0  0  0  0  0  0  0  0  0  0  0
  122.4121   89.9417  125.2315 C   0  0  0  0  0  0  0  0  0  0  0  0
  123.1848   90.6354  124.3641 C   0  0  0  0  0  0  0  0  0  0  0  0
  124.0870   89.9239  123.3905 C   0  0  0  0  0  0  0  0  0  0  0  0
  123.2210   92.1217  124.4485 C   0  0  0  0  0  0  0  0  0  0  0  0
  123.3273   96.2427  125.3612 O   0  0  0  0  0  0  0  0  0  0  0  0
  122.8841   96.5438  126.6822 C   0  0  0  0  0  0  0  0  0  0  0  0
  123.0933   98.0193  126.9203 C   0  0  0  0  0  0  0  0  0  0  0  0
  124.2541   98.4878  127.5488 C   0  0  0  0  0  0  0  0  0  0  0  0
  124.4429   99.8543  127.7568 C   0  0  0  0  0  0  0  0  0  0  0  0
  123.4773  100.7672  127.3329 C   0  0  0  0  0  0  0  0  0  0  0  0
  122.3104  100.3229  126.6971 C   0  0  0  0  0  0  0  0  0  0  0  0
  122.1323   98.9466  126.4881 C   0  0  0  0  0  0  0  0  0  0  0  0
  121.2873  101.3084  126.1953 C   0  0  0  0  0  0  0  0  0  0  0  0
  121.1217  102.3750  127.0279 F   0  0  0  0  0  0  0  0  0  0  0  0
  121.6047  101.8379  124.9798 F   0  0  0  0  0  0  0  0  0  0  0  0
  122.2013   88.4436  125.2308 C   0  0  0  0  0  0  0  0  0  0  0  0
  123.2336   87.7620  126.1002 C   0  0  0  0  0  0  0  0  0  0  0  0
  124.3131   87.3092  125.7569 O   0  0  0  0  0  0  0  0  0  0  0  0
  122.8140   87.6295  127.3755 O   0  0  0  0  0  0  0  0  0  0  0  0
  123.5698   87.2017  127.8308 H   0  0  0  0  0  0  0  0  0  0  0  0
  124.5581   93.5002  121.5918 H   0  0  0  0  0  0  0  0  0  0  0  0
  123.4148   92.1790  121.5716 H   0  0  0  0  0  0  0  0  0  0  0  0
  125.0242   91.9321  122.2057 H   0  0  0  0  0  0  0  0  0  0  0  0
  124.2212   95.0547  123.0907 H   0  0  0  0  0  0  0  0  0  0  0  0
  122.3455   94.4254  126.7715 H   0  0  0  0  0  0  0  0  0  0  0  0
  123.9295   88.8681  123.4643 H   0  0  0  0  0  0  0  0  0  0  0  0
  125.1076   90.1491  123.6199 H   0  0  0  0  0  0  0  0  0  0  0  0
  123.8650   90.2489  122.3955 H   0  0  0  0  0  0  0  0  0  0  0  0
  123.4496   95.9777  127.3926 H   0  0  0  0  0  0  0  0  0  0  0  0
  121.8499   96.2927  126.7932 H   0  0  0  0  0  0  0  0  0  0  0  0
  124.9745   97.8176  127.8601 H   0  0  0  0  0  0  0  0  0  0  0  0
  125.2988  100.1904  128.2253 H   0  0  0  0  0  0  0  0  0  0  0  0
  123.6233  101.7769  127.4886 H   0  0  0  0  0  0  0  0  0  0  0  0
  121.2818   98.6112  126.0093 H   0  0  0  0  0  0  0  0  0  0  0  0
  120.3930  100.7238  126.1362 H   0  0  0  0  0  0  0  0  0  0  0  0
  122.2870   88.0766  124.2294 H   0  0  0  0  0  0  0  0  0  0  0  0
  121.2274   88.2315  125.6199 H   0  0  0  0  0  0  0  0  0  0  0  0
  1  2  1  0  0  0  0
  1 30  1  0  0  0  0
  1 31  1  0  0  0  0
  1 32  1  0  0  0  0
  2  3  2  0  0  0  0
  3  4  1  0  0  0  0
  3 33  1  0  0  0  0
  4 14  1  0  0  0  0
  4  5  2  0  0  0  0
  5  6  1  0  0  0  0
  5 34  1  0  0  0  0
  6  7  1  0  0  0  0
  7  8  1  0  0  0  0
  8  9  2  0  0  0  0
  8 10  1  0  0  0  0
 10 25  1  0  0  0  0
 10 11  2  0  0  0  0
 11 12  1  0  0  0  0
 11 13  1  0  0  0  0
 12 35  1  0  0  0  0
 12 36  1  0  0  0  0
 12 37  1  0  0  0  0
 13  2  1  0  0  0  0
 13  6  2  0  0  0  0
 14 15  1  0  0  0  0
 15 16  1  0  0  0  0
 15 38  1  0  0  0  0
 15 39  1  0  0  0  0
 16 17  2  0  0  0  0
 17 18  1  0  0  0  0
 17 40  1  0  0  0  0
 18 19  2  0  0  0  0
 18 41  1  0  0  0  0
 19 20  1  0  0  0  0
 19 42  1  0  0  0  0
 20 22  1  0  0  0  0
 20 21  2  0  0  0  0
 21 16  1  0  0  0  0
 21 43  1  0  0  0  0
 22 23  1  0  0  0  0
 22 24  1  0  0  0  0
 22 44  1  0  0  0  0
 25 26  1  0  0  0  0
 25 45  1  0  0  0  0
 25 46  1  0  0  0  0
 26 27  2  0  0  0  0
 26 28  1  0  0  0  0
 28 29  1  0  0  0  0
M  END
>  <minimizedAffinity>
-9.01234

$$$$
