L3:Q9NPC1:16466
     RDKit          3D

 48 47  0  0  0  0  0  0  0  0999 V2000
   16.1801   -2.6879    5.4534 C   0  0  0  0  0  0  0  0  0  0  0  0
   15.8553   -1.5176    6.0245 C   0  0  0  0  0  0  0  0  0  0  0  0
   16.3265   -2.8492    3.0173 C   0  0  0  0  0  0  0  0  0  0  0  0
   15.6741   -3.0989    4.1637 C   0  0  0  0  0  0  0  0  0  0  0  0
   15.9028   -3.2178    1.6209 C   0  0  1  0  0  0  0  0  0  0  0  0
   16.9910   -3.9332    1.0418 O   0  0  0  0  0  0  0  0  0  0  0  0
   17.1455   -4.7132    1.6021 H   0  0  0  0  0  0  0  0  0  0  0  0
   14.6187   -4.0511    1.4891 C   0  0  0  0  0  0  0  0  0  0  0  0
   13.3410   -3.2211    1.3001 C   0  0  0  0  0  0  0  0  0  0  0  0
   13.6124   -1.7606    0.9331 C   0  0  0  0  0  0  0  0  0  0  0  0
   12.3661   -1.4686    3.1047 C   0  0  0  0  0  0  0  0  0  0  0  0
   13.3274   -0.8314    2.1139 C   0  0  0  0  0  0  0  0  0  0  0  0
   16.3671   -1.0729    7.3638 C   0  0  0  0  0  0  0  0  0  0  0  0
   16.7340    0.3832    7.3508 C   0  0  0  0  0  0  0  0  0  0  0  0
   17.9654    0.9119    7.4467 C   0  0  0  0  0  0  0  0  0  0  0  0
   19.2645    0.1621    7.5270 C   0  0  0  0  0  0  0  0  0  0  0  0
   20.0344    0.1341    6.2019 C   0  0  0  0  0  0  0  0  0  0  0  0
   19.4819   -0.8362    5.1602 C   0  0  0  0  0  0  0  0  0  0  0  0
   20.2230   -0.7655    3.8562 C   0  0  0  0  0  0  0  0  0  0  0  0
   20.2352    0.1793    3.0854 O   0  0  0  0  0  0  0  0  0  0  0  0
   20.9204   -1.8843    3.5864 O   0  0  0  0  0  0  0  0  0  0  0  0
   21.3510   -1.6951    2.7262 H   0  0  0  0  0  0  0  0  0  0  0  0
   16.8193   -3.3222    5.9575 H   0  0  0  0  0  0  0  0  0  0  0  0
   15.2173   -0.8875    5.5137 H   0  0  0  0  0  0  0  0  0  0  0  0
   17.2232   -2.3457    3.1036 H   0  0  0  0  0  0  0  0  0  0  0  0
   14.7754   -3.6045    4.1223 H   0  0  0  0  0  0  0  0  0  0  0  0
   15.6631   -2.3022    1.1219 H   0  0  0  0  0  0  0  0  0  0  0  0
   14.7252   -4.6987    0.6440 H   0  0  0  0  0  0  0  0  0  0  0  0
   14.5039   -4.5832    2.4103 H   0  0  0  0  0  0  0  0  0  0  0  0
   12.7611   -3.6650    0.5181 H   0  0  0  0  0  0  0  0  0  0  0  0
   12.8242   -3.2200    2.2370 H   0  0  0  0  0  0  0  0  0  0  0  0
   14.6384   -1.6574    0.6475 H   0  0  0  0  0  0  0  0  0  0  0  0
   12.9665   -1.4888    0.1245 H   0  0  0  0  0  0  0  0  0  0  0  0
   12.1897   -0.7929    3.9154 H   0  0  0  0  0  0  0  0  0  0  0  0
   12.7916   -2.3750    3.4820 H   0  0  0  0  0  0  0  0  0  0  0  0
   11.4405   -1.6863    2.6140 H   0  0  0  0  0  0  0  0  0  0  0  0
   14.2476   -0.6123    2.6140 H   0  0  0  0  0  0  0  0  0  0  0  0
   12.8769    0.0627    1.7365 H   0  0  0  0  0  0  0  0  0  0  0  0
   17.2335   -1.6486    7.6147 H   0  0  0  0  0  0  0  0  0  0  0  0
   15.5927   -1.2200    8.0874 H   0  0  0  0  0  0  0  0  0  0  0  0
   15.9536    1.0521    7.2579 H   0  0  0  0  0  0  0  0  0  0  0  0
   18.0250    1.9420    7.4674 H   0  0  0  0  0  0  0  0  0  0  0  0
   19.0568   -0.8459    7.8199 H   0  0  0  0  0  0  0  0  0  0  0  0
   19.8797    0.6716    8.2389 H   0  0  0  0  0  0  0  0  0  0  0  0
   21.0466   -0.1429    6.4109 H   0  0  0  0  0  0  0  0  0  0  0  0
   19.9429    1.1131    5.7798 H   0  0  0  0  0  0  0  0  0  0  0  0
   18.4534   -0.6002    4.9833 H   0  0  0  0  0  0  0  0  0  0  0  0
   19.5981   -1.8274    5.5461 H   0  0  0  0  0  0  0  0  0  0  0  0
  1  2  2  0
  1 23  1  0
  2 13  1  0
  2 24  1  0
  3  4  2  0
  3 25  1  0
  4  1  1  0
  4 26  1  0
  5  6  1  0
  5  3  1  0
  5 27  1  6
  6  7  1  0
  8  5  1  0
  8 28  1  0
  8 29  1  0
  9  8  1  0
  9 30  1  0
  9 31  1  0
 10  9  1  0
 10 32  1  0
 10 33  1  0
 11 12  1  0
 11 34  1  0
 11 35  1  0
 11 36  1  0
 12 10  1  0
 12 37  1  0
 12 38  1  0
 13 14  1  0
 13 39  1  0
 13 40  1  0
 14 15  2  0
 14 41  1  0
 15 16  1  0
 15 42  1  0
 16 17  1  0
 16 43  1  0
 16 44  1  0
 17 18  1  0
 17 45  1  0
 17 46  1  0
 18 19  1  0
 18 47  1  0
 18 48  1  0
 19 20  2  0
 19 21  1  0
 21 22  1  0
M  END
>  <minimizedAffinity>  (1) 
-7.24344

>  <mol_id>  (1) 
16466

>  <source_index>  (1) 
0

>  <layer>  (1) 
L3

>  <uniprot>  (1) 
Q9NPC1

>  <paff>  (1) 
7.7201000000000004

>  <smiles>  (1) 
CCCCC[C@H](O)/C=C/C=C/C/C=C\CCCC(=O)O

$$$$
L3:Q9NPC1:18761
     RDKit          3D

 45 49  0  0  0  0  0  0  0  0999 V2000
   13.1493   -2.3425    2.1335 N   0  0  0  0  0  0  0  0  0  0  0  0
   14.4813   -1.8150    2.4305 C   0  0  0  0  0  0  0  0  0  0  0  0
   15.3864   -2.7450    1.6803 C   0  0  0  0  0  0  0  0  0  0  0  0
   16.7648   -2.7018    1.5636 C   0  0  0  0  0  0  0  0  0  0  0  0
   17.4020   -3.7112    0.8339 C   0  0  0  0  0  0  0  0  0  0  0  0
   16.6669   -4.7487    0.2158 C   0  0  0  0  0  0  0  0  0  0  0  0
   15.2670   -4.7695    0.3536 C   0  0  0  0  0  0  0  0  0  0  0  0
   14.6465   -3.7680    1.0849 C   0  0  0  0  0  0  0  0  0  0  0  0
   13.1885   -3.6077    1.3948 C   0  0  0  0  0  0  0  0  0  0  0  0
   17.3546   -5.8033   -0.5487 C   0  0  0  0  0  0  0  0  0  0  0  0
   17.0342   -7.1462   -0.2503 C   0  0  0  0  0  0  0  0  0  0  0  0
   17.6610   -8.2097   -0.8999 C   0  0  0  0  0  0  0  0  0  0  0  0
   18.6291   -7.9543   -1.8612 C   0  0  0  0  0  0  0  0  0  0  0  0
   18.9641   -6.6362   -2.1713 C   0  0  0  0  0  0  0  0  0  0  0  0
   18.3329   -5.5447   -1.5388 C   0  0  0  0  0  0  0  0  0  0  0  0
   18.7406   -4.2042   -1.9710 C   0  0  0  0  0  0  0  0  0  0  0  0
   19.9028   -3.6164   -1.7416 N   0  0  0  0  0  0  0  0  0  0  0  0
   19.8625   -2.3993   -2.3734 N   0  0  0  0  0  0  0  0  0  0  0  0
   18.7075   -2.2284   -2.9969 N   0  0  0  0  0  0  0  0  0  0  0  0
   18.0068   -3.3409   -2.7405 N   0  0  0  0  0  0  0  0  0  0  0  0
   17.0755   -3.4454   -3.1243 H   0  0  0  0  0  0  0  0  0  0  0  0
    9.9754   -1.9925    3.6250 C   0  0  0  0  0  0  0  0  0  0  0  0
   10.8745   -2.7764    2.9446 C   0  0  0  0  0  0  0  0  0  0  0  0
   12.0198   -1.9580    2.7782 C   0  0  0  0  0  0  0  0  0  0  0  0
   11.8231   -0.7634    3.3510 N   0  0  0  0  0  0  0  0  0  0  0  0
   10.5468   -0.7853    3.8741 O   0  0  0  0  0  0  0  0  0  0  0  0
    7.6349   -2.5870    3.0181 C   0  0  0  0  0  0  0  0  0  0  0  0
    8.5951   -2.1866    4.1271 C   0  0  0  0  0  0  0  0  0  0  0  0
   14.6822   -1.8468    3.4810 H   0  0  0  0  0  0  0  0  0  0  0  0
   14.6018   -0.7900    2.1483 H   0  0  0  0  0  0  0  0  0  0  0  0
   17.3092   -1.9437    2.0040 H   0  0  0  0  0  0  0  0  0  0  0  0
   18.4301   -3.6982    0.7450 H   0  0  0  0  0  0  0  0  0  0  0  0
   14.7095   -5.5199   -0.0836 H   0  0  0  0  0  0  0  0  0  0  0  0
   12.8316   -4.4167    1.9973 H   0  0  0  0  0  0  0  0  0  0  0  0
   12.5682   -3.6080    0.5230 H   0  0  0  0  0  0  0  0  0  0  0  0
   16.3186   -7.3455    0.4661 H   0  0  0  0  0  0  0  0  0  0  0  0
   17.4060   -9.1821   -0.6668 H   0  0  0  0  0  0  0  0  0  0  0  0
   19.0989   -8.7359   -2.3443 H   0  0  0  0  0  0  0  0  0  0  0  0
   19.6914   -6.4552   -2.8807 H   0  0  0  0  0  0  0  0  0  0  0  0
   10.7447   -3.7488    2.6244 H   0  0  0  0  0  0  0  0  0  0  0  0
    6.6538   -2.7159    3.4251 H   0  0  0  0  0  0  0  0  0  0  0  0
    7.9618   -3.5057    2.5777 H   0  0  0  0  0  0  0  0  0  0  0  0
    7.6134   -1.8212    2.2711 H   0  0  0  0  0  0  0  0  0  0  0  0
    8.6033   -2.9557    4.8709 H   0  0  0  0  0  0  0  0  0  0  0  0
    8.2586   -1.2563    4.5349 H   0  0  0  0  0  0  0  0  0  0  0  0
  1  2  1  0
  2  3  1  0
  2 29  1  0
  2 30  1  0
  3  4  2  0
  4  5  1  0
  4 31  1  0
  5  6  2  0
  5 32  1  0
  6 10  1  0
  6  7  1  0
  7  8  2  0
  7 33  1  0
  8  9  1  0
  8  3  1  0
  9  1  1  0
  9 34  1  0
  9 35  1  0
 10 11  2  0
 11 12  1  0
 11 36  1  0
 12 13  2  0
 12 37  1  0
 13 14  1  0
 13 38  1  0
 14 15  2  0
 14 39  1  0
 15 16  1  0
 15 10  1  0
 16 17  2  0
 17 18  1  0
 18 19  2  0
 19 20  1  0
 20 16  1  0
 20 21  1  0
 22 23  2  0
 23 24  1  0
 23 40  1  0
 24  1  1  0
 24 25  2  0
 25 26  1  0
 26 22  1  0
 27 28  1  0
 27 41  1  0
 27 42  1  0
 27 43  1  0
 28 22  1  0
 28 44  1  0
 28 45  1  0
M  END
>  <minimizedAffinity>  (2) 
-8.87467

>  <mol_id>  (2) 
18761

>  <source_index>  (2) 
1

>  <layer>  (2) 
L3

>  <uniprot>  (2) 
Q9NPC1

>  <paff>  (2) 
7.2290999999999999

>  <smiles>  (2) 
CCc1cc(N2Cc3ccc(-c4ccccc4-c4nnn[nH]4)cc3C2)no1

$$$$
L3:Q9NPC1:21838
     RDKit          3D

 46 49  0  0  0  0  0  0  0  0999 V2000
   14.1241   -2.2426    3.0991 C   0  0  0  0  0  0  0  0  0  0  0  0
   14.2126   -2.3859    4.3156 O   0  0  0  0  0  0  0  0  0  0  0  0
   14.9445   -2.9099    2.2276 N   0  0  0  0  0  0  0  0  0  0  0  0
   15.8192   -4.0445    2.5198 C   0  0  0  0  0  0  0  0  0  0  0  0
   15.8665   -4.2439    1.0397 C   0  0  0  0  0  0  0  0  0  0  0  0
   14.8114   -3.2037    0.8041 C   0  0  0  0  0  0  0  0  0  0  0  0
   15.7045   -5.6082    0.4573 C   0  0  0  0  0  0  0  0  0  0  0  0
   16.6695   -5.1921   -0.5655 N   0  0  0  0  0  0  0  0  0  0  0  0
   17.1718   -4.1355    0.3188 C   0  0  0  0  0  0  0  0  0  0  0  0
   17.5640   -6.1439   -1.1578 C   0  0  0  0  0  0  0  0  0  0  0  0
   17.3594   -7.5251   -0.9749 C   0  0  0  0  0  0  0  0  0  0  0  0
   18.2186   -8.4640   -1.5468 C   0  0  0  0  0  0  0  0  0  0  0  0
   19.2977   -8.0399   -2.3123 C   0  0  0  0  0  0  0  0  0  0  0  0
   19.5178   -6.6760   -2.5059 C   0  0  0  0  0  0  0  0  0  0  0  0
   18.6651   -5.7111   -1.9383 C   0  0  0  0  0  0  0  0  0  0  0  0
   18.9643   -4.3004   -2.1867 C   0  0  0  0  0  0  0  0  0  0  0  0
   19.9971   -3.5923   -1.7638 N   0  0  0  0  0  0  0  0  0  0  0  0
   19.8304   -2.3193   -2.2581 N   0  0  0  0  0  0  0  0  0  0  0  0
   18.7192   -2.2302   -2.9736 N   0  0  0  0  0  0  0  0  0  0  0  0
   18.1864   -3.4558   -2.9262 N   0  0  0  0  0  0  0  0  0  0  0  0
   17.3176   -3.6656   -3.3992 H   0  0  0  0  0  0  0  0  0  0  0  0
   13.0947   -1.3443    2.4352 C   0  0  0  0  0  0  0  0  0  0  0  0
   11.9359   -0.9562    3.3543 C   0  0  0  0  0  0  0  0  0  0  0  0
    9.8455   -1.7204    4.6101 C   0  0  0  0  0  0  0  0  0  0  0  0
   10.8568   -2.0320    3.5176 C   0  0  0  0  0  0  0  0  0  0  0  0
   15.3610   -4.8399    3.0696 H   0  0  0  0  0  0  0  0  0  0  0  0
   16.7009   -3.9552    3.1194 H   0  0  0  0  0  0  0  0  0  0  0  0
   13.8568   -3.5852    0.5071 H   0  0  0  0  0  0  0  0  0  0  0  0
   14.8979   -2.4523    0.0472 H   0  0  0  0  0  0  0  0  0  0  0  0
   14.7241   -5.8258    0.0881 H   0  0  0  0  0  0  0  0  0  0  0  0
   15.8381   -6.4960    1.0394 H   0  0  0  0  0  0  0  0  0  0  0  0
   17.3451   -3.1938   -0.1588 H   0  0  0  0  0  0  0  0  0  0  0  0
   18.1115   -4.2132    0.8246 H   0  0  0  0  0  0  0  0  0  0  0  0
   16.5600   -7.8485   -0.4080 H   0  0  0  0  0  0  0  0  0  0  0  0
   18.0528   -9.4722   -1.4014 H   0  0  0  0  0  0  0  0  0  0  0  0
   19.9348   -8.7321   -2.7366 H   0  0  0  0  0  0  0  0  0  0  0  0
   20.3212   -6.3688   -3.0762 H   0  0  0  0  0  0  0  0  0  0  0  0
   13.5847   -0.4495    2.1127 H   0  0  0  0  0  0  0  0  0  0  0  0
   12.6764   -1.8964    1.6197 H   0  0  0  0  0  0  0  0  0  0  0  0
   12.3373   -0.7378    4.3218 H   0  0  0  0  0  0  0  0  0  0  0  0
   11.4568   -0.1162    2.8964 H   0  0  0  0  0  0  0  0  0  0  0  0
    9.1265   -2.5108    4.6665 H   0  0  0  0  0  0  0  0  0  0  0  0
    9.3476   -0.8008    4.3835 H   0  0  0  0  0  0  0  0  0  0  0  0
   10.3510   -1.6304    5.5489 H   0  0  0  0  0  0  0  0  0  0  0  0
   10.3330   -2.1290    2.5897 H   0  0  0  0  0  0  0  0  0  0  0  0
   11.3553   -2.9355    3.8005 H   0  0  0  0  0  0  0  0  0  0  0  0
  1  2  2  0
  1  3  1  0
  3  4  1  0
  4  5  1  0
  4 26  1  0
  4 27  1  0
  5  6  1  0
  5  7  1  0
  6  3  1  0
  6 28  1  0
  6 29  1  0
  7  8  1  0
  7 30  1  0
  7 31  1  0
  8 10  1  0
  8  9  1  0
  9  5  1  0
  9 32  1  0
  9 33  1  0
 10 11  2  0
 11 12  1  0
 11 34  1  0
 12 13  2  0
 12 35  1  0
 13 14  1  0
 13 36  1  0
 14 15  2  0
 14 37  1  0
 15 16  1  0
 15 10  1  0
 16 17  2  0
 17 18  1  0
 18 19  2  0
 19 20  1  0
 20 16  1  0
 20 21  1  0
 22  1  1  0
 22 38  1  0
 22 39  1  0
 23 22  1  0
 23 40  1  0
 23 41  1  0
 24 25  1  0
 24 42  1  0
 24 43  1  0
 24 44  1  0
 25 23  1  0
 25 45  1  0
 25 46  1  0
M  END
>  <minimizedAffinity>  (3) 
-7.56807

>  <mol_id>  (3) 
21838

>  <source_index>  (3) 
2

>  <layer>  (3) 
L3

>  <uniprot>  (3) 
Q9NPC1

>  <paff>  (3) 
7.5086000000000004

>  <smiles>  (3) 
CCCCC(=O)N1CC2(C1)CN(c1ccccc1-c1nnn[nH]1)C2

$$$$
L3:Q9NPC1:72366
     RDKit          3D

 49 52  0  0  0  0  0  0  0  0999 V2000
   13.6486   -2.5785    3.0290 C   0  0  0  0  0  0  0  0  0  0  0  0
   14.2284   -1.8675    3.8459 O   0  0  0  0  0  0  0  0  0  0  0  0
   14.3227   -3.3948    2.1602 N   0  0  0  0  0  0  0  0  0  0  0  0
   15.7363   -3.3588    1.8194 C   0  0  0  0  0  0  0  0  0  0  0  0
   15.3965   -4.4046    0.7311 C   0  0  0  0  0  0  0  0  0  0  0  0
   15.7858   -5.8408    1.0711 C   0  0  0  0  0  0  0  0  0  0  0  0
   17.1721   -5.9799    0.4446 C   0  0  0  0  0  0  0  0  0  0  0  0
   17.2204   -4.9998   -0.6478 N   0  0  0  0  0  0  0  0  0  0  0  0
   16.0216   -4.1450   -0.6331 C   0  0  0  0  0  0  0  0  0  0  0  0
   13.9154   -4.0180    0.9137 C   0  0  0  0  0  0  0  0  0  0  0  0
   17.6463   -5.3982   -1.9159 C   0  0  0  0  0  0  0  0  0  0  0  0
   16.8893   -6.4185   -2.5228 C   0  0  0  0  0  0  0  0  0  0  0  0
   17.1994   -6.9149   -3.7896 C   0  0  0  0  0  0  0  0  0  0  0  0
   18.2889   -6.4047   -4.4818 C   0  0  0  0  0  0  0  0  0  0  0  0
   19.0637   -5.4005   -3.9031 C   0  0  0  0  0  0  0  0  0  0  0  0
   18.7573   -4.8878   -2.6253 C   0  0  0  0  0  0  0  0  0  0  0  0
   19.6300   -3.8512   -2.0941 C   0  0  0  0  0  0  0  0  0  0  0  0
   19.3109   -2.6851   -1.5667 N   0  0  0  0  0  0  0  0  0  0  0  0
   20.4944   -2.0820   -1.2133 N   0  0  0  0  0  0  0  0  0  0  0  0
   21.5288   -2.8539   -1.5132 N   0  0  0  0  0  0  0  0  0  0  0  0
   20.9929   -3.9565   -2.0515 N   0  0  0  0  0  0  0  0  0  0  0  0
   21.5911   -4.7084   -2.3673 H   0  0  0  0  0  0  0  0  0  0  0  0
   12.1360   -2.6380    2.9009 C   0  0  0  0  0  0  0  0  0  0  0  0
   11.4540   -1.4248    3.5330 C   0  0  0  0  0  0  0  0  0  0  0  0
    9.5136   -3.0777    3.6448 C   0  0  0  0  0  0  0  0  0  0  0  0
   10.0671   -1.7358    4.0986 C   0  0  0  0  0  0  0  0  0  0  0  0
   16.3945   -3.7058    2.5884 H   0  0  0  0  0  0  0  0  0  0  0  0
   16.2493   -2.4464    1.5973 H   0  0  0  0  0  0  0  0  0  0  0  0
   15.0977   -6.5378    0.6404 H   0  0  0  0  0  0  0  0  0  0  0  0
   15.7764   -6.0422    2.1219 H   0  0  0  0  0  0  0  0  0  0  0  0
   17.3103   -6.9699    0.0628 H   0  0  0  0  0  0  0  0  0  0  0  0
   17.9466   -5.8067    1.1622 H   0  0  0  0  0  0  0  0  0  0  0  0
   15.3487   -4.4210   -1.4179 H   0  0  0  0  0  0  0  0  0  0  0  0
   16.2522   -3.1118   -0.7891 H   0  0  0  0  0  0  0  0  0  0  0  0
   13.2448   -4.8447    1.0222 H   0  0  0  0  0  0  0  0  0  0  0  0
   13.3672   -3.4880    0.1631 H   0  0  0  0  0  0  0  0  0  0  0  0
   16.0808   -6.8110   -2.0156 H   0  0  0  0  0  0  0  0  0  0  0  0
   16.6207   -7.6587   -4.2103 H   0  0  0  0  0  0  0  0  0  0  0  0
   18.5240   -6.7665   -5.4192 H   0  0  0  0  0  0  0  0  0  0  0  0
   19.8755   -5.0258   -4.4185 H   0  0  0  0  0  0  0  0  0  0  0  0
   11.8795   -2.6753    1.8628 H   0  0  0  0  0  0  0  0  0  0  0  0
   11.7970   -3.5113    3.4179 H   0  0  0  0  0  0  0  0  0  0  0  0
   12.0720   -1.0642    4.3286 H   0  0  0  0  0  0  0  0  0  0  0  0
   11.3247   -0.6960    2.7603 H   0  0  0  0  0  0  0  0  0  0  0  0
    8.5461   -3.2287    4.0761 H   0  0  0  0  0  0  0  0  0  0  0  0
   10.1713   -3.8602    3.9612 H   0  0  0  0  0  0  0  0  0  0  0  0
    9.4340   -3.0883    2.5778 H   0  0  0  0  0  0  0  0  0  0  0  0
   10.1299   -1.7391    5.1667 H   0  0  0  0  0  0  0  0  0  0  0  0
    9.4020   -0.9814    3.7335 H   0  0  0  0  0  0  0  0  0  0  0  0
  1  2  2  0
  1  3  1  0
  3  4  1  0
  4  5  1  0
  4 27  1  0
  4 28  1  0
  5  6  1  0
  5 10  1  0
  6  7  1  0
  6 29  1  0
  6 30  1  0
  7  8  1  0
  7 31  1  0
  7 32  1  0
  8 11  1  0
  8  9  1  0
  9  5  1  0
  9 33  1  0
  9 34  1  0
 10  3  1  0
 10 35  1  0
 10 36  1  0
 11 12  2  0
 12 13  1  0
 12 37  1  0
 13 14  2  0
 13 38  1  0
 14 15  1  0
 14 39  1  0
 15 16  2  0
 15 40  1  0
 16 17  1  0
 16 11  1  0
 17 18  2  0
 18 19  1  0
 19 20  2  0
 20 21  1  0
 21 17  1  0
 21 22  1  0
 23  1  1  0
 23 41  1  0
 23 42  1  0
 24 23  1  0
 24 43  1  0
 24 44  1  0
 25 26  1  0
 25 45  1  0
 25 46  1  0
 25 47  1  0
 26 24  1  0
 26 48  1  0
 26 49  1  0
M  END
>  <minimizedAffinity>  (4) 
-7.50139

>  <mol_id>  (4) 
72366

>  <source_index>  (4) 
3

>  <layer>  (4) 
L3

>  <uniprot>  (4) 
Q9NPC1

>  <paff>  (4) 
7.0968999999999998

>  <smiles>  (4) 
CCCCC(=O)N1CC2(CCN(c3ccccc3-c3nnn[nH]3)C2)C1

$$$$
L3:Q9NPC1:75604
     RDKit          3D

 52 55  0  0  0  0  0  0  0  0999 V2000
   13.9795   -3.4381    1.2768 C   0  0  0  0  0  0  0  0  0  0  0  0
   12.8759   -3.7436    0.8324 O   0  0  0  0  0  0  0  0  0  0  0  0
   15.1325   -3.9967    0.7944 N   0  0  0  0  0  0  0  0  0  0  0  0
   15.3089   -4.7483   -0.4342 C   0  0  0  0  0  0  0  0  0  0  0  0
   16.8293   -4.7235   -0.1218 C   0  0  0  0  0  0  0  0  0  0  0  0
   17.3776   -6.0067    0.5263 C   0  0  0  0  0  0  0  0  0  0  0  0
   17.5421   -7.0966   -0.5353 C   0  0  0  0  0  0  0  0  0  0  0  0
   18.4283   -6.5857   -1.6080 N   0  0  0  0  0  0  0  0  0  0  0  0
   17.8679   -5.4006   -2.2987 C   0  0  0  0  0  0  0  0  0  0  0  0
   17.7217   -4.2666   -1.2820 C   0  0  0  0  0  0  0  0  0  0  0  0
   16.5229   -3.6031    0.9049 C   0  0  0  0  0  0  0  0  0  0  0  0
   18.7547   -7.6178   -2.5450 C   0  0  0  0  0  0  0  0  0  0  0  0
   17.7946   -8.5675   -2.9476 C   0  0  0  0  0  0  0  0  0  0  0  0
   18.1105   -9.5724   -3.8636 C   0  0  0  0  0  0  0  0  0  0  0  0
   19.3914   -9.6490   -4.3970 C   0  0  0  0  0  0  0  0  0  0  0  0
   20.3587   -8.7202   -4.0146 C   0  0  0  0  0  0  0  0  0  0  0  0
   20.0625   -7.7000   -3.0928 C   0  0  0  0  0  0  0  0  0  0  0  0
   21.1252   -6.7611   -2.7363 C   0  0  0  0  0  0  0  0  0  0  0  0
   22.1294   -6.9226   -1.8929 N   0  0  0  0  0  0  0  0  0  0  0  0
   22.8487   -5.7488   -1.9123 N   0  0  0  0  0  0  0  0  0  0  0  0
   22.3079   -4.8732   -2.7475 N   0  0  0  0  0  0  0  0  0  0  0  0
   21.2419   -5.5030   -3.2537 N   0  0  0  0  0  0  0  0  0  0  0  0
   20.6329   -5.0614   -3.9316 H   0  0  0  0  0  0  0  0  0  0  0  0
   14.1817   -2.4564    2.4199 C   0  0  0  0  0  0  0  0  0  0  0  0
   13.0204   -2.4040    3.4151 C   0  0  0  0  0  0  0  0  0  0  0  0
   10.7457   -1.2671    3.7509 C   0  0  0  0  0  0  0  0  0  0  0  0
   12.2043   -1.1081    3.3561 C   0  0  0  0  0  0  0  0  0  0  0  0
   15.0243   -4.2277   -1.3246 H   0  0  0  0  0  0  0  0  0  0  0  0
   14.7809   -5.6588   -0.6267 H   0  0  0  0  0  0  0  0  0  0  0  0
   16.6952   -6.3439    1.2783 H   0  0  0  0  0  0  0  0  0  0  0  0
   18.3295   -5.7991    0.9687 H   0  0  0  0  0  0  0  0  0  0  0  0
   16.5862   -7.3460   -0.9463 H   0  0  0  0  0  0  0  0  0  0  0  0
   17.9706   -7.9726   -0.0949 H   0  0  0  0  0  0  0  0  0  0  0  0
   16.9098   -5.6423   -2.7093 H   0  0  0  0  0  0  0  0  0  0  0  0
   18.5189   -5.0983   -3.0922 H   0  0  0  0  0  0  0  0  0  0  0  0
   17.2785   -3.4171   -1.7582 H   0  0  0  0  0  0  0  0  0  0  0  0
   18.6874   -4.0037   -0.9036 H   0  0  0  0  0  0  0  0  0  0  0  0
   16.7374   -2.6115    0.5649 H   0  0  0  0  0  0  0  0  0  0  0  0
   17.0242   -3.5428    1.8483 H   0  0  0  0  0  0  0  0  0  0  0  0
   16.8402   -8.5192   -2.5580 H   0  0  0  0  0  0  0  0  0  0  0  0
   17.3927  -10.2585   -4.1447 H   0  0  0  0  0  0  0  0  0  0  0  0
   19.6262  -10.3913   -5.0744 H   0  0  0  0  0  0  0  0  0  0  0  0
   21.3079   -8.7824   -4.4147 H   0  0  0  0  0  0  0  0  0  0  0  0
   15.0666   -2.7380    2.9514 H   0  0  0  0  0  0  0  0  0  0  0  0
   14.2539   -1.4835    1.9803 H   0  0  0  0  0  0  0  0  0  0  0  0
   12.3644   -3.2240    3.2096 H   0  0  0  0  0  0  0  0  0  0  0  0
   13.4500   -2.4540    4.3938 H   0  0  0  0  0  0  0  0  0  0  0  0
   10.2523   -0.3201    3.6822 H   0  0  0  0  0  0  0  0  0  0  0  0
   10.6857   -1.6284    4.7563 H   0  0  0  0  0  0  0  0  0  0  0  0
   10.2719   -1.9647    3.0923 H   0  0  0  0  0  0  0  0  0  0  0  0
   12.6548   -0.3983    4.0180 H   0  0  0  0  0  0  0  0  0  0  0  0
   12.2115   -0.7886    2.3349 H   0  0  0  0  0  0  0  0  0  0  0  0
  1  2  2  0
  1  3  1  0
  3  4  1  0
  4  5  1  0
  4 28  1  0
  4 29  1  0
  5  6  1  0
  5 11  1  0
  6  7  1  0
  6 30  1  0
  6 31  1  0
  7  8  1  0
  7 32  1  0
  7 33  1  0
  8 12  1  0
  8  9  1  0
  9 10  1  0
  9 34  1  0
  9 35  1  0
 10  5  1  0
 10 36  1  0
 10 37  1  0
 11  3  1  0
 11 38  1  0
 11 39  1  0
 12 13  2  0
 13 14  1  0
 13 40  1  0
 14 15  2  0
 14 41  1  0
 15 16  1  0
 15 42  1  0
 16 17  2  0
 16 43  1  0
 17 18  1  0
 17 12  1  0
 18 19  2  0
 19 20  1  0
 20 21  2  0
 21 22  1  0
 22 18  1  0
 22 23  1  0
 24  1  1  0
 24 44  1  0
 24 45  1  0
 25 24  1  0
 25 46  1  0
 25 47  1  0
 26 27  1  0
 26 48  1  0
 26 49  1  0
 26 50  1  0
 27 25  1  0
 27 51  1  0
 27 52  1  0
M  END
>  <minimizedAffinity>  (5) 
-6.38373

>  <mol_id>  (5) 
75604

>  <source_index>  (5) 
4

>  <layer>  (5) 
L3

>  <uniprot>  (5) 
Q9NPC1

>  <paff>  (5) 
6.2518000000000002

>  <smiles>  (5) 
CCCCC(=O)N1CC2(CCN(c3ccccc3-c3nnn[nH]3)CC2)C1

$$$$
L3:Q9NPC1:92711
     RDKit          3D

 45 47  0  0  0  0  0  0  0  0999 V2000
   15.1728   -2.9535    1.5965 C   0  0  0  0  0  0  0  0  0  0  0  0
   15.2947   -1.7612    1.3204 O   0  0  0  0  0  0  0  0  0  0  0  0
   15.8703   -3.9259    0.9192 N   0  0  0  0  0  0  0  0  0  0  0  0
   15.8285   -5.3674    1.1651 C   0  0  0  0  0  0  0  0  0  0  0  0
   16.7928   -5.9199    0.1664 C   0  0  0  0  0  0  0  0  0  0  0  0
   17.1549   -7.2365   -0.0519 C   0  0  0  0  0  0  0  0  0  0  0  0
   18.0864   -7.5072   -1.0598 C   0  0  0  0  0  0  0  0  0  0  0  0
   18.6494   -6.4730   -1.8443 C   0  0  0  0  0  0  0  0  0  0  0  0
   18.2656   -5.1435   -1.5979 C   0  0  0  0  0  0  0  0  0  0  0  0
   17.3415   -4.8849   -0.5978 C   0  0  0  0  0  0  0  0  0  0  0  0
   16.7817   -3.5682   -0.1647 C   0  0  0  0  0  0  0  0  0  0  0  0
   19.6338   -6.7849   -2.8930 C   0  0  0  0  0  0  0  0  0  0  0  0
   20.9812   -6.9753   -2.5303 C   0  0  0  0  0  0  0  0  0  0  0  0
   21.9453   -7.3325   -3.4775 C   0  0  0  0  0  0  0  0  0  0  0  0
   21.5828   -7.5150   -4.8091 C   0  0  0  0  0  0  0  0  0  0  0  0
   20.2577   -7.3282   -5.1969 C   0  0  0  0  0  0  0  0  0  0  0  0
   19.2926   -6.9490   -4.2506 C   0  0  0  0  0  0  0  0  0  0  0  0
   17.9205   -6.7517   -4.7558 C   0  0  0  0  0  0  0  0  0  0  0  0
   17.0944   -7.6277   -4.9293 O   0  0  0  0  0  0  0  0  0  0  0  0
   17.6972   -5.4748   -5.1082 O   0  0  0  0  0  0  0  0  0  0  0  0
   16.7763   -5.4687   -5.4393 H   0  0  0  0  0  0  0  0  0  0  0  0
   14.2638   -3.4444    2.7146 C   0  0  0  0  0  0  0  0  0  0  0  0
   13.2913   -2.3806    3.2270 C   0  0  0  0  0  0  0  0  0  0  0  0
   10.8361   -2.0872    3.7168 C   0  0  0  0  0  0  0  0  0  0  0  0
   11.8637   -2.6017    2.7207 C   0  0  0  0  0  0  0  0  0  0  0  0
   14.8446   -5.7549    1.0016 H   0  0  0  0  0  0  0  0  0  0  0  0
   16.0787   -5.6256    2.1729 H   0  0  0  0  0  0  0  0  0  0  0  0
   16.7490   -7.9986    0.5133 H   0  0  0  0  0  0  0  0  0  0  0  0
   18.3696   -8.4840   -1.2353 H   0  0  0  0  0  0  0  0  0  0  0  0
   18.6659   -4.3714   -2.1534 H   0  0  0  0  0  0  0  0  0  0  0  0
   16.2552   -3.0940   -0.9665 H   0  0  0  0  0  0  0  0  0  0  0  0
   17.5369   -2.8731    0.1377 H   0  0  0  0  0  0  0  0  0  0  0  0
   21.2625   -6.8486   -1.5455 H   0  0  0  0  0  0  0  0  0  0  0  0
   22.9278   -7.4612   -3.1890 H   0  0  0  0  0  0  0  0  0  0  0  0
   22.2930   -7.7877   -5.5065 H   0  0  0  0  0  0  0  0  0  0  0  0
   19.9850   -7.4689   -6.1822 H   0  0  0  0  0  0  0  0  0  0  0  0
   13.6954   -4.2737    2.3485 H   0  0  0  0  0  0  0  0  0  0  0  0
   14.8948   -3.7133    3.5358 H   0  0  0  0  0  0  0  0  0  0  0  0
   13.2845   -2.4081    4.2966 H   0  0  0  0  0  0  0  0  0  0  0  0
   13.6237   -1.4317    2.8609 H   0  0  0  0  0  0  0  0  0  0  0  0
    9.8517   -2.2567    3.3333 H   0  0  0  0  0  0  0  0  0  0  0  0
   10.9830   -1.0387    3.8714 H   0  0  0  0  0  0  0  0  0  0  0  0
   10.9506   -2.6043    4.6465 H   0  0  0  0  0  0  0  0  0  0  0  0
   11.7391   -2.0835    1.7929 H   0  0  0  0  0  0  0  0  0  0  0  0
   11.7110   -3.6529    2.5918 H   0  0  0  0  0  0  0  0  0  0  0  0
  1  2  2  0
  1  3  1  0
  3  4  1  0
  4  5  1  0
  4 26  1  0
  4 27  1  0
  5  6  2  0
  6  7  1  0
  6 28  1  0
  7  8  2  0
  7 29  1  0
  8 12  1  0
  8  9  1  0
  9 10  2  0
  9 30  1  0
 10 11  1  0
 10  5  1  0
 11  3  1  0
 11 31  1  0
 11 32  1  0
 12 13  2  0
 13 14  1  0
 13 33  1  0
 14 15  2  0
 14 34  1  0
 15 16  1  0
 15 35  1  0
 16 17  2  0
 16 36  1  0
 17 18  1  0
 17 12  1  0
 18 19  2  0
 18 20  1  0
 20 21  1  0
 22  1  1  0
 22 37  1  0
 22 38  1  0
 23 22  1  0
 23 39  1  0
 23 40  1  0
 24 25  1  0
 24 41  1  0
 24 42  1  0
 24 43  1  0
 25 23  1  0
 25 44  1  0
 25 45  1  0
M  END
>  <minimizedAffinity>  (6) 
-5.35146

>  <mol_id>  (6) 
92711

>  <source_index>  (6) 
5

>  <layer>  (6) 
L3

>  <uniprot>  (6) 
Q9NPC1

>  <paff>  (6) 
6.2153999999999998

>  <smiles>  (6) 
CCCCC(=O)N1Cc2ccc(-c3ccccc3C(=O)O)cc2C1

$$$$
L3:Q9NPC1:119020
     RDKit          3D

 54 55  0  0  0  0  0  0  0  0999 V2000
   17.5443   -4.6159   -1.8376 O   0  0  0  0  0  0  0  0  0  0  0  0
   19.8464   -4.4355   -2.2501 C   0  0  0  0  0  0  0  0  0  0  0  0
   21.1038   -5.0153   -2.4939 C   0  0  0  0  0  0  0  0  0  0  0  0
   21.2677   -6.4070   -2.5294 C   0  0  0  0  0  0  0  0  0  0  0  0
   20.1472   -7.2198   -2.3439 C   0  0  0  0  0  0  0  0  0  0  0  0
   20.2541   -8.5815   -2.4182 O   0  0  0  0  0  0  0  0  0  0  0  0
   18.8871   -6.6549   -2.1064 C   0  0  0  0  0  0  0  0  0  0  0  0
   18.7273   -5.2662   -2.0601 C   0  0  0  0  0  0  0  0  0  0  0  0
   19.3742   -8.9861   -2.3337 H   0  0  0  0  0  0  0  0  0  0  0  0
   22.6433   -6.9240   -2.7836 C   0  0  0  0  0  0  0  0  0  0  0  0
   23.8389   -6.1008   -2.3845 C   0  0  0  0  0  0  0  0  0  0  0  0
   22.7842   -8.0144   -3.3382 O   0  0  0  0  0  0  0  0  0  0  0  0
   20.3818   -2.2903   -3.4477 C   0  0  0  0  0  0  0  0  0  0  0  0
   19.7292   -2.9273   -2.2298 C   0  0  0  0  0  0  0  0  0  0  0  0
   16.5787   -5.1703   -0.9470 C   0  0  0  0  0  0  0  0  0  0  0  0
   16.6618   -4.5426    0.4462 C   0  0  0  0  0  0  0  0  0  0  0  0
   15.5375   -3.5297    0.6910 C   0  0  0  0  0  0  0  0  0  0  0  0
   14.3262   -4.1251    1.4205 C   0  0  0  0  0  0  0  0  0  0  0  0
   13.1127   -3.1864    1.4433 C   0  0  0  0  0  0  0  0  0  0  0  0
   13.0916   -2.1239    2.5844 C   0  0  0  0  0  0  0  0  0  0  0  0
   14.0855   -2.5086    3.7022 C   0  0  0  0  0  0  0  0  0  0  0  0
   13.5072   -0.7369    2.0464 C   0  0  0  0  0  0  0  0  0  0  0  0
   11.6894   -2.0733    3.1485 C   0  0  0  0  0  0  0  0  0  0  0  0
   11.1003   -0.9079    3.5716 N   0  0  0  0  0  0  0  0  0  0  0  0
    9.9033   -1.2368    4.0351 N   0  0  0  0  0  0  0  0  0  0  0  0
    9.8330   -2.5641    3.8820 N   0  0  0  0  0  0  0  0  0  0  0  0
   10.9154   -3.1526    3.3496 N   0  0  0  0  0  0  0  0  0  0  0  0
    9.0091   -3.0909    4.1574 H   0  0  0  0  0  0  0  0  0  0  0  0
   21.9213   -4.4050   -2.6496 H   0  0  0  0  0  0  0  0  0  0  0  0
   18.0698   -7.2689   -1.9644 H   0  0  0  0  0  0  0  0  0  0  0  0
   23.5093   -5.1948   -1.9205 H   0  0  0  0  0  0  0  0  0  0  0  0
   24.4169   -5.8664   -3.2539 H   0  0  0  0  0  0  0  0  0  0  0  0
   24.4403   -6.6561   -1.6954 H   0  0  0  0  0  0  0  0  0  0  0  0
   20.2764   -1.2269   -3.3936 H   0  0  0  0  0  0  0  0  0  0  0  0
   19.9072   -2.6510   -4.3363 H   0  0  0  0  0  0  0  0  0  0  0  0
   21.4208   -2.5450   -3.4698 H   0  0  0  0  0  0  0  0  0  0  0  0
   18.6929   -2.6612   -2.2139 H   0  0  0  0  0  0  0  0  0  0  0  0
   20.2337   -2.5675   -1.3575 H   0  0  0  0  0  0  0  0  0  0  0  0
   16.7497   -6.2232   -0.8630 H   0  0  0  0  0  0  0  0  0  0  0  0
   15.6060   -4.9684   -1.3445 H   0  0  0  0  0  0  0  0  0  0  0  0
   17.6031   -4.0434    0.5440 H   0  0  0  0  0  0  0  0  0  0  0  0
   16.5612   -5.3268    1.1672 H   0  0  0  0  0  0  0  0  0  0  0  0
   15.2108   -3.1510   -0.2549 H   0  0  0  0  0  0  0  0  0  0  0  0
   15.9371   -2.7613    1.3193 H   0  0  0  0  0  0  0  0  0  0  0  0
   14.6090   -4.3399    2.4299 H   0  0  0  0  0  0  0  0  0  0  0  0
   14.0362   -5.0067    0.8880 H   0  0  0  0  0  0  0  0  0  0  0  0
   12.2342   -3.7894    1.5412 H   0  0  0  0  0  0  0  0  0  0  0  0
   13.1620   -2.6291    0.5312 H   0  0  0  0  0  0  0  0  0  0  0  0
   15.0769   -2.5439    3.3013 H   0  0  0  0  0  0  0  0  0  0  0  0
   13.8255   -3.4691    4.0957 H   0  0  0  0  0  0  0  0  0  0  0  0
   14.0427   -1.7794    4.4840 H   0  0  0  0  0  0  0  0  0  0  0  0
   14.5003   -0.7904    1.6516 H   0  0  0  0  0  0  0  0  0  0  0  0
   13.4778   -0.0222    2.8422 H   0  0  0  0  0  0  0  0  0  0  0  0
   12.8314   -0.4373    1.2728 H   0  0  0  0  0  0  0  0  0  0  0  0
  1 15  1  0
  2  3  2  0
  3  4  1  0
  3 29  1  0
  4 10  1  0
  4  5  2  0
  5  6  1  0
  5  7  1  0
  6  9  1  0
  7  8  2  0
  7 30  1  0
  8  1  1  0
  8  2  1  0
 10 11  1  0
 10 12  2  0
 11 31  1  0
 11 32  1  0
 11 33  1  0
 13 14  1  0
 13 34  1  0
 13 35  1  0
 13 36  1  0
 14  2  1  0
 14 37  1  0
 14 38  1  0
 15 16  1  0
 15 39  1  0
 15 40  1  0
 16 17  1  0
 16 41  1  0
 16 42  1  0
 17 18  1  0
 17 43  1  0
 17 44  1  0
 18 19  1  0
 18 45  1  0
 18 46  1  0
 19 20  1  0
 19 47  1  0
 19 48  1  0
 20 21  1  0
 20 22  1  0
 20 23  1  0
 21 49  1  0
 21 50  1  0
 21 51  1  0
 22 52  1  0
 22 53  1  0
 22 54  1  0
 23 24  1  0
 24 25  2  0
 25 26  1  0
 26 27  1  0
 26 28  1  0
 27 23  2  0
M  END
>  <minimizedAffinity>  (7) 
-5.95132

>  <mol_id>  (7) 
119020

>  <source_index>  (7) 
6

>  <layer>  (7) 
L3

>  <uniprot>  (7) 
Q9NPC1

>  <paff>  (7) 
6.8415999999999997

>  <smiles>  (7) 
CCc1cc(C(C)=O)c(O)cc1OCCCCCC(C)(C)c1nn[nH]n1

$$$$
L3:Q9NPC1:131764
     RDKit          3D

 52 55  0  0  0  0  0  0  0  0999 V2000
   13.0703   -1.6873    2.4125 C   0  0  0  0  0  0  0  0  0  0  0  0
   13.3495   -0.5006    2.5842 O   0  0  0  0  0  0  0  0  0  0  0  0
   13.9916   -2.5987    1.8849 N   0  0  0  0  0  0  0  0  0  0  0  0
   15.2522   -2.0427    1.3885 C   0  0  0  0  0  0  0  0  0  0  0  0
   16.3959   -3.0501    1.4434 C   0  0  0  0  0  0  0  0  0  0  0  0
   15.9859   -4.3348    0.7282 C   0  0  0  0  0  0  0  0  0  0  0  0
   14.7223   -4.9204    1.3695 C   0  0  0  0  0  0  0  0  0  0  0  0
   13.5922   -3.8963    1.3306 C   0  0  0  0  0  0  0  0  0  0  0  0
   17.1286   -5.3612    0.5582 C   0  0  0  0  0  0  0  0  0  0  0  0
   16.6865   -5.5358   -0.7951 N   0  0  0  0  0  0  0  0  0  0  0  0
   15.9932   -4.2790   -0.8167 C   0  0  0  0  0  0  0  0  0  0  0  0
   17.2924   -6.2118   -1.8822 C   0  0  0  0  0  0  0  0  0  0  0  0
   16.8817   -7.5324   -2.1618 C   0  0  0  0  0  0  0  0  0  0  0  0
   17.4317   -8.2753   -3.2106 C   0  0  0  0  0  0  0  0  0  0  0  0
   18.4205   -7.7184   -4.0083 C   0  0  0  0  0  0  0  0  0  0  0  0
   18.8585   -6.4225   -3.7514 C   0  0  0  0  0  0  0  0  0  0  0  0
   18.3082   -5.6613   -2.6972 C   0  0  0  0  0  0  0  0  0  0  0  0
   18.8423   -4.3234   -2.5117 C   0  0  0  0  0  0  0  0  0  0  0  0
   19.8912   -3.9414   -1.8099 N   0  0  0  0  0  0  0  0  0  0  0  0
   19.9822   -2.5778   -1.9655 N   0  0  0  0  0  0  0  0  0  0  0  0
   19.0194   -2.1233   -2.7563 N   0  0  0  0  0  0  0  0  0  0  0  0
   18.3140   -3.2085   -3.0998 N   0  0  0  0  0  0  0  0  0  0  0  0
   17.5161   -3.1190   -3.7137 H   0  0  0  0  0  0  0  0  0  0  0  0
   11.6967   -2.2348    2.7780 C   0  0  0  0  0  0  0  0  0  0  0  0
   10.9512   -1.3298    3.7617 C   0  0  0  0  0  0  0  0  0  0  0  0
    9.2639   -3.2372    3.5781 C   0  0  0  0  0  0  0  0  0  0  0  0
    9.5621   -1.8527    4.1319 C   0  0  0  0  0  0  0  0  0  0  0  0
   15.5126   -1.1948    1.9869 H   0  0  0  0  0  0  0  0  0  0  0  0
   15.1069   -1.7710    0.3638 H   0  0  0  0  0  0  0  0  0  0  0  0
   16.6272   -3.2701    2.4647 H   0  0  0  0  0  0  0  0  0  0  0  0
   17.2563   -2.6355    0.9609 H   0  0  0  0  0  0  0  0  0  0  0  0
   14.9295   -5.1804    2.3865 H   0  0  0  0  0  0  0  0  0  0  0  0
   14.4244   -5.7917    0.8245 H   0  0  0  0  0  0  0  0  0  0  0  0
   12.7677   -4.2732    1.8990 H   0  0  0  0  0  0  0  0  0  0  0  0
   13.3261   -3.7442    0.3054 H   0  0  0  0  0  0  0  0  0  0  0  0
   17.0404   -6.2329    1.1724 H   0  0  0  0  0  0  0  0  0  0  0  0
   18.1439   -5.1166    0.7913 H   0  0  0  0  0  0  0  0  0  0  0  0
   15.0241   -4.3115   -1.2692 H   0  0  0  0  0  0  0  0  0  0  0  0
   16.3770   -3.4332   -1.3479 H   0  0  0  0  0  0  0  0  0  0  0  0
   16.1519   -7.9637   -1.5732 H   0  0  0  0  0  0  0  0  0  0  0  0
   17.1026   -9.2366   -3.3911 H   0  0  0  0  0  0  0  0  0  0  0  0
   18.8281   -8.2606   -4.7860 H   0  0  0  0  0  0  0  0  0  0  0  0
   19.5983   -6.0109   -4.3416 H   0  0  0  0  0  0  0  0  0  0  0  0
   11.1141   -2.3254    1.8851 H   0  0  0  0  0  0  0  0  0  0  0  0
   11.8389   -3.1839    3.2511 H   0  0  0  0  0  0  0  0  0  0  0  0
   11.5329   -1.2485    4.6561 H   0  0  0  0  0  0  0  0  0  0  0  0
   10.8158   -0.3834    3.2812 H   0  0  0  0  0  0  0  0  0  0  0  0
    8.2805   -3.5361    3.8756 H   0  0  0  0  0  0  0  0  0  0  0  0
    9.9795   -3.9355    3.9591 H   0  0  0  0  0  0  0  0  0  0  0  0
    9.3218   -3.2141    2.5099 H   0  0  0  0  0  0  0  0  0  0  0  0
    9.4891   -1.8924    5.1987 H   0  0  0  0  0  0  0  0  0  0  0  0
    8.8494   -1.1821    3.6992 H   0  0  0  0  0  0  0  0  0  0  0  0
  1  2  2  0
  1  3  1  0
  3  4  1  0
  4  5  1  0
  4 28  1  0
  4 29  1  0
  5  6  1  0
  5 30  1  0
  5 31  1  0
  6  7  1  0
  6  9  1  0
  7  8  1  0
  7 32  1  0
  7 33  1  0
  8  3  1  0
  8 34  1  0
  8 35  1  0
  9 10  1  0
  9 36  1  0
  9 37  1  0
 10 12  1  0
 10 11  1  0
 11  6  1  0
 11 38  1  0
 11 39  1  0
 12 13  2  0
 13 14  1  0
 13 40  1  0
 14 15  2  0
 14 41  1  0
 15 16  1  0
 15 42  1  0
 16 17  2  0
 16 43  1  0
 17 18  1  0
 17 12  1  0
 18 19  2  0
 19 20  1  0
 20 21  2  0
 21 22  1  0
 22 18  1  0
 22 23  1  0
 24  1  1  0
 24 44  1  0
 24 45  1  0
 25 24  1  0
 25 46  1  0
 25 47  1  0
 26 27  1  0
 26 48  1  0
 26 49  1  0
 26 50  1  0
 27 25  1  0
 27 51  1  0
 27 52  1  0
M  END
>  <minimizedAffinity>  (8) 
-7.38932

>  <mol_id>  (8) 
131764

>  <source_index>  (8) 
7

>  <layer>  (8) 
L3

>  <uniprot>  (8) 
Q9NPC1

>  <paff>  (8) 
7.0269000000000004

>  <smiles>  (8) 
CCCCC(=O)N1CCC2(CC1)CN(c1ccccc1-c1nnn[nH]1)C2

$$$$
L3:Q9NPC1:132810
     RDKit          3D

 54 56  0  0  0  0  0  0  0  0999 V2000
   17.5402   -6.9376   -1.1949 C   0  0  0  0  0  0  0  0  0  0  0  0
   17.5619   -6.7643    0.1949 C   0  0  0  0  0  0  0  0  0  0  0  0
   16.7695   -5.7866    0.8026 C   0  0  0  0  0  0  0  0  0  0  0  0
   15.9416   -4.9544    0.0362 C   0  0  0  0  0  0  0  0  0  0  0  0
   15.9191   -5.1338   -1.3549 C   0  0  0  0  0  0  0  0  0  0  0  0
   16.7112   -6.1110   -1.9645 C   0  0  0  0  0  0  0  0  0  0  0  0
   15.1022   -3.9320    0.6767 C   0  0  0  0  0  0  0  0  0  0  0  0
   13.7098   -4.1421    0.7324 C   0  0  0  0  0  0  0  0  0  0  0  0
   12.8515   -3.1906    1.2890 C   0  0  0  0  0  0  0  0  0  0  0  0
   13.3663   -2.0047    1.8015 C   0  0  0  0  0  0  0  0  0  0  0  0
   14.7406   -1.7732    1.7631 C   0  0  0  0  0  0  0  0  0  0  0  0
   15.6105   -2.7290    1.2077 C   0  0  0  0  0  0  0  0  0  0  0  0
   17.0676   -2.4526    1.2385 C   0  0  0  0  0  0  0  0  0  0  0  0
   17.5627   -2.5919    2.4843 O   0  0  0  0  0  0  0  0  0  0  0  0
   17.7862   -2.1354    0.3118 O   0  0  0  0  0  0  0  0  0  0  0  0
   18.5100   -2.3651    2.3761 H   0  0  0  0  0  0  0  0  0  0  0  0
   18.4364   -7.9647   -1.8557 C   0  0  0  0  0  0  0  0  0  0  0  0
   18.9869   -7.8693   -4.2449 C   0  0  0  0  0  0  0  0  0  0  0  0
   18.1889   -8.7836   -4.4707 O   0  0  0  0  0  0  0  0  0  0  0  0
   19.2303   -7.3956   -2.9534 N   0  0  0  0  0  0  0  0  0  0  0  0
   20.3475   -6.5898   -2.5883 C   0  0  0  0  0  0  0  0  0  0  0  0
   20.2327   -5.1976   -2.4979 C   0  0  0  0  0  0  0  0  0  0  0  0
   21.3406   -4.4136   -2.1674 C   0  0  0  0  0  0  0  0  0  0  0  0
   22.5751   -5.0138   -1.9306 C   0  0  0  0  0  0  0  0  0  0  0  0
   22.7053   -6.3967   -2.0349 C   0  0  0  0  0  0  0  0  0  0  0  0
   21.5987   -7.1807   -2.3705 C   0  0  0  0  0  0  0  0  0  0  0  0
   19.7023   -7.1716   -5.4004 C   0  0  0  0  0  0  0  0  0  0  0  0
   18.7570   -6.3487   -6.2820 C   0  0  0  0  0  0  0  0  0  0  0  0
   18.8559   -3.8020   -6.0852 C   0  0  0  0  0  0  0  0  0  0  0  0
   18.1939   -5.0885   -5.6163 C   0  0  0  0  0  0  0  0  0  0  0  0
   18.1686   -7.3642    0.7755 H   0  0  0  0  0  0  0  0  0  0  0  0
   16.7941   -5.6759    1.8283 H   0  0  0  0  0  0  0  0  0  0  0  0
   15.3099   -4.5366   -1.9357 H   0  0  0  0  0  0  0  0  0  0  0  0
   16.6851   -6.2245   -2.9899 H   0  0  0  0  0  0  0  0  0  0  0  0
   13.3157   -5.0176    0.3539 H   0  0  0  0  0  0  0  0  0  0  0  0
   11.8353   -3.3678    1.3198 H   0  0  0  0  0  0  0  0  0  0  0  0
   12.7334   -1.2986    2.2087 H   0  0  0  0  0  0  0  0  0  0  0  0
   15.1226   -0.8939    2.1451 H   0  0  0  0  0  0  0  0  0  0  0  0
   19.1037   -8.3620   -1.1197 H   0  0  0  0  0  0  0  0  0  0  0  0
   17.8085   -8.7260   -2.2693 H   0  0  0  0  0  0  0  0  0  0  0  0
   19.3219   -4.7466   -2.6769 H   0  0  0  0  0  0  0  0  0  0  0  0
   21.2444   -3.3884   -2.0986 H   0  0  0  0  0  0  0  0  0  0  0  0
   23.3915   -4.4351   -1.6784 H   0  0  0  0  0  0  0  0  0  0  0  0
   23.6202   -6.8426   -1.8641 H   0  0  0  0  0  0  0  0  0  0  0  0
   21.7040   -8.2035   -2.4587 H   0  0  0  0  0  0  0  0  0  0  0  0
   20.4462   -6.5177   -4.9955 H   0  0  0  0  0  0  0  0  0  0  0  0
   20.1320   -7.9334   -6.0168 H   0  0  0  0  0  0  0  0  0  0  0  0
   19.2936   -6.0510   -7.1585 H   0  0  0  0  0  0  0  0  0  0  0  0
   17.9183   -6.9781   -6.4948 H   0  0  0  0  0  0  0  0  0  0  0  0
   18.4137   -2.9687   -5.5802 H   0  0  0  0  0  0  0  0  0  0  0  0
   18.7174   -3.6938   -7.1407 H   0  0  0  0  0  0  0  0  0  0  0  0
   19.9023   -3.8384   -5.8646 H   0  0  0  0  0  0  0  0  0  0  0  0
   17.1481   -5.0295   -5.8349 H   0  0  0  0  0  0  0  0  0  0  0  0
   18.3873   -5.1756   -4.5675 H   0  0  0  0  0  0  0  0  0  0  0  0
  1  2  2  0
  2  3  1  0
  2 31  1  0
  3  4  2  0
  3 32  1  0
  4  5  1  0
  4  7  1  0
  5  6  2  0
  5 33  1  0
  6  1  1  0
  6 34  1  0
  7  8  2  0
  8  9  1  0
  8 35  1  0
  9 10  2  0
  9 36  1  0
 10 11  1  0
 10 37  1  0
 11 12  2  0
 11 38  1  0
 12 13  1  0
 12  7  1  0
 13 14  1  0
 13 15  2  0
 14 16  1  0
 17  1  1  0
 17 39  1  0
 17 40  1  0
 18 19  2  0
 18 20  1  0
 20 17  1  0
 20 21  1  0
 21 22  2  0
 22 23  1  0
 22 41  1  0
 23 24  2  0
 23 42  1  0
 24 25  1  0
 24 43  1  0
 25 26  2  0
 25 44  1  0
 26 21  1  0
 26 45  1  0
 27 18  1  0
 27 46  1  0
 27 47  1  0
 28 27  1  0
 28 48  1  0
 28 49  1  0
 29 30  1  0
 29 50  1  0
 29 51  1  0
 29 52  1  0
 30 28  1  0
 30 53  1  0
 30 54  1  0
M  END
>  <minimizedAffinity>  (9) 
-5.91080

>  <mol_id>  (9) 
132810

>  <source_index>  (9) 
8

>  <layer>  (9) 
L3

>  <uniprot>  (9) 
Q9NPC1

>  <paff>  (9) 
7.2007000000000003

>  <smiles>  (9) 
CCCCC(=O)N(Cc1ccc(cc1)-c1ccccc1C(O)=O)c1ccccc1

$$$$
L3:Q9NPC1:145653
     RDKit          3D

 52 55  0  0  0  0  0  0  0  0999 V2000
   12.9070   -2.8133    2.1200 C   0  0  0  0  0  0  0  0  0  0  0  0
   12.0080   -2.8267    1.2819 O   0  0  0  0  0  0  0  0  0  0  0  0
   14.1845   -3.2216    1.8014 N   0  0  0  0  0  0  0  0  0  0  0  0
   15.3571   -3.2240    2.6615 C   0  0  0  0  0  0  0  0  0  0  0  0
   16.5263   -3.4161    1.7001 C   0  0  0  0  0  0  0  0  0  0  0  0
   15.9142   -4.2351    0.5482 C   0  0  2  0  0  0  0  0  0  0  0  0
   15.9510   -5.7449    0.8067 C   0  0  0  0  0  0  0  0  0  0  0  0
   17.3573   -6.1432    0.3669 C   0  0  0  0  0  0  0  0  0  0  0  0
   17.7258   -5.1839   -0.6981 N   0  0  0  0  0  0  0  0  0  0  0  0
   16.6827   -4.1224   -0.7692 C   0  0  0  0  0  0  0  0  0  0  0  0
   14.4995   -3.6690    0.4568 C   0  0  0  0  0  0  0  0  0  0  0  0
   17.9565   -5.7157   -1.9970 C   0  0  0  0  0  0  0  0  0  0  0  0
   17.0772   -6.6506   -2.5755 C   0  0  0  0  0  0  0  0  0  0  0  0
   17.2541   -7.1016   -3.8832 C   0  0  0  0  0  0  0  0  0  0  0  0
   18.3014   -6.6080   -4.6556 C   0  0  0  0  0  0  0  0  0  0  0  0
   19.1870   -5.6812   -4.1087 C   0  0  0  0  0  0  0  0  0  0  0  0
   19.0387   -5.2335   -2.7861 C   0  0  0  0  0  0  0  0  0  0  0  0
   20.0286   -4.2929   -2.2624 C   0  0  0  0  0  0  0  0  0  0  0  0
   21.2370   -4.5301   -1.7868 N   0  0  0  0  0  0  0  0  0  0  0  0
   21.7501   -3.3134   -1.4004 N   0  0  0  0  0  0  0  0  0  0  0  0
   20.8908   -2.3333   -1.6470 N   0  0  0  0  0  0  0  0  0  0  0  0
   19.8288   -2.9419   -2.1872 N   0  0  0  0  0  0  0  0  0  0  0  0
   19.0203   -2.4200   -2.5067 H   0  0  0  0  0  0  0  0  0  0  0  0
   12.6767   -2.3557    3.5541 C   0  0  0  0  0  0  0  0  0  0  0  0
   11.4520   -1.4436    3.6648 C   0  0  0  0  0  0  0  0  0  0  0  0
    9.3473   -2.8104    3.4541 C   0  0  0  0  0  0  0  0  0  0  0  0
   10.3054   -2.1174    4.4187 C   0  0  0  0  0  0  0  0  0  0  0  0
   15.3092   -4.0278    3.3661 H   0  0  0  0  0  0  0  0  0  0  0  0
   15.4440   -2.3270    3.2383 H   0  0  0  0  0  0  0  0  0  0  0  0
   17.3234   -3.9535    2.1699 H   0  0  0  0  0  0  0  0  0  0  0  0
   16.9529   -2.4910    1.3728 H   0  0  0  0  0  0  0  0  0  0  0  0
   15.2097   -6.2515    0.2247 H   0  0  0  0  0  0  0  0  0  0  0  0
   15.7430   -6.0002    1.8248 H   0  0  0  0  0  0  0  0  0  0  0  0
   17.3609   -7.1434   -0.0133 H   0  0  0  0  0  0  0  0  0  0  0  0
   18.0502   -6.1167    1.1818 H   0  0  0  0  0  0  0  0  0  0  0  0
   16.0307   -4.2907   -1.6007 H   0  0  0  0  0  0  0  0  0  0  0  0
   17.1072   -3.1497   -0.9053 H   0  0  0  0  0  0  0  0  0  0  0  0
   13.8116   -4.4256    0.1417 H   0  0  0  0  0  0  0  0  0  0  0  0
   14.4305   -2.8747   -0.2568 H   0  0  0  0  0  0  0  0  0  0  0  0
   16.2850   -7.0098   -2.0201 H   0  0  0  0  0  0  0  0  0  0  0  0
   16.6077   -7.8022   -4.2787 H   0  0  0  0  0  0  0  0  0  0  0  0
   18.4217   -6.9271   -5.6296 H   0  0  0  0  0  0  0  0  0  0  0  0
   19.9631   -5.3186   -4.6842 H   0  0  0  0  0  0  0  0  0  0  0  0
   12.5264   -3.2155    4.1731 H   0  0  0  0  0  0  0  0  0  0  0  0
   13.5359   -1.8023    3.8709 H   0  0  0  0  0  0  0  0  0  0  0  0
   11.7311   -0.5514    4.1853 H   0  0  0  0  0  0  0  0  0  0  0  0
   11.1128   -1.2224    2.6744 H   0  0  0  0  0  0  0  0  0  0  0  0
    8.5565   -3.2724    4.0073 H   0  0  0  0  0  0  0  0  0  0  0  0
    9.8773   -3.5561    2.8991 H   0  0  0  0  0  0  0  0  0  0  0  0
    8.9363   -2.0886    2.7795 H   0  0  0  0  0  0  0  0  0  0  0  0
   10.7092   -2.8438    5.0926 H   0  0  0  0  0  0  0  0  0  0  0  0
    9.7638   -1.3670    4.9558 H   0  0  0  0  0  0  0  0  0  0  0  0
  1  2  2  0
  1  3  1  0
  3  4  1  0
  4  5  1  0
  4 28  1  0
  4 29  1  0
  5 30  1  0
  5 31  1  0
  6  5  1  1
  6  7  1  0
  6 11  1  0
  7  8  1  0
  7 32  1  0
  7 33  1  0
  8  9  1  0
  8 34  1  0
  8 35  1  0
  9 12  1  0
  9 10  1  0
 10  6  1  0
 10 36  1  0
 10 37  1  0
 11  3  1  0
 11 38  1  0
 11 39  1  0
 12 13  2  0
 13 14  1  0
 13 40  1  0
 14 15  2  0
 14 41  1  0
 15 16  1  0
 15 42  1  0
 16 17  2  0
 16 43  1  0
 17 18  1  0
 17 12  1  0
 18 19  2  0
 19 20  1  0
 20 21  2  0
 21 22  1  0
 22 18  1  0
 22 23  1  0
 24  1  1  0
 24 44  1  0
 24 45  1  0
 25 24  1  0
 25 46  1  0
 25 47  1  0
 26 27  1  0
 26 48  1  0
 26 49  1  0
 26 50  1  0
 27 25  1  0
 27 51  1  0
 27 52  1  0
M  END
>  <minimizedAffinity>  (10) 
-7.43788

>  <mol_id>  (10) 
145653

>  <source_index>  (10) 
9

>  <layer>  (10) 
L3

>  <uniprot>  (10) 
Q9NPC1

>  <paff>  (10) 
6.9957000000000003

>  <smiles>  (10) 
CCCCC(=O)N1CCC2(CCN(c3ccccc3-c3nnn[nH]3)C2)C1

$$$$
