L1:P50053:167
     RDKit          3D

 45 47  0  0  0  0  0  0  0  0999 V2000
   -3.8791   -0.6430   19.3266 C   0  0  0  0  0  0  0  0  0  0  0  0
   -4.9038    0.0104   19.8508 N   0  0  0  0  0  0  0  0  0  0  0  0
   -5.8386   -0.6692   20.5374 C   0  0  0  0  0  0  0  0  0  0  0  0
   -5.7152   -2.0785   20.7476 C   0  0  0  0  0  0  0  0  0  0  0  0
   -4.5308   -2.6556   20.4252 C   0  0  0  0  0  0  0  0  0  0  0  0
   -3.5663   -1.9708   19.6448 C   0  0  0  0  0  0  0  0  0  0  0  0
   -6.8595    0.0165   21.0271 N   0  0  0  0  0  0  0  0  0  0  0  0
   -8.0335   -0.5507   21.7223 C   0  0  0  0  0  0  0  0  0  0  0  0
   -8.4909    0.5927   22.5918 C   0  0  0  0  0  0  0  0  0  0  0  0
   -8.1687    1.8475   21.7876 C   0  0  1  0  0  0  0  0  0  0  0  0
   -7.9870    3.0729   22.5796 N   0  0  0  0  0  0  0  0  0  0  0  0
   -6.9029    1.4741   21.0104 C   0  0  0  0  0  0  0  0  0  0  0  0
   -7.3664    2.8243   23.3424 H   0  0  0  0  0  0  0  0  0  0  0  0
   -8.8878    3.2378   23.0435 H   0  0  0  0  0  0  0  0  0  0  0  0
   -4.2146   -4.0313   20.9291 C   0  0  0  0  0  0  0  0  0  0  0  0
   -3.1179   -4.0160   21.7520 F   0  0  0  0  0  0  0  0  0  0  0  0
   -5.2127   -4.5795   21.6348 F   0  0  0  0  0  0  0  0  0  0  0  0
   -3.9090   -4.8717   19.9153 F   0  0  0  0  0  0  0  0  0  0  0  0
   -3.0662    0.1334   18.5117 N   0  0  0  0  0  0  0  0  0  0  0  0
   -3.2394    1.1139   18.6965 H   0  0  0  0  0  0  0  0  0  0  0  0
   -2.8093    1.0806   16.3157 C   0  0  0  0  0  0  0  0  0  0  0  0
   -2.3189    0.9480   15.0249 C   0  0  0  0  0  0  0  0  0  0  0  0
   -2.2644   -0.3059   14.4329 C   0  0  0  0  0  0  0  0  0  0  0  0
   -2.5679   -1.4316   15.1848 C   0  0  0  0  0  0  0  0  0  0  0  0
   -2.8305   -1.3160   16.5393 C   0  0  0  0  0  0  0  0  0  0  0  0
   -2.9024   -0.0633   17.1376 C   0  0  0  0  0  0  0  0  0  0  0  0
   -5.1221    2.5817   16.0772 C   0  0  0  0  0  0  0  0  0  0  0  0
   -3.4741    2.6318   16.8624 S   0  0  0  0  0  0  0  0  0  0  0  0
   -2.3423   -2.5659   19.2910 C   0  0  0  0  0  0  0  0  0  0  0  0
   -1.3585   -3.1145   19.0014 N   0  0  0  0  0  0  0  0  0  0  0  0
   -6.5633   -2.6602   21.0690 H   0  0  0  0  0  0  0  0  0  0  0  0
   -7.7516   -1.4321   22.2887 H   0  0  0  0  0  0  0  0  0  0  0  0
   -8.7739   -0.8819   20.9948 H   0  0  0  0  0  0  0  0  0  0  0  0
   -7.9294    0.6107   23.5232 H   0  0  0  0  0  0  0  0  0  0  0  0
   -9.5401    0.5492   22.8709 H   0  0  0  0  0  0  0  0  0  0  0  0
   -8.9797    2.0176   21.0743 H   0  0  0  0  0  0  0  0  0  0  0  0
   -6.0084    1.8900   21.4815 H   0  0  0  0  0  0  0  0  0  0  0  0
   -6.9181    1.8517   19.9879 H   0  0  0  0  0  0  0  0  0  0  0  0
   -2.0162    1.8303   14.4805 H   0  0  0  0  0  0  0  0  0  0  0  0
   -2.0777   -0.3656   13.3746 H   0  0  0  0  0  0  0  0  0  0  0  0
   -2.7040   -2.4007   14.7318 H   0  0  0  0  0  0  0  0  0  0  0  0
   -3.0771   -2.1959   17.1045 H   0  0  0  0  0  0  0  0  0  0  0  0
   -5.8866    2.4449   16.8374 H   0  0  0  0  0  0  0  0  0  0  0  0
   -5.1687    1.7694   15.3564 H   0  0  0  0  0  0  0  0  0  0  0  0
   -5.2967    3.5195   15.5554 H   0  0  0  0  0  0  0  0  0  0  0  0
  1  2  2  0
  2  3  1  0
  3  7  1  0
  3  4  2  0
  4  5  1  0
  4 31  1  0
  5 15  1  0
  5  6  2  0
  6 29  1  0
  6  1  1  0
  7  8  1  0
  8  9  1  0
  8 32  1  0
  8 33  1  0
  9 10  1  0
  9 34  1  0
  9 35  1  0
 10 11  1  0
 10 12  1  0
 10 36  1  6
 11 13  1  0
 11 14  1  0
 12  7  1  0
 12 37  1  0
 12 38  1  0
 15 16  1  0
 15 17  1  0
 15 18  1  0
 19  1  1  0
 19 20  1  0
 21 22  2  0
 22 23  1  0
 22 39  1  0
 23 24  2  0
 23 40  1  0
 24 25  1  0
 24 41  1  0
 25 26  2  0
 25 42  1  0
 26 19  1  0
 26 21  1  0
 27 28  1  0
 27 43  1  0
 27 44  1  0
 27 45  1  0
 28 21  1  0
 29 30  3  0
M  END
>  <minimizedAffinity>  (1) 
-8.30219

>  <mol_id>  (1) 
167

>  <source_index>  (1) 
0

>  <layer>  (1) 
L1

>  <uniprot>  (1) 
P50053

>  <paff>  (1) 
8.2596000000000007

>  <smiles>  (1) 
CSc1ccccc1Nc1nc(N2CC[C@@H](N)C2)cc(C(F)(F)F)c1C#N

>  <aimnet_interaction_kcal_mol>  (1) 
-85.327487514642769

$$$$
L1:P50053:19531
     RDKit          3D

 63 65  0  0  0  0  0  0  0  0999 V2000
   -4.4073    0.1438   19.0424 C   0  0  0  0  0  0  0  0  0  0  0  0
   -4.9378    1.2954   18.6186 N   0  0  0  0  0  0  0  0  0  0  0  0
   -4.5387    1.8065   17.4481 C   0  0  0  0  0  0  0  0  0  0  0  0
   -3.4433    1.2755   16.7346 C   0  0  0  0  0  0  0  0  0  0  0  0
   -2.8811    0.0947   17.1736 C   0  0  0  0  0  0  0  0  0  0  0  0
   -3.3058   -0.5004   18.3654 C   0  0  0  0  0  0  0  0  0  0  0  0
   -5.2810    2.8196   16.9428 N   0  0  0  0  0  0  0  0  0  0  0  0
   -6.6637    3.0615   17.3469 C   0  0  0  0  0  0  0  0  0  0  0  0
   -7.0306    4.4123   16.7283 C   0  0  0  0  0  0  0  0  0  0  0  0
   -5.7107    4.9692   16.1877 C   0  0  1  0  0  0  0  0  0  0  0  0
   -4.9301    3.6870   15.8421 C   0  0  0  0  0  0  0  0  0  0  0  0
   -5.8532    6.0001   15.1785 N   0  0  0  0  0  0  0  0  0  0  0  0
   -4.7074    6.8850   15.0804 C   0  0  0  0  0  0  0  0  0  0  0  0
   -6.3013    5.5580   13.8679 C   0  0  0  0  0  0  0  0  0  0  0  0
   -1.8923   -0.5409   16.2239 C   0  0  0  0  0  0  0  0  0  0  0  0
   -2.5186   -1.1483   15.1951 F   0  0  0  0  0  0  0  0  0  0  0  0
   -1.0854    0.4160   15.6800 F   0  0  0  0  0  0  0  0  0  0  0  0
   -1.0772   -1.4490   16.7909 F   0  0  0  0  0  0  0  0  0  0  0  0
   -4.9333   -0.4543   20.1263 N   0  0  0  0  0  0  0  0  0  0  0  0
   -4.6408   -1.4088   20.3082 H   0  0  0  0  0  0  0  0  0  0  0  0
   -6.5857   -1.0263   21.7768 C   0  0  0  0  0  0  0  0  0  0  0  0
   -7.7836   -0.7207   22.4125 C   0  0  0  0  0  0  0  0  0  0  0  0
   -8.2648    0.5781   22.4265 C   0  0  0  0  0  0  0  0  0  0  0  0
   -7.5383    1.6061   21.8196 C   0  0  0  0  0  0  0  0  0  0  0  0
   -6.4038    1.2825   21.0825 C   0  0  0  0  0  0  0  0  0  0  0  0
   -5.9791   -0.0393   20.9752 C   0  0  0  0  0  0  0  0  0  0  0  0
   -7.0561   -3.7427   22.3169 C   0  0  0  0  0  0  0  0  0  0  0  0
   -5.7045   -2.5602   22.0340 S   0  0  0  0  0  0  0  0  0  0  0  0
   -7.9881    3.0195   22.0575 C   0  0  0  0  0  0  0  0  0  0  0  0
   -7.5306    4.0694   21.0284 C   0  0  1  0  0  0  0  0  0  0  0  0
   -8.6358    5.0508   20.6781 C   0  0  0  0  0  0  0  0  0  0  0  0
   -6.2854    4.7814   21.4813 C   0  0  0  0  0  0  0  0  0  0  0  0
   -6.1937    5.9710   21.7537 O   0  0  0  0  0  0  0  0  0  0  0  0
   -5.2335    3.9527   21.5567 O   0  0  0  0  0  0  0  0  0  0  0  0
   -4.6402    4.1815   22.3009 H   0  0  0  0  0  0  0  0  0  0  0  0
   -2.7656   -1.6945   18.8881 C   0  0  0  0  0  0  0  0  0  0  0  0
   -2.3398   -2.6854   19.3255 N   0  0  0  0  0  0  0  0  0  0  0  0
   -3.0906    1.7272   15.8244 H   0  0  0  0  0  0  0  0  0  0  0  0
   -6.7242    3.0427   18.4271 H   0  0  0  0  0  0  0  0  0  0  0  0
   -7.3128    2.2696   16.9730 H   0  0  0  0  0  0  0  0  0  0  0  0
   -7.4769    5.0902   17.4495 H   0  0  0  0  0  0  0  0  0  0  0  0
   -7.7493    4.2862   15.9214 H   0  0  0  0  0  0  0  0  0  0  0  0
   -5.1902    5.4293   17.0311 H   0  0  0  0  0  0  0  0  0  0  0  0
   -3.8578    3.8572   15.7677 H   0  0  0  0  0  0  0  0  0  0  0  0
   -5.2773    3.2881   14.8872 H   0  0  0  0  0  0  0  0  0  0  0  0
   -4.5075    7.3301   16.0540 H   0  0  0  0  0  0  0  0  0  0  0  0
   -4.9344    7.6964   14.3902 H   0  0  0  0  0  0  0  0  0  0  0  0
   -3.7837    6.3988   14.7300 H   0  0  0  0  0  0  0  0  0  0  0  0
   -7.0506    4.7740   13.9265 H   0  0  0  0  0  0  0  0  0  0  0  0
   -5.4849    5.1817   13.2388 H   0  0  0  0  0  0  0  0  0  0  0  0
   -6.7410    6.4063   13.3446 H   0  0  0  0  0  0  0  0  0  0  0  0
   -8.3433   -1.5036   22.8986 H   0  0  0  0  0  0  0  0  0  0  0  0
   -9.2077    0.7878   22.9262 H   0  0  0  0  0  0  0  0  0  0  0  0
   -5.8112    2.0535   20.6254 H   0  0  0  0  0  0  0  0  0  0  0  0
   -6.6174   -4.7302   22.2020 H   0  0  0  0  0  0  0  0  0  0  0  0
   -7.7984   -3.5682   21.5144 H   0  0  0  0  0  0  0  0  0  0  0  0
   -7.4678   -3.6194   23.3160 H   0  0  0  0  0  0  0  0  0  0  0  0
   -7.6936    3.3036   23.0698 H   0  0  0  0  0  0  0  0  0  0  0  0
   -9.0759    3.0237   22.0988 H   0  0  0  0  0  0  0  0  0  0  0  0
   -7.2694    3.5332   20.1175 H   0  0  0  0  0  0  0  0  0  0  0  0
   -9.0544    5.5153   21.5659 H   0  0  0  0  0  0  0  0  0  0  0  0
   -9.4465    4.5155   20.1903 H   0  0  0  0  0  0  0  0  0  0  0  0
   -8.2859    5.8358   20.0102 H   0  0  0  0  0  0  0  0  0  0  0  0
  1  2  2  0
  2  3  1  0
  3  7  1  0
  3  4  2  0
  4  5  1  0
  4 38  1  0
  5 15  1  0
  5  6  2  0
  6 36  1  0
  6  1  1  0
  7  8  1  0
  8  9  1  0
  8 39  1  0
  8 40  1  0
  9 10  1  0
  9 41  1  0
  9 42  1  0
 10 12  1  0
 10 11  1  0
 10 43  1  1
 11  7  1  0
 11 44  1  0
 11 45  1  0
 12 13  1  0
 12 14  1  0
 13 46  1  0
 13 47  1  0
 13 48  1  0
 14 49  1  0
 14 50  1  0
 14 51  1  0
 15 16  1  0
 15 17  1  0
 15 18  1  0
 19  1  1  0
 19 20  1  0
 21 22  2  0
 22 23  1  0
 22 52  1  0
 23 24  2  0
 23 53  1  0
 24 29  1  0
 24 25  1  0
 25 26  2  0
 25 54  1  0
 26 19  1  0
 26 21  1  0
 27 28  1  0
 27 55  1  0
 27 56  1  0
 27 57  1  0
 28 21  1  0
 29 30  1  0
 29 58  1  0
 29 59  1  0
 30 31  1  0
 30 32  1  0
 30 60  1  6
 31 61  1  0
 31 62  1  0
 31 63  1  0
 32 33  2  0
 32 34  1  0
 34 35  1  0
 36 37  3  0
M  END
>  <minimizedAffinity>  (2) 
-8.62125

>  <mol_id>  (2) 
19531

>  <source_index>  (2) 
1

>  <layer>  (2) 
L1

>  <uniprot>  (2) 
P50053

>  <paff>  (2) 
7.5686

>  <smiles>  (2) 
CSc1ccc(CC(C)C(=O)O)cc1Nc1nc(N2CC[C@H](N(C)C)C2)cc(C(F)(F)F)c1C#N

>  <aimnet_interaction_kcal_mol>  (2) 
-86.01516493877908

$$$$
L1:P50053:24618
     RDKit          3D

 48 50  0  0  0  0  0  0  0  0999 V2000
   -3.2172   -0.6573   18.4482 C   0  0  0  0  0  0  0  0  0  0  0  0
   -4.0824    0.2341   18.9141 N   0  0  0  0  0  0  0  0  0  0  0  0
   -5.0295   -0.1658   19.7742 C   0  0  0  0  0  0  0  0  0  0  0  0
   -5.0803   -1.4981   20.2687 C   0  0  0  0  0  0  0  0  0  0  0  0
   -4.0284   -2.3208   19.9735 C   0  0  0  0  0  0  0  0  0  0  0  0
   -3.0515   -1.9400   19.0303 C   0  0  0  0  0  0  0  0  0  0  0  0
   -2.5161    2.1717   16.7001 C   0  0  0  0  0  0  0  0  0  0  0  0
   -2.8883    0.7492   16.4169 C   0  0  1  0  0  0  0  0  0  0  0  0
   -2.1214   -0.0126   15.3204 C   0  0  0  0  0  0  0  0  0  0  0  0
   -1.8962   -1.1332   16.3404 C   0  0  0  0  0  0  0  0  0  0  0  0
   -2.4449   -0.2644   17.3973 N   0  0  0  0  0  0  0  0  0  0  0  0
   -5.9303    0.7609   20.1352 N   0  0  0  0  0  0  0  0  0  0  0  0
   -7.0404    0.5840   21.0776 C   0  0  0  0  0  0  0  0  0  0  0  0
   -7.3900    2.0136   21.4782 C   0  0  0  0  0  0  0  0  0  0  0  0
   -7.0566    2.8480   20.2425 C   0  0  2  0  0  0  0  0  0  0  0  0
   -5.8933    2.1033   19.5773 C   0  0  0  0  0  0  0  0  0  0  0  0
   -6.8384    4.3451   20.4696 C   0  0  0  0  0  0  0  0  0  0  0  0
   -5.5925    4.7425   21.2740 C   0  0  0  0  0  0  0  0  0  0  0  0
   -5.3371    6.2239   21.2828 C   0  0  0  0  0  0  0  0  0  0  0  0
   -6.1168    7.0884   21.6340 O   0  0  0  0  0  0  0  0  0  0  0  0
   -4.0738    6.5499   20.8817 O   0  0  0  0  0  0  0  0  0  0  0  0
   -3.9801    7.5156   20.7915 H   0  0  0  0  0  0  0  0  0  0  0  0
   -3.9028   -3.6485   20.6741 C   0  0  0  0  0  0  0  0  0  0  0  0
   -2.7344   -3.7304   21.3876 F   0  0  0  0  0  0  0  0  0  0  0  0
   -3.8671   -4.6758   19.7991 F   0  0  0  0  0  0  0  0  0  0  0  0
   -4.8975   -3.8711   21.5440 F   0  0  0  0  0  0  0  0  0  0  0  0
   -1.9764   -2.7818   18.6734 C   0  0  0  0  0  0  0  0  0  0  0  0
   -1.1138   -3.4955   18.3612 N   0  0  0  0  0  0  0  0  0  0  0  0
   -5.9357   -1.8618   20.8147 H   0  0  0  0  0  0  0  0  0  0  0  0
   -2.7437    2.7780   15.8259 H   0  0  0  0  0  0  0  0  0  0  0  0
   -1.4585    2.2588   16.9165 H   0  0  0  0  0  0  0  0  0  0  0  0
   -3.0630    2.5565   17.5561 H   0  0  0  0  0  0  0  0  0  0  0  0
   -3.9637    0.6818   16.2608 H   0  0  0  0  0  0  0  0  0  0  0  0
   -1.2184    0.5028   15.0082 H   0  0  0  0  0  0  0  0  0  0  0  0
   -2.7115   -0.2914   14.4554 H   0  0  0  0  0  0  0  0  0  0  0  0
   -0.8668   -1.4275   16.5074 H   0  0  0  0  0  0  0  0  0  0  0  0
   -2.4922   -2.0243   16.1518 H   0  0  0  0  0  0  0  0  0  0  0  0
   -6.7260   -0.0210   21.9211 H   0  0  0  0  0  0  0  0  0  0  0  0
   -7.8793    0.0708   20.6033 H   0  0  0  0  0  0  0  0  0  0  0  0
   -6.7833    2.3217   22.3256 H   0  0  0  0  0  0  0  0  0  0  0  0
   -8.4252    2.1131   21.7875 H   0  0  0  0  0  0  0  0  0  0  0  0
   -7.9035    2.7679   19.5620 H   0  0  0  0  0  0  0  0  0  0  0  0
   -4.9213    2.5559   19.7671 H   0  0  0  0  0  0  0  0  0  0  0  0
   -6.0057    2.0764   18.4930 H   0  0  0  0  0  0  0  0  0  0  0  0
   -7.7203    4.7437   20.9692 H   0  0  0  0  0  0  0  0  0  0  0  0
   -6.7871    4.8384   19.4991 H   0  0  0  0  0  0  0  0  0  0  0  0
   -4.7058    4.2260   20.9160 H   0  0  0  0  0  0  0  0  0  0  0  0
   -5.6753    4.4263   22.3158 H   0  0  0  0  0  0  0  0  0  0  0  0
  1  2  2  0
  2  3  1  0
  3 12  1  0
  3  4  2  0
  4  5  1  0
  4 29  1  0
  5 23  1  0
  5  6  2  0
  6 27  1  0
  6  1  1  0
  7  8  1  0
  7 30  1  0
  7 31  1  0
  7 32  1  0
  8  9  1  0
  8 33  1  6
  9 10  1  0
  9 34  1  0
  9 35  1  0
 10 11  1  0
 10 36  1  0
 10 37  1  0
 11  1  1  0
 11  8  1  0
 12 13  1  0
 13 14  1  0
 13 38  1  0
 13 39  1  0
 14 15  1  0
 14 40  1  0
 14 41  1  0
 15 17  1  0
 15 16  1  0
 15 42  1  6
 16 12  1  0
 16 43  1  0
 16 44  1  0
 17 18  1  0
 17 45  1  0
 17 46  1  0
 18 19  1  0
 18 47  1  0
 18 48  1  0
 19 20  2  0
 19 21  1  0
 21 22  1  0
 23 24  1  0
 23 25  1  0
 23 26  1  0
 27 28  3  0
M  END
>  <minimizedAffinity>  (3) 
-8.85392

>  <mol_id>  (3) 
24618

>  <source_index>  (3) 
2

>  <layer>  (3) 
L1

>  <uniprot>  (3) 
P50053

>  <paff>  (3) 
7.8125

>  <smiles>  (3) 
C[C@H]1CCN1c1nc(N2CC[C@@H](CCC(=O)O)C2)cc(C(F)(F)F)c1C#N

>  <aimnet_interaction_kcal_mol>  (3) 
-73.585743413465906

$$$$
L1:P50053:54615
     RDKit          3D

 59 61  0  0  0  0  0  0  0  0999 V2000
   -5.4404   -0.8085   20.3376 C   0  0  0  0  0  0  0  0  0  0  0  0
   -4.7331    0.0221   19.5643 N   0  0  0  0  0  0  0  0  0  0  0  0
   -3.8042   -0.4777   18.7559 C   0  0  0  0  0  0  0  0  0  0  0  0
   -3.3410   -1.7989   18.8984 C   0  0  0  0  0  0  0  0  0  0  0  0
   -3.8413   -2.5414   19.9438 C   0  0  0  0  0  0  0  0  0  0  0  0
   -4.9285   -2.0925   20.6917 C   0  0  0  0  0  0  0  0  0  0  0  0
   -3.3065    0.3718   17.7960 N   0  0  0  0  0  0  0  0  0  0  0  0
   -3.6367    1.7954   17.8327 C   0  0  0  0  0  0  0  0  0  0  0  0
   -3.6720    2.2206   16.3635 C   0  0  2  0  0  0  0  0  0  0  0  0
   -4.9700    1.9603   15.7596 N   0  0  0  0  0  0  0  0  0  0  0  0
   -2.6053    1.3165   15.7872 C   0  0  0  0  0  0  0  0  0  0  0  0
   -2.8767   -0.0254   16.4461 C   0  0  1  0  0  0  0  0  0  0  0  0
   -5.0736    2.4515   14.8828 H   0  0  0  0  0  0  0  0  0  0  0  0
   -5.7182    2.2931   16.3554 H   0  0  0  0  0  0  0  0  0  0  0  0
   -1.6695   -0.9638   16.3867 C   0  0  0  0  0  0  0  0  0  0  0  0
   -1.9601   -2.2834   15.9363 O   0  0  0  0  0  0  0  0  0  0  0  0
   -2.9211   -2.3559   15.7964 H   0  0  0  0  0  0  0  0  0  0  0  0
   -3.1865   -3.8541   20.2884 C   0  0  0  0  0  0  0  0  0  0  0  0
   -4.0725   -4.8563   20.3804 F   0  0  0  0  0  0  0  0  0  0  0  0
   -2.5234   -3.8095   21.4829 F   0  0  0  0  0  0  0  0  0  0  0  0
   -2.2580   -4.2093   19.3662 F   0  0  0  0  0  0  0  0  0  0  0  0
   -6.6653   -0.4184   20.7527 N   0  0  0  0  0  0  0  0  0  0  0  0
   -7.3758   -1.1552   20.8556 H   0  0  0  0  0  0  0  0  0  0  0  0
   -8.4974    1.1368   20.9620 C   0  0  0  0  0  0  0  0  0  0  0  0
   -8.9378    2.3942   21.3801 C   0  0  0  0  0  0  0  0  0  0  0  0
   -8.0436    3.4350   21.5604 C   0  0  0  0  0  0  0  0  0  0  0  0
   -6.6805    3.2617   21.3469 C   0  0  0  0  0  0  0  0  0  0  0  0
   -6.2205    1.9871   21.0100 C   0  0  0  0  0  0  0  0  0  0  0  0
   -7.0954    0.9092   20.8818 C   0  0  0  0  0  0  0  0  0  0  0  0
  -11.1625    0.5393   20.6895 C   0  0  0  0  0  0  0  0  0  0  0  0
   -9.5293   -0.2017   20.5116 S   0  0  0  0  0  0  0  0  0  0  0  0
   -5.7065    4.3689   21.6290 C   0  0  0  0  0  0  0  0  0  0  0  0
   -5.9220    5.6682   20.8403 C   0  0  0  0  0  0  0  0  0  0  0  0
   -5.0496    6.8074   21.3305 C   0  0  0  0  0  0  0  0  0  0  0  0
   -4.1435    7.3171   20.4576 N   0  0  0  0  0  0  0  0  0  0  0  0
   -5.1220    7.2486   22.4879 O   0  0  0  0  0  0  0  0  0  0  0  0
   -4.2699    7.2086   19.4635 H   0  0  0  0  0  0  0  0  0  0  0  0
   -3.6031    8.1331   20.7206 H   0  0  0  0  0  0  0  0  0  0  0  0
   -5.4316   -2.8219   21.7912 C   0  0  0  0  0  0  0  0  0  0  0  0
   -5.7481   -3.4104   22.7419 N   0  0  0  0  0  0  0  0  0  0  0  0
   -2.6318   -2.2274   18.2182 H   0  0  0  0  0  0  0  0  0  0  0  0
   -2.8556    2.3561   18.3534 H   0  0  0  0  0  0  0  0  0  0  0  0
   -4.5767    1.9661   18.3418 H   0  0  0  0  0  0  0  0  0  0  0  0
   -3.3922    3.2692   16.2648 H   0  0  0  0  0  0  0  0  0  0  0  0
   -1.6208    1.6735   16.0899 H   0  0  0  0  0  0  0  0  0  0  0  0
   -2.6011    1.2520   14.7062 H   0  0  0  0  0  0  0  0  0  0  0  0
   -3.7034   -0.5065   15.9274 H   0  0  0  0  0  0  0  0  0  0  0  0
   -1.2082   -1.0296   17.3743 H   0  0  0  0  0  0  0  0  0  0  0  0
   -0.9210   -0.5542   15.7024 H   0  0  0  0  0  0  0  0  0  0  0  0
   -9.9733    2.5342   21.6288 H   0  0  0  0  0  0  0  0  0  0  0  0
   -8.4338    4.3720   21.9383 H   0  0  0  0  0  0  0  0  0  0  0  0
   -5.1624    1.7998   20.8908 H   0  0  0  0  0  0  0  0  0  0  0  0
  -11.8795   -0.2221   20.3935 H   0  0  0  0  0  0  0  0  0  0  0  0
  -11.2749    1.3994   20.0312 H   0  0  0  0  0  0  0  0  0  0  0  0
  -11.3372    0.8022   21.7341 H   0  0  0  0  0  0  0  0  0  0  0  0
   -4.6940    4.0141   21.4546 H   0  0  0  0  0  0  0  0  0  0  0  0
   -5.7456    4.5928   22.6958 H   0  0  0  0  0  0  0  0  0  0  0  0
   -6.9639    5.9840   20.9325 H   0  0  0  0  0  0  0  0  0  0  0  0
   -5.7569    5.4832   19.7790 H   0  0  0  0  0  0  0  0  0  0  0  0
  1  2  2  0
  2  3  1  0
  3  7  1  0
  3  4  2  0
  4  5  1  0
  4 41  1  0
  5 18  1  0
  5  6  2  0
  6 39  1  0
  6  1  1  0
  7  8  1  0
  8  9  1  0
  8 42  1  0
  8 43  1  0
  9 10  1  0
  9 11  1  0
  9 44  1  1
 10 13  1  0
 10 14  1  0
 11 12  1  0
 11 45  1  0
 11 46  1  0
 12 15  1  0
 12  7  1  0
 12 47  1  6
 15 16  1  0
 15 48  1  0
 15 49  1  0
 16 17  1  0
 18 19  1  0
 18 20  1  0
 18 21  1  0
 22  1  1  0
 22 23  1  0
 24 25  2  0
 25 26  1  0
 25 50  1  0
 26 27  2  0
 26 51  1  0
 27 32  1  0
 27 28  1  0
 28 29  2  0
 28 52  1  0
 29 22  1  0
 29 24  1  0
 30 31  1  0
 30 53  1  0
 30 54  1  0
 30 55  1  0
 31 24  1  0
 32 33  1  0
 32 56  1  0
 32 57  1  0
 33 34  1  0
 33 58  1  0
 33 59  1  0
 34 35  1  0
 34 36  2  0
 35 37  1  0
 35 38  1  0
 39 40  3  0
M  END
>  <minimizedAffinity>  (4) 
-8.73047

>  <mol_id>  (4) 
54615

>  <source_index>  (4) 
3

>  <layer>  (4) 
L1

>  <uniprot>  (4) 
P50053

>  <paff>  (4) 
8.4948999999999995

>  <smiles>  (4) 
CSc1ccc(CCC(N)=O)cc1Nc1nc(N2C[C@H](N)C[C@H]2CO)cc(C(F)(F)F)c1C#N

>  <aimnet_interaction_kcal_mol>  (4) 
-98.463470959969044

$$$$
L1:P50053:64410
     RDKit          3D

 46 49  0  0  0  0  0  0  0  0999 V2000
   -6.7190   -0.4155   21.2796 H   0  0  0  0  0  0  0  0  0  0  0  0
   -5.7950   -0.5209   20.7378 C   0  0  0  0  0  0  0  0  0  0  0  0
   -5.2753    0.5157   19.9268 C   0  0  0  0  0  0  0  0  0  0  0  0
   -4.2830    0.2961   19.0638 N   0  0  0  0  0  0  0  0  0  0  0  0
   -3.6823   -0.8916   19.0308 C   0  0  0  0  0  0  0  0  0  0  0  0
   -3.9958   -1.9267   19.9545 C   0  0  0  0  0  0  0  0  0  0  0  0
   -5.1042   -1.7013   20.7906 C   0  0  0  0  0  0  0  0  0  0  0  0
   -5.7499    1.7811   19.9861 N   0  0  0  0  0  0  0  0  0  0  0  0
   -6.8503    2.2394   20.8413 C   0  0  0  0  0  0  0  0  0  0  0  0
   -7.0176    3.7005   20.4764 C   0  0  2  0  0  0  0  0  0  0  0  0
   -6.1249    3.9969   19.3179 C   0  0  2  0  0  0  0  0  0  0  0  0
   -5.3986    2.7344   18.9418 C   0  0  0  0  0  0  0  0  0  0  0  0
   -5.8330    4.6116   20.6513 C   0  0  1  0  0  0  0  0  0  0  0  0
   -6.1332    6.0901   20.8097 C   0  0  0  0  0  0  0  0  0  0  0  0
   -6.4349    6.4922   19.8407 H   0  0  0  0  0  0  0  0  0  0  0  0
   -7.0046    6.1909   21.4568 H   0  0  0  0  0  0  0  0  0  0  0  0
   -5.0312    6.9496   21.3682 C   0  0  0  0  0  0  0  0  0  0  0  0
   -5.0274    7.4041   22.5064 O   0  0  0  0  0  0  0  0  0  0  0  0
   -4.0506    7.2055   20.4807 O   0  0  0  0  0  0  0  0  0  0  0  0
   -3.5472    8.0166   20.7065 H   0  0  0  0  0  0  0  0  0  0  0  0
   -2.7193   -1.0420   18.0861 N   0  0  0  0  0  0  0  0  0  0  0  0
   -2.1075   -2.2797   17.5931 C   0  0  0  0  0  0  0  0  0  0  0  0
   -1.9221   -1.6243   16.2202 C   0  0  0  0  0  0  0  0  0  0  0  0
   -2.7682   -0.4369   16.7342 C   0  0  2  0  0  0  0  0  0  0  0  0
   -2.2506    0.9650   16.5921 C   0  0  0  0  0  0  0  0  0  0  0  0
   -5.5073   -2.7495   21.8095 C   0  0  0  0  0  0  0  0  0  0  0  0
   -4.5036   -2.8576   22.7473 F   0  0  0  0  0  0  0  0  0  0  0  0
   -6.6200   -2.4269   22.4631 F   0  0  0  0  0  0  0  0  0  0  0  0
   -5.6450   -3.9657   21.2734 F   0  0  0  0  0  0  0  0  0  0  0  0
   -3.1923   -3.0851   20.0907 C   0  0  0  0  0  0  0  0  0  0  0  0
   -2.5357   -4.0348   20.2280 N   0  0  0  0  0  0  0  0  0  0  0  0
   -6.6239    2.1012   21.9019 H   0  0  0  0  0  0  0  0  0  0  0  0
   -7.7649    1.6846   20.6291 H   0  0  0  0  0  0  0  0  0  0  0  0
   -8.0029    4.1356   20.5623 H   0  0  0  0  0  0  0  0  0  0  0  0
   -6.4352    4.6540   18.5182 H   0  0  0  0  0  0  0  0  0  0  0  0
   -4.3168    2.8610   18.8830 H   0  0  0  0  0  0  0  0  0  0  0  0
   -5.7268    2.3788   17.9624 H   0  0  0  0  0  0  0  0  0  0  0  0
   -5.0109    4.2131   21.2271 H   0  0  0  0  0  0  0  0  0  0  0  0
   -2.7906   -3.1236   17.5711 H   0  0  0  0  0  0  0  0  0  0  0  0
   -1.1985   -2.5689   18.1147 H   0  0  0  0  0  0  0  0  0  0  0  0
   -2.3574   -2.1705   15.3944 H   0  0  0  0  0  0  0  0  0  0  0  0
   -0.8918   -1.3683   15.9825 H   0  0  0  0  0  0  0  0  0  0  0  0
   -3.7801   -0.5076   16.3360 H   0  0  0  0  0  0  0  0  0  0  0  0
   -1.2471    1.0375   16.9894 H   0  0  0  0  0  0  0  0  0  0  0  0
   -2.8766    1.6665   17.1345 H   0  0  0  0  0  0  0  0  0  0  0  0
   -2.2227    1.2624   15.5448 H   0  0  0  0  0  0  0  0  0  0  0  0
  1  2  1  0
  2  3  2  0
  3  8  1  0
  3  4  1  0
  4  5  2  0
  5 21  1  0
  5  6  1  0
  6 30  1  0
  6  7  2  0
  7 26  1  0
  7  2  1  0
  8  9  1  0
  9 10  1  0
  9 32  1  0
  9 33  1  0
 10 11  1  0
 10 34  1  6
 11 12  1  0
 11 13  1  0
 11 35  1  6
 12  8  1  0
 12 36  1  0
 12 37  1  0
 13 14  1  0
 13 10  1  0
 13 38  1  1
 14 15  1  0
 14 16  1  0
 14 17  1  0
 17 18  2  0
 17 19  1  0
 19 20  1  0
 21 22  1  0
 22 23  1  0
 22 39  1  0
 22 40  1  0
 23 24  1  0
 23 41  1  0
 23 42  1  0
 24 25  1  0
 24 21  1  0
 24 43  1  6
 25 44  1  0
 25 45  1  0
 25 46  1  0
 26 27  1  0
 26 28  1  0
 26 29  1  0
 30 31  3  0
M  ISO  3   1   2  15   2  16   2
M  END
>  <minimizedAffinity>  (5) 
-8.68113

>  <mol_id>  (5) 
64410

>  <source_index>  (5) 
4

>  <layer>  (5) 
L1

>  <uniprot>  (5) 
P50053

>  <paff>  (5) 
9.3565000000000005

>  <smiles>  (5) 
[2H]c1c(N2C[C@@H]3[C@H](C2)[C@H]3C([2H])([2H])C(=O)O)nc(N2CC[C@@H]2C)c(C#N)c1C(F)(F)F

>  <aimnet_interaction_kcal_mol>  (5) 
-62.047352164786545

$$$$
L1:P50053:75542
     RDKit          3D

 49 52  0  0  0  0  0  0  0  0999 V2000
   -4.1305    0.8166   18.9158 C   0  0  0  0  0  0  0  0  0  0  0  0
   -3.2304    0.5739   17.8518 C   0  0  0  0  0  0  0  0  0  0  0  0
   -2.6636   -0.6735   17.7475 C   0  0  0  0  0  0  0  0  0  0  0  0
   -2.9223   -1.6663   18.7108 C   0  0  0  0  0  0  0  0  0  0  0  0
   -3.8892   -1.3327   19.7209 C   0  0  0  0  0  0  0  0  0  0  0  0
   -4.3709   -0.0908   19.8536 N   0  0  0  0  0  0  0  0  0  0  0  0
   -5.5853    4.7396   19.5894 C   0  0  1  0  0  0  0  0  0  0  0  0
   -6.4760    3.5308   19.6349 C   0  0  2  0  0  0  0  0  0  0  0  0
   -5.8490    2.2083   20.0061 C   0  0  0  0  0  0  0  0  0  0  0  0
   -4.7911    2.0018   19.0133 N   0  0  0  0  0  0  0  0  0  0  0  0
   -4.8774    2.9441   17.8998 C   0  0  0  0  0  0  0  0  0  0  0  0
   -5.8901    3.9662   18.3376 C   0  0  2  0  0  0  0  0  0  0  0  0
   -7.6080    6.2666   19.8710 C   0  0  0  0  0  0  0  0  0  0  0  0
   -6.1072    6.1668   19.6469 C   0  0  1  0  0  0  0  0  0  0  0  0
   -5.3508    7.0348   20.6416 C   0  0  0  0  0  0  0  0  0  0  0  0
   -5.8161    7.5374   21.6477 O   0  0  0  0  0  0  0  0  0  0  0  0
   -4.0710    7.2280   20.2505 O   0  0  0  0  0  0  0  0  0  0  0  0
   -3.6862    8.0479   20.6209 H   0  0  0  0  0  0  0  0  0  0  0  0
   -4.3448   -2.2466   20.5624 N   0  0  0  0  0  0  0  0  0  0  0  0
   -4.1365   -3.6818   20.7024 C   0  0  0  0  0  0  0  0  0  0  0  0
   -5.2015   -3.6803   21.8131 C   0  0  0  0  0  0  0  0  0  0  0  0
   -5.1979   -2.1349   21.7617 C   0  0  2  0  0  0  0  0  0  0  0  0
   -6.5188   -1.4265   21.6835 C   0  0  0  0  0  0  0  0  0  0  0  0
   -1.8108   -0.9748   16.5376 C   0  0  0  0  0  0  0  0  0  0  0  0
   -2.4458   -1.7407   15.6355 F   0  0  0  0  0  0  0  0  0  0  0  0
   -0.6692   -1.6213   16.8659 F   0  0  0  0  0  0  0  0  0  0  0  0
   -1.4349    0.1668   15.9003 F   0  0  0  0  0  0  0  0  0  0  0  0
   -2.2320   -2.8941   18.7418 C   0  0  0  0  0  0  0  0  0  0  0  0
   -1.6299   -3.8902   18.7723 N   0  0  0  0  0  0  0  0  0  0  0  0
   -2.9809    1.3470   17.1490 H   0  0  0  0  0  0  0  0  0  0  0  0
   -4.6119    4.5962   20.0381 H   0  0  0  0  0  0  0  0  0  0  0  0
   -7.5230    3.6521   19.8563 H   0  0  0  0  0  0  0  0  0  0  0  0
   -6.5888    1.4116   19.9397 H   0  0  0  0  0  0  0  0  0  0  0  0
   -5.4437    2.1779   21.0180 H   0  0  0  0  0  0  0  0  0  0  0  0
   -5.1948    2.4507   16.9751 H   0  0  0  0  0  0  0  0  0  0  0  0
   -3.9082    3.4105   17.7051 H   0  0  0  0  0  0  0  0  0  0  0  0
   -6.4789    4.4558   17.5750 H   0  0  0  0  0  0  0  0  0  0  0  0
   -7.9406    7.3010   19.8496 H   0  0  0  0  0  0  0  0  0  0  0  0
   -7.8913    5.8355   20.8254 H   0  0  0  0  0  0  0  0  0  0  0  0
   -8.1380    5.7308   19.0894 H   0  0  0  0  0  0  0  0  0  0  0  0
   -5.8899    6.6061   18.6670 H   0  0  0  0  0  0  0  0  0  0  0  0
   -3.1349   -3.9452   21.0436 H   0  0  0  0  0  0  0  0  0  0  0  0
   -4.3548   -4.2574   19.8095 H   0  0  0  0  0  0  0  0  0  0  0  0
   -4.8988   -4.1110   22.7619 H   0  0  0  0  0  0  0  0  0  0  0  0
   -6.1536   -4.0963   21.5026 H   0  0  0  0  0  0  0  0  0  0  0  0
   -4.5800   -1.7281   22.5590 H   0  0  0  0  0  0  0  0  0  0  0  0
   -7.1207   -1.8105   20.8611 H   0  0  0  0  0  0  0  0  0  0  0  0
   -6.3902   -0.3527   21.5932 H   0  0  0  0  0  0  0  0  0  0  0  0
   -7.0821   -1.6375   22.5914 H   0  0  0  0  0  0  0  0  0  0  0  0
  1  2  2  0
  2  3  1  0
  2 30  1  0
  3 24  1  0
  3  4  2  0
  4 28  1  0
  4  5  1  0
  5 19  1  0
  5  6  2  0
  6  1  1  0
  7  8  1  0
  7 31  1  1
  8  9  1  0
  8 32  1  6
  9 10  1  0
  9 33  1  0
  9 34  1  0
 10  1  1  0
 10 11  1  0
 11 12  1  0
 11 35  1  0
 11 36  1  0
 12  7  1  0
 12  8  1  0
 12 37  1  6
 13 14  1  0
 13 38  1  0
 13 39  1  0
 13 40  1  0
 14 15  1  0
 14  7  1  0
 14 41  1  6
 15 16  2  0
 15 17  1  0
 17 18  1  0
 19 20  1  0
 20 21  1  0
 20 42  1  0
 20 43  1  0
 21 22  1  0
 21 44  1  0
 21 45  1  0
 22 23  1  0
 22 19  1  0
 22 46  1  1
 23 47  1  0
 23 48  1  0
 23 49  1  0
 24 25  1  0
 24 26  1  0
 24 27  1  0
 28 29  3  0
M  END
>  <minimizedAffinity>  (6) 
-8.83955

>  <mol_id>  (6) 
75542

>  <source_index>  (6) 
5

>  <layer>  (6) 
L1

>  <uniprot>  (6) 
P50053

>  <paff>  (6) 
7.8996000000000004

>  <smiles>  (6) 
CC(C(=O)O)[C@H]1[C@@H]2CN(c3cc(C(F)(F)F)c(C#N)c(N4CC[C@@H]4C)n3)C[C@@H]21

>  <aimnet_interaction_kcal_mol>  (6) 
-60.671743346538634

$$$$
L1:P50053:97821
     RDKit          3D

 36 37  0  0  0  0  0  0  0  0999 V2000
   -4.5753    1.9111   17.7807 C   0  0  0  0  0  0  0  0  0  0  0  0
   -3.6776    1.3860   16.8393 C   0  0  0  0  0  0  0  0  0  0  0  0
   -3.0380    0.1963   17.1328 C   0  0  0  0  0  0  0  0  0  0  0  0
   -3.2573   -0.4364   18.3616 C   0  0  0  0  0  0  0  0  0  0  0  0
   -4.2670    0.1447   19.2184 C   0  0  0  0  0  0  0  0  0  0  0  0
   -4.8092    1.3380   18.9639 N   0  0  0  0  0  0  0  0  0  0  0  0
   -2.1847   -0.3691   16.0194 C   0  0  0  0  0  0  0  0  0  0  0  0
   -2.8546   -0.3591   14.8441 F   0  0  0  0  0  0  0  0  0  0  0  0
   -1.0722    0.4011   15.8253 F   0  0  0  0  0  0  0  0  0  0  0  0
   -1.7577   -1.6243   16.2239 F   0  0  0  0  0  0  0  0  0  0  0  0
   -5.4136    3.6489   16.2296 C   0  0  0  0  0  0  0  0  0  0  0  0
   -5.2870    3.0473   17.5369 N   0  0  0  0  0  0  0  0  0  0  0  0
   -6.0306    3.2061   18.1967 H   0  0  0  0  0  0  0  0  0  0  0  0
   -2.5758   -1.5953   18.7828 C   0  0  0  0  0  0  0  0  0  0  0  0
   -2.0377   -2.5569   19.1559 N   0  0  0  0  0  0  0  0  0  0  0  0
   -4.6717   -0.5345   20.3080 N   0  0  0  0  0  0  0  0  0  0  0  0
   -4.2554   -1.4452   20.4549 H   0  0  0  0  0  0  0  0  0  0  0  0
   -5.7873   -0.2931   21.1395 C   0  0  0  0  0  0  0  0  0  0  0  0
   -6.3476    0.9666   21.3410 C   0  0  0  0  0  0  0  0  0  0  0  0
   -7.5562    1.0889   22.0059 C   0  0  0  0  0  0  0  0  0  0  0  0
   -8.2096   -0.0312   22.5024 C   0  0  0  0  0  0  0  0  0  0  0  0
   -7.6099   -1.2721   22.3910 C   0  0  0  0  0  0  0  0  0  0  0  0
   -6.3604   -1.3993   21.7952 C   0  0  0  0  0  0  0  0  0  0  0  0
   -5.4045   -2.9062   21.9044 S   0  0  0  0  0  0  0  0  0  0  0  0
   -6.7083   -4.1716   21.9244 C   0  0  0  0  0  0  0  0  0  0  0  0
   -3.5244    1.8669   15.8886 H   0  0  0  0  0  0  0  0  0  0  0  0
   -4.4502    3.9895   15.8576 H   0  0  0  0  0  0  0  0  0  0  0  0
   -6.0632    4.5146   16.3134 H   0  0  0  0  0  0  0  0  0  0  0  0
   -5.8388    2.9720   15.4879 H   0  0  0  0  0  0  0  0  0  0  0  0
   -5.8313    1.8424   20.9799 H   0  0  0  0  0  0  0  0  0  0  0  0
   -7.9979    2.0629   22.1494 H   0  0  0  0  0  0  0  0  0  0  0  0
   -9.1776    0.0614   22.9753 H   0  0  0  0  0  0  0  0  0  0  0  0
   -8.1153   -2.1596   22.7362 H   0  0  0  0  0  0  0  0  0  0  0  0
   -6.2160   -5.1068   21.6710 H   0  0  0  0  0  0  0  0  0  0  0  0
   -7.4679   -3.8846   21.1461 H   0  0  0  0  0  0  0  0  0  0  0  0
   -7.1561   -4.2371   22.9136 H   0  0  0  0  0  0  0  0  0  0  0  0
  1  2  2  0
  2  3  1  0
  2 26  1  0
  3  7  1  0
  3  4  2  0
  4 14  1  0
  4  5  1  0
  5 16  1  0
  5  6  2  0
  6  1  1  0
  7  8  1  0
  7  9  1  0
  7 10  1  0
 11 12  1  0
 11 27  1  0
 11 28  1  0
 11 29  1  0
 12  1  1  0
 12 13  1  0
 14 15  3  0
 16 18  1  0
 16 17  1  0
 18 19  2  0
 19 20  1  0
 19 30  1  0
 20 21  2  0
 20 31  1  0
 21 22  1  0
 21 32  1  0
 22 23  2  0
 22 33  1  0
 23 24  1  0
 23 18  1  0
 24 25  1  0
 25 34  1  0
 25 35  1  0
 25 36  1  0
M  END
>  <minimizedAffinity>  (7) 
-7.18899

>  <mol_id>  (7) 
97821

>  <source_index>  (7) 
6

>  <layer>  (7) 
L1

>  <uniprot>  (7) 
P50053

>  <paff>  (7) 
7.7446999999999999

>  <smiles>  (7) 
CNc1cc(C(F)(F)F)c(C#N)c(Nc2ccccc2SC)n1

>  <aimnet_interaction_kcal_mol>  (7) 
-56.374511307947699

$$$$
L1:P50053:107700
     RDKit          3D

 57 59  0  0  0  0  0  0  0  0999 V2000
   -3.8341   -1.1334   19.1024 C   0  0  0  0  0  0  0  0  0  0  0  0
   -2.9089   -1.3230   18.0356 C   0  0  0  0  0  0  0  0  0  0  0  0
   -2.6756   -0.2938   17.1737 C   0  0  0  0  0  0  0  0  0  0  0  0
   -3.2851    0.9617   17.3781 C   0  0  0  0  0  0  0  0  0  0  0  0
   -4.2458    1.0250   18.4321 C   0  0  0  0  0  0  0  0  0  0  0  0
   -4.4294    0.0520   19.3151 N   0  0  0  0  0  0  0  0  0  0  0  0
   -4.6722   -3.1692   21.9348 C   0  0  1  0  0  0  0  0  0  0  0  0
   -3.9056   -4.1871   21.0950 C   0  0  0  0  0  0  0  0  0  0  0  0
   -3.3738   -3.4080   19.9010 C   0  0  0  0  0  0  0  0  0  0  0  0
   -4.1324   -2.1608   19.8954 N   0  0  0  0  0  0  0  0  0  0  0  0
   -5.1934   -2.1701   20.8945 C   0  0  0  0  0  0  0  0  0  0  0  0
   -6.6614   -4.6111   22.2665 C   0  0  0  0  0  0  0  0  0  0  0  0
   -5.6297   -3.7438   22.8512 N   0  0  0  0  0  0  0  0  0  0  0  0
   -6.1215   -2.9869   23.3158 H   0  0  0  0  0  0  0  0  0  0  0  0
   -1.8676   -0.5517   15.9333 C   0  0  0  0  0  0  0  0  0  0  0  0
   -0.9371    0.4038   15.7003 F   0  0  0  0  0  0  0  0  0  0  0  0
   -2.6495   -0.6217   14.8355 F   0  0  0  0  0  0  0  0  0  0  0  0
   -1.1827   -1.7290   16.0118 F   0  0  0  0  0  0  0  0  0  0  0  0
   -3.0179    2.0790   16.5748 C   0  0  0  0  0  0  0  0  0  0  0  0
   -2.8507    3.0331   15.9296 N   0  0  0  0  0  0  0  0  0  0  0  0
   -5.0163    2.1452   18.5437 N   0  0  0  0  0  0  0  0  0  0  0  0
   -4.8800    2.8454   17.8272 H   0  0  0  0  0  0  0  0  0  0  0  0
   -6.3149    2.1615   19.1000 C   0  0  0  0  0  0  0  0  0  0  0  0
   -6.5746    1.6949   20.3796 C   0  0  0  0  0  0  0  0  0  0  0  0
   -7.8721    1.6570   20.8831 C   0  0  0  0  0  0  0  0  0  0  0  0
   -8.9087    2.1497   20.0960 C   0  0  0  0  0  0  0  0  0  0  0  0
   -8.6619    2.6515   18.8295 C   0  0  0  0  0  0  0  0  0  0  0  0
   -7.3690    2.6601   18.3113 C   0  0  0  0  0  0  0  0  0  0  0  0
   -6.9472    3.2462   16.6860 S   0  0  0  0  0  0  0  0  0  0  0  0
   -8.4838    3.0212   15.7401 C   0  0  0  0  0  0  0  0  0  0  0  0
   -8.1369    1.0888   22.2333 C   0  0  0  0  0  0  0  0  0  0  0  0
   -8.4507   -0.4045   22.1787 C   0  0  0  0  0  0  0  0  0  0  0  0
   -8.2889   -1.0575   23.5189 C   0  0  0  0  0  0  0  0  0  0  0  0
   -7.9243   -2.2128   23.6903 O   0  0  0  0  0  0  0  0  0  0  0  0
   -8.5287   -0.2297   24.5473 O   0  0  0  0  0  0  0  0  0  0  0  0
   -9.0612   -0.6965   25.2537 H   0  0  0  0  0  0  0  0  0  0  0  0
   -2.4532   -2.2794   17.8639 H   0  0  0  0  0  0  0  0  0  0  0  0
   -3.9332   -2.6236   22.5268 H   0  0  0  0  0  0  0  0  0  0  0  0
   -4.5717   -4.9681   20.7497 H   0  0  0  0  0  0  0  0  0  0  0  0
   -3.1176   -4.6618   21.6759 H   0  0  0  0  0  0  0  0  0  0  0  0
   -3.5241   -3.9553   18.9680 H   0  0  0  0  0  0  0  0  0  0  0  0
   -2.3020   -3.2085   19.9968 H   0  0  0  0  0  0  0  0  0  0  0  0
   -6.1367   -2.5119   20.4751 H   0  0  0  0  0  0  0  0  0  0  0  0
   -5.3419   -1.1701   21.2953 H   0  0  0  0  0  0  0  0  0  0  0  0
   -6.2141   -5.5392   21.9075 H   0  0  0  0  0  0  0  0  0  0  0  0
   -7.2261   -4.1465   21.4561 H   0  0  0  0  0  0  0  0  0  0  0  0
   -7.3659   -4.8738   23.0538 H   0  0  0  0  0  0  0  0  0  0  0  0
   -5.7501    1.3428   20.9841 H   0  0  0  0  0  0  0  0  0  0  0  0
   -9.9165    2.1476   20.4912 H   0  0  0  0  0  0  0  0  0  0  0  0
   -9.4791    3.0372   18.2374 H   0  0  0  0  0  0  0  0  0  0  0  0
   -8.2109    3.0954   14.6905 H   0  0  0  0  0  0  0  0  0  0  0  0
   -9.2045    3.7996   15.9772 H   0  0  0  0  0  0  0  0  0  0  0  0
   -8.9094    2.0402   15.9349 H   0  0  0  0  0  0  0  0  0  0  0  0
   -8.9563    1.6134   22.7240 H   0  0  0  0  0  0  0  0  0  0  0  0
   -7.2619    1.2501   22.8586 H   0  0  0  0  0  0  0  0  0  0  0  0
   -7.8452   -0.9462   21.4543 H   0  0  0  0  0  0  0  0  0  0  0  0
   -9.4796   -0.5486   21.8401 H   0  0  0  0  0  0  0  0  0  0  0  0
  1  2  2  0
  2  3  1  0
  2 37  1  0
  3 15  1  0
  3  4  2  0
  4 19  1  0
  4  5  1  0
  5 21  1  0
  5  6  2  0
  6  1  1  0
  7  8  1  0
  7 38  1  1
  8  9  1  0
  8 39  1  0
  8 40  1  0
  9 10  1  0
  9 41  1  0
  9 42  1  0
 10  1  1  0
 10 11  1  0
 11  7  1  0
 11 43  1  0
 11 44  1  0
 12 13  1  0
 12 45  1  0
 12 46  1  0
 12 47  1  0
 13  7  1  0
 13 14  1  0
 15 16  1  0
 15 17  1  0
 15 18  1  0
 19 20  3  0
 21 23  1  0
 21 22  1  0
 23 24  2  0
 24 25  1  0
 24 48  1  0
 25 31  1  0
 25 26  2  0
 26 27  1  0
 26 49  1  0
 27 28  2  0
 27 50  1  0
 28 29  1  0
 28 23  1  0
 29 30  1  0
 30 51  1  0
 30 52  1  0
 30 53  1  0
 31 32  1  0
 31 54  1  0
 31 55  1  0
 32 33  1  0
 32 56  1  0
 32 57  1  0
 33 34  2  0
 33 35  1  0
 35 36  1  0
M  END
>  <minimizedAffinity>  (8) 
-8.67447

>  <mol_id>  (8) 
107700

>  <source_index>  (8) 
7

>  <layer>  (8) 
L1

>  <uniprot>  (8) 
P50053

>  <paff>  (8) 
8.1308000000000007

>  <smiles>  (8) 
CN[C@H]1CCN(c2cc(C(F)(F)F)c(C#N)c(Nc3cc(CCC(=O)O)ccc3SC)n2)C1

>  <aimnet_interaction_kcal_mol>  (8) 
-83.49979764536323

$$$$
L1:P50053:132156
     RDKit          3D

 45 47  0  0  0  0  0  0  0  0999 V2000
   -4.3025    1.1399   18.6271 C   0  0  0  0  0  0  0  0  0  0  0  0
   -4.5115    0.2189   19.5506 N   0  0  0  0  0  0  0  0  0  0  0  0
   -4.0351   -1.0231   19.3726 C   0  0  0  0  0  0  0  0  0  0  0  0
   -3.1285   -1.3157   18.3151 C   0  0  0  0  0  0  0  0  0  0  0  0
   -2.8766   -0.3500   17.3847 C   0  0  0  0  0  0  0  0  0  0  0  0
   -3.4359    0.9439   17.5288 C   0  0  0  0  0  0  0  0  0  0  0  0
   -4.4655   -1.9730   20.2014 N   0  0  0  0  0  0  0  0  0  0  0  0
   -3.8801   -3.3024   20.3195 C   0  0  0  0  0  0  0  0  0  0  0  0
   -4.6215   -3.9608   21.4807 C   0  0  0  0  0  0  0  0  0  0  0  0
   -5.4433   -2.8622   22.1548 C   0  0  2  0  0  0  0  0  0  0  0  0
   -6.6680   -3.3991   22.7204 N   0  0  0  0  0  0  0  0  0  0  0  0
   -5.6219   -1.7986   21.0742 C   0  0  0  0  0  0  0  0  0  0  0  0
   -7.1501   -2.6771   23.2451 H   0  0  0  0  0  0  0  0  0  0  0  0
   -7.3004   -3.6047   21.9434 H   0  0  0  0  0  0  0  0  0  0  0  0
   -2.0824   -0.6966   16.1468 C   0  0  0  0  0  0  0  0  0  0  0  0
   -2.8259   -0.6655   15.0257 F   0  0  0  0  0  0  0  0  0  0  0  0
   -1.0456    0.1588   15.9427 F   0  0  0  0  0  0  0  0  0  0  0  0
   -1.5407   -1.9410   16.2397 F   0  0  0  0  0  0  0  0  0  0  0  0
   -4.9456    2.3573   18.8563 N   0  0  0  0  0  0  0  0  0  0  0  0
   -5.0327    2.4914   19.8612 H   0  0  0  0  0  0  0  0  0  0  0  0
   -7.3664    2.7199   19.0684 C   0  0  0  0  0  0  0  0  0  0  0  0
   -8.6130    2.9046   18.4710 C   0  0  0  0  0  0  0  0  0  0  0  0
   -8.7264    3.0360   17.0995 C   0  0  0  0  0  0  0  0  0  0  0  0
   -7.5931    2.9994   16.3067 C   0  0  0  0  0  0  0  0  0  0  0  0
   -6.3456    2.8214   16.8887 C   0  0  0  0  0  0  0  0  0  0  0  0
   -6.2139    2.6290   18.2558 C   0  0  0  0  0  0  0  0  0  0  0  0
   -8.7882    2.1358   21.4466 C   0  0  0  0  0  0  0  0  0  0  0  0
   -7.1487    2.6314   20.8277 S   0  0  0  0  0  0  0  0  0  0  0  0
   -3.0938    2.0170   16.6856 C   0  0  0  0  0  0  0  0  0  0  0  0
   -2.8247    2.9021   15.9835 N   0  0  0  0  0  0  0  0  0  0  0  0
   -2.7012   -2.2975   18.2207 H   0  0  0  0  0  0  0  0  0  0  0  0
   -2.8063   -3.2243   20.5132 H   0  0  0  0  0  0  0  0  0  0  0  0
   -4.0033   -3.8644   19.3921 H   0  0  0  0  0  0  0  0  0  0  0  0
   -3.9428   -4.4272   22.1902 H   0  0  0  0  0  0  0  0  0  0  0  0
   -5.2983   -4.7324   21.1257 H   0  0  0  0  0  0  0  0  0  0  0  0
   -4.8465   -2.4325   22.9565 H   0  0  0  0  0  0  0  0  0  0  0  0
   -5.6473   -0.7853   21.4609 H   0  0  0  0  0  0  0  0  0  0  0  0
   -6.5467   -1.9804   20.5285 H   0  0  0  0  0  0  0  0  0  0  0  0
   -9.4953    2.9339   19.0918 H   0  0  0  0  0  0  0  0  0  0  0  0
   -9.7024    3.1621   16.6532 H   0  0  0  0  0  0  0  0  0  0  0  0
   -7.6678    3.1093   15.2359 H   0  0  0  0  0  0  0  0  0  0  0  0
   -5.4720    2.8587   16.2564 H   0  0  0  0  0  0  0  0  0  0  0  0
   -8.6659    1.9109   22.4996 H   0  0  0  0  0  0  0  0  0  0  0  0
   -9.1280    1.2457   20.9265 H   0  0  0  0  0  0  0  0  0  0  0  0
   -9.5118    2.9375   21.3714 H   0  0  0  0  0  0  0  0  0  0  0  0
  1  2  2  0
  2  3  1  0
  3  7  1  0
  3  4  2  0
  4  5  1  0
  4 31  1  0
  5 15  1  0
  5  6  2  0
  6 29  1  0
  6  1  1  0
  7  8  1  0
  8  9  1  0
  8 32  1  0
  8 33  1  0
  9 10  1  0
  9 34  1  0
  9 35  1  0
 10 11  1  0
 10 12  1  0
 10 36  1  1
 11 13  1  0
 11 14  1  0
 12  7  1  0
 12 37  1  0
 12 38  1  0
 15 16  1  0
 15 17  1  0
 15 18  1  0
 19  1  1  0
 19 20  1  0
 21 22  2  0
 22 23  1  0
 22 39  1  0
 23 24  2  0
 23 40  1  0
 24 25  1  0
 24 41  1  0
 25 26  2  0
 25 42  1  0
 26 19  1  0
 26 21  1  0
 27 28  1  0
 27 43  1  0
 27 44  1  0
 27 45  1  0
 28 21  1  0
 29 30  3  0
M  END
>  <minimizedAffinity>  (9) 
-8.02126

>  <mol_id>  (9) 
132156

>  <source_index>  (9) 
8

>  <layer>  (9) 
L1

>  <uniprot>  (9) 
P50053

>  <paff>  (9) 
8

>  <smiles>  (9) 
CSc1ccccc1Nc1nc(N2CC[C@H](N)C2)cc(C(F)(F)F)c1C#N

>  <aimnet_interaction_kcal_mol>  (9) 
-67.671642750222219

$$$$
L1:P50053:139579
     RDKit          3D

 45 47  0  0  0  0  0  0  0  0999 V2000
   -3.8656   -0.4963   19.3240 C   0  0  0  0  0  0  0  0  0  0  0  0
   -4.8649    0.2056   19.8424 N   0  0  0  0  0  0  0  0  0  0  0  0
   -5.8856   -0.4578   20.4195 C   0  0  0  0  0  0  0  0  0  0  0  0
   -5.8220   -1.8804   20.6155 C   0  0  0  0  0  0  0  0  0  0  0  0
   -4.6289   -2.4889   20.3837 C   0  0  0  0  0  0  0  0  0  0  0  0
   -3.6070   -1.8338   19.6514 C   0  0  0  0  0  0  0  0  0  0  0  0
   -6.9498    0.2354   20.8015 N   0  0  0  0  0  0  0  0  0  0  0  0
   -8.2631   -0.3631   21.0640 C   0  0  0  0  0  0  0  0  0  0  0  0
   -9.0771    0.7322   21.7293 C   0  0  2  0  0  0  0  0  0  0  0  0
  -10.3968    0.7189   21.2672 O   0  0  0  0  0  0  0  0  0  0  0  0
   -8.3773    2.0648   21.3821 C   0  0  1  0  0  0  0  0  0  0  0  0
   -8.3486    2.9997   22.4478 O   0  0  0  0  0  0  0  0  0  0  0  0
   -6.9517    1.6873   20.9597 C   0  0  0  0  0  0  0  0  0  0  0  0
  -10.9516    0.8392   22.0795 H   0  0  0  0  0  0  0  0  0  0  0  0
   -9.1808    2.9108   22.9901 H   0  0  0  0  0  0  0  0  0  0  0  0
   -4.3508   -3.8562   20.9424 C   0  0  0  0  0  0  0  0  0  0  0  0
   -5.3858   -4.3742   21.6132 F   0  0  0  0  0  0  0  0  0  0  0  0
   -3.2932   -3.8239   21.8145 F   0  0  0  0  0  0  0  0  0  0  0  0
   -3.9966   -4.7325   19.9741 F   0  0  0  0  0  0  0  0  0  0  0  0
   -3.0241    0.2359   18.4979 N   0  0  0  0  0  0  0  0  0  0  0  0
   -3.1679    1.2241   18.6639 H   0  0  0  0  0  0  0  0  0  0  0  0
   -2.8104    1.1305   16.2767 C   0  0  0  0  0  0  0  0  0  0  0  0
   -2.3181    0.9706   14.9897 C   0  0  0  0  0  0  0  0  0  0  0  0
   -2.2709   -0.2955   14.4237 C   0  0  0  0  0  0  0  0  0  0  0  0
   -2.5825   -1.4035   15.1979 C   0  0  0  0  0  0  0  0  0  0  0  0
   -2.8318   -1.2600   16.5522 C   0  0  0  0  0  0  0  0  0  0  0  0
   -2.8902    0.0055   17.1246 C   0  0  0  0  0  0  0  0  0  0  0  0
   -5.1493    2.5846   15.9912 C   0  0  0  0  0  0  0  0  0  0  0  0
   -3.5068    2.6829   16.7837 S   0  0  0  0  0  0  0  0  0  0  0  0
   -2.3918   -2.4688   19.3355 C   0  0  0  0  0  0  0  0  0  0  0  0
   -1.4200   -3.0506   19.0701 N   0  0  0  0  0  0  0  0  0  0  0  0
   -6.7235   -2.4415   20.8422 H   0  0  0  0  0  0  0  0  0  0  0  0
   -8.1827   -1.2549   21.6777 H   0  0  0  0  0  0  0  0  0  0  0  0
   -8.7378   -0.6722   20.1377 H   0  0  0  0  0  0  0  0  0  0  0  0
   -9.0267    0.5958   22.8145 H   0  0  0  0  0  0  0  0  0  0  0  0
   -8.9061    2.4892   20.5178 H   0  0  0  0  0  0  0  0  0  0  0  0
   -6.2361    1.9925   21.7232 H   0  0  0  0  0  0  0  0  0  0  0  0
   -6.6478    2.1720   20.0305 H   0  0  0  0  0  0  0  0  0  0  0  0
   -2.0129    1.8400   14.4270 H   0  0  0  0  0  0  0  0  0  0  0  0
   -2.0867   -0.3781   13.3667 H   0  0  0  0  0  0  0  0  0  0  0  0
   -2.7359   -2.3780   14.7620 H   0  0  0  0  0  0  0  0  0  0  0  0
   -3.0781   -2.1272   17.1364 H   0  0  0  0  0  0  0  0  0  0  0  0
   -5.9172    2.4509   16.7486 H   0  0  0  0  0  0  0  0  0  0  0  0
   -5.1725    1.7545   15.2908 H   0  0  0  0  0  0  0  0  0  0  0  0
   -5.3383    3.5054   15.4452 H   0  0  0  0  0  0  0  0  0  0  0  0
  1  2  2  0
  2  3  1  0
  3  7  1  0
  3  4  2  0
  4  5  1  0
  4 32  1  0
  5 16  1  0
  5  6  2  0
  6 30  1  0
  6  1  1  0
  7  8  1  0
  8  9  1  0
  8 33  1  0
  8 34  1  0
  9 10  1  0
  9 11  1  0
  9 35  1  1
 10 14  1  0
 11 12  1  0
 11 13  1  0
 11 36  1  6
 12 15  1  0
 13  7  1  0
 13 37  1  0
 13 38  1  0
 16 17  1  0
 16 18  1  0
 16 19  1  0
 20  1  1  0
 20 21  1  0
 22 23  2  0
 23 24  1  0
 23 39  1  0
 24 25  2  0
 24 40  1  0
 25 26  1  0
 25 41  1  0
 26 27  2  0
 26 42  1  0
 27 20  1  0
 27 22  1  0
 28 29  1  0
 28 43  1  0
 28 44  1  0
 28 45  1  0
 29 22  1  0
 30 31  3  0
M  END
>  <minimizedAffinity>  (10) 
-8.39228

>  <mol_id>  (10) 
139579

>  <source_index>  (10) 
9

>  <layer>  (10) 
L1

>  <uniprot>  (10) 
P50053

>  <paff>  (10) 
7.6989999999999998

>  <smiles>  (10) 
CSc1ccccc1Nc1nc(N2C[C@H](O)[C@@H](O)C2)cc(C(F)(F)F)c1C#N

>  <aimnet_interaction_kcal_mol>  (10) 
-102.74336751499946

$$$$
