L1:P50053:167
     RDKit          3D

 45 47  0  0  0  0  0  0  0  0999 V2000
   -3.4303   -1.1960   19.5033 C   0  0  0  0  0  0  0  0  0  0  0  0
   -4.4161   -0.4135   20.0055 N   0  0  0  0  0  0  0  0  0  0  0  0
   -5.3609   -0.9069   20.8315 C   0  0  0  0  0  0  0  0  0  0  0  0
   -5.3448   -2.2502   21.1691 C   0  0  0  0  0  0  0  0  0  0  0  0
   -4.3483   -3.0965   20.6632 C   0  0  0  0  0  0  0  0  0  0  0  0
   -3.3735   -2.5563   19.8137 C   0  0  0  0  0  0  0  0  0  0  0  0
   -6.3093   -0.0480   21.3042 N   0  0  0  0  0  0  0  0  0  0  0  0
   -7.5470   -0.5463   21.8969 C   0  0  0  0  0  0  0  0  0  0  0  0
   -8.1738    0.6983   22.5251 C   0  0  0  0  0  0  0  0  0  0  0  0
   -7.7412    1.8105   21.5735 C   0  0  1  0  0  0  0  0  0  0  0  0
   -7.9084    3.1374   22.1612 N   0  0  0  0  0  0  0  0  0  0  0  0
   -6.2899    1.4050   21.2249 C   0  0  0  0  0  0  0  0  0  0  0  0
   -7.5323    3.8460   21.5327 H   0  0  0  0  0  0  0  0  0  0  0  0
   -7.3719    3.2074   23.0257 H   0  0  0  0  0  0  0  0  0  0  0  0
   -4.3397   -4.5534   21.0329 C   0  0  0  0  0  0  0  0  0  0  0  0
   -3.3122   -4.8721   21.8633 F   0  0  0  0  0  0  0  0  0  0  0  0
   -5.4717   -4.9505   21.6793 F   0  0  0  0  0  0  0  0  0  0  0  0
   -4.2308   -5.3657   19.9493 F   0  0  0  0  0  0  0  0  0  0  0  0
   -2.4857   -0.6207   18.6353 N   0  0  0  0  0  0  0  0  0  0  0  0
   -1.8028   -0.0040   19.0691 H   0  0  0  0  0  0  0  0  0  0  0  0
   -2.9936    0.6519   16.6121 C   0  0  0  0  0  0  0  0  0  0  0  0
   -2.9631    0.7961   15.2179 C   0  0  0  0  0  0  0  0  0  0  0  0
   -2.4222   -0.2099   14.4199 C   0  0  0  0  0  0  0  0  0  0  0  0
   -1.9052   -1.3583   15.0115 C   0  0  0  0  0  0  0  0  0  0  0  0
   -1.9248   -1.5025   16.4019 C   0  0  0  0  0  0  0  0  0  0  0  0
   -2.4649   -0.5071   17.2267 C   0  0  0  0  0  0  0  0  0  0  0  0
   -4.8085    2.6832   16.3480 C   0  0  0  0  0  0  0  0  0  0  0  0
   -3.7112    1.9704   17.6015 S   0  0  0  0  0  0  0  0  0  0  0  0
   -2.3359   -3.3811   19.2700 C   0  0  0  0  0  0  0  0  0  0  0  0
   -1.4921   -4.0324   18.8129 N   0  0  0  0  0  0  0  0  0  0  0  0
   -6.0706   -2.6302   21.7967 H   0  0  0  0  0  0  0  0  0  0  0  0
   -7.3425   -1.2876   22.6409 H   0  0  0  0  0  0  0  0  0  0  0  0
   -8.1885   -1.0184   21.1824 H   0  0  0  0  0  0  0  0  0  0  0  0
   -7.7940    0.8653   23.5114 H   0  0  0  0  0  0  0  0  0  0  0  0
   -9.2353    0.6269   22.6392 H   0  0  0  0  0  0  0  0  0  0  0  0
   -8.3378    1.9016   20.6900 H   0  0  0  0  0  0  0  0  0  0  0  0
   -5.5988    1.8165   21.9306 H   0  0  0  0  0  0  0  0  0  0  0  0
   -5.9779    1.7639   20.2664 H   0  0  0  0  0  0  0  0  0  0  0  0
   -3.3427    1.6505   14.7810 H   0  0  0  0  0  0  0  0  0  0  0  0
   -2.4051   -0.1036   13.3935 H   0  0  0  0  0  0  0  0  0  0  0  0
   -1.5062   -2.1057   14.4222 H   0  0  0  0  0  0  0  0  0  0  0  0
   -1.5345   -2.3574   16.8283 H   0  0  0  0  0  0  0  0  0  0  0  0
   -5.3393    3.5117   16.7683 H   0  0  0  0  0  0  0  0  0  0  0  0
   -5.5066    1.9410   16.0214 H   0  0  0  0  0  0  0  0  0  0  0  0
   -4.2275    3.0178   15.5141 H   0  0  0  0  0  0  0  0  0  0  0  0
  1  2  2  0
  2  3  1  0
  3  7  1  0
  3  4  2  0
  4  5  1  0
  4 31  1  0
  5 15  1  0
  5  6  2  0
  6 29  1  0
  6  1  1  0
  7  8  1  0
  8  9  1  0
  8 32  1  0
  8 33  1  0
  9 10  1  0
  9 34  1  0
  9 35  1  0
 10 11  1  0
 10 12  1  0
 10 36  1  6
 11 13  1  0
 11 14  1  0
 12  7  1  0
 12 37  1  0
 12 38  1  0
 15 16  1  0
 15 17  1  0
 15 18  1  0
 19  1  1  0
 19 20  1  0
 21 22  2  0
 22 23  1  0
 22 39  1  0
 23 24  2  0
 23 40  1  0
 24 25  1  0
 24 41  1  0
 25 26  2  0
 25 42  1  0
 26 19  1  0
 26 21  1  0
 27 28  1  0
 27 43  1  0
 27 44  1  0
 27 45  1  0
 28 21  1  0
 29 30  3  0
M  END
>  <minimizedAffinity>  (1) 
-8.30219

>  <mol_id>  (1) 
167

>  <source_index>  (1) 
0

>  <layer>  (1) 
L1

>  <uniprot>  (1) 
P50053

>  <paff>  (1) 
8.2596000000000007

>  <smiles>  (1) 
CSc1ccccc1Nc1nc(N2CC[C@@H](N)C2)cc(C(F)(F)F)c1C#N

$$$$
L1:P50053:19531
     RDKit          3D

 63 65  0  0  0  0  0  0  0  0999 V2000
   -3.6639    0.4537   18.2699 C   0  0  0  0  0  0  0  0  0  0  0  0
   -4.3619    1.5297   17.8289 N   0  0  0  0  0  0  0  0  0  0  0  0
   -4.2759    1.9408   16.5476 C   0  0  0  0  0  0  0  0  0  0  0  0
   -3.4488    1.2670   15.6645 C   0  0  0  0  0  0  0  0  0  0  0  0
   -2.6896    0.1701   16.0983 C   0  0  0  0  0  0  0  0  0  0  0  0
   -2.7882   -0.2379   17.4367 C   0  0  0  0  0  0  0  0  0  0  0  0
   -5.0189    3.0197   16.1703 N   0  0  0  0  0  0  0  0  0  0  0  0
   -6.4644    3.0399   16.3422 C   0  0  0  0  0  0  0  0  0  0  0  0
   -6.9128    4.2469   15.5188 C   0  0  0  0  0  0  0  0  0  0  0  0
   -5.7347    5.2225   15.6489 C   0  0  1  0  0  0  0  0  0  0  0  0
   -4.5316    4.2453   15.5517 C   0  0  0  0  0  0  0  0  0  0  0  0
   -5.7392    6.3152   14.6543 N   0  0  0  0  0  0  0  0  0  0  0  0
   -4.4850    7.0737   14.6759 C   0  0  0  0  0  0  0  0  0  0  0  0
   -5.9730    5.8025   13.3006 C   0  0  0  0  0  0  0  0  0  0  0  0
   -1.7861   -0.5431   15.1310 C   0  0  0  0  0  0  0  0  0  0  0  0
   -1.9342   -0.1193   13.8440 F   0  0  0  0  0  0  0  0  0  0  0  0
   -0.4698   -0.3712   15.4227 F   0  0  0  0  0  0  0  0  0  0  0  0
   -2.0069   -1.8843   15.1013 F   0  0  0  0  0  0  0  0  0  0  0  0
   -3.9012    0.1610   19.6129 N   0  0  0  0  0  0  0  0  0  0  0  0
   -3.0191    0.1406   20.1156 H   0  0  0  0  0  0  0  0  0  0  0  0
   -5.7929   -0.6510   21.0093 C   0  0  0  0  0  0  0  0  0  0  0  0
   -6.9472   -0.3223   21.7363 C   0  0  0  0  0  0  0  0  0  0  0  0
   -7.3352    1.0081   21.9055 C   0  0  0  0  0  0  0  0  0  0  0  0
   -6.5924    2.0389   21.3263 C   0  0  0  0  0  0  0  0  0  0  0  0
   -5.4533    1.7133   20.5789 C   0  0  0  0  0  0  0  0  0  0  0  0
   -5.0197    0.3835   20.4375 C   0  0  0  0  0  0  0  0  0  0  0  0
   -5.7903   -3.0482   22.4035 C   0  0  0  0  0  0  0  0  0  0  0  0
   -5.3940   -2.3865   20.7616 S   0  0  0  0  0  0  0  0  0  0  0  0
   -7.0019    3.4793   21.5153 C   0  0  0  0  0  0  0  0  0  0  0  0
   -6.3711    4.4280   20.4882 C   0  0  1  0  0  0  0  0  0  0  0  0
   -7.3861    5.0261   19.5144 C   0  0  0  0  0  0  0  0  0  0  0  0
   -5.6315    5.5121   21.2330 C   0  0  0  0  0  0  0  0  0  0  0  0
   -6.1048    6.5780   21.5934 O   0  0  0  0  0  0  0  0  0  0  0  0
   -4.3285    5.2454   21.4386 O   0  0  0  0  0  0  0  0  0  0  0  0
   -3.9954    6.0368   21.9120 H   0  0  0  0  0  0  0  0  0  0  0  0
   -1.9725   -1.3130   17.9198 C   0  0  0  0  0  0  0  0  0  0  0  0
   -1.3525   -2.1891   18.3621 N   0  0  0  0  0  0  0  0  0  0  0  0
   -3.3906    1.5739   14.6809 H   0  0  0  0  0  0  0  0  0  0  0  0
   -6.7240    3.1639   17.3728 H   0  0  0  0  0  0  0  0  0  0  0  0
   -6.9310    2.1292   16.0293 H   0  0  0  0  0  0  0  0  0  0  0  0
   -7.8088    4.6727   15.9198 H   0  0  0  0  0  0  0  0  0  0  0  0
   -7.1401    3.9990   14.5031 H   0  0  0  0  0  0  0  0  0  0  0  0
   -5.7393    5.7994   16.5501 H   0  0  0  0  0  0  0  0  0  0  0  0
   -3.6863    4.6293   16.0837 H   0  0  0  0  0  0  0  0  0  0  0  0
   -4.2048    4.0950   14.5440 H   0  0  0  0  0  0  0  0  0  0  0  0
   -4.3121    7.4490   15.6629 H   0  0  0  0  0  0  0  0  0  0  0  0
   -4.5512    7.8920   13.9897 H   0  0  0  0  0  0  0  0  0  0  0  0
   -3.6762    6.4338   14.3909 H   0  0  0  0  0  0  0  0  0  0  0  0
   -6.8881    5.2483   13.2822 H   0  0  0  0  0  0  0  0  0  0  0  0
   -5.1632    5.1634   13.0165 H   0  0  0  0  0  0  0  0  0  0  0  0
   -6.0382    6.6216   12.6153 H   0  0  0  0  0  0  0  0  0  0  0  0
   -7.5177   -1.0751   22.1520 H   0  0  0  0  0  0  0  0  0  0  0  0
   -8.1755    1.2309   22.4616 H   0  0  0  0  0  0  0  0  0  0  0  0
   -4.9192    2.4682   20.1208 H   0  0  0  0  0  0  0  0  0  0  0  0
   -5.6006   -4.1011   22.4190 H   0  0  0  0  0  0  0  0  0  0  0  0
   -6.8225   -2.8685   22.6209 H   0  0  0  0  0  0  0  0  0  0  0  0
   -5.1816   -2.5653   23.1391 H   0  0  0  0  0  0  0  0  0  0  0  0
   -6.7039    3.7917   22.4943 H   0  0  0  0  0  0  0  0  0  0  0  0
   -8.0625    3.5278   21.3827 H   0  0  0  0  0  0  0  0  0  0  0  0
   -5.6961    3.8613   19.8814 H   0  0  0  0  0  0  0  0  0  0  0  0
   -8.0989    5.6113   20.0570 H   0  0  0  0  0  0  0  0  0  0  0  0
   -7.8917    4.2375   18.9972 H   0  0  0  0  0  0  0  0  0  0  0  0
   -6.8782    5.6482   18.8073 H   0  0  0  0  0  0  0  0  0  0  0  0
  1  2  2  0
  2  3  1  0
  3  7  1  0
  3  4  2  0
  4  5  1  0
  4 38  1  0
  5 15  1  0
  5  6  2  0
  6 36  1  0
  6  1  1  0
  7  8  1  0
  8  9  1  0
  8 39  1  0
  8 40  1  0
  9 10  1  0
  9 41  1  0
  9 42  1  0
 10 12  1  0
 10 11  1  0
 10 43  1  1
 11  7  1  0
 11 44  1  0
 11 45  1  0
 12 13  1  0
 12 14  1  0
 13 46  1  0
 13 47  1  0
 13 48  1  0
 14 49  1  0
 14 50  1  0
 14 51  1  0
 15 16  1  0
 15 17  1  0
 15 18  1  0
 19  1  1  0
 19 20  1  0
 21 22  2  0
 22 23  1  0
 22 52  1  0
 23 24  2  0
 23 53  1  0
 24 29  1  0
 24 25  1  0
 25 26  2  0
 25 54  1  0
 26 19  1  0
 26 21  1  0
 27 28  1  0
 27 55  1  0
 27 56  1  0
 27 57  1  0
 28 21  1  0
 29 30  1  0
 29 58  1  0
 29 59  1  0
 30 31  1  0
 30 32  1  0
 30 60  1  6
 31 61  1  0
 31 62  1  0
 31 63  1  0
 32 33  2  0
 32 34  1  0
 34 35  1  0
 36 37  3  0
M  END
>  <minimizedAffinity>  (2) 
-8.62125

>  <mol_id>  (2) 
19531

>  <source_index>  (2) 
1

>  <layer>  (2) 
L1

>  <uniprot>  (2) 
P50053

>  <paff>  (2) 
7.5686

>  <smiles>  (2) 
CSc1ccc(CC(C)C(=O)O)cc1Nc1nc(N2CC[C@H](N(C)C)C2)cc(C(F)(F)F)c1C#N

$$$$
L1:P50053:24618
     RDKit          3D

 48 50  0  0  0  0  0  0  0  0999 V2000
   -3.1939   -0.9644   18.0505 C   0  0  0  0  0  0  0  0  0  0  0  0
   -4.1321   -0.1337   18.5779 N   0  0  0  0  0  0  0  0  0  0  0  0
   -4.7900   -0.4273   19.7171 C   0  0  0  0  0  0  0  0  0  0  0  0
   -4.5104   -1.6073   20.3813 C   0  0  0  0  0  0  0  0  0  0  0  0
   -3.5401   -2.4868   19.8816 C   0  0  0  0  0  0  0  0  0  0  0  0
   -2.8633   -2.1553   18.6954 C   0  0  0  0  0  0  0  0  0  0  0  0
   -2.4670    1.9105   16.5254 C   0  0  0  0  0  0  0  0  0  0  0  0
   -2.8259    0.5532   15.9440 C   0  0  1  0  0  0  0  0  0  0  0  0
   -1.7377   -0.0880   15.0630 C   0  0  0  0  0  0  0  0  0  0  0  0
   -1.3678   -0.9240   16.2898 C   0  0  0  0  0  0  0  0  0  0  0  0
   -2.6138   -0.5207   16.8596 N   0  0  0  0  0  0  0  0  0  0  0  0
   -5.7204    0.4629   20.1701 N   0  0  0  0  0  0  0  0  0  0  0  0
   -6.7723    0.0408   21.0862 C   0  0  0  0  0  0  0  0  0  0  0  0
   -7.3836    1.3598   21.5530 C   0  0  0  0  0  0  0  0  0  0  0  0
   -7.2230    2.2682   20.3324 C   0  0  2  0  0  0  0  0  0  0  0  0
   -5.8424    1.8612   19.7928 C   0  0  0  0  0  0  0  0  0  0  0  0
   -7.3531    3.7529   20.6865 C   0  0  0  0  0  0  0  0  0  0  0  0
   -6.4078    4.2081   21.7996 C   0  0  0  0  0  0  0  0  0  0  0  0
   -5.6617    5.4700   21.4547 C   0  0  0  0  0  0  0  0  0  0  0  0
   -6.1006    6.6061   21.4274 O   0  0  0  0  0  0  0  0  0  0  0  0
   -4.3655    5.2269   21.1808 O   0  0  0  0  0  0  0  0  0  0  0  0
   -3.9888    6.1131   20.9947 H   0  0  0  0  0  0  0  0  0  0  0  0
   -3.2375   -3.7599   20.6238 C   0  0  0  0  0  0  0  0  0  0  0  0
   -1.9180   -3.8989   20.9371 F   0  0  0  0  0  0  0  0  0  0  0  0
   -3.5626   -4.8699   19.9105 F   0  0  0  0  0  0  0  0  0  0  0  0
   -3.9039   -3.8465   21.8053 F   0  0  0  0  0  0  0  0  0  0  0  0
   -1.8389   -3.0250   18.2017 C   0  0  0  0  0  0  0  0  0  0  0  0
   -0.9951   -3.7368   17.8432 N   0  0  0  0  0  0  0  0  0  0  0  0
   -5.0183   -1.8415   21.2486 H   0  0  0  0  0  0  0  0  0  0  0  0
   -2.6471    2.6706   15.7942 H   0  0  0  0  0  0  0  0  0  0  0  0
   -1.4331    1.9184   16.8009 H   0  0  0  0  0  0  0  0  0  0  0  0
   -3.0681    2.0982   17.3905 H   0  0  0  0  0  0  0  0  0  0  0  0
   -3.7886    0.7964   15.5452 H   0  0  0  0  0  0  0  0  0  0  0  0
   -0.9747    0.5842   14.7300 H   0  0  0  0  0  0  0  0  0  0  0  0
   -1.9591   -0.5323   14.1151 H   0  0  0  0  0  0  0  0  0  0  0  0
   -0.5031   -0.5820   16.8191 H   0  0  0  0  0  0  0  0  0  0  0  0
   -1.0931   -1.9548   16.2074 H   0  0  0  0  0  0  0  0  0  0  0  0
   -6.3653   -0.5059   21.9110 H   0  0  0  0  0  0  0  0  0  0  0  0
   -7.4863   -0.6129   20.6304 H   0  0  0  0  0  0  0  0  0  0  0  0
   -6.8536    1.7517   22.3958 H   0  0  0  0  0  0  0  0  0  0  0  0
   -8.3997    1.2621   21.8737 H   0  0  0  0  0  0  0  0  0  0  0  0
   -7.9911    2.1481   19.5972 H   0  0  0  0  0  0  0  0  0  0  0  0
   -5.0690    2.4466   20.2445 H   0  0  0  0  0  0  0  0  0  0  0  0
   -5.7490    2.0146   18.7380 H   0  0  0  0  0  0  0  0  0  0  0  0
   -8.3588    3.9375   21.0017 H   0  0  0  0  0  0  0  0  0  0  0  0
   -7.0903    4.3063   19.8092 H   0  0  0  0  0  0  0  0  0  0  0  0
   -5.6965    3.4301   21.9829 H   0  0  0  0  0  0  0  0  0  0  0  0
   -7.0044    4.4136   22.6637 H   0  0  0  0  0  0  0  0  0  0  0  0
  1  2  2  0
  2  3  1  0
  3 12  1  0
  3  4  2  0
  4  5  1  0
  4 29  1  0
  5 23  1  0
  5  6  2  0
  6 27  1  0
  6  1  1  0
  7  8  1  0
  7 30  1  0
  7 31  1  0
  7 32  1  0
  8  9  1  0
  8 33  1  6
  9 10  1  0
  9 34  1  0
  9 35  1  0
 10 11  1  0
 10 36  1  0
 10 37  1  0
 11  1  1  0
 11  8  1  0
 12 13  1  0
 13 14  1  0
 13 38  1  0
 13 39  1  0
 14 15  1  0
 14 40  1  0
 14 41  1  0
 15 17  1  0
 15 16  1  0
 15 42  1  6
 16 12  1  0
 16 43  1  0
 16 44  1  0
 17 18  1  0
 17 45  1  0
 17 46  1  0
 18 19  1  0
 18 47  1  0
 18 48  1  0
 19 20  2  0
 19 21  1  0
 21 22  1  0
 23 24  1  0
 23 25  1  0
 23 26  1  0
 27 28  3  0
M  END
>  <minimizedAffinity>  (3) 
-8.85392

>  <mol_id>  (3) 
24618

>  <source_index>  (3) 
2

>  <layer>  (3) 
L1

>  <uniprot>  (3) 
P50053

>  <paff>  (3) 
7.8125

>  <smiles>  (3) 
C[C@H]1CCN1c1nc(N2CC[C@@H](CCC(=O)O)C2)cc(C(F)(F)F)c1C#N

$$$$
L1:P50053:54615
     RDKit          3D

 59 61  0  0  0  0  0  0  0  0999 V2000
   -5.1973   -0.9310   20.1456 C   0  0  0  0  0  0  0  0  0  0  0  0
   -4.6528   -0.1666   19.1709 N   0  0  0  0  0  0  0  0  0  0  0  0
   -3.5933   -0.5888   18.4503 C   0  0  0  0  0  0  0  0  0  0  0  0
   -3.0422   -1.8324   18.7113 C   0  0  0  0  0  0  0  0  0  0  0  0
   -3.5742   -2.6501   19.7193 C   0  0  0  0  0  0  0  0  0  0  0  0
   -4.6753   -2.1871   20.4492 C   0  0  0  0  0  0  0  0  0  0  0  0
   -3.1211    0.2349   17.4718 N   0  0  0  0  0  0  0  0  0  0  0  0
   -2.9663    1.6599   17.7633 C   0  0  0  0  0  0  0  0  0  0  0  0
   -3.1160    2.3436   16.3832 C   0  0  2  0  0  0  0  0  0  0  0  0
   -4.5141    2.5612   15.9742 N   0  0  0  0  0  0  0  0  0  0  0  0
   -2.4697    1.3174   15.4619 C   0  0  0  0  0  0  0  0  0  0  0  0
   -2.9186   -0.0415   16.0416 C   0  0  1  0  0  0  0  0  0  0  0  0
   -4.5410    3.1903   15.1740 H   0  0  0  0  0  0  0  0  0  0  0  0
   -5.0180    3.0246   16.7305 H   0  0  0  0  0  0  0  0  0  0  0  0
   -1.8686   -1.1362   15.7672 C   0  0  0  0  0  0  0  0  0  0  0  0
   -2.4117   -2.2543   15.0650 O   0  0  0  0  0  0  0  0  0  0  0  0
   -1.6623   -2.7969   14.7679 H   0  0  0  0  0  0  0  0  0  0  0  0
   -2.9731   -3.9995   19.9892 C   0  0  0  0  0  0  0  0  0  0  0  0
   -3.8393   -5.0294   19.7757 F   0  0  0  0  0  0  0  0  0  0  0  0
   -2.5458   -4.1350   21.2718 F   0  0  0  0  0  0  0  0  0  0  0  0
   -1.8993   -4.2550   19.1949 F   0  0  0  0  0  0  0  0  0  0  0  0
   -6.3232   -0.4322   20.8328 N   0  0  0  0  0  0  0  0  0  0  0  0
   -6.5908   -0.9748   21.6445 H   0  0  0  0  0  0  0  0  0  0  0  0
   -8.1232    1.2852   20.7163 C   0  0  0  0  0  0  0  0  0  0  0  0
   -8.4600    2.6454   20.6404 C   0  0  0  0  0  0  0  0  0  0  0  0
   -7.4762    3.6326   20.7135 C   0  0  0  0  0  0  0  0  0  0  0  0
   -6.1345    3.2782   20.8683 C   0  0  0  0  0  0  0  0  0  0  0  0
   -5.7934    1.9193   20.9340 C   0  0  0  0  0  0  0  0  0  0  0  0
   -6.7694    0.9081   20.8564 C   0  0  0  0  0  0  0  0  0  0  0  0
  -10.7994    1.2323   20.1075 C   0  0  0  0  0  0  0  0  0  0  0  0
   -9.4990    0.1271   20.7141 S   0  0  0  0  0  0  0  0  0  0  0  0
   -5.0609    4.3376   20.9071 C   0  0  0  0  0  0  0  0  0  0  0  0
   -5.6380    5.7216   20.6253 C   0  0  0  0  0  0  0  0  0  0  0  0
   -4.8789    6.8022   21.3581 C   0  0  0  0  0  0  0  0  0  0  0  0
   -4.0405    7.5309   20.5659 N   0  0  0  0  0  0  0  0  0  0  0  0
   -4.9781    7.0379   22.5553 O   0  0  0  0  0  0  0  0  0  0  0  0
   -3.9304    7.3633   19.5757 H   0  0  0  0  0  0  0  0  0  0  0  0
   -3.5041    8.2706   21.0004 H   0  0  0  0  0  0  0  0  0  0  0  0
   -5.2733   -2.9837   21.4776 C   0  0  0  0  0  0  0  0  0  0  0  0
   -5.7592   -3.6477   22.2953 N   0  0  0  0  0  0  0  0  0  0  0  0
   -2.2338   -2.1600   18.1598 H   0  0  0  0  0  0  0  0  0  0  0  0
   -2.0029    1.8595   18.1840 H   0  0  0  0  0  0  0  0  0  0  0  0
   -3.6802    2.0138   18.4774 H   0  0  0  0  0  0  0  0  0  0  0  0
   -2.6832    3.3221   16.3738 H   0  0  0  0  0  0  0  0  0  0  0  0
   -1.4036    1.4060   15.4826 H   0  0  0  0  0  0  0  0  0  0  0  0
   -2.7575    1.4437   14.4391 H   0  0  0  0  0  0  0  0  0  0  0  0
   -3.8114   -0.4245   15.5931 H   0  0  0  0  0  0  0  0  0  0  0  0
   -1.4761   -1.4767   16.7026 H   0  0  0  0  0  0  0  0  0  0  0  0
   -1.1058   -0.7066   15.1520 H   0  0  0  0  0  0  0  0  0  0  0  0
   -9.4487    2.9194   20.5290 H   0  0  0  0  0  0  0  0  0  0  0  0
   -7.7413    4.6281   20.6529 H   0  0  0  0  0  0  0  0  0  0  0  0
   -4.8019    1.6542   21.0420 H   0  0  0  0  0  0  0  0  0  0  0  0
  -11.7220    0.6945   20.0404 H   0  0  0  0  0  0  0  0  0  0  0  0
  -10.5308    1.6018   19.1399 H   0  0  0  0  0  0  0  0  0  0  0  0
  -10.9137    2.0535   20.7838 H   0  0  0  0  0  0  0  0  0  0  0  0
   -4.3210    4.1113   20.1681 H   0  0  0  0  0  0  0  0  0  0  0  0
   -4.6284    4.3447   21.8858 H   0  0  0  0  0  0  0  0  0  0  0  0
   -6.6605    5.7417   20.9399 H   0  0  0  0  0  0  0  0  0  0  0  0
   -5.5565    5.9099   19.5751 H   0  0  0  0  0  0  0  0  0  0  0  0
  1  2  2  0
  2  3  1  0
  3  7  1  0
  3  4  2  0
  4  5  1  0
  4 41  1  0
  5 18  1  0
  5  6  2  0
  6 39  1  0
  6  1  1  0
  7  8  1  0
  8  9  1  0
  8 42  1  0
  8 43  1  0
  9 10  1  0
  9 11  1  0
  9 44  1  1
 10 13  1  0
 10 14  1  0
 11 12  1  0
 11 45  1  0
 11 46  1  0
 12 15  1  0
 12  7  1  0
 12 47  1  6
 15 16  1  0
 15 48  1  0
 15 49  1  0
 16 17  1  0
 18 19  1  0
 18 20  1  0
 18 21  1  0
 22  1  1  0
 22 23  1  0
 24 25  2  0
 25 26  1  0
 25 50  1  0
 26 27  2  0
 26 51  1  0
 27 32  1  0
 27 28  1  0
 28 29  2  0
 28 52  1  0
 29 22  1  0
 29 24  1  0
 30 31  1  0
 30 53  1  0
 30 54  1  0
 30 55  1  0
 31 24  1  0
 32 33  1  0
 32 56  1  0
 32 57  1  0
 33 34  1  0
 33 58  1  0
 33 59  1  0
 34 35  1  0
 34 36  2  0
 35 37  1  0
 35 38  1  0
 39 40  3  0
M  END
>  <minimizedAffinity>  (4) 
-8.73047

>  <mol_id>  (4) 
54615

>  <source_index>  (4) 
3

>  <layer>  (4) 
L1

>  <uniprot>  (4) 
P50053

>  <paff>  (4) 
8.4948999999999995

>  <smiles>  (4) 
CSc1ccc(CCC(N)=O)cc1Nc1nc(N2C[C@H](N)C[C@H]2CO)cc(C(F)(F)F)c1C#N

$$$$
L1:P50053:64410
     RDKit          3D

 46 49  0  0  0  0  0  0  0  0999 V2000
   -5.9599   -0.3466   21.3980 H   0  0  0  0  0  0  0  0  0  0  0  0
   -5.2387   -0.5607   20.6147 C   0  0  0  0  0  0  0  0  0  0  0  0
   -4.8740    0.4252   19.7155 C   0  0  0  0  0  0  0  0  0  0  0  0
   -3.9786    0.1422   18.7483 N   0  0  0  0  0  0  0  0  0  0  0  0
   -3.4156   -1.0880   18.6204 C   0  0  0  0  0  0  0  0  0  0  0  0
   -3.7479   -2.1115   19.5070 C   0  0  0  0  0  0  0  0  0  0  0  0
   -4.6797   -1.8434   20.5236 C   0  0  0  0  0  0  0  0  0  0  0  0
   -5.3882    1.6906   19.7656 N   0  0  0  0  0  0  0  0  0  0  0  0
   -6.3597    2.0392   20.8013 C   0  0  0  0  0  0  0  0  0  0  0  0
   -6.6745    3.4829   20.5360 C   0  0  2  0  0  0  0  0  0  0  0  0
   -5.8948    3.9324   19.3446 C   0  0  2  0  0  0  0  0  0  0  0  0
   -5.0872    2.7735   18.8401 C   0  0  0  0  0  0  0  0  0  0  0  0
   -5.6238    4.5592   20.6956 C   0  0  1  0  0  0  0  0  0  0  0  0
   -6.0269    5.9816   20.9579 C   0  0  0  0  0  0  0  0  0  0  0  0
   -6.3156    6.4411   20.0062 H   0  0  0  0  0  0  0  0  0  0  0  0
   -6.8856    6.0181   21.6380 H   0  0  0  0  0  0  0  0  0  0  0  0
   -4.9224    6.8149   21.5587 C   0  0  0  0  0  0  0  0  0  0  0  0
   -4.9582    7.4696   22.5866 O   0  0  0  0  0  0  0  0  0  0  0  0
   -3.7987    6.7777   20.8131 O   0  0  0  0  0  0  0  0  0  0  0  0
   -3.1715    7.3484   21.3055 H   0  0  0  0  0  0  0  0  0  0  0  0
   -2.5129   -1.2258   17.5625 N   0  0  0  0  0  0  0  0  0  0  0  0
   -1.2862   -1.9128   17.3602 C   0  0  0  0  0  0  0  0  0  0  0  0
   -1.3996   -1.5720   15.8728 C   0  0  0  0  0  0  0  0  0  0  0  0
   -2.5643   -0.6472   16.2541 C   0  0  2  0  0  0  0  0  0  0  0  0
   -2.2575    0.8398   16.2581 C   0  0  0  0  0  0  0  0  0  0  0  0
   -5.0822   -2.9033   21.5125 C   0  0  0  0  0  0  0  0  0  0  0  0
   -4.0636   -3.2616   22.3376 F   0  0  0  0  0  0  0  0  0  0  0  0
   -6.1098   -2.5091   22.3099 F   0  0  0  0  0  0  0  0  0  0  0  0
   -5.4993   -4.0588   20.9217 F   0  0  0  0  0  0  0  0  0  0  0  0
   -3.1550   -3.4117   19.4138 C   0  0  0  0  0  0  0  0  0  0  0  0
   -2.6890   -4.4691   19.3063 N   0  0  0  0  0  0  0  0  0  0  0  0
   -5.9366    1.9155   21.7763 H   0  0  0  0  0  0  0  0  0  0  0  0
   -7.2299    1.4172   20.7745 H   0  0  0  0  0  0  0  0  0  0  0  0
   -7.6802    3.4470   20.8996 H   0  0  0  0  0  0  0  0  0  0  0  0
   -6.0324    4.3971   18.3907 H   0  0  0  0  0  0  0  0  0  0  0  0
   -4.0427    3.0050   18.8554 H   0  0  0  0  0  0  0  0  0  0  0  0
   -5.3244    2.5218   17.8275 H   0  0  0  0  0  0  0  0  0  0  0  0
   -4.7627    4.6936   21.3163 H   0  0  0  0  0  0  0  0  0  0  0  0
   -1.3219   -2.9594   17.5799 H   0  0  0  0  0  0  0  0  0  0  0  0
   -0.4101   -1.6676   17.9234 H   0  0  0  0  0  0  0  0  0  0  0  0
   -1.6685   -2.3949   15.2440 H   0  0  0  0  0  0  0  0  0  0  0  0
   -0.5616   -1.2233   15.3062 H   0  0  0  0  0  0  0  0  0  0  0  0
   -3.4528   -0.6230   15.6583 H   0  0  0  0  0  0  0  0  0  0  0  0
   -1.3689    1.0191   16.8265 H   0  0  0  0  0  0  0  0  0  0  0  0
   -3.0754    1.3715   16.6976 H   0  0  0  0  0  0  0  0  0  0  0  0
   -2.1120    1.1767   15.2530 H   0  0  0  0  0  0  0  0  0  0  0  0
  1  2  1  0
  2  3  2  0
  3  8  1  0
  3  4  1  0
  4  5  2  0
  5 21  1  0
  5  6  1  0
  6 30  1  0
  6  7  2  0
  7 26  1  0
  7  2  1  0
  8  9  1  0
  9 10  1  0
  9 32  1  0
  9 33  1  0
 10 11  1  0
 10 34  1  6
 11 12  1  0
 11 13  1  0
 11 35  1  6
 12  8  1  0
 12 36  1  0
 12 37  1  0
 13 14  1  0
 13 10  1  0
 13 38  1  1
 14 15  1  0
 14 16  1  0
 14 17  1  0
 17 18  2  0
 17 19  1  0
 19 20  1  0
 21 22  1  0
 22 23  1  0
 22 39  1  0
 22 40  1  0
 23 24  1  0
 23 41  1  0
 23 42  1  0
 24 25  1  0
 24 21  1  0
 24 43  1  6
 25 44  1  0
 25 45  1  0
 25 46  1  0
 26 27  1  0
 26 28  1  0
 26 29  1  0
 30 31  3  0
M  ISO  3   1   2  15   2  16   2
M  END
>  <minimizedAffinity>  (5) 
-8.68113

>  <mol_id>  (5) 
64410

>  <source_index>  (5) 
4

>  <layer>  (5) 
L1

>  <uniprot>  (5) 
P50053

>  <paff>  (5) 
9.3565000000000005

>  <smiles>  (5) 
[2H]c1c(N2C[C@@H]3[C@H](C2)[C@H]3C([2H])([2H])C(=O)O)nc(N2CC[C@@H]2C)c(C#N)c1C(F)(F)F

$$$$
L1:P50053:75542
     RDKit          3D

 49 52  0  0  0  0  0  0  0  0999 V2000
   -4.1928    0.4454   18.5072 C   0  0  0  0  0  0  0  0  0  0  0  0
   -3.2566    0.2181   17.5145 C   0  0  0  0  0  0  0  0  0  0  0  0
   -2.5660   -1.0010   17.4591 C   0  0  0  0  0  0  0  0  0  0  0  0
   -2.8372   -1.9841   18.4254 C   0  0  0  0  0  0  0  0  0  0  0  0
   -3.7849   -1.7074   19.4099 C   0  0  0  0  0  0  0  0  0  0  0  0
   -4.4339   -0.5136   19.4235 N   0  0  0  0  0  0  0  0  0  0  0  0
   -5.5971    4.3500   19.6824 C   0  0  1  0  0  0  0  0  0  0  0  0
   -6.4704    3.1445   19.3998 C   0  0  2  0  0  0  0  0  0  0  0  0
   -5.9539    1.7485   19.5987 C   0  0  0  0  0  0  0  0  0  0  0  0
   -4.8934    1.6153   18.6009 N   0  0  0  0  0  0  0  0  0  0  0  0
   -4.7168    2.7880   17.7564 C   0  0  0  0  0  0  0  0  0  0  0  0
   -5.7114    3.7815   18.2809 C   0  0  2  0  0  0  0  0  0  0  0  0
   -7.6343    5.7174   20.4457 C   0  0  0  0  0  0  0  0  0  0  0  0
   -6.1568    5.7071   20.0591 C   0  0  1  0  0  0  0  0  0  0  0  0
   -5.3548    6.3445   21.1838 C   0  0  0  0  0  0  0  0  0  0  0  0
   -5.6717    7.3066   21.8638 O   0  0  0  0  0  0  0  0  0  0  0  0
   -4.1783    5.7211   21.4024 O   0  0  0  0  0  0  0  0  0  0  0  0
   -3.7796    6.2269   22.1419 H   0  0  0  0  0  0  0  0  0  0  0  0
   -4.1392   -2.5924   20.4317 N   0  0  0  0  0  0  0  0  0  0  0  0
   -4.1550   -4.0040   20.5893 C   0  0  0  0  0  0  0  0  0  0  0  0
   -4.4336   -3.7836   22.0776 C   0  0  0  0  0  0  0  0  0  0  0  0
   -4.6505   -2.3023   21.7370 C   0  0  2  0  0  0  0  0  0  0  0  0
   -6.0938   -1.8318   21.7100 C   0  0  0  0  0  0  0  0  0  0  0  0
   -1.5548   -1.2353   16.3701 C   0  0  0  0  0  0  0  0  0  0  0  0
   -1.9660   -2.1649   15.4679 F   0  0  0  0  0  0  0  0  0  0  0  0
   -0.3580   -1.6623   16.8519 F   0  0  0  0  0  0  0  0  0  0  0  0
   -1.2789   -0.1158   15.6429 F   0  0  0  0  0  0  0  0  0  0  0  0
   -2.1529   -3.2406   18.3696 C   0  0  0  0  0  0  0  0  0  0  0  0
   -1.5706   -4.2442   18.3407 N   0  0  0  0  0  0  0  0  0  0  0  0
   -3.0656    0.9491   16.8115 H   0  0  0  0  0  0  0  0  0  0  0  0
   -4.7963    4.5657   20.3585 H   0  0  0  0  0  0  0  0  0  0  0  0
   -7.4759    2.9388   19.7023 H   0  0  0  0  0  0  0  0  0  0  0  0
   -6.7278    1.0293   19.4289 H   0  0  0  0  0  0  0  0  0  0  0  0
   -5.6039    1.5782   20.5954 H   0  0  0  0  0  0  0  0  0  0  0  0
   -4.9219    2.5516   16.7332 H   0  0  0  0  0  0  0  0  0  0  0  0
   -3.7147    3.1621   17.7838 H   0  0  0  0  0  0  0  0  0  0  0  0
   -5.8735    4.2835   17.3500 H   0  0  0  0  0  0  0  0  0  0  0  0
   -7.9314    6.7152   20.6928 H   0  0  0  0  0  0  0  0  0  0  0  0
   -7.7860    5.0802   21.2918 H   0  0  0  0  0  0  0  0  0  0  0  0
   -8.2206    5.3641   19.6233 H   0  0  0  0  0  0  0  0  0  0  0  0
   -6.0708    6.2766   19.1573 H   0  0  0  0  0  0  0  0  0  0  0  0
   -3.2226   -4.4848   20.3785 H   0  0  0  0  0  0  0  0  0  0  0  0
   -4.7869   -4.6252   19.9895 H   0  0  0  0  0  0  0  0  0  0  0  0
   -3.6021   -3.9778   22.7224 H   0  0  0  0  0  0  0  0  0  0  0  0
   -5.1660   -4.3560   22.6076 H   0  0  0  0  0  0  0  0  0  0  0  0
   -4.2474   -1.5378   22.3679 H   0  0  0  0  0  0  0  0  0  0  0  0
   -6.6744   -2.4965   21.1050 H   0  0  0  0  0  0  0  0  0  0  0  0
   -6.1395   -0.8445   21.3000 H   0  0  0  0  0  0  0  0  0  0  0  0
   -6.4847   -1.8228   22.7060 H   0  0  0  0  0  0  0  0  0  0  0  0
  1  2  2  0
  2  3  1  0
  2 30  1  0
  3 24  1  0
  3  4  2  0
  4 28  1  0
  4  5  1  0
  5 19  1  0
  5  6  2  0
  6  1  1  0
  7  8  1  0
  7 31  1  1
  8  9  1  0
  8 32  1  6
  9 10  1  0
  9 33  1  0
  9 34  1  0
 10  1  1  0
 10 11  1  0
 11 12  1  0
 11 35  1  0
 11 36  1  0
 12  7  1  0
 12  8  1  0
 12 37  1  6
 13 14  1  0
 13 38  1  0
 13 39  1  0
 13 40  1  0
 14 15  1  0
 14  7  1  0
 14 41  1  6
 15 16  2  0
 15 17  1  0
 17 18  1  0
 19 20  1  0
 20 21  1  0
 20 42  1  0
 20 43  1  0
 21 22  1  0
 21 44  1  0
 21 45  1  0
 22 23  1  0
 22 19  1  0
 22 46  1  1
 23 47  1  0
 23 48  1  0
 23 49  1  0
 24 25  1  0
 24 26  1  0
 24 27  1  0
 28 29  3  0
M  END
>  <minimizedAffinity>  (6) 
-8.83955

>  <mol_id>  (6) 
75542

>  <source_index>  (6) 
5

>  <layer>  (6) 
L1

>  <uniprot>  (6) 
P50053

>  <paff>  (6) 
7.8996000000000004

>  <smiles>  (6) 
CC(C(=O)O)[C@H]1[C@@H]2CN(c3cc(C(F)(F)F)c(C#N)c(N4CC[C@@H]4C)n3)C[C@@H]21

$$$$
L1:P50053:97821
     RDKit          3D

 36 37  0  0  0  0  0  0  0  0999 V2000
   -4.1998    2.2206   16.5381 C   0  0  0  0  0  0  0  0  0  0  0  0
   -3.3794    1.5075   15.6803 C   0  0  0  0  0  0  0  0  0  0  0  0
   -2.7408    0.3467   16.1318 C   0  0  0  0  0  0  0  0  0  0  0  0
   -2.9585   -0.0673   17.4540 C   0  0  0  0  0  0  0  0  0  0  0  0
   -3.8038    0.6904   18.2729 C   0  0  0  0  0  0  0  0  0  0  0  0
   -4.4179    1.7993   17.7971 N   0  0  0  0  0  0  0  0  0  0  0  0
   -1.8513   -0.4345   15.2064 C   0  0  0  0  0  0  0  0  0  0  0  0
   -1.9173   -0.0129   13.9129 F   0  0  0  0  0  0  0  0  0  0  0  0
   -0.5402   -0.3499   15.5544 F   0  0  0  0  0  0  0  0  0  0  0  0
   -2.1611   -1.7572   15.1803 F   0  0  0  0  0  0  0  0  0  0  0  0
   -6.2662    3.2454   15.7605 C   0  0  0  0  0  0  0  0  0  0  0  0
   -4.8563    3.3409   16.0642 N   0  0  0  0  0  0  0  0  0  0  0  0
   -4.5007    4.2472   16.3350 H   0  0  0  0  0  0  0  0  0  0  0  0
   -2.3432   -1.2570   17.9643 C   0  0  0  0  0  0  0  0  0  0  0  0
   -1.8618   -2.2257   18.3831 N   0  0  0  0  0  0  0  0  0  0  0  0
   -4.0531    0.2825   19.5964 N   0  0  0  0  0  0  0  0  0  0  0  0
   -3.2211    0.1632   20.1703 H   0  0  0  0  0  0  0  0  0  0  0  0
   -5.2189    0.3238   20.3939 C   0  0  0  0  0  0  0  0  0  0  0  0
   -5.9106    1.5112   20.6630 C   0  0  0  0  0  0  0  0  0  0  0  0
   -7.0732    1.5108   21.4402 C   0  0  0  0  0  0  0  0  0  0  0  0
   -7.5715    0.3180   21.9555 C   0  0  0  0  0  0  0  0  0  0  0  0
   -6.9146   -0.8803   21.6850 C   0  0  0  0  0  0  0  0  0  0  0  0
   -5.7545   -0.8852   20.8992 C   0  0  0  0  0  0  0  0  0  0  0  0
   -4.9615   -2.4641   20.5657 S   0  0  0  0  0  0  0  0  0  0  0  0
   -5.2520   -3.2539   22.1719 C   0  0  0  0  0  0  0  0  0  0  0  0
   -3.2391    1.8311   14.7104 H   0  0  0  0  0  0  0  0  0  0  0  0
   -6.5055    2.2380   15.4908 H   0  0  0  0  0  0  0  0  0  0  0  0
   -6.5005    3.8981   14.9456 H   0  0  0  0  0  0  0  0  0  0  0  0
   -6.8363    3.5294   16.6203 H   0  0  0  0  0  0  0  0  0  0  0  0
   -5.5563    2.4021   20.2812 H   0  0  0  0  0  0  0  0  0  0  0  0
   -7.5634    2.3984   21.6323 H   0  0  0  0  0  0  0  0  0  0  0  0
   -8.4247    0.3212   22.5360 H   0  0  0  0  0  0  0  0  0  0  0  0
   -7.2832   -1.7665   22.0642 H   0  0  0  0  0  0  0  0  0  0  0  0
   -4.8352   -4.2394   22.1654 H   0  0  0  0  0  0  0  0  0  0  0  0
   -6.3045   -3.3130   22.3551 H   0  0  0  0  0  0  0  0  0  0  0  0
   -4.7877   -2.6754   22.9430 H   0  0  0  0  0  0  0  0  0  0  0  0
  1  2  2  0
  2  3  1  0
  2 26  1  0
  3  7  1  0
  3  4  2  0
  4 14  1  0
  4  5  1  0
  5 16  1  0
  5  6  2  0
  6  1  1  0
  7  8  1  0
  7  9  1  0
  7 10  1  0
 11 12  1  0
 11 27  1  0
 11 28  1  0
 11 29  1  0
 12  1  1  0
 12 13  1  0
 14 15  3  0
 16 18  1  0
 16 17  1  0
 18 19  2  0
 19 20  1  0
 19 30  1  0
 20 21  2  0
 20 31  1  0
 21 22  1  0
 21 32  1  0
 22 23  2  0
 22 33  1  0
 23 24  1  0
 23 18  1  0
 24 25  1  0
 25 34  1  0
 25 35  1  0
 25 36  1  0
M  END
>  <minimizedAffinity>  (7) 
-7.18899

>  <mol_id>  (7) 
97821

>  <source_index>  (7) 
6

>  <layer>  (7) 
L1

>  <uniprot>  (7) 
P50053

>  <paff>  (7) 
7.7446999999999999

>  <smiles>  (7) 
CNc1cc(C(F)(F)F)c(C#N)c(Nc2ccccc2SC)n1

$$$$
L1:P50053:107700
     RDKit          3D

 57 59  0  0  0  0  0  0  0  0999 V2000
   -3.7506   -2.0419   19.2906 C   0  0  0  0  0  0  0  0  0  0  0  0
   -2.8702   -2.4218   18.2910 C   0  0  0  0  0  0  0  0  0  0  0  0
   -2.4726   -1.5030   17.3098 C   0  0  0  0  0  0  0  0  0  0  0  0
   -2.9834   -0.1990   17.3617 C   0  0  0  0  0  0  0  0  0  0  0  0
   -3.8692    0.1365   18.3878 C   0  0  0  0  0  0  0  0  0  0  0  0
   -4.2209   -0.7783   19.3235 N   0  0  0  0  0  0  0  0  0  0  0  0
   -5.0737   -3.7843   22.2643 C   0  0  1  0  0  0  0  0  0  0  0  0
   -4.3441   -4.8905   21.4991 C   0  0  0  0  0  0  0  0  0  0  0  0
   -3.4111   -4.1096   20.5742 C   0  0  0  0  0  0  0  0  0  0  0  0
   -4.1669   -2.9032   20.2626 N   0  0  0  0  0  0  0  0  0  0  0  0
   -5.3018   -2.7235   21.1590 C   0  0  0  0  0  0  0  0  0  0  0  0
   -6.8968   -5.3866   22.2907 C   0  0  0  0  0  0  0  0  0  0  0  0
   -6.3145   -4.2087   22.9199 N   0  0  0  0  0  0  0  0  0  0  0  0
   -6.9945   -3.4479   22.8989 H   0  0  0  0  0  0  0  0  0  0  0  0
   -1.5148   -1.9224   16.2299 C   0  0  0  0  0  0  0  0  0  0  0  0
   -0.5841   -0.9719   15.9363 F   0  0  0  0  0  0  0  0  0  0  0  0
   -2.1419   -2.1980   15.0562 F   0  0  0  0  0  0  0  0  0  0  0  0
   -0.8104   -3.0354   16.5647 F   0  0  0  0  0  0  0  0  0  0  0  0
   -2.6047    0.7769   16.3835 C   0  0  0  0  0  0  0  0  0  0  0  0
   -2.2952    1.5817   15.6079 N   0  0  0  0  0  0  0  0  0  0  0  0
   -4.3838    1.4411   18.4907 N   0  0  0  0  0  0  0  0  0  0  0  0
   -3.8399    2.1690   18.0332 H   0  0  0  0  0  0  0  0  0  0  0  0
   -5.6655    1.9088   18.8609 C   0  0  0  0  0  0  0  0  0  0  0  0
   -6.2575    1.5775   20.0882 C   0  0  0  0  0  0  0  0  0  0  0  0
   -7.5280    2.0566   20.4474 C   0  0  0  0  0  0  0  0  0  0  0  0
   -8.2131    2.8957   19.5647 C   0  0  0  0  0  0  0  0  0  0  0  0
   -7.6430    3.2439   18.3407 C   0  0  0  0  0  0  0  0  0  0  0  0
   -6.3823    2.7508   17.9811 C   0  0  0  0  0  0  0  0  0  0  0  0
   -5.6858    3.2187   16.3909 S   0  0  0  0  0  0  0  0  0  0  0  0
   -7.2137    3.7168   15.5534 C   0  0  0  0  0  0  0  0  0  0  0  0
   -8.1267    1.6930   21.7860 C   0  0  0  0  0  0  0  0  0  0  0  0
   -8.7033    0.2796   21.8127 C   0  0  0  0  0  0  0  0  0  0  0  0
   -8.3900   -0.4373   23.0973 C   0  0  0  0  0  0  0  0  0  0  0  0
   -7.9607   -1.5716   23.2244 O   0  0  0  0  0  0  0  0  0  0  0  0
   -8.5795    0.3476   24.1760 O   0  0  0  0  0  0  0  0  0  0  0  0
   -8.3415   -0.2249   24.9349 H   0  0  0  0  0  0  0  0  0  0  0  0
   -2.5049   -3.3867   18.2685 H   0  0  0  0  0  0  0  0  0  0  0  0
   -4.5099   -3.4270   23.1006 H   0  0  0  0  0  0  0  0  0  0  0  0
   -5.0317   -5.4875   20.9372 H   0  0  0  0  0  0  0  0  0  0  0  0
   -3.8280   -5.5760   22.1383 H   0  0  0  0  0  0  0  0  0  0  0  0
   -3.1991   -4.6674   19.6861 H   0  0  0  0  0  0  0  0  0  0  0  0
   -2.4617   -3.9011   21.0215 H   0  0  0  0  0  0  0  0  0  0  0  0
   -6.2240   -2.9002   20.6460 H   0  0  0  0  0  0  0  0  0  0  0  0
   -5.3673   -1.7290   21.5482 H   0  0  0  0  0  0  0  0  0  0  0  0
   -6.1882   -6.1881   22.3097 H   0  0  0  0  0  0  0  0  0  0  0  0
   -7.1519   -5.1599   21.2766 H   0  0  0  0  0  0  0  0  0  0  0  0
   -7.7780   -5.6769   22.8238 H   0  0  0  0  0  0  0  0  0  0  0  0
   -5.7467    0.9661   20.7442 H   0  0  0  0  0  0  0  0  0  0  0  0
   -9.1447    3.2592   19.8197 H   0  0  0  0  0  0  0  0  0  0  0  0
   -8.1527    3.8683   17.6963 H   0  0  0  0  0  0  0  0  0  0  0  0
   -6.9867    4.0374   14.5581 H   0  0  0  0  0  0  0  0  0  0  0  0
   -7.6697    4.5211   16.0919 H   0  0  0  0  0  0  0  0  0  0  0  0
   -7.8869    2.8860   15.5157 H   0  0  0  0  0  0  0  0  0  0  0  0
   -8.9106    2.3862   22.0094 H   0  0  0  0  0  0  0  0  0  0  0  0
   -7.3414    1.7340   22.5116 H   0  0  0  0  0  0  0  0  0  0  0  0
   -8.2896   -0.2768   20.9977 H   0  0  0  0  0  0  0  0  0  0  0  0
   -9.7673    0.3572   21.7307 H   0  0  0  0  0  0  0  0  0  0  0  0
  1  2  2  0
  2  3  1  0
  2 37  1  0
  3 15  1  0
  3  4  2  0
  4 19  1  0
  4  5  1  0
  5 21  1  0
  5  6  2  0
  6  1  1  0
  7  8  1  0
  7 38  1  1
  8  9  1  0
  8 39  1  0
  8 40  1  0
  9 10  1  0
  9 41  1  0
  9 42  1  0
 10  1  1  0
 10 11  1  0
 11  7  1  0
 11 43  1  0
 11 44  1  0
 12 13  1  0
 12 45  1  0
 12 46  1  0
 12 47  1  0
 13  7  1  0
 13 14  1  0
 15 16  1  0
 15 17  1  0
 15 18  1  0
 19 20  3  0
 21 23  1  0
 21 22  1  0
 23 24  2  0
 24 25  1  0
 24 48  1  0
 25 31  1  0
 25 26  2  0
 26 27  1  0
 26 49  1  0
 27 28  2  0
 27 50  1  0
 28 29  1  0
 28 23  1  0
 29 30  1  0
 30 51  1  0
 30 52  1  0
 30 53  1  0
 31 32  1  0
 31 54  1  0
 31 55  1  0
 32 33  1  0
 32 56  1  0
 32 57  1  0
 33 34  2  0
 33 35  1  0
 35 36  1  0
M  END
>  <minimizedAffinity>  (8) 
-8.67447

>  <mol_id>  (8) 
107700

>  <source_index>  (8) 
7

>  <layer>  (8) 
L1

>  <uniprot>  (8) 
P50053

>  <paff>  (8) 
8.1308000000000007

>  <smiles>  (8) 
CN[C@H]1CCN(c2cc(C(F)(F)F)c(C#N)c(Nc3cc(CCC(=O)O)ccc3SC)n2)C1

$$$$
L1:P50053:132156
     RDKit          3D

 45 47  0  0  0  0  0  0  0  0999 V2000
   -3.8195    0.5105   18.4348 C   0  0  0  0  0  0  0  0  0  0  0  0
   -4.1154   -0.4556   19.3370 N   0  0  0  0  0  0  0  0  0  0  0  0
   -3.6434   -1.7124   19.2114 C   0  0  0  0  0  0  0  0  0  0  0  0
   -2.8374   -2.0390   18.1337 C   0  0  0  0  0  0  0  0  0  0  0  0
   -2.5131   -1.0711   17.1727 C   0  0  0  0  0  0  0  0  0  0  0  0
   -3.0177    0.2273   17.3272 C   0  0  0  0  0  0  0  0  0  0  0  0
   -3.9851   -2.6208   20.1692 N   0  0  0  0  0  0  0  0  0  0  0  0
   -3.0800   -3.7081   20.5305 C   0  0  0  0  0  0  0  0  0  0  0  0
   -3.9478   -4.6322   21.3846 C   0  0  0  0  0  0  0  0  0  0  0  0
   -4.8881   -3.6569   22.0884 C   0  0  2  0  0  0  0  0  0  0  0  0
   -6.0446   -4.3292   22.6748 N   0  0  0  0  0  0  0  0  0  0  0  0
   -5.1973   -2.6303   20.9738 C   0  0  0  0  0  0  0  0  0  0  0  0
   -6.6894   -3.6399   23.0595 H   0  0  0  0  0  0  0  0  0  0  0  0
   -6.5603   -4.8323   21.9528 H   0  0  0  0  0  0  0  0  0  0  0  0
   -1.6390   -1.4340   16.0050 C   0  0  0  0  0  0  0  0  0  0  0  0
   -2.3327   -1.5016   14.8385 F   0  0  0  0  0  0  0  0  0  0  0  0
   -0.6361   -0.5379   15.7855 F   0  0  0  0  0  0  0  0  0  0  0  0
   -1.0282   -2.6371   16.1650 F   0  0  0  0  0  0  0  0  0  0  0  0
   -4.3653    1.7936   18.6147 N   0  0  0  0  0  0  0  0  0  0  0  0
   -3.8528    2.4101   19.2409 H   0  0  0  0  0  0  0  0  0  0  0  0
   -6.5730    2.5310   19.3580 C   0  0  0  0  0  0  0  0  0  0  0  0
   -7.8397    3.0667   19.0862 C   0  0  0  0  0  0  0  0  0  0  0  0
   -8.2046    3.3772   17.7779 C   0  0  0  0  0  0  0  0  0  0  0  0
   -7.3043    3.1601   16.7395 C   0  0  0  0  0  0  0  0  0  0  0  0
   -6.0363    2.6353   17.0065 C   0  0  0  0  0  0  0  0  0  0  0  0
   -5.6452    2.3123   18.3127 C   0  0  0  0  0  0  0  0  0  0  0  0
   -7.0950    0.6002   21.2284 C   0  0  0  0  0  0  0  0  0  0  0  0
   -6.1478    2.1358   21.0598 S   0  0  0  0  0  0  0  0  0  0  0  0
   -2.7172    1.2495   16.3696 C   0  0  0  0  0  0  0  0  0  0  0  0
   -2.4942    2.0879   15.5997 N   0  0  0  0  0  0  0  0  0  0  0  0
   -2.4736   -2.9999   18.0375 H   0  0  0  0  0  0  0  0  0  0  0  0
   -2.2467   -3.3404   21.0920 H   0  0  0  0  0  0  0  0  0  0  0  0
   -2.6630   -4.2016   19.6776 H   0  0  0  0  0  0  0  0  0  0  0  0
   -3.3545   -5.1738   22.0914 H   0  0  0  0  0  0  0  0  0  0  0  0
   -4.4604   -5.3787   20.8147 H   0  0  0  0  0  0  0  0  0  0  0  0
   -4.4732   -3.1763   22.9497 H   0  0  0  0  0  0  0  0  0  0  0  0
   -5.3879   -1.6625   21.3884 H   0  0  0  0  0  0  0  0  0  0  0  0
   -6.0694   -2.8825   20.4075 H   0  0  0  0  0  0  0  0  0  0  0  0
   -8.5044    3.2317   19.8582 H   0  0  0  0  0  0  0  0  0  0  0  0
   -9.1394    3.7669   17.5797 H   0  0  0  0  0  0  0  0  0  0  0  0
   -7.5733    3.3871   15.7694 H   0  0  0  0  0  0  0  0  0  0  0  0
   -5.3766    2.4831   16.2277 H   0  0  0  0  0  0  0  0  0  0  0  0
   -6.9597    0.2040   22.2131 H   0  0  0  0  0  0  0  0  0  0  0  0
   -6.7516   -0.1117   20.5072 H   0  0  0  0  0  0  0  0  0  0  0  0
   -8.1330    0.8016   21.0645 H   0  0  0  0  0  0  0  0  0  0  0  0
  1  2  2  0
  2  3  1  0
  3  7  1  0
  3  4  2  0
  4  5  1  0
  4 31  1  0
  5 15  1  0
  5  6  2  0
  6 29  1  0
  6  1  1  0
  7  8  1  0
  8  9  1  0
  8 32  1  0
  8 33  1  0
  9 10  1  0
  9 34  1  0
  9 35  1  0
 10 11  1  0
 10 12  1  0
 10 36  1  1
 11 13  1  0
 11 14  1  0
 12  7  1  0
 12 37  1  0
 12 38  1  0
 15 16  1  0
 15 17  1  0
 15 18  1  0
 19  1  1  0
 19 20  1  0
 21 22  2  0
 22 23  1  0
 22 39  1  0
 23 24  2  0
 23 40  1  0
 24 25  1  0
 24 41  1  0
 25 26  2  0
 25 42  1  0
 26 19  1  0
 26 21  1  0
 27 28  1  0
 27 43  1  0
 27 44  1  0
 27 45  1  0
 28 21  1  0
 29 30  3  0
M  END
>  <minimizedAffinity>  (9) 
-8.02126

>  <mol_id>  (9) 
132156

>  <source_index>  (9) 
8

>  <layer>  (9) 
L1

>  <uniprot>  (9) 
P50053

>  <paff>  (9) 
8

>  <smiles>  (9) 
CSc1ccccc1Nc1nc(N2CC[C@H](N)C2)cc(C(F)(F)F)c1C#N

$$$$
L1:P50053:139579
     RDKit          3D

 45 47  0  0  0  0  0  0  0  0999 V2000
   -3.4843   -1.0596   19.5119 C   0  0  0  0  0  0  0  0  0  0  0  0
   -4.4109   -0.1523   19.9103 N   0  0  0  0  0  0  0  0  0  0  0  0
   -5.4108   -0.5013   20.7434 C   0  0  0  0  0  0  0  0  0  0  0  0
   -5.4917   -1.8019   21.2143 C   0  0  0  0  0  0  0  0  0  0  0  0
   -4.5278   -2.7537   20.8462 C   0  0  0  0  0  0  0  0  0  0  0  0
   -3.4911   -2.3705   19.9839 C   0  0  0  0  0  0  0  0  0  0  0  0
   -6.3200    0.4563   21.0854 N   0  0  0  0  0  0  0  0  0  0  0  0
   -7.7550    0.1743   21.0788 C   0  0  0  0  0  0  0  0  0  0  0  0
   -8.3664    1.3817   21.7964 C   0  0  2  0  0  0  0  0  0  0  0  0
   -9.7031    1.6529   21.3936 O   0  0  0  0  0  0  0  0  0  0  0  0
   -7.4229    2.5226   21.4009 C   0  0  1  0  0  0  0  0  0  0  0  0
   -7.5246    3.6085   22.3192 O   0  0  0  0  0  0  0  0  0  0  0  0
   -6.0402    1.8532   21.3855 C   0  0  0  0  0  0  0  0  0  0  0  0
   -9.9024    2.5622   21.6861 H   0  0  0  0  0  0  0  0  0  0  0  0
   -7.2749    3.2879   23.2041 H   0  0  0  0  0  0  0  0  0  0  0  0
   -4.6128   -4.1537   21.3895 C   0  0  0  0  0  0  0  0  0  0  0  0
   -5.7907   -4.3962   22.0223 F   0  0  0  0  0  0  0  0  0  0  0  0
   -3.6250   -4.4362   22.2780 F   0  0  0  0  0  0  0  0  0  0  0  0
   -4.5160   -5.1080   20.4199 F   0  0  0  0  0  0  0  0  0  0  0  0
   -2.5519   -0.5328   18.6177 N   0  0  0  0  0  0  0  0  0  0  0  0
   -1.9994    0.1809   19.0822 H   0  0  0  0  0  0  0  0  0  0  0  0
   -3.0923    0.7033   16.5187 C   0  0  0  0  0  0  0  0  0  0  0  0
   -3.0436    0.7287   15.1158 C   0  0  0  0  0  0  0  0  0  0  0  0
   -2.4447   -0.3101   14.4032 C   0  0  0  0  0  0  0  0  0  0  0  0
   -1.8810   -1.3819   15.0853 C   0  0  0  0  0  0  0  0  0  0  0  0
   -1.9347   -1.4243   16.4790 C   0  0  0  0  0  0  0  0  0  0  0  0
   -2.5694   -0.4098   17.2153 C   0  0  0  0  0  0  0  0  0  0  0  0
   -5.0351    2.5838   16.0560 C   0  0  0  0  0  0  0  0  0  0  0  0
   -3.8085    2.1454   17.3151 S   0  0  0  0  0  0  0  0  0  0  0  0
   -2.4445   -3.2955   19.6591 C   0  0  0  0  0  0  0  0  0  0  0  0
   -1.6151   -4.0376   19.3295 N   0  0  0  0  0  0  0  0  0  0  0  0
   -6.2662   -2.0728   21.8402 H   0  0  0  0  0  0  0  0  0  0  0  0
   -7.9682   -0.7315   21.6070 H   0  0  0  0  0  0  0  0  0  0  0  0
   -8.1458    0.0370   20.0922 H   0  0  0  0  0  0  0  0  0  0  0  0
   -8.4448    1.2280   22.8524 H   0  0  0  0  0  0  0  0  0  0  0  0
   -7.6489    2.9669   20.4541 H   0  0  0  0  0  0  0  0  0  0  0  0
   -5.5626    1.9479   22.3383 H   0  0  0  0  0  0  0  0  0  0  0  0
   -5.3779    2.2995   20.6734 H   0  0  0  0  0  0  0  0  0  0  0  0
   -3.4558    1.5255   14.6057 H   0  0  0  0  0  0  0  0  0  0  0  0
   -2.4202   -0.2829   13.3718 H   0  0  0  0  0  0  0  0  0  0  0  0
   -1.4236   -2.1448   14.5621 H   0  0  0  0  0  0  0  0  0  0  0  0
   -1.5000   -2.2159   16.9785 H   0  0  0  0  0  0  0  0  0  0  0  0
   -5.5759    3.4514   16.3717 H   0  0  0  0  0  0  0  0  0  0  0  0
   -5.7153    1.7689   15.9217 H   0  0  0  0  0  0  0  0  0  0  0  0
   -4.5386    2.7900   15.1309 H   0  0  0  0  0  0  0  0  0  0  0  0
  1  2  2  0
  2  3  1  0
  3  7  1  0
  3  4  2  0
  4  5  1  0
  4 32  1  0
  5 16  1  0
  5  6  2  0
  6 30  1  0
  6  1  1  0
  7  8  1  0
  8  9  1  0
  8 33  1  0
  8 34  1  0
  9 10  1  0
  9 11  1  0
  9 35  1  1
 10 14  1  0
 11 12  1  0
 11 13  1  0
 11 36  1  6
 12 15  1  0
 13  7  1  0
 13 37  1  0
 13 38  1  0
 16 17  1  0
 16 18  1  0
 16 19  1  0
 20  1  1  0
 20 21  1  0
 22 23  2  0
 23 24  1  0
 23 39  1  0
 24 25  2  0
 24 40  1  0
 25 26  1  0
 25 41  1  0
 26 27  2  0
 26 42  1  0
 27 20  1  0
 27 22  1  0
 28 29  1  0
 28 43  1  0
 28 44  1  0
 28 45  1  0
 29 22  1  0
 30 31  3  0
M  END
>  <minimizedAffinity>  (10) 
-8.39228

>  <mol_id>  (10) 
139579

>  <source_index>  (10) 
9

>  <layer>  (10) 
L1

>  <uniprot>  (10) 
P50053

>  <paff>  (10) 
7.6989999999999998

>  <smiles>  (10) 
CSc1ccccc1Nc1nc(N2C[C@H](O)[C@@H](O)C2)cc(C(F)(F)F)c1C#N

$$$$
