L1:Q92793:6919
     RDKit          3D

 68 72  0  0  0  0  0  0  0  0999 V2000
    0.5575   -7.7785   17.1413 C   0  0  0  0  0  0  0  0  0  0  0  0
    1.4843   -7.6627   16.2126 N   0  0  0  0  0  0  0  0  0  0  0  0
    2.6928   -7.9258   16.8433 C   0  0  0  0  0  0  0  0  0  0  0  0
    3.9876   -8.0082   16.3340 C   0  0  0  0  0  0  0  0  0  0  0  0
    5.0493   -8.1607   17.2247 C   0  0  0  0  0  0  0  0  0  0  0  0
    4.7831   -8.3098   18.6009 C   0  0  0  0  0  0  0  0  0  0  0  0
    3.5040   -8.3467   19.1027 C   0  0  0  0  0  0  0  0  0  0  0  0
    2.4629   -8.1569   18.2096 C   0  0  0  0  0  0  0  0  0  0  0  0
    1.0887   -8.0980   18.3762 N   0  0  0  0  0  0  0  0  0  0  0  0
    6.4524   -8.1332   16.7873 C   0  0  0  0  0  0  0  0  0  0  0  0
    7.0754   -8.8972   15.7577 C   0  0  0  0  0  0  0  0  0  0  0  0
    6.4635   -9.9060   14.8618 C   0  0  0  0  0  0  0  0  0  0  0  0
    8.3541   -8.6169   15.6529 N   0  0  0  0  0  0  0  0  0  0  0  0
    8.6175   -7.6596   16.6566 O   0  0  0  0  0  0  0  0  0  0  0  0
    7.4698   -7.3911   17.3167 C   0  0  0  0  0  0  0  0  0  0  0  0
    7.5668   -6.4168   18.4193 C   0  0  0  0  0  0  0  0  0  0  0  0
   -0.9115   -7.6526   16.9261 C   0  0  0  0  0  0  0  0  0  0  0  0
   -1.3080   -6.8957   15.6447 C   0  0  0  0  0  0  0  0  0  0  0  0
   -1.8640   -2.6612   16.1113 C   0  0  0  0  0  0  0  0  0  0  0  0
   -0.6030   -3.2074   16.2711 C   0  0  0  0  0  0  0  0  0  0  0  0
   -0.4247   -4.5732   16.1251 C   0  0  0  0  0  0  0  0  0  0  0  0
   -1.5005   -5.4136   15.8305 C   0  0  0  0  0  0  0  0  0  0  0  0
   -2.7590   -4.8290   15.6953 C   0  0  0  0  0  0  0  0  0  0  0  0
   -2.9548   -3.4597   15.8265 C   0  0  0  0  0  0  0  0  0  0  0  0
   -2.0208   -1.2887   16.3533 O   0  0  0  0  0  0  0  0  0  0  0  0
   -2.2753    0.9823   15.8935 C   0  0  0  0  0  0  0  0  0  0  0  0
   -2.1377   -0.3943   15.3432 C   0  0  0  0  0  0  0  0  0  0  0  0
   -2.0914   -0.6614   14.1647 O   0  0  0  0  0  0  0  0  0  0  0  0
    0.4309   -8.3600   19.6481 C   0  0  0  0  0  0  0  0  0  0  0  0
    0.5749   -7.1812   20.6084 C   0  0  0  0  0  0  0  0  0  0  0  0
    0.5113   -7.5661   22.0073 N   0  0  0  0  0  0  0  0  0  0  0  0
    1.6902   -8.3031   22.4912 C   0  0  0  0  0  0  0  0  0  0  0  0
    2.7464   -7.3902   23.0691 C   0  0  0  0  0  0  0  0  0  0  0  0
    2.2549   -6.7236   24.2364 O   0  0  0  0  0  0  0  0  0  0  0  0
    0.8423   -6.5343   24.2149 C   0  0  0  0  0  0  0  0  0  0  0  0
    0.2793   -6.3662   22.8249 C   0  0  0  0  0  0  0  0  0  0  0  0
    4.1642   -7.9634   15.2681 H   0  0  0  0  0  0  0  0  0  0  0  0
    5.5948   -8.3547   19.3078 H   0  0  0  0  0  0  0  0  0  0  0  0
    3.3443   -8.5061   20.1540 H   0  0  0  0  0  0  0  0  0  0  0  0
    5.6921  -10.4603   15.3902 H   0  0  0  0  0  0  0  0  0  0  0  0
    7.2151  -10.6070   14.5097 H   0  0  0  0  0  0  0  0  0  0  0  0
    6.0066   -9.4360   13.9917 H   0  0  0  0  0  0  0  0  0  0  0  0
    8.3140   -6.7464   19.1406 H   0  0  0  0  0  0  0  0  0  0  0  0
    6.6260   -6.3183   18.9444 H   0  0  0  0  0  0  0  0  0  0  0  0
    7.8503   -5.4339   18.0492 H   0  0  0  0  0  0  0  0  0  0  0  0
   -1.3282   -8.6613   16.8935 H   0  0  0  0  0  0  0  0  0  0  0  0
   -1.3642   -7.1733   17.7965 H   0  0  0  0  0  0  0  0  0  0  0  0
   -0.5401   -7.0793   14.8928 H   0  0  0  0  0  0  0  0  0  0  0  0
   -2.2291   -7.3272   15.2595 H   0  0  0  0  0  0  0  0  0  0  0  0
    0.2323   -2.5667   16.5222 H   0  0  0  0  0  0  0  0  0  0  0  0
    0.5674   -4.9912   16.2329 H   0  0  0  0  0  0  0  0  0  0  0  0
   -3.6203   -5.4449   15.4686 H   0  0  0  0  0  0  0  0  0  0  0  0
   -3.9411   -3.0405   15.6786 H   0  0  0  0  0  0  0  0  0  0  0  0
   -2.7227    1.6393   15.1563 H   0  0  0  0  0  0  0  0  0  0  0  0
   -1.2779    1.3569   16.1188 H   0  0  0  0  0  0  0  0  0  0  0  0
   -2.8374    0.9809   16.8213 H   0  0  0  0  0  0  0  0  0  0  0  0
    0.8832   -9.2560   20.0612 H   0  0  0  0  0  0  0  0  0  0  0  0
   -0.6122   -8.6023   19.4690 H   0  0  0  0  0  0  0  0  0  0  0  0
   -0.2271   -6.4672   20.3977 H   0  0  0  0  0  0  0  0  0  0  0  0
    1.5123   -6.6495   20.3846 H   0  0  0  0  0  0  0  0  0  0  0  0
    2.1193   -8.9015   21.6954 H   0  0  0  0  0  0  0  0  0  0  0  0
    1.3787   -9.0117   23.2598 H   0  0  0  0  0  0  0  0  0  0  0  0
    3.0545   -6.6476   22.3340 H   0  0  0  0  0  0  0  0  0  0  0  0
    3.6223   -7.9610   23.3651 H   0  0  0  0  0  0  0  0  0  0  0  0
    0.6473   -5.6395   24.8056 H   0  0  0  0  0  0  0  0  0  0  0  0
    0.3470   -7.3752   24.7118 H   0  0  0  0  0  0  0  0  0  0  0  0
    0.7327   -5.4784   22.3762 H   0  0  0  0  0  0  0  0  0  0  0  0
   -0.7950   -6.1735   22.8948 H   0  0  0  0  0  0  0  0  0  0  0  0
  1  2  2  0
  2  3  1  0
  3  4  2  0
  4  5  1  0
  4 37  1  0
  5 10  1  0
  5  6  2  0
  6  7  1  0
  6 38  1  0
  7  8  2  0
  7 39  1  0
  8  9  1  0
  8  3  1  0
  9 29  1  0
  9  1  1  0
 10 11  1  0
 11 12  1  0
 11 13  2  0
 12 40  1  0
 12 41  1  0
 12 42  1  0
 13 14  1  0
 14 15  1  0
 15 16  1  0
 15 10  2  0
 16 43  1  0
 16 44  1  0
 16 45  1  0
 17  1  1  0
 17 46  1  0
 17 47  1  0
 18 17  1  0
 18 48  1  0
 18 49  1  0
 19 20  2  0
 20 21  1  0
 20 50  1  0
 21 22  2  0
 21 51  1  0
 22 18  1  0
 22 23  1  0
 23 24  2  0
 23 52  1  0
 24 19  1  0
 24 53  1  0
 25 19  1  0
 26 27  1  0
 26 54  1  0
 26 55  1  0
 26 56  1  0
 27 28  2  0
 27 25  1  0
 29 30  1  0
 29 57  1  0
 29 58  1  0
 30 31  1  0
 30 59  1  0
 30 60  1  0
 31 32  1  0
 32 33  1  0
 32 61  1  0
 32 62  1  0
 33 34  1  0
 33 63  1  0
 33 64  1  0
 34 35  1  0
 35 36  1  0
 35 65  1  0
 35 66  1  0
 36 31  1  0
 36 67  1  0
 36 68  1  0
M  END
>  <minimizedAffinity>  (1) 
-8.14199

>  <mol_id>  (1) 
6919

>  <source_index>  (1) 
0

>  <layer>  (1) 
L1

>  <uniprot>  (1) 
Q92793

>  <paff>  (1) 
6.7695999999999996

>  <smiles>  (1) 
CC(=O)Oc1ccc(CCc2nc3cc(-c4c(C)noc4C)ccc3n2CCN2CCOCC2)cc1

>  <aimnet_interaction_kcal_mol>  (1) 
-61.73895024064187

$$$$
L1:Q92793:25339
     RDKit          3D

 63 67  0  0  0  0  0  0  0  0999 V2000
    5.4187   -8.1518   16.9976 C   0  0  0  0  0  0  0  0  0  0  0  0
    5.0568   -7.9350   18.3439 C   0  0  0  0  0  0  0  0  0  0  0  0
    3.7441   -7.8131   18.7426 C   0  0  0  0  0  0  0  0  0  0  0  0
    2.7657   -7.9283   17.7664 C   0  0  0  0  0  0  0  0  0  0  0  0
    3.0940   -8.1605   16.4164 C   0  0  0  0  0  0  0  0  0  0  0  0
    4.4241   -8.2605   16.0280 C   0  0  0  0  0  0  0  0  0  0  0  0
    1.9336   -8.2701   15.6673 N   0  0  0  0  0  0  0  0  0  0  0  0
    0.9408   -8.1330   16.5170 C   0  0  0  0  0  0  0  0  0  0  0  0
    1.3812   -7.8649   17.8027 N   0  0  0  0  0  0  0  0  0  0  0  0
    7.8382   -6.3936   18.2005 C   0  0  0  0  0  0  0  0  0  0  0  0
    7.9066   -7.4220   17.1332 C   0  0  0  0  0  0  0  0  0  0  0  0
    9.0386   -7.6808   16.5237 N   0  0  0  0  0  0  0  0  0  0  0  0
    8.7387   -8.7260   15.6144 O   0  0  0  0  0  0  0  0  0  0  0  0
    7.4280   -9.0520   15.7281 C   0  0  0  0  0  0  0  0  0  0  0  0
    6.9140  -10.1310   14.8664 C   0  0  0  0  0  0  0  0  0  0  0  0
    6.8388   -8.2372   16.6468 C   0  0  0  0  0  0  0  0  0  0  0  0
   -0.4835   -8.3347   16.1521 C   0  0  0  0  0  0  0  0  0  0  0  0
   -1.0046   -7.2830   15.1603 C   0  0  0  0  0  0  0  0  0  0  0  0
   -0.8812   -5.8786   15.6707 C   0  0  0  0  0  0  0  0  0  0  0  0
    0.2629   -5.1215   15.4229 C   0  0  0  0  0  0  0  0  0  0  0  0
    0.3806   -3.8190   15.8731 C   0  0  0  0  0  0  0  0  0  0  0  0
   -0.6482   -3.2419   16.6074 C   0  0  0  0  0  0  0  0  0  0  0  0
   -0.4743   -1.9527   17.0360 O   0  0  0  0  0  0  0  0  0  0  0  0
   -1.7924   -3.9808   16.8759 C   0  0  0  0  0  0  0  0  0  0  0  0
   -1.9001   -5.2824   16.4086 C   0  0  0  0  0  0  0  0  0  0  0  0
   -1.2053   -1.7096   17.6175 H   0  0  0  0  0  0  0  0  0  0  0  0
    0.5912   -7.4265   18.9406 C   0  0  0  0  0  0  0  0  0  0  0  0
    0.4131   -8.5003   20.0041 C   0  0  0  0  0  0  0  0  0  0  0  0
    1.6119   -8.7120   20.7839 N   0  0  0  0  0  0  0  0  0  0  0  0
    1.8578   -7.7513   21.8603 C   0  0  0  0  0  0  0  0  0  0  0  0
    1.5397   -8.3438   23.2124 C   0  0  0  0  0  0  0  0  0  0  0  0
    2.3494   -9.4762   23.4963 O   0  0  0  0  0  0  0  0  0  0  0  0
    2.7913  -10.1737   22.3206 C   0  0  0  0  0  0  0  0  0  0  0  0
    1.7700  -10.0904   21.2192 C   0  0  0  0  0  0  0  0  0  0  0  0
    5.8188   -7.8321   19.0969 H   0  0  0  0  0  0  0  0  0  0  0  0
    3.4995   -7.6185   19.7711 H   0  0  0  0  0  0  0  0  0  0  0  0
    4.6786   -8.4047   14.9876 H   0  0  0  0  0  0  0  0  0  0  0  0
    8.6224   -5.6535   18.0866 H   0  0  0  0  0  0  0  0  0  0  0  0
    7.9316   -6.8447   19.1884 H   0  0  0  0  0  0  0  0  0  0  0  0
    6.8803   -5.8845   18.1808 H   0  0  0  0  0  0  0  0  0  0  0  0
    7.5964  -10.9754   14.8312 H   0  0  0  0  0  0  0  0  0  0  0  0
    6.7681   -9.7779   13.8479 H   0  0  0  0  0  0  0  0  0  0  0  0
    5.9651  -10.4855   15.2534 H   0  0  0  0  0  0  0  0  0  0  0  0
   -1.1064   -8.3590   17.0434 H   0  0  0  0  0  0  0  0  0  0  0  0
   -0.5674   -9.3169   15.6919 H   0  0  0  0  0  0  0  0  0  0  0  0
   -2.0468   -7.5102   14.9346 H   0  0  0  0  0  0  0  0  0  0  0  0
   -0.4487   -7.3915   14.2282 H   0  0  0  0  0  0  0  0  0  0  0  0
    1.0860   -5.5661   14.8797 H   0  0  0  0  0  0  0  0  0  0  0  0
    1.2757   -3.2446   15.6828 H   0  0  0  0  0  0  0  0  0  0  0  0
   -2.6019   -3.5415   17.4448 H   0  0  0  0  0  0  0  0  0  0  0  0
   -2.8071   -5.8384   16.6127 H   0  0  0  0  0  0  0  0  0  0  0  0
   -0.3717   -7.0888   18.5712 H   0  0  0  0  0  0  0  0  0  0  0  0
    1.0803   -6.5540   19.3653 H   0  0  0  0  0  0  0  0  0  0  0  0
    0.1366   -9.4356   19.5147 H   0  0  0  0  0  0  0  0  0  0  0  0
   -0.4357   -8.2146   20.6422 H   0  0  0  0  0  0  0  0  0  0  0  0
    1.2694   -6.8449   21.7156 H   0  0  0  0  0  0  0  0  0  0  0  0
    2.9056   -7.4484   21.8581 H   0  0  0  0  0  0  0  0  0  0  0  0
    0.4787   -8.6223   23.2468 H   0  0  0  0  0  0  0  0  0  0  0  0
    1.7188   -7.6125   24.0021 H   0  0  0  0  0  0  0  0  0  0  0  0
    2.9532  -11.2096   22.6058 H   0  0  0  0  0  0  0  0  0  0  0  0
    3.7467   -9.7641   21.9782 H   0  0  0  0  0  0  0  0  0  0  0  0
    0.8256  -10.5221   21.5810 H   0  0  0  0  0  0  0  0  0  0  0  0
    2.0887  -10.6871   20.3669 H   0  0  0  0  0  0  0  0  0  0  0  0
  1  2  2  0
  2  3  1  0
  2 35  1  0
  3  4  2  0
  3 36  1  0
  4  5  1  0
  5  6  2  0
  5  7  1  0
  6  1  1  0
  6 37  1  0
  7  8  2  0
  8 17  1  0
  8  9  1  0
  9 27  1  0
  9  4  1  0
 10 11  1  0
 10 38  1  0
 10 39  1  0
 10 40  1  0
 11 12  2  0
 12 13  1  0
 13 14  1  0
 14 15  1  0
 14 16  2  0
 15 41  1  0
 15 42  1  0
 15 43  1  0
 16  1  1  0
 16 11  1  0
 17 18  1  0
 17 44  1  0
 17 45  1  0
 18 19  1  0
 18 46  1  0
 18 47  1  0
 19 20  2  0
 20 21  1  0
 20 48  1  0
 21 22  2  0
 21 49  1  0
 22 23  1  0
 22 24  1  0
 23 26  1  0
 24 25  2  0
 24 50  1  0
 25 19  1  0
 25 51  1  0
 27 28  1  0
 27 52  1  0
 27 53  1  0
 28 29  1  0
 28 54  1  0
 28 55  1  0
 29 30  1  0
 30 31  1  0
 30 56  1  0
 30 57  1  0
 31 32  1  0
 31 58  1  0
 31 59  1  0
 32 33  1  0
 33 34  1  0
 33 60  1  0
 33 61  1  0
 34 29  1  0
 34 62  1  0
 34 63  1  0
M  END
>  <minimizedAffinity>  (2) 
-8.39248

>  <mol_id>  (2) 
25339

>  <source_index>  (2) 
1

>  <layer>  (2) 
L1

>  <uniprot>  (2) 
Q92793

>  <paff>  (2) 
6.5228999999999999

>  <smiles>  (2) 
Cc1noc(C)c1-c1ccc2n(CCN3CCOCC3)c(CCc3ccc(O)cc3)nc2c1

>  <aimnet_interaction_kcal_mol>  (2) 
-53.115143958038018

$$$$
L1:Q92793:32149
     RDKit          3D

 78 82  0  0  0  0  0  0  0  0999 V2000
    4.8253   -8.7752   17.9286 C   0  0  0  0  0  0  0  0  0  0  0  0
    5.0455   -8.9119   19.2076 N   0  0  0  0  0  0  0  0  0  0  0  0
    3.8990   -8.4848   19.8558 C   0  0  0  0  0  0  0  0  0  0  0  0
    3.5781   -8.5680   21.2080 C   0  0  0  0  0  0  0  0  0  0  0  0
    2.2739   -8.2613   21.5877 C   0  0  0  0  0  0  0  0  0  0  0  0
    1.3948   -7.6905   20.6427 C   0  0  0  0  0  0  0  0  0  0  0  0
    1.7104   -7.5822   19.3012 C   0  0  0  0  0  0  0  0  0  0  0  0
    2.9639   -8.0309   18.9034 C   0  0  0  0  0  0  0  0  0  0  0  0
    3.5775   -8.2170   17.6578 N   0  0  0  0  0  0  0  0  0  0  0  0
    1.7569   -8.6393   22.9099 C   0  0  0  0  0  0  0  0  0  0  0  0
    1.1451   -7.8298   23.9095 C   0  0  0  0  0  0  0  0  0  0  0  0
    0.9265   -6.3610   23.9122 C   0  0  0  0  0  0  0  0  0  0  0  0
    0.7869   -8.5410   24.9500 N   0  0  0  0  0  0  0  0  0  0  0  0
    1.1495   -9.8648   24.6560 O   0  0  0  0  0  0  0  0  0  0  0  0
    1.7337   -9.8982   23.4428 C   0  0  0  0  0  0  0  0  0  0  0  0
    2.2125  -11.1950   22.9291 C   0  0  0  0  0  0  0  0  0  0  0  0
    5.7517   -9.1827   16.8454 C   0  0  0  0  0  0  0  0  0  0  0  0
    6.5146   -7.9846   16.2610 C   0  0  0  0  0  0  0  0  0  0  0  0
   10.3132   -7.1663   18.0975 C   0  0  0  0  0  0  0  0  0  0  0  0
    9.1450   -6.6630   18.6571 C   0  0  0  0  0  0  0  0  0  0  0  0
    7.9165   -6.9516   18.0827 C   0  0  0  0  0  0  0  0  0  0  0  0
    7.8275   -7.7191   16.9299 C   0  0  0  0  0  0  0  0  0  0  0  0
    8.9971   -8.2742   16.4252 C   0  0  0  0  0  0  0  0  0  0  0  0
   10.2279   -8.0193   17.0027 C   0  0  0  0  0  0  0  0  0  0  0  0
   11.5850   -6.7903   18.4893 O   0  0  0  0  0  0  0  0  0  0  0  0
   11.8509   -6.5907   19.8764 C   0  0  0  0  0  0  0  0  0  0  0  0
   12.1774   -7.8947   20.5808 C   0  0  0  0  0  0  0  0  0  0  0  0
   10.9439   -8.7565   20.8155 C   0  0  0  0  0  0  0  0  0  0  0  0
   11.2033  -10.0213   21.5755 C   0  0  0  0  0  0  0  0  0  0  0  0
   10.6885  -10.3370   22.6210 O   0  0  0  0  0  0  0  0  0  0  0  0
   12.3636  -12.0926   21.5629 C   0  0  0  0  0  0  0  0  0  0  0  0
   12.1116  -10.8144   20.9360 O   0  0  0  0  0  0  0  0  0  0  0  0
    2.9485   -8.2484   16.3458 C   0  0  0  0  0  0  0  0  0  0  0  0
    2.2381   -6.9783   15.9044 C   0  0  0  0  0  0  0  0  0  0  0  0
    0.8333   -6.9266   16.2614 N   0  0  0  0  0  0  0  0  0  0  0  0
    0.3276   -5.5599   16.1489 C   0  0  0  0  0  0  0  0  0  0  0  0
   -1.1639   -5.5458   15.9424 C   0  0  0  0  0  0  0  0  0  0  0  0
   -1.5388   -6.1726   14.7093 O   0  0  0  0  0  0  0  0  0  0  0  0
   -0.7232   -7.3005   14.3629 C   0  0  0  0  0  0  0  0  0  0  0  0
   -0.0309   -7.8923   15.5704 C   0  0  0  0  0  0  0  0  0  0  0  0
    4.3236   -8.8736   21.9357 H   0  0  0  0  0  0  0  0  0  0  0  0
    0.4222   -7.3578   20.9784 H   0  0  0  0  0  0  0  0  0  0  0  0
    0.9939   -7.1810   18.6038 H   0  0  0  0  0  0  0  0  0  0  0  0
    0.3502   -6.0406   23.0453 H   0  0  0  0  0  0  0  0  0  0  0  0
    1.8722   -5.8254   23.8513 H   0  0  0  0  0  0  0  0  0  0  0  0
    0.4050   -6.0620   24.8175 H   0  0  0  0  0  0  0  0  0  0  0  0
    1.6571  -12.0134   23.3795 H   0  0  0  0  0  0  0  0  0  0  0  0
    3.2712  -11.3429   23.1364 H   0  0  0  0  0  0  0  0  0  0  0  0
    2.0789  -11.2286   21.8504 H   0  0  0  0  0  0  0  0  0  0  0  0
    6.4334   -9.9255   17.2427 H   0  0  0  0  0  0  0  0  0  0  0  0
    5.1997   -9.6924   16.0636 H   0  0  0  0  0  0  0  0  0  0  0  0
    6.6626   -8.1442   15.1947 H   0  0  0  0  0  0  0  0  0  0  0  0
    5.8871   -7.0981   16.3496 H   0  0  0  0  0  0  0  0  0  0  0  0
    9.1589   -6.0267   19.5272 H   0  0  0  0  0  0  0  0  0  0  0  0
    7.0159   -6.5893   18.5626 H   0  0  0  0  0  0  0  0  0  0  0  0
    8.9309   -8.9655   15.5954 H   0  0  0  0  0  0  0  0  0  0  0  0
   11.1154   -8.5082   16.6320 H   0  0  0  0  0  0  0  0  0  0  0  0
   12.7119   -5.9222   19.9011 H   0  0  0  0  0  0  0  0  0  0  0  0
   11.0305   -6.0811   20.3792 H   0  0  0  0  0  0  0  0  0  0  0  0
   12.8913   -8.4400   19.9652 H   0  0  0  0  0  0  0  0  0  0  0  0
   12.6653   -7.6742   21.5334 H   0  0  0  0  0  0  0  0  0  0  0  0
   10.1871   -8.2008   21.3619 H   0  0  0  0  0  0  0  0  0  0  0  0
   10.5021   -9.0104   19.8561 H   0  0  0  0  0  0  0  0  0  0  0  0
   13.0983  -12.5864   20.9378 H   0  0  0  0  0  0  0  0  0  0  0  0
   11.4471  -12.6714   21.6106 H   0  0  0  0  0  0  0  0  0  0  0  0
   12.7535  -11.9387   22.5633 H   0  0  0  0  0  0  0  0  0  0  0  0
    2.2739   -9.0976   16.2962 H   0  0  0  0  0  0  0  0  0  0  0  0
    3.7399   -8.4488   15.6356 H   0  0  0  0  0  0  0  0  0  0  0  0
    2.3508   -6.8926   14.8143 H   0  0  0  0  0  0  0  0  0  0  0  0
    2.7465   -6.1176   16.3415 H   0  0  0  0  0  0  0  0  0  0  0  0
    0.7911   -5.0285   15.3033 H   0  0  0  0  0  0  0  0  0  0  0  0
    0.5785   -5.0052   17.0549 H   0  0  0  0  0  0  0  0  0  0  0  0
   -1.5306   -4.5229   15.8900 H   0  0  0  0  0  0  0  0  0  0  0  0
   -1.6640   -6.0428   16.7764 H   0  0  0  0  0  0  0  0  0  0  0  0
    0.0196   -6.9978   13.6179 H   0  0  0  0  0  0  0  0  0  0  0  0
   -1.3783   -8.0457   13.9087 H   0  0  0  0  0  0  0  0  0  0  0  0
    0.5535   -8.7498   15.2502 H   0  0  0  0  0  0  0  0  0  0  0  0
   -0.7842   -8.2722   16.2602 H   0  0  0  0  0  0  0  0  0  0  0  0
  1  2  2  0
  2  3  1  0
  3  4  2  0
  4  5  1  0
  4 41  1  0
  5 10  1  0
  5  6  2  0
  6  7  1  0
  6 42  1  0
  7  8  2  0
  7 43  1  0
  8  9  1  0
  8  3  1  0
  9 33  1  0
  9  1  1  0
 10 11  1  0
 11 12  1  0
 11 13  2  0
 12 44  1  0
 12 45  1  0
 12 46  1  0
 13 14  1  0
 14 15  1  0
 15 16  1  0
 15 10  2  0
 16 47  1  0
 16 48  1  0
 16 49  1  0
 17  1  1  0
 17 50  1  0
 17 51  1  0
 18 17  1  0
 18 52  1  0
 18 53  1  0
 19 20  2  0
 20 21  1  0
 20 54  1  0
 21 22  2  0
 21 55  1  0
 22 18  1  0
 22 23  1  0
 23 24  2  0
 23 56  1  0
 24 19  1  0
 24 57  1  0
 25 19  1  0
 26 25  1  0
 26 58  1  0
 26 59  1  0
 27 26  1  0
 27 60  1  0
 27 61  1  0
 28 27  1  0
 28 62  1  0
 28 63  1  0
 29 30  2  0
 29 28  1  0
 31 32  1  0
 31 64  1  0
 31 65  1  0
 31 66  1  0
 32 29  1  0
 33 34  1  0
 33 67  1  0
 33 68  1  0
 34 35  1  0
 34 69  1  0
 34 70  1  0
 35 36  1  0
 36 37  1  0
 36 71  1  0
 36 72  1  0
 37 38  1  0
 37 73  1  0
 37 74  1  0
 38 39  1  0
 39 40  1  0
 39 75  1  0
 39 76  1  0
 40 35  1  0
 40 77  1  0
 40 78  1  0
M  END
>  <minimizedAffinity>  (3) 
-7.71573

>  <mol_id>  (3) 
32149

>  <source_index>  (3) 
2

>  <layer>  (3) 
L1

>  <uniprot>  (3) 
Q92793

>  <paff>  (3) 
6.3010000000000002

>  <smiles>  (3) 
COC(=O)CCCOc1ccc(CCc2nc3cc(-c4c(C)noc4C)ccc3n2CCN2CCOCC2)cc1

>  <aimnet_interaction_kcal_mol>  (3) 
-57.747856415683913

$$$$
L1:Q92793:37452
     RDKit          3D

 50 53  0  0  0  0  0  0  0  0999 V2000
    3.3793   -9.1589   13.6298 C   0  0  0  0  0  0  0  0  0  0  0  0
    4.3830   -9.8428   13.5289 O   0  0  0  0  0  0  0  0  0  0  0  0
    2.9967   -8.5273   14.7956 N   0  0  0  0  0  0  0  0  0  0  0  0
    2.0563   -8.1716   14.8406 H   0  0  0  0  0  0  0  0  0  0  0  0
    0.6130   -8.8017   11.1726 C   0  0  0  0  0  0  0  0  0  0  0  0
    1.0764   -9.0064   12.4687 C   0  0  0  0  0  0  0  0  0  0  0  0
    2.4630   -8.9322   12.4903 C   0  0  0  0  0  0  0  0  0  0  0  0
    2.8945   -8.6726   11.1697 C   0  0  0  0  0  0  0  0  0  0  0  0
    4.1621   -8.5446   10.5844 C   0  0  0  0  0  0  0  0  0  0  0  0
    4.2327   -8.2820    9.2358 C   0  0  0  0  0  0  0  0  0  0  0  0
    5.4603   -8.1919    8.6138 O   0  0  0  0  0  0  0  0  0  0  0  0
    3.0523   -8.0882    8.4844 C   0  0  0  0  0  0  0  0  0  0  0  0
    1.8304   -8.2067    9.0730 C   0  0  0  0  0  0  0  0  0  0  0  0
    1.7464   -8.5488   10.3870 N   0  0  0  0  0  0  0  0  0  0  0  0
    5.3097   -8.2931    7.6670 H   0  0  0  0  0  0  0  0  0  0  0  0
   -1.8000   -9.4150   11.5486 C   0  0  0  0  0  0  0  0  0  0  0  0
   -0.7061   -8.9395   10.6266 C   0  0  0  0  0  0  0  0  0  0  0  0
   -0.9445   -8.7105    9.4350 O   0  0  0  0  0  0  0  0  0  0  0  0
    3.7693   -8.3333   15.9455 C   0  0  0  0  0  0  0  0  0  0  0  0
    3.1522   -8.3062   17.1933 C   0  0  0  0  0  0  0  0  0  0  0  0
    3.8840   -8.1426   18.3614 C   0  0  0  0  0  0  0  0  0  0  0  0
    5.2451   -7.9245   18.2723 C   0  0  0  0  0  0  0  0  0  0  0  0
    5.9060   -7.9424   17.0459 C   0  0  0  0  0  0  0  0  0  0  0  0
    5.1454   -8.1174   15.8931 C   0  0  0  0  0  0  0  0  0  0  0  0
    5.7464   -7.9857   14.7062 F   0  0  0  0  0  0  0  0  0  0  0  0
    7.3525   -7.7986   16.9743 C   0  0  0  0  0  0  0  0  0  0  0  0
    8.2378   -8.3528   16.0257 C   0  0  0  0  0  0  0  0  0  0  0  0
    9.5076   -8.0504   16.2979 N   0  0  0  0  0  0  0  0  0  0  0  0
    9.4485   -7.3089   17.4313 N   0  0  0  0  0  0  0  0  0  0  0  0
   10.6685   -7.0436   18.1581 C   0  0  0  0  0  0  0  0  0  0  0  0
    8.1770   -7.1403   17.8680 C   0  0  0  0  0  0  0  0  0  0  0  0
    3.2066   -8.2381   19.7050 C   0  0  0  0  0  0  0  0  0  0  0  0
    4.0913   -8.4523   20.7816 O   0  0  0  0  0  0  0  0  0  0  0  0
    4.5582   -7.6179   20.9675 H   0  0  0  0  0  0  0  0  0  0  0  0
    0.4529   -9.2373   13.3198 H   0  0  0  0  0  0  0  0  0  0  0  0
    5.0377   -8.6691   11.2053 H   0  0  0  0  0  0  0  0  0  0  0  0
    3.0968   -7.8207    7.4391 H   0  0  0  0  0  0  0  0  0  0  0  0
    0.8941   -8.0212    8.5786 H   0  0  0  0  0  0  0  0  0  0  0  0
   -2.7505   -9.3668   11.0276 H   0  0  0  0  0  0  0  0  0  0  0  0
   -1.8577   -8.8296   12.4651 H   0  0  0  0  0  0  0  0  0  0  0  0
   -1.6131  -10.4486   11.8407 H   0  0  0  0  0  0  0  0  0  0  0  0
    2.0847   -8.4650   17.2488 H   0  0  0  0  0  0  0  0  0  0  0  0
    5.8205   -7.7574   19.1671 H   0  0  0  0  0  0  0  0  0  0  0  0
    7.9681   -8.9944   15.2022 H   0  0  0  0  0  0  0  0  0  0  0  0
   11.5072   -7.1198   17.4750 H   0  0  0  0  0  0  0  0  0  0  0  0
   10.7865   -7.7750   18.9594 H   0  0  0  0  0  0  0  0  0  0  0  0
   10.6363   -6.0466   18.5898 H   0  0  0  0  0  0  0  0  0  0  0  0
    7.9349   -6.5850   18.7599 H   0  0  0  0  0  0  0  0  0  0  0  0
    2.5083   -9.0760   19.6858 H   0  0  0  0  0  0  0  0  0  0  0  0
    2.6045   -7.3321   19.8580 H   0  0  0  0  0  0  0  0  0  0  0  0
  1  2  2  0
  1  3  1  0
  3 19  1  0
  3  4  1  0
  5  6  2  0
  6  7  1  0
  6 35  1  0
  7  1  1  0
  7  8  2  0
  8  9  1  0
  9 10  2  0
  9 36  1  0
 10 11  1  0
 10 12  1  0
 11 15  1  0
 12 13  2  0
 12 37  1  0
 13 14  1  0
 13 38  1  0
 14  5  1  0
 14  8  1  0
 16 17  1  0
 16 39  1  0
 16 40  1  0
 16 41  1  0
 17 18  2  0
 17  5  1  0
 19 20  2  0
 20 21  1  0
 20 42  1  0
 21 32  1  0
 21 22  2  0
 22 23  1  0
 22 43  1  0
 23 26  1  0
 23 24  2  0
 24 25  1  0
 24 19  1  0
 26 27  1  0
 27 28  2  0
 27 44  1  0
 28 29  1  0
 29 30  1  0
 29 31  1  0
 30 45  1  0
 30 46  1  0
 30 47  1  0
 31 26  2  0
 31 48  1  0
 32 33  1  0
 32 49  1  0
 32 50  1  0
 33 34  1  0
M  END
>  <minimizedAffinity>  (4) 
-8.00214

>  <mol_id>  (4) 
37452

>  <source_index>  (4) 
3

>  <layer>  (4) 
L1

>  <uniprot>  (4) 
Q92793

>  <paff>  (4) 
8.2218

>  <smiles>  (4) 
CC(=O)c1cc(C(=O)Nc2cc(CO)cc(-c3cnn(C)c3)c2F)c2cc(O)ccn12

>  <aimnet_interaction_kcal_mol>  (4) 
-45.00479571368566

$$$$
L1:Q92793:46896
     RDKit          3D

 62 65  0  0  0  0  0  0  0  0999 V2000
    3.4802   -8.0867   17.3275 C   0  0  0  0  0  0  0  0  0  0  0  0
    4.3265   -8.4034   16.2543 C   0  0  0  0  0  0  0  0  0  0  0  0
    3.8591   -8.4306   14.9480 C   0  0  0  0  0  0  0  0  0  0  0  0
    2.5397   -8.0855   14.7160 C   0  0  0  0  0  0  0  0  0  0  0  0
    1.6987   -7.7385   15.7706 C   0  0  0  0  0  0  0  0  0  0  0  0
    2.1380   -7.7747   17.0766 C   0  0  0  0  0  0  0  0  0  0  0  0
    0.3388   -7.3517   15.2784 C   0  0  0  0  0  0  0  0  0  0  0  0
    0.3353   -7.8729   13.8349 C   0  0  0  0  0  0  0  0  0  0  0  0
    1.8087   -7.9108   13.4197 C   0  0  1  0  0  0  0  0  0  0  0  0
    2.2200   -6.6324   12.8259 O   0  0  0  0  0  0  0  0  0  0  0  0
    2.8273   -6.8478   11.6416 C   0  0  0  0  0  0  0  0  0  0  0  0
    3.4798   -6.0260   11.0491 O   0  0  0  0  0  0  0  0  0  0  0  0
    2.5692   -8.1440   11.2437 N   0  0  0  0  0  0  0  0  0  0  0  0
    2.0615   -8.9073   12.2852 C   0  0  0  0  0  0  0  0  0  0  0  0
    1.8314  -10.0883   12.2520 O   0  0  0  0  0  0  0  0  0  0  0  0
    3.5827   -8.9751   22.1340 C   0  0  0  0  0  0  0  0  0  0  0  0
    4.0934   -8.4498   20.8866 N   0  0  0  0  0  0  0  0  0  0  0  0
    3.3302   -8.5135   19.7634 C   0  0  0  0  0  0  0  0  0  0  0  0
    2.1867   -8.9467   19.7174 O   0  0  0  0  0  0  0  0  0  0  0  0
    4.0023   -8.0550   18.6224 N   0  0  0  0  0  0  0  0  0  0  0  0
    4.7552   -7.6848   20.9539 H   0  0  0  0  0  0  0  0  0  0  0  0
    4.9785   -7.8354   18.7313 H   0  0  0  0  0  0  0  0  0  0  0  0
    2.8216   -8.6557    9.9339 C   0  0  0  0  0  0  0  0  0  0  0  0
    4.1511   -9.4054    9.8933 C   0  0  0  0  0  0  0  0  0  0  0  0
    4.8441   -9.4745   10.8893 O   0  0  0  0  0  0  0  0  0  0  0  0
    4.4791  -10.0088    8.6952 N   0  0  0  0  0  0  0  0  0  0  0  0
    5.6319  -10.9035    8.7538 C   0  0  1  0  0  0  0  0  0  0  0  0
    5.2643  -12.3749    8.6559 C   0  0  0  0  0  0  0  0  0  0  0  0
    6.7099  -10.5067    7.7639 C   0  0  0  0  0  0  0  0  0  0  0  0
    7.8231  -11.2384    7.9240 F   0  0  0  0  0  0  0  0  0  0  0  0
    7.0708   -9.1959    7.9174 F   0  0  0  0  0  0  0  0  0  0  0  0
    6.3282  -10.6438    6.4585 F   0  0  0  0  0  0  0  0  0  0  0  0
    3.6011   -9.9741    7.5287 C   0  0  0  0  0  0  0  0  0  0  0  0
    3.7881   -8.8431    6.5462 C   0  0  0  0  0  0  0  0  0  0  0  0
    4.3440   -7.6129    6.8763 C   0  0  0  0  0  0  0  0  0  0  0  0
    4.5202   -6.6310    5.9089 C   0  0  0  0  0  0  0  0  0  0  0  0
    4.1749   -6.9087    4.6014 C   0  0  0  0  0  0  0  0  0  0  0  0
    4.4586   -5.9921    3.6463 F   0  0  0  0  0  0  0  0  0  0  0  0
    3.5553   -8.0893    4.2473 C   0  0  0  0  0  0  0  0  0  0  0  0
    3.3621   -9.0430    5.2343 C   0  0  0  0  0  0  0  0  0  0  0  0
    5.3563   -8.6688   16.4553 H   0  0  0  0  0  0  0  0  0  0  0  0
    4.5160   -8.7150   14.1347 H   0  0  0  0  0  0  0  0  0  0  0  0
    1.4652   -7.5903   17.9001 H   0  0  0  0  0  0  0  0  0  0  0  0
    0.2187   -6.2670   15.3131 H   0  0  0  0  0  0  0  0  0  0  0  0
   -0.4525   -7.7791   15.8895 H   0  0  0  0  0  0  0  0  0  0  0  0
   -0.2532   -7.2935   13.1313 H   0  0  0  0  0  0  0  0  0  0  0  0
   -0.0355   -8.8944   13.8089 H   0  0  0  0  0  0  0  0  0  0  0  0
    3.3068  -10.0171   22.0042 H   0  0  0  0  0  0  0  0  0  0  0  0
    2.6967   -8.4351   22.4740 H   0  0  0  0  0  0  0  0  0  0  0  0
    4.3567   -8.9117   22.8890 H   0  0  0  0  0  0  0  0  0  0  0  0
    2.8092   -7.8318    9.2289 H   0  0  0  0  0  0  0  0  0  0  0  0
    2.0072   -9.3268    9.6739 H   0  0  0  0  0  0  0  0  0  0  0  0
    6.0553  -10.7161    9.7361 H   0  0  0  0  0  0  0  0  0  0  0  0
    4.8597  -12.6465    7.6854 H   0  0  0  0  0  0  0  0  0  0  0  0
    4.5241  -12.5954    9.4186 H   0  0  0  0  0  0  0  0  0  0  0  0
    6.1343  -13.0012    8.8453 H   0  0  0  0  0  0  0  0  0  0  0  0
    2.5662   -9.9854    7.8640 H   0  0  0  0  0  0  0  0  0  0  0  0
    3.7314  -10.9085    6.9900 H   0  0  0  0  0  0  0  0  0  0  0  0
    4.6633   -7.4186    7.8917 H   0  0  0  0  0  0  0  0  0  0  0  0
    4.8620   -5.6379    6.1567 H   0  0  0  0  0  0  0  0  0  0  0  0
    3.2006   -8.2361    3.2385 H   0  0  0  0  0  0  0  0  0  0  0  0
    2.8705   -9.9726    4.9721 H   0  0  0  0  0  0  0  0  0  0  0  0
  1  2  2  0
  2  3  1  0
  2 41  1  0
  3  4  2  0
  3 42  1  0
  4  5  1  0
  5  6  2  0
  5  7  1  0
  6  1  1  0
  6 43  1  0
  7  8  1  0
  7 44  1  0
  7 45  1  0
  8  9  1  0
  8 46  1  0
  8 47  1  0
  9 10  1  6
  9  4  1  0
 10 11  1  0
 11 12  2  0
 11 13  1  0
 13 23  1  0
 13 14  1  0
 14 15  2  0
 14  9  1  0
 16 17  1  0
 16 48  1  0
 16 49  1  0
 16 50  1  0
 17 18  1  0
 17 21  1  0
 18 19  2  0
 18 20  1  0
 20  1  1  0
 20 22  1  0
 23 24  1  0
 23 51  1  0
 23 52  1  0
 24 25  2  0
 24 26  1  0
 26 33  1  0
 26 27  1  0
 27 28  1  0
 27 29  1  0
 27 53  1  1
 28 54  1  0
 28 55  1  0
 28 56  1  0
 29 30  1  0
 29 31  1  0
 29 32  1  0
 33 34  1  0
 33 57  1  0
 33 58  1  0
 34 35  2  0
 35 36  1  0
 35 59  1  0
 36 37  2  0
 36 60  1  0
 37 38  1  0
 37 39  1  0
 39 40  2  0
 39 61  1  0
 40 34  1  0
 40 62  1  0
M  END
>  <minimizedAffinity>  (5) 
-7.65749

>  <mol_id>  (5) 
46896

>  <source_index>  (5) 
4

>  <layer>  (5) 
L1

>  <uniprot>  (5) 
Q92793

>  <paff>  (5) 
8.5850000000000009

>  <smiles>  (5) 
C[C@@H](C(F)(F)F)N(Cc1ccc(cc1)F)C(=O)CN2C(=O)[C@]3(CCc4c3ccc(c4)NC(=O)NC)OC2=O

>  <aimnet_interaction_kcal_mol>  (5) 
-49.650775292770277

$$$$
L1:Q92793:62803
     RDKit          3D

 86 90  0  0  0  0  0  0  0  0999 V2000
    3.2364   -7.8155   16.3723 C   0  0  0  0  0  0  0  0  0  0  0  0
    2.5086   -7.1144   15.5277 N   0  0  0  0  0  0  0  0  0  0  0  0
    1.6225   -6.3867   16.2977 C   0  0  0  0  0  0  0  0  0  0  0  0
    0.6101   -5.5104   15.9091 C   0  0  0  0  0  0  0  0  0  0  0  0
   -0.1835   -4.9182   16.8835 C   0  0  0  0  0  0  0  0  0  0  0  0
    0.0880   -5.1771   18.2462 C   0  0  0  0  0  0  0  0  0  0  0  0
    1.0763   -6.0502   18.6496 C   0  0  0  0  0  0  0  0  0  0  0  0
    1.8452   -6.6548   17.6613 C   0  0  0  0  0  0  0  0  0  0  0  0
    2.8943   -7.5605   17.6928 N   0  0  0  0  0  0  0  0  0  0  0  0
   -1.2657   -3.9821   16.5428 C   0  0  0  0  0  0  0  0  0  0  0  0
   -1.2289   -2.5719   16.7503 C   0  0  0  0  0  0  0  0  0  0  0  0
   -0.1446   -1.7949   17.3965 C   0  0  0  0  0  0  0  0  0  0  0  0
   -2.3139   -1.9843   16.3170 N   0  0  0  0  0  0  0  0  0  0  0  0
   -3.1368   -3.0199   15.8461 O   0  0  0  0  0  0  0  0  0  0  0  0
   -2.4948   -4.1980   15.9908 C   0  0  0  0  0  0  0  0  0  0  0  0
   -3.2356   -5.4164   15.5975 C   0  0  0  0  0  0  0  0  0  0  0  0
    4.2008   -8.8641   15.9536 C   0  0  0  0  0  0  0  0  0  0  0  0
    5.4930   -8.4366   15.2454 C   0  0  0  0  0  0  0  0  0  0  0  0
    8.6835   -7.1666   17.8463 C   0  0  0  0  0  0  0  0  0  0  0  0
    8.9433   -8.0320   16.7893 C   0  0  0  0  0  0  0  0  0  0  0  0
    7.8916   -8.4689   15.9914 C   0  0  0  0  0  0  0  0  0  0  0  0
    6.5916   -8.0076   16.1697 C   0  0  0  0  0  0  0  0  0  0  0  0
    6.3652   -7.1176   17.2163 C   0  0  0  0  0  0  0  0  0  0  0  0
    7.3860   -6.7010   18.0495 C   0  0  0  0  0  0  0  0  0  0  0  0
    9.6251   -6.7307   18.7374 O   0  0  0  0  0  0  0  0  0  0  0  0
   10.8787   -7.4150   18.7717 C   0  0  0  0  0  0  0  0  0  0  0  0
   11.6031   -6.9660   20.0273 C   0  0  0  0  0  0  0  0  0  0  0  0
   11.1066   -7.6680   21.2999 C   0  0  0  0  0  0  0  0  0  0  0  0
   12.7666   -9.0931   22.3680 N   0  0  0  0  0  0  0  0  0  0  0  0
   11.7153   -9.0387   21.5011 C   0  0  0  0  0  0  0  0  0  0  0  0
   11.3221  -10.0472   20.9193 O   0  0  0  0  0  0  0  0  0  0  0  0
   12.9089   -8.2965   22.9667 H   0  0  0  0  0  0  0  0  0  0  0  0
   13.3168  -10.3513   22.8429 C   0  0  0  0  0  0  0  0  0  0  0  0
   13.5893  -10.3205   24.3302 C   0  0  0  0  0  0  0  0  0  0  0  0
   12.5647   -9.9668   26.4137 C   0  0  0  0  0  0  0  0  0  0  0  0
   12.3889  -10.0489   25.0144 O   0  0  0  0  0  0  0  0  0  0  0  0
    3.5104   -8.0600   18.9162 C   0  0  0  0  0  0  0  0  0  0  0  0
    2.5845   -8.9216   19.7603 C   0  0  0  0  0  0  0  0  0  0  0  0
    3.3406   -9.7067   20.7146 N   0  0  0  0  0  0  0  0  0  0  0  0
    2.4835  -10.6315   21.4656 C   0  0  0  0  0  0  0  0  0  0  0  0
    2.2019  -10.1421   22.8825 C   0  0  0  0  0  0  0  0  0  0  0  0
    2.0502   -8.7311   22.9235 O   0  0  0  0  0  0  0  0  0  0  0  0
    3.2474   -8.0562   22.5305 C   0  0  0  0  0  0  0  0  0  0  0  0
    4.1299   -8.9095   21.6472 C   0  0  0  0  0  0  0  0  0  0  0  0
    0.4589   -5.2940   14.8595 H   0  0  0  0  0  0  0  0  0  0  0  0
   -0.5081   -4.6763   18.9977 H   0  0  0  0  0  0  0  0  0  0  0  0
    1.2239   -6.2434   19.7002 H   0  0  0  0  0  0  0  0  0  0  0  0
   -0.0266   -2.0793   18.4419 H   0  0  0  0  0  0  0  0  0  0  0  0
   -0.3542   -0.7315   17.3555 H   0  0  0  0  0  0  0  0  0  0  0  0
    0.8151   -1.9930   16.9196 H   0  0  0  0  0  0  0  0  0  0  0  0
   -3.8653   -5.2292   14.7302 H   0  0  0  0  0  0  0  0  0  0  0  0
   -3.8922   -5.7382   16.4059 H   0  0  0  0  0  0  0  0  0  0  0  0
   -2.5499   -6.2330   15.3852 H   0  0  0  0  0  0  0  0  0  0  0  0
    4.4732   -9.4645   16.8097 H   0  0  0  0  0  0  0  0  0  0  0  0
    3.6453   -9.5161   15.2842 H   0  0  0  0  0  0  0  0  0  0  0  0
    5.8419   -9.2872   14.6637 H   0  0  0  0  0  0  0  0  0  0  0  0
    5.2714   -7.6717   14.5059 H   0  0  0  0  0  0  0  0  0  0  0  0
    9.9382   -8.4059   16.6009 H   0  0  0  0  0  0  0  0  0  0  0  0
    8.0836   -9.2152   15.2303 H   0  0  0  0  0  0  0  0  0  0  0  0
    5.3683   -6.7345   17.3818 H   0  0  0  0  0  0  0  0  0  0  0  0
    7.1838   -6.0317   18.8733 H   0  0  0  0  0  0  0  0  0  0  0  0
   10.7344   -8.4923   18.7914 H   0  0  0  0  0  0  0  0  0  0  0  0
   11.4547   -7.1635   17.8765 H   0  0  0  0  0  0  0  0  0  0  0  0
   12.6767   -7.1293   19.9125 H   0  0  0  0  0  0  0  0  0  0  0  0
   11.4666   -5.8923   20.1400 H   0  0  0  0  0  0  0  0  0  0  0  0
   11.3131   -7.0422   22.1682 H   0  0  0  0  0  0  0  0  0  0  0  0
   10.0252   -7.7792   21.2390 H   0  0  0  0  0  0  0  0  0  0  0  0
   12.6106  -11.1423   22.6052 H   0  0  0  0  0  0  0  0  0  0  0  0
   14.2454  -10.5822   22.3144 H   0  0  0  0  0  0  0  0  0  0  0  0
   14.0008  -11.2887   24.6374 H   0  0  0  0  0  0  0  0  0  0  0  0
   14.3520   -9.5589   24.5601 H   0  0  0  0  0  0  0  0  0  0  0  0
   11.5908   -9.7574   26.8435 H   0  0  0  0  0  0  0  0  0  0  0  0
   13.2532   -9.1599   26.6865 H   0  0  0  0  0  0  0  0  0  0  0  0
   12.9435  -10.9067   26.8277 H   0  0  0  0  0  0  0  0  0  0  0  0
    3.8654   -7.2098   19.4862 H   0  0  0  0  0  0  0  0  0  0  0  0
    4.3941   -8.6312   18.6593 H   0  0  0  0  0  0  0  0  0  0  0  0
    2.0582   -9.6150   19.1110 H   0  0  0  0  0  0  0  0  0  0  0  0
    1.8083   -8.3126   20.2379 H   0  0  0  0  0  0  0  0  0  0  0  0
    2.9598  -11.6115   21.5261 H   0  0  0  0  0  0  0  0  0  0  0  0
    1.5429  -10.7562   20.9338 H   0  0  0  0  0  0  0  0  0  0  0  0
    3.0074  -10.4701   23.5500 H   0  0  0  0  0  0  0  0  0  0  0  0
    1.2694  -10.5693   23.2535 H   0  0  0  0  0  0  0  0  0  0  0  0
    3.7970   -7.7573   23.4195 H   0  0  0  0  0  0  0  0  0  0  0  0
    2.9362   -7.1517   22.0133 H   0  0  0  0  0  0  0  0  0  0  0  0
    4.7234   -9.5754   22.2607 H   0  0  0  0  0  0  0  0  0  0  0  0
    4.8264   -8.2807   21.1027 H   0  0  0  0  0  0  0  0  0  0  0  0
  1  2  2  0
  2  3  1  0
  3  4  2  0
  4  5  1  0
  4 45  1  0
  5 10  1  0
  5  6  2  0
  6  7  1  0
  6 46  1  0
  7  8  2  0
  7 47  1  0
  8  9  1  0
  8  3  1  0
  9 37  1  0
  9  1  1  0
 10 11  1  0
 11 12  1  0
 11 13  2  0
 12 48  1  0
 12 49  1  0
 12 50  1  0
 13 14  1  0
 14 15  1  0
 15 16  1  0
 15 10  2  0
 16 51  1  0
 16 52  1  0
 16 53  1  0
 17  1  1  0
 17 54  1  0
 17 55  1  0
 18 17  1  0
 18 56  1  0
 18 57  1  0
 19 20  2  0
 20 21  1  0
 20 58  1  0
 21 22  2  0
 21 59  1  0
 22 18  1  0
 22 23  1  0
 23 24  2  0
 23 60  1  0
 24 19  1  0
 24 61  1  0
 25 19  1  0
 26 25  1  0
 26 62  1  0
 26 63  1  0
 27 26  1  0
 27 64  1  0
 27 65  1  0
 28 27  1  0
 28 66  1  0
 28 67  1  0
 29 30  1  0
 29 32  1  0
 30 31  2  0
 30 28  1  0
 33 29  1  0
 33 68  1  0
 33 69  1  0
 34 33  1  0
 34 70  1  0
 34 71  1  0
 35 36  1  0
 35 72  1  0
 35 73  1  0
 35 74  1  0
 36 34  1  0
 37 38  1  0
 37 75  1  0
 37 76  1  0
 38 39  1  0
 38 77  1  0
 38 78  1  0
 39 40  1  0
 40 41  1  0
 40 79  1  0
 40 80  1  0
 41 42  1  0
 41 81  1  0
 41 82  1  0
 42 43  1  0
 43 44  1  0
 43 83  1  0
 43 84  1  0
 44 39  1  0
 44 85  1  0
 44 86  1  0
M  END
>  <minimizedAffinity>  (6) 
-7.59336

>  <mol_id>  (6) 
62803

>  <source_index>  (6) 
5

>  <layer>  (6) 
L1

>  <uniprot>  (6) 
Q92793

>  <paff>  (6) 
6.4814999999999996

>  <smiles>  (6) 
COCCNC(=O)CCCOc1ccc(CCc2nc3cc(-c4c(C)noc4C)ccc3n2CCN2CCOCC2)cc1

>  <aimnet_interaction_kcal_mol>  (6) 
-64.885382996476778

$$$$
L1:Q92793:73412
     RDKit          3D

 66 70  0  0  0  0  0  0  0  0999 V2000
    1.7303   -8.3371   20.4289 C   0  0  0  0  0  0  0  0  0  0  0  0
    3.0370   -8.3787   20.5167 N   0  0  0  0  0  0  0  0  0  0  0  0
    3.5194   -8.2068   19.2275 C   0  0  0  0  0  0  0  0  0  0  0  0
    4.8276   -8.2091   18.7650 C   0  0  0  0  0  0  0  0  0  0  0  0
    5.0490   -8.1691   17.3883 C   0  0  0  0  0  0  0  0  0  0  0  0
    3.9458   -8.0390   16.5168 C   0  0  0  0  0  0  0  0  0  0  0  0
    2.6443   -7.9336   16.9709 C   0  0  0  0  0  0  0  0  0  0  0  0
    2.4419   -8.0514   18.3376 C   0  0  0  0  0  0  0  0  0  0  0  0
    1.3007   -8.1384   19.1193 N   0  0  0  0  0  0  0  0  0  0  0  0
    6.4133   -8.2079   16.8383 C   0  0  0  0  0  0  0  0  0  0  0  0
    7.5230   -7.4235   17.2800 C   0  0  0  0  0  0  0  0  0  0  0  0
    7.5549   -6.4571   18.4003 C   0  0  0  0  0  0  0  0  0  0  0  0
    8.6018   -7.6523   16.5766 N   0  0  0  0  0  0  0  0  0  0  0  0
    8.2269   -8.6334   15.6293 O   0  0  0  0  0  0  0  0  0  0  0  0
    6.9222   -8.9515   15.8117 C   0  0  0  0  0  0  0  0  0  0  0  0
    6.3841   -9.9774   14.9007 C   0  0  0  0  0  0  0  0  0  0  0  0
    0.8090   -8.6090   21.5727 C   0  0  0  0  0  0  0  0  0  0  0  0
    1.3188   -8.0744   22.9194 C   0  0  0  0  0  0  0  0  0  0  0  0
   -0.2686   -4.4402   24.6204 C   0  0  0  0  0  0  0  0  0  0  0  0
   -0.7039   -4.8435   23.3670 C   0  0  0  0  0  0  0  0  0  0  0  0
   -0.2002   -6.0006   22.7994 C   0  0  0  0  0  0  0  0  0  0  0  0
    0.7579   -6.7791   23.4402 C   0  0  0  0  0  0  0  0  0  0  0  0
    1.1918   -6.3349   24.6866 C   0  0  0  0  0  0  0  0  0  0  0  0
    0.6878   -5.1933   25.2845 C   0  0  0  0  0  0  0  0  0  0  0  0
   -0.8130   -3.1412   26.5307 C   0  0  0  0  0  0  0  0  0  0  0  0
   -0.8240   -3.2872   25.1261 O   0  0  0  0  0  0  0  0  0  0  0  0
   -0.0678   -8.0303   18.6522 C   0  0  0  0  0  0  0  0  0  0  0  0
   -0.6193   -6.6215   18.7955 C   0  0  0  0  0  0  0  0  0  0  0  0
   -0.1583   -5.7272   17.7508 N   0  0  0  0  0  0  0  0  0  0  0  0
   -0.9123   -5.8288   16.4934 C   0  0  0  0  0  0  0  0  0  0  0  0
   -1.9367   -4.7273   16.3688 C   0  0  0  0  0  0  0  0  0  0  0  0
   -1.3242   -3.4402   16.3327 O   0  0  0  0  0  0  0  0  0  0  0  0
   -0.1045   -3.3890   17.0735 C   0  0  0  0  0  0  0  0  0  0  0  0
   -0.0955   -4.3517   18.2318 C   0  0  0  0  0  0  0  0  0  0  0  0
    5.6382   -8.1962   19.4779 H   0  0  0  0  0  0  0  0  0  0  0  0
    4.1240   -8.0167   15.4507 H   0  0  0  0  0  0  0  0  0  0  0  0
    1.8287   -7.7750   16.2789 H   0  0  0  0  0  0  0  0  0  0  0  0
    6.5569   -6.1303   18.6640 H   0  0  0  0  0  0  0  0  0  0  0  0
    8.1571   -5.5894   18.1476 H   0  0  0  0  0  0  0  0  0  0  0  0
    7.9758   -6.9180   19.2935 H   0  0  0  0  0  0  0  0  0  0  0  0
    6.9346  -10.9118   15.0054 H   0  0  0  0  0  0  0  0  0  0  0  0
    6.4613   -9.6538   13.8641 H   0  0  0  0  0  0  0  0  0  0  0  0
    5.3420  -10.1761   15.1300 H   0  0  0  0  0  0  0  0  0  0  0  0
   -0.1838   -8.2308   21.3530 H   0  0  0  0  0  0  0  0  0  0  0  0
    0.6980   -9.6941   21.6317 H   0  0  0  0  0  0  0  0  0  0  0  0
    1.1362   -8.8397   23.6757 H   0  0  0  0  0  0  0  0  0  0  0  0
    2.4022   -7.9936   22.8399 H   0  0  0  0  0  0  0  0  0  0  0  0
   -1.4400   -4.2439   22.8478 H   0  0  0  0  0  0  0  0  0  0  0  0
   -0.5819   -6.2933   21.8343 H   0  0  0  0  0  0  0  0  0  0  0  0
    1.9510   -6.8996   25.2067 H   0  0  0  0  0  0  0  0  0  0  0  0
    1.0524   -4.8962   26.2557 H   0  0  0  0  0  0  0  0  0  0  0  0
   -1.4105   -2.2613   26.7591 H   0  0  0  0  0  0  0  0  0  0  0  0
    0.1980   -2.9949   26.9282 H   0  0  0  0  0  0  0  0  0  0  0  0
   -1.2467   -4.0105   27.0287 H   0  0  0  0  0  0  0  0  0  0  0  0
   -0.6706   -8.7329   19.2198 H   0  0  0  0  0  0  0  0  0  0  0  0
   -0.0985   -8.3665   17.6203 H   0  0  0  0  0  0  0  0  0  0  0  0
   -0.2853   -6.2240   19.7527 H   0  0  0  0  0  0  0  0  0  0  0  0
   -1.7183   -6.6607   18.8358 H   0  0  0  0  0  0  0  0  0  0  0  0
   -1.4081   -6.7976   16.4295 H   0  0  0  0  0  0  0  0  0  0  0  0
   -0.2274   -5.7651   15.6439 H   0  0  0  0  0  0  0  0  0  0  0  0
   -2.6478   -4.7802   17.2000 H   0  0  0  0  0  0  0  0  0  0  0  0
   -2.5105   -4.8337   15.4475 H   0  0  0  0  0  0  0  0  0  0  0  0
    0.0096   -2.3666   17.4283 H   0  0  0  0  0  0  0  0  0  0  0  0
    0.7354   -3.6130   16.4056 H   0  0  0  0  0  0  0  0  0  0  0  0
   -0.9398   -4.1043   18.8915 H   0  0  0  0  0  0  0  0  0  0  0  0
    0.8082   -4.2266   18.8253 H   0  0  0  0  0  0  0  0  0  0  0  0
  1  2  2  0
  2  3  1  0
  3  4  2  0
  4  5  1  0
  4 35  1  0
  5 10  1  0
  5  6  2  0
  6  7  1  0
  6 36  1  0
  7  8  2  0
  7 37  1  0
  8  9  1  0
  8  3  1  0
  9 27  1  0
  9  1  1  0
 10 11  1  0
 11 12  1  0
 11 13  2  0
 12 38  1  0
 12 39  1  0
 12 40  1  0
 13 14  1  0
 14 15  1  0
 15 16  1  0
 15 10  2  0
 16 41  1  0
 16 42  1  0
 16 43  1  0
 17  1  1  0
 17 44  1  0
 17 45  1  0
 18 17  1  0
 18 46  1  0
 18 47  1  0
 19 20  2  0
 20 21  1  0
 20 48  1  0
 21 22  2  0
 21 49  1  0
 22 18  1  0
 22 23  1  0
 23 24  2  0
 23 50  1  0
 24 19  1  0
 24 51  1  0
 25 26  1  0
 25 52  1  0
 25 53  1  0
 25 54  1  0
 26 19  1  0
 27 28  1  0
 27 55  1  0
 27 56  1  0
 28 29  1  0
 28 57  1  0
 28 58  1  0
 29 30  1  0
 30 31  1  0
 30 59  1  0
 30 60  1  0
 31 32  1  0
 31 61  1  0
 31 62  1  0
 32 33  1  0
 33 34  1  0
 33 63  1  0
 33 64  1  0
 34 29  1  0
 34 65  1  0
 34 66  1  0
M  END
>  <minimizedAffinity>  (7) 
-7.86378

>  <mol_id>  (7) 
73412

>  <source_index>  (7) 
6

>  <layer>  (7) 
L1

>  <uniprot>  (7) 
Q92793

>  <paff>  (7) 
6.1871

>  <smiles>  (7) 
COc1ccc(CCc2nc3cc(ccc3n2CCN2CCOCC2)-c2c(C)noc2C)cc1

>  <aimnet_interaction_kcal_mol>  (7) 
-44.168444514167412

$$$$
L1:Q92793:95108
     RDKit          3D

 62 65  0  0  0  0  0  0  0  0999 V2000
    6.9622   -9.0937   15.7754 C   0  0  0  0  0  0  0  0  0  0  0  0
    6.7495   -9.9730   14.7068 C   0  0  0  0  0  0  0  0  0  0  0  0
    5.5604   -9.9394   14.0005 C   0  0  0  0  0  0  0  0  0  0  0  0
    4.5499   -9.1136   14.4469 C   0  0  0  0  0  0  0  0  0  0  0  0
    4.6811   -8.3880   15.6231 C   0  0  0  0  0  0  0  0  0  0  0  0
    5.9035   -8.3265   16.2717 C   0  0  0  0  0  0  0  0  0  0  0  0
    3.3760   -7.7734   16.0233 C   0  0  0  0  0  0  0  0  0  0  0  0
    2.5235   -7.8539   14.7366 C   0  0  0  0  0  0  0  0  0  0  0  0
    3.1709   -8.9438   13.8734 C   0  0  2  0  0  0  0  0  0  0  0  0
    2.4320  -10.1929   13.9831 O   0  0  0  0  0  0  0  0  0  0  0  0
    2.3657  -10.7992   12.7827 C   0  0  0  0  0  0  0  0  0  0  0  0
    2.0110  -11.9184   12.5755 O   0  0  0  0  0  0  0  0  0  0  0  0
    2.7558   -9.8763   11.7929 N   0  0  0  0  0  0  0  0  0  0  0  0
    3.1640   -8.6893   12.3513 C   0  0  0  0  0  0  0  0  0  0  0  0
    3.4508   -7.6767   11.7558 O   0  0  0  0  0  0  0  0  0  0  0  0
   10.6455   -7.0956   18.2806 C   0  0  0  0  0  0  0  0  0  0  0  0
   10.0841   -8.0937   17.3986 N   0  0  0  0  0  0  0  0  0  0  0  0
    8.8426   -7.9005   16.8504 C   0  0  0  0  0  0  0  0  0  0  0  0
    8.3058   -6.7999   16.7901 O   0  0  0  0  0  0  0  0  0  0  0  0
    8.2560   -9.0372   16.3263 N   0  0  0  0  0  0  0  0  0  0  0  0
   10.4260   -9.0363   17.5202 H   0  0  0  0  0  0  0  0  0  0  0  0
    8.7827   -9.8935   16.2817 H   0  0  0  0  0  0  0  0  0  0  0  0
    2.8429  -10.2668   10.4175 C   0  0  0  0  0  0  0  0  0  0  0  0
    4.2867  -10.6439   10.0454 C   0  0  0  0  0  0  0  0  0  0  0  0
    5.1395  -10.7109   10.9149 O   0  0  0  0  0  0  0  0  0  0  0  0
    4.5619  -10.9691    8.7363 N   0  0  0  0  0  0  0  0  0  0  0  0
    5.8075  -11.7006    8.5318 C   0  0  1  0  0  0  0  0  0  0  0  0
    5.5842  -13.1334    8.0747 C   0  0  0  0  0  0  0  0  0  0  0  0
    6.7954  -10.9636    7.6472 C   0  0  0  0  0  0  0  0  0  0  0  0
    6.4303  -10.9383    6.3264 F   0  0  0  0  0  0  0  0  0  0  0  0
    8.0101  -11.5466    7.6955 F   0  0  0  0  0  0  0  0  0  0  0  0
    6.9577   -9.6713    8.0260 F   0  0  0  0  0  0  0  0  0  0  0  0
    3.6691  -10.6621    7.6188 C   0  0  0  0  0  0  0  0  0  0  0  0
    3.8757   -9.3093    6.9874 C   0  0  0  0  0  0  0  0  0  0  0  0
    4.0499   -9.2038    5.6120 C   0  0  0  0  0  0  0  0  0  0  0  0
    4.2245   -7.9718    5.0003 C   0  0  0  0  0  0  0  0  0  0  0  0
    4.1859   -6.8344    5.7809 C   0  0  0  0  0  0  0  0  0  0  0  0
    4.3788   -5.6287    5.1948 F   0  0  0  0  0  0  0  0  0  0  0  0
    3.9625   -6.8962    7.1418 C   0  0  0  0  0  0  0  0  0  0  0  0
    3.8727   -8.1402    7.7409 C   0  0  0  0  0  0  0  0  0  0  0  0
    7.5243  -10.6646   14.4062 H   0  0  0  0  0  0  0  0  0  0  0  0
    5.4276  -10.5334   13.1082 H   0  0  0  0  0  0  0  0  0  0  0  0
    6.0524   -7.6942   17.1335 H   0  0  0  0  0  0  0  0  0  0  0  0
    3.4950   -6.7602   16.4038 H   0  0  0  0  0  0  0  0  0  0  0  0
    2.9225   -8.3543   16.8274 H   0  0  0  0  0  0  0  0  0  0  0  0
    2.5574   -6.9178   14.1872 H   0  0  0  0  0  0  0  0  0  0  0  0
    1.4796   -8.0926   14.9233 H   0  0  0  0  0  0  0  0  0  0  0  0
    9.9125   -6.3096   18.4234 H   0  0  0  0  0  0  0  0  0  0  0  0
   11.5572   -6.6592   17.8670 H   0  0  0  0  0  0  0  0  0  0  0  0
   10.8828   -7.5390   19.2491 H   0  0  0  0  0  0  0  0  0  0  0  0
    2.4546   -9.4720    9.7889 H   0  0  0  0  0  0  0  0  0  0  0  0
    2.2016  -11.1403   10.3011 H   0  0  0  0  0  0  0  0  0  0  0  0
    6.2650  -11.7049    9.5163 H   0  0  0  0  0  0  0  0  0  0  0  0
    5.1547  -13.1859    7.0783 H   0  0  0  0  0  0  0  0  0  0  0  0
    4.9018  -13.6151    8.7684 H   0  0  0  0  0  0  0  0  0  0  0  0
    6.5179  -13.6925    8.0730 H   0  0  0  0  0  0  0  0  0  0  0  0
    2.6448  -10.7540    7.9656 H   0  0  0  0  0  0  0  0  0  0  0  0
    3.7845  -11.4368    6.8667 H   0  0  0  0  0  0  0  0  0  0  0  0
    4.0724  -10.0982    5.0041 H   0  0  0  0  0  0  0  0  0  0  0  0
    4.3659   -7.8850    3.9333 H   0  0  0  0  0  0  0  0  0  0  0  0
    3.7936   -6.0034    7.7233 H   0  0  0  0  0  0  0  0  0  0  0  0
    3.8228   -8.1744    8.8172 H   0  0  0  0  0  0  0  0  0  0  0  0
  1  2  2  0
  2  3  1  0
  2 41  1  0
  3  4  2  0
  3 42  1  0
  4  5  1  0
  5  6  2  0
  5  7  1  0
  6  1  1  0
  6 43  1  0
  7  8  1  0
  7 44  1  0
  7 45  1  0
  8  9  1  0
  8 46  1  0
  8 47  1  0
  9 10  1  6
  9  4  1  0
 10 11  1  0
 11 12  2  0
 11 13  1  0
 13 23  1  0
 13 14  1  0
 14 15  2  0
 14  9  1  0
 16 17  1  0
 16 48  1  0
 16 49  1  0
 16 50  1  0
 17 18  1  0
 17 21  1  0
 18 19  2  0
 18 20  1  0
 20  1  1  0
 20 22  1  0
 23 24  1  0
 23 51  1  0
 23 52  1  0
 24 25  2  0
 24 26  1  0
 26 33  1  0
 26 27  1  0
 27 28  1  0
 27 29  1  0
 27 53  1  1
 28 54  1  0
 28 55  1  0
 28 56  1  0
 29 30  1  0
 29 31  1  0
 29 32  1  0
 33 34  1  0
 33 57  1  0
 33 58  1  0
 34 35  2  0
 35 36  1  0
 35 59  1  0
 36 37  2  0
 36 60  1  0
 37 38  1  0
 37 39  1  0
 39 40  2  0
 39 61  1  0
 40 34  1  0
 40 62  1  0
M  END
>  <minimizedAffinity>  (8) 
-8.32419

>  <mol_id>  (8) 
95108

>  <source_index>  (8) 
7

>  <layer>  (8) 
L1

>  <uniprot>  (8) 
Q92793

>  <paff>  (8) 
8.5850000000000009

>  <smiles>  (8) 
CNC(=O)Nc1ccc2c(c1)CCC21OC(=O)N(CC(=O)N(Cc2ccc(F)cc2)[C@@H](C)C(F)(F)F)C1=O

>  <aimnet_interaction_kcal_mol>  (8) 
-40.436725223066631

$$$$
L1:Q92793:111632
     RDKit          3D

 80 84  0  0  0  0  0  0  0  0999 V2000
    5.1633   -8.1705   17.4356 C   0  0  0  0  0  0  0  0  0  0  0  0
    4.0630   -8.0896   16.5532 C   0  0  0  0  0  0  0  0  0  0  0  0
    2.7541   -8.1826   16.9843 C   0  0  0  0  0  0  0  0  0  0  0  0
    2.5424   -8.4050   18.3370 C   0  0  0  0  0  0  0  0  0  0  0  0
    3.6242   -8.5243   19.2298 C   0  0  0  0  0  0  0  0  0  0  0  0
    4.9213   -8.2836   18.8049 C   0  0  0  0  0  0  0  0  0  0  0  0
    3.1566   -8.9282   20.4711 N   0  0  0  0  0  0  0  0  0  0  0  0
    1.8552   -9.0380   20.3545 C   0  0  0  0  0  0  0  0  0  0  0  0
    1.4143   -8.6867   19.0874 N   0  0  0  0  0  0  0  0  0  0  0  0
    7.7505   -6.5069   18.4872 C   0  0  0  0  0  0  0  0  0  0  0  0
    7.6563   -7.4385   17.3379 C   0  0  0  0  0  0  0  0  0  0  0  0
    8.7194   -7.6706   16.6097 N   0  0  0  0  0  0  0  0  0  0  0  0
    8.3142   -8.6222   15.6445 O   0  0  0  0  0  0  0  0  0  0  0  0
    7.0097   -8.9259   15.8455 C   0  0  0  0  0  0  0  0  0  0  0  0
    6.4333   -9.9394   14.9454 C   0  0  0  0  0  0  0  0  0  0  0  0
    6.5265   -8.1920   16.8902 C   0  0  0  0  0  0  0  0  0  0  0  0
    0.9179   -9.5709   21.3785 C   0  0  0  0  0  0  0  0  0  0  0  0
    1.5367   -9.7327   22.7783 C   0  0  0  0  0  0  0  0  0  0  0  0
    1.3647   -8.5077   23.6287 C   0  0  0  0  0  0  0  0  0  0  0  0
    2.2343   -7.4221   23.5345 C   0  0  0  0  0  0  0  0  0  0  0  0
    2.0511   -6.2884   24.3082 C   0  0  0  0  0  0  0  0  0  0  0  0
    1.0011   -6.2145   25.2101 C   0  0  0  0  0  0  0  0  0  0  0  0
    0.1292   -7.2876   25.3265 C   0  0  0  0  0  0  0  0  0  0  0  0
    0.3123   -8.4115   24.5365 C   0  0  0  0  0  0  0  0  0  0  0  0
    0.8990   -5.0932   26.0137 O   0  0  0  0  0  0  0  0  0  0  0  0
   -0.3719   -4.4375   26.0365 C   0  0  0  0  0  0  0  0  0  0  0  0
   -0.4894   -3.3829   24.9372 C   0  0  0  0  0  0  0  0  0  0  0  0
   -1.8010   -3.4637   24.1673 C   0  0  0  0  0  0  0  0  0  0  0  0
   -2.0204   -4.7591   23.5565 N   0  0  0  0  0  0  0  0  0  0  0  0
   -1.1407   -5.0152   22.4352 C   0  0  0  0  0  0  0  0  0  0  0  0
   -3.4067   -4.9548   23.1886 C   0  0  0  0  0  0  0  0  0  0  0  0
    0.0270   -8.5283   18.7035 C   0  0  0  0  0  0  0  0  0  0  0  0
   -0.6184   -7.2428   19.2755 C   0  0  0  0  0  0  0  0  0  0  0  0
   -0.9866   -6.2029   18.3407 N   0  0  0  0  0  0  0  0  0  0  0  0
    0.1281   -5.5617   17.6695 C   0  0  0  0  0  0  0  0  0  0  0  0
   -0.3761   -4.3858   16.8586 C   0  0  0  0  0  0  0  0  0  0  0  0
   -1.3808   -4.7777   15.9328 O   0  0  0  0  0  0  0  0  0  0  0  0
   -2.4784   -5.3671   16.6258 C   0  0  0  0  0  0  0  0  0  0  0  0
   -2.0418   -6.5792   17.4141 C   0  0  0  0  0  0  0  0  0  0  0  0
    4.2495   -7.9745   15.4952 H   0  0  0  0  0  0  0  0  0  0  0  0
    1.9439   -8.1458   16.2706 H   0  0  0  0  0  0  0  0  0  0  0  0
    5.6998   -8.1555   19.5408 H   0  0  0  0  0  0  0  0  0  0  0  0
    8.7152   -6.0148   18.4893 H   0  0  0  0  0  0  0  0  0  0  0  0
    7.6285   -7.0223   19.4376 H   0  0  0  0  0  0  0  0  0  0  0  0
    6.9657   -5.7551   18.4549 H   0  0  0  0  0  0  0  0  0  0  0  0
    6.4433   -9.5944   13.9128 H   0  0  0  0  0  0  0  0  0  0  0  0
    5.4100  -10.1529   15.2379 H   0  0  0  0  0  0  0  0  0  0  0  0
    6.9975  -10.8699   14.9966 H   0  0  0  0  0  0  0  0  0  0  0  0
    0.5419  -10.5305   21.0163 H   0  0  0  0  0  0  0  0  0  0  0  0
    0.0410   -8.9238   21.4362 H   0  0  0  0  0  0  0  0  0  0  0  0
    2.5924   -9.9725   22.6683 H   0  0  0  0  0  0  0  0  0  0  0  0
    1.0673  -10.5871   23.2635 H   0  0  0  0  0  0  0  0  0  0  0  0
    3.0808   -7.4607   22.8639 H   0  0  0  0  0  0  0  0  0  0  0  0
    2.7222   -5.4536   24.1974 H   0  0  0  0  0  0  0  0  0  0  0  0
   -0.6786   -7.2642   26.0444 H   0  0  0  0  0  0  0  0  0  0  0  0
   -0.3786   -9.2401   24.6426 H   0  0  0  0  0  0  0  0  0  0  0  0
   -0.4496   -3.9826   27.0259 H   0  0  0  0  0  0  0  0  0  0  0  0
   -1.1748   -5.1639   25.9362 H   0  0  0  0  0  0  0  0  0  0  0  0
    0.3490   -3.4805   24.2495 H   0  0  0  0  0  0  0  0  0  0  0  0
   -0.4045   -2.3849   25.3766 H   0  0  0  0  0  0  0  0  0  0  0  0
   -1.8375   -2.6626   23.4154 H   0  0  0  0  0  0  0  0  0  0  0  0
   -2.6206   -3.2726   24.8655 H   0  0  0  0  0  0  0  0  0  0  0  0
   -0.0975   -4.9029   22.7140 H   0  0  0  0  0  0  0  0  0  0  0  0
   -1.3378   -4.3493   21.5782 H   0  0  0  0  0  0  0  0  0  0  0  0
   -1.2775   -6.0433   22.1112 H   0  0  0  0  0  0  0  0  0  0  0  0
   -4.0430   -4.8484   24.0653 H   0  0  0  0  0  0  0  0  0  0  0  0
   -3.5386   -5.9598   22.7966 H   0  0  0  0  0  0  0  0  0  0  0  0
   -3.7582   -4.2416   22.4253 H   0  0  0  0  0  0  0  0  0  0  0  0
   -0.5148   -9.4121   19.0318 H   0  0  0  0  0  0  0  0  0  0  0  0
   -0.0126   -8.5395   17.6206 H   0  0  0  0  0  0  0  0  0  0  0  0
    0.0566   -6.8018   20.0094 H   0  0  0  0  0  0  0  0  0  0  0  0
   -1.5207   -7.5228   19.8187 H   0  0  0  0  0  0  0  0  0  0  0  0
    0.6733   -6.2365   16.9982 H   0  0  0  0  0  0  0  0  0  0  0  0
    0.8310   -5.2089   18.4209 H   0  0  0  0  0  0  0  0  0  0  0  0
    0.4263   -3.9417   16.2715 H   0  0  0  0  0  0  0  0  0  0  0  0
   -0.7713   -3.6192   17.5359 H   0  0  0  0  0  0  0  0  0  0  0  0
   -3.2199   -5.6357   15.8759 H   0  0  0  0  0  0  0  0  0  0  0  0
   -2.9234   -4.6282   17.3007 H   0  0  0  0  0  0  0  0  0  0  0  0
   -1.7251   -7.3630   16.7117 H   0  0  0  0  0  0  0  0  0  0  0  0
   -2.8889   -6.9701   17.9775 H   0  0  0  0  0  0  0  0  0  0  0  0
  1  2  2  0
  2  3  1  0
  2 40  1  0
  3  4  2  0
  3 41  1  0
  4  5  1  0
  5  6  2  0
  5  7  1  0
  6  1  1  0
  6 42  1  0
  7  8  2  0
  8 17  1  0
  8  9  1  0
  9 32  1  0
  9  4  1  0
 10 11  1  0
 10 43  1  0
 10 44  1  0
 10 45  1  0
 11 12  2  0
 12 13  1  0
 13 14  1  0
 14 15  1  0
 14 16  2  0
 15 46  1  0
 15 47  1  0
 15 48  1  0
 16  1  1  0
 16 11  1  0
 17 18  1  0
 17 49  1  0
 17 50  1  0
 18 19  1  0
 18 51  1  0
 18 52  1  0
 19 20  2  0
 20 21  1  0
 20 53  1  0
 21 22  2  0
 21 54  1  0
 22 25  1  0
 22 23  1  0
 23 24  2  0
 23 55  1  0
 24 19  1  0
 24 56  1  0
 25 26  1  0
 26 27  1  0
 26 57  1  0
 26 58  1  0
 27 28  1  0
 27 59  1  0
 27 60  1  0
 28 29  1  0
 28 61  1  0
 28 62  1  0
 29 30  1  0
 29 31  1  0
 30 63  1  0
 30 64  1  0
 30 65  1  0
 31 66  1  0
 31 67  1  0
 31 68  1  0
 32 33  1  0
 32 69  1  0
 32 70  1  0
 33 34  1  0
 33 71  1  0
 33 72  1  0
 34 35  1  0
 35 36  1  0
 35 73  1  0
 35 74  1  0
 36 37  1  0
 36 75  1  0
 36 76  1  0
 37 38  1  0
 38 39  1  0
 38 77  1  0
 38 78  1  0
 39 34  1  0
 39 79  1  0
 39 80  1  0
M  END
>  <minimizedAffinity>  (9) 
-7.52574

>  <mol_id>  (9) 
111632

>  <source_index>  (9) 
8

>  <layer>  (9) 
L1

>  <uniprot>  (9) 
Q92793

>  <paff>  (9) 
6.9207999999999998

>  <smiles>  (9) 
CN(C)CCCOc1ccc(CCc2nc3cc(ccc3n2CCN2CCOCC2)-c2c(C)noc2C)cc1

>  <aimnet_interaction_kcal_mol>  (9) 
-52.589008870816585

$$$$
L1:Q92793:136992
     RDKit          3D

 65 70  0  0  0  0  0  0  0  0999 V2000
    6.5330   -7.8353   16.9725 C   0  0  0  0  0  0  0  0  0  0  0  0
    5.1824   -7.5891   17.2455 C   0  0  0  0  0  0  0  0  0  0  0  0
    4.2033   -7.9719   16.3447 C   0  0  0  0  0  0  0  0  0  0  0  0
    4.5886   -8.6583   15.2116 C   0  0  0  0  0  0  0  0  0  0  0  0
    5.8927   -9.1022   15.0550 C   0  0  0  0  0  0  0  0  0  0  0  0
    6.8856   -8.6911   15.9271 C   0  0  0  0  0  0  0  0  0  0  0  0
    6.0110  -10.0347   13.8949 C   0  0  0  0  0  0  0  0  0  0  0  0
    4.5510  -10.3020   13.4777 C   0  0  0  0  0  0  0  0  0  0  0  0
    3.7425   -9.1469   14.0760 C   0  0  1  0  0  0  0  0  0  0  0  0
    2.4471   -9.5712   14.5396 O   0  0  0  0  0  0  0  0  0  0  0  0
    1.4638   -8.8739   13.9248 C   0  0  0  0  0  0  0  0  0  0  0  0
    0.3046   -8.9036   14.2142 O   0  0  0  0  0  0  0  0  0  0  0  0
    2.0395   -8.1102   12.8946 N   0  0  0  0  0  0  0  0  0  0  0  0
    3.4087   -8.1138   12.9862 C   0  0  0  0  0  0  0  0  0  0  0  0
    4.1576   -7.4643   12.2928 O   0  0  0  0  0  0  0  0  0  0  0  0
   10.9800   -6.9531   18.7832 C   0  0  0  0  0  0  0  0  0  0  0  0
    9.5380   -6.9804   18.7817 N   0  0  0  0  0  0  0  0  0  0  0  0
    8.8294   -7.1864   17.6276 C   0  0  0  0  0  0  0  0  0  0  0  0
    9.3617   -7.3305   16.5271 O   0  0  0  0  0  0  0  0  0  0  0  0
    7.4687   -7.2324   17.8240 N   0  0  0  0  0  0  0  0  0  0  0  0
    9.0667   -6.5476   19.5561 H   0  0  0  0  0  0  0  0  0  0  0  0
    7.1093   -6.9728   18.7306 H   0  0  0  0  0  0  0  0  0  0  0  0
    1.2560   -7.3643   11.9371 C   0  0  0  0  0  0  0  0  0  0  0  0
    0.2120   -8.2065   11.2107 C   0  0  0  0  0  0  0  0  0  0  0  0
   -0.9604   -7.8615   11.2085 O   0  0  0  0  0  0  0  0  0  0  0  0
    0.6811   -9.3268   10.6017 N   0  0  0  0  0  0  0  0  0  0  0  0
    2.0548   -9.5183   10.1666 C   0  0  0  0  0  0  0  0  0  0  0  0
    2.3740   -8.8865    8.8447 C   0  0  0  0  0  0  0  0  0  0  0  0
    3.6412   -8.3568    8.6361 C   0  0  0  0  0  0  0  0  0  0  0  0
    3.9453   -7.7979    7.4158 C   0  0  0  0  0  0  0  0  0  0  0  0
    5.2289   -7.3425    7.2042 F   0  0  0  0  0  0  0  0  0  0  0  0
    3.0230   -7.6988    6.3964 C   0  0  0  0  0  0  0  0  0  0  0  0
    1.7612   -8.2288    6.6069 C   0  0  0  0  0  0  0  0  0  0  0  0
    1.4312   -8.8422    7.8099 C   0  0  0  0  0  0  0  0  0  0  0  0
    0.1649   -9.3480    7.9125 O   0  0  0  0  0  0  0  0  0  0  0  0
   -0.0166  -10.5735    8.6366 C   0  0  0  0  0  0  0  0  0  0  0  0
   -0.2709  -10.3199   10.1098 C   0  0  1  0  0  0  0  0  0  0  0  0
   -0.2107  -11.6028   10.8991 C   0  0  0  0  0  0  0  0  0  0  0  0
   -1.4449  -12.4328   11.0716 C   0  0  0  0  0  0  0  0  0  0  0  0
   -0.8725  -11.6892   12.2296 C   0  0  0  0  0  0  0  0  0  0  0  0
    4.9080   -7.1216   18.1798 H   0  0  0  0  0  0  0  0  0  0  0  0
    3.1582   -7.7780   16.5458 H   0  0  0  0  0  0  0  0  0  0  0  0
    7.8979   -9.0487   15.8298 H   0  0  0  0  0  0  0  0  0  0  0  0
    6.5566  -10.9352   14.1600 H   0  0  0  0  0  0  0  0  0  0  0  0
    6.5576   -9.5495   13.0893 H   0  0  0  0  0  0  0  0  0  0  0  0
    4.1632  -11.2150   13.9206 H   0  0  0  0  0  0  0  0  0  0  0  0
    4.4277  -10.3788   12.3982 H   0  0  0  0  0  0  0  0  0  0  0  0
   11.3444   -7.5819   17.9779 H   0  0  0  0  0  0  0  0  0  0  0  0
   11.3523   -7.3476   19.7278 H   0  0  0  0  0  0  0  0  0  0  0  0
   11.3830   -5.9480   18.6382 H   0  0  0  0  0  0  0  0  0  0  0  0
    1.9329   -6.9037   11.2218 H   0  0  0  0  0  0  0  0  0  0  0  0
    0.7456   -6.5686   12.4668 H   0  0  0  0  0  0  0  0  0  0  0  0
    2.2519  -10.5885   10.1076 H   0  0  0  0  0  0  0  0  0  0  0  0
    2.7366   -9.1531   10.9180 H   0  0  0  0  0  0  0  0  0  0  0  0
    4.3847   -8.3774    9.4224 H   0  0  0  0  0  0  0  0  0  0  0  0
    3.2654   -7.1989    5.4696 H   0  0  0  0  0  0  0  0  0  0  0  0
    1.0215   -8.1463    5.8293 H   0  0  0  0  0  0  0  0  0  0  0  0
    0.8536  -11.2164    8.4947 H   0  0  0  0  0  0  0  0  0  0  0  0
   -0.8767  -11.0681    8.1924 H   0  0  0  0  0  0  0  0  0  0  0  0
   -1.2505   -9.8623   10.2197 H   0  0  0  0  0  0  0  0  0  0  0  0
    0.7215  -12.1498   10.7934 H   0  0  0  0  0  0  0  0  0  0  0  0
   -1.3413  -13.5064   11.0414 H   0  0  0  0  0  0  0  0  0  0  0  0
   -2.3681  -12.0666   10.6438 H   0  0  0  0  0  0  0  0  0  0  0  0
   -0.3682  -12.2394   13.0068 H   0  0  0  0  0  0  0  0  0  0  0  0
   -1.4034  -10.8161   12.5739 H   0  0  0  0  0  0  0  0  0  0  0  0
  1  2  2  0
  2  3  1  0
  2 41  1  0
  3  4  2  0
  3 42  1  0
  4  5  1  0
  5  6  2  0
  5  7  1  0
  6  1  1  0
  6 43  1  0
  7  8  1  0
  7 44  1  0
  7 45  1  0
  8  9  1  0
  8 46  1  0
  8 47  1  0
  9 10  1  1
  9  4  1  0
 10 11  1  0
 11 12  2  0
 11 13  1  0
 13 23  1  0
 13 14  1  0
 14 15  2  0
 14  9  1  0
 16 17  1  0
 16 48  1  0
 16 49  1  0
 16 50  1  0
 17 18  1  0
 17 21  1  0
 18 19  2  0
 18 20  1  0
 20  1  1  0
 20 22  1  0
 23 24  1  0
 23 51  1  0
 23 52  1  0
 24 25  2  0
 24 26  1  0
 26 27  1  0
 27 28  1  0
 27 53  1  0
 27 54  1  0
 28 29  2  0
 29 30  1  0
 29 55  1  0
 30 31  1  0
 30 32  2  0
 32 33  1  0
 32 56  1  0
 33 34  2  0
 33 57  1  0
 34 35  1  0
 34 28  1  0
 35 36  1  0
 36 37  1  0
 36 58  1  0
 36 59  1  0
 37 38  1  0
 37 26  1  0
 37 60  1  6
 38 39  1  0
 38 61  1  0
 39 40  1  0
 39 62  1  0
 39 63  1  0
 40 38  1  0
 40 64  1  0
 40 65  1  0
M  END
>  <minimizedAffinity>  (10) 
-8.95812

>  <mol_id>  (10) 
136992

>  <source_index>  (10) 
9

>  <layer>  (10) 
L1

>  <uniprot>  (10) 
Q92793

>  <paff>  (10) 
7.9585999999999997

>  <smiles>  (10) 
CNC(=O)Nc1ccc2c(CC[C@@]22OC(=O)N(CC(=O)N3Cc4cc(F)ccc4OC[C@H]3C3CC3)C2=O)c1 |r|

>  <aimnet_interaction_kcal_mol>  (10) 
-53.65486763274648

$$$$
