L1:Q92793:6919
     RDKit          3D

 68 72  0  0  0  0  0  0  0  0999 V2000
    0.8688   -7.7523   17.1771 C   0  0  0  0  0  0  0  0  0  0  0  0
    1.7824   -7.6850   16.2291 N   0  0  0  0  0  0  0  0  0  0  0  0
    2.9840   -7.9254   16.8400 C   0  0  0  0  0  0  0  0  0  0  0  0
    4.2702   -7.9587   16.2831 C   0  0  0  0  0  0  0  0  0  0  0  0
    5.3589   -8.2254   17.1244 C   0  0  0  0  0  0  0  0  0  0  0  0
    5.1651   -8.4469   18.4935 C   0  0  0  0  0  0  0  0  0  0  0  0
    3.8859   -8.4158   19.0620 C   0  0  0  0  0  0  0  0  0  0  0  0
    2.8130   -8.1538   18.2011 C   0  0  0  0  0  0  0  0  0  0  0  0
    1.4519   -8.0495   18.3918 N   0  0  0  0  0  0  0  0  0  0  0  0
    6.6925   -8.2599   16.5748 C   0  0  0  0  0  0  0  0  0  0  0  0
    7.8361   -7.4747   16.8650 C   0  0  0  0  0  0  0  0  0  0  0  0
    7.9709   -6.3768   17.8490 C   0  0  0  0  0  0  0  0  0  0  0  0
    8.8796   -7.8409   16.1096 N   0  0  0  0  0  0  0  0  0  0  0  0
    8.4208   -8.8700   15.3069 O   0  0  0  0  0  0  0  0  0  0  0  0
    7.1120   -9.1196   15.5854 C   0  0  0  0  0  0  0  0  0  0  0  0
    6.4732  -10.1873   14.7937 C   0  0  0  0  0  0  0  0  0  0  0  0
   -0.5917   -7.5189   16.9550 C   0  0  0  0  0  0  0  0  0  0  0  0
   -0.8298   -6.7307   15.6646 C   0  0  0  0  0  0  0  0  0  0  0  0
   -1.0115   -2.4956   16.3831 C   0  0  0  0  0  0  0  0  0  0  0  0
    0.1628   -3.0588   15.8883 C   0  0  0  0  0  0  0  0  0  0  0  0
    0.2240   -4.4349   15.6679 C   0  0  0  0  0  0  0  0  0  0  0  0
   -0.8896   -5.2463   15.9332 C   0  0  0  0  0  0  0  0  0  0  0  0
   -2.0703   -4.6581   16.4122 C   0  0  0  0  0  0  0  0  0  0  0  0
   -2.1361   -3.2811   16.6302 C   0  0  0  0  0  0  0  0  0  0  0  0
   -1.0408   -1.1020   16.5299 O   0  0  0  0  0  0  0  0  0  0  0  0
   -2.6559    0.5764   16.2253 C   0  0  0  0  0  0  0  0  0  0  0  0
   -1.7226   -0.3851   15.5509 C   0  0  0  0  0  0  0  0  0  0  0  0
   -1.6028   -0.4920   14.3383 O   0  0  0  0  0  0  0  0  0  0  0  0
    0.7713   -8.2278   19.6647 C   0  0  0  0  0  0  0  0  0  0  0  0
    0.6395   -9.7129   20.0342 C   0  0  0  0  0  0  0  0  0  0  0  0
    1.2097  -10.1305   21.3194 N   0  0  0  0  0  0  0  0  0  0  0  0
    1.4172   -9.0463   22.2940 C   0  0  0  0  0  0  0  0  0  0  0  0
    2.9005   -8.7226   22.5359 C   0  0  0  0  0  0  0  0  0  0  0  0
    3.6660   -9.8498   22.9784 O   0  0  0  0  0  0  0  0  0  0  0  0
    3.1433  -11.1073   22.5312 C   0  0  0  0  0  0  0  0  0  0  0  0
    2.3926  -10.9983   21.1950 C   0  0  0  0  0  0  0  0  0  0  0  0
    4.4123   -7.7904   15.2749 H   0  0  0  0  0  0  0  0  0  0  0  0
    5.9815   -8.6369   19.0955 H   0  0  0  0  0  0  0  0  0  0  0  0
    3.7402   -8.5787   20.0706 H   0  0  0  0  0  0  0  0  0  0  0  0
    7.0376   -6.2321   18.3520 H   0  0  0  0  0  0  0  0  0  0  0  0
    8.2465   -5.4756   17.3423 H   0  0  0  0  0  0  0  0  0  0  0  0
    8.7260   -6.6293   18.5639 H   0  0  0  0  0  0  0  0  0  0  0  0
    7.1889  -10.6071   14.1181 H   0  0  0  0  0  0  0  0  0  0  0  0
    5.6552   -9.7786   14.2381 H   0  0  0  0  0  0  0  0  0  0  0  0
    6.1121  -10.9509   15.4505 H   0  0  0  0  0  0  0  0  0  0  0  0
   -1.0906   -8.4629   16.8858 H   0  0  0  0  0  0  0  0  0  0  0  0
   -0.9758   -6.9520   17.7772 H   0  0  0  0  0  0  0  0  0  0  0  0
   -0.0304   -6.9297   14.9818 H   0  0  0  0  0  0  0  0  0  0  0  0
   -1.7669   -7.0373   15.2490 H   0  0  0  0  0  0  0  0  0  0  0  0
    0.9808   -2.4628   15.6865 H   0  0  0  0  0  0  0  0  0  0  0  0
    1.0933   -4.8586   15.3076 H   0  0  0  0  0  0  0  0  0  0  0  0
   -2.8953   -5.2476   16.6045 H   0  0  0  0  0  0  0  0  0  0  0  0
   -3.0090   -2.8487   16.9710 H   0  0  0  0  0  0  0  0  0  0  0  0
   -3.1881    1.1358   15.4846 H   0  0  0  0  0  0  0  0  0  0  0  0
   -2.0937    1.2459   16.8422 H   0  0  0  0  0  0  0  0  0  0  0  0
   -3.3516    0.0333   16.8302 H   0  0  0  0  0  0  0  0  0  0  0  0
   -0.2066   -7.7987   19.5983 H   0  0  0  0  0  0  0  0  0  0  0  0
    1.3507   -7.7450   20.4237 H   0  0  0  0  0  0  0  0  0  0  0  0
    1.1222  -10.2810   19.2666 H   0  0  0  0  0  0  0  0  0  0  0  0
   -0.4125   -9.8847   20.1270 H   0  0  0  0  0  0  0  0  0  0  0  0
    0.9768   -9.3372   23.2247 H   0  0  0  0  0  0  0  0  0  0  0  0
    0.9621   -8.1659   21.8907 H   0  0  0  0  0  0  0  0  0  0  0  0
    2.9631   -7.9571   23.2808 H   0  0  0  0  0  0  0  0  0  0  0  0
    3.3118   -8.4109   21.5986 H   0  0  0  0  0  0  0  0  0  0  0  0
    2.4685  -11.4804   23.2731 H   0  0  0  0  0  0  0  0  0  0  0  0
    3.9728  -11.7665   22.3820 H   0  0  0  0  0  0  0  0  0  0  0  0
    2.0789  -11.9748   20.8900 H   0  0  0  0  0  0  0  0  0  0  0  0
    3.0523  -10.5707   20.4691 H   0  0  0  0  0  0  0  0  0  0  0  0
  1  2  2  0
  2  3  1  0
  3  4  2  0
  4  5  1  0
  4 37  1  0
  5 10  1  0
  5  6  2  0
  6  7  1  0
  6 38  1  0
  7  8  2  0
  7 39  1  0
  8  9  1  0
  8  3  1  0
  9 29  1  0
  9  1  1  0
 10 11  1  0
 11 12  1  0
 11 13  2  0
 12 40  1  0
 12 41  1  0
 12 42  1  0
 13 14  1  0
 14 15  1  0
 15 16  1  0
 15 10  2  0
 16 43  1  0
 16 44  1  0
 16 45  1  0
 17  1  1  0
 17 46  1  0
 17 47  1  0
 18 17  1  0
 18 48  1  0
 18 49  1  0
 19 20  2  0
 20 21  1  0
 20 50  1  0
 21 22  2  0
 21 51  1  0
 22 18  1  0
 22 23  1  0
 23 24  2  0
 23 52  1  0
 24 19  1  0
 24 53  1  0
 25 19  1  0
 26 27  1  0
 26 54  1  0
 26 55  1  0
 26 56  1  0
 27 28  2  0
 27 25  1  0
 29 30  1  0
 29 57  1  0
 29 58  1  0
 30 31  1  0
 30 59  1  0
 30 60  1  0
 31 32  1  0
 32 33  1  0
 32 61  1  0
 32 62  1  0
 33 34  1  0
 33 63  1  0
 33 64  1  0
 34 35  1  0
 35 36  1  0
 35 65  1  0
 35 66  1  0
 36 31  1  0
 36 67  1  0
 36 68  1  0
M  END
>  <minimizedAffinity>  (1) 
-7.78687

>  <mol_id>  (1) 
6919

>  <source_index>  (1) 
0

>  <layer>  (1) 
L1

>  <uniprot>  (1) 
Q92793

>  <paff>  (1) 
6.7695999999999996

>  <smiles>  (1) 
CC(=O)Oc1ccc(CCc2nc3cc(-c4c(C)noc4C)ccc3n2CCN2CCOCC2)cc1

$$$$
L1:Q92793:25339
     RDKit          3D

 63 67  0  0  0  0  0  0  0  0999 V2000
    5.2469   -8.1149   17.1927 C   0  0  0  0  0  0  0  0  0  0  0  0
    5.0029   -8.5190   18.5128 C   0  0  0  0  0  0  0  0  0  0  0  0
    3.7083   -8.5282   19.0493 C   0  0  0  0  0  0  0  0  0  0  0  0
    2.6676   -8.1175   18.2080 C   0  0  0  0  0  0  0  0  0  0  0  0
    1.3060   -7.9962   18.3821 N   0  0  0  0  0  0  0  0  0  0  0  0
    0.7675   -7.4947   17.2136 C   0  0  0  0  0  0  0  0  0  0  0  0
    1.7068   -7.3386   16.2999 N   0  0  0  0  0  0  0  0  0  0  0  0
    2.8829   -7.7055   16.8986 C   0  0  0  0  0  0  0  0  0  0  0  0
    4.1835   -7.7017   16.3743 C   0  0  0  0  0  0  0  0  0  0  0  0
    7.8103   -6.2124   18.0190 C   0  0  0  0  0  0  0  0  0  0  0  0
    7.7237   -7.3068   17.0247 C   0  0  0  0  0  0  0  0  0  0  0  0
    8.8031   -7.6462   16.3086 N   0  0  0  0  0  0  0  0  0  0  0  0
    8.3945   -8.6725   15.4779 O   0  0  0  0  0  0  0  0  0  0  0  0
    7.0813   -8.9502   15.7021 C   0  0  0  0  0  0  0  0  0  0  0  0
    6.5039  -10.0423   14.8947 C   0  0  0  0  0  0  0  0  0  0  0  0
    6.6012   -8.1068   16.6804 C   0  0  0  0  0  0  0  0  0  0  0  0
    0.5891   -8.3416   19.5990 C   0  0  0  0  0  0  0  0  0  0  0  0
    0.5337   -7.1771   20.6044 C   0  0  0  0  0  0  0  0  0  0  0  0
    0.6239   -7.6032   22.0160 N   0  0  0  0  0  0  0  0  0  0  0  0
    1.9269   -8.2550   22.2987 C   0  0  0  0  0  0  0  0  0  0  0  0
    2.9578   -7.3081   22.9327 C   0  0  0  0  0  0  0  0  0  0  0  0
    2.5231   -6.7573   24.1838 O   0  0  0  0  0  0  0  0  0  0  0  0
    1.0946   -6.6949   24.3045 C   0  0  0  0  0  0  0  0  0  0  0  0
    0.4026   -6.4728   22.9498 C   0  0  0  0  0  0  0  0  0  0  0  0
   -0.6770   -7.1614   16.9983 C   0  0  0  0  0  0  0  0  0  0  0  0
   -0.8659   -6.0488   15.9593 C   0  0  0  0  0  0  0  0  0  0  0  0
   -0.5440   -4.6752   16.5041 C   0  0  0  0  0  0  0  0  0  0  0  0
    0.1835   -3.7562   15.7336 C   0  0  0  0  0  0  0  0  0  0  0  0
    0.4825   -2.4885   16.2400 C   0  0  0  0  0  0  0  0  0  0  0  0
    0.0406   -2.1360   17.5119 C   0  0  0  0  0  0  0  0  0  0  0  0
    0.3293   -0.9119   18.0442 O   0  0  0  0  0  0  0  0  0  0  0  0
   -0.6975   -3.0257   18.2821 C   0  0  0  0  0  0  0  0  0  0  0  0
   -0.9859   -4.2970   17.7803 C   0  0  0  0  0  0  0  0  0  0  0  0
    1.0294   -0.5155   17.5003 H   0  0  0  0  0  0  0  0  0  0  0  0
    5.7952   -8.8167   19.1033 H   0  0  0  0  0  0  0  0  0  0  0  0
    3.5301   -8.8246   20.0216 H   0  0  0  0  0  0  0  0  0  0  0  0
    4.3562   -7.4001   15.4026 H   0  0  0  0  0  0  0  0  0  0  0  0
    8.8049   -5.8179   18.0295 H   0  0  0  0  0  0  0  0  0  0  0  0
    7.5669   -6.5920   18.9893 H   0  0  0  0  0  0  0  0  0  0  0  0
    7.1217   -5.4367   17.7565 H   0  0  0  0  0  0  0  0  0  0  0  0
    7.2523  -10.4347   14.2384 H   0  0  0  0  0  0  0  0  0  0  0  0
    5.6857   -9.6650   14.3176 H   0  0  0  0  0  0  0  0  0  0  0  0
    6.1551  -10.8190   15.5428 H   0  0  0  0  0  0  0  0  0  0  0  0
    1.0806   -9.1714   20.0625 H   0  0  0  0  0  0  0  0  0  0  0  0
   -0.4171   -8.5815   19.3253 H   0  0  0  0  0  0  0  0  0  0  0  0
   -0.3913   -6.6570   20.4675 H   0  0  0  0  0  0  0  0  0  0  0  0
    1.3845   -6.5577   20.4109 H   0  0  0  0  0  0  0  0  0  0  0  0
    2.3276   -8.6255   21.3783 H   0  0  0  0  0  0  0  0  0  0  0  0
    1.7420   -9.0384   23.0036 H   0  0  0  0  0  0  0  0  0  0  0  0
    3.1438   -6.5031   22.2528 H   0  0  0  0  0  0  0  0  0  0  0  0
    3.8401   -7.8816   23.1266 H   0  0  0  0  0  0  0  0  0  0  0  0
    0.8397   -5.8865   24.9575 H   0  0  0  0  0  0  0  0  0  0  0  0
    0.7582   -7.6332   24.6934 H   0  0  0  0  0  0  0  0  0  0  0  0
    0.7904   -5.5792   22.5071 H   0  0  0  0  0  0  0  0  0  0  0  0
   -0.6497   -6.3944   23.1273 H   0  0  0  0  0  0  0  0  0  0  0  0
   -1.0989   -6.8403   17.9277 H   0  0  0  0  0  0  0  0  0  0  0  0
   -1.1659   -8.0398   16.6318 H   0  0  0  0  0  0  0  0  0  0  0  0
   -1.8846   -6.0564   15.6321 H   0  0  0  0  0  0  0  0  0  0  0  0
   -0.1881   -6.2423   15.1543 H   0  0  0  0  0  0  0  0  0  0  0  0
    0.4999   -4.0179   14.7868 H   0  0  0  0  0  0  0  0  0  0  0  0
    1.0271   -1.8184   15.6749 H   0  0  0  0  0  0  0  0  0  0  0  0
   -1.0306   -2.7492   19.2189 H   0  0  0  0  0  0  0  0  0  0  0  0
   -1.5281   -4.9628   18.3528 H   0  0  0  0  0  0  0  0  0  0  0  0
  1  2  2  0
  2  3  1  0
  2 35  1  0
  3  4  2  0
  3 36  1  0
  4  5  1  0
  5 17  1  0
  5  6  1  0
  6 25  1  0
  6  7  2  0
  7  8  1  0
  8  9  2  0
  8  4  1  0
  9  1  1  0
  9 37  1  0
 10 11  1  0
 10 38  1  0
 10 39  1  0
 10 40  1  0
 11 12  2  0
 12 13  1  0
 13 14  1  0
 14 15  1  0
 14 16  2  0
 15 41  1  0
 15 42  1  0
 15 43  1  0
 16  1  1  0
 16 11  1  0
 17 18  1  0
 17 44  1  0
 17 45  1  0
 18 19  1  0
 18 46  1  0
 18 47  1  0
 19 20  1  0
 20 21  1  0
 20 48  1  0
 20 49  1  0
 21 22  1  0
 21 50  1  0
 21 51  1  0
 22 23  1  0
 23 24  1  0
 23 52  1  0
 23 53  1  0
 24 19  1  0
 24 54  1  0
 24 55  1  0
 25 26  1  0
 25 56  1  0
 25 57  1  0
 26 27  1  0
 26 58  1  0
 26 59  1  0
 27 28  2  0
 28 29  1  0
 28 60  1  0
 29 30  2  0
 29 61  1  0
 30 31  1  0
 30 32  1  0
 31 34  1  0
 32 33  2  0
 32 62  1  0
 33 27  1  0
 33 63  1  0
M  END
>  <minimizedAffinity>  (2) 
-7.95786

>  <mol_id>  (2) 
25339

>  <source_index>  (2) 
1

>  <layer>  (2) 
L1

>  <uniprot>  (2) 
Q92793

>  <paff>  (2) 
6.5228999999999999

>  <smiles>  (2) 
Cc1noc(C)c1-c1ccc2n(CCN3CCOCC3)c(CCc3ccc(O)cc3)nc2c1

$$$$
L1:Q92793:32149
     RDKit          3D

 78 82  0  0  0  0  0  0  0  0999 V2000
    3.3265   -7.7618   17.4636 C   0  0  0  0  0  0  0  0  0  0  0  0
    2.7826   -7.0353   16.5074 N   0  0  0  0  0  0  0  0  0  0  0  0
    1.7198   -6.3875   17.0799 C   0  0  0  0  0  0  0  0  0  0  0  0
    0.8115   -5.4885   16.5029 C   0  0  0  0  0  0  0  0  0  0  0  0
   -0.1945   -4.9365   17.3091 C   0  0  0  0  0  0  0  0  0  0  0  0
   -0.2849   -5.2758   18.6648 C   0  0  0  0  0  0  0  0  0  0  0  0
    0.6075   -6.1821   19.2507 C   0  0  0  0  0  0  0  0  0  0  0  0
    1.5994   -6.7221   18.4239 C   0  0  0  0  0  0  0  0  0  0  0  0
    2.6214   -7.6205   18.6399 N   0  0  0  0  0  0  0  0  0  0  0  0
   -1.1428   -4.0080   16.7394 C   0  0  0  0  0  0  0  0  0  0  0  0
   -1.1571   -2.5902   16.7091 C   0  0  0  0  0  0  0  0  0  0  0  0
   -0.1534   -1.6467   17.2527 C   0  0  0  0  0  0  0  0  0  0  0  0
   -2.2509   -2.1298   16.0889 N   0  0  0  0  0  0  0  0  0  0  0  0
   -2.9651   -3.2504   15.7025 O   0  0  0  0  0  0  0  0  0  0  0  0
   -2.3042   -4.3727   16.0957 C   0  0  0  0  0  0  0  0  0  0  0  0
   -2.9491   -5.6593   15.7673 C   0  0  0  0  0  0  0  0  0  0  0  0
    4.5447   -8.6125   17.2948 C   0  0  0  0  0  0  0  0  0  0  0  0
    5.4705   -8.0488   16.2156 C   0  0  0  0  0  0  0  0  0  0  0  0
    9.3853   -7.0627   17.7766 C   0  0  0  0  0  0  0  0  0  0  0  0
    9.2469   -7.9525   16.7099 C   0  0  0  0  0  0  0  0  0  0  0  0
    7.9845   -8.2772   16.2075 C   0  0  0  0  0  0  0  0  0  0  0  0
    6.8343   -7.7147   16.7703 C   0  0  0  0  0  0  0  0  0  0  0  0
    6.9744   -6.8269   17.8428 C   0  0  0  0  0  0  0  0  0  0  0  0
    8.2416   -6.5068   18.3462 C   0  0  0  0  0  0  0  0  0  0  0  0
   10.6763   -6.8447   18.1680 O   0  0  0  0  0  0  0  0  0  0  0  0
   10.9578   -6.7037   19.5613 C   0  0  0  0  0  0  0  0  0  0  0  0
   11.7484   -7.9119   20.0663 C   0  0  0  0  0  0  0  0  0  0  0  0
   11.4527   -8.2432   21.5263 C   0  0  0  0  0  0  0  0  0  0  0  0
   10.9397   -9.6500   21.7296 C   0  0  0  0  0  0  0  0  0  0  0  0
   11.2605  -10.6242   21.0648 O   0  0  0  0  0  0  0  0  0  0  0  0
   10.6468   -9.4659   24.0446 C   0  0  0  0  0  0  0  0  0  0  0  0
   10.0496   -9.6635   22.7614 O   0  0  0  0  0  0  0  0  0  0  0  0
    2.8826   -8.2998   19.8975 C   0  0  0  0  0  0  0  0  0  0  0  0
    2.0008   -9.5442   20.0695 C   0  0  0  0  0  0  0  0  0  0  0  0
    2.4527  -10.4176   21.1690 N   0  0  0  0  0  0  0  0  0  0  0  0
    3.6147   -9.8058   21.8574 C   0  0  0  0  0  0  0  0  0  0  0  0
    4.0802  -10.6586   23.0474 C   0  0  0  0  0  0  0  0  0  0  0  0
    3.0199  -10.8433   23.9932 O   0  0  0  0  0  0  0  0  0  0  0  0
    1.9044  -11.4806   23.3601 C   0  0  0  0  0  0  0  0  0  0  0  0
    1.3884  -10.6501   22.1724 C   0  0  0  0  0  0  0  0  0  0  0  0
    0.8819   -5.2379   15.5043 H   0  0  0  0  0  0  0  0  0  0  0  0
   -1.0246   -4.8490   19.2442 H   0  0  0  0  0  0  0  0  0  0  0  0
    0.5370   -6.4403   20.2474 H   0  0  0  0  0  0  0  0  0  0  0  0
    0.6432   -2.1969   17.7084 H   0  0  0  0  0  0  0  0  0  0  0  0
   -0.6154   -1.0165   17.9837 H   0  0  0  0  0  0  0  0  0  0  0  0
    0.2372   -1.0450   16.4588 H   0  0  0  0  0  0  0  0  0  0  0  0
   -3.8658   -5.4761   15.2466 H   0  0  0  0  0  0  0  0  0  0  0  0
   -3.1528   -6.1968   16.6698 H   0  0  0  0  0  0  0  0  0  0  0  0
   -2.2962   -6.2376   15.1474 H   0  0  0  0  0  0  0  0  0  0  0  0
    5.0746   -8.6507   18.2236 H   0  0  0  0  0  0  0  0  0  0  0  0
    4.2342   -9.5918   16.9958 H   0  0  0  0  0  0  0  0  0  0  0  0
    5.5806   -8.7760   15.4385 H   0  0  0  0  0  0  0  0  0  0  0  0
    5.0337   -7.1480   15.8379 H   0  0  0  0  0  0  0  0  0  0  0  0
   10.0878   -8.3758   16.2871 H   0  0  0  0  0  0  0  0  0  0  0  0
    7.9002   -8.9354   15.4171 H   0  0  0  0  0  0  0  0  0  0  0  0
    6.1347   -6.4033   18.2676 H   0  0  0  0  0  0  0  0  0  0  0  0
    8.3286   -5.8563   19.1426 H   0  0  0  0  0  0  0  0  0  0  0  0
   11.5328   -5.8149   19.7174 H   0  0  0  0  0  0  0  0  0  0  0  0
   10.0348   -6.6413   20.0990 H   0  0  0  0  0  0  0  0  0  0  0  0
   11.4968   -8.7607   19.4653 H   0  0  0  0  0  0  0  0  0  0  0  0
   12.7881   -7.6695   19.9949 H   0  0  0  0  0  0  0  0  0  0  0  0
   12.3545   -8.1261   22.0902 H   0  0  0  0  0  0  0  0  0  0  0  0
   10.6827   -7.5756   21.8524 H   0  0  0  0  0  0  0  0  0  0  0  0
    9.8880   -9.4894   24.7986 H   0  0  0  0  0  0  0  0  0  0  0  0
   11.1412   -8.5172   24.0656 H   0  0  0  0  0  0  0  0  0  0  0  0
   11.3584  -10.2431   24.2303 H   0  0  0  0  0  0  0  0  0  0  0  0
    2.6873   -7.6233   20.7032 H   0  0  0  0  0  0  0  0  0  0  0  0
    3.9051   -8.6152   19.8980 H   0  0  0  0  0  0  0  0  0  0  0  0
    2.0190  -10.1047   19.1582 H   0  0  0  0  0  0  0  0  0  0  0  0
    1.0135   -9.2087   20.3096 H   0  0  0  0  0  0  0  0  0  0  0  0
    3.3364   -8.8358   22.2131 H   0  0  0  0  0  0  0  0  0  0  0  0
    4.4213   -9.7392   21.1575 H   0  0  0  0  0  0  0  0  0  0  0  0
    4.8986  -10.1674   23.5309 H   0  0  0  0  0  0  0  0  0  0  0  0
    4.3816  -11.6180   22.6818 H   0  0  0  0  0  0  0  0  0  0  0  0
    1.1162  -11.5947   24.0746 H   0  0  0  0  0  0  0  0  0  0  0  0
    2.2228  -12.4340   22.9934 H   0  0  0  0  0  0  0  0  0  0  0  0
    1.0395   -9.7055   22.5342 H   0  0  0  0  0  0  0  0  0  0  0  0
    0.5964  -11.1940   21.7015 H   0  0  0  0  0  0  0  0  0  0  0  0
  1  2  2  0
  2  3  1  0
  3  4  2  0
  4  5  1  0
  4 41  1  0
  5 10  1  0
  5  6  2  0
  6  7  1  0
  6 42  1  0
  7  8  2  0
  7 43  1  0
  8  9  1  0
  8  3  1  0
  9 33  1  0
  9  1  1  0
 10 11  1  0
 11 12  1  0
 11 13  2  0
 12 44  1  0
 12 45  1  0
 12 46  1  0
 13 14  1  0
 14 15  1  0
 15 16  1  0
 15 10  2  0
 16 47  1  0
 16 48  1  0
 16 49  1  0
 17  1  1  0
 17 50  1  0
 17 51  1  0
 18 17  1  0
 18 52  1  0
 18 53  1  0
 19 20  2  0
 20 21  1  0
 20 54  1  0
 21 22  2  0
 21 55  1  0
 22 18  1  0
 22 23  1  0
 23 24  2  0
 23 56  1  0
 24 19  1  0
 24 57  1  0
 25 19  1  0
 26 25  1  0
 26 58  1  0
 26 59  1  0
 27 26  1  0
 27 60  1  0
 27 61  1  0
 28 27  1  0
 28 62  1  0
 28 63  1  0
 29 30  2  0
 29 28  1  0
 31 32  1  0
 31 64  1  0
 31 65  1  0
 31 66  1  0
 32 29  1  0
 33 34  1  0
 33 67  1  0
 33 68  1  0
 34 35  1  0
 34 69  1  0
 34 70  1  0
 35 36  1  0
 36 37  1  0
 36 71  1  0
 36 72  1  0
 37 38  1  0
 37 73  1  0
 37 74  1  0
 38 39  1  0
 39 40  1  0
 39 75  1  0
 39 76  1  0
 40 35  1  0
 40 77  1  0
 40 78  1  0
M  END
>  <minimizedAffinity>  (3) 
-7.21118

>  <mol_id>  (3) 
32149

>  <source_index>  (3) 
2

>  <layer>  (3) 
L1

>  <uniprot>  (3) 
Q92793

>  <paff>  (3) 
6.3010000000000002

>  <smiles>  (3) 
COC(=O)CCCOc1ccc(CCc2nc3cc(-c4c(C)noc4C)ccc3n2CCN2CCOCC2)cc1

$$$$
L1:Q92793:37452
     RDKit          3D

 50 53  0  0  0  0  0  0  0  0999 V2000
    3.8477   -8.7393   19.8534 C   0  0  0  0  0  0  0  0  0  0  0  0
    4.4983   -9.7659   20.0179 O   0  0  0  0  0  0  0  0  0  0  0  0
    4.0124   -7.8599   18.8012 N   0  0  0  0  0  0  0  0  0  0  0  0
    3.3566   -7.0912   18.7241 H   0  0  0  0  0  0  0  0  0  0  0  0
    1.6115   -7.7286   22.6721 C   0  0  0  0  0  0  0  0  0  0  0  0
    2.8788   -7.9754   22.1590 C   0  0  0  0  0  0  0  0  0  0  0  0
    2.7797   -8.3514   20.7894 C   0  0  0  0  0  0  0  0  0  0  0  0
    1.4244   -8.2943   20.4928 C   0  0  0  0  0  0  0  0  0  0  0  0
    0.6697   -8.5533   19.3025 C   0  0  0  0  0  0  0  0  0  0  0  0
   -0.6547   -8.3164   19.2821 C   0  0  0  0  0  0  0  0  0  0  0  0
   -1.4556   -8.5317   18.1911 O   0  0  0  0  0  0  0  0  0  0  0  0
   -1.3469   -7.7942   20.4375 C   0  0  0  0  0  0  0  0  0  0  0  0
   -0.6545   -7.5759   21.5671 C   0  0  0  0  0  0  0  0  0  0  0  0
    0.7190   -7.8507   21.6179 N   0  0  0  0  0  0  0  0  0  0  0  0
   -0.8993   -8.8776   17.4720 H   0  0  0  0  0  0  0  0  0  0  0  0
    0.6103   -8.3705   24.9392 C   0  0  0  0  0  0  0  0  0  0  0  0
    1.3466   -7.3909   24.0622 C   0  0  0  0  0  0  0  0  0  0  0  0
    1.7459   -6.3335   24.5532 O   0  0  0  0  0  0  0  0  0  0  0  0
    4.9597   -7.9205   17.7532 C   0  0  0  0  0  0  0  0  0  0  0  0
    6.2905   -7.5198   17.8690 C   0  0  0  0  0  0  0  0  0  0  0  0
    7.1632   -7.6052   16.7711 C   0  0  0  0  0  0  0  0  0  0  0  0
    6.6843   -8.1217   15.5545 C   0  0  0  0  0  0  0  0  0  0  0  0
    5.3490   -8.5234   15.4073 C   0  0  0  0  0  0  0  0  0  0  0  0
    4.5059   -8.4147   16.5200 C   0  0  0  0  0  0  0  0  0  0  0  0
    3.2145   -8.7837   16.4321 F   0  0  0  0  0  0  0  0  0  0  0  0
    4.8590   -9.0485   14.1417 C   0  0  0  0  0  0  0  0  0  0  0  0
    5.1238  -10.2704   13.4772 C   0  0  0  0  0  0  0  0  0  0  0  0
    4.4684  -10.3849   12.3185 N   0  0  0  0  0  0  0  0  0  0  0  0
    3.7666   -9.2417   12.2417 N   0  0  0  0  0  0  0  0  0  0  0  0
    2.9104   -9.0096   11.1043 C   0  0  0  0  0  0  0  0  0  0  0  0
    3.9649   -8.4094   13.3050 C   0  0  0  0  0  0  0  0  0  0  0  0
    8.6073   -7.2048   16.9383 C   0  0  0  0  0  0  0  0  0  0  0  0
    9.4573   -8.0525   16.1767 O   0  0  0  0  0  0  0  0  0  0  0  0
   10.3590   -7.7054   16.2813 H   0  0  0  0  0  0  0  0  0  0  0  0
    3.7598   -7.8978   22.6908 H   0  0  0  0  0  0  0  0  0  0  0  0
    1.1415   -8.9212   18.4616 H   0  0  0  0  0  0  0  0  0  0  0  0
   -2.3580   -7.5920   20.3954 H   0  0  0  0  0  0  0  0  0  0  0  0
   -1.1355   -7.2043   22.4011 H   0  0  0  0  0  0  0  0  0  0  0  0
    0.5049   -7.9603   25.9218 H   0  0  0  0  0  0  0  0  0  0  0  0
    1.1615   -9.2861   24.9922 H   0  0  0  0  0  0  0  0  0  0  0  0
   -0.3583   -8.5607   24.5263 H   0  0  0  0  0  0  0  0  0  0  0  0
    6.6379   -7.1568   18.7704 H   0  0  0  0  0  0  0  0  0  0  0  0
    7.3289   -8.2070   14.7531 H   0  0  0  0  0  0  0  0  0  0  0  0
    5.7564  -10.9962   13.8487 H   0  0  0  0  0  0  0  0  0  0  0  0
    2.9670   -9.8455   10.4388 H   0  0  0  0  0  0  0  0  0  0  0  0
    3.2281   -8.1248   10.5934 H   0  0  0  0  0  0  0  0  0  0  0  0
    1.9009   -8.8863   11.4370 H   0  0  0  0  0  0  0  0  0  0  0  0
    3.5320   -7.4846   13.4545 H   0  0  0  0  0  0  0  0  0  0  0  0
    8.8741   -7.2775   17.9719 H   0  0  0  0  0  0  0  0  0  0  0  0
    8.7268   -6.1992   16.5928 H   0  0  0  0  0  0  0  0  0  0  0  0
  1  2  2  0
  1  3  1  0
  3 19  1  0
  3  4  1  0
  5  6  2  0
  6  7  1  0
  6 35  1  0
  7  1  1  0
  7  8  2  0
  8  9  1  0
  9 10  2  0
  9 36  1  0
 10 11  1  0
 10 12  1  0
 11 15  1  0
 12 13  2  0
 12 37  1  0
 13 14  1  0
 13 38  1  0
 14  5  1  0
 14  8  1  0
 16 17  1  0
 16 39  1  0
 16 40  1  0
 16 41  1  0
 17 18  2  0
 17  5  1  0
 19 20  2  0
 20 21  1  0
 20 42  1  0
 21 32  1  0
 21 22  2  0
 22 23  1  0
 22 43  1  0
 23 26  1  0
 23 24  2  0
 24 25  1  0
 24 19  1  0
 26 27  1  0
 27 28  2  0
 27 44  1  0
 28 29  1  0
 29 30  1  0
 29 31  1  0
 30 45  1  0
 30 46  1  0
 30 47  1  0
 31 26  2  0
 31 48  1  0
 32 33  1  0
 32 49  1  0
 32 50  1  0
 33 34  1  0
M  END
>  <minimizedAffinity>  (4) 
-7.08026

>  <mol_id>  (4) 
37452

>  <source_index>  (4) 
3

>  <layer>  (4) 
L1

>  <uniprot>  (4) 
Q92793

>  <paff>  (4) 
8.2218

>  <smiles>  (4) 
CC(=O)c1cc(C(=O)Nc2cc(CO)cc(-c3cnn(C)c3)c2F)c2cc(O)ccn12

$$$$
L1:Q92793:46896
     RDKit          3D

 62 65  0  0  0  0  0  0  0  0999 V2000
    4.1516   -8.3380   16.0575 N   0  0  0  0  0  0  0  0  0  0  0  0
    3.1360   -8.7206   15.2422 C   0  0  0  0  0  0  0  0  0  0  0  0
    1.9422   -8.5753   15.4557 O   0  0  0  0  0  0  0  0  0  0  0  0
    3.7744   -9.3853   14.0486 C   0  0  1  0  0  0  0  0  0  0  0  0
    3.4846  -10.8937   13.9886 C   0  0  0  0  0  0  0  0  0  0  0  0
    2.2776  -11.0562   13.0526 C   0  0  0  0  0  0  0  0  0  0  0  0
    2.4440   -9.8781   12.1424 C   0  0  0  0  0  0  0  0  0  0  0  0
    3.2860   -8.9162   12.7111 C   0  0  0  0  0  0  0  0  0  0  0  0
    3.5556   -7.7329   12.0441 C   0  0  0  0  0  0  0  0  0  0  0  0
    2.9671   -7.5287   10.7904 C   0  0  0  0  0  0  0  0  0  0  0  0
    2.1194   -8.4953   10.2113 C   0  0  0  0  0  0  0  0  0  0  0  0
    1.8475   -9.6773   10.9057 C   0  0  0  0  0  0  0  0  0  0  0  0
    5.1652   -9.1451   14.2384 O   0  0  0  0  0  0  0  0  0  0  0  0
    5.3290   -8.4772   15.4129 C   0  0  0  0  0  0  0  0  0  0  0  0
    6.4106   -8.0544   15.7925 O   0  0  0  0  0  0  0  0  0  0  0  0
    1.5801   -8.1970    8.9436 N   0  0  0  0  0  0  0  0  0  0  0  0
    2.0413   -8.6160    7.7143 C   0  0  0  0  0  0  0  0  0  0  0  0
    3.0415   -9.2812    7.4868 O   0  0  0  0  0  0  0  0  0  0  0  0
    1.2054   -8.1599    6.7102 N   0  0  0  0  0  0  0  0  0  0  0  0
    1.5051   -8.4873    5.3365 C   0  0  0  0  0  0  0  0  0  0  0  0
    0.8952   -7.4585    8.9048 H   0  0  0  0  0  0  0  0  0  0  0  0
    0.2282   -8.1305    6.9579 H   0  0  0  0  0  0  0  0  0  0  0  0
    3.9761   -7.4986   17.2264 C   0  0  0  0  0  0  0  0  0  0  0  0
    2.7170   -8.3035   19.2841 N   0  0  0  0  0  0  0  0  0  0  0  0
    3.9007   -8.2726   18.5468 C   0  0  0  0  0  0  0  0  0  0  0  0
    4.8922   -8.9107   18.9186 O   0  0  0  0  0  0  0  0  0  0  0  0
    2.9352   -7.8494   21.7586 C   0  0  0  0  0  0  0  0  0  0  0  0
    2.8244   -8.9029   20.6539 C   0  0  1  0  0  0  0  0  0  0  0  0
    1.7797   -9.9808   21.0259 C   0  0  0  0  0  0  0  0  0  0  0  0
    2.1529  -10.6270   22.1595 F   0  0  0  0  0  0  0  0  0  0  0  0
    1.6163  -10.9148   20.0652 F   0  0  0  0  0  0  0  0  0  0  0  0
    0.5674   -9.4352   21.2761 F   0  0  0  0  0  0  0  0  0  0  0  0
    1.3922   -8.0726   18.6956 C   0  0  0  0  0  0  0  0  0  0  0  0
    0.9134   -6.6435   18.7594 C   0  0  0  0  0  0  0  0  0  0  0  0
    0.8308   -5.8775   17.5837 C   0  0  0  0  0  0  0  0  0  0  0  0
    0.3466   -4.5688   17.6221 C   0  0  0  0  0  0  0  0  0  0  0  0
   -0.0697   -4.0264   18.8312 C   0  0  0  0  0  0  0  0  0  0  0  0
   -0.0054   -4.7664   20.0045 C   0  0  0  0  0  0  0  0  0  0  0  0
    0.4837   -6.0746   19.9705 C   0  0  0  0  0  0  0  0  0  0  0  0
   -0.5655   -2.7799   18.8615 F   0  0  0  0  0  0  0  0  0  0  0  0
    3.2514  -11.2665   14.9641 H   0  0  0  0  0  0  0  0  0  0  0  0
    4.3323  -11.4418   13.6337 H   0  0  0  0  0  0  0  0  0  0  0  0
    1.3550  -11.0058   13.5923 H   0  0  0  0  0  0  0  0  0  0  0  0
    2.2429  -11.9977   12.5453 H   0  0  0  0  0  0  0  0  0  0  0  0
    4.1745   -7.0198   12.4606 H   0  0  0  0  0  0  0  0  0  0  0  0
    3.1576   -6.6526   10.2794 H   0  0  0  0  0  0  0  0  0  0  0  0
    1.2147  -10.3878   10.5060 H   0  0  0  0  0  0  0  0  0  0  0  0
    2.5655   -8.4884    5.1933 H   0  0  0  0  0  0  0  0  0  0  0  0
    1.0588   -7.7600    4.6910 H   0  0  0  0  0  0  0  0  0  0  0  0
    1.1132   -9.4562    5.1071 H   0  0  0  0  0  0  0  0  0  0  0  0
    4.8025   -6.8211   17.2807 H   0  0  0  0  0  0  0  0  0  0  0  0
    3.0381   -6.9975   17.1084 H   0  0  0  0  0  0  0  0  0  0  0  0
    3.0086   -8.3355   22.7090 H   0  0  0  0  0  0  0  0  0  0  0  0
    2.0668   -7.2244   21.7438 H   0  0  0  0  0  0  0  0  0  0  0  0
    3.8076   -7.2518   21.5953 H   0  0  0  0  0  0  0  0  0  0  0  0
    3.7483   -9.4385   20.5874 H   0  0  0  0  0  0  0  0  0  0  0  0
    0.6853   -8.6843   19.2161 H   0  0  0  0  0  0  0  0  0  0  0  0
    1.4766   -8.3165   17.6572 H   0  0  0  0  0  0  0  0  0  0  0  0
    1.1306   -6.2860   16.6847 H   0  0  0  0  0  0  0  0  0  0  0  0
    0.2982   -4.0076   16.7574 H   0  0  0  0  0  0  0  0  0  0  0  0
   -0.3172   -4.3522   20.8968 H   0  0  0  0  0  0  0  0  0  0  0  0
    0.5298   -6.6271   20.8409 H   0  0  0  0  0  0  0  0  0  0  0  0
  1  2  1  0
  2  3  2  0
  4  2  1  0
  4  5  1  0
  4 13  1  6
  5  6  1  0
  5 41  1  0
  5 42  1  0
  6  7  1  0
  6 43  1  0
  6 44  1  0
  7  8  2  0
  8  9  1  0
  8  4  1  0
  9 10  2  0
  9 45  1  0
 10 11  1  0
 10 46  1  0
 11 12  2  0
 11 16  1  0
 12  7  1  0
 12 47  1  0
 13 14  1  0
 14 15  2  0
 14  1  1  0
 16 17  1  0
 16 21  1  0
 17 18  2  0
 17 19  1  0
 19 20  1  0
 19 22  1  0
 20 48  1  0
 20 49  1  0
 20 50  1  0
 23  1  1  0
 23 51  1  0
 23 52  1  0
 24 33  1  0
 24 25  1  0
 25 26  2  0
 25 23  1  0
 27 28  1  0
 27 53  1  0
 27 54  1  0
 27 55  1  0
 28 29  1  0
 28 24  1  0
 28 56  1  6
 29 30  1  0
 29 31  1  0
 29 32  1  0
 33 34  1  0
 33 57  1  0
 33 58  1  0
 34 35  2  0
 35 36  1  0
 35 59  1  0
 36 37  2  0
 36 60  1  0
 37 38  1  0
 37 40  1  0
 38 39  2  0
 38 61  1  0
 39 34  1  0
 39 62  1  0
M  END
>  <minimizedAffinity>  (5) 
-7.08860

>  <mol_id>  (5) 
46896

>  <source_index>  (5) 
4

>  <layer>  (5) 
L1

>  <uniprot>  (5) 
Q92793

>  <paff>  (5) 
8.5850000000000009

>  <smiles>  (5) 
C[C@@H](C(F)(F)F)N(Cc1ccc(cc1)F)C(=O)CN2C(=O)[C@]3(CCc4c3ccc(c4)NC(=O)NC)OC2=O

$$$$
L1:Q92793:62803
     RDKit          3D

 86 90  0  0  0  0  0  0  0  0999 V2000
    0.6247   -8.3352   19.0791 C   0  0  0  0  0  0  0  0  0  0  0  0
    1.2598   -8.0707   17.9547 N   0  0  0  0  0  0  0  0  0  0  0  0
    2.5915   -8.2518   18.2148 C   0  0  0  0  0  0  0  0  0  0  0  0
    3.6923   -8.1046   17.3585 C   0  0  0  0  0  0  0  0  0  0  0  0
    4.9777   -8.3650   17.8569 C   0  0  0  0  0  0  0  0  0  0  0  0
    5.1520   -8.7604   19.1889 C   0  0  0  0  0  0  0  0  0  0  0  0
    4.0621   -8.9077   20.0581 C   0  0  0  0  0  0  0  0  0  0  0  0
    2.7913   -8.6449   19.5332 C   0  0  0  0  0  0  0  0  0  0  0  0
    1.5210   -8.6906   20.0667 N   0  0  0  0  0  0  0  0  0  0  0  0
    6.1273   -8.2392   16.9890 C   0  0  0  0  0  0  0  0  0  0  0  0
    6.5080   -8.9684   15.8322 C   0  0  0  0  0  0  0  0  0  0  0  0
    5.7883  -10.0770   15.1621 C   0  0  0  0  0  0  0  0  0  0  0  0
    7.6691   -8.5220   15.3381 N   0  0  0  0  0  0  0  0  0  0  0  0
    8.0607   -7.4900   16.1692 O   0  0  0  0  0  0  0  0  0  0  0  0
    7.1393   -7.3208   17.1555 C   0  0  0  0  0  0  0  0  0  0  0  0
    7.4224   -6.2539   18.1357 C   0  0  0  0  0  0  0  0  0  0  0  0
   -0.8622   -8.2993   19.2503 C   0  0  0  0  0  0  0  0  0  0  0  0
   -1.3495   -7.0916   20.0563 C   0  0  0  0  0  0  0  0  0  0  0  0
   -0.8717   -3.3255   17.9992 C   0  0  0  0  0  0  0  0  0  0  0  0
   -0.1048   -3.6081   19.1282 C   0  0  0  0  0  0  0  0  0  0  0  0
   -0.2615   -4.8271   19.7924 C   0  0  0  0  0  0  0  0  0  0  0  0
   -1.1968   -5.7694   19.3436 C   0  0  0  0  0  0  0  0  0  0  0  0
   -1.9953   -5.4573   18.2377 C   0  0  0  0  0  0  0  0  0  0  0  0
   -1.8342   -4.2396   17.5741 C   0  0  0  0  0  0  0  0  0  0  0  0
   -0.8017   -2.1580   17.2953 O   0  0  0  0  0  0  0  0  0  0  0  0
   -0.5068   -2.2863   15.8994 C   0  0  0  0  0  0  0  0  0  0  0  0
    0.9920   -2.5280   15.7121 C   0  0  0  0  0  0  0  0  0  0  0  0
    1.2906   -3.6784   14.7503 C   0  0  0  0  0  0  0  0  0  0  0  0
    0.1811   -5.8249   14.6203 N   0  0  0  0  0  0  0  0  0  0  0  0
    1.0202   -5.0345   15.3717 C   0  0  0  0  0  0  0  0  0  0  0  0
    1.5168   -5.4005   16.4320 O   0  0  0  0  0  0  0  0  0  0  0  0
   -0.2687   -5.4271   13.8060 H   0  0  0  0  0  0  0  0  0  0  0  0
   -0.2595   -7.1243   15.0902 C   0  0  0  0  0  0  0  0  0  0  0  0
    0.0698   -8.2596   14.1147 C   0  0  0  0  0  0  0  0  0  0  0  0
    0.4322   -8.3825   11.7717 C   0  0  0  0  0  0  0  0  0  0  0  0
   -0.4515   -7.9847   12.8114 O   0  0  0  0  0  0  0  0  0  0  0  0
    1.2066   -9.0581   21.4375 C   0  0  0  0  0  0  0  0  0  0  0  0
    1.7003  -10.4700   21.7841 C   0  0  0  0  0  0  0  0  0  0  0  0
    2.3476  -10.5447   23.1052 N   0  0  0  0  0  0  0  0  0  0  0  0
    1.4706  -11.1900   24.1107 C   0  0  0  0  0  0  0  0  0  0  0  0
    1.8234  -12.6619   24.3837 C   0  0  0  0  0  0  0  0  0  0  0  0
    3.1681  -12.8452   24.8482 O   0  0  0  0  0  0  0  0  0  0  0  0
    4.0616  -11.8107   24.4171 C   0  0  0  0  0  0  0  0  0  0  0  0
    3.6626  -11.2242   23.0545 C   0  0  0  0  0  0  0  0  0  0  0  0
    3.5592   -7.8098   16.3785 H   0  0  0  0  0  0  0  0  0  0  0  0
    6.1047   -8.9477   19.5387 H   0  0  0  0  0  0  0  0  0  0  0  0
    4.1908   -9.1968   21.0404 H   0  0  0  0  0  0  0  0  0  0  0  0
    4.8878  -10.2931   15.6980 H   0  0  0  0  0  0  0  0  0  0  0  0
    6.4106  -10.9473   15.1447 H   0  0  0  0  0  0  0  0  0  0  0  0
    5.5469   -9.7911   14.1597 H   0  0  0  0  0  0  0  0  0  0  0  0
    8.3426   -5.7708   17.8813 H   0  0  0  0  0  0  0  0  0  0  0  0
    7.5019   -6.6802   19.1139 H   0  0  0  0  0  0  0  0  0  0  0  0
    6.6279   -5.5373   18.1224 H   0  0  0  0  0  0  0  0  0  0  0  0
   -1.3150   -8.2663   18.2814 H   0  0  0  0  0  0  0  0  0  0  0  0
   -1.1401   -9.1773   19.7951 H   0  0  0  0  0  0  0  0  0  0  0  0
   -2.3860   -7.2341   20.2807 H   0  0  0  0  0  0  0  0  0  0  0  0
   -0.7386   -7.0405   20.9333 H   0  0  0  0  0  0  0  0  0  0  0  0
    0.5790   -2.9166   19.4736 H   0  0  0  0  0  0  0  0  0  0  0  0
    0.3169   -5.0357   20.6213 H   0  0  0  0  0  0  0  0  0  0  0  0
   -2.7064   -6.1302   17.9112 H   0  0  0  0  0  0  0  0  0  0  0  0
   -2.4318   -4.0148   16.7633 H   0  0  0  0  0  0  0  0  0  0  0  0
   -1.0540   -3.1116   15.4941 H   0  0  0  0  0  0  0  0  0  0  0  0
   -0.7879   -1.3869   15.3925 H   0  0  0  0  0  0  0  0  0  0  0  0
    1.4367   -1.6349   15.3255 H   0  0  0  0  0  0  0  0  0  0  0  0
    1.3976   -2.7922   16.6664 H   0  0  0  0  0  0  0  0  0  0  0  0
    0.6750   -3.5692   13.8819 H   0  0  0  0  0  0  0  0  0  0  0  0
    2.3303   -3.6346   14.5012 H   0  0  0  0  0  0  0  0  0  0  0  0
    0.2194   -7.3288   16.0249 H   0  0  0  0  0  0  0  0  0  0  0  0
   -1.3245   -7.0847   15.1860 H   0  0  0  0  0  0  0  0  0  0  0  0
    1.1323   -8.3683   14.0505 H   0  0  0  0  0  0  0  0  0  0  0  0
   -0.3787   -9.1608   14.4775 H   0  0  0  0  0  0  0  0  0  0  0  0
   -0.0072   -8.1539   10.8232 H   0  0  0  0  0  0  0  0  0  0  0  0
    0.6098   -9.4356   11.8380 H   0  0  0  0  0  0  0  0  0  0  0  0
    1.3592   -7.8575   11.8711 H   0  0  0  0  0  0  0  0  0  0  0  0
    0.1455   -9.0213   21.5699 H   0  0  0  0  0  0  0  0  0  0  0  0
    1.7027   -8.3668   22.0863 H   0  0  0  0  0  0  0  0  0  0  0  0
    2.4061  -10.7766   21.0406 H   0  0  0  0  0  0  0  0  0  0  0  0
    0.8441  -11.1113   21.8102 H   0  0  0  0  0  0  0  0  0  0  0  0
    0.4614  -11.1441   23.7581 H   0  0  0  0  0  0  0  0  0  0  0  0
    1.6057  -10.6599   25.0303 H   0  0  0  0  0  0  0  0  0  0  0  0
    1.6989  -13.2151   23.4763 H   0  0  0  0  0  0  0  0  0  0  0  0
    1.1704  -13.0064   25.1581 H   0  0  0  0  0  0  0  0  0  0  0  0
    5.0480  -12.2182   24.3405 H   0  0  0  0  0  0  0  0  0  0  0  0
    4.0191  -11.0210   25.1378 H   0  0  0  0  0  0  0  0  0  0  0  0
    3.6139  -12.0175   22.3381 H   0  0  0  0  0  0  0  0  0  0  0  0
    4.3988  -10.4981   22.7794 H   0  0  0  0  0  0  0  0  0  0  0  0
  1  2  2  0
  2  3  1  0
  3  4  2  0
  4  5  1  0
  4 45  1  0
  5 10  1  0
  5  6  2  0
  6  7  1  0
  6 46  1  0
  7  8  2  0
  7 47  1  0
  8  9  1  0
  8  3  1  0
  9 37  1  0
  9  1  1  0
 10 11  1  0
 11 12  1  0
 11 13  2  0
 12 48  1  0
 12 49  1  0
 12 50  1  0
 13 14  1  0
 14 15  1  0
 15 16  1  0
 15 10  2  0
 16 51  1  0
 16 52  1  0
 16 53  1  0
 17  1  1  0
 17 54  1  0
 17 55  1  0
 18 17  1  0
 18 56  1  0
 18 57  1  0
 19 20  2  0
 20 21  1  0
 20 58  1  0
 21 22  2  0
 21 59  1  0
 22 18  1  0
 22 23  1  0
 23 24  2  0
 23 60  1  0
 24 19  1  0
 24 61  1  0
 25 19  1  0
 26 25  1  0
 26 62  1  0
 26 63  1  0
 27 26  1  0
 27 64  1  0
 27 65  1  0
 28 27  1  0
 28 66  1  0
 28 67  1  0
 29 30  1  0
 29 32  1  0
 30 31  2  0
 30 28  1  0
 33 29  1  0
 33 68  1  0
 33 69  1  0
 34 33  1  0
 34 70  1  0
 34 71  1  0
 35 36  1  0
 35 72  1  0
 35 73  1  0
 35 74  1  0
 36 34  1  0
 37 38  1  0
 37 75  1  0
 37 76  1  0
 38 39  1  0
 38 77  1  0
 38 78  1  0
 39 40  1  0
 40 41  1  0
 40 79  1  0
 40 80  1  0
 41 42  1  0
 41 81  1  0
 41 82  1  0
 42 43  1  0
 43 44  1  0
 43 83  1  0
 43 84  1  0
 44 39  1  0
 44 85  1  0
 44 86  1  0
M  END
>  <minimizedAffinity>  (6) 
-6.52842

>  <mol_id>  (6) 
62803

>  <source_index>  (6) 
5

>  <layer>  (6) 
L1

>  <uniprot>  (6) 
Q92793

>  <paff>  (6) 
6.4814999999999996

>  <smiles>  (6) 
COCCNC(=O)CCCOc1ccc(CCc2nc3cc(-c4c(C)noc4C)ccc3n2CCN2CCOCC2)cc1

$$$$
L1:Q92793:73412
     RDKit          3D

 66 70  0  0  0  0  0  0  0  0999 V2000
    1.9025   -8.7963   20.2901 C   0  0  0  0  0  0  0  0  0  0  0  0
    3.2183   -8.9038   20.3129 N   0  0  0  0  0  0  0  0  0  0  0  0
    3.6511   -8.5567   19.0609 C   0  0  0  0  0  0  0  0  0  0  0  0
    4.9580   -8.5155   18.5532 C   0  0  0  0  0  0  0  0  0  0  0  0
    5.1554   -8.1323   17.2177 C   0  0  0  0  0  0  0  0  0  0  0  0
    4.0582   -7.7912   16.4141 C   0  0  0  0  0  0  0  0  0  0  0  0
    2.7478   -7.8273   16.9078 C   0  0  0  0  0  0  0  0  0  0  0  0
    2.5810   -8.2152   18.2418 C   0  0  0  0  0  0  0  0  0  0  0  0
    1.4737   -8.3687   19.0490 N   0  0  0  0  0  0  0  0  0  0  0  0
    6.4981   -8.0813   16.6784 C   0  0  0  0  0  0  0  0  0  0  0  0
    7.6121   -7.2717   17.0280 C   0  0  0  0  0  0  0  0  0  0  0  0
    7.6996   -6.2117   18.0590 C   0  0  0  0  0  0  0  0  0  0  0  0
    8.6788   -7.5591   16.2719 N   0  0  0  0  0  0  0  0  0  0  0  0
    8.2752   -8.5690   15.4199 O   0  0  0  0  0  0  0  0  0  0  0  0
    6.9759   -8.8868   15.6673 C   0  0  0  0  0  0  0  0  0  0  0  0
    6.4097   -9.9712   14.8428 C   0  0  0  0  0  0  0  0  0  0  0  0
    1.0125   -9.0935   21.4590 C   0  0  0  0  0  0  0  0  0  0  0  0
    1.7137   -8.8656   22.8031 C   0  0  0  0  0  0  0  0  0  0  0  0
    3.0920  -12.5069   24.6894 C   0  0  0  0  0  0  0  0  0  0  0  0
    1.7542  -12.1194   24.7892 C   0  0  0  0  0  0  0  0  0  0  0  0
    1.3024  -10.9526   24.1687 C   0  0  0  0  0  0  0  0  0  0  0  0
    2.1889  -10.1491   23.4426 C   0  0  0  0  0  0  0  0  0  0  0  0
    3.5313  -10.5370   23.3494 C   0  0  0  0  0  0  0  0  0  0  0  0
    3.9799  -11.7101   23.9671 C   0  0  0  0  0  0  0  0  0  0  0  0
    4.7932  -13.9985   25.4107 C   0  0  0  0  0  0  0  0  0  0  0  0
    3.4131  -13.6575   25.3559 O   0  0  0  0  0  0  0  0  0  0  0  0
    0.1030   -8.1289   18.6277 C   0  0  0  0  0  0  0  0  0  0  0  0
   -0.3502   -6.7021   18.9609 C   0  0  0  0  0  0  0  0  0  0  0  0
   -0.7252   -5.9094   17.7737 N   0  0  0  0  0  0  0  0  0  0  0  0
    0.3663   -5.0158   17.3250 C   0  0  0  0  0  0  0  0  0  0  0  0
   -0.0093   -4.2806   16.0275 C   0  0  0  0  0  0  0  0  0  0  0  0
   -0.3204   -5.2060   14.9782 O   0  0  0  0  0  0  0  0  0  0  0  0
   -1.4085   -6.0504   15.3757 C   0  0  0  0  0  0  0  0  0  0  0  0
   -1.0690   -6.8243   16.6581 C   0  0  0  0  0  0  0  0  0  0  0  0
    5.7613   -8.7629   19.1520 H   0  0  0  0  0  0  0  0  0  0  0  0
    4.2199   -7.5067   15.4354 H   0  0  0  0  0  0  0  0  0  0  0  0
    1.9412   -7.5788   16.3140 H   0  0  0  0  0  0  0  0  0  0  0  0
    6.7583   -6.1229   18.5600 H   0  0  0  0  0  0  0  0  0  0  0  0
    7.9449   -5.2803   17.5930 H   0  0  0  0  0  0  0  0  0  0  0  0
    8.4588   -6.4663   18.7688 H   0  0  0  0  0  0  0  0  0  0  0  0
    7.1537  -10.3261   14.1606 H   0  0  0  0  0  0  0  0  0  0  0  0
    5.5699   -9.6001   14.2933 H   0  0  0  0  0  0  0  0  0  0  0  0
    6.0949  -10.7739   15.4765 H   0  0  0  0  0  0  0  0  0  0  0  0
    0.1541   -8.4568   21.4074 H   0  0  0  0  0  0  0  0  0  0  0  0
    0.7395  -10.1267   21.4056 H   0  0  0  0  0  0  0  0  0  0  0  0
    2.5595   -8.2299   22.6436 H   0  0  0  0  0  0  0  0  0  0  0  0
    1.0011   -8.4209   23.4660 H   0  0  0  0  0  0  0  0  0  0  0  0
    1.0927  -12.7010   25.3269 H   0  0  0  0  0  0  0  0  0  0  0  0
    0.3097  -10.6815   24.2460 H   0  0  0  0  0  0  0  0  0  0  0  0
    4.1965   -9.9520   22.8199 H   0  0  0  0  0  0  0  0  0  0  0  0
    4.9711  -11.9864   23.8878 H   0  0  0  0  0  0  0  0  0  0  0  0
    4.9136  -14.9120   25.9548 H   0  0  0  0  0  0  0  0  0  0  0  0
    5.3345  -13.2169   25.9017 H   0  0  0  0  0  0  0  0  0  0  0  0
    5.1695  -14.1231   24.4168 H   0  0  0  0  0  0  0  0  0  0  0  0
   -0.5401   -8.8228   19.1275 H   0  0  0  0  0  0  0  0  0  0  0  0
    0.0526   -8.2562   17.5665 H   0  0  0  0  0  0  0  0  0  0  0  0
    0.4510   -6.2012   19.4630 H   0  0  0  0  0  0  0  0  0  0  0  0
   -1.2245   -6.7850   19.5721 H   0  0  0  0  0  0  0  0  0  0  0  0
    1.2459   -5.6000   17.1522 H   0  0  0  0  0  0  0  0  0  0  0  0
    0.5397   -4.2859   18.0880 H   0  0  0  0  0  0  0  0  0  0  0  0
    0.8144   -3.6701   15.7214 H   0  0  0  0  0  0  0  0  0  0  0  0
   -0.8744   -3.6801   16.2169 H   0  0  0  0  0  0  0  0  0  0  0  0
   -1.6141   -6.7480   14.5908 H   0  0  0  0  0  0  0  0  0  0  0  0
   -2.2632   -5.4356   15.5664 H   0  0  0  0  0  0  0  0  0  0  0  0
   -0.2347   -7.4660   16.4657 H   0  0  0  0  0  0  0  0  0  0  0  0
   -1.9299   -7.3917   16.9441 H   0  0  0  0  0  0  0  0  0  0  0  0
  1  2  2  0
  2  3  1  0
  3  4  2  0
  4  5  1  0
  4 35  1  0
  5  6  2  0
  5 10  1  0
  6  7  1  0
  6 36  1  0
  7  8  2  0
  7 37  1  0
  8  9  1  0
  8  3  1  0
  9 27  1  0
  9  1  1  0
 10 11  1  0
 11 12  1  0
 11 13  2  0
 12 38  1  0
 12 39  1  0
 12 40  1  0
 13 14  1  0
 14 15  1  0
 15 16  1  0
 15 10  2  0
 16 41  1  0
 16 42  1  0
 16 43  1  0
 17  1  1  0
 17 44  1  0
 17 45  1  0
 18 17  1  0
 18 46  1  0
 18 47  1  0
 19 20  2  0
 20 21  1  0
 20 48  1  0
 21 22  2  0
 21 49  1  0
 22 18  1  0
 22 23  1  0
 23 24  2  0
 23 50  1  0
 24 19  1  0
 24 51  1  0
 25 26  1  0
 25 52  1  0
 25 53  1  0
 25 54  1  0
 26 19  1  0
 27 28  1  0
 27 55  1  0
 27 56  1  0
 28 29  1  0
 28 57  1  0
 28 58  1  0
 29 30  1  0
 30 31  1  0
 30 59  1  0
 30 60  1  0
 31 32  1  0
 31 61  1  0
 31 62  1  0
 32 33  1  0
 33 34  1  0
 33 63  1  0
 33 64  1  0
 34 29  1  0
 34 65  1  0
 34 66  1  0
M  END
>  <minimizedAffinity>  (7) 
-7.64581

>  <mol_id>  (7) 
73412

>  <source_index>  (7) 
6

>  <layer>  (7) 
L1

>  <uniprot>  (7) 
Q92793

>  <paff>  (7) 
6.1871

>  <smiles>  (7) 
COc1ccc(CCc2nc3cc(ccc3n2CCN2CCOCC2)-c2c(C)noc2C)cc1

$$$$
L1:Q92793:95108
     RDKit          3D

 62 65  0  0  0  0  0  0  0  0999 V2000
    7.7176   -8.7281   16.0567 C   0  0  0  0  0  0  0  0  0  0  0  0
    7.5929   -9.7629   15.1065 C   0  0  0  0  0  0  0  0  0  0  0  0
    6.3617  -10.0621   14.5121 C   0  0  0  0  0  0  0  0  0  0  0  0
    5.2562   -9.3137   14.8785 C   0  0  0  0  0  0  0  0  0  0  0  0
    5.3723   -8.2870   15.8220 C   0  0  0  0  0  0  0  0  0  0  0  0
    6.5925   -7.9766   16.4064 C   0  0  0  0  0  0  0  0  0  0  0  0
    4.0561   -7.6021   16.0360 C   0  0  0  0  0  0  0  0  0  0  0  0
    3.0730   -8.6448   15.4787 C   0  0  0  0  0  0  0  0  0  0  0  0
    3.8394   -9.4116   14.3906 C   0  0  2  0  0  0  0  0  0  0  0  0
    3.3924  -10.7614   14.2893 O   0  0  0  0  0  0  0  0  0  0  0  0
    2.9643  -10.9777   13.0131 C   0  0  0  0  0  0  0  0  0  0  0  0
    2.5116  -12.0453   12.6298 O   0  0  0  0  0  0  0  0  0  0  0  0
    3.1341   -9.8721   12.2601 N   0  0  0  0  0  0  0  0  0  0  0  0
    3.6121   -8.8481   13.0096 C   0  0  0  0  0  0  0  0  0  0  0  0
    3.8007   -7.7031   12.6263 O   0  0  0  0  0  0  0  0  0  0  0  0
   11.3186   -6.6374   18.6539 C   0  0  0  0  0  0  0  0  0  0  0  0
   10.7318   -7.5737   17.7250 N   0  0  0  0  0  0  0  0  0  0  0  0
    9.3603   -7.5659   17.5394 C   0  0  0  0  0  0  0  0  0  0  0  0
    8.6142   -6.8285   18.1681 O   0  0  0  0  0  0  0  0  0  0  0  0
    9.0020   -8.4981   16.5887 N   0  0  0  0  0  0  0  0  0  0  0  0
   11.2625   -7.7518   16.8855 H   0  0  0  0  0  0  0  0  0  0  0  0
    9.7062   -9.1926   16.3930 H   0  0  0  0  0  0  0  0  0  0  0  0
    2.6694   -9.7291   10.9000 C   0  0  0  0  0  0  0  0  0  0  0  0
    3.7553  -10.2447    9.9430 C   0  0  0  0  0  0  0  0  0  0  0  0
    4.2722  -11.3516   10.1144 O   0  0  0  0  0  0  0  0  0  0  0  0
    4.1572   -9.4139    8.8958 N   0  0  0  0  0  0  0  0  0  0  0  0
    5.2778   -9.9026    8.0249 C   0  0  1  0  0  0  0  0  0  0  0  0
    5.0024   -9.6300    6.5427 C   0  0  0  0  0  0  0  0  0  0  0  0
    6.6966   -9.4390    8.4042 C   0  0  0  0  0  0  0  0  0  0  0  0
    7.6088  -10.4111    8.1784 F   0  0  0  0  0  0  0  0  0  0  0  0
    7.0853   -8.3505    7.7035 F   0  0  0  0  0  0  0  0  0  0  0  0
    6.7669   -9.1180    9.7178 F   0  0  0  0  0  0  0  0  0  0  0  0
    3.4574   -8.1727    8.5346 C   0  0  0  0  0  0  0  0  0  0  0  0
    4.3063   -6.9272    8.6612 C   0  0  0  0  0  0  0  0  0  0  0  0
    4.6250   -6.1300    7.5476 C   0  0  0  0  0  0  0  0  0  0  0  0
    5.3952   -4.9745    7.6986 C   0  0  0  0  0  0  0  0  0  0  0  0
    5.8430   -4.6063    8.9602 C   0  0  0  0  0  0  0  0  0  0  0  0
    6.5862   -3.5004    9.1018 F   0  0  0  0  0  0  0  0  0  0  0  0
    5.5329   -5.3705   10.0771 C   0  0  0  0  0  0  0  0  0  0  0  0
    4.7616   -6.5249    9.9294 C   0  0  0  0  0  0  0  0  0  0  0  0
    8.4270  -10.3109   14.8440 H   0  0  0  0  0  0  0  0  0  0  0  0
    6.2800  -10.8215   13.8181 H   0  0  0  0  0  0  0  0  0  0  0  0
    6.6675   -7.2045   17.0871 H   0  0  0  0  0  0  0  0  0  0  0  0
    4.0009   -6.6827   15.4914 H   0  0  0  0  0  0  0  0  0  0  0  0
    3.8686   -7.3257   17.0525 H   0  0  0  0  0  0  0  0  0  0  0  0
    2.2163   -8.1606   15.0586 H   0  0  0  0  0  0  0  0  0  0  0  0
    2.7218   -9.3016   16.2469 H   0  0  0  0  0  0  0  0  0  0  0  0
   10.6753   -6.5253   19.5015 H   0  0  0  0  0  0  0  0  0  0  0  0
   11.4441   -5.6896   18.1735 H   0  0  0  0  0  0  0  0  0  0  0  0
   12.2714   -7.0034   18.9752 H   0  0  0  0  0  0  0  0  0  0  0  0
    2.4712   -8.6977   10.6953 H   0  0  0  0  0  0  0  0  0  0  0  0
    1.7705  -10.2934   10.7641 H   0  0  0  0  0  0  0  0  0  0  0  0
    5.2844  -10.9565    8.2096 H   0  0  0  0  0  0  0  0  0  0  0  0
    4.9979   -8.5742    6.3691 H   0  0  0  0  0  0  0  0  0  0  0  0
    4.0506  -10.0394    6.2756 H   0  0  0  0  0  0  0  0  0  0  0  0
    5.7663  -10.0860    5.9482 H   0  0  0  0  0  0  0  0  0  0  0  0
    2.6075   -8.0670    9.1761 H   0  0  0  0  0  0  0  0  0  0  0  0
    3.1875   -8.2592    7.5028 H   0  0  0  0  0  0  0  0  0  0  0  0
    4.2870   -6.4009    6.6109 H   0  0  0  0  0  0  0  0  0  0  0  0
    5.6303   -4.3971    6.8762 H   0  0  0  0  0  0  0  0  0  0  0  0
    5.8703   -5.0871   11.0103 H   0  0  0  0  0  0  0  0  0  0  0  0
    4.5230   -7.0891   10.7600 H   0  0  0  0  0  0  0  0  0  0  0  0
  1  2  2  0
  2  3  1  0
  2 41  1  0
  3  4  2  0
  3 42  1  0
  4  5  1  0
  5  6  2  0
  5  7  1  0
  6  1  1  0
  6 43  1  0
  7  8  1  0
  7 44  1  0
  7 45  1  0
  8  9  1  0
  8 46  1  0
  8 47  1  0
  9 10  1  6
  9  4  1  0
 10 11  1  0
 11 12  2  0
 11 13  1  0
 13 23  1  0
 13 14  1  0
 14 15  2  0
 14  9  1  0
 16 17  1  0
 16 48  1  0
 16 49  1  0
 16 50  1  0
 17 18  1  0
 17 21  1  0
 18 19  2  0
 18 20  1  0
 20  1  1  0
 20 22  1  0
 23 24  1  0
 23 51  1  0
 23 52  1  0
 24 25  2  0
 24 26  1  0
 26 33  1  0
 26 27  1  0
 27 28  1  0
 27 29  1  0
 27 53  1  6
 28 54  1  0
 28 55  1  0
 28 56  1  0
 29 30  1  0
 29 31  1  0
 29 32  1  0
 33 34  1  0
 33 57  1  0
 33 58  1  0
 34 35  2  0
 35 36  1  0
 35 59  1  0
 36 37  2  0
 36 60  1  0
 37 38  1  0
 37 39  1  0
 39 40  2  0
 39 61  1  0
 40 34  1  0
 40 62  1  0
M  END
>  <minimizedAffinity>  (8) 
-7.88081

>  <mol_id>  (8) 
95108

>  <source_index>  (8) 
7

>  <layer>  (8) 
L1

>  <uniprot>  (8) 
Q92793

>  <paff>  (8) 
8.5850000000000009

>  <smiles>  (8) 
CNC(=O)Nc1ccc2c(c1)CCC21OC(=O)N(CC(=O)N(Cc2ccc(F)cc2)[C@@H](C)C(F)(F)F)C1=O

$$$$
L1:Q92793:111632
     RDKit          3D

 80 84  0  0  0  0  0  0  0  0999 V2000
    1.7229   -8.2683   19.5988 C   0  0  0  0  0  0  0  0  0  0  0  0
    3.0234   -8.3659   19.8028 N   0  0  0  0  0  0  0  0  0  0  0  0
    3.6163   -8.2196   18.5794 C   0  0  0  0  0  0  0  0  0  0  0  0
    4.9784   -8.2416   18.2458 C   0  0  0  0  0  0  0  0  0  0  0  0
    5.3477   -8.0862   16.9028 C   0  0  0  0  0  0  0  0  0  0  0  0
    4.3687   -7.9003   15.9182 C   0  0  0  0  0  0  0  0  0  0  0  0
    3.0056   -7.8654   16.2397 C   0  0  0  0  0  0  0  0  0  0  0  0
    2.6633   -8.0318   17.5866 C   0  0  0  0  0  0  0  0  0  0  0  0
    1.4589   -8.0550   18.2617 N   0  0  0  0  0  0  0  0  0  0  0  0
    6.7471   -8.1158   16.5401 C   0  0  0  0  0  0  0  0  0  0  0  0
    7.8446   -7.3337   16.9875 C   0  0  0  0  0  0  0  0  0  0  0  0
    7.8448   -6.2229   17.9674 C   0  0  0  0  0  0  0  0  0  0  0  0
    8.9831   -7.7062   16.3889 N   0  0  0  0  0  0  0  0  0  0  0  0
    8.6425   -8.7520   15.5516 O   0  0  0  0  0  0  0  0  0  0  0  0
    7.3086   -9.0026   15.6492 C   0  0  0  0  0  0  0  0  0  0  0  0
    6.7921  -10.1116   14.8251 C   0  0  0  0  0  0  0  0  0  0  0  0
    0.6898   -8.3789   20.6788 C   0  0  0  0  0  0  0  0  0  0  0  0
    0.3428   -9.8430   20.9856 C   0  0  0  0  0  0  0  0  0  0  0  0
    2.2650  -11.3609   24.5473 C   0  0  0  0  0  0  0  0  0  0  0  0
    2.8560  -11.5311   23.2928 C   0  0  0  0  0  0  0  0  0  0  0  0
    2.2442  -11.0295   22.1428 C   0  0  0  0  0  0  0  0  0  0  0  0
    1.0328  -10.3373   22.2344 C   0  0  0  0  0  0  0  0  0  0  0  0
    0.4505  -10.1518   23.4935 C   0  0  0  0  0  0  0  0  0  0  0  0
    1.0648  -10.6570   24.6439 C   0  0  0  0  0  0  0  0  0  0  0  0
    2.9565  -11.9277   25.5818 O   0  0  0  0  0  0  0  0  0  0  0  0
    3.1722  -13.3425   25.5742 C   0  0  0  0  0  0  0  0  0  0  0  0
    4.6114  -13.6778   25.9705 C   0  0  0  0  0  0  0  0  0  0  0  0
    5.6297  -13.3142   24.8868 C   0  0  0  0  0  0  0  0  0  0  0  0
    6.3869  -11.9033   26.6769 C   0  0  0  0  0  0  0  0  0  0  0  0
    6.6732  -12.3730   25.3203 N   0  0  0  0  0  0  0  0  0  0  0  0
    8.0048  -12.9806   25.2807 C   0  0  0  0  0  0  0  0  0  0  0  0
    0.1576   -7.8922   17.6337 C   0  0  0  0  0  0  0  0  0  0  0  0
   -0.3671   -6.4474   17.7098 C   0  0  0  0  0  0  0  0  0  0  0  0
   -1.0704   -6.0382   16.4807 N   0  0  0  0  0  0  0  0  0  0  0  0
   -0.2151   -6.1238   15.2727 C   0  0  0  0  0  0  0  0  0  0  0  0
    0.8268   -4.9948   15.1476 C   0  0  0  0  0  0  0  0  0  0  0  0
    0.2181   -3.7019   15.2404 O   0  0  0  0  0  0  0  0  0  0  0  0
   -0.5214   -3.5700   16.4608 C   0  0  0  0  0  0  0  0  0  0  0  0
   -1.5998   -4.6592   16.5713 C   0  0  0  0  0  0  0  0  0  0  0  0
    5.6960   -8.3699   18.9763 H   0  0  0  0  0  0  0  0  0  0  0  0
    4.6580   -7.7865   14.9341 H   0  0  0  0  0  0  0  0  0  0  0  0
    2.2850   -7.7231   15.5148 H   0  0  0  0  0  0  0  0  0  0  0  0
    6.8516   -6.0722   18.3359 H   0  0  0  0  0  0  0  0  0  0  0  0
    8.1885   -5.3280   17.4921 H   0  0  0  0  0  0  0  0  0  0  0  0
    8.4944   -6.4661   18.7821 H   0  0  0  0  0  0  0  0  0  0  0  0
    7.5949  -10.5437   14.2650 H   0  0  0  0  0  0  0  0  0  0  0  0
    6.0478   -9.7395   14.1525 H   0  0  0  0  0  0  0  0  0  0  0  0
    6.3589  -10.8560   15.4600 H   0  0  0  0  0  0  0  0  0  0  0  0
    1.0670   -7.9184   21.5679 H   0  0  0  0  0  0  0  0  0  0  0  0
   -0.1995   -7.8893   20.3408 H   0  0  0  0  0  0  0  0  0  0  0  0
   -0.7155   -9.9266   21.1194 H   0  0  0  0  0  0  0  0  0  0  0  0
    0.6771  -10.4414   20.1640 H   0  0  0  0  0  0  0  0  0  0  0  0
    3.7544  -12.0330   23.2156 H   0  0  0  0  0  0  0  0  0  0  0  0
    2.6876  -11.1701   21.2216 H   0  0  0  0  0  0  0  0  0  0  0  0
   -0.4405   -9.6374   23.5738 H   0  0  0  0  0  0  0  0  0  0  0  0
    0.6286  -10.5085   25.5673 H   0  0  0  0  0  0  0  0  0  0  0  0
    2.5013  -13.8028   26.2691 H   0  0  0  0  0  0  0  0  0  0  0  0
    2.9958  -13.7098   24.5848 H   0  0  0  0  0  0  0  0  0  0  0  0
    4.8544  -13.1379   26.8618 H   0  0  0  0  0  0  0  0  0  0  0  0
    4.6647  -14.7362   26.1180 H   0  0  0  0  0  0  0  0  0  0  0  0
    6.1067  -14.2149   24.5610 H   0  0  0  0  0  0  0  0  0  0  0  0
    5.0831  -12.8244   24.1082 H   0  0  0  0  0  0  0  0  0  0  0  0
    7.1495  -11.2193   26.9859 H   0  0  0  0  0  0  0  0  0  0  0  0
    6.3640  -12.7380   27.3460 H   0  0  0  0  0  0  0  0  0  0  0  0
    5.4379  -11.4093   26.6904 H   0  0  0  0  0  0  0  0  0  0  0  0
    8.7329  -12.2655   25.6023 H   0  0  0  0  0  0  0  0  0  0  0  0
    8.2261  -13.2898   24.2806 H   0  0  0  0  0  0  0  0  0  0  0  0
    8.0285  -13.8305   25.9303 H   0  0  0  0  0  0  0  0  0  0  0  0
   -0.5417   -8.5358   18.1253 H   0  0  0  0  0  0  0  0  0  0  0  0
    0.2671   -8.1401   16.5986 H   0  0  0  0  0  0  0  0  0  0  0  0
    0.4616   -5.7889   17.8667 H   0  0  0  0  0  0  0  0  0  0  0  0
   -1.0670   -6.3972   18.5176 H   0  0  0  0  0  0  0  0  0  0  0  0
   -0.8488   -6.0910   14.4112 H   0  0  0  0  0  0  0  0  0  0  0  0
    0.3345   -7.0384   15.3524 H   0  0  0  0  0  0  0  0  0  0  0  0
    1.3186   -5.0797   14.2011 H   0  0  0  0  0  0  0  0  0  0  0  0
    1.5253   -5.0939   15.9520 H   0  0  0  0  0  0  0  0  0  0  0  0
   -0.9911   -2.6089   16.4832 H   0  0  0  0  0  0  0  0  0  0  0  0
    0.1554   -3.6755   17.2828 H   0  0  0  0  0  0  0  0  0  0  0  0
   -2.3053   -4.5164   15.7796 H   0  0  0  0  0  0  0  0  0  0  0  0
   -2.0437   -4.5598   17.5398 H   0  0  0  0  0  0  0  0  0  0  0  0
  1  2  2  0
  2  3  1  0
  3  4  2  0
  4  5  1  0
  4 40  1  0
  5  6  2  0
  5 10  1  0
  6  7  1  0
  6 41  1  0
  7  8  2  0
  7 42  1  0
  8  9  1  0
  8  3  1  0
  9 32  1  0
  9  1  1  0
 10 11  1  0
 11 12  1  0
 11 13  2  0
 12 43  1  0
 12 44  1  0
 12 45  1  0
 13 14  1  0
 14 15  1  0
 15 16  1  0
 15 10  2  0
 16 46  1  0
 16 47  1  0
 16 48  1  0
 17  1  1  0
 17 49  1  0
 17 50  1  0
 18 17  1  0
 18 51  1  0
 18 52  1  0
 19 20  2  0
 20 21  1  0
 20 53  1  0
 21 22  2  0
 21 54  1  0
 22 18  1  0
 22 23  1  0
 23 24  2  0
 23 55  1  0
 24 19  1  0
 24 56  1  0
 25 19  1  0
 26 25  1  0
 26 57  1  0
 26 58  1  0
 27 26  1  0
 27 59  1  0
 27 60  1  0
 28 27  1  0
 28 61  1  0
 28 62  1  0
 29 30  1  0
 29 63  1  0
 29 64  1  0
 29 65  1  0
 30 31  1  0
 30 28  1  0
 31 66  1  0
 31 67  1  0
 31 68  1  0
 32 33  1  0
 32 69  1  0
 32 70  1  0
 33 34  1  0
 33 71  1  0
 33 72  1  0
 34 35  1  0
 35 36  1  0
 35 73  1  0
 35 74  1  0
 36 37  1  0
 36 75  1  0
 36 76  1  0
 37 38  1  0
 38 39  1  0
 38 77  1  0
 38 78  1  0
 39 34  1  0
 39 79  1  0
 39 80  1  0
M  END
>  <minimizedAffinity>  (9) 
-7.11272

>  <mol_id>  (9) 
111632

>  <source_index>  (9) 
8

>  <layer>  (9) 
L1

>  <uniprot>  (9) 
Q92793

>  <paff>  (9) 
6.9207999999999998

>  <smiles>  (9) 
CN(C)CCCOc1ccc(CCc2nc3cc(ccc3n2CCN2CCOCC2)-c2c(C)noc2C)cc1

$$$$
L1:Q92793:136992
     RDKit          3D

 65 70  0  0  0  0  0  0  0  0999 V2000
    4.6615   -8.1149   17.5100 C   0  0  0  0  0  0  0  0  0  0  0  0
    4.3803   -8.6022   18.7971 C   0  0  0  0  0  0  0  0  0  0  0  0
    3.1028   -8.4729   19.3581 C   0  0  0  0  0  0  0  0  0  0  0  0
    2.1132   -7.8438   18.6210 C   0  0  0  0  0  0  0  0  0  0  0  0
    2.3842   -7.3639   17.3355 C   0  0  0  0  0  0  0  0  0  0  0  0
    1.1556   -6.7787   16.7102 C   0  0  0  0  0  0  0  0  0  0  0  0
    0.2628   -6.5387   17.9379 C   0  0  0  0  0  0  0  0  0  0  0  0
    0.6762   -7.5945   18.9761 C   0  0  1  0  0  0  0  0  0  0  0  0
   -0.0971   -8.7840   18.8223 O   0  0  0  0  0  0  0  0  0  0  0  0
   -0.8345   -8.9573   19.9567 C   0  0  0  0  0  0  0  0  0  0  0  0
   -1.6425   -9.8623   20.0956 O   0  0  0  0  0  0  0  0  0  0  0  0
   -0.5201   -8.0220   20.8766 N   0  0  0  0  0  0  0  0  0  0  0  0
    0.4011   -7.1547   20.3876 C   0  0  0  0  0  0  0  0  0  0  0  0
    0.8971   -6.2093   20.9821 O   0  0  0  0  0  0  0  0  0  0  0  0
    3.6428   -7.4994   16.7682 C   0  0  0  0  0  0  0  0  0  0  0  0
    9.4705   -7.5373   16.6940 C   0  0  0  0  0  0  0  0  0  0  0  0
    8.1386   -8.0366   16.4510 N   0  0  0  0  0  0  0  0  0  0  0  0
    7.0974   -7.6006   17.2523 C   0  0  0  0  0  0  0  0  0  0  0  0
    7.2505   -6.7643   18.1319 O   0  0  0  0  0  0  0  0  0  0  0  0
    5.9236   -8.2265   16.8928 N   0  0  0  0  0  0  0  0  0  0  0  0
    8.0739   -9.0026   16.1674 H   0  0  0  0  0  0  0  0  0  0  0  0
    5.9490   -8.6973   16.0015 H   0  0  0  0  0  0  0  0  0  0  0  0
   -1.1963   -7.8604   22.1451 C   0  0  0  0  0  0  0  0  0  0  0  0
   -0.9170   -9.0905   23.0154 C   0  0  0  0  0  0  0  0  0  0  0  0
   -1.5313  -10.1432   22.8050 O   0  0  0  0  0  0  0  0  0  0  0  0
   -0.0010   -8.9771   24.0621 N   0  0  0  0  0  0  0  0  0  0  0  0
    0.3667  -10.2190   24.7398 C   0  0  0  0  0  0  0  0  0  0  0  0
    1.7796  -10.7049   24.4691 C   0  0  0  0  0  0  0  0  0  0  0  0
    2.2627  -11.7617   25.2632 C   0  0  0  0  0  0  0  0  0  0  0  0
    3.5345  -12.2862   25.0490 C   0  0  0  0  0  0  0  0  0  0  0  0
    3.9706  -13.2904   25.8201 F   0  0  0  0  0  0  0  0  0  0  0  0
    4.3530  -11.7915   24.0439 C   0  0  0  0  0  0  0  0  0  0  0  0
    3.8925  -10.7491   23.2435 C   0  0  0  0  0  0  0  0  0  0  0  0
    2.6258  -10.1971   23.4674 C   0  0  0  0  0  0  0  0  0  0  0  0
    2.2504   -9.2050   22.6009 O   0  0  0  0  0  0  0  0  0  0  0  0
    2.1096   -7.9266   23.2390 C   0  0  0  0  0  0  0  0  0  0  0  0
    0.9666   -7.8829   24.2715 C   0  0  1  0  0  0  0  0  0  0  0  0
    0.3248   -6.5229   24.4106 C   0  0  0  0  0  0  0  0  0  0  0  0
   -0.6830   -6.2581   25.5055 C   0  0  0  0  0  0  0  0  0  0  0  0
    0.6770   -5.6279   25.5777 C   0  0  0  0  0  0  0  0  0  0  0  0
    5.1277   -9.0635   19.3390 H   0  0  0  0  0  0  0  0  0  0  0  0
    2.9032   -8.8392   20.3020 H   0  0  0  0  0  0  0  0  0  0  0  0
    0.7016   -7.4651   16.0264 H   0  0  0  0  0  0  0  0  0  0  0  0
    1.3413   -5.8988   16.1304 H   0  0  0  0  0  0  0  0  0  0  0  0
   -0.7680   -6.6578   17.6768 H   0  0  0  0  0  0  0  0  0  0  0  0
    0.3809   -5.5463   18.3201 H   0  0  0  0  0  0  0  0  0  0  0  0
    3.8269   -7.1522   15.8139 H   0  0  0  0  0  0  0  0  0  0  0  0
    9.4182   -6.5095   16.9868 H   0  0  0  0  0  0  0  0  0  0  0  0
   10.0526   -7.6245   15.8004 H   0  0  0  0  0  0  0  0  0  0  0  0
    9.9283   -8.1077   17.4750 H   0  0  0  0  0  0  0  0  0  0  0  0
   -2.2496   -7.7675   21.9816 H   0  0  0  0  0  0  0  0  0  0  0  0
   -0.8400   -6.9794   22.6368 H   0  0  0  0  0  0  0  0  0  0  0  0
   -0.3129  -10.9828   24.4243 H   0  0  0  0  0  0  0  0  0  0  0  0
    0.3177  -10.0127   25.7886 H   0  0  0  0  0  0  0  0  0  0  0  0
    1.6685  -12.1516   26.0115 H   0  0  0  0  0  0  0  0  0  0  0  0
    5.2921  -12.1913   23.8912 H   0  0  0  0  0  0  0  0  0  0  0  0
    4.4866  -10.3827   22.4834 H   0  0  0  0  0  0  0  0  0  0  0  0
    1.9157   -7.1910   22.4865 H   0  0  0  0  0  0  0  0  0  0  0  0
    3.0204   -7.7338   23.7664 H   0  0  0  0  0  0  0  0  0  0  0  0
    1.4164   -8.0562   25.2268 H   0  0  0  0  0  0  0  0  0  0  0  0
    0.3316   -6.4216   23.3454 H   0  0  0  0  0  0  0  0  0  0  0  0
   -0.9473   -7.0382   26.1885 H   0  0  0  0  0  0  0  0  0  0  0  0
   -1.6877   -5.8911   25.5343 H   0  0  0  0  0  0  0  0  0  0  0  0
    1.3813   -5.9594   26.3119 H   0  0  0  0  0  0  0  0  0  0  0  0
    1.0413   -4.6269   25.6790 H   0  0  0  0  0  0  0  0  0  0  0  0
  1  2  2  0
  2  3  1  0
  2 41  1  0
  3  4  2  0
  3 42  1  0
  4  5  1  0
  5  6  1  0
  5 15  2  0
  6  7  1  0
  6 43  1  0
  6 44  1  0
  7  8  1  0
  7 45  1  0
  7 46  1  0
  8  9  1  6
  8  4  1  0
  9 10  1  0
 10 11  2  0
 10 12  1  0
 12 23  1  0
 12 13  1  0
 13 14  2  0
 13  8  1  0
 15  1  1  0
 15 47  1  0
 16 17  1  0
 16 48  1  0
 16 49  1  0
 16 50  1  0
 17 18  1  0
 17 21  1  0
 18 19  2  0
 18 20  1  0
 20  1  1  0
 20 22  1  0
 23 24  1  0
 23 51  1  0
 23 52  1  0
 24 25  2  0
 24 26  1  0
 26 27  1  0
 27 28  1  0
 27 53  1  0
 27 54  1  0
 28 29  2  0
 29 30  1  0
 29 55  1  0
 30 31  1  0
 30 32  2  0
 32 33  1  0
 32 56  1  0
 33 34  2  0
 33 57  1  0
 34 35  1  0
 34 28  1  0
 35 36  1  0
 36 37  1  0
 36 58  1  0
 36 59  1  0
 37 38  1  0
 37 26  1  0
 37 60  1  1
 38 39  1  0
 38 61  1  0
 39 40  1  0
 39 62  1  0
 39 63  1  0
 40 38  1  0
 40 64  1  0
 40 65  1  0
M  END
>  <minimizedAffinity>  (10) 
-7.30235

>  <mol_id>  (10) 
136992

>  <source_index>  (10) 
9

>  <layer>  (10) 
L1

>  <uniprot>  (10) 
Q92793

>  <paff>  (10) 
7.9585999999999997

>  <smiles>  (10) 
CNC(=O)Nc1ccc2c(CC[C@@]22OC(=O)N(CC(=O)N3Cc4cc(F)ccc4OC[C@H]3C3CC3)C2=O)c1 |r|

$$$$
