L4:Q6SZW1:5536
     RDKit          3D

 27 29  0  0  0  0  0  0  0  0999 V2000
   -4.8997  -28.7142    4.3738 C   0  0  0  0  0  0  0  0  0  0  0  0
   -4.6528  -28.3279    5.6938 C   0  0  0  0  0  0  0  0  0  0  0  0
   -3.4345  -27.8074    6.1048 C   0  0  0  0  0  0  0  0  0  0  0  0
   -2.4680  -27.6368    5.1291 C   0  0  0  0  0  0  0  0  0  0  0  0
   -1.1971  -27.0631    5.0902 N   0  0  0  0  0  0  0  0  0  0  0  0
   -0.6787  -27.1350    3.8309 C   0  0  0  0  0  0  0  0  0  0  0  0
    0.7421  -26.4947    3.2755 S   0  0  0  0  0  0  0  0  0  0  0  0
   -1.5769  -27.8286    3.0707 O   0  0  0  0  0  0  0  0  0  0  0  0
   -2.6840  -28.1188    3.8468 C   0  0  0  0  0  0  0  0  0  0  0  0
   -3.8400  -28.7396    3.4605 C   0  0  0  0  0  0  0  0  0  0  0  0
   -0.7295  -26.5108    5.7906 H   0  0  0  0  0  0  0  0  0  0  0  0
   -5.9236  -31.4073    4.8723 C   0  0  0  0  0  0  0  0  0  0  0  0
   -6.7770  -30.3703    4.2427 C   0  0  0  0  0  0  0  0  0  0  0  0
   -8.0942  -30.6310    3.8953 C   0  0  0  0  0  0  0  0  0  0  0  0
   -8.8620  -29.6498    3.3151 C   0  0  0  0  0  0  0  0  0  0  0  0
   -8.3845  -28.4388    3.0238 N   0  0  0  0  0  0  0  0  0  0  0  0
   -7.1032  -28.2015    3.3063 C   0  0  0  0  0  0  0  0  0  0  0  0
   -6.2689  -29.0995    3.9663 C   0  0  0  0  0  0  0  0  0  0  0  0
   -5.4366  -28.4594    6.4198 H   0  0  0  0  0  0  0  0  0  0  0  0
   -3.2524  -27.5432    7.1354 H   0  0  0  0  0  0  0  0  0  0  0  0
   -3.9133  -29.1921    2.4834 H   0  0  0  0  0  0  0  0  0  0  0  0
   -6.3745  -32.3885    4.7802 H   0  0  0  0  0  0  0  0  0  0  0  0
   -5.7515  -31.2024    5.9237 H   0  0  0  0  0  0  0  0  0  0  0  0
   -4.9472  -31.4497    4.4038 H   0  0  0  0  0  0  0  0  0  0  0  0
   -8.5345  -31.5975    4.0692 H   0  0  0  0  0  0  0  0  0  0  0  0
   -9.9036  -29.8371    3.0763 H   0  0  0  0  0  0  0  0  0  0  0  0
   -6.7231  -27.2498    2.9681 H   0  0  0  0  0  0  0  0  0  0  0  0
  1  2  2  0
  2  3  1  0
  2 19  1  0
  3  4  2  0
  3 20  1  0
  4  5  1  0
  5  6  1  0
  5 11  1  0
  6  7  2  0
  6  8  1  0
  8  9  1  0
  9 10  2  0
  9  4  1  0
 10  1  1  0
 10 21  1  0
 12 13  1  0
 12 22  1  0
 12 23  1  0
 12 24  1  0
 13 14  2  0
 14 15  1  0
 14 25  1  0
 15 16  2  0
 15 26  1  0
 16 17  1  0
 17 18  2  0
 17 27  1  0
 18  1  1  0
 18 13  1  0
M  END
>  <minimizedAffinity>  (1) 
-5.55439

>  <mol_id>  (1) 
5536

>  <source_index>  (1) 
0

>  <layer>  (1) 
L4

>  <uniprot>  (1) 
Q6SZW1

>  <paff>  (1) 
10

>  <smiles>  (1) 
Cc1ccncc1-c1ccc2[nH]c(=S)oc2c1

>  <aimnet_interaction_kcal_mol>  (1) 
-31.218727293756128

$$$$
L4:Q6SZW1:12531
     RDKit          3D

 49 52  0  0  0  0  0  0  0  0999 V2000
  -14.0910  -32.5837   -2.0014 C   0  0  0  0  0  0  0  0  0  0  0  0
  -14.1943  -31.1355   -1.6632 C   0  0  0  0  0  0  0  0  0  0  0  0
  -13.9498  -30.6974   -0.3665 C   0  0  0  0  0  0  0  0  0  0  0  0
  -13.9853  -29.3536   -0.0396 C   0  0  0  0  0  0  0  0  0  0  0  0
  -14.2765  -28.4080   -1.0167 C   0  0  0  0  0  0  0  0  0  0  0  0
  -14.5496  -28.8383   -2.3107 C   0  0  0  0  0  0  0  0  0  0  0  0
  -14.5392  -30.1849   -2.6365 C   0  0  0  0  0  0  0  0  0  0  0  0
  -14.3378  -27.0591   -0.6631 N   0  0  0  0  0  0  0  0  0  0  0  0
  -14.0547  -25.9639   -1.4640 C   0  0  0  0  0  0  0  0  0  0  0  0
  -13.8193  -26.0138   -2.6676 O   0  0  0  0  0  0  0  0  0  0  0  0
  -13.9820  -24.8055   -0.7255 N   0  0  0  0  0  0  0  0  0  0  0  0
  -13.9899  -23.4608   -1.3532 C   0  0  2  0  0  0  0  0  0  0  0  0
  -12.9685  -22.6066   -0.6081 C   0  0  0  0  0  0  0  0  0  0  0  0
  -12.9375  -22.9623    0.8994 C   0  0  2  0  0  0  0  0  0  0  0  0
  -11.7221  -23.8175    1.2349 C   0  0  0  0  0  0  0  0  0  0  0  0
  -14.2295  -23.6592    1.4007 C   0  0  0  0  0  0  0  0  0  0  0  0
  -14.9898  -24.3015    0.2525 C   0  0  1  0  0  0  0  0  0  0  0  0
  -15.4005  -23.2296   -0.7739 C   0  0  0  0  0  0  0  0  0  0  0  0
  -14.2862  -26.8753    0.3253 H   0  0  0  0  0  0  0  0  0  0  0  0
  -14.8582  -30.6366   -4.0208 C   0  0  1  0  0  0  0  0  0  0  0  0
  -15.4951  -29.6920   -5.0605 C   0  0  0  0  0  0  0  0  0  0  0  0
  -14.5361  -30.2396   -6.1329 C   0  0  0  0  0  0  0  0  0  0  0  0
  -13.6690  -30.8855   -5.0171 C   0  0  1  0  0  0  0  0  0  0  0  0
  -12.4797  -30.1380   -4.7093 C   0  0  0  0  0  0  0  0  0  0  0  0
  -11.5355  -29.5071   -4.4867 N   0  0  0  0  0  0  0  0  0  0  0  0
  -13.7155  -33.1418   -1.1524 H   0  0  0  0  0  0  0  0  0  0  0  0
  -13.4160  -32.7718   -2.8353 H   0  0  0  0  0  0  0  0  0  0  0  0
  -15.0584  -33.0082   -2.2694 H   0  0  0  0  0  0  0  0  0  0  0  0
  -13.7234  -31.4183    0.4062 H   0  0  0  0  0  0  0  0  0  0  0  0
  -13.7886  -29.0461    0.9775 H   0  0  0  0  0  0  0  0  0  0  0  0
  -14.7543  -28.0894   -3.0517 H   0  0  0  0  0  0  0  0  0  0  0  0
  -13.8612  -23.4798   -2.4293 H   0  0  0  0  0  0  0  0  0  0  0  0
  -13.2197  -21.5536   -0.7408 H   0  0  0  0  0  0  0  0  0  0  0  0
  -11.9795  -22.7530   -1.0405 H   0  0  0  0  0  0  0  0  0  0  0  0
  -12.8336  -22.0354    1.4565 H   0  0  0  0  0  0  0  0  0  0  0  0
  -11.8205  -24.8047    0.7951 H   0  0  0  0  0  0  0  0  0  0  0  0
  -11.6085  -23.9303    2.3122 H   0  0  0  0  0  0  0  0  0  0  0  0
  -10.7989  -23.3795    0.8582 H   0  0  0  0  0  0  0  0  0  0  0  0
  -14.8781  -22.9417    1.9041 H   0  0  0  0  0  0  0  0  0  0  0  0
  -13.9692  -24.4180    2.1357 H   0  0  0  0  0  0  0  0  0  0  0  0
  -15.7431  -25.0250    0.5627 H   0  0  0  0  0  0  0  0  0  0  0  0
  -15.6211  -22.2363   -0.3852 H   0  0  0  0  0  0  0  0  0  0  0  0
  -16.1890  -23.5625   -1.4435 H   0  0  0  0  0  0  0  0  0  0  0  0
  -15.4286  -31.5643   -3.9778 H   0  0  0  0  0  0  0  0  0  0  0  0
  -15.3166  -28.6412   -4.8566 H   0  0  0  0  0  0  0  0  0  0  0  0
  -16.5601  -29.8280   -5.2364 H   0  0  0  0  0  0  0  0  0  0  0  0
  -14.0425  -29.5057   -6.7652 H   0  0  0  0  0  0  0  0  0  0  0  0
  -14.9848  -31.0030   -6.7648 H   0  0  0  0  0  0  0  0  0  0  0  0
  -13.4179  -31.9347   -5.1579 H   0  0  0  0  0  0  0  0  0  0  0  0
  1  2  1  0
  1 26  1  0
  1 27  1  0
  1 28  1  0
  2  3  2  0
  3  4  1  0
  3 29  1  0
  4  5  2  0
  4 30  1  0
  5  8  1  0
  5  6  1  0
  6  7  2  0
  6 31  1  0
  7 20  1  0
  7  2  1  0
  8  9  1  0
  8 19  1  0
  9 10  2  0
  9 11  1  0
 11 12  1  0
 12 13  1  0
 12 32  1  6
 13 14  1  0
 13 33  1  0
 13 34  1  0
 14 15  1  0
 14 16  1  0
 14 35  1  1
 15 36  1  0
 15 37  1  0
 15 38  1  0
 16 17  1  0
 16 39  1  0
 16 40  1  0
 17 18  1  0
 17 11  1  0
 17 41  1  1
 18 12  1  0
 18 42  1  0
 18 43  1  0
 20 21  1  0
 20 44  1  1
 21 22  1  0
 21 45  1  0
 21 46  1  0
 22 23  1  0
 22 47  1  0
 22 48  1  0
 23 24  1  0
 23 20  1  0
 23 49  1  6
 24 25  3  0
M  END
>  <minimizedAffinity>  (2) 
-5.88213

>  <mol_id>  (2) 
12531

>  <source_index>  (2) 
1

>  <layer>  (2) 
L4

>  <uniprot>  (2) 
Q6SZW1

>  <paff>  (2) 
6

>  <smiles>  (2) 
Cc1ccc(NC(=O)N2C3CC(C)CC2C3)cc1C1CCC1C#N

>  <aimnet_interaction_kcal_mol>  (2) 
-29.202404222848529

$$$$
L4:Q6SZW1:20829
     RDKit          3D

 25 26  0  0  0  0  0  0  0  0999 V2000
  -13.1382  -24.1123    0.8738 C   0  0  0  0  0  0  0  0  0  0  0  0
  -11.9303  -23.9401    1.5473 C   0  0  0  0  0  0  0  0  0  0  0  0
  -10.7396  -23.8183    0.8385 C   0  0  0  0  0  0  0  0  0  0  0  0
   -9.5457  -23.6649    1.4676 O   0  0  0  0  0  0  0  0  0  0  0  0
  -10.7313  -23.8416   -0.5541 C   0  0  0  0  0  0  0  0  0  0  0  0
  -11.9320  -24.0661   -1.1959 C   0  0  0  0  0  0  0  0  0  0  0  0
  -11.9342  -24.1605   -2.9608 Cl  0  0  0  0  0  0  0  0  0  0  0  0
  -13.1293  -24.2238   -0.5188 C   0  0  0  0  0  0  0  0  0  0  0  0
   -9.6661  -23.7781    2.4210 H   0  0  0  0  0  0  0  0  0  0  0  0
  -15.2237  -26.3038    0.6262 C   0  0  0  0  0  0  0  0  0  0  0  0
  -15.4098  -25.0654    1.4402 C   0  0  0  0  0  0  0  0  0  0  0  0
  -16.6164  -24.8452    2.0964 C   0  0  0  0  0  0  0  0  0  0  0  0
  -16.7966  -23.7118    2.8675 C   0  0  0  0  0  0  0  0  0  0  0  0
  -15.8409  -22.7972    3.0631 N   0  0  0  0  0  0  0  0  0  0  0  0
  -14.6701  -23.0309    2.4730 C   0  0  0  0  0  0  0  0  0  0  0  0
  -14.4113  -24.0966    1.6101 C   0  0  0  0  0  0  0  0  0  0  0  0
  -11.9094  -23.8624    2.6230 H   0  0  0  0  0  0  0  0  0  0  0  0
   -9.8111  -23.6936   -1.0946 H   0  0  0  0  0  0  0  0  0  0  0  0
  -14.0428  -24.3876   -1.0668 H   0  0  0  0  0  0  0  0  0  0  0  0
  -15.6577  -27.1555    1.1450 H   0  0  0  0  0  0  0  0  0  0  0  0
  -14.1773  -26.5125    0.4332 H   0  0  0  0  0  0  0  0  0  0  0  0
  -15.7223  -26.2209   -0.3411 H   0  0  0  0  0  0  0  0  0  0  0  0
  -17.4204  -25.5668    2.0103 H   0  0  0  0  0  0  0  0  0  0  0  0
  -17.7454  -23.5319    3.3591 H   0  0  0  0  0  0  0  0  0  0  0  0
  -13.8713  -22.3295    2.6751 H   0  0  0  0  0  0  0  0  0  0  0  0
  1  2  2  0
  2  3  1  0
  2 17  1  0
  3  4  1  0
  3  5  2  0
  4  9  1  0
  5  6  1  0
  5 18  1  0
  6  7  1  0
  6  8  2  0
  8  1  1  0
  8 19  1  0
 10 11  1  0
 10 20  1  0
 10 21  1  0
 10 22  1  0
 11 12  2  0
 12 13  1  0
 12 23  1  0
 13 14  2  0
 13 24  1  0
 14 15  1  0
 15 16  2  0
 15 25  1  0
 16  1  1  0
 16 11  1  0
M  END
>  <minimizedAffinity>  (3) 
-4.73201

>  <mol_id>  (3) 
20829

>  <source_index>  (3) 
2

>  <layer>  (3) 
L4

>  <uniprot>  (3) 
Q6SZW1

>  <paff>  (3) 
10

>  <smiles>  (3) 
Cc1ccncc1-c1cc(O)cc(Cl)c1

>  <aimnet_interaction_kcal_mol>  (3) 
-20.190523534064599

$$$$
L4:Q6SZW1:22712
     RDKit          3D

 42 45  0  0  0  0  0  0  0  0999 V2000
    1.1907  -25.1743    1.9544 O   0  0  0  0  0  0  0  0  0  0  0  0
    0.5407  -26.1807    1.6327 C   0  0  0  0  0  0  0  0  0  0  0  0
   -0.0944  -26.9746    2.5215 N   0  0  0  0  0  0  0  0  0  0  0  0
    0.1047  -26.7981    3.9638 C   0  0  0  0  0  0  0  0  0  0  0  0
   -0.9757  -27.6797    4.5605 C   0  0  1  0  0  0  0  0  0  0  0  0
   -1.3896  -27.2379    5.8381 O   0  0  0  0  0  0  0  0  0  0  0  0
   -2.0879  -27.6533    3.5170 C   0  0  1  0  0  0  0  0  0  0  0  0
   -1.2899  -27.7804    2.2317 C   0  0  0  0  0  0  0  0  0  0  0  0
   -2.0656  -27.8656    6.1225 H   0  0  0  0  0  0  0  0  0  0  0  0
   -3.2298  -28.5650    3.8266 C   0  0  0  0  0  0  0  0  0  0  0  0
   -3.3176  -29.8660    3.3452 C   0  0  0  0  0  0  0  0  0  0  0  0
   -4.3492  -30.7026    3.7391 C   0  0  0  0  0  0  0  0  0  0  0  0
   -5.3421  -30.2108    4.5605 C   0  0  0  0  0  0  0  0  0  0  0  0
   -6.6733  -31.2386    5.0370 Cl  0  0  0  0  0  0  0  0  0  0  0  0
   -5.3064  -28.9104    5.0208 C   0  0  0  0  0  0  0  0  0  0  0  0
   -4.2383  -28.1042    4.6736 C   0  0  0  0  0  0  0  0  0  0  0  0
    0.4491  -26.5739    0.2193 C   0  0  0  0  0  0  0  0  0  0  0  0
    0.1252  -27.7135   -0.4938 C   0  0  0  0  0  0  0  0  0  0  0  0
    0.3275  -27.3824   -1.8482 C   0  0  0  0  0  0  0  0  0  0  0  0
    0.7661  -26.1098   -1.9651 N   0  0  0  0  0  0  0  0  0  0  0  0
    0.8268  -25.6626   -0.7173 N   0  0  0  0  0  0  0  0  0  0  0  0
    1.1262  -24.7231   -0.5157 H   0  0  0  0  0  0  0  0  0  0  0  0
    0.1102  -28.2035   -3.0228 C   0  0  0  0  0  0  0  0  0  0  0  0
   -0.3470  -29.5134   -2.9570 C   0  0  0  0  0  0  0  0  0  0  0  0
   -0.5482  -30.1916   -4.1466 C   0  0  0  0  0  0  0  0  0  0  0  0
   -0.3318  -29.6700   -5.3563 N   0  0  0  0  0  0  0  0  0  0  0  0
    0.1110  -28.4113   -5.4320 N   0  0  0  0  0  0  0  0  0  0  0  0
    0.3250  -27.7127   -4.3186 C   0  0  0  0  0  0  0  0  0  0  0  0
   -0.0177  -25.7587    4.2587 H   0  0  0  0  0  0  0  0  0  0  0  0
    1.1079  -27.1086    4.2569 H   0  0  0  0  0  0  0  0  0  0  0  0
   -0.5845  -28.6966    4.6235 H   0  0  0  0  0  0  0  0  0  0  0  0
   -2.4955  -26.6443    3.5134 H   0  0  0  0  0  0  0  0  0  0  0  0
   -1.8244  -27.4050    1.3669 H   0  0  0  0  0  0  0  0  0  0  0  0
   -0.9954  -28.8095    2.0350 H   0  0  0  0  0  0  0  0  0  0  0  0
   -2.5884  -30.2378    2.6442 H   0  0  0  0  0  0  0  0  0  0  0  0
   -4.3669  -31.7328    3.4246 H   0  0  0  0  0  0  0  0  0  0  0  0
   -6.1171  -28.5274    5.6165 H   0  0  0  0  0  0  0  0  0  0  0  0
   -4.2327  -27.0807    5.0200 H   0  0  0  0  0  0  0  0  0  0  0  0
   -0.2256  -28.6469   -0.1015 H   0  0  0  0  0  0  0  0  0  0  0  0
   -0.5633  -30.0032   -2.0172 H   0  0  0  0  0  0  0  0  0  0  0  0
   -0.9091  -31.2145   -4.1445 H   0  0  0  0  0  0  0  0  0  0  0  0
    0.6858  -26.7044   -4.4723 H   0  0  0  0  0  0  0  0  0  0  0  0
  1  2  2  0
  2 17  1  0
  2  3  1  0
  3  4  1  0
  4  5  1  0
  4 29  1  0
  4 30  1  0
  5  6  1  0
  5  7  1  0
  5 31  1  1
  6  9  1  0
  7 10  1  0
  7  8  1  0
  7 32  1  6
  8  3  1  0
  8 33  1  0
  8 34  1  0
 10 11  2  0
 11 12  1  0
 11 35  1  0
 12 13  2  0
 12 36  1  0
 13 14  1  0
 13 15  1  0
 15 16  2  0
 15 37  1  0
 16 10  1  0
 16 38  1  0
 17 18  2  0
 18 19  1  0
 18 39  1  0
 19 23  1  0
 19 20  2  0
 20 21  1  0
 21 17  1  0
 21 22  1  0
 23 24  2  0
 24 25  1  0
 24 40  1  0
 25 26  2  0
 25 41  1  0
 26 27  1  0
 27 28  2  0
 28 23  1  0
 28 42  1  0
M  END
>  <minimizedAffinity>  (4) 
-6.97251

>  <mol_id>  (4) 
22712

>  <source_index>  (4) 
3

>  <layer>  (4) 
L4

>  <uniprot>  (4) 
Q6SZW1

>  <paff>  (4) 
6.4546999999999999

>  <smiles>  (4) 
ClC1=CC=C(C=C1)[C@@H]1CN(C[C@H]1O)C(=O)C1=CC(=NN1)C1=CN=NC=C1

>  <aimnet_interaction_kcal_mol>  (4) 
-42.393528539297122

$$$$
L4:Q6SZW1:37606
     RDKit          3D

 41 44  0  0  0  0  0  0  0  0999 V2000
   -0.5744  -25.8429    2.8918 O   0  0  0  0  0  0  0  0  0  0  0  0
   -0.9581  -27.0068    2.7000 C   0  0  0  0  0  0  0  0  0  0  0  0
   -1.6647  -27.7510    3.5895 N   0  0  0  0  0  0  0  0  0  0  0  0
   -1.7765  -27.3120    4.9808 C   0  0  0  0  0  0  0  0  0  0  0  0
   -3.2400  -27.5328    5.3340 C   0  0  0  0  0  0  0  0  0  0  0  0
   -3.6201  -28.7472    4.5032 C   0  0  2  0  0  0  0  0  0  0  0  0
   -2.8452  -28.5432    3.2067 C   0  0  0  0  0  0  0  0  0  0  0  0
   -0.6535  -27.6550    1.4144 C   0  0  0  0  0  0  0  0  0  0  0  0
   -0.3549  -26.8568    0.3463 N   0  0  0  0  0  0  0  0  0  0  0  0
   -0.1601  -27.5165   -0.7873 N   0  0  0  0  0  0  0  0  0  0  0  0
   -0.3110  -28.8248   -0.4711 C   0  0  0  0  0  0  0  0  0  0  0  0
   -0.5503  -28.9382    0.9060 C   0  0  0  0  0  0  0  0  0  0  0  0
   -0.6531  -30.0793    1.5881 F   0  0  0  0  0  0  0  0  0  0  0  0
   -0.4728  -25.8563    0.3269 H   0  0  0  0  0  0  0  0  0  0  0  0
   -0.4046  -29.8234   -1.5175 C   0  0  0  0  0  0  0  0  0  0  0  0
   -1.1260  -31.0003   -1.3686 C   0  0  0  0  0  0  0  0  0  0  0  0
   -1.2244  -31.8339   -2.4708 C   0  0  0  0  0  0  0  0  0  0  0  0
   -0.6664  -31.5833   -3.6576 N   0  0  0  0  0  0  0  0  0  0  0  0
    0.0380  -30.4583   -3.8017 N   0  0  0  0  0  0  0  0  0  0  0  0
    0.1629  -29.6165   -2.7799 C   0  0  0  0  0  0  0  0  0  0  0  0
   -5.0826  -29.0210    4.3789 C   0  0  0  0  0  0  0  0  0  0  0  0
   -5.6367  -30.0083    5.1916 C   0  0  0  0  0  0  0  0  0  0  0  0
   -6.8816  -30.5538    4.9305 C   0  0  0  0  0  0  0  0  0  0  0  0
   -7.6247  -30.0167    3.8956 C   0  0  0  0  0  0  0  0  0  0  0  0
   -9.1142  -30.8099    3.4036 Cl  0  0  0  0  0  0  0  0  0  0  0  0
   -7.1835  -28.9072    3.1991 C   0  0  0  0  0  0  0  0  0  0  0  0
   -5.9132  -28.4037    3.4485 C   0  0  0  0  0  0  0  0  0  0  0  0
   -1.4323  -26.2869    5.0548 H   0  0  0  0  0  0  0  0  0  0  0  0
   -1.1182  -27.9028    5.6165 H   0  0  0  0  0  0  0  0  0  0  0  0
   -3.8463  -26.7037    4.9842 H   0  0  0  0  0  0  0  0  0  0  0  0
   -3.4056  -27.6769    6.4014 H   0  0  0  0  0  0  0  0  0  0  0  0
   -3.1779  -29.6145    4.9760 H   0  0  0  0  0  0  0  0  0  0  0  0
   -3.4215  -27.9915    2.4751 H   0  0  0  0  0  0  0  0  0  0  0  0
   -2.5626  -29.4797    2.7546 H   0  0  0  0  0  0  0  0  0  0  0  0
   -1.6222  -31.2539   -0.4424 H   0  0  0  0  0  0  0  0  0  0  0  0
   -1.7833  -32.7619   -2.4145 H   0  0  0  0  0  0  0  0  0  0  0  0
    0.7517  -28.7321   -2.9867 H   0  0  0  0  0  0  0  0  0  0  0  0
   -5.0724  -30.3915    6.0270 H   0  0  0  0  0  0  0  0  0  0  0  0
   -7.2487  -31.3773    5.5194 H   0  0  0  0  0  0  0  0  0  0  0  0
   -7.8141  -28.4402    2.4623 H   0  0  0  0  0  0  0  0  0  0  0  0
   -5.5729  -27.5493    2.8832 H   0  0  0  0  0  0  0  0  0  0  0  0
  1  2  2  0
  2  8  1  0
  2  3  1  0
  3  4  1  0
  4  5  1  0
  4 28  1  0
  4 29  1  0
  5  6  1  0
  5 30  1  0
  5 31  1  0
  6 21  1  0
  6  7  1  0
  6 32  1  1
  7  3  1  0
  7 33  1  0
  7 34  1  0
  8  9  1  0
  9 10  1  0
  9 14  1  0
 10 11  2  0
 11 15  1  0
 11 12  1  0
 12 13  1  0
 12  8  2  0
 15 16  2  0
 16 17  1  0
 16 35  1  0
 17 18  2  0
 17 36  1  0
 18 19  1  0
 19 20  2  0
 20 15  1  0
 20 37  1  0
 21 22  2  0
 22 23  1  0
 22 38  1  0
 23 24  2  0
 23 39  1  0
 24 25  1  0
 24 26  1  0
 26 27  2  0
 26 40  1  0
 27 21  1  0
 27 41  1  0
M  END
>  <minimizedAffinity>  (5) 
-6.79244

>  <mol_id>  (5) 
37606

>  <source_index>  (5) 
4

>  <layer>  (5) 
L4

>  <uniprot>  (5) 
Q6SZW1

>  <paff>  (5) 
6.3079999999999998

>  <smiles>  (5) 
ClC1=CC=C(C=C1)[C@H]1CN(CC1)C(=O)C1=C(C(=NN1)C1=CN=NC=C1)F

>  <aimnet_interaction_kcal_mol>  (5) 
-46.48098849751802

$$$$
L4:Q6SZW1:80793
     RDKit          3D

 44 47  0  0  0  0  0  0  0  0999 V2000
   -1.7296  -33.9785   12.5883 C   0  0  0  0  0  0  0  0  0  0  0  0
   -1.6160  -34.4318   13.7388 O   0  0  0  0  0  0  0  0  0  0  0  0
   -1.7033  -34.7263   11.4549 N   0  0  0  0  0  0  0  0  0  0  0  0
   -1.2857  -36.1301   11.5129 C   0  0  0  0  0  0  0  0  0  0  0  0
   -2.4482  -36.8724   10.8924 C   0  0  0  0  0  0  0  0  0  0  0  0
   -2.8999  -35.9397    9.7605 C   0  0  1  0  0  0  0  0  0  0  0  0
   -2.6702  -34.5376   10.3531 C   0  0  0  0  0  0  0  0  0  0  0  0
   -0.7269  -31.7301   10.2584 C   0  0  0  0  0  0  0  0  0  0  0  0
   -1.4489  -31.5467   11.5366 C   0  0  0  0  0  0  0  0  0  0  0  0
   -1.7217  -30.3205   12.1828 C   0  0  0  0  0  0  0  0  0  0  0  0
   -2.2895  -30.5089   13.3938 N   0  0  0  0  0  0  0  0  0  0  0  0
   -2.3783  -31.8463   13.5018 N   0  0  0  0  0  0  0  0  0  0  0  0
   -1.8833  -32.5210   12.4307 C   0  0  0  0  0  0  0  0  0  0  0  0
   -2.6288  -32.2847   14.3691 H   0  0  0  0  0  0  0  0  0  0  0  0
   -1.3389  -28.9777   11.7487 C   0  0  0  0  0  0  0  0  0  0  0  0
   -2.0374  -28.2435   10.8049 C   0  0  0  0  0  0  0  0  0  0  0  0
   -1.5845  -26.9623   10.5091 C   0  0  0  0  0  0  0  0  0  0  0  0
   -0.5051  -26.4055   11.0693 N   0  0  0  0  0  0  0  0  0  0  0  0
    0.1910  -27.1092   11.9697 N   0  0  0  0  0  0  0  0  0  0  0  0
   -0.2142  -28.3385   12.2929 C   0  0  0  0  0  0  0  0  0  0  0  0
   -2.1893  -36.2186    8.4572 C   0  0  0  0  0  0  0  0  0  0  0  0
   -2.6883  -37.2172    7.6211 C   0  0  0  0  0  0  0  0  0  0  0  0
   -2.1755  -37.4346    6.3502 C   0  0  0  0  0  0  0  0  0  0  0  0
   -1.0937  -36.6744    5.9398 C   0  0  0  0  0  0  0  0  0  0  0  0
   -0.4225  -36.9041    4.3372 Cl  0  0  0  0  0  0  0  0  0  0  0  0
   -0.5337  -35.7203    6.7726 C   0  0  0  0  0  0  0  0  0  0  0  0
   -1.0671  -35.5151    8.0353 C   0  0  0  0  0  0  0  0  0  0  0  0
   -1.0717  -36.4161   12.5361 H   0  0  0  0  0  0  0  0  0  0  0  0
   -0.3786  -36.2591   10.9182 H   0  0  0  0  0  0  0  0  0  0  0  0
   -3.2523  -36.9824   11.6205 H   0  0  0  0  0  0  0  0  0  0  0  0
   -2.1736  -37.8590   10.5269 H   0  0  0  0  0  0  0  0  0  0  0  0
   -3.9662  -36.0742    9.5859 H   0  0  0  0  0  0  0  0  0  0  0  0
   -3.5976  -34.1412   10.7585 H   0  0  0  0  0  0  0  0  0  0  0  0
   -2.3141  -33.8310    9.6192 H   0  0  0  0  0  0  0  0  0  0  0  0
   -0.0719  -30.8855   10.0609 H   0  0  0  0  0  0  0  0  0  0  0  0
   -1.4124  -31.8178    9.4213 H   0  0  0  0  0  0  0  0  0  0  0  0
   -0.1176  -32.6307   10.2791 H   0  0  0  0  0  0  0  0  0  0  0  0
   -2.9205  -28.6393   10.3241 H   0  0  0  0  0  0  0  0  0  0  0  0
   -2.1119  -26.3382    9.7908 H   0  0  0  0  0  0  0  0  0  0  0  0
    0.3964  -28.8421   13.0345 H   0  0  0  0  0  0  0  0  0  0  0  0
   -3.5059  -37.8428    7.9543 H   0  0  0  0  0  0  0  0  0  0  0  0
   -2.6398  -38.1474    5.6828 H   0  0  0  0  0  0  0  0  0  0  0  0
    0.3096  -35.1356    6.4350 H   0  0  0  0  0  0  0  0  0  0  0  0
   -0.5847  -34.7920    8.6802 H   0  0  0  0  0  0  0  0  0  0  0  0
  1  2  2  0
  1  3  1  0
  3  4  1  0
  4  5  1  0
  4 28  1  0
  4 29  1  0
  5  6  1  0
  5 30  1  0
  5 31  1  0
  6 21  1  0
  6  7  1  0
  6 32  1  6
  7  3  1  0
  7 33  1  0
  7 34  1  0
  8  9  1  0
  8 35  1  0
  8 36  1  0
  8 37  1  0
  9 10  1  0
 10 15  1  0
 10 11  2  0
 11 12  1  0
 12 13  1  0
 12 14  1  0
 13  1  1  0
 13  9  2  0
 15 16  2  0
 16 17  1  0
 16 38  1  0
 17 18  2  0
 17 39  1  0
 18 19  1  0
 19 20  2  0
 20 15  1  0
 20 40  1  0
 21 22  2  0
 22 23  1  0
 22 41  1  0
 23 24  2  0
 23 42  1  0
 24 25  1  0
 24 26  1  0
 26 27  2  0
 26 43  1  0
 27 21  1  0
 27 44  1  0
M  END
>  <minimizedAffinity>  (6) 
-5.94457

>  <mol_id>  (6) 
80793

>  <source_index>  (6) 
5

>  <layer>  (6) 
L4

>  <uniprot>  (6) 
Q6SZW1

>  <paff>  (6) 
6.3696000000000002

>  <smiles>  (6) 
ClC1=CC=C(C=C1)C1CN(CC1)C(=O)C1=C(C(=NN1)C1=CN=NC=C1)C

>  <aimnet_interaction_kcal_mol>  (6) 
-44.02996660475592

$$$$
L4:Q6SZW1:94916
     RDKit          3D

 46 49  0  0  0  0  0  0  0  0999 V2000
  -11.0818  -26.8741   -3.8646 N   0  0  0  0  0  0  0  0  0  0  0  0
  -11.6717  -27.5098   -4.9385 C   0  0  0  0  0  0  0  0  0  0  0  0
  -11.8134  -27.0147   -6.0565 O   0  0  0  0  0  0  0  0  0  0  0  0
  -12.0284  -28.8297   -4.6692 N   0  0  0  0  0  0  0  0  0  0  0  0
  -12.7405  -29.3362   -3.4533 C   0  0  2  0  0  0  0  0  0  0  0  0
  -13.2543  -30.4936   -4.3198 C   0  0  0  0  0  0  0  0  0  0  0  0
  -13.0670  -29.5208   -5.4957 C   0  0  1  0  0  0  0  0  0  0  0  0
  -14.3188  -28.6666   -5.6374 C   0  0  0  0  0  0  0  0  0  0  0  0
  -14.6592  -27.9179   -4.3165 C   0  0  2  0  0  0  0  0  0  0  0  0
  -13.8689  -28.3985   -3.0610 C   0  0  0  0  0  0  0  0  0  0  0  0
  -10.6695  -27.4629   -3.1547 H   0  0  0  0  0  0  0  0  0  0  0  0
  -10.9922  -23.6435   -2.0729 C   0  0  0  0  0  0  0  0  0  0  0  0
  -11.0210  -25.0088   -2.3535 C   0  0  0  0  0  0  0  0  0  0  0  0
  -10.9376  -25.5005   -3.6580 C   0  0  0  0  0  0  0  0  0  0  0  0
  -10.7036  -24.6048   -4.7001 C   0  0  0  0  0  0  0  0  0  0  0  0
  -10.6621  -23.2499   -4.4422 C   0  0  0  0  0  0  0  0  0  0  0  0
  -10.8477  -22.7721   -3.1545 C   0  0  0  0  0  0  0  0  0  0  0  0
  -10.8689  -21.0246   -2.9361 Cl  0  0  0  0  0  0  0  0  0  0  0  0
  -12.3356  -23.5569    0.2189 C   0  0  1  0  0  0  0  0  0  0  0  0
  -11.3555  -23.9846    1.3535 C   0  0  0  0  0  0  0  0  0  0  0  0
  -10.1573  -23.7395    0.4214 C   0  0  0  0  0  0  0  0  0  0  0  0
  -11.0938  -23.1529   -0.6656 C   0  0  1  0  0  0  0  0  0  0  0  0
  -13.8194  -25.5107   -0.6233 N   0  0  0  0  0  0  0  0  0  0  0  0
  -13.1724  -24.6183   -0.2667 C   0  0  0  0  0  0  0  0  0  0  0  0
  -16.1522  -27.9270   -4.0641 C   0  0  0  0  0  0  0  0  0  0  0  0
  -16.8419  -27.4100   -5.1173 F   0  0  0  0  0  0  0  0  0  0  0  0
  -16.4899  -27.1930   -2.9829 F   0  0  0  0  0  0  0  0  0  0  0  0
  -16.6466  -29.1772   -3.8617 F   0  0  0  0  0  0  0  0  0  0  0  0
  -12.0959  -29.5932   -2.6188 H   0  0  0  0  0  0  0  0  0  0  0  0
  -14.2704  -30.8278   -4.1266 H   0  0  0  0  0  0  0  0  0  0  0  0
  -12.5830  -31.3483   -4.3525 H   0  0  0  0  0  0  0  0  0  0  0  0
  -12.7076  -29.8969   -6.4523 H   0  0  0  0  0  0  0  0  0  0  0  0
  -15.1443  -29.3136   -5.9330 H   0  0  0  0  0  0  0  0  0  0  0  0
  -14.1863  -27.9399   -6.4299 H   0  0  0  0  0  0  0  0  0  0  0  0
  -14.4310  -26.8613   -4.4635 H   0  0  0  0  0  0  0  0  0  0  0  0
  -14.5276  -28.9097   -2.3608 H   0  0  0  0  0  0  0  0  0  0  0  0
  -13.4733  -27.5335   -2.5338 H   0  0  0  0  0  0  0  0  0  0  0  0
  -11.1544  -25.7132   -1.5446 H   0  0  0  0  0  0  0  0  0  0  0  0
  -10.5749  -24.9697   -5.7047 H   0  0  0  0  0  0  0  0  0  0  0  0
  -10.4982  -22.5569   -5.2530 H   0  0  0  0  0  0  0  0  0  0  0  0
  -12.9659  -22.7017    0.4692 H   0  0  0  0  0  0  0  0  0  0  0  0
  -11.4779  -25.0026    1.6978 H   0  0  0  0  0  0  0  0  0  0  0  0
  -11.4059  -23.3216    2.2132 H   0  0  0  0  0  0  0  0  0  0  0  0
   -9.6473  -24.6371    0.1007 H   0  0  0  0  0  0  0  0  0  0  0  0
   -9.4073  -23.0638    0.8079 H   0  0  0  0  0  0  0  0  0  0  0  0
  -11.0292  -22.0727   -0.6666 H   0  0  0  0  0  0  0  0  0  0  0  0
  1  2  1  0
  1 11  1  0
  2  3  2  0
  2  4  1  0
  4  5  1  0
  5  6  1  0
  5 29  1  1
  6  7  1  0
  6 30  1  0
  6 31  1  0
  7  8  1  0
  7  4  1  0
  7 32  1  6
  8  9  1  0
  8 33  1  0
  8 34  1  0
  9 25  1  0
  9 10  1  0
  9 35  1  6
 10  5  1  0
 10 36  1  0
 10 37  1  0
 12 13  2  0
 13 14  1  0
 13 38  1  0
 14  1  1  0
 14 15  2  0
 15 16  1  0
 15 39  1  0
 16 17  2  0
 16 40  1  0
 17 18  1  0
 17 12  1  0
 19 20  1  0
 19 41  1  1
 20 21  1  0
 20 42  1  0
 20 43  1  0
 21 22  1  0
 21 44  1  0
 21 45  1  0
 22 12  1  0
 22 19  1  0
 22 46  1  6
 23 24  3  0
 24 19  1  0
 25 26  1  0
 25 27  1  0
 25 28  1  0
M  END
>  <minimizedAffinity>  (7) 
-6.21242

>  <mol_id>  (7) 
94916

>  <source_index>  (7) 
6

>  <layer>  (7) 
L4

>  <uniprot>  (7) 
Q6SZW1

>  <paff>  (7) 
6

>  <smiles>  (7) 
N#C[C@H]1CC[C@H]1c1cc(NC(=O)N2C3CC2CC(C(F)(F)F)C3)ccc1Cl

>  <aimnet_interaction_kcal_mol>  (7) 
-31.256249573353479

$$$$
L4:Q6SZW1:121886
     RDKit          3D

 28 30  0  0  0  0  0  0  0  0999 V2000
   -2.2935  -31.1247   11.4215 C   0  0  0  0  0  0  0  0  0  0  0  0
   -2.5962  -32.1731   10.5482 C   0  0  0  0  0  0  0  0  0  0  0  0
   -3.4768  -33.1889   10.8970 C   0  0  0  0  0  0  0  0  0  0  0  0
   -3.9161  -33.2072   12.2065 C   0  0  0  0  0  0  0  0  0  0  0  0
   -4.8242  -33.9967   12.8909 N   0  0  0  0  0  0  0  0  0  0  0  0
   -4.8325  -33.6674   14.2204 C   0  0  0  0  0  0  0  0  0  0  0  0
   -5.4366  -34.1276   15.1592 O   0  0  0  0  0  0  0  0  0  0  0  0
   -3.9178  -32.6095   14.3806 O   0  0  0  0  0  0  0  0  0  0  0  0
   -3.3968  -32.3136   13.1404 C   0  0  0  0  0  0  0  0  0  0  0  0
   -2.5821  -31.2685   12.7919 C   0  0  0  0  0  0  0  0  0  0  0  0
   -5.5242  -34.5702   12.4329 H   0  0  0  0  0  0  0  0  0  0  0  0
    0.3614  -30.6264   10.0637 C   0  0  0  0  0  0  0  0  0  0  0  0
   -0.7016  -29.5814   10.1672 C   0  0  0  0  0  0  0  0  0  0  0  0
   -0.5543  -28.3762    9.5497 C   0  0  0  0  0  0  0  0  0  0  0  0
   -1.5287  -27.4260    9.5802 N   0  0  0  0  0  0  0  0  0  0  0  0
   -2.7363  -27.5624   10.2810 C   0  0  0  0  0  0  0  0  0  0  0  0
   -3.5791  -26.6638   10.2523 O   0  0  0  0  0  0  0  0  0  0  0  0
   -2.8458  -28.8008   10.9770 C   0  0  0  0  0  0  0  0  0  0  0  0
   -1.9229  -29.8164   10.8712 C   0  0  0  0  0  0  0  0  0  0  0  0
   -1.4114  -26.5553    9.0801 H   0  0  0  0  0  0  0  0  0  0  0  0
   -2.1845  -32.1555    9.5524 H   0  0  0  0  0  0  0  0  0  0  0  0
   -3.8171  -33.9092   10.1698 H   0  0  0  0  0  0  0  0  0  0  0  0
   -2.1903  -30.5736   13.5185 H   0  0  0  0  0  0  0  0  0  0  0  0
    1.3207  -30.1853    9.8010 H   0  0  0  0  0  0  0  0  0  0  0  0
    0.1176  -31.3713    9.3068 H   0  0  0  0  0  0  0  0  0  0  0  0
    0.4749  -31.1536   11.0068 H   0  0  0  0  0  0  0  0  0  0  0  0
    0.3322  -28.1296    8.9830 H   0  0  0  0  0  0  0  0  0  0  0  0
   -3.7384  -28.9674   11.5564 H   0  0  0  0  0  0  0  0  0  0  0  0
  1  2  2  0
  2  3  1  0
  2 21  1  0
  3  4  2  0
  3 22  1  0
  4  5  1  0
  5  6  1  0
  5 11  1  0
  6  7  2  0
  6  8  1  0
  8  9  1  0
  9 10  2  0
  9  4  1  0
 10  1  1  0
 10 23  1  0
 12 13  1  0
 12 24  1  0
 12 25  1  0
 12 26  1  0
 13 14  2  0
 14 15  1  0
 14 27  1  0
 15 16  1  0
 15 20  1  0
 16 17  2  0
 16 18  1  0
 18 19  2  0
 18 28  1  0
 19  1  1  0
 19 13  1  0
M  END
>  <minimizedAffinity>  (8) 
-5.20958

>  <mol_id>  (8) 
121886

>  <source_index>  (8) 
7

>  <layer>  (8) 
L4

>  <uniprot>  (8) 
Q6SZW1

>  <paff>  (8) 
7.2967000000000004

>  <smiles>  (8) 
Cc1c[nH]c(=O)cc1-c1ccc2[nH]c(=O)oc2c1

>  <aimnet_interaction_kcal_mol>  (8) 
-39.287485583898906

$$$$
L4:Q6SZW1:129162
     RDKit          3D

 29 31  0  0  0  0  0  0  0  0999 V2000
   -5.2106  -28.8769    4.4448 C   0  0  0  0  0  0  0  0  0  0  0  0
   -5.0878  -28.2424    5.6968 C   0  0  0  0  0  0  0  0  0  0  0  0
   -3.8858  -27.8066    6.2040 C   0  0  0  0  0  0  0  0  0  0  0  0
   -2.7986  -27.8191    5.3343 C   0  0  0  0  0  0  0  0  0  0  0  0
   -1.5685  -27.2072    5.3717 N   0  0  0  0  0  0  0  0  0  0  0  0
   -0.8021  -27.5699    4.2657 N   0  0  0  0  0  0  0  0  0  0  0  0
   -1.6023  -28.2770    3.4859 C   0  0  0  0  0  0  0  0  0  0  0  0
   -1.1955  -28.8302    2.2891 N   0  0  0  0  0  0  0  0  0  0  0  0
   -2.8858  -28.4724    4.0910 C   0  0  0  0  0  0  0  0  0  0  0  0
   -4.0664  -29.0792    3.6855 C   0  0  0  0  0  0  0  0  0  0  0  0
   -1.0343  -27.0237    6.2038 H   0  0  0  0  0  0  0  0  0  0  0  0
   -0.4060  -28.3533    1.8824 H   0  0  0  0  0  0  0  0  0  0  0  0
   -1.9490  -28.9581    1.6243 H   0  0  0  0  0  0  0  0  0  0  0  0
   -6.2395  -31.6018    4.9286 C   0  0  0  0  0  0  0  0  0  0  0  0
   -7.0656  -30.5654    4.2548 C   0  0  0  0  0  0  0  0  0  0  0  0
   -8.3673  -30.8339    3.8584 C   0  0  0  0  0  0  0  0  0  0  0  0
   -9.1290  -29.8515    3.2691 C   0  0  0  0  0  0  0  0  0  0  0  0
   -8.6539  -28.6345    2.9941 N   0  0  0  0  0  0  0  0  0  0  0  0
   -7.3767  -28.4005    3.2991 C   0  0  0  0  0  0  0  0  0  0  0  0
   -6.5561  -29.2895    3.9877 C   0  0  0  0  0  0  0  0  0  0  0  0
   -5.9964  -28.0355    6.2384 H   0  0  0  0  0  0  0  0  0  0  0  0
   -3.7858  -27.4515    7.2183 H   0  0  0  0  0  0  0  0  0  0  0  0
   -4.0865  -29.6884    2.7936 H   0  0  0  0  0  0  0  0  0  0  0  0
   -6.5993  -32.5939    4.6827 H   0  0  0  0  0  0  0  0  0  0  0  0
   -6.2514  -31.4919    6.0093 H   0  0  0  0  0  0  0  0  0  0  0  0
   -5.2041  -31.5496    4.6204 H   0  0  0  0  0  0  0  0  0  0  0  0
   -8.7992  -31.8112    3.9959 H   0  0  0  0  0  0  0  0  0  0  0  0
  -10.1634  -30.0456    3.0081 H   0  0  0  0  0  0  0  0  0  0  0  0
   -6.9872  -27.4543    2.9601 H   0  0  0  0  0  0  0  0  0  0  0  0
  1  2  2  0
  2  3  1  0
  2 21  1  0
  3  4  2  0
  3 22  1  0
  4  5  1  0
  5  6  1  0
  5 11  1  0
  6  7  2  0
  7  8  1  0
  7  9  1  0
  8 12  1  0
  8 13  1  0
  9 10  2  0
  9  4  1  0
 10  1  1  0
 10 23  1  0
 14 15  1  0
 14 24  1  0
 14 25  1  0
 14 26  1  0
 15 16  2  0
 16 17  1  0
 16 27  1  0
 17 18  2  0
 17 28  1  0
 18 19  1  0
 19 20  2  0
 19 29  1  0
 20  1  1  0
 20 15  1  0
M  END
>  <minimizedAffinity>  (9) 
-5.60635

>  <mol_id>  (9) 
129162

>  <source_index>  (9) 
8

>  <layer>  (9) 
L4

>  <uniprot>  (9) 
Q6SZW1

>  <paff>  (9) 
6.6818999999999997

>  <smiles>  (9) 
Cc1ccncc1-c1ccc2[nH]nc(N)c2c1

>  <aimnet_interaction_kcal_mol>  (9) 
-30.554700959813001

$$$$
L4:Q6SZW1:129698
     RDKit          3D

 48 51  0  0  0  0  0  0  0  0999 V2000
  -12.6331  -26.6073   -2.8211 C   0  0  0  0  0  0  0  0  0  0  0  0
  -11.5617  -26.1485   -3.5814 C   0  0  0  0  0  0  0  0  0  0  0  0
  -11.1409  -24.8403   -3.4152 C   0  0  0  0  0  0  0  0  0  0  0  0
  -11.7328  -24.0085   -2.4803 C   0  0  0  0  0  0  0  0  0  0  0  0
  -11.2918  -22.3008   -2.5148 Cl  0  0  0  0  0  0  0  0  0  0  0  0
  -12.7326  -24.4837   -1.6121 C   0  0  0  0  0  0  0  0  0  0  0  0
  -13.2179  -25.7727   -1.8694 C   0  0  0  0  0  0  0  0  0  0  0  0
  -15.2514  -32.9638   -1.2618 C   0  0  0  0  0  0  0  0  0  0  0  0
  -15.1789  -32.3236   -2.6358 C   0  0  1  0  0  0  0  0  0  0  0  0
  -15.6883  -30.8680   -2.5909 C   0  0  0  0  0  0  0  0  0  0  0  0
  -15.0269  -30.0325   -3.6723 C   0  0  2  0  0  0  0  0  0  0  0  0
  -14.7661  -30.8651   -4.9440 C   0  0  0  0  0  0  0  0  0  0  0  0
  -13.4799  -31.3070   -4.2135 C   0  0  2  0  0  0  0  0  0  0  0  0
  -13.7709  -32.4498   -3.2550 C   0  0  0  0  0  0  0  0  0  0  0  0
  -13.5497  -30.0573   -3.4169 N   0  0  0  0  0  0  0  0  0  0  0  0
  -12.7018  -28.9980   -3.6071 C   0  0  0  0  0  0  0  0  0  0  0  0
  -11.6274  -29.0700   -4.2080 O   0  0  0  0  0  0  0  0  0  0  0  0
  -13.1834  -27.8703   -2.9682 N   0  0  0  0  0  0  0  0  0  0  0  0
  -13.9572  -28.0587   -2.3523 H   0  0  0  0  0  0  0  0  0  0  0  0
  -13.2361  -23.7408   -0.5603 N   0  0  0  0  0  0  0  0  0  0  0  0
  -12.3455  -22.9573    0.3178 C   0  0  0  0  0  0  0  0  0  0  0  0
  -12.9720  -23.0673    1.6977 C   0  0  0  0  0  0  0  0  0  0  0  0
  -14.4376  -23.2912    1.3895 C   0  0  2  0  0  0  0  0  0  0  0  0
  -15.1107  -23.8390    2.5107 O   0  0  0  0  0  0  0  0  0  0  0  0
  -14.3721  -24.2313    0.1995 C   0  0  0  0  0  0  0  0  0  0  0  0
  -16.0590  -23.8267    2.3386 H   0  0  0  0  0  0  0  0  0  0  0  0
  -11.0918  -26.7946   -4.2981 H   0  0  0  0  0  0  0  0  0  0  0  0
  -10.3481  -24.4487   -4.0336 H   0  0  0  0  0  0  0  0  0  0  0  0
  -14.0643  -26.1411   -1.3085 H   0  0  0  0  0  0  0  0  0  0  0  0
  -16.2486  -32.8730   -0.8319 H   0  0  0  0  0  0  0  0  0  0  0  0
  -14.5540  -32.4774   -0.5806 H   0  0  0  0  0  0  0  0  0  0  0  0
  -14.9966  -34.0201   -1.2931 H   0  0  0  0  0  0  0  0  0  0  0  0
  -15.8597  -32.8780   -3.2857 H   0  0  0  0  0  0  0  0  0  0  0  0
  -15.4778  -30.4330   -1.6122 H   0  0  0  0  0  0  0  0  0  0  0  0
  -16.7726  -30.8600   -2.7138 H   0  0  0  0  0  0  0  0  0  0  0  0
  -15.4639  -29.0410   -3.7961 H   0  0  0  0  0  0  0  0  0  0  0  0
  -14.5444  -30.2380   -5.8036 H   0  0  0  0  0  0  0  0  0  0  0  0
  -15.4968  -31.6217   -5.2203 H   0  0  0  0  0  0  0  0  0  0  0  0
  -12.5652  -31.4239   -4.7781 H   0  0  0  0  0  0  0  0  0  0  0  0
  -13.0112  -32.4653   -2.4735 H   0  0  0  0  0  0  0  0  0  0  0  0
  -13.6718  -33.3785   -3.8050 H   0  0  0  0  0  0  0  0  0  0  0  0
  -12.3119  -21.9235   -0.0197 H   0  0  0  0  0  0  0  0  0  0  0  0
  -11.3305  -23.3484    0.2806 H   0  0  0  0  0  0  0  0  0  0  0  0
  -12.8011  -22.2068    2.3341 H   0  0  0  0  0  0  0  0  0  0  0  0
  -12.5900  -23.9503    2.2083 H   0  0  0  0  0  0  0  0  0  0  0  0
  -14.9012  -22.3469    1.0783 H   0  0  0  0  0  0  0  0  0  0  0  0
  -15.2886  -24.2338   -0.3948 H   0  0  0  0  0  0  0  0  0  0  0  0
  -14.2084  -25.2469    0.5843 H   0  0  0  0  0  0  0  0  0  0  0  0
  1  2  2  0
  2  3  1  0
  2 27  1  0
  3  4  2  0
  3 28  1  0
  4  5  1  0
  4  6  1  0
  6 20  1  0
  6  7  2  0
  7  1  1  0
  7 29  1  0
  8  9  1  0
  8 30  1  0
  8 31  1  0
  8 32  1  0
  9 10  1  0
  9 33  1  6
 10 11  1  0
 10 34  1  0
 10 35  1  0
 11 12  1  0
 11 36  1  6
 12 13  1  0
 12 37  1  0
 12 38  1  0
 13 14  1  0
 13 15  1  0
 13 39  1  6
 14  9  1  0
 14 40  1  0
 14 41  1  0
 15 16  1  0
 15 11  1  0
 16 17  2  0
 16 18  1  0
 18  1  1  0
 18 19  1  0
 20 21  1  0
 21 22  1  0
 21 42  1  0
 21 43  1  0
 22 23  1  0
 22 44  1  0
 22 45  1  0
 23 24  1  0
 23 25  1  0
 23 46  1  6
 24 26  1  0
 25 20  1  0
 25 47  1  0
 25 48  1  0
M  END
>  <minimizedAffinity>  (10) 
-5.83494

>  <mol_id>  (10) 
129698

>  <source_index>  (10) 
9

>  <layer>  (10) 
L4

>  <uniprot>  (10) 
Q6SZW1

>  <paff>  (10) 
6

>  <smiles>  (10) 
CC1CC2CC(C1)N2C(=O)Nc1ccc(Cl)c(N2CC[C@H](O)C2)c1

>  <aimnet_interaction_kcal_mol>  (10) 
-30.639417871992158

$$$$
