L4:Q6SZW1:5536
     RDKit          3D

 27 29  0  0  0  0  0  0  0  0999 V2000
   -5.8058  -28.9739    4.3877 C   0  0  0  0  0  0  0  0  0  0  0  0
   -5.6255  -28.4057    5.6779 C   0  0  0  0  0  0  0  0  0  0  0  0
   -4.3929  -27.8809    6.0835 C   0  0  0  0  0  0  0  0  0  0  0  0
   -3.3700  -27.9430    5.1702 C   0  0  0  0  0  0  0  0  0  0  0  0
   -2.0711  -27.5266    5.2567 N   0  0  0  0  0  0  0  0  0  0  0  0
   -1.4780  -27.8284    4.0581 C   0  0  0  0  0  0  0  0  0  0  0  0
    0.0894  -27.5399    3.6281 S   0  0  0  0  0  0  0  0  0  0  0  0
   -2.3498  -28.4402    3.1627 O   0  0  0  0  0  0  0  0  0  0  0  0
   -3.5186  -28.4872    3.9101 C   0  0  0  0  0  0  0  0  0  0  0  0
   -4.7230  -29.0083    3.4894 C   0  0  0  0  0  0  0  0  0  0  0  0
   -1.6172  -27.0817    6.0394 H   0  0  0  0  0  0  0  0  0  0  0  0
   -6.5534  -31.8508    4.8349 C   0  0  0  0  0  0  0  0  0  0  0  0
   -7.4846  -30.8557    4.1987 C   0  0  0  0  0  0  0  0  0  0  0  0
   -8.7526  -31.2777    3.7760 C   0  0  0  0  0  0  0  0  0  0  0  0
   -9.6076  -30.3588    3.1885 C   0  0  0  0  0  0  0  0  0  0  0  0
   -9.2924  -29.0646    2.9896 N   0  0  0  0  0  0  0  0  0  0  0  0
   -8.0597  -28.6775    3.3936 C   0  0  0  0  0  0  0  0  0  0  0  0
   -7.1137  -29.5124    3.9964 C   0  0  0  0  0  0  0  0  0  0  0  0
   -6.4233  -28.3794    6.3320 H   0  0  0  0  0  0  0  0  0  0  0  0
   -4.2601  -27.4688    7.0203 H   0  0  0  0  0  0  0  0  0  0  0  0
   -4.8277  -29.4112    2.5451 H   0  0  0  0  0  0  0  0  0  0  0  0
   -7.0348  -32.8048    4.8906 H   0  0  0  0  0  0  0  0  0  0  0  0
   -6.2990  -31.5215    5.8207 H   0  0  0  0  0  0  0  0  0  0  0  0
   -5.6639  -31.9340    4.2460 H   0  0  0  0  0  0  0  0  0  0  0  0
   -9.0455  -32.2594    3.9006 H   0  0  0  0  0  0  0  0  0  0  0  0
  -10.5389  -30.6848    2.8862 H   0  0  0  0  0  0  0  0  0  0  0  0
   -7.7980  -27.6903    3.2453 H   0  0  0  0  0  0  0  0  0  0  0  0
  1  2  2  0
  2  3  1  0
  2 19  1  0
  3  4  2  0
  3 20  1  0
  4  5  1  0
  5  6  1  0
  5 11  1  0
  6  7  2  0
  6  8  1  0
  8  9  1  0
  9 10  2  0
  9  4  1  0
 10  1  1  0
 10 21  1  0
 12 13  1  0
 12 22  1  0
 12 23  1  0
 12 24  1  0
 13 14  2  0
 14 15  1  0
 14 25  1  0
 15 16  2  0
 15 26  1  0
 16 17  1  0
 17 18  2  0
 17 27  1  0
 18  1  1  0
 18 13  1  0
M  END
>  <minimizedAffinity>  (1) 
-5.55439

>  <mol_id>  (1) 
5536

>  <source_index>  (1) 
0

>  <layer>  (1) 
L4

>  <uniprot>  (1) 
Q6SZW1

>  <paff>  (1) 
10

>  <smiles>  (1) 
Cc1ccncc1-c1ccc2[nH]c(=S)oc2c1

$$$$
L4:Q6SZW1:12531
     RDKit          3D

 49 52  0  0  0  0  0  0  0  0999 V2000
  -13.3925  -32.3681   -0.9016 C   0  0  0  0  0  0  0  0  0  0  0  0
  -13.6601  -30.8929   -0.7573 C   0  0  0  0  0  0  0  0  0  0  0  0
  -13.5817  -30.3356    0.5313 C   0  0  0  0  0  0  0  0  0  0  0  0
  -13.8043  -28.9768    0.7452 C   0  0  0  0  0  0  0  0  0  0  0  0
  -14.1049  -28.1495   -0.3258 C   0  0  0  0  0  0  0  0  0  0  0  0
  -14.1846  -28.7107   -1.6110 C   0  0  0  0  0  0  0  0  0  0  0  0
  -14.0025  -30.0908   -1.8758 C   0  0  0  0  0  0  0  0  0  0  0  0
  -14.3560  -26.7687   -0.2106 N   0  0  0  0  0  0  0  0  0  0  0  0
  -13.7812  -25.7361   -0.9157 C   0  0  0  0  0  0  0  0  0  0  0  0
  -12.9579  -25.8471   -1.8187 O   0  0  0  0  0  0  0  0  0  0  0  0
  -14.2128  -24.5055   -0.5113 N   0  0  0  0  0  0  0  0  0  0  0  0
  -13.8406  -23.1702   -0.9587 C   0  0  2  0  0  0  0  0  0  0  0  0
  -12.7955  -22.5537   -0.0308 C   0  0  0  0  0  0  0  0  0  0  0  0
  -12.9751  -23.0239    1.4336 C   0  0  2  0  0  0  0  0  0  0  0  0
  -11.9275  -24.0866    1.7946 C   0  0  0  0  0  0  0  0  0  0  0  0
  -14.4031  -23.5385    1.7387 C   0  0  0  0  0  0  0  0  0  0  0  0
  -15.1366  -23.9651    0.4692 C   0  0  1  0  0  0  0  0  0  0  0  0
  -15.2902  -22.8109   -0.5527 C   0  0  0  0  0  0  0  0  0  0  0  0
  -15.0268  -26.4887    0.4865 H   0  0  0  0  0  0  0  0  0  0  0  0
  -14.1204  -30.6824   -3.3627 C   0  0  1  0  0  0  0  0  0  0  0  0
  -14.9418  -29.9033   -4.4346 C   0  0  0  0  0  0  0  0  0  0  0  0
  -14.0065  -30.5065   -5.4980 C   0  0  0  0  0  0  0  0  0  0  0  0
  -12.9325  -30.6417   -4.3874 C   0  0  1  0  0  0  0  0  0  0  0  0
  -12.0039  -29.5275   -4.3269 C   0  0  0  0  0  0  0  0  0  0  0  0
  -11.2349  -28.6604   -4.2682 N   0  0  0  0  0  0  0  0  0  0  0  0
  -13.1532  -32.7825    0.0555 H   0  0  0  0  0  0  0  0  0  0  0  0
  -12.5709  -32.5178   -1.5706 H   0  0  0  0  0  0  0  0  0  0  0  0
  -14.2632  -32.8520   -1.2922 H   0  0  0  0  0  0  0  0  0  0  0  0
  -13.3551  -30.9441    1.3334 H   0  0  0  0  0  0  0  0  0  0  0  0
  -13.7455  -28.5871    1.6990 H   0  0  0  0  0  0  0  0  0  0  0  0
  -14.3867  -28.0839   -2.4055 H   0  0  0  0  0  0  0  0  0  0  0  0
  -13.4264  -22.9411   -1.9183 H   0  0  0  0  0  0  0  0  0  0  0  0
  -12.8872  -21.4882   -0.0658 H   0  0  0  0  0  0  0  0  0  0  0  0
  -11.8288  -22.8686   -0.3642 H   0  0  0  0  0  0  0  0  0  0  0  0
  -12.8266  -22.1608    2.0484 H   0  0  0  0  0  0  0  0  0  0  0  0
  -12.0718  -24.9521    1.1823 H   0  0  0  0  0  0  0  0  0  0  0  0
  -12.0336  -24.3566    2.8245 H   0  0  0  0  0  0  0  0  0  0  0  0
  -10.9470  -23.6917    1.6286 H   0  0  0  0  0  0  0  0  0  0  0  0
  -14.9586  -22.7569    2.2134 H   0  0  0  0  0  0  0  0  0  0  0  0
  -14.3188  -24.3933    2.3767 H   0  0  0  0  0  0  0  0  0  0  0  0
  -15.9682  -24.4980    0.8808 H   0  0  0  0  0  0  0  0  0  0  0  0
  -15.4172  -21.8376   -0.1266 H   0  0  0  0  0  0  0  0  0  0  0  0
  -16.0973  -22.7514   -1.2527 H   0  0  0  0  0  0  0  0  0  0  0  0
  -14.4354  -31.6104   -2.9333 H   0  0  0  0  0  0  0  0  0  0  0  0
  -14.8901  -28.8380   -4.3482 H   0  0  0  0  0  0  0  0  0  0  0  0
  -16.0054  -29.9968   -4.5042 H   0  0  0  0  0  0  0  0  0  0  0  0
  -13.7449  -29.8383   -6.2917 H   0  0  0  0  0  0  0  0  0  0  0  0
  -14.3029  -31.3425   -6.0965 H   0  0  0  0  0  0  0  0  0  0  0  0
  -12.1848  -31.4069   -4.3676 H   0  0  0  0  0  0  0  0  0  0  0  0
  1  2  1  0
  1 26  1  0
  1 27  1  0
  1 28  1  0
  2  3  2  0
  3  4  1  0
  3 29  1  0
  4  5  2  0
  4 30  1  0
  5  8  1  0
  5  6  1  0
  6  7  2  0
  6 31  1  0
  7 20  1  0
  7  2  1  0
  8  9  1  0
  8 19  1  0
  9 10  2  0
  9 11  1  0
 11 12  1  0
 12 13  1  0
 12 32  1  6
 13 14  1  0
 13 33  1  0
 13 34  1  0
 14 15  1  0
 14 16  1  0
 14 35  1  1
 15 36  1  0
 15 37  1  0
 15 38  1  0
 16 17  1  0
 16 39  1  0
 16 40  1  0
 17 18  1  0
 17 11  1  0
 17 41  1  1
 18 12  1  0
 18 42  1  0
 18 43  1  0
 20 21  1  0
 20 44  1  1
 21 22  1  0
 21 45  1  0
 21 46  1  0
 22 23  1  0
 22 47  1  0
 22 48  1  0
 23 24  1  0
 23 20  1  0
 23 49  1  6
 24 25  3  0
M  END
>  <minimizedAffinity>  (2) 
-5.88213

>  <mol_id>  (2) 
12531

>  <source_index>  (2) 
1

>  <layer>  (2) 
L4

>  <uniprot>  (2) 
Q6SZW1

>  <paff>  (2) 
6

>  <smiles>  (2) 
Cc1ccc(NC(=O)N2C3CC(C)CC2C3)cc1C1CCC1C#N

$$$$
L4:Q6SZW1:20829
     RDKit          3D

 25 26  0  0  0  0  0  0  0  0999 V2000
  -12.9632  -23.8512    1.0239 C   0  0  0  0  0  0  0  0  0  0  0  0
  -11.7591  -24.1348    1.6894 C   0  0  0  0  0  0  0  0  0  0  0  0
  -10.5435  -24.0074    1.0200 C   0  0  0  0  0  0  0  0  0  0  0  0
   -9.3603  -24.2792    1.6414 O   0  0  0  0  0  0  0  0  0  0  0  0
  -10.4965  -23.5992   -0.3067 C   0  0  0  0  0  0  0  0  0  0  0  0
  -11.6849  -23.3138   -0.9712 C   0  0  0  0  0  0  0  0  0  0  0  0
  -11.6450  -22.8072   -2.6154 Cl  0  0  0  0  0  0  0  0  0  0  0  0
  -12.9115  -23.4353   -0.3161 C   0  0  0  0  0  0  0  0  0  0  0  0
   -9.5364  -24.5466    2.5589 H   0  0  0  0  0  0  0  0  0  0  0  0
  -14.7284  -26.2584    0.6842 C   0  0  0  0  0  0  0  0  0  0  0  0
  -15.0891  -25.1021    1.5762 C   0  0  0  0  0  0  0  0  0  0  0  0
  -16.3045  -25.1281    2.2735 C   0  0  0  0  0  0  0  0  0  0  0  0
  -16.6343  -24.0602    3.0929 C   0  0  0  0  0  0  0  0  0  0  0  0
  -15.8509  -22.9778    3.2623 N   0  0  0  0  0  0  0  0  0  0  0  0
  -14.6866  -22.9643    2.5723 C   0  0  0  0  0  0  0  0  0  0  0  0
  -14.2483  -23.9815    1.7189 C   0  0  0  0  0  0  0  0  0  0  0  0
  -11.7747  -24.4380    2.6757 H   0  0  0  0  0  0  0  0  0  0  0  0
   -9.5911  -23.5087   -0.7936 H   0  0  0  0  0  0  0  0  0  0  0  0
  -13.7857  -23.2181   -0.8198 H   0  0  0  0  0  0  0  0  0  0  0  0
  -15.5031  -26.9954    0.7248 H   0  0  0  0  0  0  0  0  0  0  0  0
  -13.8073  -26.6906    1.0154 H   0  0  0  0  0  0  0  0  0  0  0  0
  -14.6183  -25.9118   -0.3221 H   0  0  0  0  0  0  0  0  0  0  0  0
  -16.9452  -25.9315    2.1781 H   0  0  0  0  0  0  0  0  0  0  0  0
  -17.5311  -24.0964    3.6022 H   0  0  0  0  0  0  0  0  0  0  0  0
  -14.0756  -22.1402    2.6846 H   0  0  0  0  0  0  0  0  0  0  0  0
  1  2  2  0
  2  3  1  0
  2 17  1  0
  3  4  1  0
  3  5  2  0
  4  9  1  0
  5  6  1  0
  5 18  1  0
  6  7  1  0
  6  8  2  0
  8  1  1  0
  8 19  1  0
 10 11  1  0
 10 20  1  0
 10 21  1  0
 10 22  1  0
 11 12  2  0
 12 13  1  0
 12 23  1  0
 13 14  2  0
 13 24  1  0
 14 15  1  0
 15 16  2  0
 15 25  1  0
 16  1  1  0
 16 11  1  0
M  END
>  <minimizedAffinity>  (3) 
-4.73201

>  <mol_id>  (3) 
20829

>  <source_index>  (3) 
2

>  <layer>  (3) 
L4

>  <uniprot>  (3) 
Q6SZW1

>  <paff>  (3) 
10

>  <smiles>  (3) 
Cc1ccncc1-c1cc(O)cc(Cl)c1

$$$$
L4:Q6SZW1:22712
     RDKit          3D

 42 45  0  0  0  0  0  0  0  0999 V2000
    1.7703  -26.3427    2.2013 O   0  0  0  0  0  0  0  0  0  0  0  0
    0.7483  -26.9642    1.9186 C   0  0  0  0  0  0  0  0  0  0  0  0
   -0.1604  -27.3134    2.9031 N   0  0  0  0  0  0  0  0  0  0  0  0
    0.1181  -26.9899    4.2960 C   0  0  0  0  0  0  0  0  0  0  0  0
   -1.0604  -27.5591    5.0891 C   0  0  1  0  0  0  0  0  0  0  0  0
   -1.3250  -26.7893    6.2532 O   0  0  0  0  0  0  0  0  0  0  0  0
   -2.2155  -27.4630    4.0750 C   0  0  1  0  0  0  0  0  0  0  0  0
   -1.5257  -27.7999    2.7472 C   0  0  0  0  0  0  0  0  0  0  0  0
   -2.1182  -27.1646    6.6768 H   0  0  0  0  0  0  0  0  0  0  0  0
   -3.4119  -28.3350    4.3883 C   0  0  0  0  0  0  0  0  0  0  0  0
   -3.7139  -29.4185    3.5475 C   0  0  0  0  0  0  0  0  0  0  0  0
   -4.8111  -30.2434    3.8093 C   0  0  0  0  0  0  0  0  0  0  0  0
   -5.6166  -29.9932    4.9159 C   0  0  0  0  0  0  0  0  0  0  0  0
   -6.9677  -31.0067    5.2393 Cl  0  0  0  0  0  0  0  0  0  0  0  0
   -5.3333  -28.9252    5.7625 C   0  0  0  0  0  0  0  0  0  0  0  0
   -4.2358  -28.1001    5.5008 C   0  0  0  0  0  0  0  0  0  0  0  0
    0.4525  -27.3289    0.5568 C   0  0  0  0  0  0  0  0  0  0  0  0
    0.1170  -28.5686    0.0468 C   0  0  0  0  0  0  0  0  0  0  0  0
   -0.1060  -28.3859   -1.3442 C   0  0  0  0  0  0  0  0  0  0  0  0
    0.0595  -27.0930   -1.6678 N   0  0  0  0  0  0  0  0  0  0  0  0
    0.3355  -26.4838   -0.5059 N   0  0  0  0  0  0  0  0  0  0  0  0
    0.4199  -25.4738   -0.5088 H   0  0  0  0  0  0  0  0  0  0  0  0
   -0.4637  -29.3847   -2.3491 C   0  0  0  0  0  0  0  0  0  0  0  0
   -1.3210  -30.4457   -2.0691 C   0  0  0  0  0  0  0  0  0  0  0  0
   -1.6037  -31.3463   -3.0795 C   0  0  0  0  0  0  0  0  0  0  0  0
   -1.0858  -31.2426   -4.3194 N   0  0  0  0  0  0  0  0  0  0  0  0
   -0.2507  -30.2124   -4.6053 N   0  0  0  0  0  0  0  0  0  0  0  0
    0.0445  -29.3124   -3.6386 C   0  0  0  0  0  0  0  0  0  0  0  0
    0.1816  -25.9301    4.4287 H   0  0  0  0  0  0  0  0  0  0  0  0
    1.0514  -27.4002    4.6208 H   0  0  0  0  0  0  0  0  0  0  0  0
   -0.8915  -28.5514    5.4522 H   0  0  0  0  0  0  0  0  0  0  0  0
   -2.6759  -26.4971    4.0752 H   0  0  0  0  0  0  0  0  0  0  0  0
   -2.0120  -27.3039    1.9333 H   0  0  0  0  0  0  0  0  0  0  0  0
   -1.5590  -28.8469    2.5289 H   0  0  0  0  0  0  0  0  0  0  0  0
   -3.1183  -29.6079    2.7263 H   0  0  0  0  0  0  0  0  0  0  0  0
   -5.0234  -31.0361    3.1835 H   0  0  0  0  0  0  0  0  0  0  0  0
   -5.9329  -28.7428    6.5824 H   0  0  0  0  0  0  0  0  0  0  0  0
   -4.0289  -27.3101    6.1318 H   0  0  0  0  0  0  0  0  0  0  0  0
    0.0430  -29.4533    0.5730 H   0  0  0  0  0  0  0  0  0  0  0  0
   -1.7352  -30.5571   -1.1305 H   0  0  0  0  0  0  0  0  0  0  0  0
   -2.2396  -32.1330   -2.8751 H   0  0  0  0  0  0  0  0  0  0  0  0
    0.6795  -28.5331   -3.8720 H   0  0  0  0  0  0  0  0  0  0  0  0
  1  2  2  0
  2 17  1  0
  2  3  1  0
  3  4  1  0
  4  5  1  0
  4 29  1  0
  4 30  1  0
  5  6  1  0
  5  7  1  0
  5 31  1  1
  6  9  1  0
  7 10  1  0
  7  8  1  0
  7 32  1  6
  8  3  1  0
  8 33  1  0
  8 34  1  0
 10 11  2  0
 11 12  1  0
 11 35  1  0
 12 13  2  0
 12 36  1  0
 13 14  1  0
 13 15  1  0
 15 16  2  0
 15 37  1  0
 16 10  1  0
 16 38  1  0
 17 18  2  0
 18 19  1  0
 18 39  1  0
 19 23  1  0
 19 20  2  0
 20 21  1  0
 21 17  1  0
 21 22  1  0
 23 24  2  0
 24 25  1  0
 24 40  1  0
 25 26  2  0
 25 41  1  0
 26 27  1  0
 27 28  2  0
 28 23  1  0
 28 42  1  0
M  END
>  <minimizedAffinity>  (4) 
-6.97251

>  <mol_id>  (4) 
22712

>  <source_index>  (4) 
3

>  <layer>  (4) 
L4

>  <uniprot>  (4) 
Q6SZW1

>  <paff>  (4) 
6.4546999999999999

>  <smiles>  (4) 
ClC1=CC=C(C=C1)[C@@H]1CN(C[C@H]1O)C(=O)C1=CC(=NN1)C1=CN=NC=C1

$$$$
L4:Q6SZW1:37606
     RDKit          3D

 41 44  0  0  0  0  0  0  0  0999 V2000
   -0.3935  -26.9172    4.4650 O   0  0  0  0  0  0  0  0  0  0  0  0
   -1.1758  -27.5261    3.7324 C   0  0  0  0  0  0  0  0  0  0  0  0
   -2.4159  -27.8997    4.2141 N   0  0  0  0  0  0  0  0  0  0  0  0
   -2.8179  -27.5138    5.5589 C   0  0  0  0  0  0  0  0  0  0  0  0
   -4.2704  -27.9511    5.6804 C   0  0  0  0  0  0  0  0  0  0  0  0
   -4.3193  -29.1892    4.7775 C   0  0  2  0  0  0  0  0  0  0  0  0
   -3.4153  -28.7712    3.6088 C   0  0  0  0  0  0  0  0  0  0  0  0
   -0.7619  -27.8708    2.3994 C   0  0  0  0  0  0  0  0  0  0  0  0
   -0.7249  -26.9053    1.4259 N   0  0  0  0  0  0  0  0  0  0  0  0
   -0.3088  -27.3309    0.2210 N   0  0  0  0  0  0  0  0  0  0  0  0
   -0.1153  -28.6523    0.3792 C   0  0  0  0  0  0  0  0  0  0  0  0
   -0.4019  -29.0083    1.7217 C   0  0  0  0  0  0  0  0  0  0  0  0
   -0.3550  -30.2473    2.2183 F   0  0  0  0  0  0  0  0  0  0  0  0
   -0.9716  -25.9261    1.5435 H   0  0  0  0  0  0  0  0  0  0  0  0
    0.3178  -29.4955   -0.7343 C   0  0  0  0  0  0  0  0  0  0  0  0
   -0.6081  -30.0525   -1.6161 C   0  0  0  0  0  0  0  0  0  0  0  0
   -0.1463  -30.8402   -2.6522 C   0  0  0  0  0  0  0  0  0  0  0  0
    1.1628  -31.0924   -2.8469 N   0  0  0  0  0  0  0  0  0  0  0  0
    2.0758  -30.5571   -1.9972 N   0  0  0  0  0  0  0  0  0  0  0  0
    1.6536  -29.7814   -0.9718 C   0  0  0  0  0  0  0  0  0  0  0  0
   -5.7054  -29.6344    4.3795 C   0  0  0  0  0  0  0  0  0  0  0  0
   -6.2063  -30.8539    4.8627 C   0  0  0  0  0  0  0  0  0  0  0  0
   -7.4849  -31.2930    4.5085 C   0  0  0  0  0  0  0  0  0  0  0  0
   -8.2751  -30.5160    3.6667 C   0  0  0  0  0  0  0  0  0  0  0  0
   -9.8493  -31.0552    3.2307 Cl  0  0  0  0  0  0  0  0  0  0  0  0
   -7.7970  -29.3043    3.1764 C   0  0  0  0  0  0  0  0  0  0  0  0
   -6.5182  -28.8658    3.5313 C   0  0  0  0  0  0  0  0  0  0  0  0
   -2.7326  -26.4549    5.6870 H   0  0  0  0  0  0  0  0  0  0  0  0
   -2.1999  -27.9651    6.3067 H   0  0  0  0  0  0  0  0  0  0  0  0
   -4.9345  -27.1894    5.3288 H   0  0  0  0  0  0  0  0  0  0  0  0
   -4.5753  -28.1447    6.6876 H   0  0  0  0  0  0  0  0  0  0  0  0
   -3.9824  -30.0770    5.2706 H   0  0  0  0  0  0  0  0  0  0  0  0
   -3.9768  -28.2440    2.8661 H   0  0  0  0  0  0  0  0  0  0  0  0
   -2.9758  -29.6117    3.1135 H   0  0  0  0  0  0  0  0  0  0  0  0
   -1.6185  -29.8794   -1.4967 H   0  0  0  0  0  0  0  0  0  0  0  0
   -0.8320  -31.2525   -3.3040 H   0  0  0  0  0  0  0  0  0  0  0  0
    2.3611  -29.3828   -0.3349 H   0  0  0  0  0  0  0  0  0  0  0  0
   -5.6232  -31.4330    5.4870 H   0  0  0  0  0  0  0  0  0  0  0  0
   -7.8422  -32.1911    4.8702 H   0  0  0  0  0  0  0  0  0  0  0  0
   -8.3855  -28.7308    2.5521 H   0  0  0  0  0  0  0  0  0  0  0  0
   -6.1675  -27.9667    3.1656 H   0  0  0  0  0  0  0  0  0  0  0  0
  1  2  2  0
  2  8  1  0
  2  3  1  0
  3  4  1  0
  4  5  1  0
  4 28  1  0
  4 29  1  0
  5  6  1  0
  5 30  1  0
  5 31  1  0
  6 21  1  0
  6  7  1  0
  6 32  1  1
  7  3  1  0
  7 33  1  0
  7 34  1  0
  8  9  1  0
  9 10  1  0
  9 14  1  0
 10 11  2  0
 11 15  1  0
 11 12  1  0
 12 13  1  0
 12  8  2  0
 15 16  2  0
 16 17  1  0
 16 35  1  0
 17 18  2  0
 17 36  1  0
 18 19  1  0
 19 20  2  0
 20 15  1  0
 20 37  1  0
 21 22  2  0
 22 23  1  0
 22 38  1  0
 23 24  2  0
 23 39  1  0
 24 25  1  0
 24 26  1  0
 26 27  2  0
 26 40  1  0
 27 21  1  0
 27 41  1  0
M  END
>  <minimizedAffinity>  (5) 
-6.79244

>  <mol_id>  (5) 
37606

>  <source_index>  (5) 
4

>  <layer>  (5) 
L4

>  <uniprot>  (5) 
Q6SZW1

>  <paff>  (5) 
6.3079999999999998

>  <smiles>  (5) 
ClC1=CC=C(C=C1)[C@H]1CN(CC1)C(=O)C1=C(C(=NN1)C1=CN=NC=C1)F

$$$$
L4:Q6SZW1:80793
     RDKit          3D

 44 47  0  0  0  0  0  0  0  0999 V2000
   -1.4547  -34.2932   12.3261 C   0  0  0  0  0  0  0  0  0  0  0  0
   -0.4737  -34.6962   12.9470 O   0  0  0  0  0  0  0  0  0  0  0  0
   -2.2315  -35.1632   11.5806 N   0  0  0  0  0  0  0  0  0  0  0  0
   -1.9329  -36.5856   11.5719 C   0  0  0  0  0  0  0  0  0  0  0  0
   -3.0183  -37.2078   10.7045 C   0  0  0  0  0  0  0  0  0  0  0  0
   -3.3728  -36.0956    9.7074 C   0  0  1  0  0  0  0  0  0  0  0  0
   -3.2368  -34.8324   10.5733 C   0  0  0  0  0  0  0  0  0  0  0  0
   -0.6096  -32.0154   10.2492 C   0  0  0  0  0  0  0  0  0  0  0  0
   -1.4592  -31.8798   11.4618 C   0  0  0  0  0  0  0  0  0  0  0  0
   -2.0880  -30.7035   11.9835 C   0  0  0  0  0  0  0  0  0  0  0  0
   -2.8127  -30.9983   13.0735 N   0  0  0  0  0  0  0  0  0  0  0  0
   -2.5793  -32.2971   13.2908 N   0  0  0  0  0  0  0  0  0  0  0  0
   -1.8291  -32.9009   12.3269 C   0  0  0  0  0  0  0  0  0  0  0  0
   -2.9644  -32.7188   14.1288 H   0  0  0  0  0  0  0  0  0  0  0  0
   -2.0395  -29.3334   11.4863 C   0  0  0  0  0  0  0  0  0  0  0  0
   -3.0238  -28.8116   10.6534 C   0  0  0  0  0  0  0  0  0  0  0  0
   -2.8944  -27.5021   10.2315 C   0  0  0  0  0  0  0  0  0  0  0  0
   -1.8602  -26.7157   10.5920 N   0  0  0  0  0  0  0  0  0  0  0  0
   -0.8859  -27.2221   11.3913 N   0  0  0  0  0  0  0  0  0  0  0  0
   -0.9792  -28.5029   11.8155 C   0  0  0  0  0  0  0  0  0  0  0  0
   -2.5026  -36.1587    8.4619 C   0  0  0  0  0  0  0  0  0  0  0  0
   -2.6869  -37.2307    7.5702 C   0  0  0  0  0  0  0  0  0  0  0  0
   -1.9086  -37.3480    6.4158 C   0  0  0  0  0  0  0  0  0  0  0  0
   -0.9315  -36.3964    6.1422 C   0  0  0  0  0  0  0  0  0  0  0  0
    0.0295  -36.5389    4.7228 Cl  0  0  0  0  0  0  0  0  0  0  0  0
   -0.7260  -35.3321    7.0149 C   0  0  0  0  0  0  0  0  0  0  0  0
   -1.5057  -35.2150    8.1698 C   0  0  0  0  0  0  0  0  0  0  0  0
   -1.9694  -36.9841   12.5643 H   0  0  0  0  0  0  0  0  0  0  0  0
   -0.9515  -36.7891   11.1972 H   0  0  0  0  0  0  0  0  0  0  0  0
   -3.8698  -37.4769   11.2940 H   0  0  0  0  0  0  0  0  0  0  0  0
   -2.6979  -38.1082   10.2233 H   0  0  0  0  0  0  0  0  0  0  0  0
   -4.3501  -36.1566    9.2760 H   0  0  0  0  0  0  0  0  0  0  0  0
   -4.1703  -34.5948   11.0391 H   0  0  0  0  0  0  0  0  0  0  0  0
   -2.9548  -33.9788    9.9929 H   0  0  0  0  0  0  0  0  0  0  0  0
   -0.4968  -31.0585    9.7839 H   0  0  0  0  0  0  0  0  0  0  0  0
   -1.0729  -32.6932    9.5631 H   0  0  0  0  0  0  0  0  0  0  0  0
    0.3523  -32.3921   10.5280 H   0  0  0  0  0  0  0  0  0  0  0  0
   -3.8285  -29.3866   10.3587 H   0  0  0  0  0  0  0  0  0  0  0  0
   -3.6212  -27.1088    9.6134 H   0  0  0  0  0  0  0  0  0  0  0  0
   -0.2261  -28.8796   12.4120 H   0  0  0  0  0  0  0  0  0  0  0  0
   -3.4078  -37.9412    7.7716 H   0  0  0  0  0  0  0  0  0  0  0  0
   -2.0581  -38.1377    5.7685 H   0  0  0  0  0  0  0  0  0  0  0  0
    0.0016  -34.6295    6.8098 H   0  0  0  0  0  0  0  0  0  0  0  0
   -1.3462  -34.4254    8.8149 H   0  0  0  0  0  0  0  0  0  0  0  0
  1  2  2  0
  1  3  1  0
  3  4  1  0
  4  5  1  0
  4 28  1  0
  4 29  1  0
  5  6  1  0
  5 30  1  0
  5 31  1  0
  6 21  1  0
  6  7  1  0
  6 32  1  6
  7  3  1  0
  7 33  1  0
  7 34  1  0
  8  9  1  0
  8 35  1  0
  8 36  1  0
  8 37  1  0
  9 10  1  0
 10 15  1  0
 10 11  2  0
 11 12  1  0
 12 13  1  0
 12 14  1  0
 13  1  1  0
 13  9  2  0
 15 16  2  0
 16 17  1  0
 16 38  1  0
 17 18  2  0
 17 39  1  0
 18 19  1  0
 19 20  2  0
 20 15  1  0
 20 40  1  0
 21 22  2  0
 22 23  1  0
 22 41  1  0
 23 24  2  0
 23 42  1  0
 24 25  1  0
 24 26  1  0
 26 27  2  0
 26 43  1  0
 27 21  1  0
 27 44  1  0
M  END
>  <minimizedAffinity>  (6) 
-5.94457

>  <mol_id>  (6) 
80793

>  <source_index>  (6) 
5

>  <layer>  (6) 
L4

>  <uniprot>  (6) 
Q6SZW1

>  <paff>  (6) 
6.3696000000000002

>  <smiles>  (6) 
ClC1=CC=C(C=C1)C1CN(CC1)C(=O)C1=C(C(=NN1)C1=CN=NC=C1)C

$$$$
L4:Q6SZW1:94916
     RDKit          3D

 46 49  0  0  0  0  0  0  0  0999 V2000
  -11.8983  -26.4542   -3.6582 N   0  0  0  0  0  0  0  0  0  0  0  0
  -13.1426  -27.0078   -3.8577 C   0  0  0  0  0  0  0  0  0  0  0  0
  -14.2187  -26.4385   -3.7052 O   0  0  0  0  0  0  0  0  0  0  0  0
  -13.0949  -28.3128   -4.2547 N   0  0  0  0  0  0  0  0  0  0  0  0
  -12.0803  -29.3373   -4.4351 C   0  0  2  0  0  0  0  0  0  0  0  0
  -13.1162  -29.9577   -5.4065 C   0  0  0  0  0  0  0  0  0  0  0  0
  -14.1679  -29.2708   -4.5010 C   0  0  1  0  0  0  0  0  0  0  0  0
  -14.4739  -30.0748   -3.2381 C   0  0  0  0  0  0  0  0  0  0  0  0
  -13.2218  -30.1716   -2.3355 C   0  0  2  0  0  0  0  0  0  0  0  0
  -11.9092  -30.1557   -3.1557 C   0  0  0  0  0  0  0  0  0  0  0  0
  -11.1215  -27.0242   -3.9525 H   0  0  0  0  0  0  0  0  0  0  0  0
  -10.9576  -23.6496   -1.2930 C   0  0  0  0  0  0  0  0  0  0  0  0
  -11.2972  -24.9331   -1.7972 C   0  0  0  0  0  0  0  0  0  0  0  0
  -11.5885  -25.1809   -3.1437 C   0  0  0  0  0  0  0  0  0  0  0  0
  -11.5575  -24.1163   -4.0411 C   0  0  0  0  0  0  0  0  0  0  0  0
  -11.2723  -22.8303   -3.5875 C   0  0  0  0  0  0  0  0  0  0  0  0
  -10.9899  -22.6012   -2.2354 C   0  0  0  0  0  0  0  0  0  0  0  0
  -10.7247  -20.9586   -1.7699 Cl  0  0  0  0  0  0  0  0  0  0  0  0
  -11.7759  -23.6238    1.3328 C   0  0  1  0  0  0  0  0  0  0  0  0
  -10.6854  -24.1386    2.3071 C   0  0  0  0  0  0  0  0  0  0  0  0
   -9.8844  -24.5893    1.0707 C   0  0  0  0  0  0  0  0  0  0  0  0
  -10.6254  -23.4808    0.2658 C   0  0  1  0  0  0  0  0  0  0  0  0
  -13.6721  -25.3573    0.8481 N   0  0  0  0  0  0  0  0  0  0  0  0
  -12.8267  -24.5899    1.0561 C   0  0  0  0  0  0  0  0  0  0  0  0
  -13.2883  -31.3805   -1.4222 C   0  0  0  0  0  0  0  0  0  0  0  0
  -14.5015  -31.9730   -1.4849 F   0  0  0  0  0  0  0  0  0  0  0  0
  -13.0631  -31.0384   -0.1366 F   0  0  0  0  0  0  0  0  0  0  0  0
  -12.3648  -32.3022   -1.7720 F   0  0  0  0  0  0  0  0  0  0  0  0
  -11.0623  -29.1501   -4.7064 H   0  0  0  0  0  0  0  0  0  0  0  0
  -13.1503  -31.0271   -5.4148 H   0  0  0  0  0  0  0  0  0  0  0  0
  -13.0787  -29.8207   -6.4670 H   0  0  0  0  0  0  0  0  0  0  0  0
  -15.1525  -29.0167   -4.8339 H   0  0  0  0  0  0  0  0  0  0  0  0
  -14.7839  -31.0606   -3.5157 H   0  0  0  0  0  0  0  0  0  0  0  0
  -15.2521  -29.5802   -2.6953 H   0  0  0  0  0  0  0  0  0  0  0  0
  -13.2152  -29.2975   -1.7184 H   0  0  0  0  0  0  0  0  0  0  0  0
  -11.6445  -31.1597   -3.4140 H   0  0  0  0  0  0  0  0  0  0  0  0
  -11.1388  -29.7090   -2.5625 H   0  0  0  0  0  0  0  0  0  0  0  0
  -11.3310  -25.7248   -1.1360 H   0  0  0  0  0  0  0  0  0  0  0  0
  -11.7459  -24.2801   -5.0425 H   0  0  0  0  0  0  0  0  0  0  0  0
  -11.2692  -22.0412   -4.2526 H   0  0  0  0  0  0  0  0  0  0  0  0
  -12.4227  -22.7997    1.5503 H   0  0  0  0  0  0  0  0  0  0  0  0
  -11.0007  -24.9348    2.9486 H   0  0  0  0  0  0  0  0  0  0  0  0
  -10.2556  -23.5051    3.0546 H   0  0  0  0  0  0  0  0  0  0  0  0
  -10.0897  -25.5881    0.7465 H   0  0  0  0  0  0  0  0  0  0  0  0
   -8.8164  -24.6530    1.0862 H   0  0  0  0  0  0  0  0  0  0  0  0
  -10.1514  -22.5488    0.0385 H   0  0  0  0  0  0  0  0  0  0  0  0
  1  2  1  0
  1 11  1  0
  2  3  2  0
  2  4  1  0
  4  5  1  0
  5  6  1  0
  5 29  1  6
  6  7  1  0
  6 30  1  0
  6 31  1  0
  7  8  1  0
  7  4  1  0
  7 32  1  6
  8  9  1  0
  8 33  1  0
  8 34  1  0
  9 25  1  0
  9 10  1  0
  9 35  1  1
 10  5  1  0
 10 36  1  0
 10 37  1  0
 12 13  2  0
 13 14  1  0
 13 38  1  0
 14  1  1  0
 14 15  2  0
 15 16  1  0
 15 39  1  0
 16 17  2  0
 16 40  1  0
 17 18  1  0
 17 12  1  0
 19 20  1  0
 19 41  1  1
 20 21  1  0
 20 42  1  0
 20 43  1  0
 21 22  1  0
 21 44  1  0
 21 45  1  0
 22 12  1  0
 22 19  1  0
 22 46  1  6
 23 24  3  0
 24 19  1  0
 25 26  1  0
 25 27  1  0
 25 28  1  0
M  END
>  <minimizedAffinity>  (7) 
-6.21242

>  <mol_id>  (7) 
94916

>  <source_index>  (7) 
6

>  <layer>  (7) 
L4

>  <uniprot>  (7) 
Q6SZW1

>  <paff>  (7) 
6

>  <smiles>  (7) 
N#C[C@H]1CC[C@H]1c1cc(NC(=O)N2C3CC2CC(C(F)(F)F)C3)ccc1Cl

$$$$
L4:Q6SZW1:121886
     RDKit          3D

 28 30  0  0  0  0  0  0  0  0999 V2000
   -2.7088  -31.5822   11.6892 C   0  0  0  0  0  0  0  0  0  0  0  0
   -2.3429  -32.5818   10.7528 C   0  0  0  0  0  0  0  0  0  0  0  0
   -2.8532  -33.8810   10.8468 C   0  0  0  0  0  0  0  0  0  0  0  0
   -3.7164  -34.1282   11.8869 C   0  0  0  0  0  0  0  0  0  0  0  0
   -4.3705  -35.2693   12.2473 N   0  0  0  0  0  0  0  0  0  0  0  0
   -5.1151  -34.9903   13.3693 C   0  0  0  0  0  0  0  0  0  0  0  0
   -5.8227  -35.7963   13.9552 O   0  0  0  0  0  0  0  0  0  0  0  0
   -4.9592  -33.6544   13.7627 O   0  0  0  0  0  0  0  0  0  0  0  0
   -4.0814  -33.1683   12.8071 C   0  0  0  0  0  0  0  0  0  0  0  0
   -3.5947  -31.8814   12.7368 C   0  0  0  0  0  0  0  0  0  0  0  0
   -4.3436  -36.1721   11.8034 H   0  0  0  0  0  0  0  0  0  0  0  0
   -0.0064  -30.8377   12.8296 C   0  0  0  0  0  0  0  0  0  0  0  0
   -0.8437  -29.8233   12.1053 C   0  0  0  0  0  0  0  0  0  0  0  0
   -0.4282  -28.5568   11.9371 C   0  0  0  0  0  0  0  0  0  0  0  0
   -1.2042  -27.6449   11.2724 N   0  0  0  0  0  0  0  0  0  0  0  0
   -2.4330  -27.9302   10.7363 C   0  0  0  0  0  0  0  0  0  0  0  0
   -3.1089  -27.0986   10.1427 O   0  0  0  0  0  0  0  0  0  0  0  0
   -2.9075  -29.3227   10.9145 C   0  0  0  0  0  0  0  0  0  0  0  0
   -2.1475  -30.2232   11.5666 C   0  0  0  0  0  0  0  0  0  0  0  0
   -0.8831  -26.6921   11.1504 H   0  0  0  0  0  0  0  0  0  0  0  0
   -1.6894  -32.3472    9.9893 H   0  0  0  0  0  0  0  0  0  0  0  0
   -2.5947  -34.6158   10.1699 H   0  0  0  0  0  0  0  0  0  0  0  0
   -3.8704  -31.1654   13.4270 H   0  0  0  0  0  0  0  0  0  0  0  0
    0.9055  -30.3814   13.1538 H   0  0  0  0  0  0  0  0  0  0  0  0
    0.2163  -31.6516   12.1717 H   0  0  0  0  0  0  0  0  0  0  0  0
   -0.5443  -31.2029   13.6794 H   0  0  0  0  0  0  0  0  0  0  0  0
    0.4879  -28.2672   12.3138 H   0  0  0  0  0  0  0  0  0  0  0  0
   -3.8257  -29.6041   10.5367 H   0  0  0  0  0  0  0  0  0  0  0  0
  1  2  2  0
  2  3  1  0
  2 21  1  0
  3  4  2  0
  3 22  1  0
  4  5  1  0
  5  6  1  0
  5 11  1  0
  6  7  2  0
  6  8  1  0
  8  9  1  0
  9 10  2  0
  9  4  1  0
 10  1  1  0
 10 23  1  0
 12 13  1  0
 12 24  1  0
 12 25  1  0
 12 26  1  0
 13 14  2  0
 14 15  1  0
 14 27  1  0
 15 16  1  0
 15 20  1  0
 16 17  2  0
 16 18  1  0
 18 19  2  0
 18 28  1  0
 19  1  1  0
 19 13  1  0
M  END
>  <minimizedAffinity>  (8) 
-5.20958

>  <mol_id>  (8) 
121886

>  <source_index>  (8) 
7

>  <layer>  (8) 
L4

>  <uniprot>  (8) 
Q6SZW1

>  <paff>  (8) 
7.2967000000000004

>  <smiles>  (8) 
Cc1c[nH]c(=O)cc1-c1ccc2[nH]c(=O)oc2c1

$$$$
L4:Q6SZW1:129162
     RDKit          3D

 29 31  0  0  0  0  0  0  0  0999 V2000
   -5.6477  -28.8794    4.4972 C   0  0  0  0  0  0  0  0  0  0  0  0
   -5.5153  -28.3611    5.7957 C   0  0  0  0  0  0  0  0  0  0  0  0
   -4.3059  -27.8310    6.2625 C   0  0  0  0  0  0  0  0  0  0  0  0
   -3.2269  -27.8405    5.3758 C   0  0  0  0  0  0  0  0  0  0  0  0
   -1.9340  -27.4094    5.5070 N   0  0  0  0  0  0  0  0  0  0  0  0
   -1.1767  -27.5900    4.4130 N   0  0  0  0  0  0  0  0  0  0  0  0
   -2.0066  -28.1604    3.5447 C   0  0  0  0  0  0  0  0  0  0  0  0
   -1.6375  -28.5125    2.3100 N   0  0  0  0  0  0  0  0  0  0  0  0
   -3.3079  -28.3446    4.0833 C   0  0  0  0  0  0  0  0  0  0  0  0
   -4.5342  -28.8737    3.6351 C   0  0  0  0  0  0  0  0  0  0  0  0
   -1.5055  -26.9820    6.3193 H   0  0  0  0  0  0  0  0  0  0  0  0
   -0.6847  -28.3449    2.0119 H   0  0  0  0  0  0  0  0  0  0  0  0
   -2.2517  -28.9531    1.6403 H   0  0  0  0  0  0  0  0  0  0  0  0
   -6.3922  -31.7538    4.9223 C   0  0  0  0  0  0  0  0  0  0  0  0
   -7.2998  -30.7730    4.2322 C   0  0  0  0  0  0  0  0  0  0  0  0
   -8.5528  -31.2003    3.7731 C   0  0  0  0  0  0  0  0  0  0  0  0
   -9.3842  -30.2901    3.1399 C   0  0  0  0  0  0  0  0  0  0  0  0
   -9.0626  -28.9980    2.9360 N   0  0  0  0  0  0  0  0  0  0  0  0
   -7.8508  -28.6016    3.3920 C   0  0  0  0  0  0  0  0  0  0  0  0
   -6.9305  -29.4274    4.0439 C   0  0  0  0  0  0  0  0  0  0  0  0
   -6.3335  -28.3711    6.4246 H   0  0  0  0  0  0  0  0  0  0  0  0
   -4.2162  -27.4509    7.2177 H   0  0  0  0  0  0  0  0  0  0  0  0
   -4.6161  -29.2552    2.6797 H   0  0  0  0  0  0  0  0  0  0  0  0
   -6.8650  -32.7130    4.9581 H   0  0  0  0  0  0  0  0  0  0  0  0
   -6.1939  -31.4165    5.9182 H   0  0  0  0  0  0  0  0  0  0  0  0
   -5.4720  -31.8297    4.3816 H   0  0  0  0  0  0  0  0  0  0  0  0
   -8.8523  -32.1791    3.9046 H   0  0  0  0  0  0  0  0  0  0  0  0
  -10.3026  -30.6213    2.8053 H   0  0  0  0  0  0  0  0  0  0  0  0
   -7.5866  -27.6146    3.2472 H   0  0  0  0  0  0  0  0  0  0  0  0
  1  2  2  0
  2  3  1  0
  2 21  1  0
  3  4  2  0
  3 22  1  0
  4  5  1  0
  5  6  1  0
  5 11  1  0
  6  7  2  0
  7  8  1  0
  7  9  1  0
  8 12  1  0
  8 13  1  0
  9 10  2  0
  9  4  1  0
 10  1  1  0
 10 23  1  0
 14 15  1  0
 14 24  1  0
 14 25  1  0
 14 26  1  0
 15 16  2  0
 16 17  1  0
 16 27  1  0
 17 18  2  0
 17 28  1  0
 18 19  1  0
 19 20  2  0
 19 29  1  0
 20  1  1  0
 20 15  1  0
M  END
>  <minimizedAffinity>  (9) 
-5.60635

>  <mol_id>  (9) 
129162

>  <source_index>  (9) 
8

>  <layer>  (9) 
L4

>  <uniprot>  (9) 
Q6SZW1

>  <paff>  (9) 
6.6818999999999997

>  <smiles>  (9) 
Cc1ccncc1-c1ccc2[nH]nc(N)c2c1

$$$$
L4:Q6SZW1:129698
     RDKit          3D

 48 51  0  0  0  0  0  0  0  0999 V2000
  -12.6517  -26.4033   -2.9857 C   0  0  0  0  0  0  0  0  0  0  0  0
  -12.0509  -25.7476   -4.0616 C   0  0  0  0  0  0  0  0  0  0  0  0
  -11.5608  -24.4519   -3.9091 C   0  0  0  0  0  0  0  0  0  0  0  0
  -11.6711  -23.7963   -2.6780 C   0  0  0  0  0  0  0  0  0  0  0  0
  -10.9491  -22.2235   -2.5724 Cl  0  0  0  0  0  0  0  0  0  0  0  0
  -12.2805  -24.4200   -1.5697 C   0  0  0  0  0  0  0  0  0  0  0  0
  -12.7608  -25.7329   -1.7609 C   0  0  0  0  0  0  0  0  0  0  0  0
  -13.4526  -32.3864   -0.4284 C   0  0  0  0  0  0  0  0  0  0  0  0
  -13.7918  -32.1304   -1.8930 C   0  0  1  0  0  0  0  0  0  0  0  0
  -14.6662  -30.8663   -2.0591 C   0  0  0  0  0  0  0  0  0  0  0  0
  -14.5513  -30.3289   -3.4865 C   0  0  2  0  0  0  0  0  0  0  0  0
  -14.2647  -31.3944   -4.5845 C   0  0  0  0  0  0  0  0  0  0  0  0
  -12.8013  -31.3149   -4.0647 C   0  0  2  0  0  0  0  0  0  0  0  0
  -12.5183  -32.0753   -2.7679 C   0  0  0  0  0  0  0  0  0  0  0  0
  -13.1710  -29.9426   -3.7307 N   0  0  0  0  0  0  0  0  0  0  0  0
  -12.4068  -28.8152   -3.6277 C   0  0  0  0  0  0  0  0  0  0  0  0
  -11.2082  -28.8450   -3.8876 O   0  0  0  0  0  0  0  0  0  0  0  0
  -13.1203  -27.7122   -3.2161 N   0  0  0  0  0  0  0  0  0  0  0  0
  -14.1045  -27.8703   -3.0748 H   0  0  0  0  0  0  0  0  0  0  0  0
  -12.4340  -23.8017   -0.3462 N   0  0  0  0  0  0  0  0  0  0  0  0
  -11.4102  -23.7940    0.6978 C   0  0  0  0  0  0  0  0  0  0  0  0
  -12.1994  -23.6370    1.9953 C   0  0  0  0  0  0  0  0  0  0  0  0
  -13.4426  -22.8720    1.5646 C   0  0  2  0  0  0  0  0  0  0  0  0
  -14.4844  -23.0374    2.5136 O   0  0  0  0  0  0  0  0  0  0  0  0
  -13.7550  -23.4976    0.1966 C   0  0  0  0  0  0  0  0  0  0  0  0
  -15.2629  -22.5631    2.1747 H   0  0  0  0  0  0  0  0  0  0  0  0
  -11.9693  -26.2241   -4.9734 H   0  0  0  0  0  0  0  0  0  0  0  0
  -11.1146  -23.9740   -4.7076 H   0  0  0  0  0  0  0  0  0  0  0  0
  -13.2096  -26.2176   -0.9680 H   0  0  0  0  0  0  0  0  0  0  0  0
  -14.3546  -32.4183    0.1463 H   0  0  0  0  0  0  0  0  0  0  0  0
  -12.8256  -31.5994   -0.0647 H   0  0  0  0  0  0  0  0  0  0  0  0
  -12.9397  -33.3212   -0.3392 H   0  0  0  0  0  0  0  0  0  0  0  0
  -14.3728  -32.9592   -2.2401 H   0  0  0  0  0  0  0  0  0  0  0  0
  -14.3369  -30.1158   -1.3712 H   0  0  0  0  0  0  0  0  0  0  0  0
  -15.6870  -31.1194   -1.8622 H   0  0  0  0  0  0  0  0  0  0  0  0
  -15.4156  -29.7000   -3.5354 H   0  0  0  0  0  0  0  0  0  0  0  0
  -14.4111  -31.0644   -5.5917 H   0  0  0  0  0  0  0  0  0  0  0  0
  -14.8093  -32.3114   -4.6708 H   0  0  0  0  0  0  0  0  0  0  0  0
  -11.9786  -31.6342   -4.6697 H   0  0  0  0  0  0  0  0  0  0  0  0
  -11.7401  -31.5769   -2.2285 H   0  0  0  0  0  0  0  0  0  0  0  0
  -12.2154  -33.0733   -3.0071 H   0  0  0  0  0  0  0  0  0  0  0  0
  -10.7361  -22.9742    0.5621 H   0  0  0  0  0  0  0  0  0  0  0  0
  -10.8088  -24.6789    0.6885 H   0  0  0  0  0  0  0  0  0  0  0  0
  -11.6398  -23.0813    2.7185 H   0  0  0  0  0  0  0  0  0  0  0  0
  -12.4266  -24.5733    2.4608 H   0  0  0  0  0  0  0  0  0  0  0  0
  -13.3178  -21.8112    1.5011 H   0  0  0  0  0  0  0  0  0  0  0  0
  -14.2766  -22.8054   -0.4308 H   0  0  0  0  0  0  0  0  0  0  0  0
  -14.3866  -24.3586    0.2655 H   0  0  0  0  0  0  0  0  0  0  0  0
  1  2  2  0
  2  3  1  0
  2 27  1  0
  3  4  2  0
  3 28  1  0
  4  5  1  0
  4  6  1  0
  6 20  1  0
  6  7  2  0
  7  1  1  0
  7 29  1  0
  8  9  1  0
  8 30  1  0
  8 31  1  0
  8 32  1  0
  9 10  1  0
  9 33  1  6
 10 11  1  0
 10 34  1  0
 10 35  1  0
 11 12  1  0
 11 36  1  6
 12 13  1  0
 12 37  1  0
 12 38  1  0
 13 14  1  0
 13 15  1  0
 13 39  1  6
 14  9  1  0
 14 40  1  0
 14 41  1  0
 15 16  1  0
 15 11  1  0
 16 17  2  0
 16 18  1  0
 18  1  1  0
 18 19  1  0
 20 21  1  0
 21 22  1  0
 21 42  1  0
 21 43  1  0
 22 23  1  0
 22 44  1  0
 22 45  1  0
 23 24  1  0
 23 25  1  0
 23 46  1  6
 24 26  1  0
 25 20  1  0
 25 47  1  0
 25 48  1  0
M  END
>  <minimizedAffinity>  (10) 
-5.83494

>  <mol_id>  (10) 
129698

>  <source_index>  (10) 
9

>  <layer>  (10) 
L4

>  <uniprot>  (10) 
Q6SZW1

>  <paff>  (10) 
6

>  <smiles>  (10) 
CC1CC2CC(C1)N2C(=O)Nc1ccc(Cl)c(N2CC[C@H](O)C2)c1

$$$$
