L3:Q9HCR9:10956
     RDKit          3D

 42 46  0  0  0  0  0  0  0  0999 V2000
    5.1935   11.8758   34.0952 C   0  0  0  0  0  0  0  0  0  0  0  0
    5.0895   11.7201   32.6205 C   0  0  0  0  0  0  0  0  0  0  0  0
    6.1779   11.3210   31.9565 N   0  0  0  0  0  0  0  0  0  0  0  0
    5.8153   11.2798   30.6464 N   0  0  0  0  0  0  0  0  0  0  0  0
    4.4877   11.6689   30.4830 C   0  0  0  0  0  0  0  0  0  0  0  0
    3.8056   11.7657   29.3196 N   0  0  0  0  0  0  0  0  0  0  0  0
    2.5340   12.1781   29.4359 C   0  0  0  0  0  0  0  0  0  0  0  0
    1.9102   12.4706   30.6360 C   0  0  0  0  0  0  0  0  0  0  0  0
    2.6309   12.3550   31.8342 C   0  0  0  0  0  0  0  0  0  0  0  0
    3.9828   11.9455   31.7554 C   0  0  0  0  0  0  0  0  0  0  0  0
    6.7777   10.8778   29.6658 C   0  0  0  0  0  0  0  0  0  0  0  0
    8.1441   11.1183   29.9119 C   0  0  0  0  0  0  0  0  0  0  0  0
    9.1128   10.7401   28.9785 C   0  0  0  0  0  0  0  0  0  0  0  0
    8.7219   10.1223   27.7992 C   0  0  0  0  0  0  0  0  0  0  0  0
    9.6490    9.7594   26.9035 F   0  0  0  0  0  0  0  0  0  0  0  0
    7.3808    9.8755   27.5359 C   0  0  0  0  0  0  0  0  0  0  0  0
    6.4058   10.2516   28.4669 C   0  0  0  0  0  0  0  0  0  0  0  0
    1.8306   12.2633   28.1663 C   0  0  0  0  0  0  0  0  0  0  0  0
    1.6268   13.3551   27.3416 C   0  0  0  0  0  0  0  0  0  0  0  0
    0.9037   12.8638   26.2432 C   0  0  0  0  0  0  0  0  0  0  0  0
    0.6396   11.5617   26.3550 N   0  0  0  0  0  0  0  0  0  0  0  0
    1.1620   11.2292   27.5531 N   0  0  0  0  0  0  0  0  0  0  0  0
    0.9491    9.8896   28.0515 C   0  0  0  0  0  0  0  0  0  0  0  0
    2.0045   12.6329   33.1126 C   0  0  0  0  0  0  0  0  0  0  0  0
    1.4337   11.8408   33.9954 N   0  0  0  0  0  0  0  0  0  0  0  0
    0.9979   12.6404   35.0307 N   0  0  0  0  0  0  0  0  0  0  0  0
    1.3244   13.8658   34.7014 C   0  0  0  0  0  0  0  0  0  0  0  0
    1.9630   13.9520   33.5024 O   0  0  0  0  0  0  0  0  0  0  0  0
    6.1820   11.6166   34.4124 H   0  0  0  0  0  0  0  0  0  0  0  0
    4.4853   11.2314   34.5727 H   0  0  0  0  0  0  0  0  0  0  0  0
    4.9881   12.8914   34.3620 H   0  0  0  0  0  0  0  0  0  0  0  0
    0.9231   12.7713   30.6495 H   0  0  0  0  0  0  0  0  0  0  0  0
    8.4322   11.5781   30.7898 H   0  0  0  0  0  0  0  0  0  0  0  0
   10.1119   10.9190   29.1650 H   0  0  0  0  0  0  0  0  0  0  0  0
    7.1035    9.4153   26.6548 H   0  0  0  0  0  0  0  0  0  0  0  0
    5.4095   10.0675   28.2706 H   0  0  0  0  0  0  0  0  0  0  0  0
    1.9401   14.3255   27.5003 H   0  0  0  0  0  0  0  0  0  0  0  0
    0.6103   13.4437   25.4415 H   0  0  0  0  0  0  0  0  0  0  0  0
    0.3908    9.3264   27.3332 H   0  0  0  0  0  0  0  0  0  0  0  0
    0.4046    9.9337   28.9715 H   0  0  0  0  0  0  0  0  0  0  0  0
    1.8943    9.4169   28.2188 H   0  0  0  0  0  0  0  0  0  0  0  0
    1.1176   14.6856   35.2932 H   0  0  0  0  0  0  0  0  0  0  0  0
  1  2  1  0
  1 29  1  0
  1 30  1  0
  1 31  1  0
  2  3  2  0
  3  4  1  0
  4 11  1  0
  4  5  1  0
  5  6  2  0
  6  7  1  0
  7 18  1  0
  7  8  2  0
  8  9  1  0
  8 32  1  0
  9 24  1  0
  9 10  2  0
 10  2  1  0
 10  5  1  0
 11 12  2  0
 12 13  1  0
 12 33  1  0
 13 14  2  0
 13 34  1  0
 14 15  1  0
 14 16  1  0
 16 17  2  0
 16 35  1  0
 17 11  1  0
 17 36  1  0
 18 19  2  0
 19 20  1  0
 19 37  1  0
 20 21  2  0
 20 38  1  0
 21 22  1  0
 22 23  1  0
 22 18  1  0
 23 39  1  0
 23 40  1  0
 23 41  1  0
 24 25  2  0
 25 26  1  0
 26 27  2  0
 27 28  1  0
 27 42  1  0
 28 24  1  0
M  END
>  <minimizedAffinity>  (1) 
-9.15540

>  <mol_id>  (1) 
10956

>  <source_index>  (1) 
0

>  <layer>  (1) 
L3

>  <uniprot>  (1) 
Q9HCR9

>  <paff>  (1) 
7.3768000000000002

>  <smiles>  (1) 
Cc1nn(-c2ccc(F)cc2)c2nc(-c3ccnn3C)cc(-c3nnco3)c12

$$$$
L3:Q9HCR9:12928
     RDKit          3D

 48 52  0  0  0  0  0  0  0  0999 V2000
    3.9193   11.4474   28.3292 C   0  0  0  0  0  0  0  0  0  0  0  0
    3.0099   11.7593   29.3218 C   0  0  0  0  0  0  0  0  0  0  0  0
    3.4349   11.8020   30.6589 C   0  0  0  0  0  0  0  0  0  0  0  0
    4.8045   11.5351   30.9271 C   0  0  0  0  0  0  0  0  0  0  0  0
    5.6803   11.4299   32.0415 C   0  0  0  0  0  0  0  0  0  0  0  0
    5.3958   11.5774   33.4942 C   0  0  0  0  0  0  0  0  0  0  0  0
    6.9369   11.1522   31.6735 N   0  0  0  0  0  0  0  0  0  0  0  0
    6.9131   11.0748   30.3165 N   0  0  0  0  0  0  0  0  0  0  0  0
    5.6209   11.2670   29.8285 C   0  0  0  0  0  0  0  0  0  0  0  0
    5.2187   11.2031   28.5379 N   0  0  0  0  0  0  0  0  0  0  0  0
    2.4957   12.1038   31.7307 C   0  0  0  0  0  0  0  0  0  0  0  0
    1.4742   11.4262   32.2114 N   0  0  0  0  0  0  0  0  0  0  0  0
    0.9131   12.1947   33.2120 N   0  0  0  0  0  0  0  0  0  0  0  0
    1.6410   13.2881   33.2869 C   0  0  0  0  0  0  0  0  0  0  0  0
    1.4992   14.4577   34.1743 C   0  0  0  0  0  0  0  0  0  0  0  0
    2.6699   13.3053   32.3852 O   0  0  0  0  0  0  0  0  0  0  0  0
    8.1267   10.8232   29.6051 C   0  0  0  0  0  0  0  0  0  0  0  0
    8.1347   10.4255   28.2611 C   0  0  0  0  0  0  0  0  0  0  0  0
    9.3481   10.1953   27.6008 C   0  0  0  0  0  0  0  0  0  0  0  0
   10.5623   10.3564   28.2726 C   0  0  0  0  0  0  0  0  0  0  0  0
   10.5686   10.7573   29.6063 C   0  0  0  0  0  0  0  0  0  0  0  0
    9.3603   10.9914   30.2704 C   0  0  0  0  0  0  0  0  0  0  0  0
    3.9743   10.4134   26.0465 N   0  0  0  0  0  0  0  0  0  0  0  0
    3.3985   10.5057   24.8263 N   0  0  0  0  0  0  0  0  0  0  0  0
    2.6146   11.5842   24.9218 C   0  0  0  0  0  0  0  0  0  0  0  0
    2.6413   12.1455   26.2066 C   0  0  0  0  0  0  0  0  0  0  0  0
    3.5138   11.3572   26.9366 C   0  0  0  0  0  0  0  0  0  0  0  0
    6.1040    9.3808   25.3674 C   0  0  0  0  0  0  0  0  0  0  0  0
    4.8976    9.3180   26.2918 C   0  0  0  0  0  0  0  0  0  0  0  0
    2.0263   11.9592   29.0820 H   0  0  0  0  0  0  0  0  0  0  0  0
    4.3579   11.7966   33.6339 H   0  0  0  0  0  0  0  0  0  0  0  0
    5.9859   12.3755   33.8940 H   0  0  0  0  0  0  0  0  0  0  0  0
    5.6391   10.6662   33.9996 H   0  0  0  0  0  0  0  0  0  0  0  0
    0.6612   14.3132   34.8237 H   0  0  0  0  0  0  0  0  0  0  0  0
    1.3455   15.3368   33.5839 H   0  0  0  0  0  0  0  0  0  0  0  0
    2.3881   14.5716   34.7590 H   0  0  0  0  0  0  0  0  0  0  0  0
    7.2432   10.3019   27.7562 H   0  0  0  0  0  0  0  0  0  0  0  0
    9.3453    9.9045   26.6106 H   0  0  0  0  0  0  0  0  0  0  0  0
   11.4525   10.1787   27.7817 H   0  0  0  0  0  0  0  0  0  0  0  0
   11.4640   10.8815   30.1041 H   0  0  0  0  0  0  0  0  0  0  0  0
    9.3706   11.2905   31.2580 H   0  0  0  0  0  0  0  0  0  0  0  0
    2.0547   11.9602   24.1406 H   0  0  0  0  0  0  0  0  0  0  0  0
    2.1201   12.9723   26.5380 H   0  0  0  0  0  0  0  0  0  0  0  0
    6.7579    8.5605   25.5782 H   0  0  0  0  0  0  0  0  0  0  0  0
    6.6255   10.3019   25.5237 H   0  0  0  0  0  0  0  0  0  0  0  0
    5.7772    9.3241   24.3501 H   0  0  0  0  0  0  0  0  0  0  0  0
    5.2349    9.3694   27.3059 H   0  0  0  0  0  0  0  0  0  0  0  0
    4.3820    8.3992   26.1051 H   0  0  0  0  0  0  0  0  0  0  0  0
  1  2  2  0
  2  3  1  0
  2 30  1  0
  3 11  1  0
  3  4  2  0
  4  5  1  0
  5  6  1  0
  5  7  2  0
  6 31  1  0
  6 32  1  0
  6 33  1  0
  7  8  1  0
  8 17  1  0
  8  9  1  0
  9 10  2  0
  9  4  1  0
 10  1  1  0
 11 12  2  0
 12 13  1  0
 13 14  2  0
 14 15  1  0
 14 16  1  0
 15 34  1  0
 15 35  1  0
 15 36  1  0
 16 11  1  0
 17 18  2  0
 18 19  1  0
 18 37  1  0
 19 20  2  0
 19 38  1  0
 20 21  1  0
 20 39  1  0
 21 22  2  0
 21 40  1  0
 22 17  1  0
 22 41  1  0
 23 24  1  0
 24 25  2  0
 25 26  1  0
 25 42  1  0
 26 27  2  0
 26 43  1  0
 27  1  1  0
 27 23  1  0
 28 29  1  0
 28 44  1  0
 28 45  1  0
 28 46  1  0
 29 23  1  0
 29 47  1  0
 29 48  1  0
M  END
>  <minimizedAffinity>  (2) 
-9.71167

>  <mol_id>  (2) 
12928

>  <source_index>  (2) 
1

>  <layer>  (2) 
L3

>  <uniprot>  (2) 
Q9HCR9

>  <paff>  (2) 
7.1612

>  <smiles>  (2) 
CCn1nccc1-c1cc(-c2nnc(C)o2)c2c(C)nn(-c3ccccc3)c2n1

$$$$
L3:Q9HCR9:68226
     RDKit          3D

 45 49  0  0  0  0  0  0  0  0999 V2000
    2.8564   11.9807   29.5878 C   0  0  0  0  0  0  0  0  0  0  0  0
    2.2971   12.1513   30.8432 C   0  0  0  0  0  0  0  0  0  0  0  0
    3.1065   11.9945   31.9735 C   0  0  0  0  0  0  0  0  0  0  0  0
    4.4486   11.6161   31.7697 C   0  0  0  0  0  0  0  0  0  0  0  0
    5.5774   11.2973   32.5481 C   0  0  0  0  0  0  0  0  0  0  0  0
    6.6546   11.0022   31.8223 N   0  0  0  0  0  0  0  0  0  0  0  0
    6.2357   11.0875   30.5239 N   0  0  0  0  0  0  0  0  0  0  0  0
    4.8923   11.4660   30.4560 C   0  0  0  0  0  0  0  0  0  0  0  0
    4.1418   11.6559   29.3471 N   0  0  0  0  0  0  0  0  0  0  0  0
    7.1572   10.7979   29.4674 C   0  0  0  0  0  0  0  0  0  0  0  0
    6.7608   10.1417   28.2929 C   0  0  0  0  0  0  0  0  0  0  0  0
    7.6942    9.8801   27.2819 C   0  0  0  0  0  0  0  0  0  0  0  0
    9.0175   10.2737   27.4407 C   0  0  0  0  0  0  0  0  0  0  0  0
    9.9031   10.0250   26.4677 F   0  0  0  0  0  0  0  0  0  0  0  0
    9.4333   10.9216   28.5963 C   0  0  0  0  0  0  0  0  0  0  0  0
    8.5059   11.1825   29.6109 C   0  0  0  0  0  0  0  0  0  0  0  0
    2.5519   12.1847   33.3082 C   0  0  0  0  0  0  0  0  0  0  0  0
    1.2957   12.5108   33.5494 N   0  0  0  0  0  0  0  0  0  0  0  0
    1.0447   12.6917   34.8926 N   0  0  0  0  0  0  0  0  0  0  0  0
    2.1229   12.5265   35.6279 C   0  0  0  0  0  0  0  0  0  0  0  0
    2.1661   12.6760   37.1038 C   0  0  0  0  0  0  0  0  0  0  0  0
    3.5297   12.1362   34.7259 S   0  0  0  0  0  0  0  0  0  0  0  0
    1.2902   11.1810   27.8089 N   0  0  0  0  0  0  0  0  0  0  0  0
    0.6806   11.5826   26.6732 N   0  0  0  0  0  0  0  0  0  0  0  0
    1.0295   12.8659   26.5621 C   0  0  0  0  0  0  0  0  0  0  0  0
    1.8798   13.2795   27.6006 C   0  0  0  0  0  0  0  0  0  0  0  0
    2.0636   12.1603   28.3877 C   0  0  0  0  0  0  0  0  0  0  0  0
    0.7076    8.8794   27.1362 C   0  0  0  0  0  0  0  0  0  0  0  0
    1.0662    9.8227   28.2770 C   0  0  0  0  0  0  0  0  0  0  0  0
    1.2982   12.3905   30.9434 H   0  0  0  0  0  0  0  0  0  0  0  0
    5.5710   11.2927   33.5801 H   0  0  0  0  0  0  0  0  0  0  0  0
    5.7780    9.8506   28.1732 H   0  0  0  0  0  0  0  0  0  0  0  0
    7.3995    9.3955   26.4198 H   0  0  0  0  0  0  0  0  0  0  0  0
   10.4186   11.2084   28.7059 H   0  0  0  0  0  0  0  0  0  0  0  0
    8.8120   11.6610   30.4725 H   0  0  0  0  0  0  0  0  0  0  0  0
    1.1891   12.9187   37.4664 H   0  0  0  0  0  0  0  0  0  0  0  0
    2.8476   13.4591   37.3632 H   0  0  0  0  0  0  0  0  0  0  0  0
    2.4928   11.7580   37.5459 H   0  0  0  0  0  0  0  0  0  0  0  0
    0.7107   13.4841   25.7997 H   0  0  0  0  0  0  0  0  0  0  0  0
    2.2814   14.2192   27.7445 H   0  0  0  0  0  0  0  0  0  0  0  0
    0.5518    7.8942   27.5236 H   0  0  0  0  0  0  0  0  0  0  0  0
    1.5064    8.8606   26.4245 H   0  0  0  0  0  0  0  0  0  0  0  0
   -0.1873    9.2207   26.6591 H   0  0  0  0  0  0  0  0  0  0  0  0
    1.9579    9.4689   28.7508 H   0  0  0  0  0  0  0  0  0  0  0  0
    0.2451    9.8400   28.9628 H   0  0  0  0  0  0  0  0  0  0  0  0
  1  2  2  0
  2  3  1  0
  2 30  1  0
  3 17  1  0
  3  4  2  0
  4  5  1  0
  5  6  2  0
  5 31  1  0
  6  7  1  0
  7 10  1  0
  7  8  1  0
  8  9  2  0
  8  4  1  0
  9  1  1  0
 10 11  2  0
 11 12  1  0
 11 32  1  0
 12 13  2  0
 12 33  1  0
 13 14  1  0
 13 15  1  0
 15 16  2  0
 15 34  1  0
 16 10  1  0
 16 35  1  0
 17 18  2  0
 18 19  1  0
 19 20  2  0
 20 21  1  0
 20 22  1  0
 21 36  1  0
 21 37  1  0
 21 38  1  0
 22 17  1  0
 23 24  1  0
 24 25  2  0
 25 26  1  0
 25 39  1  0
 26 27  2  0
 26 40  1  0
 27  1  1  0
 27 23  1  0
 28 29  1  0
 28 41  1  0
 28 42  1  0
 28 43  1  0
 29 23  1  0
 29 44  1  0
 29 45  1  0
M  END
>  <minimizedAffinity>  (3) 
-9.53941

>  <mol_id>  (3) 
68226

>  <source_index>  (3) 
2

>  <layer>  (3) 
L3

>  <uniprot>  (3) 
Q9HCR9

>  <paff>  (3) 
6.9172000000000002

>  <smiles>  (3) 
CCn1nccc1-c1cc(-c2nnc(C)s2)c2cnn(-c3ccc(F)cc3)c2n1

$$$$
L3:Q9HCR9:78593
     RDKit          3D

 48 52  0  0  0  0  0  0  0  0999 V2000
    4.0703   11.6582   31.5378 C   0  0  0  0  0  0  0  0  0  0  0  0
    2.8646   11.8917   30.8939 C   0  0  0  0  0  0  0  0  0  0  0  0
    2.8127   11.8315   29.4963 C   0  0  0  0  0  0  0  0  0  0  0  0
    4.0071   11.5542   28.7986 C   0  0  0  0  0  0  0  0  0  0  0  0
    4.4340   11.3699   27.4572 C   0  0  0  0  0  0  0  0  0  0  0  0
    3.6388   11.4313   26.2026 C   0  0  0  0  0  0  0  0  0  0  0  0
    5.7376   11.0884   27.3781 N   0  0  0  0  0  0  0  0  0  0  0  0
    6.1981   11.1334   28.6592 N   0  0  0  0  0  0  0  0  0  0  0  0
    5.1589   11.3633   29.5592 C   0  0  0  0  0  0  0  0  0  0  0  0
    5.2295   11.3905   30.9106 N   0  0  0  0  0  0  0  0  0  0  0  0
    7.5937   10.9430   28.9095 C   0  0  0  0  0  0  0  0  0  0  0  0
    8.1572   11.1485   30.1774 C   0  0  0  0  0  0  0  0  0  0  0  0
    9.5274   10.9509   30.3800 C   0  0  0  0  0  0  0  0  0  0  0  0
   10.3336   10.5541   29.3208 C   0  0  0  0  0  0  0  0  0  0  0  0
   11.6443   10.3669   29.5222 F   0  0  0  0  0  0  0  0  0  0  0  0
    9.7989   10.3540   28.0559 C   0  0  0  0  0  0  0  0  0  0  0  0
    8.4313   10.5504   27.8473 C   0  0  0  0  0  0  0  0  0  0  0  0
    1.5814   12.0586   28.7555 C   0  0  0  0  0  0  0  0  0  0  0  0
    1.1491   13.2278   28.3306 N   0  0  0  0  0  0  0  0  0  0  0  0
   -0.0385   13.1320   27.6353 N   0  0  0  0  0  0  0  0  0  0  0  0
   -0.4728   11.8925   27.5637 C   0  0  0  0  0  0  0  0  0  0  0  0
   -1.7220   11.4662   26.8853 C   0  0  0  0  0  0  0  0  0  0  0  0
    0.5453   10.7472   28.3387 S   0  0  0  0  0  0  0  0  0  0  0  0
    3.2382   12.2980   33.8350 N   0  0  0  0  0  0  0  0  0  0  0  0
    3.5943   12.2419   35.1388 N   0  0  0  0  0  0  0  0  0  0  0  0
    4.7520   11.5851   35.1306 C   0  0  0  0  0  0  0  0  0  0  0  0
    5.1571   11.2418   33.8326 C   0  0  0  0  0  0  0  0  0  0  0  0
    4.1612   11.7126   32.9923 C   0  0  0  0  0  0  0  0  0  0  0  0
    2.1597   14.5063   33.5466 C   0  0  0  0  0  0  0  0  0  0  0  0
    2.0096   12.9958   33.4962 C   0  0  0  0  0  0  0  0  0  0  0  0
    2.0152   12.1074   31.4388 H   0  0  0  0  0  0  0  0  0  0  0  0
    2.6213   11.6656   26.4364 H   0  0  0  0  0  0  0  0  0  0  0  0
    3.6818   10.4843   25.7064 H   0  0  0  0  0  0  0  0  0  0  0  0
    4.0410   12.1882   25.5621 H   0  0  0  0  0  0  0  0  0  0  0  0
    7.5590   11.4465   30.9637 H   0  0  0  0  0  0  0  0  0  0  0  0
    9.9384   11.0997   31.3149 H   0  0  0  0  0  0  0  0  0  0  0  0
   10.4071   10.0622   27.2749 H   0  0  0  0  0  0  0  0  0  0  0  0
    8.0315   10.4066   26.9068 H   0  0  0  0  0  0  0  0  0  0  0  0
   -2.2108   12.3215   26.4677 H   0  0  0  0  0  0  0  0  0  0  0  0
   -2.3704   10.9957   27.5946 H   0  0  0  0  0  0  0  0  0  0  0  0
   -1.4854   10.7740   26.1044 H   0  0  0  0  0  0  0  0  0  0  0  0
    5.2894   11.3551   35.9811 H   0  0  0  0  0  0  0  0  0  0  0  0
    6.0181   10.7423   33.5600 H   0  0  0  0  0  0  0  0  0  0  0  0
    1.2284   14.9660   33.2894 H   0  0  0  0  0  0  0  0  0  0  0  0
    2.9130   14.8133   32.8515 H   0  0  0  0  0  0  0  0  0  0  0  0
    2.4435   14.8038   34.5345 H   0  0  0  0  0  0  0  0  0  0  0  0
    1.7177   12.7138   32.5062 H   0  0  0  0  0  0  0  0  0  0  0  0
    1.2716   12.7203   34.2203 H   0  0  0  0  0  0  0  0  0  0  0  0
  1  2  2  0
  2  3  1  0
  2 31  1  0
  3 18  1  0
  3  4  2  0
  4  5  1  0
  5  6  1  0
  5  7  2  0
  6 32  1  0
  6 33  1  0
  6 34  1  0
  7  8  1  0
  8 11  1  0
  8  9  1  0
  9 10  2  0
  9  4  1  0
 10  1  1  0
 11 12  2  0
 12 13  1  0
 12 35  1  0
 13 14  2  0
 13 36  1  0
 14 15  1  0
 14 16  1  0
 16 17  2  0
 16 37  1  0
 17 11  1  0
 17 38  1  0
 18 19  2  0
 19 20  1  0
 20 21  2  0
 21 22  1  0
 21 23  1  0
 22 39  1  0
 22 40  1  0
 22 41  1  0
 23 18  1  0
 24 25  1  0
 25 26  2  0
 26 27  1  0
 26 42  1  0
 27 28  2  0
 27 43  1  0
 28  1  1  0
 28 24  1  0
 29 30  1  0
 29 44  1  0
 29 45  1  0
 29 46  1  0
 30 24  1  0
 30 47  1  0
 30 48  1  0
M  END
>  <minimizedAffinity>  (4) 
-9.74268

>  <mol_id>  (4) 
78593

>  <source_index>  (4) 
3

>  <layer>  (4) 
L3

>  <uniprot>  (4) 
Q9HCR9

>  <paff>  (4) 
6.9318

>  <smiles>  (4) 
CCn1nccc1-c1cc(-c2nnc(C)s2)c2c(C)nn(-c3ccc(F)cc3)c2n1

$$$$
L3:Q9HCR9:90524
     RDKit          3D

 42 46  0  0  0  0  0  0  0  0999 V2000
    3.6638   11.7111   30.0575 C   0  0  0  0  0  0  0  0  0  0  0  0
    3.5216   11.9008   31.4256 C   0  0  0  0  0  0  0  0  0  0  0  0
    4.6196   11.6837   32.2642 C   0  0  0  0  0  0  0  0  0  0  0  0
    5.8305   11.2963   31.6612 C   0  0  0  0  0  0  0  0  0  0  0  0
    7.1316   10.9548   32.0703 C   0  0  0  0  0  0  0  0  0  0  0  0
    7.9306   10.6376   31.0551 N   0  0  0  0  0  0  0  0  0  0  0  0
    7.1743   10.8121   29.9361 N   0  0  0  0  0  0  0  0  0  0  0  0
    5.8637   11.1712   30.2752 C   0  0  0  0  0  0  0  0  0  0  0  0
    4.8086   11.3495   29.4443 N   0  0  0  0  0  0  0  0  0  0  0  0
    7.7479   10.6524   28.6410 C   0  0  0  0  0  0  0  0  0  0  0  0
    7.2595    9.6891   27.7442 C   0  0  0  0  0  0  0  0  0  0  0  0
    7.8242    9.5475   26.4710 C   0  0  0  0  0  0  0  0  0  0  0  0
    8.8779   10.3660   26.0748 C   0  0  0  0  0  0  0  0  0  0  0  0
    9.3656   11.3295   26.9527 C   0  0  0  0  0  0  0  0  0  0  0  0
    8.8037   11.4725   28.2229 C   0  0  0  0  0  0  0  0  0  0  0  0
    9.3495   12.4005   29.0217 F   0  0  0  0  0  0  0  0  0  0  0  0
    1.2058   11.8191   29.5079 N   0  0  0  0  0  0  0  0  0  0  0  0
    0.3632   12.1017   28.4879 N   0  0  0  0  0  0  0  0  0  0  0  0
    1.1719   12.3656   27.4639 C   0  0  0  0  0  0  0  0  0  0  0  0
    2.5257   12.2811   27.8222 C   0  0  0  0  0  0  0  0  0  0  0  0
    2.5357   11.9221   29.1598 C   0  0  0  0  0  0  0  0  0  0  0  0
   -0.0503   12.7522   31.4172 C   0  0  0  0  0  0  0  0  0  0  0  0
    0.6271   11.5366   30.8104 C   0  0  0  0  0  0  0  0  0  0  0  0
    4.5619   11.8323   33.7051 C   0  0  0  0  0  0  0  0  0  0  0  0
    5.4962   12.1641   34.5733 N   0  0  0  0  0  0  0  0  0  0  0  0
    4.9020   12.1559   35.8183 N   0  0  0  0  0  0  0  0  0  0  0  0
    3.6508   11.8204   35.6190 C   0  0  0  0  0  0  0  0  0  0  0  0
    3.3505   11.5983   34.3099 O   0  0  0  0  0  0  0  0  0  0  0  0
    2.6154   12.1988   31.8194 H   0  0  0  0  0  0  0  0  0  0  0  0
    7.4355   10.9506   33.0565 H   0  0  0  0  0  0  0  0  0  0  0  0
    6.4763    9.0792   28.0263 H   0  0  0  0  0  0  0  0  0  0  0  0
    7.4574    8.8328   25.8231 H   0  0  0  0  0  0  0  0  0  0  0  0
    9.2946   10.2592   25.1367 H   0  0  0  0  0  0  0  0  0  0  0  0
   10.1455   11.9405   26.6638 H   0  0  0  0  0  0  0  0  0  0  0  0
    0.8412   12.6047   26.5160 H   0  0  0  0  0  0  0  0  0  0  0  0
    3.3433   12.4510   27.2158 H   0  0  0  0  0  0  0  0  0  0  0  0
   -0.4588   12.4935   32.3717 H   0  0  0  0  0  0  0  0  0  0  0  0
   -0.8362   13.0825   30.7706 H   0  0  0  0  0  0  0  0  0  0  0  0
    0.6667   13.5374   31.5370 H   0  0  0  0  0  0  0  0  0  0  0  0
   -0.0978   10.7569   30.7028 H   0  0  0  0  0  0  0  0  0  0  0  0
    1.4218   11.2447   31.4647 H   0  0  0  0  0  0  0  0  0  0  0  0
    2.9601   11.7330   36.3808 H   0  0  0  0  0  0  0  0  0  0  0  0
  1  2  2  0
  2  3  1  0
  2 29  1  0
  3 24  1  0
  3  4  2  0
  4  5  1  0
  5  6  2  0
  5 30  1  0
  6  7  1  0
  7 10  1  0
  7  8  1  0
  8  9  2  0
  8  4  1  0
  9  1  1  0
 10 11  2  0
 11 12  1  0
 11 31  1  0
 12 13  2  0
 12 32  1  0
 13 14  1  0
 13 33  1  0
 14 15  2  0
 14 34  1  0
 15 16  1  0
 15 10  1  0
 17 18  1  0
 18 19  2  0
 19 20  1  0
 19 35  1  0
 20 21  2  0
 20 36  1  0
 21  1  1  0
 21 17  1  0
 22 23  1  0
 22 37  1  0
 22 38  1  0
 22 39  1  0
 23 17  1  0
 23 40  1  0
 23 41  1  0
 24 25  2  0
 25 26  1  0
 26 27  2  0
 27 28  1  0
 27 42  1  0
 28 24  1  0
M  END
>  <minimizedAffinity>  (5) 
-9.34662

>  <mol_id>  (5) 
90524

>  <source_index>  (5) 
4

>  <layer>  (5) 
L3

>  <uniprot>  (5) 
Q9HCR9

>  <paff>  (5) 
7.0757000000000003

>  <smiles>  (5) 
CCn1nccc1-c1cc(-c2nnco2)c2cnn(-c3ccccc3F)c2n1

$$$$
L3:Q9HCR9:96622
     RDKit          3D

 53 56  0  0  0  0  0  0  0  0999 V2000
    2.5634   11.3345   29.1963 C   0  0  0  0  0  0  0  0  0  0  0  0
    2.5121   11.6478   30.5536 C   0  0  0  0  0  0  0  0  0  0  0  0
    3.7084   11.7495   31.2423 C   0  0  0  0  0  0  0  0  0  0  0  0
    4.9302   11.5553   30.7034 N   0  0  0  0  0  0  0  0  0  0  0  0
    4.9364   11.2938   29.3751 C   0  0  0  0  0  0  0  0  0  0  0  0
    6.0361   11.0867   28.5434 N   0  0  0  0  0  0  0  0  0  0  0  0
    5.6417   10.8471   27.2571 N   0  0  0  0  0  0  0  0  0  0  0  0
    4.3081   10.9244   27.2731 C   0  0  0  0  0  0  0  0  0  0  0  0
    3.5458   10.7440   26.0112 C   0  0  0  0  0  0  0  0  0  0  0  0
    3.8089   11.1810   28.5698 C   0  0  0  0  0  0  0  0  0  0  0  0
    7.4309   11.0924   28.8609 C   0  0  0  0  0  0  0  0  0  0  0  0
    7.8945   10.9858   30.1806 C   0  0  0  0  0  0  0  0  0  0  0  0
    9.2680   10.9951   30.4475 C   0  0  0  0  0  0  0  0  0  0  0  0
   10.1759   11.1105   29.4026 C   0  0  0  0  0  0  0  0  0  0  0  0
   11.4889   11.1180   29.6658 F   0  0  0  0  0  0  0  0  0  0  0  0
    9.7392   11.2184   28.0898 C   0  0  0  0  0  0  0  0  0  0  0  0
    8.3690   11.2102   27.8166 C   0  0  0  0  0  0  0  0  0  0  0  0
    3.7452   12.0518   32.6646 C   0  0  0  0  0  0  0  0  0  0  0  0
    4.5966   11.5763   33.6459 C   0  0  0  0  0  0  0  0  0  0  0  0
    4.1704   12.1833   34.8374 C   0  0  0  0  0  0  0  0  0  0  0  0
    3.1378   13.0038   34.6437 N   0  0  0  0  0  0  0  0  0  0  0  0
    2.9319   12.9542   33.3114 N   0  0  0  0  0  0  0  0  0  0  0  0
    1.9439   13.8362   32.7321 C   0  0  0  0  0  0  0  0  0  0  0  0
    0.8973   12.3420   27.6819 N   0  0  0  0  0  0  0  0  0  0  0  0
    1.3201   11.2402   28.4267 C   0  0  0  0  0  0  0  0  0  0  0  0
    0.7215   10.1694   28.4777 O   0  0  0  0  0  0  0  0  0  0  0  0
   -0.1500   11.7435   25.4957 C   0  0  0  0  0  0  0  0  0  0  0  0
   -0.3531   12.2023   26.9321 C   0  0  0  0  0  0  0  0  0  0  0  0
    1.5282   13.6684   27.7167 C   0  0  0  0  0  0  0  0  0  0  0  0
    0.5737   14.7995   27.3733 C   0  0  0  0  0  0  0  0  0  0  0  0
    1.6095   11.7993   31.0305 H   0  0  0  0  0  0  0  0  0  0  0  0
    4.2268   10.5640   25.2058 H   0  0  0  0  0  0  0  0  0  0  0  0
    2.9784   11.6281   25.8078 H   0  0  0  0  0  0  0  0  0  0  0  0
    2.8830    9.9099   26.1110 H   0  0  0  0  0  0  0  0  0  0  0  0
    7.2203   10.9002   30.9572 H   0  0  0  0  0  0  0  0  0  0  0  0
    9.6060   10.9163   31.4194 H   0  0  0  0  0  0  0  0  0  0  0  0
   10.4218   11.3041   27.3206 H   0  0  0  0  0  0  0  0  0  0  0  0
    8.0413   11.2911   26.8413 H   0  0  0  0  0  0  0  0  0  0  0  0
    5.3798   10.9149   33.5269 H   0  0  0  0  0  0  0  0  0  0  0  0
    4.6062   12.0140   35.7574 H   0  0  0  0  0  0  0  0  0  0  0  0
    1.4823   14.4123   33.5066 H   0  0  0  0  0  0  0  0  0  0  0  0
    1.1999   13.2559   32.2275 H   0  0  0  0  0  0  0  0  0  0  0  0
    2.4183   14.4932   32.0334 H   0  0  0  0  0  0  0  0  0  0  0  0
   -1.0997   11.6631   25.0093 H   0  0  0  0  0  0  0  0  0  0  0  0
    0.3350   10.7897   25.4911 H   0  0  0  0  0  0  0  0  0  0  0  0
    0.4575   12.4550   24.9765 H   0  0  0  0  0  0  0  0  0  0  0  0
   -0.9702   11.4857   27.4327 H   0  0  0  0  0  0  0  0  0  0  0  0
   -0.8069   13.1705   26.8926 H   0  0  0  0  0  0  0  0  0  0  0  0
    2.3342   13.6792   27.0130 H   0  0  0  0  0  0  0  0  0  0  0  0
    1.8645   13.8321   28.7192 H   0  0  0  0  0  0  0  0  0  0  0  0
    0.2136   14.6713   26.3739 H   0  0  0  0  0  0  0  0  0  0  0  0
    1.0871   15.7352   27.4502 H   0  0  0  0  0  0  0  0  0  0  0  0
   -0.2518   14.7886   28.0540 H   0  0  0  0  0  0  0  0  0  0  0  0
  1  2  2  0
  2  3  1  0
  2 31  1  0
  3  4  2  0
  3 18  1  0
  4  5  1  0
  5  6  1  0
  6  7  1  0
  6 11  1  0
  7  8  2  0
  8  9  1  0
  8 10  1  0
  9 32  1  0
  9 33  1  0
  9 34  1  0
 10  1  1  0
 10  5  2  0
 11 12  2  0
 12 13  1  0
 12 35  1  0
 13 14  2  0
 13 36  1  0
 14 15  1  0
 14 16  1  0
 16 17  2  0
 16 37  1  0
 17 11  1  0
 17 38  1  0
 18 19  2  0
 19 20  1  0
 19 39  1  0
 20 21  2  0
 20 40  1  0
 21 22  1  0
 22 23  1  0
 22 18  1  0
 23 41  1  0
 23 42  1  0
 23 43  1  0
 24 29  1  0
 24 25  1  0
 25 26  2  0
 25  1  1  0
 27 28  1  0
 27 44  1  0
 27 45  1  0
 27 46  1  0
 28 24  1  0
 28 47  1  0
 28 48  1  0
 29 30  1  0
 29 49  1  0
 29 50  1  0
 30 51  1  0
 30 52  1  0
 30 53  1  0
M  END
>  <minimizedAffinity>  (6) 
-8.64061

>  <mol_id>  (6) 
96622

>  <source_index>  (6) 
5

>  <layer>  (6) 
L3

>  <uniprot>  (6) 
Q9HCR9

>  <paff>  (6) 
7.1871

>  <smiles>  (6) 
CCN(CC)C(=O)c1cc(nc2n(nc(C)c12)-c1ccc(F)cc1)-c1ccnn1C

$$$$
L3:Q9HCR9:113370
     RDKit          3D

 53 56  0  0  0  0  0  0  0  0999 V2000
    6.8354   11.0013   27.2290 C   0  0  0  0  0  0  0  0  0  0  0  0
    5.5838   11.0866   26.6207 C   0  0  0  0  0  0  0  0  0  0  0  0
    4.4786   11.2769   27.4313 C   0  0  0  0  0  0  0  0  0  0  0  0
    4.5171   11.3910   28.7743 N   0  0  0  0  0  0  0  0  0  0  0  0
    5.7450   11.2666   29.3293 C   0  0  0  0  0  0  0  0  0  0  0  0
    6.0860   11.3025   30.6802 N   0  0  0  0  0  0  0  0  0  0  0  0
    7.4303   11.1353   30.8507 N   0  0  0  0  0  0  0  0  0  0  0  0
    7.9438   11.0108   29.6170 C   0  0  0  0  0  0  0  0  0  0  0  0
    6.9297   11.0714   28.6288 C   0  0  0  0  0  0  0  0  0  0  0  0
    5.2488   11.4770   31.8255 C   0  0  0  0  0  0  0  0  0  0  0  0
    3.8900   11.7984   31.7127 C   0  0  0  0  0  0  0  0  0  0  0  0
    3.1053   11.9602   32.8598 C   0  0  0  0  0  0  0  0  0  0  0  0
    3.6662   11.8037   34.1252 C   0  0  0  0  0  0  0  0  0  0  0  0
    5.0151   11.4841   34.2499 C   0  0  0  0  0  0  0  0  0  0  0  0
    5.8039   11.3210   33.1083 C   0  0  0  0  0  0  0  0  0  0  0  0
    3.1396   11.4012   26.8774 C   0  0  0  0  0  0  0  0  0  0  0  0
    2.2963   12.4977   26.8485 C   0  0  0  0  0  0  0  0  0  0  0  0
    1.1425   12.0646   26.1768 C   0  0  0  0  0  0  0  0  0  0  0  0
    1.2203   10.7835   25.8163 N   0  0  0  0  0  0  0  0  0  0  0  0
    2.4137   10.3839   26.3016 N   0  0  0  0  0  0  0  0  0  0  0  0
    2.7704    8.9875   26.1918 C   0  0  0  0  0  0  0  0  0  0  0  0
    8.7092   11.8022   25.8333 N   0  0  0  0  0  0  0  0  0  0  0  0
    8.0274   10.7380   26.4172 C   0  0  0  0  0  0  0  0  0  0  0  0
    8.3499    9.5580   26.3007 O   0  0  0  0  0  0  0  0  0  0  0  0
    7.7417   13.9719   25.0977 C   0  0  0  0  0  0  0  0  0  0  0  0
    8.5032   13.2157   26.1738 C   0  0  0  0  0  0  0  0  0  0  0  0
    9.8461   11.4797   24.9688 C   0  0  0  0  0  0  0  0  0  0  0  0
   11.1758   11.8394   25.6149 C   0  0  0  0  0  0  0  0  0  0  0  0
    9.4190   10.8418   29.3882 C   0  0  0  0  0  0  0  0  0  0  0  0
   10.1008   10.5930   30.5427 F   0  0  0  0  0  0  0  0  0  0  0  0
    9.9599   11.9895   28.8868 F   0  0  0  0  0  0  0  0  0  0  0  0
    5.4846   11.0101   25.5963 H   0  0  0  0  0  0  0  0  0  0  0  0
    3.4658   11.9164   30.7793 H   0  0  0  0  0  0  0  0  0  0  0  0
    2.1050   12.1969   32.7678 H   0  0  0  0  0  0  0  0  0  0  0  0
    3.0831   11.9244   34.9681 H   0  0  0  0  0  0  0  0  0  0  0  0
    5.4329   11.3675   35.1863 H   0  0  0  0  0  0  0  0  0  0  0  0
    6.8034   11.0838   33.2073 H   0  0  0  0  0  0  0  0  0  0  0  0
    2.4774   13.4359   27.2385 H   0  0  0  0  0  0  0  0  0  0  0  0
    0.3279   12.6682   25.9842 H   0  0  0  0  0  0  0  0  0  0  0  0
    1.9883    8.4581   25.6888 H   0  0  0  0  0  0  0  0  0  0  0  0
    2.9074    8.5764   27.1701 H   0  0  0  0  0  0  0  0  0  0  0  0
    3.6795    8.8943   25.6352 H   0  0  0  0  0  0  0  0  0  0  0  0
    7.6205   14.9921   25.3967 H   0  0  0  0  0  0  0  0  0  0  0  0
    6.7798   13.5240   24.9599 H   0  0  0  0  0  0  0  0  0  0  0  0
    8.2886   13.9320   24.1789 H   0  0  0  0  0  0  0  0  0  0  0  0
    7.9497   13.2707   27.0879 H   0  0  0  0  0  0  0  0  0  0  0  0
    9.4674   13.6699   26.2679 H   0  0  0  0  0  0  0  0  0  0  0  0
    9.7488   12.0245   24.0530 H   0  0  0  0  0  0  0  0  0  0  0  0
    9.8390   10.4240   24.7948 H   0  0  0  0  0  0  0  0  0  0  0  0
   11.2090   12.8927   25.8001 H   0  0  0  0  0  0  0  0  0  0  0  0
   11.9762   11.5672   24.9591 H   0  0  0  0  0  0  0  0  0  0  0  0
   11.2773   11.3113   26.5399 H   0  0  0  0  0  0  0  0  0  0  0  0
    9.5104   10.0169   28.7129 H   0  0  0  0  0  0  0  0  0  0  0  0
  1  2  2  0
  2  3  1  0
  2 32  1  0
  3  4  2  0
  3 16  1  0
  4  5  1  0
  5  6  1  0
  6  7  1  0
  6 10  1  0
  7  8  2  0
  8 29  1  0
  8  9  1  0
  9  1  1  0
  9  5  2  0
 10 11  2  0
 11 12  1  0
 11 33  1  0
 12 13  2  0
 12 34  1  0
 13 14  1  0
 13 35  1  0
 14 15  2  0
 14 36  1  0
 15 10  1  0
 15 37  1  0
 16 17  2  0
 17 18  1  0
 17 38  1  0
 18 19  2  0
 18 39  1  0
 19 20  1  0
 20 21  1  0
 20 16  1  0
 21 40  1  0
 21 41  1  0
 21 42  1  0
 22 27  1  0
 22 23  1  0
 23 24  2  0
 23  1  1  0
 25 26  1  0
 25 43  1  0
 25 44  1  0
 25 45  1  0
 26 22  1  0
 26 46  1  0
 26 47  1  0
 27 28  1  0
 27 48  1  0
 27 49  1  0
 28 50  1  0
 28 51  1  0
 28 52  1  0
 29 30  1  0
 29 31  1  0
 29 53  1  0
M  END
>  <minimizedAffinity>  (7) 
-8.41047

>  <mol_id>  (7) 
113370

>  <source_index>  (7) 
6

>  <layer>  (7) 
L3

>  <uniprot>  (7) 
Q9HCR9

>  <paff>  (7) 
7.9207999999999998

>  <smiles>  (7) 
CCN(CC)C(=O)c1cc(nc2n(nc(C(F)F)c12)-c1ccccc1)-c1ccnn1C

$$$$
L3:Q9HCR9:121641
     RDKit          3D

 46 50  0  0  0  0  0  0  0  0999 V2000
    3.1257   11.7355   29.6080 C   0  0  0  0  0  0  0  0  0  0  0  0
    3.2468   11.7410   30.9925 C   0  0  0  0  0  0  0  0  0  0  0  0
    4.4992   11.5415   31.5728 C   0  0  0  0  0  0  0  0  0  0  0  0
    5.5948   11.2908   30.7289 C   0  0  0  0  0  0  0  0  0  0  0  0
    6.9869   11.0488   30.8497 C   0  0  0  0  0  0  0  0  0  0  0  0
    7.8124   10.9043   32.0761 C   0  0  0  0  0  0  0  0  0  0  0  0
    7.5872   10.9910   29.6588 N   0  0  0  0  0  0  0  0  0  0  0  0
    6.5689   10.9804   28.7493 N   0  0  0  0  0  0  0  0  0  0  0  0
    5.3432   11.2511   29.3576 C   0  0  0  0  0  0  0  0  0  0  0  0
    4.1489   11.4958   28.7597 N   0  0  0  0  0  0  0  0  0  0  0  0
    6.8768   10.7528   27.3847 C   0  0  0  0  0  0  0  0  0  0  0  0
    7.1909   11.8461   26.5587 C   0  0  0  0  0  0  0  0  0  0  0  0
    7.4780   11.6483   25.2051 C   0  0  0  0  0  0  0  0  0  0  0  0
    7.4764   10.3608   24.6717 C   0  0  0  0  0  0  0  0  0  0  0  0
    7.2091    9.2705   25.4976 C   0  0  0  0  0  0  0  0  0  0  0  0
    6.9212    9.4695   26.8481 C   0  0  0  0  0  0  0  0  0  0  0  0
    6.8194    8.3838   27.6219 F   0  0  0  0  0  0  0  0  0  0  0  0
    4.6715   11.6396   33.0055 C   0  0  0  0  0  0  0  0  0  0  0  0
    5.1059   10.7021   33.8226 N   0  0  0  0  0  0  0  0  0  0  0  0
    5.0688   11.1974   35.1064 N   0  0  0  0  0  0  0  0  0  0  0  0
    4.5849   12.4143   35.0489 C   0  0  0  0  0  0  0  0  0  0  0  0
    4.3125   12.7316   33.7549 N   0  0  0  0  0  0  0  0  0  0  0  0
    3.9098   13.5902   33.4100 H   0  0  0  0  0  0  0  0  0  0  0  0
    0.9418   11.2399   28.3909 N   0  0  0  0  0  0  0  0  0  0  0  0
   -0.1697   11.8636   27.9325 N   0  0  0  0  0  0  0  0  0  0  0  0
    0.0288   13.1434   28.2312 C   0  0  0  0  0  0  0  0  0  0  0  0
    1.2505   13.3467   28.8859 C   0  0  0  0  0  0  0  0  0  0  0  0
    1.8446   12.0955   28.9904 C   0  0  0  0  0  0  0  0  0  0  0  0
    1.5861    9.3876   26.8832 C   0  0  0  0  0  0  0  0  0  0  0  0
    1.0121    9.7999   28.2272 C   0  0  0  0  0  0  0  0  0  0  0  0
    2.4164   11.8915   31.5865 H   0  0  0  0  0  0  0  0  0  0  0  0
    7.1839   10.9735   32.9393 H   0  0  0  0  0  0  0  0  0  0  0  0
    8.5462   11.6825   32.1059 H   0  0  0  0  0  0  0  0  0  0  0  0
    8.3018    9.9528   32.0666 H   0  0  0  0  0  0  0  0  0  0  0  0
    7.2096   12.7994   26.9536 H   0  0  0  0  0  0  0  0  0  0  0  0
    7.6914   12.4566   24.6000 H   0  0  0  0  0  0  0  0  0  0  0  0
    7.6724   10.2153   23.6690 H   0  0  0  0  0  0  0  0  0  0  0  0
    7.2242    8.3144   25.1095 H   0  0  0  0  0  0  0  0  0  0  0  0
    4.4341   13.0350   35.8595 H   0  0  0  0  0  0  0  0  0  0  0  0
   -0.6383   13.8983   28.0073 H   0  0  0  0  0  0  0  0  0  0  0  0
    1.6320   14.2446   29.2225 H   0  0  0  0  0  0  0  0  0  0  0  0
    1.6136    8.3198   26.8195 H   0  0  0  0  0  0  0  0  0  0  0  0
    2.5781    9.7764   26.7846 H   0  0  0  0  0  0  0  0  0  0  0  0
    0.9711    9.7760   26.0984 H   0  0  0  0  0  0  0  0  0  0  0  0
    1.6316    9.3977   29.0014 H   0  0  0  0  0  0  0  0  0  0  0  0
    0.0131    9.4205   28.2808 H   0  0  0  0  0  0  0  0  0  0  0  0
  1  2  2  0
  2  3  1  0
  2 31  1  0
  3 18  1  0
  3  4  2  0
  4  5  1  0
  5  6  1  0
  5  7  2  0
  6 32  1  0
  6 33  1  0
  6 34  1  0
  7  8  1  0
  8 11  1  0
  8  9  1  0
  9 10  2  0
  9  4  1  0
 10  1  1  0
 11 12  2  0
 12 13  1  0
 12 35  1  0
 13 14  2  0
 13 36  1  0
 14 15  1  0
 14 37  1  0
 15 16  2  0
 15 38  1  0
 16 17  1  0
 16 11  1  0
 18 19  2  0
 19 20  1  0
 20 21  2  0
 21 22  1  0
 21 39  1  0
 22 18  1  0
 22 23  1  0
 24 25  1  0
 25 26  2  0
 26 27  1  0
 26 40  1  0
 27 28  2  0
 27 41  1  0
 28  1  1  0
 28 24  1  0
 29 30  1  0
 29 42  1  0
 29 43  1  0
 29 44  1  0
 30 24  1  0
 30 45  1  0
 30 46  1  0
M  END
>  <minimizedAffinity>  (8) 
-9.15737

>  <mol_id>  (8) 
121641

>  <source_index>  (8) 
7

>  <layer>  (8) 
L3

>  <uniprot>  (8) 
Q9HCR9

>  <paff>  (8) 
7.3278999999999996

>  <smiles>  (8) 
CCn1nccc1-c1cc(-c2nnc[nH]2)c2c(C)nn(-c3ccccc3F)c2n1

$$$$
L3:Q9HCR9:134889
     RDKit          3D

 56 59  0  0  0  0  0  0  0  0999 V2000
    2.5787   11.3556   29.4597 C   0  0  0  0  0  0  0  0  0  0  0  0
    2.5771   11.5974   30.8324 C   0  0  0  0  0  0  0  0  0  0  0  0
    3.7992   11.7227   31.4674 C   0  0  0  0  0  0  0  0  0  0  0  0
    5.0032   11.6111   30.8717 N   0  0  0  0  0  0  0  0  0  0  0  0
    4.9599   11.3295   29.5479 C   0  0  0  0  0  0  0  0  0  0  0  0
    6.0287   11.1259   28.6752 N   0  0  0  0  0  0  0  0  0  0  0  0
    5.5854   10.8783   27.4057 N   0  0  0  0  0  0  0  0  0  0  0  0
    4.2514   10.8968   27.4838 C   0  0  0  0  0  0  0  0  0  0  0  0
    3.4406   10.6289   26.2685 C   0  0  0  0  0  0  0  0  0  0  0  0
    3.8015   11.1863   28.7914 C   0  0  0  0  0  0  0  0  0  0  0  0
    7.4335   11.1534   28.9378 C   0  0  0  0  0  0  0  0  0  0  0  0
    7.9542   10.9422   30.2196 C   0  0  0  0  0  0  0  0  0  0  0  0
    9.3368   10.9744   30.4337 C   0  0  0  0  0  0  0  0  0  0  0  0
   10.2094   11.2192   29.3751 C   0  0  0  0  0  0  0  0  0  0  0  0
    9.7032   11.4328   28.0969 C   0  0  0  0  0  0  0  0  0  0  0  0
    8.3236   11.4010   27.8765 C   0  0  0  0  0  0  0  0  0  0  0  0
    3.8771   12.0070   32.8872 C   0  0  0  0  0  0  0  0  0  0  0  0
    4.6856   11.4522   33.8614 C   0  0  0  0  0  0  0  0  0  0  0  0
    4.3263   12.1042   35.0526 C   0  0  0  0  0  0  0  0  0  0  0  0
    3.3704   13.0157   34.8645 N   0  0  0  0  0  0  0  0  0  0  0  0
    3.1409   12.9721   33.5345 N   0  0  0  0  0  0  0  0  0  0  0  0
    2.1958   13.9133   32.9595 C   0  0  0  0  0  0  0  0  0  0  0  0
    1.0270   14.1893   33.8894 C   0  0  0  0  0  0  0  0  0  0  0  0
    0.7890   12.3147   28.0531 N   0  0  0  0  0  0  0  0  0  0  0  0
    1.3052   11.2148   28.7454 C   0  0  0  0  0  0  0  0  0  0  0  0
    0.7521   10.1194   28.8088 O   0  0  0  0  0  0  0  0  0  0  0  0
    0.6152   14.7205   27.3999 C   0  0  0  0  0  0  0  0  0  0  0  0
    1.5154   13.5687   27.8134 C   0  0  0  0  0  0  0  0  0  0  0  0
   -0.4976   12.1321   27.3755 C   0  0  0  0  0  0  0  0  0  0  0  0
   -0.3672   11.5972   25.9583 C   0  0  0  0  0  0  0  0  0  0  0  0
    1.6927   11.6802   31.3578 H   0  0  0  0  0  0  0  0  0  0  0  0
    4.0911   10.4449   25.4391 H   0  0  0  0  0  0  0  0  0  0  0  0
    2.8241   11.4774   26.0569 H   0  0  0  0  0  0  0  0  0  0  0  0
    2.8225    9.7713   26.4340 H   0  0  0  0  0  0  0  0  0  0  0  0
    7.3159   10.7620   31.0102 H   0  0  0  0  0  0  0  0  0  0  0  0
    9.7126   10.8158   31.3817 H   0  0  0  0  0  0  0  0  0  0  0  0
   11.2281   11.2420   29.5388 H   0  0  0  0  0  0  0  0  0  0  0  0
   10.3469   11.6148   27.3111 H   0  0  0  0  0  0  0  0  0  0  0  0
    7.9541   11.5606   26.9262 H   0  0  0  0  0  0  0  0  0  0  0  0
    5.3996   10.7171   33.7398 H   0  0  0  0  0  0  0  0  0  0  0  0
    4.7535   11.9011   35.9698 H   0  0  0  0  0  0  0  0  0  0  0  0
    1.8196   13.5083   32.0433 H   0  0  0  0  0  0  0  0  0  0  0  0
    2.7100   14.8368   32.7935 H   0  0  0  0  0  0  0  0  0  0  0  0
    0.4942   13.2796   34.0723 H   0  0  0  0  0  0  0  0  0  0  0  0
    0.3706   14.9019   33.4354 H   0  0  0  0  0  0  0  0  0  0  0  0
    1.3928   14.5808   34.8156 H   0  0  0  0  0  0  0  0  0  0  0  0
    1.2077   15.5975   27.2427 H   0  0  0  0  0  0  0  0  0  0  0  0
   -0.1015   14.9079   28.1719 H   0  0  0  0  0  0  0  0  0  0  0  0
    0.1055   14.4673   26.4938 H   0  0  0  0  0  0  0  0  0  0  0  0
    2.0243   13.8429   28.7138 H   0  0  0  0  0  0  0  0  0  0  0  0
    2.1916   13.3910   27.0034 H   0  0  0  0  0  0  0  0  0  0  0  0
   -0.9965   13.0778   27.3358 H   0  0  0  0  0  0  0  0  0  0  0  0
   -1.0479   11.4057   27.9362 H   0  0  0  0  0  0  0  0  0  0  0  0
    0.1795   12.2973   25.3617 H   0  0  0  0  0  0  0  0  0  0  0  0
   -1.3416   11.4560   25.5393 H   0  0  0  0  0  0  0  0  0  0  0  0
    0.1522   10.6619   25.9765 H   0  0  0  0  0  0  0  0  0  0  0  0
  1  2  2  0
  2  3  1  0
  2 31  1  0
  3  4  2  0
  3 17  1  0
  4  5  1  0
  5  6  1  0
  6  7  1  0
  6 11  1  0
  7  8  2  0
  8  9  1  0
  8 10  1  0
  9 32  1  0
  9 33  1  0
  9 34  1  0
 10  1  1  0
 10  5  2  0
 11 12  2  0
 12 13  1  0
 12 35  1  0
 13 14  2  0
 13 36  1  0
 14 15  1  0
 14 37  1  0
 15 16  2  0
 15 38  1  0
 16 11  1  0
 16 39  1  0
 17 18  2  0
 18 19  1  0
 18 40  1  0
 19 20  2  0
 19 41  1  0
 20 21  1  0
 21 22  1  0
 21 17  1  0
 22 23  1  0
 22 42  1  0
 22 43  1  0
 23 44  1  0
 23 45  1  0
 23 46  1  0
 24 29  1  0
 24 25  1  0
 25 26  2  0
 25  1  1  0
 27 28  1  0
 27 47  1  0
 27 48  1  0
 27 49  1  0
 28 24  1  0
 28 50  1  0
 28 51  1  0
 29 30  1  0
 29 52  1  0
 29 53  1  0
 30 54  1  0
 30 55  1  0
 30 56  1  0
M  END
>  <minimizedAffinity>  (9) 
-8.44714

>  <mol_id>  (9) 
134889

>  <source_index>  (9) 
8

>  <layer>  (9) 
L3

>  <uniprot>  (9) 
Q9HCR9

>  <paff>  (9) 
7.3010000000000002

>  <smiles>  (9) 
CCN(CC)C(=O)c1cc(nc2n(nc(C)c12)-c1ccccc1)-c1ccnn1CC

$$$$
L3:Q9HCR9:140686
     RDKit          3D

 42 46  0  0  0  0  0  0  0  0999 V2000
    4.9560   11.7119   34.2889 C   0  0  0  0  0  0  0  0  0  0  0  0
    4.9409   11.6435   32.8040 C   0  0  0  0  0  0  0  0  0  0  0  0
    6.0307   11.1759   32.1865 N   0  0  0  0  0  0  0  0  0  0  0  0
    5.7618   11.2694   30.8548 N   0  0  0  0  0  0  0  0  0  0  0  0
    4.4419   11.6513   30.6409 C   0  0  0  0  0  0  0  0  0  0  0  0
    3.7856   11.6784   29.4620 N   0  0  0  0  0  0  0  0  0  0  0  0
    2.5146   12.1033   29.5218 C   0  0  0  0  0  0  0  0  0  0  0  0
    1.8792   12.5029   30.6852 C   0  0  0  0  0  0  0  0  0  0  0  0
    2.5667   12.4352   31.9069 C   0  0  0  0  0  0  0  0  0  0  0  0
    3.8997   11.9635   31.8883 C   0  0  0  0  0  0  0  0  0  0  0  0
    6.7858   10.9425   29.9214 C   0  0  0  0  0  0  0  0  0  0  0  0
    6.4147   10.5527   28.6185 C   0  0  0  0  0  0  0  0  0  0  0  0
    7.3894   10.2463   27.6658 C   0  0  0  0  0  0  0  0  0  0  0  0
    8.7317   10.3124   28.0143 C   0  0  0  0  0  0  0  0  0  0  0  0
    9.6660   10.0148   27.1024 F   0  0  0  0  0  0  0  0  0  0  0  0
    9.1170   10.6632   29.2996 C   0  0  0  0  0  0  0  0  0  0  0  0
    8.1444   10.9685   30.2511 C   0  0  0  0  0  0  0  0  0  0  0  0
    8.5753   11.1831   31.4997 F   0  0  0  0  0  0  0  0  0  0  0  0
    1.8570   12.1552   28.2246 C   0  0  0  0  0  0  0  0  0  0  0  0
    1.8307   13.1808   27.2956 C   0  0  0  0  0  0  0  0  0  0  0  0
    1.0396   12.7089   26.2374 C   0  0  0  0  0  0  0  0  0  0  0  0
    0.6045   11.4664   26.4487 N   0  0  0  0  0  0  0  0  0  0  0  0
    1.1624   11.1274   27.6295 N   0  0  0  0  0  0  0  0  0  0  0  0
    1.0042    9.7700   28.0986 C   0  0  0  0  0  0  0  0  0  0  0  0
    1.9348   12.8416   33.1473 C   0  0  0  0  0  0  0  0  0  0  0  0
    1.3230   12.1460   34.0826 N   0  0  0  0  0  0  0  0  0  0  0  0
    0.9176   13.0419   35.0493 N   0  0  0  0  0  0  0  0  0  0  0  0
    1.3209   14.2196   34.6406 C   0  0  0  0  0  0  0  0  0  0  0  0
    1.9743   14.1840   33.4471 O   0  0  0  0  0  0  0  0  0  0  0  0
    5.9116   11.3945   34.6509 H   0  0  0  0  0  0  0  0  0  0  0  0
    4.1946   11.0718   34.6832 H   0  0  0  0  0  0  0  0  0  0  0  0
    4.7727   12.7187   34.6015 H   0  0  0  0  0  0  0  0  0  0  0  0
    0.9071   12.8480   30.6543 H   0  0  0  0  0  0  0  0  0  0  0  0
    5.4157   10.4932   28.3666 H   0  0  0  0  0  0  0  0  0  0  0  0
    7.1136    9.9727   26.7097 H   0  0  0  0  0  0  0  0  0  0  0  0
   10.1175   10.6981   29.5503 H   0  0  0  0  0  0  0  0  0  0  0  0
    2.2954   14.0996   27.3664 H   0  0  0  0  0  0  0  0  0  0  0  0
    0.8198   13.2599   25.3929 H   0  0  0  0  0  0  0  0  0  0  0  0
    0.4047    9.2200   27.4036 H   0  0  0  0  0  0  0  0  0  0  0  0
    0.5252    9.7768   29.0554 H   0  0  0  0  0  0  0  0  0  0  0  0
    1.9655    9.3079   28.1842 H   0  0  0  0  0  0  0  0  0  0  0  0
    1.1589   15.0894   35.1718 H   0  0  0  0  0  0  0  0  0  0  0  0
  1  2  1  0
  1 30  1  0
  1 31  1  0
  1 32  1  0
  2  3  2  0
  3  4  1  0
  4 11  1  0
  4  5  1  0
  5  6  2  0
  6  7  1  0
  7 19  1  0
  7  8  2  0
  8  9  1  0
  8 33  1  0
  9 25  1  0
  9 10  2  0
 10  2  1  0
 10  5  1  0
 11 12  2  0
 12 13  1  0
 12 34  1  0
 13 14  2  0
 13 35  1  0
 14 15  1  0
 14 16  1  0
 16 17  2  0
 16 36  1  0
 17 18  1  0
 17 11  1  0
 19 20  2  0
 20 21  1  0
 20 37  1  0
 21 22  2  0
 21 38  1  0
 22 23  1  0
 23 24  1  0
 23 19  1  0
 24 39  1  0
 24 40  1  0
 24 41  1  0
 25 26  2  0
 26 27  1  0
 27 28  2  0
 28 29  1  0
 28 42  1  0
 29 25  1  0
M  END
>  <minimizedAffinity>  (10) 
-9.82377

>  <mol_id>  (10) 
140686

>  <source_index>  (10) 
9

>  <layer>  (10) 
L3

>  <uniprot>  (10) 
Q9HCR9

>  <paff>  (10) 
7.4089

>  <smiles>  (10) 
Cc1nn(-c2ccc(F)cc2F)c2nc(-c3ccnn3C)cc(-c3nnco3)c12

$$$$
