L1:P62937:19634
     RDKit          3D

214214  0  0  0  0  0  0  0  0999 V2000
    2.7062    4.1976    0.4941 C   0  0  0  0  0  0  0  0  0  0  0  0
    1.9171    2.9378    0.8322 C   0  0  0  0  0  0  0  0  0  0  0  0
    1.9495    1.8290   -0.2354 C   0  0  2  0  0  0  0  0  0  0  0  0
    3.2831    1.4721   -0.7116 N   0  0  0  0  0  0  0  0  0  0  0  0
    4.2829    0.9936    0.0975 C   0  0  0  0  0  0  0  0  0  0  0  0
    4.1347    0.8316    1.3097 O   0  0  0  0  0  0  0  0  0  0  0  0
    5.5730    0.5279   -0.6152 C   0  0  2  0  0  0  0  0  0  0  0  0
    6.0775    1.4936   -1.7289 C   0  0  2  0  0  0  0  0  0  0  0  0
    7.0452    0.8407   -2.5623 O   0  0  0  0  0  0  0  0  0  0  0  0
    6.7179    2.7902   -1.1518 C   0  0  2  0  0  0  0  0  0  0  0  0
    6.7929    3.8643   -2.2461 C   0  0  0  0  0  0  0  0  0  0  0  0
    8.1221    2.5398   -0.5547 C   0  0  0  0  0  0  0  0  0  0  0  0
    8.6385    3.7110    0.2947 C   0  0  0  0  0  0  0  0  0  0  0  0
    9.9292    3.3714    1.0505 C   0  0  0  0  0  0  0  0  0  0  0  0
    9.7232    2.8855    2.4921 C   0  0  0  0  0  0  0  0  0  0  0  0
    8.9409    1.5764    2.6093 C   0  0  0  0  0  0  0  0  0  0  0  0
    8.9198    1.0270    4.0338 C   0  0  0  0  0  0  0  0  0  0  0  0
    8.1778    1.8914    4.9279 N   0  0  0  0  0  0  0  0  0  0  0  0
    8.7091    2.3627    6.1076 C   0  0  0  0  0  0  0  0  0  0  0  0
    7.7825    3.2825    6.8559 C   0  0  0  0  0  0  0  0  0  0  0  0
    9.8343    2.0911    6.5135 O   0  0  0  0  0  0  0  0  0  0  0  0
    5.4141   -0.9082   -0.9884 N   0  0  0  0  0  0  0  0  0  0  0  0
    5.9529   -1.8421   -0.0016 C   0  0  0  0  0  0  0  0  0  0  0  0
    4.6259   -1.2567   -2.0796 C   0  0  0  0  0  0  0  0  0  0  0  0
    4.1408   -0.3721   -2.7994 O   0  0  0  0  0  0  0  0  0  0  0  0
    4.4035   -2.7604   -2.4334 C   0  0  2  0  0  0  0  0  0  0  0  0
    5.4530   -3.3617   -3.4237 C   0  0  0  0  0  0  0  0  0  0  0  0
    6.5453   -4.1526   -2.6889 C   0  0  0  0  0  0  0  0  0  0  0  0
    6.1323   -2.3494   -4.3516 C   0  0  0  0  0  0  0  0  0  0  0  0
    2.9856   -2.9898   -2.8607 N   0  0  0  0  0  0  0  0  0  0  0  0
    2.5933   -2.6578   -4.2226 C   0  0  0  0  0  0  0  0  0  0  0  0
    2.0666   -3.3491   -1.8646 C   0  0  0  0  0  0  0  0  0  0  0  0
    2.4485   -3.4507   -0.6899 O   0  0  0  0  0  0  0  0  0  0  0  0
    0.5907   -3.7391   -2.2573 C   0  0  2  0  0  0  0  0  0  0  0  0
   -0.2938   -2.6174   -2.8588 C   0  0  0  0  0  0  0  0  0  0  0  0
   -0.9597   -2.9664   -4.2150 C   0  0  0  0  0  0  0  0  0  0  0  0
   -1.9660   -4.1124   -4.0930 C   0  0  0  0  0  0  0  0  0  0  0  0
   -1.6623   -1.7273   -4.7810 C   0  0  0  0  0  0  0  0  0  0  0  0
   -0.0293   -4.4169   -1.0756 N   0  0  0  0  0  0  0  0  0  0  0  0
   -0.1193   -5.8639   -1.1450 C   0  0  0  0  0  0  0  0  0  0  0  0
   -0.2929   -3.6427    0.0531 C   0  0  0  0  0  0  0  0  0  0  0  0
   -0.3619   -2.4082   -0.0606 O   0  0  0  0  0  0  0  0  0  0  0  0
   -0.3635   -4.2197    1.5169 C   0  0  2  0  0  0  0  0  0  0  0  0
   -0.6063   -5.7043    1.8400 C   0  0  0  0  0  0  0  0  0  0  0  0
   -0.5786   -6.0747    3.3435 C   0  0  0  0  0  0  0  0  0  0  0  0
   -0.9996   -7.5391    3.5167 C   0  0  0  0  0  0  0  0  0  0  0  0
    0.8083   -5.8877    3.9646 C   0  0  0  0  0  0  0  0  0  0  0  0
   -1.2282   -3.2982    2.3257 N   0  0  0  0  0  0  0  0  0  0  0  0
   -0.5207   -2.3382    3.1646 C   0  0  0  0  0  0  0  0  0  0  0  0
   -2.6007   -3.1202    2.1706 C   0  0  0  0  0  0  0  0  0  0  0  0
   -3.2209   -2.2500    2.8036 O   0  0  0  0  0  0  0  0  0  0  0  0
   -3.3846   -4.0170    1.1917 C   0  0  1  0  0  0  0  0  0  0  0  0
   -4.1728   -5.0566    1.9822 C   0  0  0  0  0  0  0  0  0  0  0  0
   -4.2988   -3.1557    0.4590 N   0  0  0  0  0  0  0  0  0  0  0  0
   -4.8665   -3.4985   -0.7454 C   0  0  0  0  0  0  0  0  0  0  0  0
   -4.5254   -4.4982   -1.3782 O   0  0  0  0  0  0  0  0  0  0  0  0
   -5.9129   -2.4914   -1.2751 C   0  0  2  0  0  0  0  0  0  0  0  0
   -5.3753   -1.8185   -2.5305 C   0  0  0  0  0  0  0  0  0  0  0  0
   -6.2768   -1.4806   -0.2802 N   0  0  0  0  0  0  0  0  0  0  0  0
   -7.1444   -1.7264    0.7553 C   0  0  0  0  0  0  0  0  0  0  0  0
   -7.7012   -2.8133    0.8945 O   0  0  0  0  0  0  0  0  0  0  0  0
   -7.4829   -0.5204    1.6661 C   0  0  2  0  0  0  0  0  0  0  0  0
   -8.5820    0.3677    1.0437 C   0  0  0  0  0  0  0  0  0  0  0  0
   -9.9643   -0.3049    0.8839 C   0  0  0  0  0  0  0  0  0  0  0  0
  -10.9142    0.6573    0.1645 C   0  0  0  0  0  0  0  0  0  0  0  0
  -10.5768   -0.7244    2.2226 C   0  0  0  0  0  0  0  0  0  0  0  0
   -6.2951    0.2726    2.1056 N   0  0  0  0  0  0  0  0  0  0  0  0
   -5.7707   -0.0675    3.4229 C   0  0  0  0  0  0  0  0  0  0  0  0
   -5.6952    1.1917    1.2644 C   0  0  0  0  0  0  0  0  0  0  0  0
   -5.8882    1.1344    0.0401 O   0  0  0  0  0  0  0  0  0  0  0  0
   -4.8132    2.3419    1.8296 C   0  0  2  0  0  0  0  0  0  0  0  0
   -5.6589    3.5451    2.3231 C   0  0  0  0  0  0  0  0  0  0  0  0
   -6.6257    4.0879    1.2652 C   0  0  0  0  0  0  0  0  0  0  0  0
   -6.4236    3.2421    3.6121 C   0  0  0  0  0  0  0  0  0  0  0  0
   -3.9327    2.7093    0.7127 N   0  0  0  0  0  0  0  0  0  0  0  0
   -2.9120    3.6307    0.7621 C   0  0  0  0  0  0  0  0  0  0  0  0
   -2.5734    4.1764    1.8082 O   0  0  0  0  0  0  0  0  0  0  0  0
   -2.1214    3.7721   -0.5734 C   0  0  2  0  0  0  0  0  0  0  0  0
   -1.2527    5.0422   -0.6869 C   0  0  0  0  0  0  0  0  0  0  0  0
   -1.8539    6.4450   -0.9061 C   0  0  0  0  0  0  0  0  0  0  0  0
   -2.2963    6.7101   -2.3453 C   0  0  0  0  0  0  0  0  0  0  0  0
   -2.9308    6.8393    0.1006 C   0  0  0  0  0  0  0  0  0  0  0  0
   -2.8362    3.3510   -1.8070 N   0  0  0  0  0  0  0  0  0  0  0  0
   -4.1783    3.8740   -2.0500 C   0  0  0  0  0  0  0  0  0  0  0  0
   -2.4500    2.3112   -2.6513 C   0  0  0  0  0  0  0  0  0  0  0  0
   -3.2983    1.7637   -3.3725 O   0  0  0  0  0  0  0  0  0  0  0  0
   -0.9567    1.9380   -2.8916 C   0  0  1  0  0  0  0  0  0  0  0  0
   -0.4293    2.9116   -3.9509 C   0  0  0  0  0  0  0  0  0  0  0  0
   -0.1095    1.6415   -1.7136 N   0  0  0  0  0  0  0  0  0  0  0  0
   -0.5394    0.4996   -0.9116 C   0  0  0  0  0  0  0  0  0  0  0  0
    1.1193    2.2576   -1.4786 C   0  0  0  0  0  0  0  0  0  0  0  0
    1.5847    3.1171   -2.2318 O   0  0  0  0  0  0  0  0  0  0  0  0
    2.3067    4.7042   -0.3883 H   0  0  0  0  0  0  0  0  0  0  0  0
    2.6551    4.9026    1.3316 H   0  0  0  0  0  0  0  0  0  0  0  0
    3.7630    3.9764    0.3191 H   0  0  0  0  0  0  0  0  0  0  0  0
    2.3030    2.5428    1.7787 H   0  0  0  0  0  0  0  0  0  0  0  0
    0.8759    3.2208    1.0258 H   0  0  0  0  0  0  0  0  0  0  0  0
    1.5576    0.9174    0.2201 H   0  0  0  0  0  0  0  0  0  0  0  0
    3.3821    1.3422   -1.7179 H   0  0  0  0  0  0  0  0  0  0  0  0
    6.3360    0.5347    0.1710 H   0  0  0  0  0  0  0  0  0  0  0  0
    5.2573    1.7942   -2.3875 H   0  0  0  0  0  0  0  0  0  0  0  0
    6.5249    0.2698   -3.1551 H   0  0  0  0  0  0  0  0  0  0  0  0
    6.0561    3.1721   -0.3649 H   0  0  0  0  0  0  0  0  0  0  0  0
    7.1294    4.8211   -1.8387 H   0  0  0  0  0  0  0  0  0  0  0  0
    7.4831    3.5760   -3.0461 H   0  0  0  0  0  0  0  0  0  0  0  0
    5.8070    4.0362   -2.6920 H   0  0  0  0  0  0  0  0  0  0  0  0
    8.8448    2.3420   -1.3563 H   0  0  0  0  0  0  0  0  0  0  0  0
    8.1067    1.6356    0.0553 H   0  0  0  0  0  0  0  0  0  0  0  0
    8.8507    4.5547   -0.3736 H   0  0  0  0  0  0  0  0  0  0  0  0
    7.8668    4.0460    0.9981 H   0  0  0  0  0  0  0  0  0  0  0  0
   10.5252    2.6426    0.4874 H   0  0  0  0  0  0  0  0  0  0  0  0
   10.5368    4.2844    1.1066 H   0  0  0  0  0  0  0  0  0  0  0  0
   10.7133    2.7551    2.9484 H   0  0  0  0  0  0  0  0  0  0  0  0
    9.2183    3.6751    3.0623 H   0  0  0  0  0  0  0  0  0  0  0  0
    9.3919    0.8244    1.9508 H   0  0  0  0  0  0  0  0  0  0  0  0
    7.9074    1.7337    2.2774 H   0  0  0  0  0  0  0  0  0  0  0  0
    9.9382    0.8688    4.4019 H   0  0  0  0  0  0  0  0  0  0  0  0
    8.4090    0.0582    4.0394 H   0  0  0  0  0  0  0  0  0  0  0  0
    7.2190    2.1157    4.6949 H   0  0  0  0  0  0  0  0  0  0  0  0
    6.7480    2.9306    6.7944 H   0  0  0  0  0  0  0  0  0  0  0  0
    7.8525    4.2849    6.4232 H   0  0  0  0  0  0  0  0  0  0  0  0
    8.0760    3.3193    7.9096 H   0  0  0  0  0  0  0  0  0  0  0  0
    5.8779   -2.8855   -0.2848 H   0  0  0  0  0  0  0  0  0  0  0  0
    7.0158   -1.6168    0.1467 H   0  0  0  0  0  0  0  0  0  0  0  0
    5.4193   -1.6987    0.9439 H   0  0  0  0  0  0  0  0  0  0  0  0
    4.4929   -3.3359   -1.5141 H   0  0  0  0  0  0  0  0  0  0  0  0
    4.9392   -4.0993   -4.0541 H   0  0  0  0  0  0  0  0  0  0  0  0
    7.1956   -4.6627   -3.4080 H   0  0  0  0  0  0  0  0  0  0  0  0
    7.1785   -3.4995   -2.0777 H   0  0  0  0  0  0  0  0  0  0  0  0
    6.1072   -4.9210   -2.0415 H   0  0  0  0  0  0  0  0  0  0  0  0
    6.6923   -2.8733   -5.1335 H   0  0  0  0  0  0  0  0  0  0  0  0
    5.4163   -1.6907   -4.8513 H   0  0  0  0  0  0  0  0  0  0  0  0
    6.8480   -1.7305   -3.8047 H   0  0  0  0  0  0  0  0  0  0  0  0
    1.9121   -3.4218   -4.6002 H   0  0  0  0  0  0  0  0  0  0  0  0
    2.1030   -1.6813   -4.2286 H   0  0  0  0  0  0  0  0  0  0  0  0
    3.4455   -2.6261   -4.8996 H   0  0  0  0  0  0  0  0  0  0  0  0
    0.7236   -4.5108   -3.0271 H   0  0  0  0  0  0  0  0  0  0  0  0
   -1.1196   -2.3530   -2.1878 H   0  0  0  0  0  0  0  0  0  0  0  0
    0.3017   -1.7066   -2.9749 H   0  0  0  0  0  0  0  0  0  0  0  0
   -0.1911   -3.2607   -4.9387 H   0  0  0  0  0  0  0  0  0  0  0  0
   -1.4789   -5.0483   -3.8036 H   0  0  0  0  0  0  0  0  0  0  0  0
   -2.4634   -4.2921   -5.0539 H   0  0  0  0  0  0  0  0  0  0  0  0
   -2.7395   -3.8891   -3.3498 H   0  0  0  0  0  0  0  0  0  0  0  0
   -0.9410   -0.9249   -4.9704 H   0  0  0  0  0  0  0  0  0  0  0  0
   -2.4234   -1.3531   -4.0911 H   0  0  0  0  0  0  0  0  0  0  0  0
   -2.1538   -1.9590   -5.7311 H   0  0  0  0  0  0  0  0  0  0  0  0
   -1.0063   -6.2112   -0.6171 H   0  0  0  0  0  0  0  0  0  0  0  0
   -0.2120   -6.1970   -2.1832 H   0  0  0  0  0  0  0  0  0  0  0  0
    0.7908   -6.2967   -0.7207 H   0  0  0  0  0  0  0  0  0  0  0  0
    0.6652   -4.0375    1.8601 H   0  0  0  0  0  0  0  0  0  0  0  0
    0.1701   -6.3033    1.3570 H   0  0  0  0  0  0  0  0  0  0  0  0
   -1.5610   -6.0366    1.4268 H   0  0  0  0  0  0  0  0  0  0  0  0
   -1.3054   -5.4596    3.8820 H   0  0  0  0  0  0  0  0  0  0  0  0
   -1.9674   -7.7339    3.0460 H   0  0  0  0  0  0  0  0  0  0  0  0
   -0.2612   -8.2150    3.0689 H   0  0  0  0  0  0  0  0  0  0  0  0
   -1.0801   -7.7976    4.5791 H   0  0  0  0  0  0  0  0  0  0  0  0
    1.5606   -6.4832    3.4334 H   0  0  0  0  0  0  0  0  0  0  0  0
    1.1342   -4.8458    3.9362 H   0  0  0  0  0  0  0  0  0  0  0  0
    0.8119   -6.2054    5.0140 H   0  0  0  0  0  0  0  0  0  0  0  0
    0.1530   -2.8734    3.8411 H   0  0  0  0  0  0  0  0  0  0  0  0
    0.0623   -1.6688    2.5221 H   0  0  0  0  0  0  0  0  0  0  0  0
   -1.2007   -1.7326    3.7736 H   0  0  0  0  0  0  0  0  0  0  0  0
   -2.7369   -4.5013    0.4635 H   0  0  0  0  0  0  0  0  0  0  0  0
   -3.5309   -5.6342    2.6518 H   0  0  0  0  0  0  0  0  0  0  0  0
   -4.9426   -4.5786    2.5982 H   0  0  0  0  0  0  0  0  0  0  0  0
   -4.6867   -5.7529    1.3092 H   0  0  0  0  0  0  0  0  0  0  0  0
   -4.6192   -2.3053    0.9105 H   0  0  0  0  0  0  0  0  0  0  0  0
   -6.8146   -3.0685   -1.5140 H   0  0  0  0  0  0  0  0  0  0  0  0
   -4.4747   -1.2334   -2.3104 H   0  0  0  0  0  0  0  0  0  0  0  0
   -5.1137   -2.5565   -3.2963 H   0  0  0  0  0  0  0  0  0  0  0  0
   -6.1217   -1.1403   -2.9558 H   0  0  0  0  0  0  0  0  0  0  0  0
   -5.9619   -0.5191   -0.4169 H   0  0  0  0  0  0  0  0  0  0  0  0
   -7.8857   -0.9555    2.5890 H   0  0  0  0  0  0  0  0  0  0  0  0
   -8.6986    1.2715    1.6567 H   0  0  0  0  0  0  0  0  0  0  0  0
   -8.2627    0.7062    0.0504 H   0  0  0  0  0  0  0  0  0  0  0  0
   -9.8625   -1.1985    0.2564 H   0  0  0  0  0  0  0  0  0  0  0  0
  -10.5094    0.9483   -0.8099 H   0  0  0  0  0  0  0  0  0  0  0  0
  -11.8891    0.1895   -0.0060 H   0  0  0  0  0  0  0  0  0  0  0  0
  -11.0715    1.5673    0.7515 H   0  0  0  0  0  0  0  0  0  0  0  0
  -11.5976   -1.0967    2.0847 H   0  0  0  0  0  0  0  0  0  0  0  0
  -10.0024   -1.5288    2.6918 H   0  0  0  0  0  0  0  0  0  0  0  0
  -10.6176    0.1165    2.9217 H   0  0  0  0  0  0  0  0  0  0  0  0
   -5.6140   -1.1508    3.4668 H   0  0  0  0  0  0  0  0  0  0  0  0
   -4.8206    0.4163    3.6428 H   0  0  0  0  0  0  0  0  0  0  0  0
   -6.5088    0.2124    4.1814 H   0  0  0  0  0  0  0  0  0  0  0  0
   -4.1503    1.9931    2.6212 H   0  0  0  0  0  0  0  0  0  0  0  0
   -4.9706    4.3654    2.5681 H   0  0  0  0  0  0  0  0  0  0  0  0
   -7.1400    4.9808    1.6377 H   0  0  0  0  0  0  0  0  0  0  0  0
   -7.3943    3.3552    0.9974 H   0  0  0  0  0  0  0  0  0  0  0  0
   -6.0970    4.3738    0.3518 H   0  0  0  0  0  0  0  0  0  0  0  0
   -6.8859    4.1552    4.0051 H   0  0  0  0  0  0  0  0  0  0  0  0
   -7.2265    2.5162    3.4508 H   0  0  0  0  0  0  0  0  0  0  0  0
   -5.7509    2.8572    4.3864 H   0  0  0  0  0  0  0  0  0  0  0  0
   -4.0855    2.2106   -0.1606 H   0  0  0  0  0  0  0  0  0  0  0  0
   -1.3854    2.9907   -0.4028 H   0  0  0  0  0  0  0  0  0  0  0  0
   -0.5124    4.8783   -1.4771 H   0  0  0  0  0  0  0  0  0  0  0  0
   -0.6630    5.1076    0.2380 H   0  0  0  0  0  0  0  0  0  0  0  0
   -1.0174    7.1395   -0.7371 H   0  0  0  0  0  0  0  0  0  0  0  0
   -1.5453    6.3568   -3.0595 H   0  0  0  0  0  0  0  0  0  0  0  0
   -2.4183    7.7883   -2.5066 H   0  0  0  0  0  0  0  0  0  0  0  0
   -3.2515    6.2446   -2.5885 H   0  0  0  0  0  0  0  0  0  0  0  0
   -3.8234    6.2175    0.0243 H   0  0  0  0  0  0  0  0  0  0  0  0
   -2.5483    6.7717    1.1235 H   0  0  0  0  0  0  0  0  0  0  0  0
   -3.2419    7.8766   -0.0603 H   0  0  0  0  0  0  0  0  0  0  0  0
   -4.2597    4.1639   -3.1031 H   0  0  0  0  0  0  0  0  0  0  0  0
   -4.9248    3.0940   -1.8683 H   0  0  0  0  0  0  0  0  0  0  0  0
   -4.3901    4.7357   -1.4237 H   0  0  0  0  0  0  0  0  0  0  0  0
   -1.0003    0.9673   -3.4059 H   0  0  0  0  0  0  0  0  0  0  0  0
    0.5351    2.5850   -4.3546 H   0  0  0  0  0  0  0  0  0  0  0  0
   -1.1238    2.9679   -4.7961 H   0  0  0  0  0  0  0  0  0  0  0  0
   -0.3280    3.9267   -3.5601 H   0  0  0  0  0  0  0  0  0  0  0  0
   -1.5097    0.1165   -1.2461 H   0  0  0  0  0  0  0  0  0  0  0  0
    0.2185   -0.2802   -1.0200 H   0  0  0  0  0  0  0  0  0  0  0  0
   -0.6179    0.7956    0.1388 H   0  0  0  0  0  0  0  0  0  0  0  0
  1  2  1  0
  2  3  1  0
  3  4  1  0
  4  5  1  0
  5  6  2  0
  5  7  1  0
  7  8  1  0
  8  9  1  0
  8 10  1  0
 10 11  1  0
 10 12  1  0
 12 13  1  0
 13 14  1  0
 14 15  1  0
 15 16  1  0
 16 17  1  0
 17 18  1  0
 18 19  1  0
 19 20  1  0
 19 21  2  0
  7 22  1  0
 22 23  1  0
 22 24  1  0
 24 25  2  0
 24 26  1  0
 26 27  1  0
 27 28  1  0
 27 29  1  0
 26 30  1  0
 30 31  1  0
 30 32  1  0
 32 33  2  0
 32 34  1  0
 34 35  1  0
 35 36  1  0
 36 37  1  0
 36 38  1  0
 34 39  1  0
 39 40  1  0
 39 41  1  0
 41 42  2  0
 41 43  1  0
 43 44  1  0
 44 45  1  0
 45 46  1  0
 45 47  1  0
 43 48  1  0
 48 49  1  0
 48 50  1  0
 50 51  2  0
 50 52  1  0
 52 53  1  0
 52 54  1  0
 54 55  1  0
 55 56  2  0
 55 57  1  0
 57 58  1  0
 57 59  1  0
 59 60  1  0
 60 61  2  0
 60 62  1  0
 62 63  1  0
 63 64  1  0
 64 65  1  0
 64 66  1  0
 62 67  1  0
 67 68  1  0
 67 69  1  0
 69 70  2  0
 69 71  1  0
 71 72  1  0
 72 73  1  0
 72 74  1  0
 71 75  1  0
 75 76  1  0
 76 77  2  0
 76 78  1  0
 78 79  1  0
 79 80  1  0
 80 81  1  0
 80 82  1  0
 78 83  1  0
 83 84  1  0
 83 85  1  0
 85 86  2  0
 85 87  1  0
 87 88  1  0
 87 89  1  0
 89 90  1  0
 89 91  1  0
 91 92  2  0
 91  3  1  0
  1 93  1  0
  1 94  1  0
  1 95  1  0
  2 96  1  0
  2 97  1  0
  3 98  1  1
  4 99  1  0
  7100  1  1
  8101  1  6
  9102  1  0
 10103  1  1
 11104  1  0
 11105  1  0
 11106  1  0
 12107  1  0
 12108  1  0
 13109  1  0
 13110  1  0
 14111  1  0
 14112  1  0
 15113  1  0
 15114  1  0
 16115  1  0
 16116  1  0
 17117  1  0
 17118  1  0
 18119  1  0
 20120  1  0
 20121  1  0
 20122  1  0
 23123  1  0
 23124  1  0
 23125  1  0
 26126  1  1
 27127  1  0
 28128  1  0
 28129  1  0
 28130  1  0
 29131  1  0
 29132  1  0
 29133  1  0
 31134  1  0
 31135  1  0
 31136  1  0
 34137  1  6
 35138  1  0
 35139  1  0
 36140  1  0
 37141  1  0
 37142  1  0
 37143  1  0
 38144  1  0
 38145  1  0
 38146  1  0
 40147  1  0
 40148  1  0
 40149  1  0
 43150  1  1
 44151  1  0
 44152  1  0
 45153  1  0
 46154  1  0
 46155  1  0
 46156  1  0
 47157  1  0
 47158  1  0
 47159  1  0
 49160  1  0
 49161  1  0
 49162  1  0
 52163  1  6
 53164  1  0
 53165  1  0
 53166  1  0
 54167  1  0
 57168  1  6
 58169  1  0
 58170  1  0
 58171  1  0
 59172  1  0
 62173  1  1
 63174  1  0
 63175  1  0
 64176  1  0
 65177  1  0
 65178  1  0
 65179  1  0
 66180  1  0
 66181  1  0
 66182  1  0
 68183  1  0
 68184  1  0
 68185  1  0
 71186  1  1
 72187  1  0
 73188  1  0
 73189  1  0
 73190  1  0
 74191  1  0
 74192  1  0
 74193  1  0
 75194  1  0
 78195  1  1
 79196  1  0
 79197  1  0
 80198  1  0
 81199  1  0
 81200  1  0
 81201  1  0
 82202  1  0
 82203  1  0
 82204  1  0
 84205  1  0
 84206  1  0
 84207  1  0
 87208  1  6
 88209  1  0
 88210  1  0
 88211  1  0
 90212  1  0
 90213  1  0
 90214  1  0
M  END
>  <mol_id>  (1) 
19634

>  <source_index>  (1) 
0

>  <layer>  (1) 
L1

>  <uniprot>  (1) 
P62937

>  <paff>  (1) 
8.6021000000000001

>  <smiles>  (1) 
C.CC[C@@H]1NC(=O)[C@H]([C@H](O)[C@H](C)CCCCCCNC(C)=O)N(C)C(=O)[C@H](C(C)C)N(C)C(=O)[C@H](CC(C)C)N(C)C(=O)[C@H](CC(C)C)N(C)C(=O)[C@@H](C)NC(=O)[C@H](C)NC(=O)[C@H](CC(C)C)N(C)C(=O)[C@H](C(C)C)NC(=O)[C@H](CC(C)C)N(C)C(=O)[C@@H](C)N(C)C1=O

$$$$
