L1:P62937:19634
 OpenBabel09212617523D

214214  0  0  0  0  0  0  0  0999 V2000
   51.6868   50.7913   53.6796 C   0  0  2  0  0  0  0  0  0  0  0  0
   52.7666   50.6446   54.6517 N   0  0  0  0  0  0  0  0  0  0  0  0
   54.0408   51.1159   54.4583 C   0  0  0  0  0  0  0  0  0  0  0  0
   54.3820   51.7028   53.4303 O   0  0  0  0  0  0  0  0  0  0  0  0
   55.0013   51.0000   55.6638 C   0  0  1  0  0  0  0  0  0  0  0  0
   54.8538   52.2241   56.5044 N   0  0  0  0  0  0  0  0  0  0  0  0
   55.8164   53.2789   56.1929 C   0  0  0  0  0  0  0  0  0  0  0  0
   53.7477   52.3641   57.3354 C   0  0  0  0  0  0  0  0  0  0  0  0
   52.9409   51.4307   57.4530 O   0  0  0  0  0  0  0  0  0  0  0  0
   53.5558   53.6713   58.1660 C   0  0  1  0  0  0  0  0  0  0  0  0
   52.1118   54.0720   58.1788 N   0  0  0  0  0  0  0  0  0  0  0  0
   51.2000   53.4072   59.0984 C   0  0  0  0  0  0  0  0  0  0  0  0
   51.6813   54.9482   57.1725 C   0  0  0  0  0  0  0  0  0  0  0  0
   52.4897   55.3427   56.3199 O   0  0  0  0  0  0  0  0  0  0  0  0
   50.2130   55.5207   57.2008 C   0  0  1  0  0  0  0  0  0  0  0  0
   50.1593   56.6793   56.2547 N   0  0  0  0  0  0  0  0  0  0  0  0
   50.1918   57.9984   56.8594 C   0  0  0  0  0  0  0  0  0  0  0  0
   50.2708   56.4107   54.8916 C   0  0  0  0  0  0  0  0  0  0  0  0
   50.0431   55.2619   54.4790 O   0  0  0  0  0  0  0  0  0  0  0  0
   50.8198   57.4420   53.8353 C   0  0  1  0  0  0  0  0  0  0  0  0
   50.2424   57.0737   52.5004 N   0  0  0  0  0  0  0  0  0  0  0  0
   51.1183   56.3104   51.6195 C   0  0  0  0  0  0  0  0  0  0  0  0
   48.9040   57.1825   52.1314 C   0  0  0  0  0  0  0  0  0  0  0  0
   48.4895   56.7449   51.0454 O   0  0  0  0  0  0  0  0  0  0  0  0
   47.8983   57.8594   53.0839 C   0  0  1  0  0  0  0  0  0  0  0  0
   47.5764   59.2575   52.5656 C   0  0  0  0  0  0  0  0  0  0  0  0
   46.6944   57.0439   53.0868 N   0  0  0  0  0  0  0  0  0  0  0  0
   45.7474   57.0890   54.0826 C   0  0  0  0  0  0  0  0  0  0  0  0
   45.9180   57.7106   55.1317 O   0  0  0  0  0  0  0  0  0  0  0  0
   44.4849   56.2392   53.8110 C   0  0  2  0  0  0  0  0  0  0  0  0
   44.4353   55.0800   54.7966 C   0  0  0  0  0  0  0  0  0  0  0  0
   44.4301   55.7336   52.4379 N   0  0  0  0  0  0  0  0  0  0  0  0
   44.0507   56.5073   51.3688 C   0  0  0  0  0  0  0  0  0  0  0  0
   43.6983   57.6771   51.5039 O   0  0  0  0  0  0  0  0  0  0  0  0
   43.9682   55.7895   49.9990 C   0  0  1  0  0  0  0  0  0  0  0  0
   45.1500   54.9325   49.6800 N   0  0  0  0  0  0  0  0  0  0  0  0
   46.1670   55.5587   48.8437 C   0  0  0  0  0  0  0  0  0  0  0  0
   45.2912   53.6719   50.2305 C   0  0  0  0  0  0  0  0  0  0  0  0
   44.6532   53.3615   51.2483 O   0  0  0  0  0  0  0  0  0  0  0  0
   46.2047   52.6026   49.5652 C   0  0  1  0  0  0  0  0  0  0  0  0
   46.5531   51.6877   50.6604 N   0  0  0  0  0  0  0  0  0  0  0  0
   47.4201   50.6228   50.5743 C   0  0  0  0  0  0  0  0  0  0  0  0
   48.0763   50.3936   49.5626 O   0  0  0  0  0  0  0  0  0  0  0  0
   47.6247   49.8625   51.9192 C   0  0  1  0  0  0  0  0  0  0  0  0
   46.5390   50.0040   52.9249 N   0  0  0  0  0  0  0  0  0  0  0  0
   45.1612   49.7613   52.5046 C   0  0  0  0  0  0  0  0  0  0  0  0
   46.6744   50.5810   54.1866 C   0  0  0  0  0  0  0  0  0  0  0  0
   45.6735   51.0401   54.7582 O   0  0  0  0  0  0  0  0  0  0  0  0
   47.9925   50.4903   55.0120 C   0  0  1  0  0  0  0  0  0  0  0  0
   47.9787   49.1242   55.7062 C   0  0  0  0  0  0  0  0  0  0  0  0
   49.2491   50.9543   54.3802 N   0  0  0  0  0  0  0  0  0  0  0  0
   49.2711   52.3653   54.0054 C   0  0  0  0  0  0  0  0  0  0  0  0
   50.4081   50.1810   54.3206 C   0  0  0  0  0  0  0  0  0  0  0  0
   50.4650   49.0357   54.7764 O   0  0  0  0  0  0  0  0  0  0  0  0
   52.4872   50.4045   55.6023 H   0  0  0  0  0  0  0  0  0  0  0  0
   46.4884   56.4934   52.2597 H   0  0  0  0  0  0  0  0  0  0  0  0
   44.5734   54.7361   52.2742 H   0  0  0  0  0  0  0  0  0  0  0  0
   46.1289   51.8879   51.5630 H   0  0  0  0  0  0  0  0  0  0  0  0
   54.2026   53.6433   59.5889 C   0  0  0  0  0  0  0  0  0  0  0  0
   54.7570   55.0174   59.9925 C   0  0  0  0  0  0  0  0  0  0  0  0
   55.3081   52.6009   59.7849 C   0  0  0  0  0  0  0  0  0  0  0  0
   45.4972   51.8676   48.3967 C   0  0  0  0  0  0  0  0  0  0  0  0
   43.9831   51.7291   48.5887 C   0  0  0  0  0  0  0  0  0  0  0  0
   45.7876   52.5020   47.0360 C   0  0  0  0  0  0  0  0  0  0  0  0
   54.9465   49.6284   56.4008 C   0  0  2  0  0  0  0  0  0  0  0  0
   55.2000   49.7984   57.8023 O   0  0  0  0  0  0  0  0  0  0  0  0
   54.3666   50.1416   58.1706 H   0  0  0  0  0  0  0  0  0  0  0  0
   55.9725   48.6033   55.8345 C   0  0  2  0  0  0  0  0  0  0  0  0
   56.3226   48.9654   54.3843 C   0  0  0  0  0  0  0  0  0  0  0  0
   55.4557   47.1478   55.9097 C   0  0  0  0  0  0  0  0  0  0  0  0
   56.4500   46.1839   56.5747 C   0  0  0  0  0  0  0  0  0  0  0  0
   55.7759   44.9168   57.1154 C   0  0  0  0  0  0  0  0  0  0  0  0
   55.7936   44.7795   58.6443 C   0  0  0  0  0  0  0  0  0  0  0  0
   55.9299   46.1058   59.3937 C   0  0  0  0  0  0  0  0  0  0  0  0
   54.6167   46.5662   60.0222 C   0  0  0  0  0  0  0  0  0  0  0  0
   53.8283   47.3514   59.0954 N   0  0  0  0  0  0  0  0  0  0  0  0
   52.7325   46.8367   58.4392 C   0  0  0  0  0  0  0  0  0  0  0  0
   52.0343   47.8405   57.5620 C   0  0  0  0  0  0  0  0  0  0  0  0
   52.3341   45.6833   58.5636 O   0  0  0  0  0  0  0  0  0  0  0  0
   54.1257   48.2968   58.8913 H   0  0  0  0  0  0  0  0  0  0  0  0
   51.2749   50.8133   51.1213 C   0  0  0  0  0  0  0  0  0  0  0  0
   51.9549   50.1425   52.3094 C   0  0  0  0  0  0  0  0  0  0  0  0
   49.0608   54.5042   56.9967 C   0  0  0  0  0  0  0  0  0  0  0  0
   47.7022   54.9230   57.6160 C   0  0  0  0  0  0  0  0  0  0  0  0
   46.6357   53.8354   57.4725 C   0  0  0  0  0  0  0  0  0  0  0  0
   47.8913   55.2610   59.0990 C   0  0  0  0  0  0  0  0  0  0  0  0
   50.8650   58.9622   54.0682 C   0  0  0  0  0  0  0  0  0  0  0  0
   52.2797   59.5912   54.1061 C   0  0  0  0  0  0  0  0  0  0  0  0
   52.1819   61.0882   53.7883 C   0  0  0  0  0  0  0  0  0  0  0  0
   52.9560   59.4236   55.4695 C   0  0  0  0  0  0  0  0  0  0  0  0
   42.6336   55.0299   49.8379 C   0  0  0  0  0  0  0  0  0  0  0  0
   41.7879   55.4319   48.6083 C   0  0  0  0  0  0  0  0  0  0  0  0
   42.4946   54.9618   47.3335 C   0  0  0  0  0  0  0  0  0  0  0  0
   41.5379   56.9400   48.5293 C   0  0  0  0  0  0  0  0  0  0  0  0
   48.2558   48.4607   51.7877 C   0  0  0  0  0  0  0  0  0  0  0  0
   47.5242   47.1745   52.2212 C   0  0  0  0  0  0  0  0  0  0  0  0
   46.8669   46.4181   51.0666 C   0  0  0  0  0  0  0  0  0  0  0  0
   48.3440   46.2472   53.1137 C   0  0  0  0  0  0  0  0  0  0  0  0
   51.5826   51.8344   53.4653 H   0  0  0  0  0  0  0  0  0  0  0  0
   56.0143   50.9800   55.3199 H   0  0  0  0  0  0  0  0  0  0  0  0
   56.5638   52.8953   55.5303 H   0  0  0  0  0  0  0  0  0  0  0  0
   56.2800   53.6168   57.0961 H   0  0  0  0  0  0  0  0  0  0  0  0
   55.3101   54.0968   55.7243 H   0  0  0  0  0  0  0  0  0  0  0  0
   54.1107   54.4359   57.6635 H   0  0  0  0  0  0  0  0  0  0  0  0
   51.7588   52.7921   59.7724 H   0  0  0  0  0  0  0  0  0  0  0  0
   50.5156   52.7990   58.5447 H   0  0  0  0  0  0  0  0  0  0  0  0
   50.6554   54.1418   59.6540 H   0  0  0  0  0  0  0  0  0  0  0  0
   50.0174   55.8353   58.2046 H   0  0  0  0  0  0  0  0  0  0  0  0
   50.0845   57.9072   57.9201 H   0  0  0  0  0  0  0  0  0  0  0  0
   49.3897   58.5895   56.4693 H   0  0  0  0  0  0  0  0  0  0  0  0
   51.1251   58.4709   56.6346 H   0  0  0  0  0  0  0  0  0  0  0  0
   51.8768   57.3102   53.9370 H   0  0  0  0  0  0  0  0  0  0  0  0
   52.1109   56.3072   52.0189 H   0  0  0  0  0  0  0  0  0  0  0  0
   51.1261   56.7591   50.6482 H   0  0  0  0  0  0  0  0  0  0  0  0
   50.7606   55.3047   51.5450 H   0  0  0  0  0  0  0  0  0  0  0  0
   48.2983   57.9456   54.0726 H   0  0  0  0  0  0  0  0  0  0  0  0
   47.1749   59.1874   51.5763 H   0  0  0  0  0  0  0  0  0  0  0  0
   48.4701   59.8455   52.5470 H   0  0  0  0  0  0  0  0  0  0  0  0
   46.8584   59.7202   53.2100 H   0  0  0  0  0  0  0  0  0  0  0  0
   43.6337   56.8742   53.9417 H   0  0  0  0  0  0  0  0  0  0  0  0
   45.2915   54.4542   54.6546 H   0  0  0  0  0  0  0  0  0  0  0  0
   43.5452   54.5095   54.6317 H   0  0  0  0  0  0  0  0  0  0  0  0
   44.4343   55.4616   55.7962 H   0  0  0  0  0  0  0  0  0  0  0  0
   43.9943   56.5684   49.2658 H   0  0  0  0  0  0  0  0  0  0  0  0
   45.8308   56.5276   48.5385 H   0  0  0  0  0  0  0  0  0  0  0  0
   46.3405   54.9527   47.9791 H   0  0  0  0  0  0  0  0  0  0  0  0
   47.0760   55.6554   49.3998 H   0  0  0  0  0  0  0  0  0  0  0  0
   47.0700   53.0420   49.1145 H   0  0  0  0  0  0  0  0  0  0  0  0
   48.4055   50.4241   52.3881 H   0  0  0  0  0  0  0  0  0  0  0  0
   45.1582   49.3195   51.5301 H   0  0  0  0  0  0  0  0  0  0  0  0
   44.6280   50.6886   52.4775 H   0  0  0  0  0  0  0  0  0  0  0  0
   44.6882   49.0981   53.1984 H   0  0  0  0  0  0  0  0  0  0  0  0
   48.0023   51.2590   55.7563 H   0  0  0  0  0  0  0  0  0  0  0  0
   47.9688   48.3493   54.9684 H   0  0  0  0  0  0  0  0  0  0  0  0
   47.1052   49.0444   56.3190 H   0  0  0  0  0  0  0  0  0  0  0  0
   48.8524   49.0251   56.3159 H   0  0  0  0  0  0  0  0  0  0  0  0
   48.2911   52.7797   54.1186 H   0  0  0  0  0  0  0  0  0  0  0  0
   49.5823   52.4587   52.9859 H   0  0  0  0  0  0  0  0  0  0  0  0
   49.9560   52.8915   54.6370 H   0  0  0  0  0  0  0  0  0  0  0  0
   53.3876   53.3603   60.2219 H   0  0  0  0  0  0  0  0  0  0  0  0
   55.5692   55.2780   59.3465 H   0  0  0  0  0  0  0  0  0  0  0  0
   55.1039   54.9790   61.0040 H   0  0  0  0  0  0  0  0  0  0  0  0
   53.9842   55.7526   59.9082 H   0  0  0  0  0  0  0  0  0  0  0  0
   56.1455   52.8485   59.1665 H   0  0  0  0  0  0  0  0  0  0  0  0
   54.9385   51.6339   59.5144 H   0  0  0  0  0  0  0  0  0  0  0  0
   55.6124   52.5923   60.8107 H   0  0  0  0  0  0  0  0  0  0  0  0
   45.9185   50.8841   48.4106 H   0  0  0  0  0  0  0  0  0  0  0  0
   43.5322   52.6994   48.5793 H   0  0  0  0  0  0  0  0  0  0  0  0
   43.7845   51.2526   49.5259 H   0  0  0  0  0  0  0  0  0  0  0  0
   43.5755   51.1386   47.7949 H   0  0  0  0  0  0  0  0  0  0  0  0
   45.3721   53.4876   47.0060 H   0  0  0  0  0  0  0  0  0  0  0  0
   45.3482   51.9060   46.2636 H   0  0  0  0  0  0  0  0  0  0  0  0
   46.8457   52.5563   46.8863 H   0  0  0  0  0  0  0  0  0  0  0  0
   53.9610   49.2431   56.2420 H   0  0  0  0  0  0  0  0  0  0  0  0
   56.8497   48.6572   56.4448 H   0  0  0  0  0  0  0  0  0  0  0  0
   55.4413   48.9095   53.7800 H   0  0  0  0  0  0  0  0  0  0  0  0
   57.0544   48.2792   54.0121 H   0  0  0  0  0  0  0  0  0  0  0  0
   56.7161   49.9598   54.3500 H   0  0  0  0  0  0  0  0  0  0  0  0
   55.2629   46.8040   54.9150 H   0  0  0  0  0  0  0  0  0  0  0  0
   54.5712   47.1561   56.5118 H   0  0  0  0  0  0  0  0  0  0  0  0
   56.9269   46.6911   57.3873 H   0  0  0  0  0  0  0  0  0  0  0  0
   57.1546   45.8813   55.8284 H   0  0  0  0  0  0  0  0  0  0  0  0
   56.2789   44.0690   56.6994 H   0  0  0  0  0  0  0  0  0  0  0  0
   54.7463   44.9790   56.8308 H   0  0  0  0  0  0  0  0  0  0  0  0
   56.6193   44.1552   58.9152 H   0  0  0  0  0  0  0  0  0  0  0  0
   54.8484   44.3643   58.9257 H   0  0  0  0  0  0  0  0  0  0  0  0
   56.2611   46.8552   58.7055 H   0  0  0  0  0  0  0  0  0  0  0  0
   56.6329   45.9577   60.1867 H   0  0  0  0  0  0  0  0  0  0  0  0
   54.8343   47.1617   60.8841 H   0  0  0  0  0  0  0  0  0  0  0  0
   54.0516   45.6980   60.2902 H   0  0  0  0  0  0  0  0  0  0  0  0
   52.5538   48.7749   57.6060 H   0  0  0  0  0  0  0  0  0  0  0  0
   51.0292   47.9747   57.9037 H   0  0  0  0  0  0  0  0  0  0  0  0
   52.0235   47.4856   56.5526 H   0  0  0  0  0  0  0  0  0  0  0  0
   51.5251   50.2875   50.2236 H   0  0  0  0  0  0  0  0  0  0  0  0
   51.6081   51.8272   51.0454 H   0  0  0  0  0  0  0  0  0  0  0  0
   50.2142   50.7960   51.2610 H   0  0  0  0  0  0  0  0  0  0  0  0
   53.0109   50.1595   52.1376 H   0  0  0  0  0  0  0  0  0  0  0  0
   51.5428   49.1566   52.3655 H   0  0  0  0  0  0  0  0  0  0  0  0
   49.3551   53.5753   57.4387 H   0  0  0  0  0  0  0  0  0  0  0  0
   48.9016   54.4397   55.9406 H   0  0  0  0  0  0  0  0  0  0  0  0
   47.3601   55.7832   57.0794 H   0  0  0  0  0  0  0  0  0  0  0  0
   46.9478   52.9581   57.9996 H   0  0  0  0  0  0  0  0  0  0  0  0
   46.5025   53.6009   56.4370 H   0  0  0  0  0  0  0  0  0  0  0  0
   45.7110   54.1866   57.8805 H   0  0  0  0  0  0  0  0  0  0  0  0
   48.2332   54.3924   59.6220 H   0  0  0  0  0  0  0  0  0  0  0  0
   46.9587   55.5827   59.5132 H   0  0  0  0  0  0  0  0  0  0  0  0
   48.6141   56.0439   59.1970 H   0  0  0  0  0  0  0  0  0  0  0  0
   50.3888   59.1662   55.0044 H   0  0  0  0  0  0  0  0  0  0  0  0
   50.3713   59.4022   53.2270 H   0  0  0  0  0  0  0  0  0  0  0  0
   52.8730   59.0809   53.3763 H   0  0  0  0  0  0  0  0  0  0  0  0
   51.5845   61.5725   54.5323 H   0  0  0  0  0  0  0  0  0  0  0  0
   51.7306   61.2200   52.8271 H   0  0  0  0  0  0  0  0  0  0  0  0
   53.1624   61.5166   53.7837 H   0  0  0  0  0  0  0  0  0  0  0  0
   52.3798   59.9266   56.2177 H   0  0  0  0  0  0  0  0  0  0  0  0
   53.9393   59.8441   55.4340 H   0  0  0  0  0  0  0  0  0  0  0  0
   53.0216   58.3829   55.7096 H   0  0  0  0  0  0  0  0  0  0  0  0
   42.0458   55.2051   50.7147 H   0  0  0  0  0  0  0  0  0  0  0  0
   42.8941   54.0021   49.6940 H   0  0  0  0  0  0  0  0  0  0  0  0
   40.8330   54.9595   48.7082 H   0  0  0  0  0  0  0  0  0  0  0  0
   43.4456   55.4457   47.2538 H   0  0  0  0  0  0  0  0  0  0  0  0
   41.8959   55.2093   46.4819 H   0  0  0  0  0  0  0  0  0  0  0  0
   42.6360   53.9020   47.3742 H   0  0  0  0  0  0  0  0  0  0  0  0
   42.4722   57.4516   48.4284 H   0  0  0  0  0  0  0  0  0  0  0  0
   41.0466   57.2673   49.4217 H   0  0  0  0  0  0  0  0  0  0  0  0
   40.9201   57.1553   47.6826 H   0  0  0  0  0  0  0  0  0  0  0  0
   49.1636   48.4902   52.3533 H   0  0  0  0  0  0  0  0  0  0  0  0
   48.2974   48.3397   50.7254 H   0  0  0  0  0  0  0  0  0  0  0  0
   46.7300   47.5408   52.8376 H   0  0  0  0  0  0  0  0  0  0  0  0
   47.6239   46.0299   50.4177 H   0  0  0  0  0  0  0  0  0  0  0  0
   46.2342   47.0843   50.5181 H   0  0  0  0  0  0  0  0  0  0  0  0
   46.2825   45.6108   51.4559 H   0  0  0  0  0  0  0  0  0  0  0  0
   49.1614   45.8437   52.5534 H   0  0  0  0  0  0  0  0  0  0  0  0
   47.7235   45.4492   53.4643 H   0  0  0  0  0  0  0  0  0  0  0  0
   48.7220   46.7986   53.9492 H   0  0  0  0  0  0  0  0  0  0  0  0
  1  2  1  0  0  0  0
  1 99  1  6  0  0  0
  2  3  1  0  0  0  0
  2 55  1  0  0  0  0
  3  4  2  0  0  0  0
  3  5  1  0  0  0  0
  5 65  1  0  0  0  0
  5  6  1  0  0  0  0
  5100  1  6  0  0  0
  6  7  1  0  0  0  0
  6  8  1  0  0  0  0
  7101  1  0  0  0  0
  7102  1  0  0  0  0
  7103  1  0  0  0  0
  8  9  2  0  0  0  0
  8 10  1  0  0  0  0
 10 59  1  0  0  0  0
 10 11  1  0  0  0  0
 10104  1  6  0  0  0
 11 12  1  0  0  0  0
 11 13  1  0  0  0  0
 12105  1  0  0  0  0
 12106  1  0  0  0  0
 12107  1  0  0  0  0
 13 14  2  0  0  0  0
 13 15  1  0  0  0  0
 15 83  1  0  0  0  0
 15 16  1  0  0  0  0
 15108  1  1  0  0  0
 16 17  1  0  0  0  0
 16 18  1  0  0  0  0
 17109  1  0  0  0  0
 17110  1  0  0  0  0
 17111  1  0  0  0  0
 18 19  2  0  0  0  0
 18 20  1  0  0  0  0
 20 87  1  0  0  0  0
 20 21  1  0  0  0  0
 20112  1  6  0  0  0
 21 22  1  0  0  0  0
 21 23  1  0  0  0  0
 22113  1  0  0  0  0
 22114  1  0  0  0  0
 22115  1  0  0  0  0
 23 24  2  0  0  0  0
 23 25  1  0  0  0  0
 25 26  1  0  0  0  0
 25 27  1  0  0  0  0
 25116  1  1  0  0  0
 26117  1  0  0  0  0
 26118  1  0  0  0  0
 26119  1  0  0  0  0
 27 28  1  0  0  0  0
 27 56  1  0  0  0  0
 28 29  2  0  0  0  0
 28 30  1  0  0  0  0
 30 31  1  0  0  0  0
 30 32  1  0  0  0  0
 30120  1  1  0  0  0
 31121  1  0  0  0  0
 31122  1  0  0  0  0
 31123  1  0  0  0  0
 32 33  1  0  0  0  0
 32 57  1  0  0  0  0
 33 34  2  0  0  0  0
 33 35  1  0  0  0  0
 35 91  1  0  0  0  0
 35 36  1  0  0  0  0
 35124  1  6  0  0  0
 36 37  1  0  0  0  0
 36 38  1  0  0  0  0
 37125  1  0  0  0  0
 37126  1  0  0  0  0
 37127  1  0  0  0  0
 38 39  2  0  0  0  0
 38 40  1  0  0  0  0
 40 62  1  0  0  0  0
 40 41  1  0  0  0  0
 40128  1  6  0  0  0
 41 42  1  0  0  0  0
 41 58  1  0  0  0  0
 42 43  2  0  0  0  0
 42 44  1  0  0  0  0
 44 95  1  0  0  0  0
 44 45  1  0  0  0  0
 44129  1  1  0  0  0
 45 46  1  0  0  0  0
 45 47  1  0  0  0  0
 46130  1  0  0  0  0
 46131  1  0  0  0  0
 46132  1  0  0  0  0
 47 48  2  0  0  0  0
 47 49  1  0  0  0  0
 49 50  1  0  0  0  0
 49 51  1  0  0  0  0
 49133  1  1  0  0  0
 50134  1  0  0  0  0
 50135  1  0  0  0  0
 50136  1  0  0  0  0
 51 52  1  0  0  0  0
 51 53  1  0  0  0  0
 52137  1  0  0  0  0
 52138  1  0  0  0  0
 52139  1  0  0  0  0
 53 54  2  0  0  0  0
 53  1  1  0  0  0  0
 59 60  1  0  0  0  0
 59 61  1  0  0  0  0
 59140  1  0  0  0  0
 60141  1  0  0  0  0
 60142  1  0  0  0  0
 60143  1  0  0  0  0
 61144  1  0  0  0  0
 61145  1  0  0  0  0
 61146  1  0  0  0  0
 62 63  1  0  0  0  0
 62 64  1  0  0  0  0
 62147  1  0  0  0  0
 63148  1  0  0  0  0
 63149  1  0  0  0  0
 63150  1  0  0  0  0
 64151  1  0  0  0  0
 64152  1  0  0  0  0
 64153  1  0  0  0  0
 65 66  1  0  0  0  0
 65 68  1  0  0  0  0
 65154  1  6  0  0  0
 66 67  1  0  0  0  0
 68 69  1  0  0  0  0
 68 70  1  0  0  0  0
 68155  1  1  0  0  0
 69156  1  0  0  0  0
 69157  1  0  0  0  0
 69158  1  0  0  0  0
 70 71  1  0  0  0  0
 70159  1  0  0  0  0
 70160  1  0  0  0  0
 71 72  1  0  0  0  0
 71161  1  0  0  0  0
 71162  1  0  0  0  0
 72 73  1  0  0  0  0
 72163  1  0  0  0  0
 72164  1  0  0  0  0
 73 74  1  0  0  0  0
 73165  1  0  0  0  0
 73166  1  0  0  0  0
 74 75  1  0  0  0  0
 74167  1  0  0  0  0
 74168  1  0  0  0  0
 75 76  1  0  0  0  0
 75169  1  0  0  0  0
 75170  1  0  0  0  0
 76 77  1  0  0  0  0
 76 80  1  0  0  0  0
 77 78  1  0  0  0  0
 77 79  2  0  0  0  0
 78171  1  0  0  0  0
 78172  1  0  0  0  0
 78173  1  0  0  0  0
 81 82  1  0  0  0  0
 81174  1  0  0  0  0
 81175  1  0  0  0  0
 81176  1  0  0  0  0
 82  1  1  0  0  0  0
 82177  1  0  0  0  0
 82178  1  0  0  0  0
 83 84  1  0  0  0  0
 83179  1  0  0  0  0
 83180  1  0  0  0  0
 84 85  1  0  0  0  0
 84 86  1  0  0  0  0
 84181  1  0  0  0  0
 85182  1  0  0  0  0
 85183  1  0  0  0  0
 85184  1  0  0  0  0
 86185  1  0  0  0  0
 86186  1  0  0  0  0
 86187  1  0  0  0  0
 87 88  1  0  0  0  0
 87188  1  0  0  0  0
 87189  1  0  0  0  0
 88 89  1  0  0  0  0
 88 90  1  0  0  0  0
 88190  1  0  0  0  0
 89191  1  0  0  0  0
 89192  1  0  0  0  0
 89193  1  0  0  0  0
 90194  1  0  0  0  0
 90195  1  0  0  0  0
 90196  1  0  0  0  0
 91 92  1  0  0  0  0
 91197  1  0  0  0  0
 91198  1  0  0  0  0
 92 93  1  0  0  0  0
 92 94  1  0  0  0  0
 92199  1  0  0  0  0
 93200  1  0  0  0  0
 93201  1  0  0  0  0
 93202  1  0  0  0  0
 94203  1  0  0  0  0
 94204  1  0  0  0  0
 94205  1  0  0  0  0
 95 96  1  0  0  0  0
 95206  1  0  0  0  0
 95207  1  0  0  0  0
 96 97  1  0  0  0  0
 96 98  1  0  0  0  0
 96208  1  0  0  0  0
 97209  1  0  0  0  0
 97210  1  0  0  0  0
 97211  1  0  0  0  0
 98212  1  0  0  0  0
 98213  1  0  0  0  0
 98214  1  0  0  0  0
M  END
>  <minimizedAffinity>
-7.78330

$$$$
