L1:P62937:19634


 98 98  0  0  0  0  0  0  0  0999 V2000
   51.6868   50.7913   53.6796 C   0  0  0  0  0  0  0  0  0  0  0  0
   52.7666   50.6446   54.6517 N   0  0  0  0  0  0  0  0  0  0  0  0
   54.0408   51.1159   54.4583 C   0  0  0  0  0  0  0  0  0  0  0  0
   54.3820   51.7028   53.4303 O   0  0  0  0  0  0  0  0  0  0  0  0
   55.0013   51.0000   55.6638 C   0  0  0  0  0  0  0  0  0  0  0  0
   54.8538   52.2241   56.5044 N   0  0  0  0  0  0  0  0  0  0  0  0
   55.8164   53.2789   56.1929 C   0  0  0  0  0  0  0  0  0  0  0  0
   53.7477   52.3641   57.3354 C   0  0  0  0  0  0  0  0  0  0  0  0
   52.9409   51.4307   57.4530 O   0  0  0  0  0  0  0  0  0  0  0  0
   53.5558   53.6713   58.1660 C   0  0  0  0  0  0  0  0  0  0  0  0
   52.1118   54.0720   58.1788 N   0  0  0  0  0  0  0  0  0  0  0  0
   51.2000   53.4072   59.0984 C   0  0  0  0  0  0  0  0  0  0  0  0
   51.6813   54.9482   57.1725 C   0  0  0  0  0  0  0  0  0  0  0  0
   52.4897   55.3427   56.3199 O   0  0  0  0  0  0  0  0  0  0  0  0
   50.2130   55.5207   57.2008 C   0  0  0  0  0  0  0  0  0  0  0  0
   50.1593   56.6793   56.2547 N   0  0  0  0  0  0  0  0  0  0  0  0
   50.1918   57.9984   56.8594 C   0  0  0  0  0  0  0  0  0  0  0  0
   50.2708   56.4107   54.8916 C   0  0  0  0  0  0  0  0  0  0  0  0
   50.0431   55.2619   54.4790 O   0  0  0  0  0  0  0  0  0  0  0  0
   50.8198   57.4420   53.8353 C   0  0  0  0  0  0  0  0  0  0  0  0
   50.2424   57.0737   52.5004 N   0  0  0  0  0  0  0  0  0  0  0  0
   51.1183   56.3104   51.6195 C   0  0  0  0  0  0  0  0  0  0  0  0
   48.9040   57.1825   52.1314 C   0  0  0  0  0  0  0  0  0  0  0  0
   48.4895   56.7449   51.0454 O   0  0  0  0  0  0  0  0  0  0  0  0
   47.8983   57.8594   53.0839 C   0  0  0  0  0  0  0  0  0  0  0  0
   47.5764   59.2575   52.5656 C   0  0  0  0  0  0  0  0  0  0  0  0
   46.6944   57.0439   53.0868 N   0  0  0  0  0  0  0  0  0  0  0  0
   45.7474   57.0890   54.0826 C   0  0  0  0  0  0  0  0  0  0  0  0
   45.9180   57.7106   55.1317 O   0  0  0  0  0  0  0  0  0  0  0  0
   44.4849   56.2392   53.8110 C   0  0  0  0  0  0  0  0  0  0  0  0
   44.4353   55.0800   54.7966 C   0  0  0  0  0  0  0  0  0  0  0  0
   44.4301   55.7336   52.4379 N   0  0  0  0  0  0  0  0  0  0  0  0
   44.0507   56.5073   51.3688 C   0  0  0  0  0  0  0  0  0  0  0  0
   43.6983   57.6771   51.5039 O   0  0  0  0  0  0  0  0  0  0  0  0
   43.9682   55.7895   49.9990 C   0  0  0  0  0  0  0  0  0  0  0  0
   45.1500   54.9325   49.6800 N   0  0  0  0  0  0  0  0  0  0  0  0
   46.1670   55.5587   48.8437 C   0  0  0  0  0  0  0  0  0  0  0  0
   45.2912   53.6719   50.2305 C   0  0  0  0  0  0  0  0  0  0  0  0
   44.6532   53.3615   51.2483 O   0  0  0  0  0  0  0  0  0  0  0  0
   46.2047   52.6026   49.5652 C   0  0  0  0  0  0  0  0  0  0  0  0
   46.5531   51.6877   50.6604 N   0  0  0  0  0  0  0  0  0  0  0  0
   47.4201   50.6228   50.5743 C   0  0  0  0  0  0  0  0  0  0  0  0
   48.0763   50.3936   49.5626 O   0  0  0  0  0  0  0  0  0  0  0  0
   47.6247   49.8625   51.9192 C   0  0  0  0  0  0  0  0  0  0  0  0
   46.5390   50.0040   52.9249 N   0  0  0  0  0  0  0  0  0  0  0  0
   45.1612   49.7613   52.5046 C   0  0  0  0  0  0  0  0  0  0  0  0
   46.6744   50.5810   54.1866 C   0  0  0  0  0  0  0  0  0  0  0  0
   45.6735   51.0401   54.7582 O   0  0  0  0  0  0  0  0  0  0  0  0
   47.9925   50.4903   55.0120 C   0  0  0  0  0  0  0  0  0  0  0  0
   47.9787   49.1242   55.7062 C   0  0  0  0  0  0  0  0  0  0  0  0
   49.2491   50.9543   54.3802 N   0  0  0  0  0  0  0  0  0  0  0  0
   49.2711   52.3653   54.0054 C   0  0  0  0  0  0  0  0  0  0  0  0
   50.4081   50.1810   54.3206 C   0  0  0  0  0  0  0  0  0  0  0  0
   50.4650   49.0357   54.7764 O   0  0  0  0  0  0  0  0  0  0  0  0
   52.4872   50.4045   55.6023 H   0  0  0  0  0  0  0  0  0  0  0  0
   46.4884   56.4934   52.2597 H   0  0  0  0  0  0  0  0  0  0  0  0
   44.5734   54.7361   52.2742 H   0  0  0  0  0  0  0  0  0  0  0  0
   46.1289   51.8879   51.5630 H   0  0  0  0  0  0  0  0  0  0  0  0
   54.2026   53.6433   59.5889 C   0  0  0  0  0  0  0  0  0  0  0  0
   54.7570   55.0174   59.9925 C   0  0  0  0  0  0  0  0  0  0  0  0
   55.3081   52.6009   59.7849 C   0  0  0  0  0  0  0  0  0  0  0  0
   45.4972   51.8676   48.3967 C   0  0  0  0  0  0  0  0  0  0  0  0
   43.9831   51.7291   48.5887 C   0  0  0  0  0  0  0  0  0  0  0  0
   45.7876   52.5020   47.0360 C   0  0  0  0  0  0  0  0  0  0  0  0
   54.9465   49.6284   56.4008 C   0  0  0  0  0  0  0  0  0  0  0  0
   55.2000   49.7984   57.8023 O   0  0  0  0  0  0  0  0  0  0  0  0
   54.3666   50.1416   58.1706 H   0  0  0  0  0  0  0  0  0  0  0  0
   55.9725   48.6033   55.8345 C   0  0  0  0  0  0  0  0  0  0  0  0
   56.3226   48.9654   54.3843 C   0  0  0  0  0  0  0  0  0  0  0  0
   55.4557   47.1478   55.9097 C   0  0  0  0  0  0  0  0  0  0  0  0
   56.4500   46.1839   56.5747 C   0  0  0  0  0  0  0  0  0  0  0  0
   55.7759   44.9168   57.1154 C   0  0  0  0  0  0  0  0  0  0  0  0
   55.7936   44.7795   58.6443 C   0  0  0  0  0  0  0  0  0  0  0  0
   55.9299   46.1058   59.3937 C   0  0  0  0  0  0  0  0  0  0  0  0
   54.6167   46.5662   60.0222 C   0  0  0  0  0  0  0  0  0  0  0  0
   53.8283   47.3514   59.0954 N   0  0  0  0  0  0  0  0  0  0  0  0
   52.7325   46.8367   58.4392 C   0  0  0  0  0  0  0  0  0  0  0  0
   52.0343   47.8405   57.5620 C   0  0  0  0  0  0  0  0  0  0  0  0
   52.3341   45.6833   58.5636 O   0  0  0  0  0  0  0  0  0  0  0  0
   54.1257   48.2968   58.8913 H   0  0  0  0  0  0  0  0  0  0  0  0
   51.2749   50.8133   51.1213 C   0  0  0  0  0  0  0  0  0  0  0  0
   51.9549   50.1425   52.3094 C   0  0  0  0  0  0  0  0  0  0  0  0
   49.0608   54.5042   56.9967 C   0  0  0  0  0  0  0  0  0  0  0  0
   47.7022   54.9230   57.6160 C   0  0  0  0  0  0  0  0  0  0  0  0
   46.6357   53.8354   57.4725 C   0  0  0  0  0  0  0  0  0  0  0  0
   47.8913   55.2610   59.0990 C   0  0  0  0  0  0  0  0  0  0  0  0
   50.8650   58.9622   54.0682 C   0  0  0  0  0  0  0  0  0  0  0  0
   52.2797   59.5912   54.1061 C   0  0  0  0  0  0  0  0  0  0  0  0
   52.1819   61.0882   53.7883 C   0  0  0  0  0  0  0  0  0  0  0  0
   52.9560   59.4236   55.4695 C   0  0  0  0  0  0  0  0  0  0  0  0
   42.6336   55.0299   49.8379 C   0  0  0  0  0  0  0  0  0  0  0  0
   41.7879   55.4319   48.6083 C   0  0  0  0  0  0  0  0  0  0  0  0
   42.4946   54.9618   47.3335 C   0  0  0  0  0  0  0  0  0  0  0  0
   41.5379   56.9400   48.5293 C   0  0  0  0  0  0  0  0  0  0  0  0
   48.2558   48.4607   51.7877 C   0  0  0  0  0  0  0  0  0  0  0  0
   47.5242   47.1745   52.2212 C   0  0  0  0  0  0  0  0  0  0  0  0
   46.8669   46.4181   51.0666 C   0  0  0  0  0  0  0  0  0  0  0  0
   48.3440   46.2472   53.1137 C   0  0  0  0  0  0  0  0  0  0  0  0
 81 82  1  0  0  0
 82  1  1  0  0  0
  1  2  1  0  0  0
  2  3  1  0  0  0
  3  4  2  0  0  0
  3  5  1  0  0  0
  5 65  1  0  0  0
 65 66  1  0  0  0
 65 68  1  0  0  0
 68 69  1  0  0  0
 68 70  1  0  0  0
 70 71  1  0  0  0
 71 72  1  0  0  0
 72 73  1  0  0  0
 73 74  1  0  0  0
 74 75  1  0  0  0
 75 76  1  0  0  0
 76 77  1  0  0  0
 77 78  1  0  0  0
 77 79  2  0  0  0
  5  6  1  0  0  0
  6  7  1  0  0  0
  6  8  1  0  0  0
  8  9  2  0  0  0
  8 10  1  0  0  0
 10 59  1  0  0  0
 59 60  1  0  0  0
 59 61  1  0  0  0
 10 11  1  0  0  0
 11 12  1  0  0  0
 11 13  1  0  0  0
 13 14  2  0  0  0
 13 15  1  0  0  0
 15 83  1  0  0  0
 83 84  1  0  0  0
 84 85  1  0  0  0
 84 86  1  0  0  0
 15 16  1  0  0  0
 16 17  1  0  0  0
 16 18  1  0  0  0
 18 19  2  0  0  0
 18 20  1  0  0  0
 20 87  1  0  0  0
 87 88  1  0  0  0
 88 89  1  0  0  0
 88 90  1  0  0  0
 20 21  1  0  0  0
 21 22  1  0  0  0
 21 23  1  0  0  0
 23 24  2  0  0  0
 23 25  1  0  0  0
 25 26  1  0  0  0
 25 27  1  0  0  0
 27 28  1  0  0  0
 28 29  2  0  0  0
 28 30  1  0  0  0
 30 31  1  0  0  0
 30 32  1  0  0  0
 32 33  1  0  0  0
 33 34  2  0  0  0
 33 35  1  0  0  0
 35 91  1  0  0  0
 91 92  1  0  0  0
 92 93  1  0  0  0
 92 94  1  0  0  0
 35 36  1  0  0  0
 36 37  1  0  0  0
 36 38  1  0  0  0
 38 39  2  0  0  0
 38 40  1  0  0  0
 40 62  1  0  0  0
 62 63  1  0  0  0
 62 64  1  0  0  0
 40 41  1  0  0  0
 41 42  1  0  0  0
 42 43  2  0  0  0
 42 44  1  0  0  0
 44 95  1  0  0  0
 95 96  1  0  0  0
 96 97  1  0  0  0
 96 98  1  0  0  0
 44 45  1  0  0  0
 45 46  1  0  0  0
 45 47  1  0  0  0
 47 48  2  0  0  0
 47 49  1  0  0  0
 49 50  1  0  0  0
 49 51  1  0  0  0
 51 52  1  0  0  0
 51 53  1  0  0  0
 53 54  2  0  0  0
 53  1  1  0  0  0
  2 55  1  0  0  0
 66 67  1  0  0  0
 76 80  1  0  0  0
 27 56  1  0  0  0
 32 57  1  0  0  0
 41 58  1  0  0  0
M  END
> <minimizedAffinity>
-7.78330

$$$$
