L1:P62937:58673
     RDKit          3D

217217  0  0  0  0  0  0  0  0999 V2000
   -3.9980    7.5126    5.1399 C   0  0  0  0  0  0  0  0  0  0  0  0
   -3.0920    7.2005    3.9937 C   0  0  0  0  0  0  0  0  0  0  0  0
   -1.8803    7.7578    3.8306 C   0  0  0  0  0  0  0  0  0  0  0  0
   -0.8878    7.5143    2.7189 C   0  0  0  0  0  0  0  0  0  0  0  0
   -1.3631    6.7367    1.4575 C   0  0  1  0  0  0  0  0  0  0  0  0
   -2.3637    7.5704    0.6654 C   0  0  0  0  0  0  0  0  0  0  0  0
   -0.1288    6.3417    0.6054 C   0  0  1  0  0  0  0  0  0  0  0  0
    0.6641    5.4220    1.3733 O   0  0  0  0  0  0  0  0  0  0  0  0
   -0.4430    5.7319   -0.7976 C   0  0  1  0  0  0  0  0  0  0  0  0
    0.8969    5.5434   -1.5701 C   0  0  0  0  0  0  0  0  0  0  0  0
    1.7436    6.4418   -1.5890 O   0  0  0  0  0  0  0  0  0  0  0  0
    1.0449    4.3576   -2.2504 N   0  0  0  0  0  0  0  0  0  0  0  0
    2.1562    3.9298   -3.1040 C   0  0  1  0  0  0  0  0  0  0  0  0
    3.0978    5.0184   -3.6269 C   0  0  0  0  0  0  0  0  0  0  0  0
    4.1333    4.4934   -4.6121 C   0  0  0  0  0  0  0  0  0  0  0  0
    2.7868    2.6233   -2.5490 C   0  0  0  0  0  0  0  0  0  0  0  0
    2.2830    1.5475   -2.9092 O   0  0  0  0  0  0  0  0  0  0  0  0
    3.8459    2.6549   -1.6601 N   0  0  0  0  0  0  0  0  0  0  0  0
    4.1432    3.7718   -0.7874 C   0  0  0  0  0  0  0  0  0  0  0  0
    4.5230    1.3682   -1.3816 C   0  0  2  0  0  0  0  0  0  0  0  0
    5.6520    1.6357   -0.5444 O   0  0  0  0  0  0  0  0  0  0  0  0
    5.6722    0.8544    0.6520 C   0  0  0  0  0  0  0  0  0  0  0  0
    6.6432    1.5048    1.6435 C   0  0  0  0  0  0  0  0  0  0  0  0
    5.9628    2.6051    2.3303 N   0  0  0  0  0  0  0  0  0  0  0  0
    6.5018    3.7674    2.4891 C   0  0  0  0  0  0  0  0  0  0  0  0
    7.8908    4.0809    1.9664 C   0  0  0  0  0  0  0  0  0  0  0  0
    5.7856    4.7575    3.1548 N   0  0  0  0  0  0  0  0  0  0  0  0
    4.5103    4.4453    3.7989 C   0  0  0  0  0  0  0  0  0  0  0  0
    6.1624    6.1586    3.1589 C   0  0  0  0  0  0  0  0  0  0  0  0
    5.0654    0.7941   -2.7350 C   0  0  0  0  0  0  0  0  0  0  0  0
    5.7934    1.4557   -3.4821 O   0  0  0  0  0  0  0  0  0  0  0  0
    4.6248   -0.4729   -3.1495 N   0  0  0  0  0  0  0  0  0  0  0  0
    4.2591   -0.5530   -4.5617 C   0  0  0  0  0  0  0  0  0  0  0  0
    5.1833   -1.7142   -2.5803 C   0  0  1  0  0  0  0  0  0  0  0  0
    6.7297   -1.6397   -2.5205 C   0  0  0  0  0  0  0  0  0  0  0  0
    7.4955   -2.9770   -2.4974 C   0  0  0  0  0  0  0  0  0  0  0  0
    7.2207   -3.8437   -3.7343 C   0  0  0  0  0  0  0  0  0  0  0  0
    9.0002   -2.6935   -2.4002 C   0  0  0  0  0  0  0  0  0  0  0  0
    4.5932   -2.1929   -1.2265 C   0  0  0  0  0  0  0  0  0  0  0  0
    4.1680   -1.4290   -0.3770 O   0  0  0  0  0  0  0  0  0  0  0  0
    4.6790   -3.5563   -1.0281 N   0  0  0  0  0  0  0  0  0  0  0  0
    4.3370   -4.2616    0.2166 C   0  0  1  0  0  0  0  0  0  0  0  0
    4.8885   -3.6261    1.5146 C   0  0  0  0  0  0  0  0  0  0  0  0
    6.3962   -3.3384    1.4439 C   0  0  0  0  0  0  0  0  0  0  0  0
    4.6431   -4.5529    2.7191 C   0  0  0  0  0  0  0  0  0  0  0  0
    2.7937   -4.4242    0.2690 C   0  0  0  0  0  0  0  0  0  0  0  0
    2.0626   -3.4743    0.5562 O   0  0  0  0  0  0  0  0  0  0  0  0
    2.2493   -5.6509   -0.1280 N   0  0  0  0  0  0  0  0  0  0  0  0
    3.0082   -6.8837   -0.1036 C   0  0  0  0  0  0  0  0  0  0  0  0
    0.7891   -5.6994   -0.3574 C   0  0  1  0  0  0  0  0  0  0  0  0
    0.2701   -6.4288   -1.6232 C   0  0  0  0  0  0  0  0  0  0  0  0
    0.5444   -7.9140   -1.9408 C   0  0  0  0  0  0  0  0  0  0  0  0
   -0.0314   -8.2329   -3.3309 C   0  0  0  0  0  0  0  0  0  0  0  0
   -0.0576   -8.8999   -0.9373 C   0  0  0  0  0  0  0  0  0  0  0  0
    0.0400   -5.9883    0.9616 C   0  0  0  0  0  0  0  0  0  0  0  0
   -0.2311   -7.1072    1.3781 O   0  0  0  0  0  0  0  0  0  0  0  0
   -0.2153   -4.8520    1.7039 N   0  0  0  0  0  0  0  0  0  0  0  0
   -0.9807   -4.8595    2.9461 C   0  0  1  0  0  0  0  0  0  0  0  0
   -0.3672   -3.9030    3.9619 C   0  0  0  0  0  0  0  0  0  0  0  0
   -2.4757   -4.5237    2.7169 C   0  0  0  0  0  0  0  0  0  0  0  0
   -3.2223   -4.1760    3.6287 O   0  0  0  0  0  0  0  0  0  0  0  0
   -2.9315   -4.7806    1.4481 N   0  0  0  0  0  0  0  0  0  0  0  0
   -4.3170   -4.5938    1.0442 C   0  0  2  0  0  0  0  0  0  0  0  0
   -5.1431   -5.8079    1.4482 C   0  0  0  0  0  0  0  0  0  0  0  0
   -4.3522   -4.4790   -0.4971 C   0  0  0  0  0  0  0  0  0  0  0  0
   -3.6344   -5.2481   -1.1491 O   0  0  0  0  0  0  0  0  0  0  0  0
   -5.1648   -3.5530   -1.1213 N   0  0  0  0  0  0  0  0  0  0  0  0
   -5.0746   -3.4722   -2.5785 C   0  0  0  0  0  0  0  0  0  0  0  0
   -6.0038   -2.4881   -0.4936 C   0  0  1  0  0  0  0  0  0  0  0  0
   -7.1027   -2.9914    0.4706 C   0  0  0  0  0  0  0  0  0  0  0  0
   -8.1601   -3.9088   -0.1850 C   0  0  0  0  0  0  0  0  0  0  0  0
   -9.0792   -4.4846    0.8936 C   0  0  0  0  0  0  0  0  0  0  0  0
   -9.0064   -3.1723   -1.2274 C   0  0  0  0  0  0  0  0  0  0  0  0
   -5.1123   -1.3494    0.0963 C   0  0  0  0  0  0  0  0  0  0  0  0
   -3.9368   -1.5794    0.3928 O   0  0  0  0  0  0  0  0  0  0  0  0
   -5.6831   -0.0821    0.2969 N   0  0  0  0  0  0  0  0  0  0  0  0
   -7.0027    0.3055   -0.1830 C   0  0  0  0  0  0  0  0  0  0  0  0
   -4.8313    1.0586    0.7461 C   0  0  1  0  0  0  0  0  0  0  0  0
   -3.9131    0.8429    1.9651 C   0  0  0  0  0  0  0  0  0  0  0  0
   -4.6303    0.9443    3.3291 C   0  0  0  0  0  0  0  0  0  0  0  0
   -3.6138    0.8135    4.4679 C   0  0  0  0  0  0  0  0  0  0  0  0
   -5.7359   -0.0951    3.5192 C   0  0  0  0  0  0  0  0  0  0  0  0
   -4.0707    1.6542   -0.4815 C   0  0  0  0  0  0  0  0  0  0  0  0
   -3.6466    0.9187   -1.3799 O   0  0  0  0  0  0  0  0  0  0  0  0
   -3.9604    3.0404   -0.5824 N   0  0  0  0  0  0  0  0  0  0  0  0
   -4.3870    3.9861    0.4507 C   0  0  0  0  0  0  0  0  0  0  0  0
   -3.5329    3.6131   -1.8948 C   0  0  1  0  0  0  0  0  0  0  0  0
   -4.7609    4.3494   -2.5626 C   0  0  0  0  0  0  0  0  0  0  0  0
   -4.5011    4.8653   -3.9861 C   0  0  0  0  0  0  0  0  0  0  0  0
   -5.9974    3.4354   -2.6273 C   0  0  0  0  0  0  0  0  0  0  0  0
   -2.2347    4.4907   -1.9117 C   0  0  0  0  0  0  0  0  0  0  0  0
   -1.9218    5.1020   -2.9439 O   0  0  0  0  0  0  0  0  0  0  0  0
   -1.3566    4.5573   -0.8333 N   0  0  0  0  0  0  0  0  0  0  0  0
   -1.0849    3.4321    0.0546 C   0  0  0  0  0  0  0  0  0  0  0  0
   -4.2417    6.6033    5.6952 H   0  0  0  0  0  0  0  0  0  0  0  0
   -4.9275    7.9614    4.7723 H   0  0  0  0  0  0  0  0  0  0  0  0
   -3.5474    8.2200    5.8437 H   0  0  0  0  0  0  0  0  0  0  0  0
   -3.4786    6.4905    3.2704 H   0  0  0  0  0  0  0  0  0  0  0  0
   -1.5329    8.4459    4.5984 H   0  0  0  0  0  0  0  0  0  0  0  0
   -0.5215    8.4980    2.3992 H   0  0  0  0  0  0  0  0  0  0  0  0
   -0.0361    7.0017    3.1791 H   0  0  0  0  0  0  0  0  0  0  0  0
   -1.8391    5.8168    1.8018 H   0  0  0  0  0  0  0  0  0  0  0  0
   -1.8864    8.4188    0.1618 H   0  0  0  0  0  0  0  0  0  0  0  0
   -3.1475    7.9886    1.2919 H   0  0  0  0  0  0  0  0  0  0  0  0
   -2.8609    6.9718   -0.0984 H   0  0  0  0  0  0  0  0  0  0  0  0
    0.4814    7.2440    0.4517 H   0  0  0  0  0  0  0  0  0  0  0  0
    1.5083    5.8700    1.5658 H   0  0  0  0  0  0  0  0  0  0  0  0
   -0.9465    6.5331   -1.3631 H   0  0  0  0  0  0  0  0  0  0  0  0
    0.2878    3.6807   -2.1677 H   0  0  0  0  0  0  0  0  0  0  0  0
    1.6378    3.5738   -4.0119 H   0  0  0  0  0  0  0  0  0  0  0  0
    2.4867    5.7685   -4.1388 H   0  0  0  0  0  0  0  0  0  0  0  0
    3.6220    5.5483   -2.8310 H   0  0  0  0  0  0  0  0  0  0  0  0
    3.6701    3.9032   -5.4071 H   0  0  0  0  0  0  0  0  0  0  0  0
    4.8857    3.8796   -4.1097 H   0  0  0  0  0  0  0  0  0  0  0  0
    4.6481    5.3447   -5.0710 H   0  0  0  0  0  0  0  0  0  0  0  0
    4.0283    3.4530    0.2560 H   0  0  0  0  0  0  0  0  0  0  0  0
    3.4582    4.5993   -0.9296 H   0  0  0  0  0  0  0  0  0  0  0  0
    5.1654    4.1067   -0.9745 H   0  0  0  0  0  0  0  0  0  0  0  0
    3.7826    0.7135   -0.9244 H   0  0  0  0  0  0  0  0  0  0  0  0
    4.6707    0.7783    1.0872 H   0  0  0  0  0  0  0  0  0  0  0  0
    6.0482   -0.1414    0.4040 H   0  0  0  0  0  0  0  0  0  0  0  0
    7.5496    1.7975    1.1090 H   0  0  0  0  0  0  0  0  0  0  0  0
    6.9221    0.7642    2.4073 H   0  0  0  0  0  0  0  0  0  0  0  0
    8.2829    5.0258    2.3409 H   0  0  0  0  0  0  0  0  0  0  0  0
    7.8539    4.1394    0.8749 H   0  0  0  0  0  0  0  0  0  0  0  0
    8.5994    3.3054    2.2778 H   0  0  0  0  0  0  0  0  0  0  0  0
    3.6882    4.6055    3.0997 H   0  0  0  0  0  0  0  0  0  0  0  0
    4.3482    5.0816    4.6762 H   0  0  0  0  0  0  0  0  0  0  0  0
    4.4948    3.4243    4.1641 H   0  0  0  0  0  0  0  0  0  0  0  0
    5.3520    6.7976    3.5313 H   0  0  0  0  0  0  0  0  0  0  0  0
    6.4007    6.5033    2.1451 H   0  0  0  0  0  0  0  0  0  0  0  0
    7.0267    6.3138    3.8024 H   0  0  0  0  0  0  0  0  0  0  0  0
    3.8739    0.4050   -4.9225 H   0  0  0  0  0  0  0  0  0  0  0  0
    3.4915   -1.3186   -4.6869 H   0  0  0  0  0  0  0  0  0  0  0  0
    5.1532   -0.8153   -5.1448 H   0  0  0  0  0  0  0  0  0  0  0  0
    4.8902   -2.4961   -3.2947 H   0  0  0  0  0  0  0  0  0  0  0  0
    7.0184   -1.0630   -1.6307 H   0  0  0  0  0  0  0  0  0  0  0  0
    7.0916   -1.0630   -3.3892 H   0  0  0  0  0  0  0  0  0  0  0  0
    7.2215   -3.5604   -1.6143 H   0  0  0  0  0  0  0  0  0  0  0  0
    7.4075   -3.2929   -4.6642 H   0  0  0  0  0  0  0  0  0  0  0  0
    7.8577   -4.7343   -3.7294 H   0  0  0  0  0  0  0  0  0  0  0  0
    6.1869   -4.2019   -3.7523 H   0  0  0  0  0  0  0  0  0  0  0  0
    9.3563   -2.1883   -3.3041 H   0  0  0  0  0  0  0  0  0  0  0  0
    9.5593   -3.6269   -2.2951 H   0  0  0  0  0  0  0  0  0  0  0  0
    9.2302   -2.0575   -1.5446 H   0  0  0  0  0  0  0  0  0  0  0  0
    4.8672   -4.1399   -1.8365 H   0  0  0  0  0  0  0  0  0  0  0  0
    4.8258   -5.2251    0.0804 H   0  0  0  0  0  0  0  0  0  0  0  0
    4.3776   -2.6800    1.7215 H   0  0  0  0  0  0  0  0  0  0  0  0
    6.9708   -4.2538    1.2630 H   0  0  0  0  0  0  0  0  0  0  0  0
    6.6325   -2.6143    0.6536 H   0  0  0  0  0  0  0  0  0  0  0  0
    6.7416   -2.8985    2.3879 H   0  0  0  0  0  0  0  0  0  0  0  0
    3.5779   -4.7247    2.8925 H   0  0  0  0  0  0  0  0  0  0  0  0
    5.1244   -5.5250    2.5772 H   0  0  0  0  0  0  0  0  0  0  0  0
    5.0586   -4.1231    3.6367 H   0  0  0  0  0  0  0  0  0  0  0  0
    3.7633   -6.8354    0.6938 H   0  0  0  0  0  0  0  0  0  0  0  0
    2.3526   -7.7221    0.1282 H   0  0  0  0  0  0  0  0  0  0  0  0
    3.4884   -6.9985   -1.0764 H   0  0  0  0  0  0  0  0  0  0  0  0
    0.4989   -4.6655   -0.5937 H   0  0  0  0  0  0  0  0  0  0  0  0
    0.6532   -5.8484   -2.4760 H   0  0  0  0  0  0  0  0  0  0  0  0
   -0.8155   -6.2860   -1.6423 H   0  0  0  0  0  0  0  0  0  0  0  0
    1.6205   -8.0951   -2.0027 H   0  0  0  0  0  0  0  0  0  0  0  0
   -1.1180   -8.0945   -3.3481 H   0  0  0  0  0  0  0  0  0  0  0  0
    0.1824   -9.2684   -3.6168 H   0  0  0  0  0  0  0  0  0  0  0  0
    0.4151   -7.5845   -4.0894 H   0  0  0  0  0  0  0  0  0  0  0  0
   -1.1007   -8.6541   -0.7105 H   0  0  0  0  0  0  0  0  0  0  0  0
   -0.0243   -9.9208   -1.3283 H   0  0  0  0  0  0  0  0  0  0  0  0
    0.5072   -8.9162   -0.0065 H   0  0  0  0  0  0  0  0  0  0  0  0
    0.1535   -3.9604    1.3678 H   0  0  0  0  0  0  0  0  0  0  0  0
   -0.9584   -5.8698    3.3605 H   0  0  0  0  0  0  0  0  0  0  0  0
   -0.4367   -2.8657    3.6191 H   0  0  0  0  0  0  0  0  0  0  0  0
    0.6952   -4.1309    4.1319 H   0  0  0  0  0  0  0  0  0  0  0  0
   -0.8800   -3.9653    4.9237 H   0  0  0  0  0  0  0  0  0  0  0  0
   -2.2894   -5.1224    0.7410 H   0  0  0  0  0  0  0  0  0  0  0  0
   -4.6783   -3.6877    1.5364 H   0  0  0  0  0  0  0  0  0  0  0  0
   -4.6214   -6.7368    1.1873 H   0  0  0  0  0  0  0  0  0  0  0  0
   -5.2949   -5.8240    2.5289 H   0  0  0  0  0  0  0  0  0  0  0  0
   -6.1246   -5.8259    0.9654 H   0  0  0  0  0  0  0  0  0  0  0  0
   -4.4336   -4.2424   -3.0152 H   0  0  0  0  0  0  0  0  0  0  0  0
   -6.0758   -3.5898   -3.0031 H   0  0  0  0  0  0  0  0  0  0  0  0
   -4.6675   -2.4884   -2.8506 H   0  0  0  0  0  0  0  0  0  0  0  0
   -6.5167   -2.0254   -1.3409 H   0  0  0  0  0  0  0  0  0  0  0  0
   -6.6661   -3.5184    1.3234 H   0  0  0  0  0  0  0  0  0  0  0  0
   -7.6160   -2.1412    0.9250 H   0  0  0  0  0  0  0  0  0  0  0  0
   -7.6628   -4.7474   -0.6831 H   0  0  0  0  0  0  0  0  0  0  0  0
   -9.7980   -5.1838    0.4587 H   0  0  0  0  0  0  0  0  0  0  0  0
   -8.5038   -5.0252    1.6452 H   0  0  0  0  0  0  0  0  0  0  0  0
   -9.6440   -3.6938    1.3990 H   0  0  0  0  0  0  0  0  0  0  0  0
   -9.4728   -2.2729   -0.8076 H   0  0  0  0  0  0  0  0  0  0  0  0
   -8.4069   -2.8630   -2.0860 H   0  0  0  0  0  0  0  0  0  0  0  0
   -9.8021   -3.8187   -1.6100 H   0  0  0  0  0  0  0  0  0  0  0  0
   -7.5529    0.7941    0.6284 H   0  0  0  0  0  0  0  0  0  0  0  0
   -7.6071   -0.5276   -0.5263 H   0  0  0  0  0  0  0  0  0  0  0  0
   -6.8912    1.0087   -1.0137 H   0  0  0  0  0  0  0  0  0  0  0  0
   -5.5609    1.8238    1.0480 H   0  0  0  0  0  0  0  0  0  0  0  0
   -3.3798   -0.1040    1.9299 H   0  0  0  0  0  0  0  0  0  0  0  0
   -3.1243    1.6006    1.9466 H   0  0  0  0  0  0  0  0  0  0  0  0
   -5.0897    1.9348    3.4159 H   0  0  0  0  0  0  0  0  0  0  0  0
   -4.1027    0.9290    5.4432 H   0  0  0  0  0  0  0  0  0  0  0  0
   -3.1111   -0.1650    4.4464 H   0  0  0  0  0  0  0  0  0  0  0  0
   -2.8462    1.5918    4.3745 H   0  0  0  0  0  0  0  0  0  0  0  0
   -5.3649   -1.1165    3.3749 H   0  0  0  0  0  0  0  0  0  0  0  0
   -6.5645    0.0749    2.8283 H   0  0  0  0  0  0  0  0  0  0  0  0
   -6.1546   -0.0250    4.5281 H   0  0  0  0  0  0  0  0  0  0  0  0
   -5.4598    4.1676    0.3488 H   0  0  0  0  0  0  0  0  0  0  0  0
   -3.8562    4.9307    0.3378 H   0  0  0  0  0  0  0  0  0  0  0  0
   -4.1975    3.5970    1.4528 H   0  0  0  0  0  0  0  0  0  0  0  0
   -3.2765    2.7840   -2.5688 H   0  0  0  0  0  0  0  0  0  0  0  0
   -5.0192    5.2238   -1.9447 H   0  0  0  0  0  0  0  0  0  0  0  0
   -4.0253    4.0979   -4.6031 H   0  0  0  0  0  0  0  0  0  0  0  0
   -5.4348    5.1687   -4.4846 H   0  0  0  0  0  0  0  0  0  0  0  0
   -3.8774    5.7621   -3.9703 H   0  0  0  0  0  0  0  0  0  0  0  0
   -6.3810    3.1842   -1.6261 H   0  0  0  0  0  0  0  0  0  0  0  0
   -5.7855    2.5021   -3.1702 H   0  0  0  0  0  0  0  0  0  0  0  0
   -6.8179    3.9547   -3.1483 H   0  0  0  0  0  0  0  0  0  0  0  0
   -0.0022    3.2969    0.1533 H   0  0  0  0  0  0  0  0  0  0  0  0
   -1.5276    3.6229    1.0358 H   0  0  0  0  0  0  0  0  0  0  0  0
   -1.4718    2.4912   -0.3524 H   0  0  0  0  0  0  0  0  0  0  0  0
  1  2  1  0
  2  3  2  0
  3  4  1  0
  4  5  1  0
  5  6  1  0
  5  7  1  0
  7  8  1  0
  7  9  1  0
  9 10  1  0
 10 11  2  0
 10 12  1  0
 12 13  1  0
 13 14  1  0
 14 15  1  0
 13 16  1  0
 16 17  2  0
 16 18  1  0
 18 19  1  0
 18 20  1  0
 20 21  1  0
 21 22  1  0
 22 23  1  0
 23 24  1  0
 24 25  2  0
 25 26  1  0
 25 27  1  0
 27 28  1  0
 27 29  1  0
 20 30  1  0
 30 31  2  0
 30 32  1  0
 32 33  1  0
 32 34  1  0
 34 35  1  0
 35 36  1  0
 36 37  1  0
 36 38  1  0
 34 39  1  0
 39 40  2  0
 39 41  1  0
 41 42  1  0
 42 43  1  0
 43 44  1  0
 43 45  1  0
 42 46  1  0
 46 47  2  0
 46 48  1  0
 48 49  1  0
 48 50  1  0
 50 51  1  0
 51 52  1  0
 52 53  1  0
 52 54  1  0
 50 55  1  0
 55 56  2  0
 55 57  1  0
 57 58  1  0
 58 59  1  0
 58 60  1  0
 60 61  2  0
 60 62  1  0
 62 63  1  0
 63 64  1  0
 63 65  1  0
 65 66  2  0
 65 67  1  0
 67 68  1  0
 67 69  1  0
 69 70  1  0
 70 71  1  0
 71 72  1  0
 71 73  1  0
 69 74  1  0
 74 75  2  0
 74 76  1  0
 76 77  1  0
 76 78  1  0
 78 79  1  0
 79 80  1  0
 80 81  1  0
 80 82  1  0
 78 83  1  0
 83 84  2  0
 83 85  1  0
 85 86  1  0
 85 87  1  0
 87 88  1  0
 88 89  1  0
 88 90  1  0
 87 91  1  0
 91 92  2  0
 91 93  1  0
 93 94  1  0
 93  9  1  0
  1 95  1  0
  1 96  1  0
  1 97  1  0
  2 98  1  0
  3 99  1  0
  4100  1  0
  4101  1  0
  5102  1  1
  6103  1  0
  6104  1  0
  6105  1  0
  7106  1  6
  8107  1  0
  9108  1  6
 12109  1  0
 13110  1  6
 14111  1  0
 14112  1  0
 15113  1  0
 15114  1  0
 15115  1  0
 19116  1  0
 19117  1  0
 19118  1  0
 20119  1  1
 22120  1  0
 22121  1  0
 23122  1  0
 23123  1  0
 26124  1  0
 26125  1  0
 26126  1  0
 28127  1  0
 28128  1  0
 28129  1  0
 29130  1  0
 29131  1  0
 29132  1  0
 33133  1  0
 33134  1  0
 33135  1  0
 34136  1  6
 35137  1  0
 35138  1  0
 36139  1  0
 37140  1  0
 37141  1  0
 37142  1  0
 38143  1  0
 38144  1  0
 38145  1  0
 41146  1  0
 42147  1  6
 43148  1  0
 44149  1  0
 44150  1  0
 44151  1  0
 45152  1  0
 45153  1  0
 45154  1  0
 49155  1  0
 49156  1  0
 49157  1  0
 50158  1  6
 51159  1  0
 51160  1  0
 52161  1  0
 53162  1  0
 53163  1  0
 53164  1  0
 54165  1  0
 54166  1  0
 54167  1  0
 57168  1  0
 58169  1  1
 59170  1  0
 59171  1  0
 59172  1  0
 62173  1  0
 63174  1  1
 64175  1  0
 64176  1  0
 64177  1  0
 68178  1  0
 68179  1  0
 68180  1  0
 69181  1  6
 70182  1  0
 70183  1  0
 71184  1  0
 72185  1  0
 72186  1  0
 72187  1  0
 73188  1  0
 73189  1  0
 73190  1  0
 77191  1  0
 77192  1  0
 77193  1  0
 78194  1  1
 79195  1  0
 79196  1  0
 80197  1  0
 81198  1  0
 81199  1  0
 81200  1  0
 82201  1  0
 82202  1  0
 82203  1  0
 86204  1  0
 86205  1  0
 86206  1  0
 87207  1  6
 88208  1  0
 89209  1  0
 89210  1  0
 89211  1  0
 90212  1  0
 90213  1  0
 90214  1  0
 94215  1  0
 94216  1  0
 94217  1  0
M  END
>  <mol_id>  (1) 
58673

>  <source_index>  (1) 
1

>  <layer>  (1) 
L1

>  <uniprot>  (1) 
P62937

>  <paff>  (1) 
7.9585999999999997

>  <smiles>  (1) 
C/C=C/C[C@@H](C)[C@@H](O)[C@H]1C(=O)N[C@@H](CC)C(=O)N(C)[C@H](OCC/N=C(C)N(C)C)C(=O)N(C)[C@@H](CC(C)C)C(=O)N[C@@H](C(C)C)C(=O)N(C)[C@@H](CC(C)C)C(=O)N[C@@H](C)C(=O)N[C@H](C)C(=O)N(C)[C@@H](CC(C)C)C(=O)N(C)[C@@H](CC(C)C)C(=O)N(C)[C@@H](C(C)C)C(=O)N1C

$$$$
