L1:P62937:58673
 OpenBabel09212617543D

217217  0  0  0  0  0  0  0  0999 V2000
   55.0025   51.3878   53.6182 C   0  0  1  0  0  0  0  0  0  0  0  0
   54.5219   51.5072   52.1409 C   0  0  0  0  0  0  0  0  0  0  0  0
   54.8530   50.6643   51.3018 O   0  0  0  0  0  0  0  0  0  0  0  0
   53.7639   52.6132   51.8357 N   0  0  0  0  0  0  0  0  0  0  0  0
   53.2292   53.0198   50.5336 C   0  0  2  0  0  0  0  0  0  0  0  0
   51.6805   53.1196   50.5971 C   0  0  0  0  0  0  0  0  0  0  0  0
   51.1920   54.1967   50.9744 O   0  0  0  0  0  0  0  0  0  0  0  0
   50.8748   52.0410   50.2802 N   0  0  0  0  0  0  0  0  0  0  0  0
   51.2974   50.6581   50.3602 C   0  0  0  0  0  0  0  0  0  0  0  0
   49.4254   52.3080   50.1407 C   0  0  1  0  0  0  0  0  0  0  0  0
   49.2286   53.3841   49.0188 C   0  0  0  0  0  0  0  0  0  0  0  0
   49.7026   53.2442   47.8867 O   0  0  0  0  0  0  0  0  0  0  0  0
   48.5786   54.5841   49.3485 N   0  0  0  0  0  0  0  0  0  0  0  0
   49.2217   55.7845   48.8194 C   0  0  0  0  0  0  0  0  0  0  0  0
   47.1101   54.6655   49.4656 C   0  0  2  0  0  0  0  0  0  0  0  0
   46.4875   54.2123   50.8136 C   0  0  0  0  0  0  0  0  0  0  0  0
   46.9730   53.3394   51.5124 O   0  0  0  0  0  0  0  0  0  0  0  0
   45.2824   54.8185   51.1066 N   0  0  0  0  0  0  0  0  0  0  0  0
   44.4047   54.4732   52.2353 C   0  0  2  0  0  0  0  0  0  0  0  0
   44.9731   55.1507   53.5116 C   0  0  0  0  0  0  0  0  0  0  0  0
   45.9634   54.6953   54.0871 O   0  0  0  0  0  0  0  0  0  0  0  0
   44.3970   56.3569   53.9262 N   0  0  0  0  0  0  0  0  0  0  0  0
   43.0491   56.7412   53.5630 C   0  0  0  0  0  0  0  0  0  0  0  0
   45.1250   57.1364   54.9507 C   0  0  2  0  0  0  0  0  0  0  0  0
   44.7414   56.6632   56.3695 C   0  0  0  0  0  0  0  0  0  0  0  0
   43.8149   57.1173   57.0286 O   0  0  0  0  0  0  0  0  0  0  0  0
   45.4862   55.5846   56.8047 N   0  0  0  0  0  0  0  0  0  0  0  0
   45.3642   55.0113   58.1409 C   0  0  1  0  0  0  0  0  0  0  0  0
   45.4569   53.4910   58.0845 C   0  0  0  0  0  0  0  0  0  0  0  0
   46.4156   55.5842   59.1241 C   0  0  0  0  0  0  0  0  0  0  0  0
   46.6943   55.0351   60.1874 O   0  0  0  0  0  0  0  0  0  0  0  0
   46.9047   56.8200   58.7820 N   0  0  0  0  0  0  0  0  0  0  0  0
   47.8525   57.5589   59.6027 C   0  0  2  0  0  0  0  0  0  0  0  0
   47.1130   58.3000   60.7089 C   0  0  0  0  0  0  0  0  0  0  0  0
   48.5466   58.6064   58.7022 C   0  0  0  0  0  0  0  0  0  0  0  0
   47.8456   59.2236   57.8900 O   0  0  0  0  0  0  0  0  0  0  0  0
   49.9022   58.8475   58.8094 N   0  0  0  0  0  0  0  0  0  0  0  0
   50.4788   59.8041   57.8657 C   0  0  0  0  0  0  0  0  0  0  0  0
   50.9052   58.1268   59.6499 C   0  0  2  0  0  0  0  0  0  0  0  0
   51.1762   56.6937   59.0911 C   0  0  0  0  0  0  0  0  0  0  0  0
   50.3325   56.1408   58.3804 O   0  0  0  0  0  0  0  0  0  0  0  0
   52.3785   56.0534   59.4324 N   0  0  0  0  0  0  0  0  0  0  0  0
   53.4849   56.7047   60.1205 C   0  0  0  0  0  0  0  0  0  0  0  0
   52.7230   54.7355   58.8217 C   0  0  2  0  0  0  0  0  0  0  0  0
   53.3117   54.9629   57.3927 C   0  0  0  0  0  0  0  0  0  0  0  0
   52.8680   55.8549   56.6609 O   0  0  0  0  0  0  0  0  0  0  0  0
   54.4066   54.1951   56.9985 N   0  0  0  0  0  0  0  0  0  0  0  0
   54.9683   53.0876   57.7740 C   0  0  0  0  0  0  0  0  0  0  0  0
   55.1643   54.6303   55.7862 C   0  0  2  0  0  0  0  0  0  0  0  0
   55.2680   53.6160   54.5961 C   0  0  0  0  0  0  0  0  0  0  0  0
   56.0033   53.8754   53.6323 O   0  0  0  0  0  0  0  0  0  0  0  0
   54.5025   52.4551   54.5273 N   0  0  0  0  0  0  0  0  0  0  0  0
   53.1392   52.3581   55.0373 C   0  0  0  0  0  0  0  0  0  0  0  0
   53.5438   53.2475   52.6021 H   0  0  0  0  0  0  0  0  0  0  0  0
   45.0357   55.6541   50.5865 H   0  0  0  0  0  0  0  0  0  0  0  0
   46.1549   55.1642   56.1567 H   0  0  0  0  0  0  0  0  0  0  0  0
   46.6015   57.2618   57.9207 H   0  0  0  0  0  0  0  0  0  0  0  0
   56.5783   55.1787   56.2290 C   0  0  0  0  0  0  0  0  0  0  0  0
   56.5422   56.1667   57.4049 C   0  0  0  0  0  0  0  0  0  0  0  0
   57.5271   54.0334   56.6246 C   0  0  0  0  0  0  0  0  0  0  0  0
   44.1624   52.9608   52.4515 C   0  0  0  0  0  0  0  0  0  0  0  0
   43.7605   52.2307   51.1606 C   0  0  0  0  0  0  0  0  0  0  0  0
   43.0464   52.7327   53.4871 C   0  0  0  0  0  0  0  0  0  0  0  0
   54.8103   49.9108   54.0878 C   0  0  2  0  0  0  0  0  0  0  0  0
   53.4735   49.4732   53.7949 O   0  0  0  0  0  0  0  0  0  0  0  0
   53.5515   48.7203   53.1805 H   0  0  0  0  0  0  0  0  0  0  0  0
   55.0828   49.6434   55.5910 C   0  0  2  0  0  0  0  0  0  0  0  0
   56.1266   48.5521   55.7993 C   0  0  0  0  0  0  0  0  0  0  0  0
   53.7486   49.2586   56.2935 C   0  0  0  0  0  0  0  0  0  0  0  0
   52.5431   45.9560   58.0752 C   0  0  0  0  0  0  0  0  0  0  0  0
   52.5727   47.3524   57.5449 C   0  0  0  0  0  0  0  0  0  0  0  0
   53.6143   47.8705   56.8725 C   0  0  0  0  0  0  0  0  0  0  0  0
   53.8598   52.3889   49.2888 C   0  0  0  0  0  0  0  0  0  0  0  0
   55.1608   53.0600   48.8697 C   0  0  0  0  0  0  0  0  0  0  0  0
   46.4272   53.9573   48.2687 C   0  0  0  0  0  0  0  0  0  0  0  0
   45.7788   54.8574   47.1987 C   0  0  0  0  0  0  0  0  0  0  0  0
   45.7093   54.1889   45.8186 C   0  0  0  0  0  0  0  0  0  0  0  0
   44.3626   55.2364   47.6511 C   0  0  0  0  0  0  0  0  0  0  0  0
   48.7954   51.1027   49.6961 O   0  0  0  0  0  0  0  0  0  0  0  0
   47.5025   50.8914   50.2670 C   0  0  0  0  0  0  0  0  0  0  0  0
   47.2026   49.3885   50.2535 C   0  0  0  0  0  0  0  0  0  0  0  0
   48.0498   48.7209   51.2444 N   0  0  0  0  0  0  0  0  0  0  0  0
   47.8668   47.4950   51.6057 C   0  0  0  0  0  0  0  0  0  0  0  0
   46.7524   46.6487   51.0203 C   0  0  0  0  0  0  0  0  0  0  0  0
   48.7181   46.9375   52.5548 N   0  0  0  0  0  0  0  0  0  0  0  0
   49.2878   47.7645   53.6179 C   0  0  0  0  0  0  0  0  0  0  0  0
   49.1983   45.5695   52.5006 C   0  0  0  0  0  0  0  0  0  0  0  0
   45.2649   58.6666   54.7447 C   0  0  0  0  0  0  0  0  0  0  0  0
   46.4140   59.3335   53.9595 C   0  0  0  0  0  0  0  0  0  0  0  0
   47.5115   58.2850   53.7107 C   0  0  0  0  0  0  0  0  0  0  0  0
   47.0513   60.5337   54.6629 C   0  0  0  0  0  0  0  0  0  0  0  0
   50.6479   58.1705   61.1739 C   0  0  0  0  0  0  0  0  0  0  0  0
   51.0948   59.4803   61.8624 C   0  0  0  0  0  0  0  0  0  0  0  0
   52.3073   60.0571   61.1298 C   0  0  0  0  0  0  0  0  0  0  0  0
   49.9810   60.5307   61.8980 C   0  0  0  0  0  0  0  0  0  0  0  0
   51.6597   53.6201   58.8545 C   0  0  0  0  0  0  0  0  0  0  0  0
   51.9373   52.5052   59.8866 C   0  0  0  0  0  0  0  0  0  0  0  0
   53.0233   52.9569   60.8683 C   0  0  0  0  0  0  0  0  0  0  0  0
   52.3507   51.1748   59.2557 C   0  0  0  0  0  0  0  0  0  0  0  0
   56.0509   51.5956   53.6683 H   0  0  0  0  0  0  0  0  0  0  0  0
   53.5795   54.0137   50.3480 H   0  0  0  0  0  0  0  0  0  0  0  0
   52.3621   50.6156   50.4580 H   0  0  0  0  0  0  0  0  0  0  0  0
   51.0001   50.1423   49.4711 H   0  0  0  0  0  0  0  0  0  0  0  0
   50.8423   50.1947   51.2105 H   0  0  0  0  0  0  0  0  0  0  0  0
   49.0137   52.6428   51.0698 H   0  0  0  0  0  0  0  0  0  0  0  0
   50.2795   55.6309   48.7718 H   0  0  0  0  0  0  0  0  0  0  0  0
   49.0104   56.6145   49.4607 H   0  0  0  0  0  0  0  0  0  0  0  0
   48.8462   55.9873   47.8382 H   0  0  0  0  0  0  0  0  0  0  0  0
   46.9095   55.7163   49.4442 H   0  0  0  0  0  0  0  0  0  0  0  0
   43.4291   54.8443   52.0001 H   0  0  0  0  0  0  0  0  0  0  0  0
   42.6775   56.0737   52.8138 H   0  0  0  0  0  0  0  0  0  0  0  0
   43.0540   57.7402   53.1798 H   0  0  0  0  0  0  0  0  0  0  0  0
   42.4196   56.6937   54.4269 H   0  0  0  0  0  0  0  0  0  0  0  0
   46.1564   56.8930   54.8028 H   0  0  0  0  0  0  0  0  0  0  0  0
   44.3997   55.2864   58.5137 H   0  0  0  0  0  0  0  0  0  0  0  0
   46.4188   53.2059   57.7125 H   0  0  0  0  0  0  0  0  0  0  0  0
   44.6963   53.1112   57.4348 H   0  0  0  0  0  0  0  0  0  0  0  0
   45.3207   53.0887   59.0666 H   0  0  0  0  0  0  0  0  0  0  0  0
   48.5605   56.8832   60.0352 H   0  0  0  0  0  0  0  0  0  0  0  0
   46.4055   58.9751   60.2747 H   0  0  0  0  0  0  0  0  0  0  0  0
   47.8146   58.8503   61.3003 H   0  0  0  0  0  0  0  0  0  0  0  0
   46.5994   57.5952   61.3288 H   0  0  0  0  0  0  0  0  0  0  0  0
   49.6945   60.2719   57.3081 H   0  0  0  0  0  0  0  0  0  0  0  0
   51.1363   59.2914   57.1951 H   0  0  0  0  0  0  0  0  0  0  0  0
   51.0275   60.5490   58.4033 H   0  0  0  0  0  0  0  0  0  0  0  0
   51.8145   58.6837   59.5606 H   0  0  0  0  0  0  0  0  0  0  0  0
   53.1530   57.6376   60.5261 H   0  0  0  0  0  0  0  0  0  0  0  0
   54.2817   56.8801   59.4283 H   0  0  0  0  0  0  0  0  0  0  0  0
   53.8326   56.0749   60.9125 H   0  0  0  0  0  0  0  0  0  0  0  0
   53.4600   54.3224   59.4783 H   0  0  0  0  0  0  0  0  0  0  0  0
   54.3326   52.8782   58.6088 H   0  0  0  0  0  0  0  0  0  0  0  0
   55.9423   53.3566   58.1260 H   0  0  0  0  0  0  0  0  0  0  0  0
   55.0406   52.2186   57.1539 H   0  0  0  0  0  0  0  0  0  0  0  0
   54.5690   55.4055   55.3509 H   0  0  0  0  0  0  0  0  0  0  0  0
   52.9352   53.1955   55.6714 H   0  0  0  0  0  0  0  0  0  0  0  0
   53.0313   51.4524   55.5968 H   0  0  0  0  0  0  0  0  0  0  0  0
   52.4512   52.3552   54.2178 H   0  0  0  0  0  0  0  0  0  0  0  0
   56.9302   55.7010   55.3640 H   0  0  0  0  0  0  0  0  0  0  0  0
   56.1923   55.6642   58.2824 H   0  0  0  0  0  0  0  0  0  0  0  0
   55.8827   56.9761   57.1706 H   0  0  0  0  0  0  0  0  0  0  0  0
   57.5264   56.5480   57.5807 H   0  0  0  0  0  0  0  0  0  0  0  0
   57.1437   53.5357   57.4907 H   0  0  0  0  0  0  0  0  0  0  0  0
   58.4961   54.4319   56.8419 H   0  0  0  0  0  0  0  0  0  0  0  0
   57.6012   53.3363   55.8162 H   0  0  0  0  0  0  0  0  0  0  0  0
   45.0939   52.5630   52.7963 H   0  0  0  0  0  0  0  0  0  0  0  0
   42.8293   52.6203   50.8056 H   0  0  0  0  0  0  0  0  0  0  0  0
   43.6566   51.1846   51.3600 H   0  0  0  0  0  0  0  0  0  0  0  0
   44.5157   52.3788   50.4172 H   0  0  0  0  0  0  0  0  0  0  0  0
   42.1283   53.1393   53.1174 H   0  0  0  0  0  0  0  0  0  0  0  0
   43.3071   53.2171   54.4049 H   0  0  0  0  0  0  0  0  0  0  0  0
   42.9282   51.6832   53.6588 H   0  0  0  0  0  0  0  0  0  0  0  0
   55.5501   49.3618   53.5436 H   0  0  0  0  0  0  0  0  0  0  0  0
   55.4775   50.5393   56.0228 H   0  0  0  0  0  0  0  0  0  0  0  0
   55.7711   47.6339   55.3803 H   0  0  0  0  0  0  0  0  0  0  0  0
   56.3023   48.4218   56.8467 H   0  0  0  0  0  0  0  0  0  0  0  0
   57.0390   48.8346   55.3171 H   0  0  0  0  0  0  0  0  0  0  0  0
   53.6028   49.9512   57.0960 H   0  0  0  0  0  0  0  0  0  0  0  0
   53.0215   49.2870   55.5090 H   0  0  0  0  0  0  0  0  0  0  0  0
   51.6104   45.7821   58.5700 H   0  0  0  0  0  0  0  0  0  0  0  0
   53.3459   45.8211   58.7697 H   0  0  0  0  0  0  0  0  0  0  0  0
   52.6518   45.2647   57.2658 H   0  0  0  0  0  0  0  0  0  0  0  0
   51.7479   47.9520   57.7037 H   0  0  0  0  0  0  0  0  0  0  0  0
   54.4217   47.2426   56.7349 H   0  0  0  0  0  0  0  0  0  0  0  0
   53.1631   52.4628   48.4800 H   0  0  0  0  0  0  0  0  0  0  0  0
   54.0898   51.3720   49.5295 H   0  0  0  0  0  0  0  0  0  0  0  0
   54.9702   54.0829   48.6202 H   0  0  0  0  0  0  0  0  0  0  0  0
   55.5646   52.5543   48.0176 H   0  0  0  0  0  0  0  0  0  0  0  0
   55.8618   53.0144   49.6768 H   0  0  0  0  0  0  0  0  0  0  0  0
   45.6615   53.3228   48.6635 H   0  0  0  0  0  0  0  0  0  0  0  0
   47.2185   53.4476   47.7599 H   0  0  0  0  0  0  0  0  0  0  0  0
   46.3949   55.7264   47.0974 H   0  0  0  0  0  0  0  0  0  0  0  0
   45.0994   53.3117   45.8775 H   0  0  0  0  0  0  0  0  0  0  0  0
   46.6952   53.9174   45.5038 H   0  0  0  0  0  0  0  0  0  0  0  0
   45.2848   54.8717   45.1125 H   0  0  0  0  0  0  0  0  0  0  0  0
   43.7690   54.3510   47.7443 H   0  0  0  0  0  0  0  0  0  0  0  0
   43.9195   55.8884   46.9275 H   0  0  0  0  0  0  0  0  0  0  0  0
   44.4116   55.7341   48.5970 H   0  0  0  0  0  0  0  0  0  0  0  0
   46.7650   51.4115   49.6920 H   0  0  0  0  0  0  0  0  0  0  0  0
   47.4814   51.2597   51.2714 H   0  0  0  0  0  0  0  0  0  0  0  0
   47.4074   48.9912   49.2813 H   0  0  0  0  0  0  0  0  0  0  0  0
   46.1724   49.2247   50.4917 H   0  0  0  0  0  0  0  0  0  0  0  0
   46.1984   47.2288   50.3121 H   0  0  0  0  0  0  0  0  0  0  0  0
   46.1003   46.3256   51.8047 H   0  0  0  0  0  0  0  0  0  0  0  0
   47.1724   45.7947   50.5312 H   0  0  0  0  0  0  0  0  0  0  0  0
   48.8687   48.7478   53.5682 H   0  0  0  0  0  0  0  0  0  0  0  0
   50.3491   47.8225   53.4947 H   0  0  0  0  0  0  0  0  0  0  0  0
   49.0624   47.3283   54.5686 H   0  0  0  0  0  0  0  0  0  0  0  0
   48.7211   45.0557   51.6924 H   0  0  0  0  0  0  0  0  0  0  0  0
   48.9707   45.0748   53.4217 H   0  0  0  0  0  0  0  0  0  0  0  0
   50.2573   45.5690   52.3477 H   0  0  0  0  0  0  0  0  0  0  0  0
   45.3029   59.0885   55.7273 H   0  0  0  0  0  0  0  0  0  0  0  0
   44.4375   58.8592   54.0941 H   0  0  0  0  0  0  0  0  0  0  0  0
   45.9812   59.7035   53.0536 H   0  0  0  0  0  0  0  0  0  0  0  0
   47.9062   57.9525   54.6480 H   0  0  0  0  0  0  0  0  0  0  0  0
   48.2958   58.7211   53.1280 H   0  0  0  0  0  0  0  0  0  0  0  0
   47.0960   57.4521   53.1830 H   0  0  0  0  0  0  0  0  0  0  0  0
   47.5002   60.2128   55.5797 H   0  0  0  0  0  0  0  0  0  0  0  0
   46.2992   61.2658   54.8711 H   0  0  0  0  0  0  0  0  0  0  0  0
   47.8002   60.9618   54.0298 H   0  0  0  0  0  0  0  0  0  0  0  0
   51.1776   57.3580   61.6256 H   0  0  0  0  0  0  0  0  0  0  0  0
   49.5881   58.1039   61.3055 H   0  0  0  0  0  0  0  0  0  0  0  0
   51.3459   59.2382   62.8739 H   0  0  0  0  0  0  0  0  0  0  0  0
   52.0363   60.2924   60.1218 H   0  0  0  0  0  0  0  0  0  0  0  0
   53.0985   59.3368   61.1275 H   0  0  0  0  0  0  0  0  0  0  0  0
   52.6353   60.9457   61.6276 H   0  0  0  0  0  0  0  0  0  0  0  0
   49.7071   60.7942   60.8978 H   0  0  0  0  0  0  0  0  0  0  0  0
   50.3283   61.4015   62.4138 H   0  0  0  0  0  0  0  0  0  0  0  0
   49.1294   60.1304   62.4073 H   0  0  0  0  0  0  0  0  0  0  0  0
   51.6131   53.1733   57.8834 H   0  0  0  0  0  0  0  0  0  0  0  0
   50.7398   54.0832   59.1447 H   0  0  0  0  0  0  0  0  0  0  0  0
   51.0118   52.3353   60.3960 H   0  0  0  0  0  0  0  0  0  0  0  0
   53.9380   53.1205   60.3378 H   0  0  0  0  0  0  0  0  0  0  0  0
   53.1715   52.1995   61.6095 H   0  0  0  0  0  0  0  0  0  0  0  0
   52.7189   53.8661   61.3433 H   0  0  0  0  0  0  0  0  0  0  0  0
   53.2762   51.3000   58.7335 H   0  0  0  0  0  0  0  0  0  0  0  0
   51.5944   50.8552   58.5696 H   0  0  0  0  0  0  0  0  0  0  0  0
   52.4707   50.4384   60.0226 H   0  0  0  0  0  0  0  0  0  0  0  0
  1  2  1  0  0  0  0
  1100  1  6  0  0  0
  2  3  2  0  0  0  0
  2  4  1  0  0  0  0
  4  5  1  0  0  0  0
  4 54  1  0  0  0  0
  5 73  1  0  0  0  0
  5  6  1  0  0  0  0
  5101  1  6  0  0  0
  6  7  2  0  0  0  0
  6  8  1  0  0  0  0
  8  9  1  0  0  0  0
  8 10  1  0  0  0  0
  9102  1  0  0  0  0
  9103  1  0  0  0  0
  9104  1  0  0  0  0
 10 79  1  0  0  0  0
 10 11  1  0  0  0  0
 10105  1  1  0  0  0
 11 12  2  0  0  0  0
 11 13  1  0  0  0  0
 13 14  1  0  0  0  0
 13 15  1  0  0  0  0
 14106  1  0  0  0  0
 14107  1  0  0  0  0
 14108  1  0  0  0  0
 15 75  1  0  0  0  0
 15 16  1  0  0  0  0
 15109  1  6  0  0  0
 16 17  2  0  0  0  0
 16 18  1  0  0  0  0
 18 19  1  0  0  0  0
 18 55  1  0  0  0  0
 19 61  1  0  0  0  0
 19 20  1  0  0  0  0
 19110  1  6  0  0  0
 20 21  2  0  0  0  0
 20 22  1  0  0  0  0
 22 23  1  0  0  0  0
 22 24  1  0  0  0  0
 23111  1  0  0  0  0
 23112  1  0  0  0  0
 23113  1  0  0  0  0
 24 88  1  0  0  0  0
 24 25  1  0  0  0  0
 24114  1  6  0  0  0
 25 26  2  0  0  0  0
 25 27  1  0  0  0  0
 27 28  1  0  0  0  0
 27 56  1  0  0  0  0
 28 29  1  0  0  0  0
 28 30  1  0  0  0  0
 28115  1  1  0  0  0
 29116  1  0  0  0  0
 29117  1  0  0  0  0
 29118  1  0  0  0  0
 30 31  2  0  0  0  0
 30 32  1  0  0  0  0
 32 33  1  0  0  0  0
 32 57  1  0  0  0  0
 33 34  1  0  0  0  0
 33 35  1  0  0  0  0
 33119  1  1  0  0  0
 34120  1  0  0  0  0
 34121  1  0  0  0  0
 34122  1  0  0  0  0
 35 36  2  0  0  0  0
 35 37  1  0  0  0  0
 37 38  1  0  0  0  0
 37 39  1  0  0  0  0
 38123  1  0  0  0  0
 38124  1  0  0  0  0
 38125  1  0  0  0  0
 39 92  1  0  0  0  0
 39 40  1  0  0  0  0
 39126  1  6  0  0  0
 40 41  2  0  0  0  0
 40 42  1  0  0  0  0
 42 43  1  0  0  0  0
 42 44  1  0  0  0  0
 43127  1  0  0  0  0
 43128  1  0  0  0  0
 43129  1  0  0  0  0
 44 96  1  0  0  0  0
 44 45  1  0  0  0  0
 44130  1  1  0  0  0
 45 46  2  0  0  0  0
 45 47  1  0  0  0  0
 47 48  1  0  0  0  0
 47 49  1  0  0  0  0
 48131  1  0  0  0  0
 48132  1  0  0  0  0
 48133  1  0  0  0  0
 49 58  1  0  0  0  0
 49 50  1  0  0  0  0
 49134  1  6  0  0  0
 50 51  2  0  0  0  0
 50 52  1  0  0  0  0
 52 53  1  0  0  0  0
 52  1  1  0  0  0  0
 53135  1  0  0  0  0
 53136  1  0  0  0  0
 53137  1  0  0  0  0
 58 59  1  0  0  0  0
 58 60  1  0  0  0  0
 58138  1  0  0  0  0
 59139  1  0  0  0  0
 59140  1  0  0  0  0
 59141  1  0  0  0  0
 60142  1  0  0  0  0
 60143  1  0  0  0  0
 60144  1  0  0  0  0
 61 62  1  0  0  0  0
 61 63  1  0  0  0  0
 61145  1  0  0  0  0
 62146  1  0  0  0  0
 62147  1  0  0  0  0
 62148  1  0  0  0  0
 63149  1  0  0  0  0
 63150  1  0  0  0  0
 63151  1  0  0  0  0
 64 65  1  0  0  0  0
 64  1  1  0  0  0  0
 64152  1  6  0  0  0
 65 66  1  0  0  0  0
 67 68  1  0  0  0  0
 67 64  1  0  0  0  0
 67153  1  1  0  0  0
 68154  1  0  0  0  0
 68155  1  0  0  0  0
 68156  1  0  0  0  0
 69 67  1  0  0  0  0
 69157  1  0  0  0  0
 69158  1  0  0  0  0
 70 71  1  0  0  0  0
 70159  1  0  0  0  0
 70160  1  0  0  0  0
 70161  1  0  0  0  0
 71 72  2  0  0  0  0
 71162  1  0  0  0  0
 72 69  1  0  0  0  0
 72163  1  0  0  0  0
 73 74  1  0  0  0  0
 73164  1  0  0  0  0
 73165  1  0  0  0  0
 74166  1  0  0  0  0
 74167  1  0  0  0  0
 74168  1  0  0  0  0
 75 76  1  0  0  0  0
 75169  1  0  0  0  0
 75170  1  0  0  0  0
 76 77  1  0  0  0  0
 76 78  1  0  0  0  0
 76171  1  0  0  0  0
 77172  1  0  0  0  0
 77173  1  0  0  0  0
 77174  1  0  0  0  0
 78175  1  0  0  0  0
 78176  1  0  0  0  0
 78177  1  0  0  0  0
 79 80  1  0  0  0  0
 80 81  1  0  0  0  0
 80178  1  0  0  0  0
 80179  1  0  0  0  0
 81 82  1  0  0  0  0
 81180  1  0  0  0  0
 81181  1  0  0  0  0
 82 83  2  0  0  0  0
 83 84  1  0  0  0  0
 83 85  1  0  0  0  0
 84182  1  0  0  0  0
 84183  1  0  0  0  0
 84184  1  0  0  0  0
 85 86  1  0  0  0  0
 85 87  1  0  0  0  0
 86185  1  0  0  0  0
 86186  1  0  0  0  0
 86187  1  0  0  0  0
 87188  1  0  0  0  0
 87189  1  0  0  0  0
 87190  1  0  0  0  0
 88 89  1  0  0  0  0
 88191  1  0  0  0  0
 88192  1  0  0  0  0
 89 90  1  0  0  0  0
 89 91  1  0  0  0  0
 89193  1  0  0  0  0
 90194  1  0  0  0  0
 90195  1  0  0  0  0
 90196  1  0  0  0  0
 91197  1  0  0  0  0
 91198  1  0  0  0  0
 91199  1  0  0  0  0
 92 93  1  0  0  0  0
 92200  1  0  0  0  0
 92201  1  0  0  0  0
 93 94  1  0  0  0  0
 93 95  1  0  0  0  0
 93202  1  0  0  0  0
 94203  1  0  0  0  0
 94204  1  0  0  0  0
 94205  1  0  0  0  0
 95206  1  0  0  0  0
 95207  1  0  0  0  0
 95208  1  0  0  0  0
 96 97  1  0  0  0  0
 96209  1  0  0  0  0
 96210  1  0  0  0  0
 97 98  1  0  0  0  0
 97 99  1  0  0  0  0
 97211  1  0  0  0  0
 98212  1  0  0  0  0
 98213  1  0  0  0  0
 98214  1  0  0  0  0
 99215  1  0  0  0  0
 99216  1  0  0  0  0
 99217  1  0  0  0  0
M  END
>  <minimizedAffinity>
-6.70101

$$$$
