L1:P62937:58673


 99 99  0  0  0  0  0  0  0  0999 V2000
   55.0025   51.3878   53.6182 C   0  0  0  0  0  0  0  0  0  0  0  0
   54.5219   51.5072   52.1409 C   0  0  0  0  0  0  0  0  0  0  0  0
   54.8530   50.6643   51.3018 O   0  0  0  0  0  0  0  0  0  0  0  0
   53.7639   52.6132   51.8357 N   0  0  0  0  0  0  0  0  0  0  0  0
   53.2292   53.0198   50.5336 C   0  0  0  0  0  0  0  0  0  0  0  0
   51.6805   53.1196   50.5971 C   0  0  0  0  0  0  0  0  0  0  0  0
   51.1920   54.1967   50.9744 O   0  0  0  0  0  0  0  0  0  0  0  0
   50.8748   52.0410   50.2802 N   0  0  0  0  0  0  0  0  0  0  0  0
   51.2974   50.6581   50.3602 C   0  0  0  0  0  0  0  0  0  0  0  0
   49.4254   52.3080   50.1407 C   0  0  0  0  0  0  0  0  0  0  0  0
   49.2286   53.3841   49.0188 C   0  0  0  0  0  0  0  0  0  0  0  0
   49.7026   53.2442   47.8867 O   0  0  0  0  0  0  0  0  0  0  0  0
   48.5786   54.5841   49.3485 N   0  0  0  0  0  0  0  0  0  0  0  0
   49.2217   55.7845   48.8194 C   0  0  0  0  0  0  0  0  0  0  0  0
   47.1101   54.6655   49.4656 C   0  0  0  0  0  0  0  0  0  0  0  0
   46.4875   54.2123   50.8136 C   0  0  0  0  0  0  0  0  0  0  0  0
   46.9730   53.3394   51.5124 O   0  0  0  0  0  0  0  0  0  0  0  0
   45.2824   54.8185   51.1066 N   0  0  0  0  0  0  0  0  0  0  0  0
   44.4047   54.4732   52.2353 C   0  0  0  0  0  0  0  0  0  0  0  0
   44.9731   55.1507   53.5116 C   0  0  0  0  0  0  0  0  0  0  0  0
   45.9634   54.6953   54.0871 O   0  0  0  0  0  0  0  0  0  0  0  0
   44.3970   56.3569   53.9262 N   0  0  0  0  0  0  0  0  0  0  0  0
   43.0491   56.7412   53.5630 C   0  0  0  0  0  0  0  0  0  0  0  0
   45.1250   57.1364   54.9507 C   0  0  0  0  0  0  0  0  0  0  0  0
   44.7414   56.6632   56.3695 C   0  0  0  0  0  0  0  0  0  0  0  0
   43.8149   57.1173   57.0286 O   0  0  0  0  0  0  0  0  0  0  0  0
   45.4862   55.5846   56.8047 N   0  0  0  0  0  0  0  0  0  0  0  0
   45.3642   55.0113   58.1409 C   0  0  0  0  0  0  0  0  0  0  0  0
   45.4569   53.4910   58.0845 C   0  0  0  0  0  0  0  0  0  0  0  0
   46.4156   55.5842   59.1241 C   0  0  0  0  0  0  0  0  0  0  0  0
   46.6943   55.0351   60.1874 O   0  0  0  0  0  0  0  0  0  0  0  0
   46.9047   56.8200   58.7820 N   0  0  0  0  0  0  0  0  0  0  0  0
   47.8525   57.5589   59.6027 C   0  0  0  0  0  0  0  0  0  0  0  0
   47.1130   58.3000   60.7089 C   0  0  0  0  0  0  0  0  0  0  0  0
   48.5466   58.6064   58.7022 C   0  0  0  0  0  0  0  0  0  0  0  0
   47.8456   59.2236   57.8900 O   0  0  0  0  0  0  0  0  0  0  0  0
   49.9022   58.8475   58.8094 N   0  0  0  0  0  0  0  0  0  0  0  0
   50.4788   59.8041   57.8657 C   0  0  0  0  0  0  0  0  0  0  0  0
   50.9052   58.1268   59.6499 C   0  0  0  0  0  0  0  0  0  0  0  0
   51.1762   56.6937   59.0911 C   0  0  0  0  0  0  0  0  0  0  0  0
   50.3325   56.1408   58.3804 O   0  0  0  0  0  0  0  0  0  0  0  0
   52.3785   56.0534   59.4324 N   0  0  0  0  0  0  0  0  0  0  0  0
   53.4849   56.7047   60.1205 C   0  0  0  0  0  0  0  0  0  0  0  0
   52.7230   54.7355   58.8217 C   0  0  0  0  0  0  0  0  0  0  0  0
   53.3117   54.9629   57.3927 C   0  0  0  0  0  0  0  0  0  0  0  0
   52.8680   55.8549   56.6609 O   0  0  0  0  0  0  0  0  0  0  0  0
   54.4066   54.1951   56.9985 N   0  0  0  0  0  0  0  0  0  0  0  0
   54.9683   53.0876   57.7740 C   0  0  0  0  0  0  0  0  0  0  0  0
   55.1643   54.6303   55.7862 C   0  0  0  0  0  0  0  0  0  0  0  0
   55.2680   53.6160   54.5961 C   0  0  0  0  0  0  0  0  0  0  0  0
   56.0033   53.8754   53.6323 O   0  0  0  0  0  0  0  0  0  0  0  0
   54.5025   52.4551   54.5273 N   0  0  0  0  0  0  0  0  0  0  0  0
   53.1392   52.3581   55.0373 C   0  0  0  0  0  0  0  0  0  0  0  0
   53.5438   53.2475   52.6021 H   0  0  0  0  0  0  0  0  0  0  0  0
   45.0357   55.6541   50.5865 H   0  0  0  0  0  0  0  0  0  0  0  0
   46.1549   55.1642   56.1567 H   0  0  0  0  0  0  0  0  0  0  0  0
   46.6015   57.2618   57.9207 H   0  0  0  0  0  0  0  0  0  0  0  0
   56.5783   55.1787   56.2290 C   0  0  0  0  0  0  0  0  0  0  0  0
   56.5422   56.1667   57.4049 C   0  0  0  0  0  0  0  0  0  0  0  0
   57.5271   54.0334   56.6246 C   0  0  0  0  0  0  0  0  0  0  0  0
   44.1624   52.9608   52.4515 C   0  0  0  0  0  0  0  0  0  0  0  0
   43.7605   52.2307   51.1606 C   0  0  0  0  0  0  0  0  0  0  0  0
   43.0464   52.7327   53.4871 C   0  0  0  0  0  0  0  0  0  0  0  0
   54.8103   49.9108   54.0878 C   0  0  0  0  0  0  0  0  0  0  0  0
   53.4735   49.4732   53.7949 O   0  0  0  0  0  0  0  0  0  0  0  0
   53.5515   48.7203   53.1805 H   0  0  0  0  0  0  0  0  0  0  0  0
   55.0828   49.6434   55.5910 C   0  0  0  0  0  0  0  0  0  0  0  0
   56.1266   48.5521   55.7993 C   0  0  0  0  0  0  0  0  0  0  0  0
   53.7486   49.2586   56.2935 C   0  0  0  0  0  0  0  0  0  0  0  0
   52.5431   45.9560   58.0752 C   0  0  0  0  0  0  0  0  0  0  0  0
   52.5727   47.3524   57.5449 C   0  0  0  0  0  0  0  0  0  0  0  0
   53.6143   47.8705   56.8725 C   0  0  0  0  0  0  0  0  0  0  0  0
   53.8598   52.3889   49.2888 C   0  0  0  0  0  0  0  0  0  0  0  0
   55.1608   53.0600   48.8697 C   0  0  0  0  0  0  0  0  0  0  0  0
   46.4272   53.9573   48.2687 C   0  0  0  0  0  0  0  0  0  0  0  0
   45.7788   54.8574   47.1987 C   0  0  0  0  0  0  0  0  0  0  0  0
   45.7093   54.1889   45.8186 C   0  0  0  0  0  0  0  0  0  0  0  0
   44.3626   55.2364   47.6511 C   0  0  0  0  0  0  0  0  0  0  0  0
   48.7954   51.1027   49.6961 O   0  0  0  0  0  0  0  0  0  0  0  0
   47.5025   50.8914   50.2670 C   0  0  0  0  0  0  0  0  0  0  0  0
   47.2026   49.3885   50.2535 C   0  0  0  0  0  0  0  0  0  0  0  0
   48.0498   48.7209   51.2444 N   0  0  0  0  0  0  0  0  0  0  0  0
   47.8668   47.4950   51.6057 C   0  0  0  0  0  0  0  0  0  0  0  0
   46.7524   46.6487   51.0203 C   0  0  0  0  0  0  0  0  0  0  0  0
   48.7181   46.9375   52.5548 N   0  0  0  0  0  0  0  0  0  0  0  0
   49.2878   47.7645   53.6179 C   0  0  0  0  0  0  0  0  0  0  0  0
   49.1983   45.5695   52.5006 C   0  0  0  0  0  0  0  0  0  0  0  0
   45.2649   58.6666   54.7447 C   0  0  0  0  0  0  0  0  0  0  0  0
   46.4140   59.3335   53.9595 C   0  0  0  0  0  0  0  0  0  0  0  0
   47.5115   58.2850   53.7107 C   0  0  0  0  0  0  0  0  0  0  0  0
   47.0513   60.5337   54.6629 C   0  0  0  0  0  0  0  0  0  0  0  0
   50.6479   58.1705   61.1739 C   0  0  0  0  0  0  0  0  0  0  0  0
   51.0948   59.4803   61.8624 C   0  0  0  0  0  0  0  0  0  0  0  0
   52.3073   60.0571   61.1298 C   0  0  0  0  0  0  0  0  0  0  0  0
   49.9810   60.5307   61.8980 C   0  0  0  0  0  0  0  0  0  0  0  0
   51.6597   53.6201   58.8545 C   0  0  0  0  0  0  0  0  0  0  0  0
   51.9373   52.5052   59.8866 C   0  0  0  0  0  0  0  0  0  0  0  0
   53.0233   52.9569   60.8683 C   0  0  0  0  0  0  0  0  0  0  0  0
   52.3507   51.1748   59.2557 C   0  0  0  0  0  0  0  0  0  0  0  0
 70 71  1  0  0  0
 71 72  2  0  0  0
 72 69  1  0  0  0
 69 67  1  0  0  0
 67 68  1  0  0  0
 67 64  1  0  0  0
 64 65  1  0  0  0
 64  1  1  0  0  0
  1  2  1  0  0  0
  2  3  2  0  0  0
  2  4  1  0  0  0
  4  5  1  0  0  0
  5 73  1  0  0  0
 73 74  1  0  0  0
  5  6  1  0  0  0
  6  7  2  0  0  0
  6  8  1  0  0  0
  8  9  1  0  0  0
  8 10  1  0  0  0
 10 79  1  0  0  0
 79 80  1  0  0  0
 80 81  1  0  0  0
 81 82  1  0  0  0
 82 83  2  0  0  0
 83 84  1  0  0  0
 83 85  1  0  0  0
 85 86  1  0  0  0
 85 87  1  0  0  0
 10 11  1  0  0  0
 11 12  2  0  0  0
 11 13  1  0  0  0
 13 14  1  0  0  0
 13 15  1  0  0  0
 15 75  1  0  0  0
 75 76  1  0  0  0
 76 77  1  0  0  0
 76 78  1  0  0  0
 15 16  1  0  0  0
 16 17  2  0  0  0
 16 18  1  0  0  0
 18 19  1  0  0  0
 19 61  1  0  0  0
 61 62  1  0  0  0
 61 63  1  0  0  0
 19 20  1  0  0  0
 20 21  2  0  0  0
 20 22  1  0  0  0
 22 23  1  0  0  0
 22 24  1  0  0  0
 24 88  1  0  0  0
 88 89  1  0  0  0
 89 90  1  0  0  0
 89 91  1  0  0  0
 24 25  1  0  0  0
 25 26  2  0  0  0
 25 27  1  0  0  0
 27 28  1  0  0  0
 28 29  1  0  0  0
 28 30  1  0  0  0
 30 31  2  0  0  0
 30 32  1  0  0  0
 32 33  1  0  0  0
 33 34  1  0  0  0
 33 35  1  0  0  0
 35 36  2  0  0  0
 35 37  1  0  0  0
 37 38  1  0  0  0
 37 39  1  0  0  0
 39 92  1  0  0  0
 92 93  1  0  0  0
 93 94  1  0  0  0
 93 95  1  0  0  0
 39 40  1  0  0  0
 40 41  2  0  0  0
 40 42  1  0  0  0
 42 43  1  0  0  0
 42 44  1  0  0  0
 44 96  1  0  0  0
 96 97  1  0  0  0
 97 98  1  0  0  0
 97 99  1  0  0  0
 44 45  1  0  0  0
 45 46  2  0  0  0
 45 47  1  0  0  0
 47 48  1  0  0  0
 47 49  1  0  0  0
 49 58  1  0  0  0
 58 59  1  0  0  0
 58 60  1  0  0  0
 49 50  1  0  0  0
 50 51  2  0  0  0
 50 52  1  0  0  0
 52 53  1  0  0  0
 52  1  1  0  0  0
 65 66  1  0  0  0
  4 54  1  0  0  0
 18 55  1  0  0  0
 27 56  1  0  0  0
 32 57  1  0  0  0
M  END
> <minimizedAffinity>
-6.70101

$$$$
