L1:P62937:69521
     RDKit          3D

199199  0  0  0  0  0  0  0  0999 V2000
   -6.2085   -6.5366   -3.5113 C   0  0  0  0  0  0  0  0  0  0  0  0
   -6.4109   -5.5858   -2.3761 C   0  0  0  0  0  0  0  0  0  0  0  0
   -6.7750   -5.9577   -1.1395 C   0  0  0  0  0  0  0  0  0  0  0  0
   -6.9990   -4.9888   -0.0121 C   0  0  0  0  0  0  0  0  0  0  0  0
   -6.2545   -5.2590    1.3148 C   0  0  1  0  0  0  0  0  0  0  0  0
   -6.5557   -6.6749    1.8349 C   0  0  0  0  0  0  0  0  0  0  0  0
   -4.7226   -4.9986    1.3364 C   0  0  1  0  0  0  0  0  0  0  0  0
   -3.9979   -5.8821    0.4794 O   0  0  0  0  0  0  0  0  0  0  0  0
   -4.2748   -3.5054    1.1834 C   0  0  1  0  0  0  0  0  0  0  0  0
   -2.9093   -3.2870    1.8810 C   0  0  0  0  0  0  0  0  0  0  0  0
   -2.6919   -2.3106    2.5958 O   0  0  0  0  0  0  0  0  0  0  0  0
   -1.9542   -4.2348    1.6178 N   0  0  0  0  0  0  0  0  0  0  0  0
   -0.6131   -4.2168    2.1890 C   0  0  1  0  0  0  0  0  0  0  0  0
   -0.5909   -4.9045    3.5635 C   0  0  0  0  0  0  0  0  0  0  0  0
   -1.0569   -6.3568    3.5457 C   0  0  0  0  0  0  0  0  0  0  0  0
    0.3317   -4.9041    1.1782 C   0  0  0  0  0  0  0  0  0  0  0  0
   -0.1322   -5.7020    0.3538 O   0  0  0  0  0  0  0  0  0  0  0  0
    1.6933   -4.6277    1.2196 N   0  0  0  0  0  0  0  0  0  0  0  0
    2.3353   -3.7115    2.1581 C   0  0  0  0  0  0  0  0  0  0  0  0
    2.5581   -5.3199    0.2331 C   0  0  2  0  0  0  0  0  0  0  0  0
    3.0638   -6.6383    0.8290 C   0  0  0  0  0  0  0  0  0  0  0  0
    3.7549   -4.4606   -0.2466 C   0  0  0  0  0  0  0  0  0  0  0  0
    4.8471   -4.5331    0.3314 O   0  0  0  0  0  0  0  0  0  0  0  0
    3.5504   -3.5255   -1.2694 N   0  0  0  0  0  0  0  0  0  0  0  0
    2.2127   -3.1247   -1.7403 C   0  0  0  0  0  0  0  0  0  0  0  0
    1.7170   -3.9152   -2.9402 C   0  0  0  0  0  0  0  0  0  0  0  0
    4.7233   -2.6932   -1.6471 C   0  0  1  0  0  0  0  0  0  0  0  0
    4.8612   -2.3727   -3.1532 C   0  0  0  0  0  0  0  0  0  0  0  0
    6.0286   -1.4099   -3.4207 C   0  0  0  0  0  0  0  0  0  0  0  0
    5.1244   -3.6572   -3.9534 C   0  0  0  0  0  0  0  0  0  0  0  0
    4.6538   -1.4363   -0.7432 C   0  0  0  0  0  0  0  0  0  0  0  0
    4.0969   -0.3890   -1.0717 O   0  0  0  0  0  0  0  0  0  0  0  0
    5.2038   -1.6350    0.5073 N   0  0  0  0  0  0  0  0  0  0  0  0
    5.3463   -0.5722    1.5005 C   0  0  1  0  0  0  0  0  0  0  0  0
    5.4926   -1.1538    2.9299 C   0  0  0  0  0  0  0  0  0  0  0  0
    5.4211   -0.0446    3.9820 C   0  0  0  0  0  0  0  0  0  0  0  0
    6.7358   -2.0144    3.1782 C   0  0  0  0  0  0  0  0  0  0  0  0
    6.5576    0.2779    1.0317 C   0  0  0  0  0  0  0  0  0  0  0  0
    7.6914   -0.2169    1.0634 O   0  0  0  0  0  0  0  0  0  0  0  0
    6.3492    1.5283    0.4476 N   0  0  0  0  0  0  0  0  0  0  0  0
    7.5254    2.1634   -0.1484 C   0  0  0  0  0  0  0  0  0  0  0  0
    5.0824    2.2996    0.4844 C   0  0  1  0  0  0  0  0  0  0  0  0
    4.8651    3.1226    1.7753 C   0  0  0  0  0  0  0  0  0  0  0  0
    6.0460    3.8816    2.4113 C   0  0  0  0  0  0  0  0  0  0  0  0
    5.6485    4.3427    3.8214 C   0  0  0  0  0  0  0  0  0  0  0  0
    6.4914    5.1011    1.6075 C   0  0  0  0  0  0  0  0  0  0  0  0
    4.7914    3.0944   -0.8119 C   0  0  0  0  0  0  0  0  0  0  0  0
    5.1290    4.2606   -0.9815 O   0  0  0  0  0  0  0  0  0  0  0  0
    4.1685    2.3462   -1.7957 N   0  0  0  0  0  0  0  0  0  0  0  0
    4.1091    2.8183   -3.1782 C   0  0  1  0  0  0  0  0  0  0  0  0
    3.4973    1.7442   -4.0729 C   0  0  0  0  0  0  0  0  0  0  0  0
    3.3004    4.1174   -3.3759 C   0  0  0  0  0  0  0  0  0  0  0  0
    3.4858    4.8461   -4.3498 O   0  0  0  0  0  0  0  0  0  0  0  0
    2.2645    4.3105   -2.4892 N   0  0  0  0  0  0  0  0  0  0  0  0
    1.4082    5.4866   -2.5542 C   0  0  2  0  0  0  0  0  0  0  0  0
    2.1529    6.7911   -2.2606 C   0  0  0  0  0  0  0  0  0  0  0  0
    0.1365    5.4074   -1.6769 C   0  0  0  0  0  0  0  0  0  0  0  0
   -0.9357    5.7456   -2.1936 O   0  0  0  0  0  0  0  0  0  0  0  0
    0.2094    5.0793   -0.3200 N   0  0  0  0  0  0  0  0  0  0  0  0
    1.4161    4.6754    0.3838 C   0  0  0  0  0  0  0  0  0  0  0  0
   -1.0620    4.9532    0.4479 C   0  0  1  0  0  0  0  0  0  0  0  0
   -1.8759    6.2764    0.5052 C   0  0  0  0  0  0  0  0  0  0  0  0
   -1.2588    7.4666    1.2768 C   0  0  0  0  0  0  0  0  0  0  0  0
   -0.0642    8.1077    0.5753 C   0  0  0  0  0  0  0  0  0  0  0  0
   -0.9159    7.1219    2.7251 C   0  0  0  0  0  0  0  0  0  0  0  0
   -1.8522    3.6992   -0.0852 C   0  0  0  0  0  0  0  0  0  0  0  0
   -1.2928    2.8889   -0.8318 O   0  0  0  0  0  0  0  0  0  0  0  0
   -3.1687    3.5146    0.3384 N   0  0  0  0  0  0  0  0  0  0  0  0
   -3.5894    3.8346    1.6965 C   0  0  0  0  0  0  0  0  0  0  0  0
   -4.1331    2.6951   -0.4457 C   0  0  1  0  0  0  0  0  0  0  0  0
   -3.9313    2.6967   -1.9817 C   0  0  0  0  0  0  0  0  0  0  0  0
   -4.0415    4.0863   -2.6439 C   0  0  0  0  0  0  0  0  0  0  0  0
   -5.4641    4.6463   -2.5901 C   0  0  0  0  0  0  0  0  0  0  0  0
   -3.5762    4.0051   -4.1001 C   0  0  0  0  0  0  0  0  0  0  0  0
   -4.2613    1.2375    0.0919 C   0  0  0  0  0  0  0  0  0  0  0  0
   -3.2978    0.6692    0.6125 O   0  0  0  0  0  0  0  0  0  0  0  0
   -5.5130    0.5987    0.0013 N   0  0  0  0  0  0  0  0  0  0  0  0
   -6.6381    1.1313   -0.7596 C   0  0  0  0  0  0  0  0  0  0  0  0
   -5.5978   -0.7988    0.5314 C   0  0  1  0  0  0  0  0  0  0  0  0
   -6.9733   -1.2566    1.1107 C   0  0  0  0  0  0  0  0  0  0  0  0
   -7.3853   -0.4122    2.3198 C   0  0  0  0  0  0  0  0  0  0  0  0
   -8.1358   -1.4053    0.1245 C   0  0  0  0  0  0  0  0  0  0  0  0
   -5.0447   -1.7757   -0.5536 C   0  0  0  0  0  0  0  0  0  0  0  0
   -5.2651   -1.5441   -1.7505 O   0  0  0  0  0  0  0  0  0  0  0  0
   -4.3260   -2.9165   -0.1810 N   0  0  0  0  0  0  0  0  0  0  0  0
   -3.4977   -3.5129   -1.2255 C   0  0  0  0  0  0  0  0  0  0  0  0
   -6.3856   -7.5754   -3.2167 H   0  0  0  0  0  0  0  0  0  0  0  0
   -5.1820   -6.4573   -3.8829 H   0  0  0  0  0  0  0  0  0  0  0  0
   -6.8919   -6.2911   -4.3296 H   0  0  0  0  0  0  0  0  0  0  0  0
   -6.2560   -4.5310   -2.6039 H   0  0  0  0  0  0  0  0  0  0  0  0
   -6.9651   -7.0105   -0.9380 H   0  0  0  0  0  0  0  0  0  0  0  0
   -6.7859   -3.9705   -0.3447 H   0  0  0  0  0  0  0  0  0  0  0  0
   -8.0768   -5.0031    0.2033 H   0  0  0  0  0  0  0  0  0  0  0  0
   -6.6936   -4.5712    2.0511 H   0  0  0  0  0  0  0  0  0  0  0  0
   -6.0783   -7.4486    1.2247 H   0  0  0  0  0  0  0  0  0  0  0  0
   -7.6344   -6.8641    1.8485 H   0  0  0  0  0  0  0  0  0  0  0  0
   -6.1910   -6.7921    2.8616 H   0  0  0  0  0  0  0  0  0  0  0  0
   -4.4050   -5.2925    2.3476 H   0  0  0  0  0  0  0  0  0  0  0  0
   -4.5081   -6.0077   -0.3404 H   0  0  0  0  0  0  0  0  0  0  0  0
   -4.9567   -2.9433    1.8231 H   0  0  0  0  0  0  0  0  0  0  0  0
   -2.1855   -5.0253    1.0098 H   0  0  0  0  0  0  0  0  0  0  0  0
   -0.3235   -3.1662    2.2918 H   0  0  0  0  0  0  0  0  0  0  0  0
    0.4186   -4.8814    3.9858 H   0  0  0  0  0  0  0  0  0  0  0  0
   -1.2340   -4.3460    4.2541 H   0  0  0  0  0  0  0  0  0  0  0  0
   -0.4105   -6.9755    2.9152 H   0  0  0  0  0  0  0  0  0  0  0  0
   -2.0852   -6.4458    3.1816 H   0  0  0  0  0  0  0  0  0  0  0  0
   -1.0269   -6.7709    4.5590 H   0  0  0  0  0  0  0  0  0  0  0  0
    2.6527   -2.8193    1.6117 H   0  0  0  0  0  0  0  0  0  0  0  0
    3.2043   -4.2003    2.6068 H   0  0  0  0  0  0  0  0  0  0  0  0
    1.6750   -3.3899    2.9614 H   0  0  0  0  0  0  0  0  0  0  0  0
    1.9667   -5.5879   -0.6465 H   0  0  0  0  0  0  0  0  0  0  0  0
    3.7106   -7.1644    0.1187 H   0  0  0  0  0  0  0  0  0  0  0  0
    3.6406   -6.4722    1.7457 H   0  0  0  0  0  0  0  0  0  0  0  0
    2.2274   -7.2979    1.0826 H   0  0  0  0  0  0  0  0  0  0  0  0
    2.2169   -2.0564   -1.9781 H   0  0  0  0  0  0  0  0  0  0  0  0
    1.4964   -3.2401   -0.9252 H   0  0  0  0  0  0  0  0  0  0  0  0
    2.2594   -3.6411   -3.8480 H   0  0  0  0  0  0  0  0  0  0  0  0
    0.6590   -3.6984   -3.1186 H   0  0  0  0  0  0  0  0  0  0  0  0
    1.8268   -4.9935   -2.7967 H   0  0  0  0  0  0  0  0  0  0  0  0
    5.6390   -3.2309   -1.3671 H   0  0  0  0  0  0  0  0  0  0  0  0
    3.9470   -1.9003   -3.5283 H   0  0  0  0  0  0  0  0  0  0  0  0
    6.1433   -1.2325   -4.4956 H   0  0  0  0  0  0  0  0  0  0  0  0
    6.9731   -1.8182   -3.0448 H   0  0  0  0  0  0  0  0  0  0  0  0
    5.8733   -0.4360   -2.9486 H   0  0  0  0  0  0  0  0  0  0  0  0
    6.1002   -4.0869   -3.7016 H   0  0  0  0  0  0  0  0  0  0  0  0
    5.1197   -3.4480   -5.0285 H   0  0  0  0  0  0  0  0  0  0  0  0
    4.3733   -4.4270   -3.7618 H   0  0  0  0  0  0  0  0  0  0  0  0
    5.6079   -2.5505    0.7022 H   0  0  0  0  0  0  0  0  0  0  0  0
    4.4151   -0.0098    1.4852 H   0  0  0  0  0  0  0  0  0  0  0  0
    4.6271   -1.8096    3.0956 H   0  0  0  0  0  0  0  0  0  0  0  0
    4.4747    0.4998    3.9068 H   0  0  0  0  0  0  0  0  0  0  0  0
    5.4783   -0.4617    4.9930 H   0  0  0  0  0  0  0  0  0  0  0  0
    6.2397    0.6732    3.8674 H   0  0  0  0  0  0  0  0  0  0  0  0
    6.6505   -2.5241    4.1452 H   0  0  0  0  0  0  0  0  0  0  0  0
    6.8605   -2.7898    2.4167 H   0  0  0  0  0  0  0  0  0  0  0  0
    7.6496   -1.4142    3.2174 H   0  0  0  0  0  0  0  0  0  0  0  0
    8.2479    1.4143   -0.4871 H   0  0  0  0  0  0  0  0  0  0  0  0
    8.0181    2.7858    0.6002 H   0  0  0  0  0  0  0  0  0  0  0  0
    7.2573    2.7623   -1.0200 H   0  0  0  0  0  0  0  0  0  0  0  0
    4.2603    1.5823    0.5043 H   0  0  0  0  0  0  0  0  0  0  0  0
    4.0345    3.8233    1.6186 H   0  0  0  0  0  0  0  0  0  0  0  0
    4.5037    2.4132    2.5317 H   0  0  0  0  0  0  0  0  0  0  0  0
    6.8961    3.2016    2.5318 H   0  0  0  0  0  0  0  0  0  0  0  0
    4.7934    5.0267    3.7900 H   0  0  0  0  0  0  0  0  0  0  0  0
    6.4811    4.8599    4.3104 H   0  0  0  0  0  0  0  0  0  0  0  0
    5.3770    3.4877    4.4492 H   0  0  0  0  0  0  0  0  0  0  0  0
    5.6579    5.7923    1.4399 H   0  0  0  0  0  0  0  0  0  0  0  0
    6.9029    4.8187    0.6367 H   0  0  0  0  0  0  0  0  0  0  0  0
    7.2785    5.6496    2.1372 H   0  0  0  0  0  0  0  0  0  0  0  0
    4.0511    1.3435   -1.6247 H   0  0  0  0  0  0  0  0  0  0  0  0
    5.1399    3.0265   -3.4906 H   0  0  0  0  0  0  0  0  0  0  0  0
    2.4757    1.5022   -3.7584 H   0  0  0  0  0  0  0  0  0  0  0  0
    3.4556    2.0749   -5.1160 H   0  0  0  0  0  0  0  0  0  0  0  0
    4.0834    0.8217   -4.0342 H   0  0  0  0  0  0  0  0  0  0  0  0
    2.0273    3.5498   -1.8659 H   0  0  0  0  0  0  0  0  0  0  0  0
    1.0542    5.5357   -3.5928 H   0  0  0  0  0  0  0  0  0  0  0  0
    2.6265    6.7873   -1.2755 H   0  0  0  0  0  0  0  0  0  0  0  0
    1.4668    7.6444   -2.2928 H   0  0  0  0  0  0  0  0  0  0  0  0
    2.9420    6.9755   -2.9960 H   0  0  0  0  0  0  0  0  0  0  0  0
    1.4128    5.1037    1.3902 H   0  0  0  0  0  0  0  0  0  0  0  0
    2.3260    5.0085   -0.1088 H   0  0  0  0  0  0  0  0  0  0  0  0
    1.4259    3.5839    0.4568 H   0  0  0  0  0  0  0  0  0  0  0  0
   -0.7861    4.6791    1.4731 H   0  0  0  0  0  0  0  0  0  0  0  0
   -2.8420    6.0912    0.9799 H   0  0  0  0  0  0  0  0  0  0  0  0
   -2.1530    6.6181   -0.4958 H   0  0  0  0  0  0  0  0  0  0  0  0
   -2.0418    8.2365    1.3135 H   0  0  0  0  0  0  0  0  0  0  0  0
   -0.2910    8.3100   -0.4756 H   0  0  0  0  0  0  0  0  0  0  0  0
    0.1857    9.0641    1.0476 H   0  0  0  0  0  0  0  0  0  0  0  0
    0.8297    7.4818    0.6275 H   0  0  0  0  0  0  0  0  0  0  0  0
   -0.6360    8.0256    3.2774 H   0  0  0  0  0  0  0  0  0  0  0  0
   -1.7750    6.6747    3.2355 H   0  0  0  0  0  0  0  0  0  0  0  0
   -0.0767    6.4232    2.7935 H   0  0  0  0  0  0  0  0  0  0  0  0
   -2.7806    4.2558    2.2959 H   0  0  0  0  0  0  0  0  0  0  0  0
   -3.9209    2.9207    2.1981 H   0  0  0  0  0  0  0  0  0  0  0  0
   -4.4271    4.5358    1.6517 H   0  0  0  0  0  0  0  0  0  0  0  0
   -5.0886    3.1845   -0.2302 H   0  0  0  0  0  0  0  0  0  0  0  0
   -2.9684    2.2408   -2.2347 H   0  0  0  0  0  0  0  0  0  0  0  0
   -4.6571    2.0266   -2.4581 H   0  0  0  0  0  0  0  0  0  0  0  0
   -3.3845    4.7924   -2.1275 H   0  0  0  0  0  0  0  0  0  0  0  0
   -6.1795    3.9606   -3.0565 H   0  0  0  0  0  0  0  0  0  0  0  0
   -5.5231    5.6043   -3.1185 H   0  0  0  0  0  0  0  0  0  0  0  0
   -5.7841    4.8267   -1.5598 H   0  0  0  0  0  0  0  0  0  0  0  0
   -2.5395    3.6561   -4.1576 H   0  0  0  0  0  0  0  0  0  0  0  0
   -4.2001    3.3159   -4.6790 H   0  0  0  0  0  0  0  0  0  0  0  0
   -3.6220    4.9884   -4.5797 H   0  0  0  0  0  0  0  0  0  0  0  0
   -6.4302    2.0737   -1.2576 H   0  0  0  0  0  0  0  0  0  0  0  0
   -7.4704    1.3187   -0.0786 H   0  0  0  0  0  0  0  0  0  0  0  0
   -6.9272    0.4177   -1.5350 H   0  0  0  0  0  0  0  0  0  0  0  0
   -4.8864   -0.8393    1.3649 H   0  0  0  0  0  0  0  0  0  0  0  0
   -6.8324   -2.2691    1.4996 H   0  0  0  0  0  0  0  0  0  0  0  0
   -7.5529    0.6347    2.0569 H   0  0  0  0  0  0  0  0  0  0  0  0
   -8.3114   -0.7973    2.7610 H   0  0  0  0  0  0  0  0  0  0  0  0
   -6.6130   -0.4458    3.0952 H   0  0  0  0  0  0  0  0  0  0  0  0
   -7.8155   -1.8370   -0.8276 H   0  0  0  0  0  0  0  0  0  0  0  0
   -8.8905   -2.0808    0.5436 H   0  0  0  0  0  0  0  0  0  0  0  0
   -8.6528   -0.4638   -0.0746 H   0  0  0  0  0  0  0  0  0  0  0  0
   -3.9689   -4.4209   -1.5987 H   0  0  0  0  0  0  0  0  0  0  0  0
   -2.5013   -3.7390   -0.8440 H   0  0  0  0  0  0  0  0  0  0  0  0
   -3.3649   -2.8338   -2.0739 H   0  0  0  0  0  0  0  0  0  0  0  0
  1  2  1  0
  2  3  2  0
  3  4  1  0
  4  5  1  0
  5  6  1  0
  5  7  1  0
  7  8  1  0
  7  9  1  0
  9 10  1  0
 10 11  2  0
 10 12  1  0
 12 13  1  0
 13 14  1  0
 14 15  1  0
 13 16  1  0
 16 17  2  0
 16 18  1  0
 18 19  1  0
 18 20  1  0
 20 21  1  0
 20 22  1  0
 22 23  2  0
 22 24  1  0
 24 25  1  0
 25 26  1  0
 24 27  1  0
 27 28  1  0
 28 29  1  0
 28 30  1  0
 27 31  1  0
 31 32  2  0
 31 33  1  0
 33 34  1  0
 34 35  1  0
 35 36  1  0
 35 37  1  0
 34 38  1  0
 38 39  2  0
 38 40  1  0
 40 41  1  0
 40 42  1  0
 42 43  1  0
 43 44  1  0
 44 45  1  0
 44 46  1  0
 42 47  1  0
 47 48  2  0
 47 49  1  0
 49 50  1  0
 50 51  1  0
 50 52  1  0
 52 53  2  0
 52 54  1  0
 54 55  1  0
 55 56  1  0
 55 57  1  0
 57 58  2  0
 57 59  1  0
 59 60  1  0
 59 61  1  0
 61 62  1  0
 62 63  1  0
 63 64  1  0
 63 65  1  0
 61 66  1  0
 66 67  2  0
 66 68  1  0
 68 69  1  0
 68 70  1  0
 70 71  1  0
 71 72  1  0
 72 73  1  0
 72 74  1  0
 70 75  1  0
 75 76  2  0
 75 77  1  0
 77 78  1  0
 77 79  1  0
 79 80  1  0
 80 81  1  0
 80 82  1  0
 79 83  1  0
 83 84  2  0
 83 85  1  0
 85 86  1  0
 85  9  1  0
  1 87  1  0
  1 88  1  0
  1 89  1  0
  2 90  1  0
  3 91  1  0
  4 92  1  0
  4 93  1  0
  5 94  1  1
  6 95  1  0
  6 96  1  0
  6 97  1  0
  7 98  1  1
  8 99  1  0
  9100  1  1
 12101  1  0
 13102  1  1
 14103  1  0
 14104  1  0
 15105  1  0
 15106  1  0
 15107  1  0
 19108  1  0
 19109  1  0
 19110  1  0
 20111  1  6
 21112  1  0
 21113  1  0
 21114  1  0
 25115  1  0
 25116  1  0
 26117  1  0
 26118  1  0
 26119  1  0
 27120  1  1
 28121  1  0
 29122  1  0
 29123  1  0
 29124  1  0
 30125  1  0
 30126  1  0
 30127  1  0
 33128  1  0
 34129  1  1
 35130  1  0
 36131  1  0
 36132  1  0
 36133  1  0
 37134  1  0
 37135  1  0
 37136  1  0
 41137  1  0
 41138  1  0
 41139  1  0
 42140  1  1
 43141  1  0
 43142  1  0
 44143  1  0
 45144  1  0
 45145  1  0
 45146  1  0
 46147  1  0
 46148  1  0
 46149  1  0
 49150  1  0
 50151  1  6
 51152  1  0
 51153  1  0
 51154  1  0
 54155  1  0
 55156  1  6
 56157  1  0
 56158  1  0
 56159  1  0
 60160  1  0
 60161  1  0
 60162  1  0
 61163  1  1
 62164  1  0
 62165  1  0
 63166  1  0
 64167  1  0
 64168  1  0
 64169  1  0
 65170  1  0
 65171  1  0
 65172  1  0
 69173  1  0
 69174  1  0
 69175  1  0
 70176  1  6
 71177  1  0
 71178  1  0
 72179  1  0
 73180  1  0
 73181  1  0
 73182  1  0
 74183  1  0
 74184  1  0
 74185  1  0
 78186  1  0
 78187  1  0
 78188  1  0
 79189  1  1
 80190  1  0
 81191  1  0
 81192  1  0
 81193  1  0
 82194  1  0
 82195  1  0
 82196  1  0
 86197  1  0
 86198  1  0
 86199  1  0
M  END
>  <mol_id>  (1) 
69521

>  <source_index>  (1) 
3

>  <layer>  (1) 
L1

>  <uniprot>  (1) 
P62937

>  <paff>  (1) 
8.0968999999999998

>  <smiles>  (1) 
C/C=C/C[C@@H](C)[C@@H](O)[C@H]1C(=O)N[C@@H](CC)C(=O)N(C)[C@H](C)C(=O)N(CC)[C@@H](C(C)C)C(=O)N[C@@H](C(C)C)C(=O)N(C)[C@@H](CC(C)C)C(=O)N[C@@H](C)C(=O)N[C@H](C)C(=O)N(C)[C@@H](CC(C)C)C(=O)N(C)[C@@H](CC(C)C)C(=O)N(C)[C@@H](C(C)C)C(=O)N1C

$$$$
