L1:P62937:69521


 91 91  0  0  0  0  0  0  0  0999 V2000
   54.2588   54.4535   57.7288 C   0  0  0  0  0  0  0  0  0  0  0  0
   52.8308   54.3657   58.3223 C   0  0  0  0  0  0  0  0  0  0  0  0
   52.2261   53.2988   58.4091 O   0  0  0  0  0  0  0  0  0  0  0  0
   52.2781   55.5595   58.7084 N   0  0  0  0  0  0  0  0  0  0  0  0
   50.9532   55.6865   59.3030 C   0  0  0  0  0  0  0  0  0  0  0  0
   50.4050   57.0800   58.9230 C   0  0  0  0  0  0  0  0  0  0  0  0
   51.1936   57.9857   58.6243 O   0  0  0  0  0  0  0  0  0  0  0  0
   49.0327   57.3008   58.9372 N   0  0  0  0  0  0  0  0  0  0  0  0
   48.0257   56.3018   59.2837 C   0  0  0  0  0  0  0  0  0  0  0  0
   48.5585   58.6581   58.5725 C   0  0  0  0  0  0  0  0  0  0  0  0
   48.4565   59.5228   59.8338 C   0  0  0  0  0  0  0  0  0  0  0  0
   47.2042   58.6557   57.8197 C   0  0  0  0  0  0  0  0  0  0  0  0
   46.1418   58.7653   58.4453 O   0  0  0  0  0  0  0  0  0  0  0  0
   47.1972   58.4185   56.4391 N   0  0  0  0  0  0  0  0  0  0  0  0
   45.8632   58.3737   55.7837 C   0  0  0  0  0  0  0  0  0  0  0  0
   45.4139   56.8919   55.8486 C   0  0  0  0  0  0  0  0  0  0  0  0
   45.6247   56.0747   54.9527 O   0  0  0  0  0  0  0  0  0  0  0  0
   44.8285   56.5536   57.0522 N   0  0  0  0  0  0  0  0  0  0  0  0
   44.2351   55.2445   57.3172 C   0  0  0  0  0  0  0  0  0  0  0  0
   42.8691   55.2481   56.5798 C   0  0  0  0  0  0  0  0  0  0  0  0
   41.9668   55.9928   56.9830 O   0  0  0  0  0  0  0  0  0  0  0  0
   42.7136   54.5291   55.3936 N   0  0  0  0  0  0  0  0  0  0  0  0
   41.4655   54.7556   54.6636 C   0  0  0  0  0  0  0  0  0  0  0  0
   43.6415   53.4894   54.8848 C   0  0  0  0  0  0  0  0  0  0  0  0
   43.7918   53.4793   53.3439 C   0  0  0  0  0  0  0  0  0  0  0  0
   43.1075   52.7843   52.6013 O   0  0  0  0  0  0  0  0  0  0  0  0
   44.7302   54.3796   52.8702 N   0  0  0  0  0  0  0  0  0  0  0  0
   44.7796   54.7427   51.4548 C   0  0  0  0  0  0  0  0  0  0  0  0
   45.8059   55.8500   51.2333 C   0  0  0  0  0  0  0  0  0  0  0  0
   45.1287   53.5761   50.5073 C   0  0  0  0  0  0  0  0  0  0  0  0
   44.8193   53.6024   49.3167 O   0  0  0  0  0  0  0  0  0  0  0  0
   45.9395   52.6004   51.0434 N   0  0  0  0  0  0  0  0  0  0  0  0
   46.3596   51.4410   50.2689 C   0  0  0  0  0  0  0  0  0  0  0  0
   45.1976   50.5254   49.8764 C   0  0  0  0  0  0  0  0  0  0  0  0
   47.4825   50.6015   50.9226 C   0  0  0  0  0  0  0  0  0  0  0  0
   48.4316   50.2604   50.2057 O   0  0  0  0  0  0  0  0  0  0  0  0
   47.3756   50.1456   52.2398 N   0  0  0  0  0  0  0  0  0  0  0  0
   46.3019   50.4814   53.1613 C   0  0  0  0  0  0  0  0  0  0  0  0
   48.5257   49.4015   52.8277 C   0  0  0  0  0  0  0  0  0  0  0  0
   49.7395   50.3924   52.9887 C   0  0  0  0  0  0  0  0  0  0  0  0
   49.5646   51.6087   52.8592 O   0  0  0  0  0  0  0  0  0  0  0  0
   50.9886   49.8644   53.3169 N   0  0  0  0  0  0  0  0  0  0  0  0
   51.1295   48.7423   54.2360 C   0  0  0  0  0  0  0  0  0  0  0  0
   52.2491   50.5973   53.0159 C   0  0  0  0  0  0  0  0  0  0  0  0
   52.7937   51.3884   54.2438 C   0  0  0  0  0  0  0  0  0  0  0  0
   52.0223   51.8685   55.0785 O   0  0  0  0  0  0  0  0  0  0  0  0
   54.1883   51.5106   54.3958 N   0  0  0  0  0  0  0  0  0  0  0  0
   55.1490   51.1338   53.3646 C   0  0  0  0  0  0  0  0  0  0  0  0
   54.6731   52.2739   55.5889 C   0  0  0  0  0  0  0  0  0  0  0  0
   54.5960   53.7997   55.2670 C   0  0  0  0  0  0  0  0  0  0  0  0
   54.8558   54.1941   54.1217 O   0  0  0  0  0  0  0  0  0  0  0  0
   54.2598   54.7195   56.2658 N   0  0  0  0  0  0  0  0  0  0  0  0
   53.7944   56.0220   55.7972 C   0  0  0  0  0  0  0  0  0  0  0  0
   52.8228   56.4206   58.6085 H   0  0  0  0  0  0  0  0  0  0  0  0
   44.7318   57.2902   57.7505 H   0  0  0  0  0  0  0  0  0  0  0  0
   45.1538   55.0215   53.5462 H   0  0  0  0  0  0  0  0  0  0  0  0
   46.3461   52.7709   51.9539 H   0  0  0  0  0  0  0  0  0  0  0  0
   55.1565   55.3728   58.6247 C   0  0  0  0  0  0  0  0  0  0  0  0
   54.7742   56.7476   58.5609 O   0  0  0  0  0  0  0  0  0  0  0  0
   55.3183   57.1904   57.8857 H   0  0  0  0  0  0  0  0  0  0  0  0
   56.6912   55.1668   58.4942 C   0  0  0  0  0  0  0  0  0  0  0  0
   57.3459   55.1879   59.8860 C   0  0  0  0  0  0  0  0  0  0  0  0
   57.4481   56.0917   57.5146 C   0  0  0  0  0  0  0  0  0  0  0  0
   61.2334   55.3414   56.9036 C   0  0  0  0  0  0  0  0  0  0  0  0
   59.7415   55.3555   56.8154 C   0  0  0  0  0  0  0  0  0  0  0  0
   58.9491   56.1048   57.5969 C   0  0  0  0  0  0  0  0  0  0  0  0
   45.7913   58.9868   54.3663 C   0  0  0  0  0  0  0  0  0  0  0  0
   44.3942   58.8185   53.7489 C   0  0  0  0  0  0  0  0  0  0  0  0
   46.1004   60.4906   54.4157 C   0  0  0  0  0  0  0  0  0  0  0  0
   44.1354   54.9696   58.8395 C   0  0  0  0  0  0  0  0  0  0  0  0
   44.2070   56.2739   59.6369 C   0  0  0  0  0  0  0  0  0  0  0  0
   45.1469   53.9679   59.4062 C   0  0  0  0  0  0  0  0  0  0  0  0
   56.0511   51.8529   56.1897 C   0  0  0  0  0  0  0  0  0  0  0  0
   57.1649   52.8198   55.7786 C   0  0  0  0  0  0  0  0  0  0  0  0
   56.1028   51.5650   57.6933 C   0  0  0  0  0  0  0  0  0  0  0  0
   51.0109   55.4815   60.8253 C   0  0  0  0  0  0  0  0  0  0  0  0
   52.1831   56.1791   61.5079 C   0  0  0  0  0  0  0  0  0  0  0  0
   48.3694   57.9153   55.7011 C   0  0  0  0  0  0  0  0  0  0  0  0
   49.3327   59.0030   55.2546 C   0  0  0  0  0  0  0  0  0  0  0  0
   43.4325   52.0837   55.4941 C   0  0  0  0  0  0  0  0  0  0  0  0
   44.3214   51.6115   56.6611 C   0  0  0  0  0  0  0  0  0  0  0  0
   45.7787   52.0038   56.3761 C   0  0  0  0  0  0  0  0  0  0  0  0
   44.2609   50.1050   56.9034 C   0  0  0  0  0  0  0  0  0  0  0  0
   48.8441   48.0767   52.0794 C   0  0  0  0  0  0  0  0  0  0  0  0
   48.1249   46.7923   52.5548 C   0  0  0  0  0  0  0  0  0  0  0  0
   49.0586   45.6056   52.7783 C   0  0  0  0  0  0  0  0  0  0  0  0
   46.9545   46.3992   51.6550 C   0  0  0  0  0  0  0  0  0  0  0  0
   52.2262   51.4940   51.7528 C   0  0  0  0  0  0  0  0  0  0  0  0
   52.7146   50.8017   50.4630 C   0  0  0  0  0  0  0  0  0  0  0  0
   52.7582   51.7574   49.2693 C   0  0  0  0  0  0  0  0  0  0  0  0
   51.8064   49.6133   50.1365 C   0  0  0  0  0  0  0  0  0  0  0  0
 64 65  1  0  0  0
 65 66  2  0  0  0
 66 63  1  0  0  0
 63 61  1  0  0  0
 61 62  1  0  0  0
 61 58  1  0  0  0
 58 59  1  0  0  0
 58  1  1  0  0  0
  1  2  1  0  0  0
  2  3  2  0  0  0
  2  4  1  0  0  0
  4  5  1  0  0  0
  5 76  1  0  0  0
 76 77  1  0  0  0
  5  6  1  0  0  0
  6  7  2  0  0  0
  6  8  1  0  0  0
  8  9  1  0  0  0
  8 10  1  0  0  0
 10 11  1  0  0  0
 10 12  1  0  0  0
 12 13  2  0  0  0
 12 14  1  0  0  0
 14 78  1  0  0  0
 78 79  1  0  0  0
 14 15  1  0  0  0
 15 67  1  0  0  0
 67 68  1  0  0  0
 67 69  1  0  0  0
 15 16  1  0  0  0
 16 17  2  0  0  0
 16 18  1  0  0  0
 18 19  1  0  0  0
 19 70  1  0  0  0
 70 71  1  0  0  0
 70 72  1  0  0  0
 19 20  1  0  0  0
 20 21  2  0  0  0
 20 22  1  0  0  0
 22 23  1  0  0  0
 22 24  1  0  0  0
 24 80  1  0  0  0
 80 81  1  0  0  0
 81 82  1  0  0  0
 81 83  1  0  0  0
 24 25  1  0  0  0
 25 26  2  0  0  0
 25 27  1  0  0  0
 27 28  1  0  0  0
 28 29  1  0  0  0
 28 30  1  0  0  0
 30 31  2  0  0  0
 30 32  1  0  0  0
 32 33  1  0  0  0
 33 34  1  0  0  0
 33 35  1  0  0  0
 35 36  2  0  0  0
 35 37  1  0  0  0
 37 38  1  0  0  0
 37 39  1  0  0  0
 39 84  1  0  0  0
 84 85  1  0  0  0
 85 86  1  0  0  0
 85 87  1  0  0  0
 39 40  1  0  0  0
 40 41  2  0  0  0
 40 42  1  0  0  0
 42 43  1  0  0  0
 42 44  1  0  0  0
 44 88  1  0  0  0
 88 89  1  0  0  0
 89 90  1  0  0  0
 89 91  1  0  0  0
 44 45  1  0  0  0
 45 46  2  0  0  0
 45 47  1  0  0  0
 47 48  1  0  0  0
 47 49  1  0  0  0
 49 73  1  0  0  0
 73 74  1  0  0  0
 73 75  1  0  0  0
 49 50  1  0  0  0
 50 51  2  0  0  0
 50 52  1  0  0  0
 52 53  1  0  0  0
 52  1  1  0  0  0
 59 60  1  0  0  0
  4 54  1  0  0  0
 18 55  1  0  0  0
 27 56  1  0  0  0
 32 57  1  0  0  0
M  END
> <minimizedAffinity>
-6.24101

$$$$
