L1:P62937:69521
 OpenBabel09212617563D

199199  0  0  0  0  0  0  0  0999 V2000
   54.2588   54.4535   57.7288 C   0  0  1  0  0  0  0  0  0  0  0  0
   52.8308   54.3657   58.3223 C   0  0  0  0  0  0  0  0  0  0  0  0
   52.2261   53.2988   58.4091 O   0  0  0  0  0  0  0  0  0  0  0  0
   52.2781   55.5595   58.7084 N   0  0  0  0  0  0  0  0  0  0  0  0
   50.9532   55.6865   59.3030 C   0  0  2  0  0  0  0  0  0  0  0  0
   50.4050   57.0800   58.9230 C   0  0  0  0  0  0  0  0  0  0  0  0
   51.1936   57.9857   58.6243 O   0  0  0  0  0  0  0  0  0  0  0  0
   49.0327   57.3008   58.9372 N   0  0  0  0  0  0  0  0  0  0  0  0
   48.0257   56.3018   59.2837 C   0  0  0  0  0  0  0  0  0  0  0  0
   48.5585   58.6581   58.5725 C   0  0  2  0  0  0  0  0  0  0  0  0
   48.4565   59.5228   59.8338 C   0  0  0  0  0  0  0  0  0  0  0  0
   47.2042   58.6557   57.8197 C   0  0  0  0  0  0  0  0  0  0  0  0
   46.1418   58.7653   58.4453 O   0  0  0  0  0  0  0  0  0  0  0  0
   47.1972   58.4185   56.4391 N   0  0  0  0  0  0  0  0  0  0  0  0
   45.8632   58.3737   55.7837 C   0  0  2  0  0  0  0  0  0  0  0  0
   45.4139   56.8919   55.8486 C   0  0  0  0  0  0  0  0  0  0  0  0
   45.6247   56.0747   54.9527 O   0  0  0  0  0  0  0  0  0  0  0  0
   44.8285   56.5536   57.0522 N   0  0  0  0  0  0  0  0  0  0  0  0
   44.2351   55.2445   57.3172 C   0  0  2  0  0  0  0  0  0  0  0  0
   42.8691   55.2481   56.5798 C   0  0  0  0  0  0  0  0  0  0  0  0
   41.9668   55.9928   56.9830 O   0  0  0  0  0  0  0  0  0  0  0  0
   42.7136   54.5291   55.3936 N   0  0  0  0  0  0  0  0  0  0  0  0
   41.4655   54.7556   54.6636 C   0  0  0  0  0  0  0  0  0  0  0  0
   43.6415   53.4894   54.8848 C   0  0  2  0  0  0  0  0  0  0  0  0
   43.7918   53.4793   53.3439 C   0  0  0  0  0  0  0  0  0  0  0  0
   43.1075   52.7843   52.6013 O   0  0  0  0  0  0  0  0  0  0  0  0
   44.7302   54.3796   52.8702 N   0  0  0  0  0  0  0  0  0  0  0  0
   44.7796   54.7427   51.4548 C   0  0  1  0  0  0  0  0  0  0  0  0
   45.8059   55.8500   51.2333 C   0  0  0  0  0  0  0  0  0  0  0  0
   45.1287   53.5761   50.5073 C   0  0  0  0  0  0  0  0  0  0  0  0
   44.8193   53.6024   49.3167 O   0  0  0  0  0  0  0  0  0  0  0  0
   45.9395   52.6004   51.0434 N   0  0  0  0  0  0  0  0  0  0  0  0
   46.3596   51.4410   50.2689 C   0  0  2  0  0  0  0  0  0  0  0  0
   45.1976   50.5254   49.8764 C   0  0  0  0  0  0  0  0  0  0  0  0
   47.4825   50.6015   50.9226 C   0  0  0  0  0  0  0  0  0  0  0  0
   48.4316   50.2604   50.2057 O   0  0  0  0  0  0  0  0  0  0  0  0
   47.3756   50.1456   52.2398 N   0  0  0  0  0  0  0  0  0  0  0  0
   46.3019   50.4814   53.1613 C   0  0  0  0  0  0  0  0  0  0  0  0
   48.5257   49.4015   52.8277 C   0  0  2  0  0  0  0  0  0  0  0  0
   49.7395   50.3924   52.9887 C   0  0  0  0  0  0  0  0  0  0  0  0
   49.5646   51.6087   52.8592 O   0  0  0  0  0  0  0  0  0  0  0  0
   50.9886   49.8644   53.3169 N   0  0  0  0  0  0  0  0  0  0  0  0
   51.1295   48.7423   54.2360 C   0  0  0  0  0  0  0  0  0  0  0  0
   52.2491   50.5973   53.0159 C   0  0  2  0  0  0  0  0  0  0  0  0
   52.7937   51.3884   54.2438 C   0  0  0  0  0  0  0  0  0  0  0  0
   52.0223   51.8685   55.0785 O   0  0  0  0  0  0  0  0  0  0  0  0
   54.1883   51.5106   54.3958 N   0  0  0  0  0  0  0  0  0  0  0  0
   55.1490   51.1338   53.3646 C   0  0  0  0  0  0  0  0  0  0  0  0
   54.6731   52.2739   55.5889 C   0  0  2  0  0  0  0  0  0  0  0  0
   54.5960   53.7997   55.2670 C   0  0  0  0  0  0  0  0  0  0  0  0
   54.8558   54.1941   54.1217 O   0  0  0  0  0  0  0  0  0  0  0  0
   54.2598   54.7195   56.2658 N   0  0  0  0  0  0  0  0  0  0  0  0
   53.7944   56.0220   55.7972 C   0  0  0  0  0  0  0  0  0  0  0  0
   52.8228   56.4206   58.6085 H   0  0  0  0  0  0  0  0  0  0  0  0
   44.7318   57.2902   57.7505 H   0  0  0  0  0  0  0  0  0  0  0  0
   45.1538   55.0215   53.5462 H   0  0  0  0  0  0  0  0  0  0  0  0
   46.3461   52.7709   51.9539 H   0  0  0  0  0  0  0  0  0  0  0  0
   55.1565   55.3728   58.6247 C   0  0  2  0  0  0  0  0  0  0  0  0
   54.7742   56.7476   58.5609 O   0  0  0  0  0  0  0  0  0  0  0  0
   55.3183   57.1904   57.8857 H   0  0  0  0  0  0  0  0  0  0  0  0
   56.6912   55.1668   58.4942 C   0  0  2  0  0  0  0  0  0  0  0  0
   57.3459   55.1879   59.8860 C   0  0  0  0  0  0  0  0  0  0  0  0
   57.4481   56.0917   57.5146 C   0  0  0  0  0  0  0  0  0  0  0  0
   61.2334   55.3414   56.9036 C   0  0  0  0  0  0  0  0  0  0  0  0
   59.7415   55.3555   56.8154 C   0  0  0  0  0  0  0  0  0  0  0  0
   58.9491   56.1048   57.5969 C   0  0  0  0  0  0  0  0  0  0  0  0
   45.7913   58.9868   54.3663 C   0  0  0  0  0  0  0  0  0  0  0  0
   44.3942   58.8185   53.7489 C   0  0  0  0  0  0  0  0  0  0  0  0
   46.1004   60.4906   54.4157 C   0  0  0  0  0  0  0  0  0  0  0  0
   44.1354   54.9696   58.8395 C   0  0  0  0  0  0  0  0  0  0  0  0
   44.2070   56.2739   59.6369 C   0  0  0  0  0  0  0  0  0  0  0  0
   45.1469   53.9679   59.4062 C   0  0  0  0  0  0  0  0  0  0  0  0
   56.0511   51.8529   56.1897 C   0  0  0  0  0  0  0  0  0  0  0  0
   57.1649   52.8198   55.7786 C   0  0  0  0  0  0  0  0  0  0  0  0
   56.1028   51.5650   57.6933 C   0  0  0  0  0  0  0  0  0  0  0  0
   51.0109   55.4815   60.8253 C   0  0  0  0  0  0  0  0  0  0  0  0
   52.1831   56.1791   61.5079 C   0  0  0  0  0  0  0  0  0  0  0  0
   48.3694   57.9153   55.7011 C   0  0  0  0  0  0  0  0  0  0  0  0
   49.3327   59.0030   55.2546 C   0  0  0  0  0  0  0  0  0  0  0  0
   43.4325   52.0837   55.4941 C   0  0  0  0  0  0  0  0  0  0  0  0
   44.3214   51.6115   56.6611 C   0  0  0  0  0  0  0  0  0  0  0  0
   45.7787   52.0038   56.3761 C   0  0  0  0  0  0  0  0  0  0  0  0
   44.2609   50.1050   56.9034 C   0  0  0  0  0  0  0  0  0  0  0  0
   48.8441   48.0767   52.0794 C   0  0  0  0  0  0  0  0  0  0  0  0
   48.1249   46.7923   52.5548 C   0  0  0  0  0  0  0  0  0  0  0  0
   49.0586   45.6056   52.7783 C   0  0  0  0  0  0  0  0  0  0  0  0
   46.9545   46.3992   51.6550 C   0  0  0  0  0  0  0  0  0  0  0  0
   52.2262   51.4940   51.7528 C   0  0  0  0  0  0  0  0  0  0  0  0
   52.7146   50.8017   50.4630 C   0  0  0  0  0  0  0  0  0  0  0  0
   52.7582   51.7574   49.2693 C   0  0  0  0  0  0  0  0  0  0  0  0
   51.8064   49.6133   50.1365 C   0  0  0  0  0  0  0  0  0  0  0  0
   54.7301   53.4937   57.7677 H   0  0  0  0  0  0  0  0  0  0  0  0
   50.2960   54.9294   58.9292 H   0  0  0  0  0  0  0  0  0  0  0  0
   48.5081   55.3772   59.5230 H   0  0  0  0  0  0  0  0  0  0  0  0
   47.3673   56.1560   58.4530 H   0  0  0  0  0  0  0  0  0  0  0  0
   47.4638   56.6401   60.1291 H   0  0  0  0  0  0  0  0  0  0  0  0
   49.2793   59.0672   57.8957 H   0  0  0  0  0  0  0  0  0  0  0  0
   47.7325   59.0999   60.4985 H   0  0  0  0  0  0  0  0  0  0  0  0
   48.1567   60.5138   59.5636 H   0  0  0  0  0  0  0  0  0  0  0  0
   49.4091   59.5584   60.3198 H   0  0  0  0  0  0  0  0  0  0  0  0
   45.1853   59.0138   56.3087 H   0  0  0  0  0  0  0  0  0  0  0  0
   44.8371   54.4384   56.9529 H   0  0  0  0  0  0  0  0  0  0  0  0
   40.9052   55.5289   55.1464 H   0  0  0  0  0  0  0  0  0  0  0  0
   40.8907   53.8532   54.6513 H   0  0  0  0  0  0  0  0  0  0  0  0
   41.6881   55.0503   53.6594 H   0  0  0  0  0  0  0  0  0  0  0  0
   44.5962   53.7984   55.2563 H   0  0  0  0  0  0  0  0  0  0  0  0
   43.7870   55.0626   51.2152 H   0  0  0  0  0  0  0  0  0  0  0  0
   46.7810   55.4879   51.4843 H   0  0  0  0  0  0  0  0  0  0  0  0
   45.5660   56.6880   51.8538 H   0  0  0  0  0  0  0  0  0  0  0  0
   45.7904   56.1505   50.2065 H   0  0  0  0  0  0  0  0  0  0  0  0
   46.7684   51.8789   49.3823 H   0  0  0  0  0  0  0  0  0  0  0  0
   44.7805   50.0814   50.7561 H   0  0  0  0  0  0  0  0  0  0  0  0
   45.5543   49.7563   49.2235 H   0  0  0  0  0  0  0  0  0  0  0  0
   44.4456   51.0983   49.3752 H   0  0  0  0  0  0  0  0  0  0  0  0
   45.5340   51.0105   52.6366 H   0  0  0  0  0  0  0  0  0  0  0  0
   46.6861   51.0973   53.9474 H   0  0  0  0  0  0  0  0  0  0  0  0
   45.8956   49.5835   53.5779 H   0  0  0  0  0  0  0  0  0  0  0  0
   48.2679   49.0525   53.8058 H   0  0  0  0  0  0  0  0  0  0  0  0
   50.1748   48.2835   54.3878 H   0  0  0  0  0  0  0  0  0  0  0  0
   51.5092   49.0939   55.1726 H   0  0  0  0  0  0  0  0  0  0  0  0
   51.8079   48.0256   53.8225 H   0  0  0  0  0  0  0  0  0  0  0  0
   52.9311   49.8062   52.7835 H   0  0  0  0  0  0  0  0  0  0  0  0
   54.6458   50.5980   52.5870 H   0  0  0  0  0  0  0  0  0  0  0  0
   55.9070   50.5121   53.7934 H   0  0  0  0  0  0  0  0  0  0  0  0
   55.5988   52.0150   52.9571 H   0  0  0  0  0  0  0  0  0  0  0  0
   54.0125   52.0175   56.3906 H   0  0  0  0  0  0  0  0  0  0  0  0
   53.8551   56.0595   54.7296 H   0  0  0  0  0  0  0  0  0  0  0  0
   54.4078   56.7919   56.2165 H   0  0  0  0  0  0  0  0  0  0  0  0
   52.7794   56.1689   56.1021 H   0  0  0  0  0  0  0  0  0  0  0  0
   54.9486   55.0288   59.6163 H   0  0  0  0  0  0  0  0  0  0  0  0
   56.7845   54.2045   58.0357 H   0  0  0  0  0  0  0  0  0  0  0  0
   57.2361   56.1610   60.3171 H   0  0  0  0  0  0  0  0  0  0  0  0
   58.3859   54.9536   59.7945 H   0  0  0  0  0  0  0  0  0  0  0  0
   56.8711   54.4637   60.5145 H   0  0  0  0  0  0  0  0  0  0  0  0
   57.1835   55.7932   56.5217 H   0  0  0  0  0  0  0  0  0  0  0  0
   57.1500   57.0825   57.7874 H   0  0  0  0  0  0  0  0  0  0  0  0
   61.6274   54.6642   56.1749 H   0  0  0  0  0  0  0  0  0  0  0  0
   61.5299   55.0248   57.8818 H   0  0  0  0  0  0  0  0  0  0  0  0
   61.6110   56.3251   56.7173 H   0  0  0  0  0  0  0  0  0  0  0  0
   59.2929   54.7512   56.1093 H   0  0  0  0  0  0  0  0  0  0  0  0
   59.3942   56.7238   58.2924 H   0  0  0  0  0  0  0  0  0  0  0  0
   46.5134   58.4705   53.7689 H   0  0  0  0  0  0  0  0  0  0  0  0
   43.6746   59.3358   54.3485 H   0  0  0  0  0  0  0  0  0  0  0  0
   44.1445   57.7788   53.7097 H   0  0  0  0  0  0  0  0  0  0  0  0
   44.3907   59.2237   52.7586 H   0  0  0  0  0  0  0  0  0  0  0  0
   45.3671   60.9859   55.0172 H   0  0  0  0  0  0  0  0  0  0  0  0
   46.0785   60.8920   53.4241 H   0  0  0  0  0  0  0  0  0  0  0  0
   47.0709   60.6415   54.8402 H   0  0  0  0  0  0  0  0  0  0  0  0
   43.1789   54.5035   58.9525 H   0  0  0  0  0  0  0  0  0  0  0  0
   45.1714   56.7188   59.5070 H   0  0  0  0  0  0  0  0  0  0  0  0
   44.0464   56.0670   60.6743 H   0  0  0  0  0  0  0  0  0  0  0  0
   43.4532   56.9478   59.2868 H   0  0  0  0  0  0  0  0  0  0  0  0
   46.1339   54.3728   59.3245 H   0  0  0  0  0  0  0  0  0  0  0  0
   45.0900   53.0528   58.8546 H   0  0  0  0  0  0  0  0  0  0  0  0
   44.9231   53.7786   60.4353 H   0  0  0  0  0  0  0  0  0  0  0  0
   56.2148   50.8923   55.7476 H   0  0  0  0  0  0  0  0  0  0  0  0
   56.9905   53.7759   56.2263 H   0  0  0  0  0  0  0  0  0  0  0  0
   57.1741   52.9211   54.7134 H   0  0  0  0  0  0  0  0  0  0  0  0
   58.1084   52.4381   56.1088 H   0  0  0  0  0  0  0  0  0  0  0  0
   55.9481   52.4741   58.2360 H   0  0  0  0  0  0  0  0  0  0  0  0
   57.0593   51.1573   57.9457 H   0  0  0  0  0  0  0  0  0  0  0  0
   55.3371   50.8625   57.9485 H   0  0  0  0  0  0  0  0  0  0  0  0
   51.0861   54.4320   61.0196 H   0  0  0  0  0  0  0  0  0  0  0  0
   50.1193   55.9156   61.2273 H   0  0  0  0  0  0  0  0  0  0  0  0
   53.1026   55.7769   61.1369 H   0  0  0  0  0  0  0  0  0  0  0  0
   52.1256   56.0216   62.5647 H   0  0  0  0  0  0  0  0  0  0  0  0
   52.1434   57.2282   61.3010 H   0  0  0  0  0  0  0  0  0  0  0  0
   48.0224   57.3958   54.8324 H   0  0  0  0  0  0  0  0  0  0  0  0
   48.9089   57.2807   56.3727 H   0  0  0  0  0  0  0  0  0  0  0  0
   48.8342   59.6651   54.5779 H   0  0  0  0  0  0  0  0  0  0  0  0
   50.1719   58.5565   54.7634 H   0  0  0  0  0  0  0  0  0  0  0  0
   49.6701   59.5530   56.1082 H   0  0  0  0  0  0  0  0  0  0  0  0
   43.5654   51.3794   54.6996 H   0  0  0  0  0  0  0  0  0  0  0  0
   42.4599   52.1482   55.9353 H   0  0  0  0  0  0  0  0  0  0  0  0
   43.9476   52.0890   57.5427 H   0  0  0  0  0  0  0  0  0  0  0  0
   46.1148   51.5075   55.4897 H   0  0  0  0  0  0  0  0  0  0  0  0
   46.3941   51.7143   57.2022 H   0  0  0  0  0  0  0  0  0  0  0  0
   45.8424   53.0629   56.2378 H   0  0  0  0  0  0  0  0  0  0  0  0
   44.6280   49.5899   56.0404 H   0  0  0  0  0  0  0  0  0  0  0  0
   43.2480   49.8139   57.0885 H   0  0  0  0  0  0  0  0  0  0  0  0
   44.8643   49.8556   57.7511 H   0  0  0  0  0  0  0  0  0  0  0  0
   49.8966   47.9049   52.1673 H   0  0  0  0  0  0  0  0  0  0  0  0
   48.4853   48.2352   51.0839 H   0  0  0  0  0  0  0  0  0  0  0  0
   47.7279   47.0537   53.5134 H   0  0  0  0  0  0  0  0  0  0  0  0
   49.4834   45.3050   51.8434 H   0  0  0  0  0  0  0  0  0  0  0  0
   48.5059   44.7909   53.1974 H   0  0  0  0  0  0  0  0  0  0  0  0
   49.8410   45.8891   53.4508 H   0  0  0  0  0  0  0  0  0  0  0  0
   47.3231   46.1321   50.6867 H   0  0  0  0  0  0  0  0  0  0  0  0
   46.2808   47.2256   51.5647 H   0  0  0  0  0  0  0  0  0  0  0  0
   46.4399   45.5646   52.0834 H   0  0  0  0  0  0  0  0  0  0  0  0
   52.8533   52.3418   51.9342 H   0  0  0  0  0  0  0  0  0  0  0  0
   51.2023   51.7564   51.5864 H   0  0  0  0  0  0  0  0  0  0  0  0
   53.7142   50.4647   50.6420 H   0  0  0  0  0  0  0  0  0  0  0  0
   51.7711   52.1147   49.0622 H   0  0  0  0  0  0  0  0  0  0  0  0
   53.1376   51.2408   48.4125 H   0  0  0  0  0  0  0  0  0  0  0  0
   53.3964   52.5852   49.4982 H   0  0  0  0  0  0  0  0  0  0  0  0
   50.8108   49.9632   49.9598 H   0  0  0  0  0  0  0  0  0  0  0  0
   51.8034   48.9299   50.9598 H   0  0  0  0  0  0  0  0  0  0  0  0
   52.1702   49.1161   49.2617 H   0  0  0  0  0  0  0  0  0  0  0  0
  1  2  1  0  0  0  0
  1 92  1  1  0  0  0
  2  3  2  0  0  0  0
  2  4  1  0  0  0  0
  4  5  1  0  0  0  0
  4 54  1  0  0  0  0
  5 76  1  0  0  0  0
  5  6  1  0  0  0  0
  5 93  1  6  0  0  0
  6  7  2  0  0  0  0
  6  8  1  0  0  0  0
  8  9  1  0  0  0  0
  8 10  1  0  0  0  0
  9 94  1  0  0  0  0
  9 95  1  0  0  0  0
  9 96  1  0  0  0  0
 10 11  1  0  0  0  0
 10 12  1  0  0  0  0
 10 97  1  6  0  0  0
 11 98  1  0  0  0  0
 11 99  1  0  0  0  0
 11100  1  0  0  0  0
 12 13  2  0  0  0  0
 12 14  1  0  0  0  0
 14 78  1  0  0  0  0
 14 15  1  0  0  0  0
 15 67  1  0  0  0  0
 15 16  1  0  0  0  0
 15101  1  1  0  0  0
 16 17  2  0  0  0  0
 16 18  1  0  0  0  0
 18 19  1  0  0  0  0
 18 55  1  0  0  0  0
 19 70  1  0  0  0  0
 19 20  1  0  0  0  0
 19102  1  6  0  0  0
 20 21  2  0  0  0  0
 20 22  1  0  0  0  0
 22 23  1  0  0  0  0
 22 24  1  0  0  0  0
 23103  1  0  0  0  0
 23104  1  0  0  0  0
 23105  1  0  0  0  0
 24 80  1  0  0  0  0
 24 25  1  0  0  0  0
 24106  1  1  0  0  0
 25 26  2  0  0  0  0
 25 27  1  0  0  0  0
 27 28  1  0  0  0  0
 27 56  1  0  0  0  0
 28 29  1  0  0  0  0
 28 30  1  0  0  0  0
 28107  1  6  0  0  0
 29108  1  0  0  0  0
 29109  1  0  0  0  0
 29110  1  0  0  0  0
 30 31  2  0  0  0  0
 30 32  1  0  0  0  0
 32 33  1  0  0  0  0
 32 57  1  0  0  0  0
 33 34  1  0  0  0  0
 33 35  1  0  0  0  0
 33111  1  6  0  0  0
 34112  1  0  0  0  0
 34113  1  0  0  0  0
 34114  1  0  0  0  0
 35 36  2  0  0  0  0
 35 37  1  0  0  0  0
 37 38  1  0  0  0  0
 37 39  1  0  0  0  0
 38115  1  0  0  0  0
 38116  1  0  0  0  0
 38117  1  0  0  0  0
 39 84  1  0  0  0  0
 39 40  1  0  0  0  0
 39118  1  1  0  0  0
 40 41  2  0  0  0  0
 40 42  1  0  0  0  0
 42 43  1  0  0  0  0
 42 44  1  0  0  0  0
 43119  1  0  0  0  0
 43120  1  0  0  0  0
 43121  1  0  0  0  0
 44 88  1  0  0  0  0
 44 45  1  0  0  0  0
 44122  1  6  0  0  0
 45 46  2  0  0  0  0
 45 47  1  0  0  0  0
 47 48  1  0  0  0  0
 47 49  1  0  0  0  0
 48123  1  0  0  0  0
 48124  1  0  0  0  0
 48125  1  0  0  0  0
 49 73  1  0  0  0  0
 49 50  1  0  0  0  0
 49126  1  1  0  0  0
 50 51  2  0  0  0  0
 50 52  1  0  0  0  0
 52 53  1  0  0  0  0
 52  1  1  0  0  0  0
 53127  1  0  0  0  0
 53128  1  0  0  0  0
 53129  1  0  0  0  0
 58 59  1  0  0  0  0
 58  1  1  0  0  0  0
 58130  1  1  0  0  0
 59 60  1  0  0  0  0
 61 62  1  0  0  0  0
 61 58  1  0  0  0  0
 61131  1  6  0  0  0
 62132  1  0  0  0  0
 62133  1  0  0  0  0
 62134  1  0  0  0  0
 63 61  1  0  0  0  0
 63135  1  0  0  0  0
 63136  1  0  0  0  0
 64 65  1  0  0  0  0
 64137  1  0  0  0  0
 64138  1  0  0  0  0
 64139  1  0  0  0  0
 65 66  2  0  0  0  0
 65140  1  0  0  0  0
 66 63  1  0  0  0  0
 66141  1  0  0  0  0
 67 68  1  0  0  0  0
 67 69  1  0  0  0  0
 67142  1  0  0  0  0
 68143  1  0  0  0  0
 68144  1  0  0  0  0
 68145  1  0  0  0  0
 69146  1  0  0  0  0
 69147  1  0  0  0  0
 69148  1  0  0  0  0
 70 71  1  0  0  0  0
 70 72  1  0  0  0  0
 70149  1  0  0  0  0
 71150  1  0  0  0  0
 71151  1  0  0  0  0
 71152  1  0  0  0  0
 72153  1  0  0  0  0
 72154  1  0  0  0  0
 72155  1  0  0  0  0
 73 74  1  0  0  0  0
 73 75  1  0  0  0  0
 73156  1  0  0  0  0
 74157  1  0  0  0  0
 74158  1  0  0  0  0
 74159  1  0  0  0  0
 75160  1  0  0  0  0
 75161  1  0  0  0  0
 75162  1  0  0  0  0
 76 77  1  0  0  0  0
 76163  1  0  0  0  0
 76164  1  0  0  0  0
 77165  1  0  0  0  0
 77166  1  0  0  0  0
 77167  1  0  0  0  0
 78 79  1  0  0  0  0
 78168  1  0  0  0  0
 78169  1  0  0  0  0
 79170  1  0  0  0  0
 79171  1  0  0  0  0
 79172  1  0  0  0  0
 80 81  1  0  0  0  0
 80173  1  0  0  0  0
 80174  1  0  0  0  0
 81 82  1  0  0  0  0
 81 83  1  0  0  0  0
 81175  1  0  0  0  0
 82176  1  0  0  0  0
 82177  1  0  0  0  0
 82178  1  0  0  0  0
 83179  1  0  0  0  0
 83180  1  0  0  0  0
 83181  1  0  0  0  0
 84 85  1  0  0  0  0
 84182  1  0  0  0  0
 84183  1  0  0  0  0
 85 86  1  0  0  0  0
 85 87  1  0  0  0  0
 85184  1  0  0  0  0
 86185  1  0  0  0  0
 86186  1  0  0  0  0
 86187  1  0  0  0  0
 87188  1  0  0  0  0
 87189  1  0  0  0  0
 87190  1  0  0  0  0
 88 89  1  0  0  0  0
 88191  1  0  0  0  0
 88192  1  0  0  0  0
 89 90  1  0  0  0  0
 89 91  1  0  0  0  0
 89193  1  0  0  0  0
 90194  1  0  0  0  0
 90195  1  0  0  0  0
 90196  1  0  0  0  0
 91197  1  0  0  0  0
 91198  1  0  0  0  0
 91199  1  0  0  0  0
M  END
>  <minimizedAffinity>
-6.24101

$$$$
