L3:Q00961:7921
     RDKit          3D

 42 45  0  0  0  0  0  0  0  0999 V2000
  130.4786  178.1733  168.6088 N   0  0  0  0  0  0  0  0  0  0  0  0
  129.5407  178.2807  167.6281 C   0  0  0  0  0  0  0  0  0  0  0  0
  129.6154  177.7345  166.4519 N   0  0  0  0  0  0  0  0  0  0  0  0
  130.7320  177.0178  166.2283 C   0  0  0  0  0  0  0  0  0  0  0  0
  131.0668  176.3320  164.6697 S   0  0  0  0  0  0  0  0  0  0  0  0
  132.5147  175.5994  165.3220 C   0  0  0  0  0  0  0  0  0  0  0  0
  132.7144  175.8490  166.6590 C   0  0  0  0  0  0  0  0  0  0  0  0
  131.7042  176.7059  167.1759 C   0  0  0  0  0  0  0  0  0  0  0  0
  131.5810  177.2706  168.5049 C   0  0  0  0  0  0  0  0  0  0  0  0
  132.2909  177.0351  169.4729 O   0  0  0  0  0  0  0  0  0  0  0  0
  133.8920  175.2890  167.3447 C   0  0  0  0  0  0  0  0  0  0  0  0
  135.0573  176.0425  167.4407 C   0  0  0  0  0  0  0  0  0  0  0  0
  136.2652  175.4399  167.7495 C   0  0  0  0  0  0  0  0  0  0  0  0
  136.2950  174.0837  168.0159 C   0  0  0  0  0  0  0  0  0  0  0  0
  137.4663  173.4810  168.2661 F   0  0  0  0  0  0  0  0  0  0  0  0
  135.1187  173.3471  168.0215 C   0  0  0  0  0  0  0  0  0  0  0  0
  135.2182  171.4954  168.4641 Br  0  0  0  0  0  0  0  0  0  0  0  0
  133.9043  173.9445  167.7128 C   0  0  0  0  0  0  0  0  0  0  0  0
  133.3761  174.8827  164.4820 C   0  0  0  0  0  0  0  0  0  0  0  0
  134.0919  174.3014  163.7768 N   0  0  0  0  0  0  0  0  0  0  0  0
  130.2905  178.9520  169.8208 C   0  0  0  0  0  0  0  0  0  0  0  0
  128.1771  183.1035  172.3382 C   0  0  0  0  0  0  0  0  0  0  0  0
  128.1786  182.6039  170.9234 C   0  0  0  0  0  0  0  0  0  0  0  0
  127.1047  183.1408  170.2302 F   0  0  0  0  0  0  0  0  0  0  0  0
  129.5122  182.7096  170.1615 C   0  0  0  0  0  0  0  0  0  0  0  0
  129.6282  181.2529  170.2663 N   0  0  0  0  0  0  0  0  0  0  0  0
  130.5017  180.4553  169.5954 C   0  0  0  0  0  0  0  0  0  0  0  0
  131.4055  180.8958  168.9093 O   0  0  0  0  0  0  0  0  0  0  0  0
  128.2699  181.0715  170.7750 C   0  0  0  0  0  0  0  0  0  0  0  0
  128.6797  178.8723  167.8969 H   0  0  0  0  0  0  0  0  0  0  0  0
  135.0177  177.1065  167.2471 H   0  0  0  0  0  0  0  0  0  0  0  0
  137.1849  176.0060  167.7710 H   0  0  0  0  0  0  0  0  0  0  0  0
  132.9837  173.3732  167.7671 H   0  0  0  0  0  0  0  0  0  0  0  0
  129.2887  178.7574  170.2003 H   0  0  0  0  0  0  0  0  0  0  0  0
  131.0197  178.5906  170.5435 H   0  0  0  0  0  0  0  0  0  0  0  0
  128.2933  184.1854  172.3683 H   0  0  0  0  0  0  0  0  0  0  0  0
  129.0056  182.6540  172.8874 H   0  0  0  0  0  0  0  0  0  0  0  0
  127.2432  182.8357  172.8316 H   0  0  0  0  0  0  0  0  0  0  0  0
  130.3177  183.2631  170.6397 H   0  0  0  0  0  0  0  0  0  0  0  0
  129.4023  183.0524  169.1344 H   0  0  0  0  0  0  0  0  0  0  0  0
  128.1995  180.5224  171.7138 H   0  0  0  0  0  0  0  0  0  0  0  0
  127.5612  180.6593  170.0592 H   0  0  0  0  0  0  0  0  0  0  0  0
  1  2  1  0
  2  3  2  0
  2 30  1  0
  3  4  1  0
  4  5  1  0
  5  6  1  0
  6 19  1  0
  6  7  2  0
  7 11  1  0
  7  8  1  0
  8  9  1  0
  8  4  2  0
  9 10  2  0
  9  1  1  0
 11 12  2  0
 12 13  1  0
 12 31  1  0
 13 14  2  0
 13 32  1  0
 14 15  1  0
 14 16  1  0
 16 17  1  0
 16 18  2  0
 18 11  1  0
 18 33  1  0
 19 20  3  0
 21  1  1  0
 21 34  1  0
 21 35  1  0
 22 23  1  0
 22 36  1  0
 22 37  1  0
 22 38  1  0
 23 24  1  0
 23 25  1  0
 25 26  1  0
 25 39  1  0
 25 40  1  0
 26 27  1  0
 26 29  1  0
 27 28  2  0
 27 21  1  0
 29 23  1  0
 29 41  1  0
 29 42  1  0
M  END
>  <minimizedAffinity>  (1) 
-6.19951

>  <mol_id>  (1) 
7921

>  <source_index>  (1) 
0

>  <layer>  (1) 
L3

>  <uniprot>  (1) 
Q00961

>  <paff>  (1) 
6.0269000000000004

>  <smiles>  (1) 
CC1(F)CN(C(=O)Cn2cnc3sc(C#N)c(-c4ccc(F)c(Br)c4)c3c2=O)C1

>  <aimnet_interaction_kcal_mol>  (1) 
-32.759808816839531

$$$$
L3:Q00961:43719
     RDKit          3D

 44 47  0  0  0  0  0  0  0  0999 V2000
  133.0968  174.4271  164.3074 C   0  0  0  0  0  0  0  0  0  0  0  0
  132.4087  175.4170  165.1697 C   0  0  0  0  0  0  0  0  0  0  0  0
  131.0749  176.3242  164.4971 S   0  0  0  0  0  0  0  0  0  0  0  0
  130.8509  177.1466  166.0080 C   0  0  0  0  0  0  0  0  0  0  0  0
  129.8698  178.0577  166.1679 N   0  0  0  0  0  0  0  0  0  0  0  0
  129.8035  178.5768  167.3520 C   0  0  0  0  0  0  0  0  0  0  0  0
  130.6220  178.2793  168.3977 N   0  0  0  0  0  0  0  0  0  0  0  0
  131.6538  177.2923  168.3049 C   0  0  0  0  0  0  0  0  0  0  0  0
  132.3108  176.9905  169.2952 O   0  0  0  0  0  0  0  0  0  0  0  0
  131.7606  176.7362  166.9736 C   0  0  0  0  0  0  0  0  0  0  0  0
  132.6771  175.7525  166.4724 C   0  0  0  0  0  0  0  0  0  0  0  0
  133.8565  175.2296  167.1813 C   0  0  0  0  0  0  0  0  0  0  0  0
  135.0054  176.0123  167.2922 C   0  0  0  0  0  0  0  0  0  0  0  0
  136.2242  175.4436  167.6254 C   0  0  0  0  0  0  0  0  0  0  0  0
  136.2836  174.0904  167.9032 C   0  0  0  0  0  0  0  0  0  0  0  0
  137.4689  173.5131  168.1564 F   0  0  0  0  0  0  0  0  0  0  0  0
  135.1216  173.3331  167.9221 C   0  0  0  0  0  0  0  0  0  0  0  0
  135.2504  171.4922  168.4143 Br  0  0  0  0  0  0  0  0  0  0  0  0
  133.8968  173.8979  167.5984 C   0  0  0  0  0  0  0  0  0  0  0  0
  130.3686  178.9336  169.6698 C   0  0  0  0  0  0  0  0  0  0  0  0
  130.6172  180.4469  169.6171 C   0  0  0  0  0  0  0  0  0  0  0  0
  131.6034  180.9358  169.0963 O   0  0  0  0  0  0  0  0  0  0  0  0
  129.6809  181.2057  170.2467 N   0  0  0  0  0  0  0  0  0  0  0  0
  129.5695  182.6637  170.2080 C   0  0  0  0  0  0  0  0  0  0  0  0
  128.2087  182.5196  170.9111 C   0  0  0  0  0  0  0  0  0  0  0  0
  128.1630  182.9502  172.3476 C   0  0  0  0  0  0  0  0  0  0  0  0
  127.1623  183.0981  170.2091 F   0  0  0  0  0  0  0  0  0  0  0  0
  128.3030  180.9965  170.6817 C   0  0  0  0  0  0  0  0  0  0  0  0
  133.2516  174.8173  163.3031 H   0  0  0  0  0  0  0  0  0  0  0  0
  132.5175  173.5094  164.2206 H   0  0  0  0  0  0  0  0  0  0  0  0
  134.0695  174.1868  164.7251 H   0  0  0  0  0  0  0  0  0  0  0  0
  129.0558  179.3216  167.5744 H   0  0  0  0  0  0  0  0  0  0  0  0
  134.9458  177.0732  167.0854 H   0  0  0  0  0  0  0  0  0  0  0  0
  137.1287  176.0343  167.6610 H   0  0  0  0  0  0  0  0  0  0  0  0
  132.9866  173.3154  167.6838 H   0  0  0  0  0  0  0  0  0  0  0  0
  131.0515  178.4804  170.3851 H   0  0  0  0  0  0  0  0  0  0  0  0
  129.3408  178.7217  169.9698 H   0  0  0  0  0  0  0  0  0  0  0  0
  129.4947  183.0558  169.1950 H   0  0  0  0  0  0  0  0  0  0  0  0
  130.3563  183.1960  170.7384 H   0  0  0  0  0  0  0  0  0  0  0  0
  128.2976  184.0278  172.4287 H   0  0  0  0  0  0  0  0  0  0  0  0
  128.9608  182.4588  172.9060 H   0  0  0  0  0  0  0  0  0  0  0  0
  127.2070  182.6830  172.7964 H   0  0  0  0  0  0  0  0  0  0  0  0
  127.6291  180.6287  169.9112 H   0  0  0  0  0  0  0  0  0  0  0  0
  128.1843  180.3887  171.5786 H   0  0  0  0  0  0  0  0  0  0  0  0
  1  2  1  0
  1 29  1  0
  1 30  1  0
  1 31  1  0
  2  3  1  0
  3  4  1  0
  4  5  1  0
  5  6  2  0
  6  7  1  0
  6 32  1  0
  7 20  1  0
  7  8  1  0
  8  9  2  0
  8 10  1  0
 10 11  1  0
 10  4  2  0
 11 12  1  0
 11  2  2  0
 12 13  2  0
 13 14  1  0
 13 33  1  0
 14 15  2  0
 14 34  1  0
 15 16  1  0
 15 17  1  0
 17 18  1  0
 17 19  2  0
 19 12  1  0
 19 35  1  0
 20 21  1  0
 20 36  1  0
 20 37  1  0
 21 22  2  0
 21 23  1  0
 23 24  1  0
 24 25  1  0
 24 38  1  0
 24 39  1  0
 25 26  1  0
 25 27  1  0
 25 28  1  0
 26 40  1  0
 26 41  1  0
 26 42  1  0
 28 23  1  0
 28 43  1  0
 28 44  1  0
M  END
>  <minimizedAffinity>  (2) 
-6.32700

>  <mol_id>  (2) 
43719

>  <source_index>  (2) 
1

>  <layer>  (2) 
L3

>  <uniprot>  (2) 
Q00961

>  <paff>  (2) 
6.2007000000000003

>  <smiles>  (2) 
Cc1sc2ncn(CC(=O)N3CC(C)(F)C3)c(=O)c2c1-c1ccc(F)c(Br)c1

>  <aimnet_interaction_kcal_mol>  (2) 
-34.112362358718059

$$$$
L3:Q00961:53381
     RDKit          3D

 14 13  0  0  0  0  0  0  0  0999 V2000
  129.5523  169.5709  171.3163 N   0  0  0  0  0  0  0  0  0  0  0  0
  128.5548  170.6029  171.5014 C   0  0  1  0  0  0  0  0  0  0  0  0
  130.0436  169.4045  172.1821 H   0  0  0  0  0  0  0  0  0  0  0  0
  130.2552  169.8981  170.6544 H   0  0  0  0  0  0  0  0  0  0  0  0
  128.9965  171.7859  172.3370 C   0  0  0  0  0  0  0  0  0  0  0  0
  128.2425  172.5579  172.9457 O   0  0  0  0  0  0  0  0  0  0  0  0
  130.3226  171.8867  172.3923 O   0  0  0  0  0  0  0  0  0  0  0  0
  130.5907  172.8138  172.5360 H   0  0  0  0  0  0  0  0  0  0  0  0
  127.9864  171.1232  170.1571 C   0  0  0  0  0  0  0  0  0  0  0  0
  128.6347  172.2422  169.6462 O   0  0  0  0  0  0  0  0  0  0  0  0
  129.3943  172.0176  169.0366 H   0  0  0  0  0  0  0  0  0  0  0  0
  127.7072  170.1671  172.0264 H   0  0  0  0  0  0  0  0  0  0  0  0
  126.9435  171.4067  170.3331 H   0  0  0  0  0  0  0  0  0  0  0  0
  127.9929  170.2716  169.4717 H   0  0  0  0  0  0  0  0  0  0  0  0
  1  2  1  0
  1  3  1  0
  1  4  1  0
  2  9  1  0
  2  5  1  0
  2 12  1  1
  5  6  2  0
  5  7  1  0
  7  8  1  0
  9 10  1  0
  9 13  1  0
  9 14  1  0
 10 11  1  0
M  END
>  <minimizedAffinity>  (3) 
-5.29949

>  <mol_id>  (3) 
53381

>  <source_index>  (3) 
2

>  <layer>  (3) 
L3

>  <uniprot>  (3) 
Q00961

>  <paff>  (3) 
6.6778000000000004

>  <smiles>  (3) 
N[C@H](CO)C(=O)O

>  <aimnet_interaction_kcal_mol>  (3) 
-58.697023036855995

$$$$
L3:Q00961:69000
     RDKit          3D

 34 35  0  0  0  0  0  0  0  0999 V2000
  128.2285  183.1048  170.4500 N   0  0  0  0  0  0  0  0  0  0  0  0
  128.3225  181.8056  170.7876 C   0  0  0  0  0  0  0  0  0  0  0  0
  127.4414  181.1530  171.3522 O   0  0  0  0  0  0  0  0  0  0  0  0
  129.0268  183.5262  170.0087 H   0  0  0  0  0  0  0  0  0  0  0  0
  129.5776  181.1375  170.3787 C   0  0  0  0  0  0  0  0  0  0  0  0
  130.8568  181.5938  170.2011 C   0  0  0  0  0  0  0  0  0  0  0  0
  131.7595  180.5740  169.8469 C   0  0  0  0  0  0  0  0  0  0  0  0
  131.1690  179.3414  169.7168 C   0  0  0  0  0  0  0  0  0  0  0  0
  129.4608  179.4290  170.0663 S   0  0  0  0  0  0  0  0  0  0  0  0
  131.8051  178.0830  169.3633 C   0  0  0  0  0  0  0  0  0  0  0  0
  133.0509  177.7274  169.8956 C   0  0  0  0  0  0  0  0  0  0  0  0
  133.6406  176.5221  169.5639 C   0  0  0  0  0  0  0  0  0  0  0  0
  133.0040  175.6435  168.6987 C   0  0  0  0  0  0  0  0  0  0  0  0
  131.7697  175.9662  168.1622 C   0  0  0  0  0  0  0  0  0  0  0  0
  131.2139  177.1885  168.4703 C   0  0  0  0  0  0  0  0  0  0  0  0
  130.0554  177.5334  167.8710 F   0  0  0  0  0  0  0  0  0  0  0  0
  127.0391  183.9284  170.6203 C   0  0  0  0  0  0  0  0  0  0  0  0
  125.8526  183.1858  172.6410 N   0  0  0  0  0  0  0  0  0  0  0  0
  126.6744  184.2440  172.0753 C   0  0  1  0  0  0  0  0  0  0  0  0
  126.3077  182.2939  172.4877 H   0  0  0  0  0  0  0  0  0  0  0  0
  125.7550  183.2817  173.6456 H   0  0  0  0  0  0  0  0  0  0  0  0
  127.9508  184.5854  172.8533 C   0  0  0  0  0  0  0  0  0  0  0  0
  128.6025  183.7460  173.4765 O   0  0  0  0  0  0  0  0  0  0  0  0
  128.2516  185.8461  172.7156 O   0  0  0  0  0  0  0  0  0  0  0  0
  128.9142  186.2724  173.4147 H   0  0  0  0  0  0  0  0  0  0  0  0
  131.1630  182.6212  170.3399 H   0  0  0  0  0  0  0  0  0  0  0  0
  132.8128  180.7471  169.6841 H   0  0  0  0  0  0  0  0  0  0  0  0
  133.5419  178.4009  170.5857 H   0  0  0  0  0  0  0  0  0  0  0  0
  134.6000  176.2585  169.9885 H   0  0  0  0  0  0  0  0  0  0  0  0
  133.4603  174.6991  168.4349 H   0  0  0  0  0  0  0  0  0  0  0  0
  131.2458  175.2758  167.5193 H   0  0  0  0  0  0  0  0  0  0  0  0
  127.2261  184.8568  170.0865 H   0  0  0  0  0  0  0  0  0  0  0  0
  126.1855  183.4322  170.1636 H   0  0  0  0  0  0  0  0  0  0  0  0
  126.0764  185.1547  172.0507 H   0  0  0  0  0  0  0  0  0  0  0  0
  1  2  1  0
  1  4  1  0
  2  3  2  0
  2  5  1  0
  5  6  2  0
  6  7  1  0
  6 26  1  0
  7  8  2  0
  7 27  1  0
  8 10  1  0
  8  9  1  0
  9  5  1  0
 10 11  2  0
 11 12  1  0
 11 28  1  0
 12 13  2  0
 12 29  1  0
 13 14  1  0
 13 30  1  0
 14 15  2  0
 14 31  1  0
 15 16  1  0
 15 10  1  0
 17  1  1  0
 17 32  1  0
 17 33  1  0
 18 19  1  0
 18 20  1  0
 18 21  1  0
 19 17  1  0
 19 22  1  0
 19 34  1  6
 22 23  2  0
 22 24  1  0
 24 25  1  0
M  END
>  <minimizedAffinity>  (4) 
-5.51358

>  <mol_id>  (4) 
69000

>  <source_index>  (4) 
3

>  <layer>  (4) 
L3

>  <uniprot>  (4) 
Q00961

>  <paff>  (4) 
6.6383000000000001

>  <smiles>  (4) 
N[C@H](CNC(=O)c1ccc(-c2ccccc2F)s1)C(=O)O

>  <aimnet_interaction_kcal_mol>  (4) 
-73.813124314419653

$$$$
L3:Q00961:88925
     RDKit          3D

 34 35  0  0  0  0  0  0  0  0999 V2000
  127.8929  183.2106  170.4295 N   0  0  0  0  0  0  0  0  0  0  0  0
  127.9964  181.9357  170.8504 C   0  0  0  0  0  0  0  0  0  0  0  0
  127.1183  181.3002  171.4336 O   0  0  0  0  0  0  0  0  0  0  0  0
  128.6613  183.5788  169.8955 H   0  0  0  0  0  0  0  0  0  0  0  0
  129.2885  181.2931  170.5208 C   0  0  0  0  0  0  0  0  0  0  0  0
  130.5442  181.8181  170.4441 C   0  0  0  0  0  0  0  0  0  0  0  0
  131.5147  180.8368  170.1550 C   0  0  0  0  0  0  0  0  0  0  0  0
  133.3510  181.2654  170.1265 Br  0  0  0  0  0  0  0  0  0  0  0  0
  131.0093  179.5721  169.9519 C   0  0  0  0  0  0  0  0  0  0  0  0
  129.2741  179.5805  170.2022 S   0  0  0  0  0  0  0  0  0  0  0  0
  131.6904  178.3399  169.5886 C   0  0  0  0  0  0  0  0  0  0  0  0
  132.8843  177.9505  170.2050 C   0  0  0  0  0  0  0  0  0  0  0  0
  133.5078  176.7704  169.8492 C   0  0  0  0  0  0  0  0  0  0  0  0
  132.9445  175.9327  168.8969 C   0  0  0  0  0  0  0  0  0  0  0  0
  131.7489  176.2774  168.2901 C   0  0  0  0  0  0  0  0  0  0  0  0
  131.1699  177.4869  168.6097 C   0  0  0  0  0  0  0  0  0  0  0  0
  130.0590  177.8569  167.9408 F   0  0  0  0  0  0  0  0  0  0  0  0
  126.7440  184.0781  170.6366 C   0  0  0  0  0  0  0  0  0  0  0  0
  125.6507  183.4054  172.7222 N   0  0  0  0  0  0  0  0  0  0  0  0
  126.4737  184.4315  172.1049 C   0  0  1  0  0  0  0  0  0  0  0  0
  125.5975  183.5119  173.7290 H   0  0  0  0  0  0  0  0  0  0  0  0
  126.0754  182.5005  172.5581 H   0  0  0  0  0  0  0  0  0  0  0  0
  127.7997  184.7313  172.8201 C   0  0  0  0  0  0  0  0  0  0  0  0
  128.4630  183.8714  173.3989 O   0  0  0  0  0  0  0  0  0  0  0  0
  128.1257  185.9884  172.6965 O   0  0  0  0  0  0  0  0  0  0  0  0
  128.8297  186.3530  173.3767 H   0  0  0  0  0  0  0  0  0  0  0  0
  130.7863  182.8550  170.6265 H   0  0  0  0  0  0  0  0  0  0  0  0
  133.3270  178.5745  170.9659 H   0  0  0  0  0  0  0  0  0  0  0  0
  134.4421  176.5012  170.3231 H   0  0  0  0  0  0  0  0  0  0  0  0
  133.4335  175.0111  168.6129 H   0  0  0  0  0  0  0  0  0  0  0  0
  131.2705  175.6177  167.5812 H   0  0  0  0  0  0  0  0  0  0  0  0
  126.9381  184.9892  170.0759 H   0  0  0  0  0  0  0  0  0  0  0  0
  125.8494  183.6068  170.2337 H   0  0  0  0  0  0  0  0  0  0  0  0
  125.9079  185.3625  172.1027 H   0  0  0  0  0  0  0  0  0  0  0  0
  1  2  1  0
  1  4  1  0
  2  3  2  0
  2  5  1  0
  5  6  2  0
  6  7  1  0
  6 27  1  0
  7  8  1  0
  7  9  2  0
  9 11  1  0
  9 10  1  0
 10  5  1  0
 11 12  2  0
 12 13  1  0
 12 28  1  0
 13 14  2  0
 13 29  1  0
 14 15  1  0
 14 30  1  0
 15 16  2  0
 15 31  1  0
 16 17  1  0
 16 11  1  0
 18  1  1  0
 18 32  1  0
 18 33  1  0
 19 20  1  0
 19 21  1  0
 19 22  1  0
 20 18  1  0
 20 23  1  0
 20 34  1  6
 23 24  2  0
 23 25  1  0
 25 26  1  0
M  END
>  <minimizedAffinity>  (5) 
-5.59489

>  <mol_id>  (5) 
88925

>  <source_index>  (5) 
4

>  <layer>  (5) 
L3

>  <uniprot>  (5) 
Q00961

>  <paff>  (5) 
7.4684999999999997

>  <smiles>  (5) 
N[C@H](CNC(=O)c1cc(Br)c(-c2ccccc2F)s1)C(=O)O

>  <aimnet_interaction_kcal_mol>  (5) 
-73.822432475593772

$$$$
L3:Q00961:89763
     RDKit          3D

 45 47  0  0  0  0  0  0  0  0999 V2000
  133.3867  177.7947  170.5864 C   0  0  0  0  0  0  0  0  0  0  0  0
  132.7829  176.9996  169.4949 C   0  0  0  0  0  0  0  0  0  0  0  0
  133.4494  175.9795  168.9800 N   0  0  0  0  0  0  0  0  0  0  0  0
  132.9284  175.3214  167.9346 C   0  0  0  0  0  0  0  0  0  0  0  0
  131.6981  175.6883  167.4155 C   0  0  0  0  0  0  0  0  0  0  0  0
  130.9987  176.7151  167.9287 N   0  0  0  0  0  0  0  0  0  0  0  0
  131.5201  177.3382  168.9646 C   0  0  0  0  0  0  0  0  0  0  0  0
  133.6869  174.1678  167.3594 C   0  0  0  0  0  0  0  0  0  0  0  0
  133.3595  173.6339  166.3006 O   0  0  0  0  0  0  0  0  0  0  0  0
  134.7317  173.7636  168.1189 N   0  0  0  0  0  0  0  0  0  0  0  0
  134.9589  174.3469  168.9077 H   0  0  0  0  0  0  0  0  0  0  0  0
  135.2438  172.4084  168.0749 C   0  0  0  0  0  0  0  0  0  0  0  0
  136.7340  172.3238  168.2040 C   0  0  0  0  0  0  0  0  0  0  0  0
  137.3440  171.5497  169.1826 C   0  0  0  0  0  0  0  0  0  0  0  0
  138.7226  171.4242  169.1863 C   0  0  0  0  0  0  0  0  0  0  0  0
  139.4508  172.0737  168.2011 C   0  0  0  0  0  0  0  0  0  0  0  0
  138.8888  172.8358  167.2630 N   0  0  0  0  0  0  0  0  0  0  0  0
  137.5641  172.9650  167.2870 C   0  0  0  0  0  0  0  0  0  0  0  0
  130.8333  178.3223  169.5945 O   0  0  0  0  0  0  0  0  0  0  0  0
  129.9808  179.1466  168.7872 C   0  0  0  0  0  0  0  0  0  0  0  0
  130.2276  180.6091  169.1305 C   0  0  0  0  0  0  0  0  0  0  0  0
  129.8678  181.3712  168.0385 F   0  0  0  0  0  0  0  0  0  0  0  0
  131.5754  180.8288  169.3150 F   0  0  0  0  0  0  0  0  0  0  0  0
  129.4632  181.1536  170.3308 C   0  0  0  0  0  0  0  0  0  0  0  0
  129.6568  182.4866  170.6698 C   0  0  0  0  0  0  0  0  0  0  0  0
  128.8951  183.0180  171.7027 C   0  0  0  0  0  0  0  0  0  0  0  0
  129.1061  184.6660  172.2063 Cl  0  0  0  0  0  0  0  0  0  0  0  0
  127.9552  182.2058  172.3340 C   0  0  0  0  0  0  0  0  0  0  0  0
  127.8518  180.8911  171.9114 C   0  0  0  0  0  0  0  0  0  0  0  0
  128.6154  180.3389  170.9587 N   0  0  0  0  0  0  0  0  0  0  0  0
  134.2963  177.3285  170.9459 H   0  0  0  0  0  0  0  0  0  0  0  0
  132.7128  177.9202  171.4281 H   0  0  0  0  0  0  0  0  0  0  0  0
  133.6264  178.7999  170.2443 H   0  0  0  0  0  0  0  0  0  0  0  0
  131.2719  175.1321  166.5905 H   0  0  0  0  0  0  0  0  0  0  0  0
  134.9309  171.9655  167.1302 H   0  0  0  0  0  0  0  0  0  0  0  0
  134.7565  171.8217  168.8528 H   0  0  0  0  0  0  0  0  0  0  0  0
  136.7540  171.0421  169.9323 H   0  0  0  0  0  0  0  0  0  0  0  0
  139.2205  170.8237  169.9355 H   0  0  0  0  0  0  0  0  0  0  0  0
  140.5315  171.9868  168.1705 H   0  0  0  0  0  0  0  0  0  0  0  0
  137.1264  173.6241  166.5425 H   0  0  0  0  0  0  0  0  0  0  0  0
  128.9458  178.8952  168.9884 H   0  0  0  0  0  0  0  0  0  0  0  0
  130.2091  178.9956  167.7383 H   0  0  0  0  0  0  0  0  0  0  0  0
  130.3684  183.0952  170.1293 H   0  0  0  0  0  0  0  0  0  0  0  0
  127.3098  182.5761  173.1169 H   0  0  0  0  0  0  0  0  0  0  0  0
  127.1227  180.2418  172.3811 H   0  0  0  0  0  0  0  0  0  0  0  0
  1  2  1  0
  1 31  1  0
  1 32  1  0
  1 33  1  0
  2  3  2  0
  3  4  1  0
  4  8  1  0
  4  5  2  0
  5  6  1  0
  5 34  1  0
  6  7  2  0
  7 19  1  0
  7  2  1  0
  8  9  2  0
  8 10  1  0
 10 12  1  0
 10 11  1  0
 12 13  1  0
 12 35  1  0
 12 36  1  0
 13 14  2  0
 14 15  1  0
 14 37  1  0
 15 16  2  0
 15 38  1  0
 16 17  1  0
 16 39  1  0
 17 18  2  0
 18 13  1  0
 18 40  1  0
 19 20  1  0
 20 21  1  0
 20 41  1  0
 20 42  1  0
 21 22  1  0
 21 23  1  0
 21 24  1  0
 24 25  2  0
 25 26  1  0
 25 43  1  0
 26 27  1  0
 26 28  2  0
 28 29  1  0
 28 44  1  0
 29 30  2  0
 29 45  1  0
 30 24  1  0
M  END
>  <minimizedAffinity>  (6) 
-6.38453

>  <mol_id>  (6) 
89763

>  <source_index>  (6) 
5

>  <layer>  (6) 
L3

>  <uniprot>  (6) 
Q00961

>  <paff>  (6) 
7.0555000000000003

>  <smiles>  (6) 
Cc1nc(C(=O)NCc2cccnc2)cnc1OCC(F)(F)c1cc(Cl)ccn1

>  <aimnet_interaction_kcal_mol>  (6) 
-42.565819566314353

$$$$
L3:Q00961:93521
     RDKit          3D

 41 44  0  0  0  0  0  0  0  0999 V2000
  131.0286  177.8087  167.9201 N   0  0  0  0  0  0  0  0  0  0  0  0
  131.2055  177.9274  166.5749 C   0  0  0  0  0  0  0  0  0  0  0  0
  131.0436  179.0152  165.8889 N   0  0  0  0  0  0  0  0  0  0  0  0
  130.6610  180.0877  166.6090 C   0  0  0  0  0  0  0  0  0  0  0  0
  130.4386  181.6337  165.8517 S   0  0  0  0  0  0  0  0  0  0  0  0
  130.0228  182.3212  167.3790 C   0  0  0  0  0  0  0  0  0  0  0  0
  130.0313  181.4364  168.4244 C   0  0  0  0  0  0  0  0  0  0  0  0
  130.4096  180.1238  167.9792 C   0  0  0  0  0  0  0  0  0  0  0  0
  130.5836  178.9007  168.7285 C   0  0  0  0  0  0  0  0  0  0  0  0
  130.3813  178.7445  169.9288 O   0  0  0  0  0  0  0  0  0  0  0  0
  129.6716  181.8892  169.7723 C   0  0  0  0  0  0  0  0  0  0  0  0
  130.2128  183.0966  170.2290 C   0  0  0  0  0  0  0  0  0  0  0  0
  129.7268  183.7224  171.3647 C   0  0  0  0  0  0  0  0  0  0  0  0
  128.7034  183.1174  172.0693 C   0  0  0  0  0  0  0  0  0  0  0  0
  128.1996  183.7499  173.1424 F   0  0  0  0  0  0  0  0  0  0  0  0
  128.2035  181.8801  171.6837 C   0  0  0  0  0  0  0  0  0  0  0  0
  126.8645  181.0568  172.7544 Br  0  0  0  0  0  0  0  0  0  0  0  0
  128.6914  181.2549  170.5429 C   0  0  0  0  0  0  0  0  0  0  0  0
  131.2396  176.5100  168.5448 C   0  0  0  0  0  0  0  0  0  0  0  0
  134.7860  172.5837  168.0384 C   0  0  0  0  0  0  0  0  0  0  0  0
  134.5143  173.8923  167.3651 C   0  0  0  0  0  0  0  0  0  0  0  0
  135.1597  173.9186  166.1171 F   0  0  0  0  0  0  0  0  0  0  0  0
  134.7998  175.1535  168.1893 C   0  0  0  0  0  0  0  0  0  0  0  0
  133.4015  175.5367  168.0288 N   0  0  0  0  0  0  0  0  0  0  0  0
  132.6994  176.2753  168.9122 C   0  0  0  0  0  0  0  0  0  0  0  0
  133.2039  176.7117  169.9391 O   0  0  0  0  0  0  0  0  0  0  0  0
  133.0474  174.3496  167.2281 C   0  0  0  0  0  0  0  0  0  0  0  0
  131.5144  177.0215  166.0663 H   0  0  0  0  0  0  0  0  0  0  0  0
  129.7575  183.3640  167.4287 H   0  0  0  0  0  0  0  0  0  0  0  0
  131.0100  183.5658  169.6698 H   0  0  0  0  0  0  0  0  0  0  0  0
  130.1021  184.6820  171.6966 H   0  0  0  0  0  0  0  0  0  0  0  0
  128.2930  180.2982  170.2419 H   0  0  0  0  0  0  0  0  0  0  0  0
  130.6525  176.4939  169.4501 H   0  0  0  0  0  0  0  0  0  0  0  0
  130.8612  175.7407  167.8775 H   0  0  0  0  0  0  0  0  0  0  0  0
  135.8532  172.4682  168.2237 H   0  0  0  0  0  0  0  0  0  0  0  0
  134.4437  171.7508  167.4311 H   0  0  0  0  0  0  0  0  0  0  0  0
  134.2518  172.5295  168.9810 H   0  0  0  0  0  0  0  0  0  0  0  0
  135.5166  175.8481  167.7573 H   0  0  0  0  0  0  0  0  0  0  0  0
  135.0801  174.9742  169.2270 H   0  0  0  0  0  0  0  0  0  0  0  0
  132.7476  174.5959  166.2118 H   0  0  0  0  0  0  0  0  0  0  0  0
  132.3179  173.6735  167.6756 H   0  0  0  0  0  0  0  0  0  0  0  0
  1  2  1  0
  2  3  2  0
  2 28  1  0
  3  4  1  0
  4  5  1  0
  5  6  1  0
  6  7  2  0
  6 29  1  0
  7 11  1  0
  7  8  1  0
  8  9  1  0
  8  4  2  0
  9 10  2  0
  9  1  1  0
 11 12  2  0
 12 13  1  0
 12 30  1  0
 13 14  2  0
 13 31  1  0
 14 15  1  0
 14 16  1  0
 16 17  1  0
 16 18  2  0
 18 11  1  0
 18 32  1  0
 19  1  1  0
 19 33  1  0
 19 34  1  0
 20 21  1  0
 20 35  1  0
 20 36  1  0
 20 37  1  0
 21 22  1  0
 21 23  1  0
 23 24  1  0
 23 38  1  0
 23 39  1  0
 24 25  1  0
 24 27  1  0
 25 26  2  0
 25 19  1  0
 27 21  1  0
 27 40  1  0
 27 41  1  0
M  END
>  <minimizedAffinity>  (7) 
-6.07706

>  <mol_id>  (7) 
93521

>  <source_index>  (7) 
6

>  <layer>  (7) 
L3

>  <uniprot>  (7) 
Q00961

>  <paff>  (7) 
6.0605000000000002

>  <smiles>  (7) 
CC1(F)CN(C(=O)Cn2cnc3scc(-c4ccc(F)c(Br)c4)c3c2=O)C1

>  <aimnet_interaction_kcal_mol>  (7) 
-48.966532229991444

$$$$
L3:Q00961:103070
     RDKit          3D

 37 38  0  0  0  0  0  0  0  0999 V2000
  129.6484  175.9988  181.2220 C   0  0  0  0  0  0  0  0  0  0  0  0
  129.1920  175.1970  180.2064 C   0  0  0  0  0  0  0  0  0  0  0  0
  127.7871  175.1083  180.1584 C   0  0  0  0  0  0  0  0  0  0  0  0
  127.1683  175.8472  181.1309 C   0  0  0  0  0  0  0  0  0  0  0  0
  128.3305  176.6790  182.1242 S   0  0  0  0  0  0  0  0  0  0  0  0
  125.7391  175.8471  181.4804 C   0  0  0  0  0  0  0  0  0  0  0  0
  125.3124  175.0173  182.5192 C   0  0  0  0  0  0  0  0  0  0  0  0
  123.9694  174.8763  182.8262 C   0  0  0  0  0  0  0  0  0  0  0  0
  123.0148  175.5890  182.1150 C   0  0  0  0  0  0  0  0  0  0  0  0
  123.4170  176.4593  181.1171 C   0  0  0  0  0  0  0  0  0  0  0  0
  124.7664  176.6145  180.8128 C   0  0  0  0  0  0  0  0  0  0  0  0
  125.1542  177.6267  179.7722 C   0  0  0  0  0  0  0  0  0  0  0  0
  126.0744  178.4995  180.2128 F   0  0  0  0  0  0  0  0  0  0  0  0
  124.0971  178.3566  179.3418 F   0  0  0  0  0  0  0  0  0  0  0  0
  125.6719  177.0234  178.6562 F   0  0  0  0  0  0  0  0  0  0  0  0
  131.9930  176.1799  180.7389 N   0  0  0  0  0  0  0  0  0  0  0  0
  131.0190  176.3358  181.6754 C   0  0  0  0  0  0  0  0  0  0  0  0
  131.2284  176.7516  182.8101 O   0  0  0  0  0  0  0  0  0  0  0  0
  131.8309  175.7018  179.8677 H   0  0  0  0  0  0  0  0  0  0  0  0
  133.3773  176.4451  181.0337 C   0  0  0  0  0  0  0  0  0  0  0  0
  133.8820  175.4268  178.8815 N   0  0  0  0  0  0  0  0  0  0  0  0
  134.1500  176.5912  179.7177 C   0  0  1  0  0  0  0  0  0  0  0  0
  133.7753  175.6843  177.9106 H   0  0  0  0  0  0  0  0  0  0  0  0
  134.6108  174.7304  178.9531 H   0  0  0  0  0  0  0  0  0  0  0  0
  133.7621  177.8656  178.9896 C   0  0  0  0  0  0  0  0  0  0  0  0
  133.1604  177.8916  177.9300 O   0  0  0  0  0  0  0  0  0  0  0  0
  134.1808  178.9448  179.6325 O   0  0  0  0  0  0  0  0  0  0  0  0
  133.9633  179.7563  179.1097 H   0  0  0  0  0  0  0  0  0  0  0  0
  129.8479  174.6668  179.5362 H   0  0  0  0  0  0  0  0  0  0  0  0
  127.2535  174.4857  179.4614 H   0  0  0  0  0  0  0  0  0  0  0  0
  126.0547  174.4686  183.0841 H   0  0  0  0  0  0  0  0  0  0  0  0
  123.6706  174.2057  183.6210 H   0  0  0  0  0  0  0  0  0  0  0  0
  121.9626  175.4776  182.3337 H   0  0  0  0  0  0  0  0  0  0  0  0
  122.6792  177.0250  180.5689 H   0  0  0  0  0  0  0  0  0  0  0  0
  133.4501  177.3439  181.6367 H   0  0  0  0  0  0  0  0  0  0  0  0
  133.8203  175.6333  181.6142 H   0  0  0  0  0  0  0  0  0  0  0  0
  135.2133  176.6844  179.9674 H   0  0  0  0  0  0  0  0  0  0  0  0
  1  2  2  0
  2  3  1  0
  2 29  1  0
  3  4  2  0
  3 30  1  0
  4  6  1  0
  4  5  1  0
  5  1  1  0
  6  7  2  0
  7  8  1  0
  7 31  1  0
  8  9  2  0
  8 32  1  0
  9 10  1  0
  9 33  1  0
 10 11  2  0
 10 34  1  0
 11 12  1  0
 11  6  1  0
 12 13  1  0
 12 14  1  0
 12 15  1  0
 16 17  1  0
 16 19  1  0
 17 18  2  0
 17  1  1  0
 20 16  1  0
 20 35  1  0
 20 36  1  0
 21 22  1  0
 21 23  1  0
 21 24  1  0
 22 20  1  0
 22 25  1  0
 22 37  1  1
 25 26  2  0
 25 27  1  0
 27 28  1  0
M  END
>  <minimizedAffinity>  (8) 
-5.62835

>  <mol_id>  (8) 
103070

>  <source_index>  (8) 
7

>  <layer>  (8) 
L3

>  <uniprot>  (8) 
Q00961

>  <paff>  (8) 
7.0555000000000003

>  <smiles>  (8) 
N[C@H](CNC(=O)c1ccc(-c2ccccc2C(F)(F)F)s1)C(=O)O

>  <aimnet_interaction_kcal_mol>  (8) 
-30.768592841946461

$$$$
L3:Q00961:108874
     RDKit          3D

 37 38  0  0  0  0  0  0  0  0999 V2000
  132.5735  178.3889  182.6379 C   0  0  0  0  0  0  0  0  0  0  0  0
  131.4572  177.6230  182.0096 C   0  0  0  0  0  0  0  0  0  0  0  0
  130.0808  177.9331  182.1823 C   0  0  0  0  0  0  0  0  0  0  0  0
  129.2357  177.0111  181.6211 C   0  0  0  0  0  0  0  0  0  0  0  0
  130.1279  175.7054  180.8807 S   0  0  0  0  0  0  0  0  0  0  0  0
  131.6316  176.5135  181.2213 C   0  0  0  0  0  0  0  0  0  0  0  0
  132.8499  176.0316  180.5681 C   0  0  0  0  0  0  0  0  0  0  0  0
  133.0007  176.2043  179.1930 C   0  0  0  0  0  0  0  0  0  0  0  0
  134.0634  175.6519  178.5014 C   0  0  0  0  0  0  0  0  0  0  0  0
  135.0411  174.9568  179.1925 C   0  0  0  0  0  0  0  0  0  0  0  0
  134.9576  174.8223  180.5666 C   0  0  0  0  0  0  0  0  0  0  0  0
  133.8611  175.3404  181.2350 C   0  0  0  0  0  0  0  0  0  0  0  0
  133.7072  175.0010  183.1084 Br  0  0  0  0  0  0  0  0  0  0  0  0
  127.7700  176.9248  181.4781 C   0  0  0  0  0  0  0  0  0  0  0  0
  127.1438  175.8847  181.6872 O   0  0  0  0  0  0  0  0  0  0  0  0
  127.1613  178.0455  180.9934 N   0  0  0  0  0  0  0  0  0  0  0  0
  127.6626  178.9188  181.0317 H   0  0  0  0  0  0  0  0  0  0  0  0
  125.7375  178.0474  180.7330 C   0  0  0  0  0  0  0  0  0  0  0  0
  125.3346  177.0055  179.6629 C   0  0  1  0  0  0  0  0  0  0  0  0
  124.0951  176.2894  179.9480 N   0  0  0  0  0  0  0  0  0  0  0  0
  124.2651  175.7313  180.7788 H   0  0  0  0  0  0  0  0  0  0  0  0
  123.3695  176.9463  180.2115 H   0  0  0  0  0  0  0  0  0  0  0  0
  125.2981  177.5491  178.2437 C   0  0  0  0  0  0  0  0  0  0  0  0
  125.8945  176.9920  177.3305 O   0  0  0  0  0  0  0  0  0  0  0  0
  124.5769  178.6359  178.0808 O   0  0  0  0  0  0  0  0  0  0  0  0
  124.8066  179.0397  177.1267 H   0  0  0  0  0  0  0  0  0  0  0  0
  132.6776  178.1123  183.6886 H   0  0  0  0  0  0  0  0  0  0  0  0
  132.3737  179.4533  182.5844 H   0  0  0  0  0  0  0  0  0  0  0  0
  133.5236  178.1823  182.1499 H   0  0  0  0  0  0  0  0  0  0  0  0
  129.7502  178.8214  182.6992 H   0  0  0  0  0  0  0  0  0  0  0  0
  132.2662  176.7866  178.6561 H   0  0  0  0  0  0  0  0  0  0  0  0
  134.1198  175.7339  177.4274 H   0  0  0  0  0  0  0  0  0  0  0  0
  135.8430  174.4828  178.6516 H   0  0  0  0  0  0  0  0  0  0  0  0
  135.7195  174.2913  181.1163 H   0  0  0  0  0  0  0  0  0  0  0  0
  125.4361  179.0480  180.4333 H   0  0  0  0  0  0  0  0  0  0  0  0
  125.2021  177.7869  181.6464 H   0  0  0  0  0  0  0  0  0  0  0  0
  126.1159  176.2551  179.6599 H   0  0  0  0  0  0  0  0  0  0  0  0
  1  2  1  0
  1 27  1  0
  1 28  1  0
  1 29  1  0
  2  3  1  0
  3  4  2  0
  3 30  1  0
  4 14  1  0
  4  5  1  0
  5  6  1  0
  6  7  1  0
  6  2  2  0
  7  8  2  0
  8  9  1  0
  8 31  1  0
  9 10  2  0
  9 32  1  0
 10 11  1  0
 10 33  1  0
 11 12  2  0
 11 34  1  0
 12 13  1  0
 12  7  1  0
 14 15  2  0
 14 16  1  0
 16 18  1  0
 16 17  1  0
 18 19  1  0
 18 35  1  0
 18 36  1  0
 19 20  1  0
 19 23  1  0
 19 37  1  6
 20 21  1  0
 20 22  1  0
 23 24  2  0
 23 25  1  0
 25 26  1  0
M  END
>  <minimizedAffinity>  (9) 
-5.32367

>  <mol_id>  (9) 
108874

>  <source_index>  (9) 
8

>  <layer>  (9) 
L3

>  <uniprot>  (9) 
Q00961

>  <paff>  (9) 
7.6021000000000001

>  <smiles>  (9) 
Cc1cc(C(=O)NC[C@@H](N)C(=O)O)sc1-c1ccccc1Br

>  <aimnet_interaction_kcal_mol>  (9) 
-66.989940803155676

$$$$
L3:Q00961:135025
     RDKit          3D

 34 35  0  0  0  0  0  0  0  0999 V2000
  128.2538  183.0871  170.4454 N   0  0  0  0  0  0  0  0  0  0  0  0
  128.3588  181.7859  170.7710 C   0  0  0  0  0  0  0  0  0  0  0  0
  127.4865  181.1181  171.3311 O   0  0  0  0  0  0  0  0  0  0  0  0
  129.0485  183.5157  170.0045 H   0  0  0  0  0  0  0  0  0  0  0  0
  129.6239  181.1387  170.3547 C   0  0  0  0  0  0  0  0  0  0  0  0
  130.9023  181.6136  170.2249 C   0  0  0  0  0  0  0  0  0  0  0  0
  131.8249  180.6144  169.8624 C   0  0  0  0  0  0  0  0  0  0  0  0
  131.2506  179.3844  169.6733 C   0  0  0  0  0  0  0  0  0  0  0  0
  129.5323  179.4416  169.9735 S   0  0  0  0  0  0  0  0  0  0  0  0
  131.9026  178.1459  169.2644 C   0  0  0  0  0  0  0  0  0  0  0  0
  133.0642  177.6875  169.8951 C   0  0  0  0  0  0  0  0  0  0  0  0
  133.6609  176.5055  169.4966 C   0  0  0  0  0  0  0  0  0  0  0  0
  133.1425  175.7637  168.4449 C   0  0  0  0  0  0  0  0  0  0  0  0
  132.0112  176.2193  167.8036 C   0  0  0  0  0  0  0  0  0  0  0  0
  131.4961  175.5372  166.7756 F   0  0  0  0  0  0  0  0  0  0  0  0
  131.3959  177.3965  168.2043 C   0  0  0  0  0  0  0  0  0  0  0  0
  130.3123  177.8158  167.5320 F   0  0  0  0  0  0  0  0  0  0  0  0
  127.0596  183.9024  170.6218 C   0  0  0  0  0  0  0  0  0  0  0  0
  125.8835  183.1382  172.6382 N   0  0  0  0  0  0  0  0  0  0  0  0
  126.6944  184.2076  172.0785 C   0  0  1  0  0  0  0  0  0  0  0  0
  126.3504  182.2520  172.4886 H   0  0  0  0  0  0  0  0  0  0  0  0
  125.7737  183.2318  173.6416 H   0  0  0  0  0  0  0  0  0  0  0  0
  127.9682  184.5606  172.8564 C   0  0  0  0  0  0  0  0  0  0  0  0
  128.6375  183.7236  173.4647 O   0  0  0  0  0  0  0  0  0  0  0  0
  128.2453  185.8283  172.7353 O   0  0  0  0  0  0  0  0  0  0  0  0
  128.9105  186.2600  173.4301 H   0  0  0  0  0  0  0  0  0  0  0  0
  131.1938  182.6389  170.4052 H   0  0  0  0  0  0  0  0  0  0  0  0
  132.8802  180.8017  169.7321 H   0  0  0  0  0  0  0  0  0  0  0  0
  133.4852  178.2651  170.7065 H   0  0  0  0  0  0  0  0  0  0  0  0
  134.5473  176.1472  170.0028 H   0  0  0  0  0  0  0  0  0  0  0  0
  133.5933  174.8375  168.1194 H   0  0  0  0  0  0  0  0  0  0  0  0
  127.2401  184.8350  170.0931 H   0  0  0  0  0  0  0  0  0  0  0  0
  126.2081  183.4037  170.1640 H   0  0  0  0  0  0  0  0  0  0  0  0
  126.0872  185.1122  172.0582 H   0  0  0  0  0  0  0  0  0  0  0  0
  1  2  1  0
  1  4  1  0
  2  3  2  0
  2  5  1  0
  5  6  2  0
  6  7  1  0
  6 27  1  0
  7  8  2  0
  7 28  1  0
  8 10  1  0
  8  9  1  0
  9  5  1  0
 10 11  2  0
 11 12  1  0
 11 29  1  0
 12 13  2  0
 12 30  1  0
 13 14  1  0
 13 31  1  0
 14 15  1  0
 14 16  2  0
 16 17  1  0
 16 10  1  0
 18  1  1  0
 18 32  1  0
 18 33  1  0
 19 20  1  0
 19 21  1  0
 19 22  1  0
 20 18  1  0
 20 23  1  0
 20 34  1  6
 23 24  2  0
 23 25  1  0
 25 26  1  0
M  END
>  <minimizedAffinity>  (10) 
-5.63047

>  <mol_id>  (10) 
135025

>  <source_index>  (10) 
9

>  <layer>  (10) 
L3

>  <uniprot>  (10) 
Q00961

>  <paff>  (10) 
6.0315000000000003

>  <smiles>  (10) 
N[C@H](CNC(=O)c1ccc(-c2cccc(F)c2F)s1)C(=O)O

>  <aimnet_interaction_kcal_mol>  (10) 
-71.915586186741734

$$$$
