L2:P56817:9611
     RDKit          3D

 53 56  0  0  0  0  0  0  0  0999 V2000
   71.2106   47.4517    9.3700 C   0  0  0  0  0  0  0  0  0  0  0  0
   71.5907   47.0026    8.1151 C   0  0  0  0  0  0  0  0  0  0  0  0
   71.1037   47.6306    6.9649 C   0  0  0  0  0  0  0  0  0  0  0  0
   70.3542   48.7938    7.1313 C   0  0  0  0  0  0  0  0  0  0  0  0
   70.1263   49.3259    8.3273 N   0  0  0  0  0  0  0  0  0  0  0  0
   70.5410   48.6809    9.3818 C   0  0  0  0  0  0  0  0  0  0  0  0
   70.2726   49.2871   10.5541 F   0  0  0  0  0  0  0  0  0  0  0  0
   72.0301   44.1200   11.1249 C   0  0  1  0  0  0  0  0  0  0  0  0
   71.5357   44.1613    9.7185 C   0  0  0  0  0  0  0  0  0  0  0  0
   72.1733   45.3715   10.3229 C   0  0  1  0  0  0  0  0  0  0  0  0
   71.3822   46.6266   10.6454 C   0  0  1  0  0  0  0  0  0  0  0  0
   72.1993   47.3842   11.7014 C   0  0  0  0  0  0  0  0  0  0  0  0
   70.0428   46.3920   11.1550 N   0  0  0  0  0  0  0  0  0  0  0  0
   69.7130   45.4131   11.8698 C   0  0  0  0  0  0  0  0  0  0  0  0
   68.4188   45.2204   12.3073 N   0  0  0  0  0  0  0  0  0  0  0  0
   70.8044   44.1021   12.4685 S   0  0  0  0  0  0  0  0  0  0  0  0
   67.7616   45.7811   11.7825 H   0  0  0  0  0  0  0  0  0  0  0  0
   68.1315   44.2575   12.3848 H   0  0  0  0  0  0  0  0  0  0  0  0
   73.2414   43.3119   11.4621 C   0  0  0  0  0  0  0  0  0  0  0  0
   74.8996   42.1916   13.1987 H   0  0  0  0  0  0  0  0  0  0  0  0
   75.0973   43.2324   12.9141 C   0  0  0  0  0  0  0  0  0  0  0  0
   75.5219   43.7558   13.7658 H   0  0  0  0  0  0  0  0  0  0  0  0
   75.8297   43.2299   12.0989 H   0  0  0  0  0  0  0  0  0  0  0  0
   73.9152   43.9018   12.5546 O   0  0  0  0  0  0  0  0  0  0  0  0
   71.2357   47.1145    5.6734 N   0  0  0  0  0  0  0  0  0  0  0  0
   72.2862   46.4427    5.1568 C   0  0  0  0  0  0  0  0  0  0  0  0
   73.3054   46.1292    5.7725 O   0  0  0  0  0  0  0  0  0  0  0  0
   70.3786   47.1411    5.1079 H   0  0  0  0  0  0  0  0  0  0  0  0
   72.0950   46.0870    3.7071 C   0  0  0  0  0  0  0  0  0  0  0  0
   73.0201   45.3035    3.0408 C   0  0  0  0  0  0  0  0  0  0  0  0
   72.8371   44.9364    1.7625 N   0  0  0  0  0  0  0  0  0  0  0  0
   71.7107   45.3203    1.1870 C   0  0  0  0  0  0  0  0  0  0  0  0
   70.7833   46.1418    1.8288 C   0  0  0  0  0  0  0  0  0  0  0  0
   71.0065   46.5309    3.0719 N   0  0  0  0  0  0  0  0  0  0  0  0
   71.4014   44.9478   -0.0899 O   0  0  0  0  0  0  0  0  0  0  0  0
   72.1627   43.8980   -0.6869 C   0  0  0  0  0  0  0  0  0  0  0  0
   73.3941   44.3949   -1.2539 C   0  0  0  0  0  0  0  0  0  0  0  0
   74.4087   44.8365   -1.7309 C   0  0  0  0  0  0  0  0  0  0  0  0
   72.2357   46.1460    8.0093 H   0  0  0  0  0  0  0  0  0  0  0  0
   69.9126   49.2962    6.2819 H   0  0  0  0  0  0  0  0  0  0  0  0
   70.4671   44.1729    9.5554 H   0  0  0  0  0  0  0  0  0  0  0  0
   72.0859   43.6107    8.9654 H   0  0  0  0  0  0  0  0  0  0  0  0
   73.1800   45.5931    9.9917 H   0  0  0  0  0  0  0  0  0  0  0  0
   73.1580   47.6924   11.2947 H   0  0  0  0  0  0  0  0  0  0  0  0
   72.3936   46.7211   12.5425 H   0  0  0  0  0  0  0  0  0  0  0  0
   71.6739   48.2604   12.0603 H   0  0  0  0  0  0  0  0  0  0  0  0
   72.9506   42.2799   11.7004 H   0  0  0  0  0  0  0  0  0  0  0  0
   73.8912   43.2713   10.5774 H   0  0  0  0  0  0  0  0  0  0  0  0
   73.9142   44.9669    3.5446 H   0  0  0  0  0  0  0  0  0  0  0  0
   69.8872   46.4749    1.3138 H   0  0  0  0  0  0  0  0  0  0  0  0
   71.5363   43.4861   -1.4777 H   0  0  0  0  0  0  0  0  0  0  0  0
   72.3705   43.1135    0.0428 H   0  0  0  0  0  0  0  0  0  0  0  0
   75.3186   45.2553   -2.0872 H   0  0  0  0  0  0  0  0  0  0  0  0
  1  2  2  0
  2  3  1  0
  2 39  1  0
  3 25  1  0
  3  4  2  0
  4  5  1  0
  4 40  1  0
  5  6  2  0
  6  7  1  0
  6  1  1  0
  8 19  1  6
  8  9  1  0
  9 10  1  0
  9 41  1  0
  9 42  1  0
 10 11  1  0
 10  8  1  0
 10 43  1  6
 11 12  1  1
 11  1  1  0
 11 13  1  0
 12 44  1  0
 12 45  1  0
 12 46  1  0
 13 14  2  0
 14 15  1  0
 14 16  1  0
 15 17  1  0
 15 18  1  0
 16  8  1  0
 19 47  1  0
 19 48  1  0
 20 21  1  0
 21 22  1  0
 21 23  1  0
 21 24  1  0
 24 19  1  0
 25 26  1  0
 25 28  1  0
 26 27  2  0
 26 29  1  0
 29 30  2  0
 30 31  1  0
 30 49  1  0
 31 32  2  0
 32 35  1  0
 32 33  1  0
 33 34  2  0
 33 50  1  0
 34 29  1  0
 35 36  1  0
 36 37  1  0
 36 51  1  0
 36 52  1  0
 37 38  3  0
 38 53  1  0
M  ISO  3  20   2  22   2  23   2
M  END
>  <minimizedAffinity>  (1) 
-7.70420

>  <mol_id>  (1) 
9611

>  <source_index>  (1) 
0

>  <layer>  (1) 
L2

>  <uniprot>  (1) 
P56817

>  <paff>  (1) 
9.2410999999999994

>  <smiles>  (1) 
[2H]C([2H])([2H])OC[C@]12C[C@H]1[C@@](C)(c1cc(NC(=O)c3cnc(OCC#C)cn3)cnc1F)N=C(N)S2

>  <aimnet_interaction_kcal_mol>  (1) 
-56.832523875370534

$$$$
L2:P56817:13349
     RDKit          3D

 59 63  0  0  0  0  0  0  0  0999 V2000
   69.9263   47.8254    9.4952 C   0  0  0  0  0  0  0  0  0  0  0  0
   68.6433   48.0209    9.9985 C   0  0  0  0  0  0  0  0  0  0  0  0
   67.8436   49.0613    9.5342 C   0  0  0  0  0  0  0  0  0  0  0  0
   68.3719   50.0108    8.6551 C   0  0  0  0  0  0  0  0  0  0  0  0
   69.6767   49.8801    8.2573 C   0  0  0  0  0  0  0  0  0  0  0  0
   70.2407   50.8178    7.4731 F   0  0  0  0  0  0  0  0  0  0  0  0
   70.4489   48.7884    8.6347 C   0  0  0  0  0  0  0  0  0  0  0  0
   71.6907   48.7132    8.1115 F   0  0  0  0  0  0  0  0  0  0  0  0
   70.7035   44.8095   11.8035 C   0  0  1  0  0  0  0  0  0  0  0  0
   70.0247   46.0525   12.2888 C   0  0  0  0  0  0  0  0  0  0  0  0
   69.9998   45.7111   10.8323 C   0  0  1  0  0  0  0  0  0  0  0  0
   70.7331   46.5711    9.8208 C   0  0  1  0  0  0  0  0  0  0  0  0
   70.8897   45.7433    8.5343 C   0  0  0  0  0  0  0  0  0  0  0  0
   72.0427   47.0002   10.2555 N   0  0  0  0  0  0  0  0  0  0  0  0
   72.8687   46.2683   10.8653 C   0  0  0  0  0  0  0  0  0  0  0  0
   74.2118   46.5295   10.9102 N   0  0  0  0  0  0  0  0  0  0  0  0
   72.5120   44.7289   11.7685 S   0  0  0  0  0  0  0  0  0  0  0  0
   74.4388   47.4065   10.4601 H   0  0  0  0  0  0  0  0  0  0  0  0
   74.6601   46.4614   11.8137 H   0  0  0  0  0  0  0  0  0  0  0  0
   70.0600   43.5120   12.2324 C   0  0  0  0  0  0  0  0  0  0  0  0
   70.4883   42.3514   10.2065 C   0  0  0  0  0  0  0  0  0  0  0  0
   70.4966   42.3180   11.6211 O   0  0  0  0  0  0  0  0  0  0  0  0
   66.4995   49.2227    9.8780 N   0  0  0  0  0  0  0  0  0  0  0  0
   65.7245   48.5787   10.7848 C   0  0  0  0  0  0  0  0  0  0  0  0
   66.0440   47.6001   11.4550 O   0  0  0  0  0  0  0  0  0  0  0  0
   66.0300   49.9773    9.3938 H   0  0  0  0  0  0  0  0  0  0  0  0
   64.3805   49.2288   10.9295 C   0  0  0  0  0  0  0  0  0  0  0  0
   63.2653   48.5277   11.3690 C   0  0  0  0  0  0  0  0  0  0  0  0
   62.0770   49.1140   11.5047 N   0  0  0  0  0  0  0  0  0  0  0  0
   62.0004   50.4189   11.2430 C   0  0  0  0  0  0  0  0  0  0  0  0
   63.1271   51.1338   10.8147 C   0  0  0  0  0  0  0  0  0  0  0  0
   64.2847   50.5274   10.6502 N   0  0  0  0  0  0  0  0  0  0  0  0
   60.7982   50.9662   11.4501 O   0  0  0  0  0  0  0  0  0  0  0  0
   60.5805   52.3298   11.0255 C   0  0  0  0  0  0  0  0  0  0  0  0
   59.1244   52.6416   11.1239 C   0  0  1  0  0  0  0  0  0  0  0  0
   58.5675   53.8085   10.3027 C   0  0  0  0  0  0  0  0  0  0  0  0
   58.2242   52.4221    9.9707 C   0  0  0  0  0  0  0  0  0  0  0  0
   58.6727   51.8718    8.8202 F   0  0  0  0  0  0  0  0  0  0  0  0
   56.9613   51.9792   10.2050 F   0  0  0  0  0  0  0  0  0  0  0  0
   68.2515   47.3647   10.7541 H   0  0  0  0  0  0  0  0  0  0  0  0
   67.7667   50.8017    8.2278 H   0  0  0  0  0  0  0  0  0  0  0  0
   70.6157   46.8929   12.6357 H   0  0  0  0  0  0  0  0  0  0  0  0
   69.1065   45.9158   12.8411 H   0  0  0  0  0  0  0  0  0  0  0  0
   69.0543   45.3367   10.4613 H   0  0  0  0  0  0  0  0  0  0  0  0
   69.9149   45.4666    8.1343 H   0  0  0  0  0  0  0  0  0  0  0  0
   71.4663   44.8437    8.7402 H   0  0  0  0  0  0  0  0  0  0  0  0
   71.4115   46.3097    7.7715 H   0  0  0  0  0  0  0  0  0  0  0  0
   70.2338   43.3590   13.2962 H   0  0  0  0  0  0  0  0  0  0  0  0
   68.9795   43.6266   12.0833 H   0  0  0  0  0  0  0  0  0  0  0  0
   70.5297   41.3172    9.8730 H   0  0  0  0  0  0  0  0  0  0  0  0
   71.3619   42.8746    9.8148 H   0  0  0  0  0  0  0  0  0  0  0  0
   69.5828   42.8158    9.8033 H   0  0  0  0  0  0  0  0  0  0  0  0
   63.3384   47.4744   11.6083 H   0  0  0  0  0  0  0  0  0  0  0  0
   63.0972   52.1937   10.6127 H   0  0  0  0  0  0  0  0  0  0  0  0
   60.9063   52.4520    9.9908 H   0  0  0  0  0  0  0  0  0  0  0  0
   61.1675   52.9927   11.6671 H   0  0  0  0  0  0  0  0  0  0  0  0
   58.6888   52.4781   12.1039 H   0  0  0  0  0  0  0  0  0  0  0  0
   59.2437   54.3171    9.6301 H   0  0  0  0  0  0  0  0  0  0  0  0
   57.8130   54.4327   10.7577 H   0  0  0  0  0  0  0  0  0  0  0  0
  1  2  2  0
  2  3  1  0
  2 40  1  0
  3 23  1  0
  3  4  2  0
  4  5  1  0
  4 41  1  0
  5  6  1  0
  5  7  2  0
  7  8  1  0
  7  1  1  0
  9 20  1  1
  9 10  1  0
 10 11  1  0
 10 42  1  0
 10 43  1  0
 11 12  1  0
 11  9  1  0
 11 44  1  6
 12 13  1  6
 12  1  1  0
 12 14  1  0
 13 45  1  0
 13 46  1  0
 13 47  1  0
 14 15  2  0
 15 16  1  0
 15 17  1  0
 16 18  1  0
 16 19  1  0
 17  9  1  0
 20 48  1  0
 20 49  1  0
 21 22  1  0
 21 50  1  0
 21 51  1  0
 21 52  1  0
 22 20  1  0
 23 24  1  0
 23 26  1  0
 24 25  2  0
 24 27  1  0
 27 28  2  0
 28 29  1  0
 28 53  1  0
 29 30  2  0
 30 33  1  0
 30 31  1  0
 31 32  2  0
 31 54  1  0
 32 27  1  0
 33 34  1  0
 34 35  1  0
 34 55  1  0
 34 56  1  0
 35 36  1  0
 35 57  1  1
 36 37  1  0
 36 58  1  0
 36 59  1  0
 37 38  1  0
 37 39  1  0
 37 35  1  0
M  END
>  <minimizedAffinity>  (2) 
-7.95742

>  <mol_id>  (2) 
13349

>  <source_index>  (2) 
1

>  <layer>  (2) 
L2

>  <uniprot>  (2) 
P56817

>  <paff>  (2) 
8.5884

>  <smiles>  (2) 
COC[C@]12C[C@H]1[C@@](C)(c1cc(NC(=O)c3cnc(OCC4CC4(F)F)cn3)cc(F)c1F)N=C(N)S2

>  <aimnet_interaction_kcal_mol>  (2) 
-55.944260293593182

$$$$
L2:P56817:17219
     RDKit          3D

 50 54  0  0  0  0  0  0  0  0999 V2000
   69.5578   47.7327    9.4976 C   0  0  0  0  0  0  0  0  0  0  0  0
   70.3339   48.1977    8.4327 C   0  0  0  0  0  0  0  0  0  0  0  0
   71.7130   48.3651    8.5434 C   0  0  0  0  0  0  0  0  0  0  0  0
   72.3071   48.2535    9.7969 C   0  0  0  0  0  0  0  0  0  0  0  0
   71.5447   47.8256   10.8649 C   0  0  0  0  0  0  0  0  0  0  0  0
   72.0905   47.7067   12.1041 F   0  0  0  0  0  0  0  0  0  0  0  0
   70.2105   47.4882   10.6973 C   0  0  0  0  0  0  0  0  0  0  0  0
   69.6058   46.8385   11.7366 F   0  0  0  0  0  0  0  0  0  0  0  0
   67.2248   47.9738   10.4727 C   0  0  0  0  0  0  0  0  0  0  0  0
   68.0702   47.4142    9.3132 C   0  0  1  0  0  0  0  0  0  0  0  0
   67.6371   48.0504    8.0914 N   0  0  0  0  0  0  0  0  0  0  0  0
   66.5391   47.7083    7.5119 C   0  0  0  0  0  0  0  0  0  0  0  0
   65.9426   48.3296    6.5029 N   0  0  0  0  0  0  0  0  0  0  0  0
   65.5308   46.2926    7.9927 S   0  0  0  0  0  0  0  0  0  0  0  0
   66.8416   45.2040    8.6276 C   0  0  1  0  0  0  0  0  0  0  0  0
   68.2202   45.1564    8.0420 C   0  0  0  0  0  0  0  0  0  0  0  0
   67.9802   45.8848    9.3214 C   0  0  1  0  0  0  0  0  0  0  0  0
   65.3068   47.8060    5.9084 H   0  0  0  0  0  0  0  0  0  0  0  0
   66.2069   49.2533    6.1562 H   0  0  0  0  0  0  0  0  0  0  0  0
   66.2447   43.8948    9.0748 C   0  0  0  0  0  0  0  0  0  0  0  0
   65.9905   43.0080    7.9920 O   0  0  0  0  0  0  0  0  0  0  0  0
   65.8832   43.5467    7.1782 H   0  0  0  0  0  0  0  0  0  0  0  0
   72.5552   48.5949    7.3242 C   0  0  0  0  0  0  0  0  0  0  0  0
   73.0245   47.3020    6.7142 C   0  0  0  0  0  0  0  0  0  0  0  0
   73.8104   46.5459    7.4504 N   0  0  0  0  0  0  0  0  0  0  0  0
   74.1920   45.3343    6.9909 C   0  0  0  0  0  0  0  0  0  0  0  0
   73.8177   44.8237    5.7792 C   0  0  0  0  0  0  0  0  0  0  0  0
   72.9723   45.5983    4.9619 C   0  0  0  0  0  0  0  0  0  0  0  0
   72.4550   45.1459    3.7314 C   0  0  0  0  0  0  0  0  0  0  0  0
   71.6437   45.9857    3.0297 C   0  0  0  0  0  0  0  0  0  0  0  0
   70.8515   45.4416    1.5715 Cl  0  0  0  0  0  0  0  0  0  0  0  0
   71.4271   47.2992    3.4868 C   0  0  0  0  0  0  0  0  0  0  0  0
   71.9087   47.7446    4.6198 N   0  0  0  0  0  0  0  0  0  0  0  0
   72.6178   46.8958    5.4003 C   0  0  0  0  0  0  0  0  0  0  0  0
   69.8106   48.4103    7.5110 H   0  0  0  0  0  0  0  0  0  0  0  0
   73.3590   48.4657    9.9351 H   0  0  0  0  0  0  0  0  0  0  0  0
   67.3760   49.0490   10.5633 H   0  0  0  0  0  0  0  0  0  0  0  0
   67.4773   47.5149   11.4243 H   0  0  0  0  0  0  0  0  0  0  0  0
   66.1711   47.7991   10.2646 H   0  0  0  0  0  0  0  0  0  0  0  0
   68.4219   45.7336    7.1487 H   0  0  0  0  0  0  0  0  0  0  0  0
   68.7207   44.1946    8.0770 H   0  0  0  0  0  0  0  0  0  0  0  0
   68.3347   45.4339   10.2362 H   0  0  0  0  0  0  0  0  0  0  0  0
   65.3307   44.0624    9.6542 H   0  0  0  0  0  0  0  0  0  0  0  0
   66.9585   43.3944    9.7380 H   0  0  0  0  0  0  0  0  0  0  0  0
   73.4374   49.1801    7.5845 H   0  0  0  0  0  0  0  0  0  0  0  0
   72.0105   49.1514    6.5677 H   0  0  0  0  0  0  0  0  0  0  0  0
   74.8360   44.7688    7.6553 H   0  0  0  0  0  0  0  0  0  0  0  0
   74.1800   43.8635    5.4461 H   0  0  0  0  0  0  0  0  0  0  0  0
   72.7051   44.1677    3.3543 H   0  0  0  0  0  0  0  0  0  0  0  0
   70.8553   47.9850    2.8820 H   0  0  0  0  0  0  0  0  0  0  0  0
  1  2  2  0
  2  3  1  0
  2 35  1  0
  3 23  1  0
  3  4  2  0
  4  5  1  0
  4 36  1  0
  5  6  1  0
  5  7  2  0
  7  8  1  0
  7  1  1  0
  9 37  1  0
  9 38  1  0
  9 39  1  0
 10  9  1  1
 10  1  1  0
 10 11  1  0
 11 12  2  0
 12 13  1  0
 12 14  1  0
 13 18  1  0
 13 19  1  0
 14 15  1  0
 15 20  1  1
 15 16  1  0
 16 17  1  0
 16 40  1  0
 16 41  1  0
 17 10  1  0
 17 15  1  0
 17 42  1  1
 20 21  1  0
 20 43  1  0
 20 44  1  0
 21 22  1  0
 23 24  1  0
 23 45  1  0
 23 46  1  0
 24 25  2  0
 25 26  1  0
 26 27  2  0
 26 47  1  0
 27 28  1  0
 27 48  1  0
 28 29  2  0
 29 30  1  0
 29 49  1  0
 30 31  1  0
 30 32  2  0
 32 33  1  0
 32 50  1  0
 33 34  2  0
 34 24  1  0
 34 28  1  0
M  END
>  <minimizedAffinity>  (3) 
-8.85277

>  <mol_id>  (3) 
17219

>  <source_index>  (3) 
2

>  <layer>  (3) 
L2

>  <uniprot>  (3) 
P56817

>  <paff>  (3) 
8.8181999999999992

>  <smiles>  (3) 
C[C@]1(c2cc(Cc3nccc4cc(Cl)cnc34)cc(F)c2F)N=C(N)S[C@@]2(CO)C[C@H]21

>  <aimnet_interaction_kcal_mol>  (3) 
-70.130330439537076

$$$$
L2:P56817:37944
     RDKit          3D

 59 63  0  0  0  0  0  0  0  0999 V2000
   71.1044   47.9425    6.8946 C   0  0  0  0  0  0  0  0  0  0  0  0
   72.1318   47.9847    7.8353 C   0  0  0  0  0  0  0  0  0  0  0  0
   71.8864   48.2536    9.1214 N   0  0  0  0  0  0  0  0  0  0  0  0
   70.6710   48.5288    9.4949 C   0  0  0  0  0  0  0  0  0  0  0  0
   70.5196   48.7384   10.8393 F   0  0  0  0  0  0  0  0  0  0  0  0
   69.5687   48.6121    8.6450 C   0  0  0  0  0  0  0  0  0  0  0  0
   69.8263   48.3365    7.3215 C   0  0  0  0  0  0  0  0  0  0  0  0
   68.1705   49.0569    9.0715 C   0  0  1  0  0  0  0  0  0  0  0  0
   68.2784   50.5355    9.4977 C   0  0  0  0  0  0  0  0  0  0  0  0
   67.2903   49.0872    7.9491 N   0  0  0  0  0  0  0  0  0  0  0  0
   66.4724   48.1877    7.5605 C   0  0  0  0  0  0  0  0  0  0  0  0
   65.6799   48.3378    6.5065 N   0  0  0  0  0  0  0  0  0  0  0  0
   66.2784   46.5669    8.3648 S   0  0  0  0  0  0  0  0  0  0  0  0
   66.7174   47.0817   10.0406 C   0  0  1  0  0  0  0  0  0  0  0  0
   68.1311   46.7939   10.4688 C   0  0  0  0  0  0  0  0  0  0  0  0
   67.6917   48.2092   10.2532 C   0  0  1  0  0  0  0  0  0  0  0  0
   65.7581   49.1897    5.9446 H   0  0  0  0  0  0  0  0  0  0  0  0
   65.1763   47.5655    6.0711 H   0  0  0  0  0  0  0  0  0  0  0  0
   65.6303   46.9265   11.0793 C   0  0  1  0  0  0  0  0  0  0  0  0
   64.4583   47.9037   10.9221 C   0  0  0  0  0  0  0  0  0  0  0  0
   63.6505   47.6142    9.8997 F   0  0  0  0  0  0  0  0  0  0  0  0
   63.6969   47.8940   12.0609 F   0  0  0  0  0  0  0  0  0  0  0  0
   64.8922   49.1823   10.7694 F   0  0  0  0  0  0  0  0  0  0  0  0
   65.0417   45.6453   11.1450 O   0  0  0  0  0  0  0  0  0  0  0  0
   65.9608   44.5835   11.2848 C   0  0  0  0  0  0  0  0  0  0  0  0
   71.2186   47.5728    5.5604 N   0  0  0  0  0  0  0  0  0  0  0  0
   70.3549   47.6561    5.0200 H   0  0  0  0  0  0  0  0  0  0  0  0
   71.5115   45.4650    1.1468 C   0  0  0  0  0  0  0  0  0  0  0  0
   70.6904   46.4846    1.6821 C   0  0  0  0  0  0  0  0  0  0  0  0
   70.9081   46.9330    2.9050 N   0  0  0  0  0  0  0  0  0  0  0  0
   71.8354   46.3073    3.6508 C   0  0  0  0  0  0  0  0  0  0  0  0
   72.0664   46.6741    5.0274 C   0  0  0  0  0  0  0  0  0  0  0  0
   73.0236   46.1279    5.7686 N   0  0  0  0  0  0  0  0  0  0  0  0
   73.6471   45.0506    5.2525 C   0  0  0  0  0  0  0  0  0  0  0  0
   73.4308   44.5342    4.0020 C   0  0  0  0  0  0  0  0  0  0  0  0
   72.5847   45.2321    3.1256 C   0  0  0  0  0  0  0  0  0  0  0  0
   72.4844   44.8952    1.8063 N   0  0  0  0  0  0  0  0  0  0  0  0
   71.2394   45.1128   -0.1473 O   0  0  0  0  0  0  0  0  0  0  0  0
   71.9701   43.9997   -0.6749 C   0  0  0  0  0  0  0  0  0  0  0  0
   74.3108   44.7658   -1.6530 C   0  0  0  0  0  0  0  0  0  0  0  0
   73.2574   44.4039   -1.1914 C   0  0  0  0  0  0  0  0  0  0  0  0
   73.1588   47.7894    7.5689 H   0  0  0  0  0  0  0  0  0  0  0  0
   69.0183   48.4228    6.6121 H   0  0  0  0  0  0  0  0  0  0  0  0
   68.5339   51.1309    8.6242 H   0  0  0  0  0  0  0  0  0  0  0  0
   69.0231   50.6966   10.2715 H   0  0  0  0  0  0  0  0  0  0  0  0
   67.3039   50.8710    9.8552 H   0  0  0  0  0  0  0  0  0  0  0  0
   68.7891   46.3293    9.7455 H   0  0  0  0  0  0  0  0  0  0  0  0
   68.3304   46.4562   11.4788 H   0  0  0  0  0  0  0  0  0  0  0  0
   67.5381   48.7929   11.1487 H   0  0  0  0  0  0  0  0  0  0  0  0
   66.0848   47.1631   12.0504 H   0  0  0  0  0  0  0  0  0  0  0  0
   65.3645   43.6866   11.4294 H   0  0  0  0  0  0  0  0  0  0  0  0
   66.6171   44.7146   12.1554 H   0  0  0  0  0  0  0  0  0  0  0  0
   66.5710   44.4609   10.3896 H   0  0  0  0  0  0  0  0  0  0  0  0
   69.8942   46.9232    1.0840 H   0  0  0  0  0  0  0  0  0  0  0  0
   74.3811   44.5854    5.9009 H   0  0  0  0  0  0  0  0  0  0  0  0
   73.9566   43.6541    3.6813 H   0  0  0  0  0  0  0  0  0  0  0  0
   72.0796   43.2296    0.0867 H   0  0  0  0  0  0  0  0  0  0  0  0
   71.3661   43.6011   -1.4888 H   0  0  0  0  0  0  0  0  0  0  0  0
   75.2438   45.1280   -2.0126 H   0  0  0  0  0  0  0  0  0  0  0  0
  1  2  2  0
  2  3  1  0
  2 42  1  0
  3  4  2  0
  4  5  1  0
  4  6  1  0
  6  8  1  0
  6  7  2  0
  7  1  1  0
  7 43  1  0
  8  9  1  1
  8 10  1  0
  9 44  1  0
  9 45  1  0
  9 46  1  0
 10 11  2  0
 11 12  1  0
 11 13  1  0
 12 17  1  0
 12 18  1  0
 14 13  1  6
 14 19  1  0
 14 15  1  0
 15 16  1  0
 15 47  1  0
 15 48  1  0
 16  8  1  0
 16 14  1  0
 16 49  1  1
 19 24  1  0
 19 20  1  0
 19 50  1  1
 20 21  1  0
 20 22  1  0
 20 23  1  0
 24 25  1  0
 25 51  1  0
 25 52  1  0
 25 53  1  0
 26  1  1  0
 26 27  1  0
 28 29  2  0
 29 30  1  0
 29 54  1  0
 30 31  2  0
 31 32  1  0
 32 26  1  0
 32 33  2  0
 33 34  1  0
 34 35  2  0
 34 55  1  0
 35 36  1  0
 35 56  1  0
 36 37  2  0
 36 31  1  0
 37 28  1  0
 38 28  1  0
 39 38  1  0
 39 57  1  0
 39 58  1  0
 40 41  3  0
 40 59  1  0
 41 39  1  0
M  END
>  <minimizedAffinity>  (4) 
-8.33501

>  <mol_id>  (4) 
37944

>  <source_index>  (4) 
3

>  <layer>  (4) 
L2

>  <uniprot>  (4) 
P56817

>  <paff>  (4) 
8.8096999999999994

>  <smiles>  (4) 
C#CCOc1cnc2c(Nc3cnc(F)c([C@@]4(C)N=C(N)S[C@@]5([C@H](OC)C(F)(F)F)C[C@H]54)c3)nccc2n1

>  <aimnet_interaction_kcal_mol>  (4) 
-73.744642136263039

$$$$
L2:P56817:46757
     RDKit          3D

 47 50  0  0  0  0  0  0  0  0999 V2000
   71.8247   45.2433   11.8877 N   0  0  0  0  0  0  0  0  0  0  0  0
   72.3009   45.9385   10.8528 N   0  0  0  0  0  0  0  0  0  0  0  0
   71.5576   46.8903   10.3501 C   0  0  0  0  0  0  0  0  0  0  0  0
   70.3426   47.2858   11.0230 C   0  0  0  0  0  0  0  0  0  0  0  0
   69.9573   46.6612   12.1141 N   0  0  0  0  0  0  0  0  0  0  0  0
   70.6906   45.6329   12.6218 C   0  0  0  0  0  0  0  0  0  0  0  0
   70.3994   45.0346   13.6534 O   0  0  0  0  0  0  0  0  0  0  0  0
   72.0156   47.4479    9.0743 C   0  0  0  0  0  0  0  0  0  0  0  0
   73.2914   47.9856    8.9813 C   0  0  0  0  0  0  0  0  0  0  0  0
   73.7510   48.4552    7.7624 C   0  0  0  0  0  0  0  0  0  0  0  0
   72.9357   48.4077    6.6405 C   0  0  0  0  0  0  0  0  0  0  0  0
   71.6571   47.8824    6.7344 C   0  0  0  0  0  0  0  0  0  0  0  0
   71.1981   47.4036    7.9516 C   0  0  0  0  0  0  0  0  0  0  0  0
   69.5059   48.3522   10.4761 C   0  0  0  0  0  0  0  0  0  0  0  0
   68.1172   48.2303   10.4947 C   0  0  0  0  0  0  0  0  0  0  0  0
   67.3391   49.1058    9.7562 C   0  0  0  0  0  0  0  0  0  0  0  0
   67.9281   50.1529    9.0623 C   0  0  0  0  0  0  0  0  0  0  0  0
   69.3015   50.3495    9.1501 C   0  0  0  0  0  0  0  0  0  0  0  0
   70.0809   49.4862    9.8950 C   0  0  0  0  0  0  0  0  0  0  0  0
   72.4860   43.9632   12.1130 C   0  0  0  0  0  0  0  0  0  0  0  0
   74.3863   43.3620   13.4537 O   0  0  0  0  0  0  0  0  0  0  0  0
   73.9617   44.0278   12.5154 C   0  0  0  0  0  0  0  0  0  0  0  0
   74.7103   44.7775   11.6746 N   0  0  0  0  0  0  0  0  0  0  0  0
   74.1968   45.4366   11.0972 H   0  0  0  0  0  0  0  0  0  0  0  0
   76.1061   44.9129   11.6936 C   0  0  0  0  0  0  0  0  0  0  0  0
   76.6730   46.0967   11.2197 C   0  0  0  0  0  0  0  0  0  0  0  0
   78.0481   46.2607   11.1780 C   0  0  0  0  0  0  0  0  0  0  0  0
   78.8455   45.2220   11.6044 C   0  0  0  0  0  0  0  0  0  0  0  0
   80.2069   45.3533   11.5426 F   0  0  0  0  0  0  0  0  0  0  0  0
   78.3154   44.0463   12.0951 C   0  0  0  0  0  0  0  0  0  0  0  0
   76.9382   43.8948   12.1535 C   0  0  0  0  0  0  0  0  0  0  0  0
   73.9198   48.0403    9.8626 H   0  0  0  0  0  0  0  0  0  0  0  0
   74.7472   48.8613    7.7135 H   0  0  0  0  0  0  0  0  0  0  0  0
   73.2896   48.7939    5.6952 H   0  0  0  0  0  0  0  0  0  0  0  0
   71.0107   47.8458    5.8701 H   0  0  0  0  0  0  0  0  0  0  0  0
   70.1933   47.0109    8.0232 H   0  0  0  0  0  0  0  0  0  0  0  0
   67.6562   47.4413   11.0753 H   0  0  0  0  0  0  0  0  0  0  0  0
   66.2680   48.9690    9.6946 H   0  0  0  0  0  0  0  0  0  0  0  0
   67.3370   50.7980    8.4257 H   0  0  0  0  0  0  0  0  0  0  0  0
   69.7589   51.1584    8.5999 H   0  0  0  0  0  0  0  0  0  0  0  0
   71.1405   49.6752   10.0026 H   0  0  0  0  0  0  0  0  0  0  0  0
   71.9249   43.4669   12.8889 H   0  0  0  0  0  0  0  0  0  0  0  0
   72.4084   43.3739   11.1956 H   0  0  0  0  0  0  0  0  0  0  0  0
   76.0443   46.9267   10.9318 H   0  0  0  0  0  0  0  0  0  0  0  0
   78.4869   47.1927   10.8501 H   0  0  0  0  0  0  0  0  0  0  0  0
   78.9765   43.2570   12.4239 H   0  0  0  0  0  0  0  0  0  0  0  0
   76.5049   42.9950   12.5582 H   0  0  0  0  0  0  0  0  0  0  0  0
  1  2  1  0
  2  3  2  0
  3  8  1  0
  3  4  1  0
  4 14  1  0
  4  5  2  0
  5  6  1  0
  6  7  2  0
  6  1  1  0
  8  9  2  0
  9 10  1  0
  9 32  1  0
 10 11  2  0
 10 33  1  0
 11 12  1  0
 11 34  1  0
 12 13  2  0
 12 35  1  0
 13  8  1  0
 13 36  1  0
 14 15  2  0
 15 16  1  0
 15 37  1  0
 16 17  2  0
 16 38  1  0
 17 18  1  0
 17 39  1  0
 18 19  2  0
 18 40  1  0
 19 14  1  0
 19 41  1  0
 20  1  1  0
 20 42  1  0
 20 43  1  0
 21 22  2  0
 22 20  1  0
 22 23  1  0
 23 25  1  0
 23 24  1  0
 25 26  2  0
 26 27  1  0
 26 44  1  0
 27 28  2  0
 27 45  1  0
 28 29  1  0
 28 30  1  0
 30 31  2  0
 30 46  1  0
 31 25  1  0
 31 47  1  0
M  END
>  <minimizedAffinity>  (5) 
-8.05482

>  <mol_id>  (5) 
46757

>  <source_index>  (5) 
4

>  <layer>  (5) 
L2

>  <uniprot>  (5) 
P56817

>  <paff>  (5) 
6.1585999999999999

>  <smiles>  (5) 
O=C(Cn1nc(-c2ccccc2)c(-c2ccccc2)nc1=O)Nc1ccc(F)cc1

>  <aimnet_interaction_kcal_mol>  (5) 
-64.312286023199277

$$$$
L2:P56817:66568
     RDKit          3D

 59 63  0  0  0  0  0  0  0  0999 V2000
   71.5156   49.2486    7.2080 C   0  0  0  0  0  0  0  0  0  0  0  0
   71.6249   50.5540    7.6781 C   0  0  0  0  0  0  0  0  0  0  0  0
   70.6417   51.1241    8.3679 N   0  0  0  0  0  0  0  0  0  0  0  0
   69.5414   50.4722    8.5845 C   0  0  0  0  0  0  0  0  0  0  0  0
   68.6289   51.1626    9.3241 F   0  0  0  0  0  0  0  0  0  0  0  0
   69.2934   49.1689    8.1530 C   0  0  0  0  0  0  0  0  0  0  0  0
   70.2528   48.6547    7.2935 C   0  0  0  0  0  0  0  0  0  0  0  0
   68.1907   48.3053    8.7613 C   0  0  1  0  0  0  0  0  0  0  0  0
   66.8489   49.0496    8.8457 C   0  0  0  0  0  0  0  0  0  0  0  0
   67.8848   47.1386    7.9664 N   0  0  0  0  0  0  0  0  0  0  0  0
   68.5401   46.0600    7.9797 C   0  0  0  0  0  0  0  0  0  0  0  0
   68.1962   44.9276    7.3205 N   0  0  0  0  0  0  0  0  0  0  0  0
   70.0508   45.8041    8.9688 S   0  0  0  0  0  0  0  0  0  0  0  0
   69.5372   46.7434   10.4075 C   0  0  1  0  0  0  0  0  0  0  0  0
   70.1066   48.1131   10.6178 C   0  0  0  0  0  0  0  0  0  0  0  0
   68.6768   47.9643   10.1837 C   0  0  1  0  0  0  0  0  0  0  0  0
   68.9653   44.3740    6.9909 H   0  0  0  0  0  0  0  0  0  0  0  0
   67.4471   45.0219    6.6450 H   0  0  0  0  0  0  0  0  0  0  0  0
   69.2042   45.9110   11.6165 C   0  0  2  0  0  0  0  0  0  0  0  0
   70.4203   45.2053   12.2071 C   0  0  0  0  0  0  0  0  0  0  0  0
   70.1311   44.8164   13.5057 F   0  0  0  0  0  0  0  0  0  0  0  0
   71.4852   46.0239   12.2970 F   0  0  0  0  0  0  0  0  0  0  0  0
   70.8005   44.0955   11.5602 F   0  0  0  0  0  0  0  0  0  0  0  0
   68.2257   44.9206   11.4322 O   0  0  0  0  0  0  0  0  0  0  0  0
   66.9407   45.4158   11.0686 C   0  0  0  0  0  0  0  0  0  0  0  0
   72.6785   48.5759    6.7731 N   0  0  0  0  0  0  0  0  0  0  0  0
   73.4985   48.8915    7.2731 H   0  0  0  0  0  0  0  0  0  0  0  0
   71.1311   45.5628    3.1224 C   0  0  0  0  0  0  0  0  0  0  0  0
   71.2605   46.9692    3.2558 C   0  0  0  0  0  0  0  0  0  0  0  0
   71.7215   47.5142    4.3503 N   0  0  0  0  0  0  0  0  0  0  0  0
   72.0749   46.6873    5.3520 C   0  0  0  0  0  0  0  0  0  0  0  0
   72.6966   47.2154    6.5251 C   0  0  0  0  0  0  0  0  0  0  0  0
   73.3489   46.4486    7.3760 N   0  0  0  0  0  0  0  0  0  0  0  0
   73.2530   45.1075    7.2271 C   0  0  0  0  0  0  0  0  0  0  0  0
   72.5695   44.4826    6.2180 C   0  0  0  0  0  0  0  0  0  0  0  0
   71.9887   45.2824    5.2118 C   0  0  0  0  0  0  0  0  0  0  0  0
   71.4271   44.7394    4.1043 N   0  0  0  0  0  0  0  0  0  0  0  0
   70.6726   44.9601    2.0031 O   0  0  0  0  0  0  0  0  0  0  0  0
   70.5217   45.6942    0.7692 C   0  0  0  0  0  0  0  0  0  0  0  0
   72.3848   44.9218   -0.9487 C   0  0  0  0  0  0  0  0  0  0  0  0
   71.5286   45.2629   -0.1763 C   0  0  0  0  0  0  0  0  0  0  0  0
   72.5056   51.1541    7.4900 H   0  0  0  0  0  0  0  0  0  0  0  0
   70.0530   47.7669    6.7154 H   0  0  0  0  0  0  0  0  0  0  0  0
   66.5811   49.4745    7.8835 H   0  0  0  0  0  0  0  0  0  0  0  0
   66.8718   49.8453    9.5808 H   0  0  0  0  0  0  0  0  0  0  0  0
   66.0816   48.3283    9.1219 H   0  0  0  0  0  0  0  0  0  0  0  0
   70.8496   48.4507    9.9037 H   0  0  0  0  0  0  0  0  0  0  0  0
   70.3104   48.4391   11.6272 H   0  0  0  0  0  0  0  0  0  0  0  0
   67.9130   48.1234   10.9312 H   0  0  0  0  0  0  0  0  0  0  0  0
   68.8793   46.6144   12.3904 H   0  0  0  0  0  0  0  0  0  0  0  0
   66.2591   44.5764   11.1722 H   0  0  0  0  0  0  0  0  0  0  0  0
   66.9210   45.7583   10.0376 H   0  0  0  0  0  0  0  0  0  0  0  0
   66.6131   46.2298   11.7250 H   0  0  0  0  0  0  0  0  0  0  0  0
   70.9541   47.6479    2.4765 H   0  0  0  0  0  0  0  0  0  0  0  0
   73.7532   44.5238    7.9926 H   0  0  0  0  0  0  0  0  0  0  0  0
   72.5065   43.4057    6.1746 H   0  0  0  0  0  0  0  0  0  0  0  0
   69.5247   45.4860    0.3895 H   0  0  0  0  0  0  0  0  0  0  0  0
   70.5845   46.7665    0.9115 H   0  0  0  0  0  0  0  0  0  0  0  0
   73.0497   44.7045   -1.7449 H   0  0  0  0  0  0  0  0  0  0  0  0
  1  2  2  0
  2  3  1  0
  2 42  1  0
  3  4  2  0
  4  5  1  0
  4  6  1  0
  6  8  1  0
  6  7  2  0
  7  1  1  0
  7 43  1  0
  8  9  1  1
  8 10  1  0
  9 44  1  0
  9 45  1  0
  9 46  1  0
 10 11  2  0
 11 12  1  0
 11 13  1  0
 12 17  1  0
 12 18  1  0
 14 13  1  6
 14 19  1  0
 14 15  1  0
 15 16  1  0
 15 47  1  0
 15 48  1  0
 16  8  1  0
 16 14  1  0
 16 49  1  1
 19 24  1  0
 19 20  1  0
 19 50  1  1
 20 21  1  0
 20 22  1  0
 20 23  1  0
 24 25  1  0
 25 51  1  0
 25 52  1  0
 25 53  1  0
 26  1  1  0
 26 27  1  0
 28 29  2  0
 29 30  1  0
 29 54  1  0
 30 31  2  0
 31 32  1  0
 32 26  1  0
 32 33  2  0
 33 34  1  0
 34 35  2  0
 34 55  1  0
 35 36  1  0
 35 56  1  0
 36 37  2  0
 36 31  1  0
 37 28  1  0
 38 28  1  0
 39 38  1  0
 39 57  1  0
 39 58  1  0
 40 41  3  0
 40 59  1  0
 41 39  1  0
M  END
>  <minimizedAffinity>  (6) 
-8.15579

>  <mol_id>  (6) 
66568

>  <source_index>  (6) 
5

>  <layer>  (6) 
L2

>  <uniprot>  (6) 
P56817

>  <paff>  (6) 
8.7958999999999996

>  <smiles>  (6) 
C#CCOc1cnc2c(Nc3cnc(F)c([C@@]4(C)N=C(N)S[C@@]5([C@@H](OC)C(F)(F)F)C[C@H]54)c3)nccc2n1

>  <aimnet_interaction_kcal_mol>  (6) 
-65.917317860568872

$$$$
L2:P56817:67242
     RDKit          3D

 44 47  0  0  0  0  0  0  0  0999 V2000
   70.8959   47.6821    7.9471 C   0  0  0  0  0  0  0  0  0  0  0  0
   70.9204   47.0233    6.7205 C   0  0  0  0  0  0  0  0  0  0  0  0
   72.0515   47.0829    5.9166 C   0  0  0  0  0  0  0  0  0  0  0  0
   73.1127   47.8653    6.3493 C   0  0  0  0  0  0  0  0  0  0  0  0
   73.1520   48.4136    7.5581 N   0  0  0  0  0  0  0  0  0  0  0  0
   72.1066   48.2678    8.3323 C   0  0  0  0  0  0  0  0  0  0  0  0
   72.3061   48.7243    9.5924 F   0  0  0  0  0  0  0  0  0  0  0  0
   69.6167   48.5901    9.9811 C   0  0  0  0  0  0  0  0  0  0  0  0
   69.5463   47.7482    8.6954 C   0  0  1  0  0  0  0  0  0  0  0  0
   68.6075   48.3545    7.7901 N   0  0  0  0  0  0  0  0  0  0  0  0
   67.3435   48.2394    7.9417 C   0  0  0  0  0  0  0  0  0  0  0  0
   66.4130   48.8188    7.1966 N   0  0  0  0  0  0  0  0  0  0  0  0
   66.5371   47.2847    9.2821 S   0  0  0  0  0  0  0  0  0  0  0  0
   67.8030   46.0084    9.5130 C   0  0  1  0  0  0  0  0  0  0  0  0
   68.4161   45.3716    8.3073 C   0  0  0  0  0  0  0  0  0  0  0  0
   69.2233   46.3190    9.1272 C   0  0  1  0  0  0  0  0  0  0  0  0
   65.4881   48.4328    7.1197 H   0  0  0  0  0  0  0  0  0  0  0  0
   66.6231   49.5761    6.5502 H   0  0  0  0  0  0  0  0  0  0  0  0
   67.6285   45.1686   10.7246 C   0  0  0  0  0  0  0  0  0  0  0  0
   66.4188   44.5246   10.7676 F   0  0  0  0  0  0  0  0  0  0  0  0
   67.7226   45.9189   11.8896 F   0  0  0  0  0  0  0  0  0  0  0  0
   72.1636   46.4772    4.6569 N   0  0  0  0  0  0  0  0  0  0  0  0
   71.4535   45.4518    4.1153 C   0  0  0  0  0  0  0  0  0  0  0  0
   70.7739   44.6489    4.7375 O   0  0  0  0  0  0  0  0  0  0  0  0
   72.9086   46.8295    4.0716 H   0  0  0  0  0  0  0  0  0  0  0  0
   71.6431   45.3650    2.6230 C   0  0  0  0  0  0  0  0  0  0  0  0
   70.6161   45.5694    1.7172 C   0  0  0  0  0  0  0  0  0  0  0  0
   70.7709   45.0978    0.4219 C   0  0  0  0  0  0  0  0  0  0  0  0
   71.9738   44.4938    0.1093 C   0  0  0  0  0  0  0  0  0  0  0  0
   72.2474   43.7104   -1.4459 Cl  0  0  0  0  0  0  0  0  0  0  0  0
   73.0066   44.4850    1.0310 C   0  0  0  0  0  0  0  0  0  0  0  0
   72.8707   44.9821    2.2596 N   0  0  0  0  0  0  0  0  0  0  0  0
   70.0325   46.5221    6.3525 H   0  0  0  0  0  0  0  0  0  0  0  0
   73.9435   48.0546    5.6821 H   0  0  0  0  0  0  0  0  0  0  0  0
   69.9311   49.6081    9.7606 H   0  0  0  0  0  0  0  0  0  0  0  0
   70.2937   48.1615   10.7146 H   0  0  0  0  0  0  0  0  0  0  0  0
   68.6230   48.6369   10.4208 H   0  0  0  0  0  0  0  0  0  0  0  0
   68.0452   45.6949    7.3425 H   0  0  0  0  0  0  0  0  0  0  0  0
   68.6373   44.3105    8.3541 H   0  0  0  0  0  0  0  0  0  0  0  0
   69.9987   45.8725    9.7367 H   0  0  0  0  0  0  0  0  0  0  0  0
   68.4030   44.4006   10.7898 H   0  0  0  0  0  0  0  0  0  0  0  0
   69.7230   46.1048    1.9833 H   0  0  0  0  0  0  0  0  0  0  0  0
   69.9907   45.2393   -0.3074 H   0  0  0  0  0  0  0  0  0  0  0  0
   73.9657   44.0634    0.7616 H   0  0  0  0  0  0  0  0  0  0  0  0
  1  2  2  0
  2  3  1  0
  2 33  1  0
  3 22  1  0
  3  4  2  0
  4  5  1  0
  4 34  1  0
  5  6  2  0
  6  7  1  0
  6  1  1  0
  8 35  1  0
  8 36  1  0
  8 37  1  0
  9  8  1  1
  9  1  1  0
  9 10  1  0
 10 11  2  0
 11 12  1  0
 11 13  1  0
 12 17  1  0
 12 18  1  0
 13 14  1  0
 14 19  1  1
 14 15  1  0
 15 16  1  0
 15 38  1  0
 15 39  1  0
 16  9  1  0
 16 14  1  0
 16 40  1  1
 19 20  1  0
 19 21  1  0
 19 41  1  0
 22 23  1  0
 22 25  1  0
 23 24  2  0
 23 26  1  0
 26 27  2  0
 27 28  1  0
 27 42  1  0
 28 29  2  0
 28 43  1  0
 29 30  1  0
 29 31  1  0
 31 32  2  0
 31 44  1  0
 32 26  1  0
M  END
>  <minimizedAffinity>  (7) 
-7.82347

>  <mol_id>  (7) 
67242

>  <source_index>  (7) 
6

>  <layer>  (7) 
L2

>  <uniprot>  (7) 
P56817

>  <paff>  (7) 
8.7958999999999996

>  <smiles>  (7) 
C[C@]1(c2cc(NC(=O)c3ccc(Cl)cn3)cnc2F)N=C(N)S[C@@]2(C(F)F)C[C@@H]12

>  <aimnet_interaction_kcal_mol>  (7) 
-66.382752862267026

$$$$
L2:P56817:84180
     RDKit          3D

 48 52  0  0  0  0  0  0  0  0999 V2000
   72.3216   48.3176    8.4643 C   0  0  0  0  0  0  0  0  0  0  0  0
   72.9353   47.9134    9.6433 C   0  0  0  0  0  0  0  0  0  0  0  0
   72.1277   47.7905   10.7588 C   0  0  0  0  0  0  0  0  0  0  0  0
   72.6432   47.3862   11.9427 F   0  0  0  0  0  0  0  0  0  0  0  0
   70.7633   48.0487   10.7165 C   0  0  0  0  0  0  0  0  0  0  0  0
   70.0374   47.6290   11.7885 F   0  0  0  0  0  0  0  0  0  0  0  0
   70.1927   48.6371    9.5967 C   0  0  0  0  0  0  0  0  0  0  0  0
   71.0182   48.7980    8.4872 C   0  0  0  0  0  0  0  0  0  0  0  0
   68.7336   49.0636    9.4137 C   0  0  1  0  0  0  0  0  0  0  0  0
   68.7184   50.6106    9.2780 C   0  0  0  0  0  0  0  0  0  0  0  0
   68.3298   48.4688    8.1699 N   0  0  0  0  0  0  0  0  0  0  0  0
   67.1194   48.5374    7.7336 C   0  0  0  0  0  0  0  0  0  0  0  0
   66.8091   48.1932    6.4888 N   0  0  0  0  0  0  0  0  0  0  0  0
   65.6853   48.9780    8.7195 S   0  0  0  0  0  0  0  0  0  0  0  0
   66.3737   48.6927   10.3661 C   0  0  1  0  0  0  0  0  0  0  0  0
   67.1121   47.4365   10.7020 C   0  0  0  0  0  0  0  0  0  0  0  0
   67.8569   48.7244   10.6014 C   0  0  1  0  0  0  0  0  0  0  0  0
   66.1431   48.7165    5.9354 H   0  0  0  0  0  0  0  0  0  0  0  0
   67.5421   47.7297    5.9726 H   0  0  0  0  0  0  0  0  0  0  0  0
   72.9392   48.2142    7.1836 N   0  0  0  0  0  0  0  0  0  0  0  0
   72.5447   48.8566    6.5017 H   0  0  0  0  0  0  0  0  0  0  0  0
   71.7245   46.3329    2.7802 C   0  0  0  0  0  0  0  0  0  0  0  0
   71.5636   47.5640    3.4415 C   0  0  0  0  0  0  0  0  0  0  0  0
   72.0831   47.8194    4.6131 N   0  0  0  0  0  0  0  0  0  0  0  0
   72.7036   46.8124    5.2563 C   0  0  0  0  0  0  0  0  0  0  0  0
   73.1484   46.9997    6.6004 C   0  0  0  0  0  0  0  0  0  0  0  0
   73.7277   46.0168    7.2734 N   0  0  0  0  0  0  0  0  0  0  0  0
   73.8432   44.8395    6.6319 C   0  0  0  0  0  0  0  0  0  0  0  0
   73.4461   44.5178    5.4205 N   0  0  0  0  0  0  0  0  0  0  0  0
   72.8613   45.5258    4.7090 C   0  0  0  0  0  0  0  0  0  0  0  0
   72.3840   45.3011    3.4036 C   0  0  0  0  0  0  0  0  0  0  0  0
   71.2704   45.1084    0.8033 C   0  0  0  0  0  0  0  0  0  0  0  0
   71.2043   46.3241    1.5279 O   0  0  0  0  0  0  0  0  0  0  0  0
   73.9946   47.7153    9.7155 H   0  0  0  0  0  0  0  0  0  0  0  0
   70.5833   49.2162    7.5911 H   0  0  0  0  0  0  0  0  0  0  0  0
   69.3107   50.9427    8.4267 H   0  0  0  0  0  0  0  0  0  0  0  0
   69.1210   51.0837   10.1713 H   0  0  0  0  0  0  0  0  0  0  0  0
   67.6949   50.9409    9.1041 H   0  0  0  0  0  0  0  0  0  0  0  0
   65.7224   49.1392   11.1078 H   0  0  0  0  0  0  0  0  0  0  0  0
   67.2535   46.7031    9.9183 H   0  0  0  0  0  0  0  0  0  0  0  0
   66.9460   46.9998   11.6787 H   0  0  0  0  0  0  0  0  0  0  0  0
   68.1831   49.1728   11.5231 H   0  0  0  0  0  0  0  0  0  0  0  0
   70.9742   48.3257    2.9543 H   0  0  0  0  0  0  0  0  0  0  0  0
   74.3263   44.0535    7.2044 H   0  0  0  0  0  0  0  0  0  0  0  0
   72.5459   44.3443    2.9403 H   0  0  0  0  0  0  0  0  0  0  0  0
   70.8127   45.3050   -0.1599 H   0  0  0  0  0  0  0  0  0  0  0  0
   70.7155   44.3318    1.3186 H   0  0  0  0  0  0  0  0  0  0  0  0
   72.3045   44.7792    0.6662 H   0  0  0  0  0  0  0  0  0  0  0  0
  1  2  2  0
  2  3  1  0
  2 34  1  0
  3  4  1  0
  3  5  2  0
  5  6  1  0
  5  7  1  0
  7  9  1  0
  7  8  2  0
  8  1  1  0
  8 35  1  0
  9 10  1  6
  9 11  1  0
 10 36  1  0
 10 37  1  0
 10 38  1  0
 11 12  2  0
 12 13  1  0
 12 14  1  0
 13 18  1  0
 13 19  1  0
 14 15  1  0
 15 16  1  0
 15 39  1  1
 16 17  1  0
 16 40  1  0
 16 41  1  0
 17  9  1  0
 17 15  1  0
 17 42  1  1
 20  1  1  0
 20 21  1  0
 22 23  2  0
 23 24  1  0
 23 43  1  0
 24 25  2  0
 25 26  1  0
 26 20  1  0
 26 27  2  0
 27 28  1  0
 28 29  2  0
 28 44  1  0
 29 30  1  0
 30 31  2  0
 30 25  1  0
 31 22  1  0
 31 45  1  0
 32 33  1  0
 32 46  1  0
 32 47  1  0
 32 48  1  0
 33 22  1  0
M  END
>  <minimizedAffinity>  (8) 
-8.66795

>  <mol_id>  (8) 
84180

>  <source_index>  (8) 
7

>  <layer>  (8) 
L2

>  <uniprot>  (8) 
P56817

>  <paff>  (8) 
7.4558999999999997

>  <smiles>  (8) 
COc1cnc2c(Nc3cc(F)c(F)c([C@@]4(C)N=C(N)S[C@H]5C[C@H]54)c3)ncnc2c1

>  <aimnet_interaction_kcal_mol>  (8) 
-54.347094322337526

$$$$
L2:P56817:97357
     RDKit          3D

 63 68  0  0  0  0  0  0  0  0999 V2000
   67.5155   48.2672    9.0495 C   0  0  0  0  0  0  0  0  0  0  0  0
   68.5749   47.5464    8.5153 C   0  0  0  0  0  0  0  0  0  0  0  0
   69.8022   48.1605    8.2593 C   0  0  0  0  0  0  0  0  0  0  0  0
   70.0193   49.4796    8.6567 C   0  0  0  0  0  0  0  0  0  0  0  0
   68.9722   50.1824    9.1969 C   0  0  0  0  0  0  0  0  0  0  0  0
   69.1387   51.4893    9.5311 F   0  0  0  0  0  0  0  0  0  0  0  0
   67.7253   49.6006    9.3788 C   0  0  0  0  0  0  0  0  0  0  0  0
   66.7280   50.4033    9.8397 F   0  0  0  0  0  0  0  0  0  0  0  0
   64.6784   46.8887   11.2612 C   0  0  1  0  0  0  0  0  0  0  0  0
   66.1207   46.7123   11.6323 C   0  0  0  0  0  0  0  0  0  0  0  0
   65.7243   47.7750   10.6585 C   0  0  1  0  0  0  0  0  0  0  0  0
   66.1382   47.6200    9.2040 C   0  0  1  0  0  0  0  0  0  0  0  0
   65.1549   48.3428    8.2720 C   0  0  0  0  0  0  0  0  0  0  0  0
   66.2093   46.2294    8.7826 N   0  0  0  0  0  0  0  0  0  0  0  0
   65.2453   45.4324    8.9727 C   0  0  0  0  0  0  0  0  0  0  0  0
   65.1304   44.2208    8.3644 N   0  0  0  0  0  0  0  0  0  0  0  0
   63.8901   45.7040   10.1542 S   0  0  0  0  0  0  0  0  0  0  0  0
   65.5961   44.1794    7.4635 H   0  0  0  0  0  0  0  0  0  0  0  0
   64.1859   43.8810    8.2928 H   0  0  0  0  0  0  0  0  0  0  0  0
   63.7296   47.4281   12.3069 C   0  0  0  0  0  0  0  0  0  0  0  0
   62.7472   49.0268   10.8459 C   0  0  0  0  0  0  0  0  0  0  0  0
   63.3189   48.7647   12.1184 O   0  0  0  0  0  0  0  0  0  0  0  0
   70.8214   47.5625    7.5168 N   0  0  0  0  0  0  0  0  0  0  0  0
   71.4042   48.1936    6.9840 H   0  0  0  0  0  0  0  0  0  0  0  0
   70.8848   46.2872    7.0853 C   0  0  0  0  0  0  0  0  0  0  0  0
   70.3868   45.2958    7.8048 N   0  0  0  0  0  0  0  0  0  0  0  0
   70.3875   44.0717    7.2461 C   0  0  0  0  0  0  0  0  0  0  0  0
   70.8193   43.7749    5.9760 C   0  0  0  0  0  0  0  0  0  0  0  0
   71.3017   44.8310    5.1820 C   0  0  0  0  0  0  0  0  0  0  0  0
   71.5434   44.6903    3.8470 N   0  0  0  0  0  0  0  0  0  0  0  0
   72.1306   45.7028    3.2652 C   0  0  0  0  0  0  0  0  0  0  0  0
   72.5643   46.8611    3.9612 C   0  0  0  0  0  0  0  0  0  0  0  0
   72.2080   47.0572    5.2064 N   0  0  0  0  0  0  0  0  0  0  0  0
   71.4979   46.0765    5.8061 C   0  0  0  0  0  0  0  0  0  0  0  0
   72.4057   45.6695    1.9400 O   0  0  0  0  0  0  0  0  0  0  0  0
   71.4825   45.0099    1.0691 C   0  0  0  0  0  0  0  0  0  0  0  0
   72.2804   44.3504   -0.0065 C   0  0  0  0  0  0  0  0  0  0  0  0
   72.9604   44.9254   -0.9504 N   0  0  0  0  0  0  0  0  0  0  0  0
   73.4350   43.8724   -1.6909 C   0  0  0  0  0  0  0  0  0  0  0  0
   74.1818   44.0275   -2.9541 C   0  0  0  0  0  0  0  0  0  0  0  0
   73.1254   42.6902   -1.1988 N   0  0  0  0  0  0  0  0  0  0  0  0
   72.3200   43.0036   -0.0905 O   0  0  0  0  0  0  0  0  0  0  0  0
   68.3946   46.5203    8.2631 H   0  0  0  0  0  0  0  0  0  0  0  0
   70.9727   49.9641    8.5016 H   0  0  0  0  0  0  0  0  0  0  0  0
   66.6404   45.8403   11.2555 H   0  0  0  0  0  0  0  0  0  0  0  0
   66.4290   47.0045   12.6271 H   0  0  0  0  0  0  0  0  0  0  0  0
   65.7088   48.7990   10.9870 H   0  0  0  0  0  0  0  0  0  0  0  0
   65.0411   49.3919    8.5250 H   0  0  0  0  0  0  0  0  0  0  0  0
   64.1796   47.8614    8.3026 H   0  0  0  0  0  0  0  0  0  0  0  0
   65.4999   48.3035    7.2432 H   0  0  0  0  0  0  0  0  0  0  0  0
   62.8488   46.7810   12.3819 H   0  0  0  0  0  0  0  0  0  0  0  0
   64.2262   47.4253   13.2783 H   0  0  0  0  0  0  0  0  0  0  0  0
   62.1450   49.9300   10.9477 H   0  0  0  0  0  0  0  0  0  0  0  0
   62.1093   48.2048   10.4996 H   0  0  0  0  0  0  0  0  0  0  0  0
   63.4977   49.1965   10.0775 H   0  0  0  0  0  0  0  0  0  0  0  0
   69.9958   43.2823    7.8784 H   0  0  0  0  0  0  0  0  0  0  0  0
   70.8129   42.7587    5.6107 H   0  0  0  0  0  0  0  0  0  0  0  0
   73.1912   47.5963    3.4728 H   0  0  0  0  0  0  0  0  0  0  0  0
   70.8088   45.7455    0.6244 H   0  0  0  0  0  0  0  0  0  0  0  0
   70.8961   44.3004    1.6269 H   0  0  0  0  0  0  0  0  0  0  0  0
   73.6046   44.6337   -3.6401 H   0  0  0  0  0  0  0  0  0  0  0  0
   74.3605   43.0548   -3.4058 H   0  0  0  0  0  0  0  0  0  0  0  0
   75.1270   44.5420   -2.7821 H   0  0  0  0  0  0  0  0  0  0  0  0
  1  2  2  0
  2  3  1  0
  2 43  1  0
  3 23  1  0
  3  4  2  0
  4  5  1  0
  4 44  1  0
  5  6  1  0
  5  7  2  0
  7  8  1  0
  7  1  1  0
  9 20  1  1
  9 10  1  0
 10 11  1  0
 10 45  1  0
 10 46  1  0
 11 12  1  0
 11  9  1  0
 11 47  1  1
 12 13  1  6
 12  1  1  0
 12 14  1  0
 13 48  1  0
 13 49  1  0
 13 50  1  0
 14 15  2  0
 15 16  1  0
 15 17  1  0
 16 18  1  0
 16 19  1  0
 17  9  1  0
 20 51  1  0
 20 52  1  0
 21 22  1  0
 21 53  1  0
 21 54  1  0
 21 55  1  0
 22 20  1  0
 23 25  1  0
 23 24  1  0
 25 26  2  0
 26 27  1  0
 27 28  2  0
 27 56  1  0
 28 29  1  0
 28 57  1  0
 29 30  2  0
 30 31  1  0
 31 35  1  0
 31 32  2  0
 32 33  1  0
 32 58  1  0
 33 34  2  0
 34 25  1  0
 34 29  1  0
 35 36  1  0
 36 37  1  0
 36 59  1  0
 36 60  1  0
 37 38  2  0
 38 39  1  0
 39 40  1  0
 39 41  2  0
 40 61  1  0
 40 62  1  0
 40 63  1  0
 41 42  1  0
 42 37  1  0
M  END
>  <minimizedAffinity>  (9) 
-9.05602

>  <mol_id>  (9) 
97357

>  <source_index>  (9) 
8

>  <layer>  (9) 
L2

>  <uniprot>  (9) 
P56817

>  <paff>  (9) 
8.109

>  <smiles>  (9) 
COC[C@]12C[C@H]1[C@@](C)(c1cc(Nc3nccc4nc(OCc5nc(C)no5)cnc34)cc(F)c1F)N=C(N)S2

>  <aimnet_interaction_kcal_mol>  (9) 
-71.211151068960305

$$$$
L2:P56817:107160
     RDKit          3D

 55 59  0  0  0  0  0  0  0  0999 V2000
   70.6384   49.0653    7.5773 C   0  0  0  0  0  0  0  0  0  0  0  0
   70.6317   50.3212    8.1644 C   0  0  0  0  0  0  0  0  0  0  0  0
   69.5418   50.7158    8.9215 C   0  0  0  0  0  0  0  0  0  0  0  0
   68.5053   49.8342    9.1420 C   0  0  0  0  0  0  0  0  0  0  0  0
   67.4121   50.3147    9.8119 F   0  0  0  0  0  0  0  0  0  0  0  0
   68.5373   48.5253    8.6762 C   0  0  0  0  0  0  0  0  0  0  0  0
   69.6320   48.1539    7.9104 C   0  0  0  0  0  0  0  0  0  0  0  0
   67.4311   47.5118    8.9834 C   0  0  1  0  0  0  0  0  0  0  0  0
   67.8029   46.2643    8.3702 N   0  0  0  0  0  0  0  0  0  0  0  0
   67.2588   45.1542    8.6283 C   0  0  0  0  0  0  0  0  0  0  0  0
   67.4336   44.0371    7.8435 N   0  0  0  0  0  0  0  0  0  0  0  0
   66.2499   44.7745   10.0759 S   0  0  0  0  0  0  0  0  0  0  0  0
   66.7774   46.1478   11.1316 C   0  0  1  0  0  0  0  0  0  0  0  0
   68.2283   46.4999   11.2153 C   0  0  0  0  0  0  0  0  0  0  0  0
   67.2902   47.4064   10.4920 C   0  0  1  0  0  0  0  0  0  0  0  0
   66.5625   43.5639    7.6445 H   0  0  0  0  0  0  0  0  0  0  0  0
   67.7893   44.3475    6.9475 H   0  0  0  0  0  0  0  0  0  0  0  0
   65.9119   46.2251   12.3551 C   0  0  0  0  0  0  0  0  0  0  0  0
   66.3687   45.3616   13.4173 O   0  0  0  0  0  0  0  0  0  0  0  0
   66.5729   44.5071   13.0188 H   0  0  0  0  0  0  0  0  0  0  0  0
   66.0684   47.9614    8.3991 C   0  0  0  0  0  0  0  0  0  0  0  0
   66.1472   48.1202    7.0412 F   0  0  0  0  0  0  0  0  0  0  0  0
   71.5568   48.7763    6.5350 N   0  0  0  0  0  0  0  0  0  0  0  0
   71.3315   49.1248    5.6118 H   0  0  0  0  0  0  0  0  0  0  0  0
   72.5495   45.7446    2.7698 C   0  0  0  0  0  0  0  0  0  0  0  0
   71.8026   46.9205    2.9698 C   0  0  0  0  0  0  0  0  0  0  0  0
   71.8320   47.5869    4.1004 N   0  0  0  0  0  0  0  0  0  0  0  0
   72.4753   47.0632    5.1555 C   0  0  0  0  0  0  0  0  0  0  0  0
   72.3368   47.6675    6.4558 C   0  0  0  0  0  0  0  0  0  0  0  0
   72.9421   47.1968    7.5323 N   0  0  0  0  0  0  0  0  0  0  0  0
   73.7251   46.1105    7.3856 C   0  0  0  0  0  0  0  0  0  0  0  0
   73.9115   45.4327    6.2100 C   0  0  0  0  0  0  0  0  0  0  0  0
   73.2430   45.8864    5.0547 C   0  0  0  0  0  0  0  0  0  0  0  0
   73.2775   45.2278    3.8113 C   0  0  0  0  0  0  0  0  0  0  0  0
   72.6786   45.1551    1.5245 O   0  0  0  0  0  0  0  0  0  0  0  0
   71.4826   44.9276    0.7672 C   0  0  0  0  0  0  0  0  0  0  0  0
   72.1736   43.6475   -1.4476 C   0  0  0  0  0  0  0  0  0  0  0  0
   71.8558   44.2068   -0.4312 C   0  0  0  0  0  0  0  0  0  0  0  0
   71.4585   50.9935    7.9982 H   0  0  0  0  0  0  0  0  0  0  0  0
   69.4582   51.7194    9.3038 H   0  0  0  0  0  0  0  0  0  0  0  0
   69.6451   47.1516    7.5177 H   0  0  0  0  0  0  0  0  0  0  0  0
   68.9051   45.9244   10.5989 H   0  0  0  0  0  0  0  0  0  0  0  0
   68.6462   46.7915   12.1630 H   0  0  0  0  0  0  0  0  0  0  0  0
   67.0040   48.3340   10.9596 H   0  0  0  0  0  0  0  0  0  0  0  0
   64.8702   45.9933   12.1261 H   0  0  0  0  0  0  0  0  0  0  0  0
   65.9417   47.2370   12.7530 H   0  0  0  0  0  0  0  0  0  0  0  0
   65.7530   48.9066    8.8425 H   0  0  0  0  0  0  0  0  0  0  0  0
   65.3124   47.2020    8.6174 H   0  0  0  0  0  0  0  0  0  0  0  0
   71.1931   47.3383    2.1771 H   0  0  0  0  0  0  0  0  0  0  0  0
   74.2257   45.7768    8.2883 H   0  0  0  0  0  0  0  0  0  0  0  0
   74.5560   44.5683    6.1669 H   0  0  0  0  0  0  0  0  0  0  0  0
   73.8836   44.3441    3.6882 H   0  0  0  0  0  0  0  0  0  0  0  0
   70.7734   44.3567    1.3617 H   0  0  0  0  0  0  0  0  0  0  0  0
   70.9901   45.8618    0.4978 H   0  0  0  0  0  0  0  0  0  0  0  0
   72.3215   43.2505   -2.4221 H   0  0  0  0  0  0  0  0  0  0  0  0
  1  2  2  0
  2  3  1  0
  2 39  1  0
  3  4  2  0
  3 40  1  0
  4  5  1  0
  4  6  1  0
  6  8  1  0
  6  7  2  0
  7  1  1  0
  7 41  1  0
  8 21  1  6
  8  9  1  0
  9 10  2  0
 10 11  1  0
 10 12  1  0
 11 16  1  0
 11 17  1  0
 12 13  1  0
 13 18  1  1
 13 14  1  0
 14 15  1  0
 14 42  1  0
 14 43  1  0
 15  8  1  0
 15 13  1  0
 15 44  1  1
 18 19  1  0
 18 45  1  0
 18 46  1  0
 19 20  1  0
 21 22  1  0
 21 47  1  0
 21 48  1  0
 23  1  1  0
 23 24  1  0
 25 26  2  0
 26 27  1  0
 26 49  1  0
 27 28  2  0
 28 29  1  0
 29 23  1  0
 29 30  2  0
 30 31  1  0
 31 32  2  0
 31 50  1  0
 32 33  1  0
 32 51  1  0
 33 34  2  0
 33 28  1  0
 34 25  1  0
 34 52  1  0
 35 25  1  0
 36 35  1  0
 36 53  1  0
 36 54  1  0
 37 38  3  0
 37 55  1  0
 38 36  1  0
M  END
>  <minimizedAffinity>  (10) 
-8.61655

>  <mol_id>  (10) 
107160

>  <source_index>  (10) 
9

>  <layer>  (10) 
L2

>  <uniprot>  (10) 
P56817

>  <paff>  (10) 
7.9787999999999997

>  <smiles>  (10) 
C#CCOc1cnc2c(Nc3ccc(F)c([C@@]4(CF)N=C(N)S[C@@]5(CO)C[C@H]54)c3)nccc2c1

>  <aimnet_interaction_kcal_mol>  (10) 
-56.731115532045052

$$$$
