L2:P56817:9611
     RDKit          3D

 53 56  0  0  0  0  0  0  0  0999 V2000
   71.3184   47.5594    9.4820 C   0  0  0  0  0  0  0  0  0  0  0  0
   71.4684   46.9318    8.2281 C   0  0  0  0  0  0  0  0  0  0  0  0
   71.2029   47.6185    7.0434 C   0  0  0  0  0  0  0  0  0  0  0  0
   70.7761   48.9366    7.1593 C   0  0  0  0  0  0  0  0  0  0  0  0
   70.5951   49.5821    8.3295 N   0  0  0  0  0  0  0  0  0  0  0  0
   70.8695   48.8823    9.4560 C   0  0  0  0  0  0  0  0  0  0  0  0
   70.6496   49.5411   10.6044 F   0  0  0  0  0  0  0  0  0  0  0  0
   72.6665   44.5513   11.4554 C   0  0  1  0  0  0  0  0  0  0  0  0
   72.1988   44.3683   10.0227 C   0  0  0  0  0  0  0  0  0  0  0  0
   72.5711   45.7423   10.5339 C   0  0  1  0  0  0  0  0  0  0  0  0
   71.5760   46.8411   10.8153 C   0  0  1  0  0  0  0  0  0  0  0  0
   72.1731   47.7957   11.8835 C   0  0  0  0  0  0  0  0  0  0  0  0
   70.3024   46.3822   11.3704 N   0  0  0  0  0  0  0  0  0  0  0  0
   70.2050   45.3875   12.1707 C   0  0  0  0  0  0  0  0  0  0  0  0
   68.9955   45.0383   12.6607 N   0  0  0  0  0  0  0  0  0  0  0  0
   71.4940   44.3662   12.7461 S   0  0  0  0  0  0  0  0  0  0  0  0
   68.1867   45.5647   12.3652 H   0  0  0  0  0  0  0  0  0  0  0  0
   68.8974   44.2572   13.2899 H   0  0  0  0  0  0  0  0  0  0  0  0
   74.0599   44.0746   11.8205 C   0  0  0  0  0  0  0  0  0  0  0  0
   74.8100   42.2958   13.6182 H   0  0  0  0  0  0  0  0  0  0  0  0
   75.1890   43.3144   13.7457 C   0  0  0  0  0  0  0  0  0  0  0  0
   75.3138   43.5086   14.8143 H   0  0  0  0  0  0  0  0  0  0  0  0
   76.1618   43.4191   13.2555 H   0  0  0  0  0  0  0  0  0  0  0  0
   74.2646   44.2580   13.2244 O   0  0  0  0  0  0  0  0  0  0  0  0
   71.3362   47.0665    5.7561 N   0  0  0  0  0  0  0  0  0  0  0  0
   72.3277   47.3044    4.8230 C   0  0  0  0  0  0  0  0  0  0  0  0
   73.2978   48.0412    4.9428 O   0  0  0  0  0  0  0  0  0  0  0  0
   70.6245   46.4050    5.4477 H   0  0  0  0  0  0  0  0  0  0  0  0
   72.1298   46.5407    3.5576 C   0  0  0  0  0  0  0  0  0  0  0  0
   72.9745   45.4893    3.2305 C   0  0  0  0  0  0  0  0  0  0  0  0
   72.8276   44.7665    2.0890 N   0  0  0  0  0  0  0  0  0  0  0  0
   71.8088   45.1480    1.2864 C   0  0  0  0  0  0  0  0  0  0  0  0
   70.9591   46.1982    1.6202 C   0  0  0  0  0  0  0  0  0  0  0  0
   71.0905   46.9261    2.7595 N   0  0  0  0  0  0  0  0  0  0  0  0
   71.5537   44.4813    0.1097 O   0  0  0  0  0  0  0  0  0  0  0  0
   72.6346   43.6717   -0.3623 C   0  0  0  0  0  0  0  0  0  0  0  0
   73.4676   44.4149   -1.3199 C   0  0  0  0  0  0  0  0  0  0  0  0
   74.1485   45.0231   -2.1005 C   0  0  0  0  0  0  0  0  0  0  0  0
   71.7796   45.9487    8.1863 H   0  0  0  0  0  0  0  0  0  0  0  0
   70.5844   49.4574    6.2892 H   0  0  0  0  0  0  0  0  0  0  0  0
   71.1753   44.1315    9.8193 H   0  0  0  0  0  0  0  0  0  0  0  0
   72.5027   43.7581    9.1980 H   0  0  0  0  0  0  0  0  0  0  0  0
   73.2319   46.5028   10.1736 H   0  0  0  0  0  0  0  0  0  0  0  0
   73.1140   48.1717   11.5398 H   0  0  0  0  0  0  0  0  0  0  0  0
   72.3157   47.2614   12.7995 H   0  0  0  0  0  0  0  0  0  0  0  0
   71.5013   48.6121   12.0477 H   0  0  0  0  0  0  0  0  0  0  0  0
   74.1592   43.0376   11.5764 H   0  0  0  0  0  0  0  0  0  0  0  0
   74.7879   44.6366   11.2737 H   0  0  0  0  0  0  0  0  0  0  0  0
   73.7416   45.2477    3.8772 H   0  0  0  0  0  0  0  0  0  0  0  0
   70.1925   46.4354    0.9712 H   0  0  0  0  0  0  0  0  0  0  0  0
   72.2372   42.8029   -0.8442 H   0  0  0  0  0  0  0  0  0  0  0  0
   73.2416   43.3910    0.4730 H   0  0  0  0  0  0  0  0  0  0  0  0
   74.7120   45.5264   -2.7465 H   0  0  0  0  0  0  0  0  0  0  0  0
  1  2  2  0
  2  3  1  0
  2 39  1  0
  3 25  1  0
  3  4  2  0
  4  5  1  0
  4 40  1  0
  5  6  2  0
  6  7  1  0
  6  1  1  0
  8 19  1  1
  8  9  1  0
  9 10  1  0
  9 41  1  0
  9 42  1  0
 10 11  1  0
 10  8  1  0
 10 43  1  6
 11 12  1  1
 11  1  1  0
 11 13  1  0
 12 44  1  0
 12 45  1  0
 12 46  1  0
 13 14  2  0
 14 15  1  0
 14 16  1  0
 15 17  1  0
 15 18  1  0
 16  8  1  0
 19 47  1  0
 19 48  1  0
 20 21  1  0
 21 22  1  0
 21 23  1  0
 21 24  1  0
 24 19  1  0
 25 26  1  0
 25 28  1  0
 26 27  2  0
 26 29  1  0
 29 30  2  0
 30 31  1  0
 30 49  1  0
 31 32  2  0
 32 35  1  0
 32 33  1  0
 33 34  2  0
 33 50  1  0
 34 29  1  0
 35 36  1  0
 36 37  1  0
 36 51  1  0
 36 52  1  0
 37 38  3  0
 38 53  1  0
M  ISO  3  20   2  22   2  23   2
M  END
>  <minimizedAffinity>  (1) 
-7.70420

>  <mol_id>  (1) 
9611

>  <source_index>  (1) 
0

>  <layer>  (1) 
L2

>  <uniprot>  (1) 
P56817

>  <paff>  (1) 
9.2410999999999994

>  <smiles>  (1) 
[2H]C([2H])([2H])OC[C@]12C[C@H]1[C@@](C)(c1cc(NC(=O)c3cnc(OCC#C)cn3)cnc1F)N=C(N)S2

$$$$
L2:P56817:13349
     RDKit          3D

 59 63  0  0  0  0  0  0  0  0999 V2000
   70.2750   48.0775    9.5392 C   0  0  0  0  0  0  0  0  0  0  0  0
   68.9200   48.2225    9.9196 C   0  0  0  0  0  0  0  0  0  0  0  0
   68.1874   49.3842    9.6334 C   0  0  0  0  0  0  0  0  0  0  0  0
   68.8141   50.4344    8.9634 C   0  0  0  0  0  0  0  0  0  0  0  0
   70.1489   50.3186    8.5986 C   0  0  0  0  0  0  0  0  0  0  0  0
   70.7414   51.3446    7.9703 F   0  0  0  0  0  0  0  0  0  0  0  0
   70.8733   49.1656    8.8833 C   0  0  0  0  0  0  0  0  0  0  0  0
   72.1666   49.1336    8.5272 F   0  0  0  0  0  0  0  0  0  0  0  0
   71.4348   45.3951   12.0407 C   0  0  1  0  0  0  0  0  0  0  0  0
   71.0197   46.7767   12.5244 C   0  0  0  0  0  0  0  0  0  0  0  0
   70.5690   46.2780   11.1727 C   0  0  1  0  0  0  0  0  0  0  0  0
   71.0935   46.8107    9.8627 C   0  0  1  0  0  0  0  0  0  0  0  0
   70.9336   45.7187    8.7730 C   0  0  0  0  0  0  0  0  0  0  0  0
   72.5177   47.1473    9.8676 N   0  0  0  0  0  0  0  0  0  0  0  0
   73.3903   46.5069   10.5503 C   0  0  0  0  0  0  0  0  0  0  0  0
   74.6896   46.8716   10.4865 N   0  0  0  0  0  0  0  0  0  0  0  0
   73.1159   45.1478   11.6066 S   0  0  0  0  0  0  0  0  0  0  0  0
   74.9351   47.6703    9.9201 H   0  0  0  0  0  0  0  0  0  0  0  0
   75.3909   46.3952   11.0309 H   0  0  0  0  0  0  0  0  0  0  0  0
   70.7781   44.1915   12.7005 C   0  0  0  0  0  0  0  0  0  0  0  0
   70.3945   42.2734   11.3456 C   0  0  0  0  0  0  0  0  0  0  0  0
   71.3076   42.9633   12.1864 O   0  0  0  0  0  0  0  0  0  0  0  0
   66.8382   49.5664    9.9863 N   0  0  0  0  0  0  0  0  0  0  0  0
   65.8099   48.6425    9.9601 C   0  0  0  0  0  0  0  0  0  0  0  0
   65.8726   47.4675    9.6220 O   0  0  0  0  0  0  0  0  0  0  0  0
   66.5548   50.4920   10.3049 H   0  0  0  0  0  0  0  0  0  0  0  0
   64.5058   49.2116   10.4072 C   0  0  0  0  0  0  0  0  0  0  0  0
   63.3951   48.3920   10.5548 C   0  0  0  0  0  0  0  0  0  0  0  0
   62.1871   48.8677   10.9584 N   0  0  0  0  0  0  0  0  0  0  0  0
   62.1434   50.1963   11.2100 C   0  0  0  0  0  0  0  0  0  0  0  0
   63.2568   51.0169   11.0594 C   0  0  0  0  0  0  0  0  0  0  0  0
   64.4681   50.5543   10.6557 N   0  0  0  0  0  0  0  0  0  0  0  0
   60.9689   50.7895   11.6166 O   0  0  0  0  0  0  0  0  0  0  0  0
   60.5657   51.8699   10.7744 C   0  0  0  0  0  0  0  0  0  0  0  0
   59.1317   52.1680   11.0659 C   0  0  1  0  0  0  0  0  0  0  0  0
   58.5504   53.5382   10.7776 C   0  0  0  0  0  0  0  0  0  0  0  0
   58.1848   52.3652    9.9444 C   0  0  0  0  0  0  0  0  0  0  0  0
   58.5996   52.2963    8.6357 F   0  0  0  0  0  0  0  0  0  0  0  0
   56.9122   51.8489   10.0048 F   0  0  0  0  0  0  0  0  0  0  0  0
   68.4564   47.4501   10.4230 H   0  0  0  0  0  0  0  0  0  0  0  0
   68.2883   51.2938    8.7397 H   0  0  0  0  0  0  0  0  0  0  0  0
   71.7446   47.5608   12.5915 H   0  0  0  0  0  0  0  0  0  0  0  0
   70.5271   47.1588   13.3940 H   0  0  0  0  0  0  0  0  0  0  0  0
   69.6119   46.2002   10.7007 H   0  0  0  0  0  0  0  0  0  0  0  0
   69.9073   45.4219    8.7134 H   0  0  0  0  0  0  0  0  0  0  0  0
   71.5358   44.8713    9.0262 H   0  0  0  0  0  0  0  0  0  0  0  0
   71.2473   46.1096    7.8276 H   0  0  0  0  0  0  0  0  0  0  0  0
   70.9542   44.2328   13.7551 H   0  0  0  0  0  0  0  0  0  0  0  0
   69.7293   44.2215   12.4907 H   0  0  0  0  0  0  0  0  0  0  0  0
   70.8460   41.3689   10.9951 H   0  0  0  0  0  0  0  0  0  0  0  0
   70.1411   42.8925   10.5105 H   0  0  0  0  0  0  0  0  0  0  0  0
   69.5084   42.0390   11.8977 H   0  0  0  0  0  0  0  0  0  0  0  0
   63.4898   47.3848   10.3507 H   0  0  0  0  0  0  0  0  0  0  0  0
   63.1576   52.0236   11.2639 H   0  0  0  0  0  0  0  0  0  0  0  0
   60.6778   51.5917    9.7473 H   0  0  0  0  0  0  0  0  0  0  0  0
   61.1710   52.7327   10.9591 H   0  0  0  0  0  0  0  0  0  0  0  0
   59.1789   51.5362   11.9281 H   0  0  0  0  0  0  0  0  0  0  0  0
   59.1709   54.3111   10.3745 H   0  0  0  0  0  0  0  0  0  0  0  0
   58.0102   54.2701   11.3410 H   0  0  0  0  0  0  0  0  0  0  0  0
  1  2  2  0
  2  3  1  0
  2 40  1  0
  3 23  1  0
  3  4  2  0
  4  5  1  0
  4 41  1  0
  5  6  1  0
  5  7  2  0
  7  8  1  0
  7  1  1  0
  9 20  1  1
  9 10  1  0
 10 11  1  0
 10 42  1  0
 10 43  1  0
 11 12  1  0
 11  9  1  0
 11 44  1  6
 12 13  1  6
 12  1  1  0
 12 14  1  0
 13 45  1  0
 13 46  1  0
 13 47  1  0
 14 15  2  0
 15 16  1  0
 15 17  1  0
 16 18  1  0
 16 19  1  0
 17  9  1  0
 20 48  1  0
 20 49  1  0
 21 22  1  0
 21 50  1  0
 21 51  1  0
 21 52  1  0
 22 20  1  0
 23 24  1  0
 23 26  1  0
 24 25  2  0
 24 27  1  0
 27 28  2  0
 28 29  1  0
 28 53  1  0
 29 30  2  0
 30 33  1  0
 30 31  1  0
 31 32  2  0
 31 54  1  0
 32 27  1  0
 33 34  1  0
 34 35  1  0
 34 55  1  0
 34 56  1  0
 35 36  1  0
 35 57  1  1
 36 37  1  0
 36 58  1  0
 36 59  1  0
 37 38  1  0
 37 39  1  0
 37 35  1  0
M  END
>  <minimizedAffinity>  (2) 
-7.95742

>  <mol_id>  (2) 
13349

>  <source_index>  (2) 
1

>  <layer>  (2) 
L2

>  <uniprot>  (2) 
P56817

>  <paff>  (2) 
8.5884

>  <smiles>  (2) 
COC[C@]12C[C@H]1[C@@](C)(c1cc(NC(=O)c3cnc(OCC4CC4(F)F)cn3)cc(F)c1F)N=C(N)S2

$$$$
L2:P56817:17219
     RDKit          3D

 50 54  0  0  0  0  0  0  0  0999 V2000
   70.2438   48.6173    8.8485 C   0  0  0  0  0  0  0  0  0  0  0  0
   70.8510   48.5855    7.5747 C   0  0  0  0  0  0  0  0  0  0  0  0
   72.2479   48.5012    7.4138 C   0  0  0  0  0  0  0  0  0  0  0  0
   73.0614   48.4483    8.5492 C   0  0  0  0  0  0  0  0  0  0  0  0
   72.4836   48.5006    9.8101 C   0  0  0  0  0  0  0  0  0  0  0  0
   73.2756   48.4692   10.8919 F   0  0  0  0  0  0  0  0  0  0  0  0
   71.1016   48.5899    9.9621 C   0  0  0  0  0  0  0  0  0  0  0  0
   70.6124   48.6625   11.2100 F   0  0  0  0  0  0  0  0  0  0  0  0
   68.2860   50.1147    9.5574 C   0  0  0  0  0  0  0  0  0  0  0  0
   68.7169   48.7182    9.0358 C   0  0  1  0  0  0  0  0  0  0  0  0
   68.0602   48.5693    7.7373 N   0  0  0  0  0  0  0  0  0  0  0  0
   66.8688   48.1247    7.5970 C   0  0  0  0  0  0  0  0  0  0  0  0
   66.3291   48.0307    6.3624 N   0  0  0  0  0  0  0  0  0  0  0  0
   65.7848   47.6017    8.8577 S   0  0  0  0  0  0  0  0  0  0  0  0
   66.9248   47.1345   10.1102 C   0  0  1  0  0  0  0  0  0  0  0  0
   68.0770   46.2222    9.7232 C   0  0  0  0  0  0  0  0  0  0  0  0
   68.3327   47.6772   10.0579 C   0  0  1  0  0  0  0  0  0  0  0  0
   65.4002   47.6642    6.2264 H   0  0  0  0  0  0  0  0  0  0  0  0
   66.9016   48.2822    5.5698 H   0  0  0  0  0  0  0  0  0  0  0  0
   66.2588   46.9841   11.4675 C   0  0  0  0  0  0  0  0  0  0  0  0
   64.9833   46.3492   11.3837 O   0  0  0  0  0  0  0  0  0  0  0  0
   64.3683   47.0037   11.0131 H   0  0  0  0  0  0  0  0  0  0  0  0
   72.8589   48.4291    6.0303 C   0  0  0  0  0  0  0  0  0  0  0  0
   72.9638   47.0166    5.4961 C   0  0  0  0  0  0  0  0  0  0  0  0
   73.6689   46.1398    6.2748 N   0  0  0  0  0  0  0  0  0  0  0  0
   73.7502   44.8664    5.8521 C   0  0  0  0  0  0  0  0  0  0  0  0
   73.1633   44.4161    4.6864 C   0  0  0  0  0  0  0  0  0  0  0  0
   72.4477   45.3267    3.8984 C   0  0  0  0  0  0  0  0  0  0  0  0
   71.8315   44.9179    2.7052 C   0  0  0  0  0  0  0  0  0  0  0  0
   71.1273   45.8388    1.9431 C   0  0  0  0  0  0  0  0  0  0  0  0
   70.3629   45.3673    0.4821 Cl  0  0  0  0  0  0  0  0  0  0  0  0
   71.0624   47.1424    2.3933 C   0  0  0  0  0  0  0  0  0  0  0  0
   71.6473   47.5741    3.5371 N   0  0  0  0  0  0  0  0  0  0  0  0
   72.3312   46.6769    4.2927 C   0  0  0  0  0  0  0  0  0  0  0  0
   70.2527   48.6253    6.7348 H   0  0  0  0  0  0  0  0  0  0  0  0
   74.0857   48.3708    8.4505 H   0  0  0  0  0  0  0  0  0  0  0  0
   68.5538   50.8617    8.8397 H   0  0  0  0  0  0  0  0  0  0  0  0
   68.7804   50.3173   10.4845 H   0  0  0  0  0  0  0  0  0  0  0  0
   67.2267   50.1280    9.7077 H   0  0  0  0  0  0  0  0  0  0  0  0
   68.1735   45.8795    8.7142 H   0  0  0  0  0  0  0  0  0  0  0  0
   68.4540   45.2851   10.0763 H   0  0  0  0  0  0  0  0  0  0  0  0
   68.9970   48.1715   10.7356 H   0  0  0  0  0  0  0  0  0  0  0  0
   66.1307   47.9560   11.8963 H   0  0  0  0  0  0  0  0  0  0  0  0
   66.8898   46.3669   12.0724 H   0  0  0  0  0  0  0  0  0  0  0  0
   73.8413   48.8511    6.0703 H   0  0  0  0  0  0  0  0  0  0  0  0
   72.2144   48.9711    5.3701 H   0  0  0  0  0  0  0  0  0  0  0  0
   74.2777   44.1916    6.4277 H   0  0  0  0  0  0  0  0  0  0  0  0
   73.2501   43.4281    4.4012 H   0  0  0  0  0  0  0  0  0  0  0  0
   71.9021   43.9358    2.3960 H   0  0  0  0  0  0  0  0  0  0  0  0
   70.5385   47.8273    1.8263 H   0  0  0  0  0  0  0  0  0  0  0  0
  1  2  2  0
  2  3  1  0
  2 35  1  0
  3 23  1  0
  3  4  2  0
  4  5  1  0
  4 36  1  0
  5  6  1  0
  5  7  2  0
  7  8  1  0
  7  1  1  0
  9 37  1  0
  9 38  1  0
  9 39  1  0
 10  9  1  1
 10  1  1  0
 10 11  1  0
 11 12  2  0
 12 13  1  0
 12 14  1  0
 13 18  1  0
 13 19  1  0
 14 15  1  0
 15 20  1  1
 15 16  1  0
 16 17  1  0
 16 40  1  0
 16 41  1  0
 17 10  1  0
 17 15  1  0
 17 42  1  1
 20 21  1  0
 20 43  1  0
 20 44  1  0
 21 22  1  0
 23 24  1  0
 23 45  1  0
 23 46  1  0
 24 25  2  0
 25 26  1  0
 26 27  2  0
 26 47  1  0
 27 28  1  0
 27 48  1  0
 28 29  2  0
 29 30  1  0
 29 49  1  0
 30 31  1  0
 30 32  2  0
 32 33  1  0
 32 50  1  0
 33 34  2  0
 34 24  1  0
 34 28  1  0
M  END
>  <minimizedAffinity>  (3) 
-8.85277

>  <mol_id>  (3) 
17219

>  <source_index>  (3) 
2

>  <layer>  (3) 
L2

>  <uniprot>  (3) 
P56817

>  <paff>  (3) 
8.8181999999999992

>  <smiles>  (3) 
C[C@]1(c2cc(Cc3nccc4cc(Cl)cnc34)cc(F)c2F)N=C(N)S[C@@]2(CO)C[C@H]21

$$$$
L2:P56817:37944
     RDKit          3D

 59 63  0  0  0  0  0  0  0  0999 V2000
   71.6491   48.4988    6.9691 C   0  0  0  0  0  0  0  0  0  0  0  0
   72.5779   48.7200    7.9878 C   0  0  0  0  0  0  0  0  0  0  0  0
   72.2844   49.1144    9.2469 N   0  0  0  0  0  0  0  0  0  0  0  0
   70.9769   49.2986    9.5225 C   0  0  0  0  0  0  0  0  0  0  0  0
   70.6918   49.6814   10.7773 F   0  0  0  0  0  0  0  0  0  0  0  0
   69.9376   49.1048    8.6137 C   0  0  0  0  0  0  0  0  0  0  0  0
   70.3126   48.7055    7.3158 C   0  0  0  0  0  0  0  0  0  0  0  0
   68.4815   49.3430    9.0121 C   0  0  1  0  0  0  0  0  0  0  0  0
   68.3284   50.8586    9.3271 C   0  0  0  0  0  0  0  0  0  0  0  0
   67.5231   49.1456    7.9117 N   0  0  0  0  0  0  0  0  0  0  0  0
   67.0035   48.0113    7.6271 C   0  0  0  0  0  0  0  0  0  0  0  0
   66.1504   47.8870    6.5878 N   0  0  0  0  0  0  0  0  0  0  0  0
   67.3022   46.5198    8.4713 S   0  0  0  0  0  0  0  0  0  0  0  0
   67.3694   47.1974   10.1003 C   0  0  1  0  0  0  0  0  0  0  0  0
   68.7482   47.2803   10.7278 C   0  0  0  0  0  0  0  0  0  0  0  0
   68.0717   48.5470   10.2465 C   0  0  1  0  0  0  0  0  0  0  0  0
   65.9313   48.7102    6.0471 H   0  0  0  0  0  0  0  0  0  0  0  0
   65.7509   46.9934    6.3503 H   0  0  0  0  0  0  0  0  0  0  0  0
   66.0768   46.9785   10.9073 C   0  0  1  0  0  0  0  0  0  0  0  0
   64.9140   47.9024   10.4993 C   0  0  0  0  0  0  0  0  0  0  0  0
   64.2847   47.4337    9.3919 F   0  0  0  0  0  0  0  0  0  0  0  0
   63.9681   47.9672   11.4671 F   0  0  0  0  0  0  0  0  0  0  0  0
   65.3165   49.1629   10.2285 F   0  0  0  0  0  0  0  0  0  0  0  0
   65.7690   45.5656   10.8308 O   0  0  0  0  0  0  0  0  0  0  0  0
   66.0348   44.8479   12.0265 C   0  0  0  0  0  0  0  0  0  0  0  0
   72.0874   48.0819    5.7088 N   0  0  0  0  0  0  0  0  0  0  0  0
   72.0495   48.7738    4.9626 H   0  0  0  0  0  0  0  0  0  0  0  0
   71.6474   45.6550    1.4078 C   0  0  0  0  0  0  0  0  0  0  0  0
   71.1430   46.8443    1.9000 C   0  0  0  0  0  0  0  0  0  0  0  0
   71.4238   47.2941    3.1456 N   0  0  0  0  0  0  0  0  0  0  0  0
   72.2381   46.5047    3.9021 C   0  0  0  0  0  0  0  0  0  0  0  0
   72.6102   46.8587    5.2123 C   0  0  0  0  0  0  0  0  0  0  0  0
   73.4237   46.0908    5.9746 N   0  0  0  0  0  0  0  0  0  0  0  0
   73.8850   44.9436    5.4483 C   0  0  0  0  0  0  0  0  0  0  0  0
   73.5726   44.5125    4.1776 C   0  0  0  0  0  0  0  0  0  0  0  0
   72.7460   45.2892    3.3915 C   0  0  0  0  0  0  0  0  0  0  0  0
   72.4469   44.8600    2.1483 N   0  0  0  0  0  0  0  0  0  0  0  0
   71.2827   45.2925    0.1310 O   0  0  0  0  0  0  0  0  0  0  0  0
   71.9680   44.1475   -0.3831 C   0  0  0  0  0  0  0  0  0  0  0  0
   74.0375   44.8757   -1.9082 C   0  0  0  0  0  0  0  0  0  0  0  0
   73.1070   44.5474   -1.2232 C   0  0  0  0  0  0  0  0  0  0  0  0
   73.5732   48.5696    7.7601 H   0  0  0  0  0  0  0  0  0  0  0  0
   69.5804   48.5621    6.6028 H   0  0  0  0  0  0  0  0  0  0  0  0
   68.6126   51.4316    8.4693 H   0  0  0  0  0  0  0  0  0  0  0  0
   68.9579   51.1166   10.1530 H   0  0  0  0  0  0  0  0  0  0  0  0
   67.3094   51.0701    9.5757 H   0  0  0  0  0  0  0  0  0  0  0  0
   69.5975   46.8963   10.2023 H   0  0  0  0  0  0  0  0  0  0  0  0
   69.1744   46.9595   11.6553 H   0  0  0  0  0  0  0  0  0  0  0  0
   67.8701   49.4904   10.7093 H   0  0  0  0  0  0  0  0  0  0  0  0
   66.2318   47.2616   11.9275 H   0  0  0  0  0  0  0  0  0  0  0  0
   65.7819   43.8175   11.8877 H   0  0  0  0  0  0  0  0  0  0  0  0
   65.4491   45.2546   12.8243 H   0  0  0  0  0  0  0  0  0  0  0  0
   67.0737   44.9307   12.2687 H   0  0  0  0  0  0  0  0  0  0  0  0
   70.5288   47.4111    1.2946 H   0  0  0  0  0  0  0  0  0  0  0  0
   74.5054   44.3550    6.0259 H   0  0  0  0  0  0  0  0  0  0  0  0
   73.9511   43.6219    3.8189 H   0  0  0  0  0  0  0  0  0  0  0  0
   72.3265   43.5580    0.4347 H   0  0  0  0  0  0  0  0  0  0  0  0
   71.2849   43.5821   -0.9820 H   0  0  0  0  0  0  0  0  0  0  0  0
   74.8075   45.1474   -2.4751 H   0  0  0  0  0  0  0  0  0  0  0  0
  1  2  2  0
  2  3  1  0
  2 42  1  0
  3  4  2  0
  4  5  1  0
  4  6  1  0
  6  8  1  0
  6  7  2  0
  7  1  1  0
  7 43  1  0
  8  9  1  1
  8 10  1  0
  9 44  1  0
  9 45  1  0
  9 46  1  0
 10 11  2  0
 11 12  1  0
 11 13  1  0
 12 17  1  0
 12 18  1  0
 14 13  1  6
 14 19  1  0
 14 15  1  0
 15 16  1  0
 15 47  1  0
 15 48  1  0
 16  8  1  0
 16 14  1  0
 16 49  1  1
 19 24  1  0
 19 20  1  0
 19 50  1  1
 20 21  1  0
 20 22  1  0
 20 23  1  0
 24 25  1  0
 25 51  1  0
 25 52  1  0
 25 53  1  0
 26  1  1  0
 26 27  1  0
 28 29  2  0
 29 30  1  0
 29 54  1  0
 30 31  2  0
 31 32  1  0
 32 26  1  0
 32 33  2  0
 33 34  1  0
 34 35  2  0
 34 55  1  0
 35 36  1  0
 35 56  1  0
 36 37  2  0
 36 31  1  0
 37 28  1  0
 38 28  1  0
 39 38  1  0
 39 57  1  0
 39 58  1  0
 40 41  3  0
 40 59  1  0
 41 39  1  0
M  END
>  <minimizedAffinity>  (4) 
-8.33501

>  <mol_id>  (4) 
37944

>  <source_index>  (4) 
3

>  <layer>  (4) 
L2

>  <uniprot>  (4) 
P56817

>  <paff>  (4) 
8.8096999999999994

>  <smiles>  (4) 
C#CCOc1cnc2c(Nc3cnc(F)c([C@@]4(C)N=C(N)S[C@@]5([C@H](OC)C(F)(F)F)C[C@H]54)c3)nccc2n1

$$$$
L2:P56817:46757
     RDKit          3D

 47 50  0  0  0  0  0  0  0  0999 V2000
   71.7590   44.8853   11.6053 N   0  0  0  0  0  0  0  0  0  0  0  0
   72.1098   45.3009   10.3463 N   0  0  0  0  0  0  0  0  0  0  0  0
   71.6016   46.4210    9.9312 C   0  0  0  0  0  0  0  0  0  0  0  0
   70.5833   47.1434   10.7880 C   0  0  0  0  0  0  0  0  0  0  0  0
   70.3555   46.7624   12.0053 N   0  0  0  0  0  0  0  0  0  0  0  0
   70.9532   45.6251   12.4727 C   0  0  0  0  0  0  0  0  0  0  0  0
   70.7417   45.2254   13.6190 O   0  0  0  0  0  0  0  0  0  0  0  0
   72.0738   46.9668    8.6383 C   0  0  0  0  0  0  0  0  0  0  0  0
   73.3036   47.6341    8.5981 C   0  0  0  0  0  0  0  0  0  0  0  0
   73.7665   48.1647    7.3939 C   0  0  0  0  0  0  0  0  0  0  0  0
   72.9974   48.0422    6.2366 C   0  0  0  0  0  0  0  0  0  0  0  0
   71.7596   47.3996    6.2817 C   0  0  0  0  0  0  0  0  0  0  0  0
   71.2902   46.8676    7.4838 C   0  0  0  0  0  0  0  0  0  0  0  0
   69.7922   48.2793   10.2585 C   0  0  0  0  0  0  0  0  0  0  0  0
   68.4072   48.1317   10.1215 C   0  0  0  0  0  0  0  0  0  0  0  0
   67.6433   49.1847    9.6178 C   0  0  0  0  0  0  0  0  0  0  0  0
   68.2623   50.3758    9.2380 C   0  0  0  0  0  0  0  0  0  0  0  0
   69.6464   50.5134    9.3491 C   0  0  0  0  0  0  0  0  0  0  0  0
   70.4164   49.4629    9.8510 C   0  0  0  0  0  0  0  0  0  0  0  0
   72.3599   43.6409   12.0723 C   0  0  0  0  0  0  0  0  0  0  0  0
   74.2525   42.5241   11.0944 O   0  0  0  0  0  0  0  0  0  0  0  0
   73.8224   43.5423   11.6313 C   0  0  0  0  0  0  0  0  0  0  0  0
   74.5466   44.6974   11.8869 N   0  0  0  0  0  0  0  0  0  0  0  0
   74.0495   45.4378   12.3859 H   0  0  0  0  0  0  0  0  0  0  0  0
   75.8968   44.9593   11.5869 C   0  0  0  0  0  0  0  0  0  0  0  0
   76.1518   45.7830   10.4799 C   0  0  0  0  0  0  0  0  0  0  0  0
   77.4628   46.0930   10.1109 C   0  0  0  0  0  0  0  0  0  0  0  0
   78.5195   45.5781   10.8490 C   0  0  0  0  0  0  0  0  0  0  0  0
   79.7775   45.8735   10.4976 F   0  0  0  0  0  0  0  0  0  0  0  0
   78.2874   44.7605   11.9472 C   0  0  0  0  0  0  0  0  0  0  0  0
   76.9746   44.4504   12.3168 C   0  0  0  0  0  0  0  0  0  0  0  0
   73.8665   47.7333    9.4573 H   0  0  0  0  0  0  0  0  0  0  0  0
   74.6778   48.6478    7.3592 H   0  0  0  0  0  0  0  0  0  0  0  0
   73.3448   48.4279    5.3446 H   0  0  0  0  0  0  0  0  0  0  0  0
   71.1903   47.3175    5.4249 H   0  0  0  0  0  0  0  0  0  0  0  0
   70.3693   46.4032    7.5206 H   0  0  0  0  0  0  0  0  0  0  0  0
   67.9521   47.2460   10.3925 H   0  0  0  0  0  0  0  0  0  0  0  0
   66.6205   49.0826    9.5262 H   0  0  0  0  0  0  0  0  0  0  0  0
   67.6950   51.1572    8.8739 H   0  0  0  0  0  0  0  0  0  0  0  0
   70.1015   51.3933    9.0597 H   0  0  0  0  0  0  0  0  0  0  0  0
   71.4415   49.5590    9.9211 H   0  0  0  0  0  0  0  0  0  0  0  0
   72.3131   43.6085   13.1408 H   0  0  0  0  0  0  0  0  0  0  0  0
   71.8190   42.8200   11.6498 H   0  0  0  0  0  0  0  0  0  0  0  0
   75.3634   46.1633    9.9333 H   0  0  0  0  0  0  0  0  0  0  0  0
   77.6443   46.6999    9.2962 H   0  0  0  0  0  0  0  0  0  0  0  0
   79.0807   44.3831   12.4887 H   0  0  0  0  0  0  0  0  0  0  0  0
   76.8009   43.8427   13.1326 H   0  0  0  0  0  0  0  0  0  0  0  0
  1  2  1  0
  2  3  2  0
  3  8  1  0
  3  4  1  0
  4 14  1  0
  4  5  2  0
  5  6  1  0
  6  7  2  0
  6  1  1  0
  8  9  2  0
  9 10  1  0
  9 32  1  0
 10 11  2  0
 10 33  1  0
 11 12  1  0
 11 34  1  0
 12 13  2  0
 12 35  1  0
 13  8  1  0
 13 36  1  0
 14 15  2  0
 15 16  1  0
 15 37  1  0
 16 17  2  0
 16 38  1  0
 17 18  1  0
 17 39  1  0
 18 19  2  0
 18 40  1  0
 19 14  1  0
 19 41  1  0
 20  1  1  0
 20 42  1  0
 20 43  1  0
 21 22  2  0
 22 20  1  0
 22 23  1  0
 23 25  1  0
 23 24  1  0
 25 26  2  0
 26 27  1  0
 26 44  1  0
 27 28  2  0
 27 45  1  0
 28 29  1  0
 28 30  1  0
 30 31  2  0
 30 46  1  0
 31 25  1  0
 31 47  1  0
M  END
>  <minimizedAffinity>  (5) 
-8.05482

>  <mol_id>  (5) 
46757

>  <source_index>  (5) 
4

>  <layer>  (5) 
L2

>  <uniprot>  (5) 
P56817

>  <paff>  (5) 
6.1585999999999999

>  <smiles>  (5) 
O=C(Cn1nc(-c2ccccc2)c(-c2ccccc2)nc1=O)Nc1ccc(F)cc1

$$$$
L2:P56817:66568
     RDKit          3D

 59 63  0  0  0  0  0  0  0  0999 V2000
   71.7506   48.9461    7.1891 C   0  0  0  0  0  0  0  0  0  0  0  0
   71.8080   50.3010    7.5223 C   0  0  0  0  0  0  0  0  0  0  0  0
   70.9681   50.9388    8.3677 N   0  0  0  0  0  0  0  0  0  0  0  0
   70.0047   50.1819    8.9316 C   0  0  0  0  0  0  0  0  0  0  0  0
   69.1768   50.8197    9.7741 F   0  0  0  0  0  0  0  0  0  0  0  0
   69.8312   48.8173    8.7052 C   0  0  0  0  0  0  0  0  0  0  0  0
   70.7309   48.2167    7.8028 C   0  0  0  0  0  0  0  0  0  0  0  0
   68.7043   48.0398    9.3826 C   0  0  1  0  0  0  0  0  0  0  0  0
   67.5428   49.0407    9.6462 C   0  0  0  0  0  0  0  0  0  0  0  0
   68.0671   47.0315    8.5176 N   0  0  0  0  0  0  0  0  0  0  0  0
   68.5043   45.8369    8.3831 C   0  0  0  0  0  0  0  0  0  0  0  0
   67.8997   44.9719    7.5418 N   0  0  0  0  0  0  0  0  0  0  0  0
   69.8691   45.1622    9.2204 S   0  0  0  0  0  0  0  0  0  0  0  0
   69.5916   45.9662   10.7694 C   0  0  1  0  0  0  0  0  0  0  0  0
   70.5528   47.0906   11.0984 C   0  0  0  0  0  0  0  0  0  0  0  0
   69.1269   47.4238   10.7134 C   0  0  1  0  0  0  0  0  0  0  0  0
   68.2760   44.0487    7.3923 H   0  0  0  0  0  0  0  0  0  0  0  0
   67.1169   45.3003    6.9955 H   0  0  0  0  0  0  0  0  0  0  0  0
   69.1785   45.0009   11.8957 C   0  0  2  0  0  0  0  0  0  0  0  0
   70.3584   44.3011   12.5946 C   0  0  0  0  0  0  0  0  0  0  0  0
   69.9801   43.1238   13.1482 F   0  0  0  0  0  0  0  0  0  0  0  0
   70.9136   45.0560   13.5673 F   0  0  0  0  0  0  0  0  0  0  0  0
   71.3408   43.9999   11.7080 F   0  0  0  0  0  0  0  0  0  0  0  0
   68.1985   44.0930   11.3359 O   0  0  0  0  0  0  0  0  0  0  0  0
   66.8526   44.5034   11.5280 C   0  0  0  0  0  0  0  0  0  0  0  0
   72.6873   48.4105    6.3001 N   0  0  0  0  0  0  0  0  0  0  0  0
   73.2507   49.0791    5.7776 H   0  0  0  0  0  0  0  0  0  0  0  0
   71.5353   45.3959    2.5376 C   0  0  0  0  0  0  0  0  0  0  0  0
   71.1767   46.6848    2.8855 C   0  0  0  0  0  0  0  0  0  0  0  0
   71.6455   47.2952    3.9992 N   0  0  0  0  0  0  0  0  0  0  0  0
   72.4995   46.5661    4.7721 C   0  0  0  0  0  0  0  0  0  0  0  0
   73.0614   47.0852    5.9536 C   0  0  0  0  0  0  0  0  0  0  0  0
   73.9146   46.3772    6.7306 N   0  0  0  0  0  0  0  0  0  0  0  0
   74.2284   45.1279    6.3471 C   0  0  0  0  0  0  0  0  0  0  0  0
   73.7267   44.5346    5.2094 C   0  0  0  0  0  0  0  0  0  0  0  0
   72.8571   45.2482    4.4101 C   0  0  0  0  0  0  0  0  0  0  0  0
   72.3716   44.6596    3.2979 N   0  0  0  0  0  0  0  0  0  0  0  0
   70.9850   44.8735    1.3891 O   0  0  0  0  0  0  0  0  0  0  0  0
   71.4691   45.4568    0.1764 C   0  0  0  0  0  0  0  0  0  0  0  0
   72.9127   43.6986   -1.2250 C   0  0  0  0  0  0  0  0  0  0  0  0
   72.2643   44.4886   -0.5940 C   0  0  0  0  0  0  0  0  0  0  0  0
   72.5553   50.8632    7.0859 H   0  0  0  0  0  0  0  0  0  0  0  0
   70.6336   47.2116    7.5900 H   0  0  0  0  0  0  0  0  0  0  0  0
   67.2350   49.4815    8.7211 H   0  0  0  0  0  0  0  0  0  0  0  0
   67.8774   49.8078   10.3130 H   0  0  0  0  0  0  0  0  0  0  0  0
   66.7172   48.5212   10.0859 H   0  0  0  0  0  0  0  0  0  0  0  0
   71.3538   47.3207   10.4273 H   0  0  0  0  0  0  0  0  0  0  0  0
   71.1811   47.3236   11.9326 H   0  0  0  0  0  0  0  0  0  0  0  0
   68.3684   48.0258   11.1686 H   0  0  0  0  0  0  0  0  0  0  0  0
   68.7435   45.5530   12.7024 H   0  0  0  0  0  0  0  0  0  0  0  0
   66.1941   43.7837   11.0883 H   0  0  0  0  0  0  0  0  0  0  0  0
   66.7006   45.4559   11.0647 H   0  0  0  0  0  0  0  0  0  0  0  0
   66.6491   44.5798   12.5757 H   0  0  0  0  0  0  0  0  0  0  0  0
   70.5267   47.2015    2.2727 H   0  0  0  0  0  0  0  0  0  0  0  0
   74.8792   44.5846    6.9356 H   0  0  0  0  0  0  0  0  0  0  0  0
   73.9972   43.5708    4.9586 H   0  0  0  0  0  0  0  0  0  0  0  0
   70.6364   45.7752   -0.4154 H   0  0  0  0  0  0  0  0  0  0  0  0
   72.0933   46.2897    0.4244 H   0  0  0  0  0  0  0  0  0  0  0  0
   73.4493   43.0448   -1.7472 H   0  0  0  0  0  0  0  0  0  0  0  0
  1  2  2  0
  2  3  1  0
  2 42  1  0
  3  4  2  0
  4  5  1  0
  4  6  1  0
  6  8  1  0
  6  7  2  0
  7  1  1  0
  7 43  1  0
  8  9  1  1
  8 10  1  0
  9 44  1  0
  9 45  1  0
  9 46  1  0
 10 11  2  0
 11 12  1  0
 11 13  1  0
 12 17  1  0
 12 18  1  0
 14 13  1  6
 14 19  1  0
 14 15  1  0
 15 16  1  0
 15 47  1  0
 15 48  1  0
 16  8  1  0
 16 14  1  0
 16 49  1  1
 19 24  1  0
 19 20  1  0
 19 50  1  1
 20 21  1  0
 20 22  1  0
 20 23  1  0
 24 25  1  0
 25 51  1  0
 25 52  1  0
 25 53  1  0
 26  1  1  0
 26 27  1  0
 28 29  2  0
 29 30  1  0
 29 54  1  0
 30 31  2  0
 31 32  1  0
 32 26  1  0
 32 33  2  0
 33 34  1  0
 34 35  2  0
 34 55  1  0
 35 36  1  0
 35 56  1  0
 36 37  2  0
 36 31  1  0
 37 28  1  0
 38 28  1  0
 39 38  1  0
 39 57  1  0
 39 58  1  0
 40 41  3  0
 40 59  1  0
 41 39  1  0
M  END
>  <minimizedAffinity>  (6) 
-8.15579

>  <mol_id>  (6) 
66568

>  <source_index>  (6) 
5

>  <layer>  (6) 
L2

>  <uniprot>  (6) 
P56817

>  <paff>  (6) 
8.7958999999999996

>  <smiles>  (6) 
C#CCOc1cnc2c(Nc3cnc(F)c([C@@]4(C)N=C(N)S[C@@]5([C@@H](OC)C(F)(F)F)C[C@H]54)c3)nccc2n1

$$$$
L2:P56817:67242
     RDKit          3D

 44 47  0  0  0  0  0  0  0  0999 V2000
   71.0126   48.2568    7.1821 C   0  0  0  0  0  0  0  0  0  0  0  0
   70.9097   47.6293    5.9238 C   0  0  0  0  0  0  0  0  0  0  0  0
   72.0276   47.4697    5.1050 C   0  0  0  0  0  0  0  0  0  0  0  0
   73.2361   47.9640    5.5822 C   0  0  0  0  0  0  0  0  0  0  0  0
   73.3910   48.5914    6.7661 N   0  0  0  0  0  0  0  0  0  0  0  0
   72.2830   48.7211    7.5332 C   0  0  0  0  0  0  0  0  0  0  0  0
   72.4616   49.3810    8.6881 F   0  0  0  0  0  0  0  0  0  0  0  0
   69.9554   49.7706    8.9539 C   0  0  0  0  0  0  0  0  0  0  0  0
   69.8078   48.4782    8.1080 C   0  0  1  0  0  0  0  0  0  0  0  0
   68.6044   48.6734    7.3024 N   0  0  0  0  0  0  0  0  0  0  0  0
   67.4233   48.4142    7.7219 C   0  0  0  0  0  0  0  0  0  0  0  0
   66.3597   48.6422    6.9221 N   0  0  0  0  0  0  0  0  0  0  0  0
   66.9819   47.7716    9.2781 S   0  0  0  0  0  0  0  0  0  0  0  0
   68.4498   46.9110    9.7149 C   0  0  1  0  0  0  0  0  0  0  0  0
   69.0753   45.9804    8.6893 C   0  0  0  0  0  0  0  0  0  0  0  0
   69.7480   47.2906    9.0388 C   0  0  1  0  0  0  0  0  0  0  0  0
   65.4229   48.4376    7.2341 H   0  0  0  0  0  0  0  0  0  0  0  0
   66.5218   48.9963    5.9908 H   0  0  0  0  0  0  0  0  0  0  0  0
   68.5216   46.5103   11.1719 C   0  0  0  0  0  0  0  0  0  0  0  0
   67.3788   46.8566   11.8203 F   0  0  0  0  0  0  0  0  0  0  0  0
   69.5439   47.1621   11.7864 F   0  0  0  0  0  0  0  0  0  0  0  0
   72.0059   46.8498    3.8429 N   0  0  0  0  0  0  0  0  0  0  0  0
   71.5955   45.5688    3.5262 C   0  0  0  0  0  0  0  0  0  0  0  0
   71.1515   44.7236    4.2930 O   0  0  0  0  0  0  0  0  0  0  0  0
   72.3268   47.3897    3.0399 H   0  0  0  0  0  0  0  0  0  0  0  0
   71.7338   45.2597    2.0637 C   0  0  0  0  0  0  0  0  0  0  0  0
   70.7139   45.5905    1.1774 C   0  0  0  0  0  0  0  0  0  0  0  0
   70.8857   45.2845   -0.1724 C   0  0  0  0  0  0  0  0  0  0  0  0
   72.0606   44.6639   -0.5848 C   0  0  0  0  0  0  0  0  0  0  0  0
   72.3076   44.2722   -2.2365 Cl  0  0  0  0  0  0  0  0  0  0  0  0
   73.0265   44.3699    0.3687 C   0  0  0  0  0  0  0  0  0  0  0  0
   72.8984   44.6512    1.6900 N   0  0  0  0  0  0  0  0  0  0  0  0
   69.9922   47.2823    5.6032 H   0  0  0  0  0  0  0  0  0  0  0  0
   74.0724   47.8425    4.9898 H   0  0  0  0  0  0  0  0  0  0  0  0
   69.9988   50.6194    8.3038 H   0  0  0  0  0  0  0  0  0  0  0  0
   70.8542   49.7178    9.5320 H   0  0  0  0  0  0  0  0  0  0  0  0
   69.1149   49.8659    9.6092 H   0  0  0  0  0  0  0  0  0  0  0  0
   68.6160   45.8530    7.7313 H   0  0  0  0  0  0  0  0  0  0  0  0
   69.3749   44.9532    8.6814 H   0  0  0  0  0  0  0  0  0  0  0  0
   70.7378   47.5493    9.3523 H   0  0  0  0  0  0  0  0  0  0  0  0
   68.6662   45.4507   11.2078 H   0  0  0  0  0  0  0  0  0  0  0  0
   69.8522   46.0506    1.5102 H   0  0  0  0  0  0  0  0  0  0  0  0
   70.1495   45.5158   -0.8576 H   0  0  0  0  0  0  0  0  0  0  0  0
   73.8945   43.9095    0.0532 H   0  0  0  0  0  0  0  0  0  0  0  0
  1  2  2  0
  2  3  1  0
  2 33  1  0
  3 22  1  0
  3  4  2  0
  4  5  1  0
  4 34  1  0
  5  6  2  0
  6  7  1  0
  6  1  1  0
  8 35  1  0
  8 36  1  0
  8 37  1  0
  9  8  1  1
  9  1  1  0
  9 10  1  0
 10 11  2  0
 11 12  1  0
 11 13  1  0
 12 17  1  0
 12 18  1  0
 13 14  1  0
 14 19  1  1
 14 15  1  0
 15 16  1  0
 15 38  1  0
 15 39  1  0
 16  9  1  0
 16 14  1  0
 16 40  1  1
 19 20  1  0
 19 21  1  0
 19 41  1  0
 22 23  1  0
 22 25  1  0
 23 24  2  0
 23 26  1  0
 26 27  2  0
 27 28  1  0
 27 42  1  0
 28 29  2  0
 28 43  1  0
 29 30  1  0
 29 31  1  0
 31 32  2  0
 31 44  1  0
 32 26  1  0
M  END
>  <minimizedAffinity>  (7) 
-7.82347

>  <mol_id>  (7) 
67242

>  <source_index>  (7) 
6

>  <layer>  (7) 
L2

>  <uniprot>  (7) 
P56817

>  <paff>  (7) 
8.7958999999999996

>  <smiles>  (7) 
C[C@]1(c2cc(NC(=O)c3ccc(Cl)cn3)cnc2F)N=C(N)S[C@@]2(C(F)F)C[C@@H]12

$$$$
L2:P56817:84180
     RDKit          3D

 48 52  0  0  0  0  0  0  0  0999 V2000
   72.4194   47.9891    7.6584 C   0  0  0  0  0  0  0  0  0  0  0  0
   73.1797   48.0097    8.8258 C   0  0  0  0  0  0  0  0  0  0  0  0
   72.6033   48.3937   10.0321 C   0  0  0  0  0  0  0  0  0  0  0  0
   73.3541   48.3931   11.1437 F   0  0  0  0  0  0  0  0  0  0  0  0
   71.2660   48.7684   10.1028 C   0  0  0  0  0  0  0  0  0  0  0  0
   70.7592   49.1001   11.2995 F   0  0  0  0  0  0  0  0  0  0  0  0
   70.4587   48.7780    8.9603 C   0  0  0  0  0  0  0  0  0  0  0  0
   71.0641   48.3711    7.7495 C   0  0  0  0  0  0  0  0  0  0  0  0
   68.9707   49.1735    9.0161 C   0  0  1  0  0  0  0  0  0  0  0  0
   68.8295   50.7121    9.0838 C   0  0  0  0  0  0  0  0  0  0  0  0
   68.2980   48.7698    7.7715 N   0  0  0  0  0  0  0  0  0  0  0  0
   67.0466   48.5131    7.6878 C   0  0  0  0  0  0  0  0  0  0  0  0
   66.5007   48.1944    6.4941 N   0  0  0  0  0  0  0  0  0  0  0  0
   65.8889   48.5161    8.9888 S   0  0  0  0  0  0  0  0  0  0  0  0
   66.9282   48.1851   10.3258 C   0  0  1  0  0  0  0  0  0  0  0  0
   67.9560   47.0835   10.2871 C   0  0  0  0  0  0  0  0  0  0  0  0
   68.3825   48.5344   10.2539 C   0  0  1  0  0  0  0  0  0  0  0  0
   65.5138   48.0026    6.4144 H   0  0  0  0  0  0  0  0  0  0  0  0
   67.0897   48.1856    5.6751 H   0  0  0  0  0  0  0  0  0  0  0  0
   72.9160   47.6053    6.4061 N   0  0  0  0  0  0  0  0  0  0  0  0
   73.3818   48.3330    5.8664 H   0  0  0  0  0  0  0  0  0  0  0  0
   71.1932   46.2353    1.9203 C   0  0  0  0  0  0  0  0  0  0  0  0
   71.2098   47.4047    2.6634 C   0  0  0  0  0  0  0  0  0  0  0  0
   71.7588   47.5136    3.8942 N   0  0  0  0  0  0  0  0  0  0  0  0
   72.3277   46.3925    4.4226 C   0  0  0  0  0  0  0  0  0  0  0  0
   72.9286   46.3784    5.6884 C   0  0  0  0  0  0  0  0  0  0  0  0
   73.4931   45.2737    6.2213 N   0  0  0  0  0  0  0  0  0  0  0  0
   73.4591   44.1649    5.4785 C   0  0  0  0  0  0  0  0  0  0  0  0
   72.9179   44.0525    4.2608 N   0  0  0  0  0  0  0  0  0  0  0  0
   72.3626   45.1625    3.7531 C   0  0  0  0  0  0  0  0  0  0  0  0
   71.7828   45.1105    2.4911 C   0  0  0  0  0  0  0  0  0  0  0  0
   71.0102   45.3613   -0.2802 C   0  0  0  0  0  0  0  0  0  0  0  0
   70.5955   46.3095    0.6969 O   0  0  0  0  0  0  0  0  0  0  0  0
   74.1750   47.7388    8.7954 H   0  0  0  0  0  0  0  0  0  0  0  0
   70.4886   48.3526    6.8931 H   0  0  0  0  0  0  0  0  0  0  0  0
   69.2500   51.1480    8.2017 H   0  0  0  0  0  0  0  0  0  0  0  0
   69.3469   51.0802    9.9450 H   0  0  0  0  0  0  0  0  0  0  0  0
   67.7939   50.9726    9.1515 H   0  0  0  0  0  0  0  0  0  0  0  0
   66.1163   48.4214   10.9814 H   0  0  0  0  0  0  0  0  0  0  0  0
   68.0570   46.4745    9.4131 H   0  0  0  0  0  0  0  0  0  0  0  0
   68.1866   46.2377   10.9006 H   0  0  0  0  0  0  0  0  0  0  0  0
   69.0534   49.1320   10.8350 H   0  0  0  0  0  0  0  0  0  0  0  0
   70.7758   48.2455    2.2515 H   0  0  0  0  0  0  0  0  0  0  0  0
   73.8896   43.3175    5.8806 H   0  0  0  0  0  0  0  0  0  0  0  0
   71.7894   44.2214    1.9672 H   0  0  0  0  0  0  0  0  0  0  0  0
   70.4695   45.5257   -1.1888 H   0  0  0  0  0  0  0  0  0  0  0  0
   70.8145   44.3720    0.0773 H   0  0  0  0  0  0  0  0  0  0  0  0
   72.0584   45.4734   -0.4636 H   0  0  0  0  0  0  0  0  0  0  0  0
  1  2  2  0
  2  3  1  0
  2 34  1  0
  3  4  1  0
  3  5  2  0
  5  6  1  0
  5  7  1  0
  7  9  1  0
  7  8  2  0
  8  1  1  0
  8 35  1  0
  9 10  1  1
  9 11  1  0
 10 36  1  0
 10 37  1  0
 10 38  1  0
 11 12  2  0
 12 13  1  0
 12 14  1  0
 13 18  1  0
 13 19  1  0
 14 15  1  0
 15 16  1  0
 15 39  1  1
 16 17  1  0
 16 40  1  0
 16 41  1  0
 17  9  1  0
 17 15  1  0
 17 42  1  1
 20  1  1  0
 20 21  1  0
 22 23  2  0
 23 24  1  0
 23 43  1  0
 24 25  2  0
 25 26  1  0
 26 20  1  0
 26 27  2  0
 27 28  1  0
 28 29  2  0
 28 44  1  0
 29 30  1  0
 30 31  2  0
 30 25  1  0
 31 22  1  0
 31 45  1  0
 32 33  1  0
 32 46  1  0
 32 47  1  0
 32 48  1  0
 33 22  1  0
M  END
>  <minimizedAffinity>  (8) 
-8.66795

>  <mol_id>  (8) 
84180

>  <source_index>  (8) 
7

>  <layer>  (8) 
L2

>  <uniprot>  (8) 
P56817

>  <paff>  (8) 
7.4558999999999997

>  <smiles>  (8) 
COc1cnc2c(Nc3cc(F)c(F)c([C@@]4(C)N=C(N)S[C@H]5C[C@H]54)c3)ncnc2c1

$$$$
L2:P56817:97357
     RDKit          3D

 63 68  0  0  0  0  0  0  0  0999 V2000
   68.4962   48.3375    8.6884 C   0  0  0  0  0  0  0  0  0  0  0  0
   69.6395   47.6902    8.1666 C   0  0  0  0  0  0  0  0  0  0  0  0
   70.8847   48.3380    8.0091 C   0  0  0  0  0  0  0  0  0  0  0  0
   70.9726   49.6786    8.3775 C   0  0  0  0  0  0  0  0  0  0  0  0
   69.8587   50.3425    8.8789 C   0  0  0  0  0  0  0  0  0  0  0  0
   69.9687   51.6367    9.2150 F   0  0  0  0  0  0  0  0  0  0  0  0
   68.6396   49.6904    9.0293 C   0  0  0  0  0  0  0  0  0  0  0  0
   67.6008   50.3995    9.4969 F   0  0  0  0  0  0  0  0  0  0  0  0
   65.7825   46.7522   10.9078 C   0  0  1  0  0  0  0  0  0  0  0  0
   67.2268   46.7971   11.3714 C   0  0  0  0  0  0  0  0  0  0  0  0
   66.7423   47.7426   10.2916 C   0  0  1  0  0  0  0  0  0  0  0  0
   67.1355   47.6301    8.8401 C   0  0  1  0  0  0  0  0  0  0  0  0
   66.0334   48.2947    7.9732 C   0  0  0  0  0  0  0  0  0  0  0  0
   67.2474   46.2607    8.3397 N   0  0  0  0  0  0  0  0  0  0  0  0
   66.5134   45.2975    8.7529 C   0  0  0  0  0  0  0  0  0  0  0  0
   66.6744   44.0613    8.2329 N   0  0  0  0  0  0  0  0  0  0  0  0
   65.2551   45.3734    9.9562 S   0  0  0  0  0  0  0  0  0  0  0  0
   67.4113   43.9195    7.5576 H   0  0  0  0  0  0  0  0  0  0  0  0
   66.1302   43.2817    8.5668 H   0  0  0  0  0  0  0  0  0  0  0  0
   64.6963   47.2612   11.8454 C   0  0  0  0  0  0  0  0  0  0  0  0
   62.9910   48.4050   10.6838 C   0  0  0  0  0  0  0  0  0  0  0  0
   64.1964   48.5362   11.4241 O   0  0  0  0  0  0  0  0  0  0  0  0
   71.9537   47.5997    7.4839 N   0  0  0  0  0  0  0  0  0  0  0  0
   72.8791   48.0127    7.5788 H   0  0  0  0  0  0  0  0  0  0  0  0
   72.0447   46.3481    6.8185 C   0  0  0  0  0  0  0  0  0  0  0  0
   72.2653   45.2069    7.5130 N   0  0  0  0  0  0  0  0  0  0  0  0
   72.3438   44.0539    6.8263 C   0  0  0  0  0  0  0  0  0  0  0  0
   72.2080   43.9763    5.4576 C   0  0  0  0  0  0  0  0  0  0  0  0
   71.9809   45.1335    4.7411 C   0  0  0  0  0  0  0  0  0  0  0  0
   71.8474   45.0472    3.4017 N   0  0  0  0  0  0  0  0  0  0  0  0
   71.6410   46.2001    2.7365 C   0  0  0  0  0  0  0  0  0  0  0  0
   71.5543   47.4153    3.3889 C   0  0  0  0  0  0  0  0  0  0  0  0
   71.6753   47.5277    4.7320 N   0  0  0  0  0  0  0  0  0  0  0  0
   71.8946   46.3699    5.4191 C   0  0  0  0  0  0  0  0  0  0  0  0
   71.5055   46.1961    1.3670 O   0  0  0  0  0  0  0  0  0  0  0  0
   71.0486   44.9515    0.8187 C   0  0  0  0  0  0  0  0  0  0  0  0
   72.0034   44.4647   -0.2090 C   0  0  0  0  0  0  0  0  0  0  0  0
   72.8024   45.1394   -1.0085 N   0  0  0  0  0  0  0  0  0  0  0  0
   73.4345   44.1356   -1.6951 C   0  0  0  0  0  0  0  0  0  0  0  0
   74.4375   44.3988   -2.7430 C   0  0  0  0  0  0  0  0  0  0  0  0
   73.0807   42.8947   -1.3383 N   0  0  0  0  0  0  0  0  0  0  0  0
   72.1268   43.1100   -0.3420 O   0  0  0  0  0  0  0  0  0  0  0  0
   69.5608   46.6996    7.8882 H   0  0  0  0  0  0  0  0  0  0  0  0
   71.8685   50.1811    8.2778 H   0  0  0  0  0  0  0  0  0  0  0  0
   67.8939   45.9980   11.1238 H   0  0  0  0  0  0  0  0  0  0  0  0
   67.7165   46.9121   12.3158 H   0  0  0  0  0  0  0  0  0  0  0  0
   66.7853   48.8045   10.1675 H   0  0  0  0  0  0  0  0  0  0  0  0
   65.8964   49.3086    8.2863 H   0  0  0  0  0  0  0  0  0  0  0  0
   65.1152   47.7580    8.0906 H   0  0  0  0  0  0  0  0  0  0  0  0
   66.3286   48.2758    6.9449 H   0  0  0  0  0  0  0  0  0  0  0  0
   63.8899   46.5581   11.8579 H   0  0  0  0  0  0  0  0  0  0  0  0
   65.1194   47.3717   12.8220 H   0  0  0  0  0  0  0  0  0  0  0  0
   62.6478   49.3739   10.3865 H   0  0  0  0  0  0  0  0  0  0  0  0
   62.2477   47.9347   11.2930 H   0  0  0  0  0  0  0  0  0  0  0  0
   63.1697   47.8076    9.8143 H   0  0  0  0  0  0  0  0  0  0  0  0
   72.5146   43.1821    7.3514 H   0  0  0  0  0  0  0  0  0  0  0  0
   72.2751   43.0664    4.9754 H   0  0  0  0  0  0  0  0  0  0  0  0
   71.3913   48.2683    2.8314 H   0  0  0  0  0  0  0  0  0  0  0  0
   70.0879   45.0942    0.3697 H   0  0  0  0  0  0  0  0  0  0  0  0
   70.9801   44.2275    1.6036 H   0  0  0  0  0  0  0  0  0  0  0  0
   74.5613   45.4550   -2.8609 H   0  0  0  0  0  0  0  0  0  0  0  0
   74.1076   43.9729   -3.6675 H   0  0  0  0  0  0  0  0  0  0  0  0
   75.3715   43.9594   -2.4611 H   0  0  0  0  0  0  0  0  0  0  0  0
  1  2  2  0
  2  3  1  0
  2 43  1  0
  3 23  1  0
  3  4  2  0
  4  5  1  0
  4 44  1  0
  5  6  1  0
  5  7  2  0
  7  8  1  0
  7  1  1  0
  9 20  1  1
  9 10  1  0
 10 11  1  0
 10 45  1  0
 10 46  1  0
 11 12  1  0
 11  9  1  0
 11 47  1  1
 12 13  1  6
 12  1  1  0
 12 14  1  0
 13 48  1  0
 13 49  1  0
 13 50  1  0
 14 15  2  0
 15 16  1  0
 15 17  1  0
 16 18  1  0
 16 19  1  0
 17  9  1  0
 20 51  1  0
 20 52  1  0
 21 22  1  0
 21 53  1  0
 21 54  1  0
 21 55  1  0
 22 20  1  0
 23 25  1  0
 23 24  1  0
 25 26  2  0
 26 27  1  0
 27 28  2  0
 27 56  1  0
 28 29  1  0
 28 57  1  0
 29 30  2  0
 30 31  1  0
 31 35  1  0
 31 32  2  0
 32 33  1  0
 32 58  1  0
 33 34  2  0
 34 25  1  0
 34 29  1  0
 35 36  1  0
 36 37  1  0
 36 59  1  0
 36 60  1  0
 37 38  2  0
 38 39  1  0
 39 40  1  0
 39 41  2  0
 40 61  1  0
 40 62  1  0
 40 63  1  0
 41 42  1  0
 42 37  1  0
M  END
>  <minimizedAffinity>  (9) 
-9.05602

>  <mol_id>  (9) 
97357

>  <source_index>  (9) 
8

>  <layer>  (9) 
L2

>  <uniprot>  (9) 
P56817

>  <paff>  (9) 
8.109

>  <smiles>  (9) 
COC[C@]12C[C@H]1[C@@](C)(c1cc(Nc3nccc4nc(OCc5nc(C)no5)cnc34)cc(F)c1F)N=C(N)S2

$$$$
L2:P56817:107160
     RDKit          3D

 55 59  0  0  0  0  0  0  0  0999 V2000
   70.8394   49.3261    7.7854 C   0  0  0  0  0  0  0  0  0  0  0  0
   70.6166   50.6585    8.1593 C   0  0  0  0  0  0  0  0  0  0  0  0
   69.4305   51.0409    8.7828 C   0  0  0  0  0  0  0  0  0  0  0  0
   68.4441   50.0934    9.0335 C   0  0  0  0  0  0  0  0  0  0  0  0
   67.3417   50.5023    9.6762 F   0  0  0  0  0  0  0  0  0  0  0  0
   68.5979   48.7538    8.6593 C   0  0  0  0  0  0  0  0  0  0  0  0
   69.8243   48.3951    8.0504 C   0  0  0  0  0  0  0  0  0  0  0  0
   67.5148   47.6887    8.9501 C   0  0  1  0  0  0  0  0  0  0  0  0
   67.8414   46.4535    8.2228 N   0  0  0  0  0  0  0  0  0  0  0  0
   67.5238   45.2794    8.6150 C   0  0  0  0  0  0  0  0  0  0  0  0
   67.8406   44.2143    7.8462 N   0  0  0  0  0  0  0  0  0  0  0  0
   66.7079   44.8364   10.0847 S   0  0  0  0  0  0  0  0  0  0  0  0
   67.0598   46.2223   11.0916 C   0  0  1  0  0  0  0  0  0  0  0  0
   68.4934   46.7056   11.2078 C   0  0  0  0  0  0  0  0  0  0  0  0
   67.4690   47.5229   10.4517 C   0  0  1  0  0  0  0  0  0  0  0  0
   67.5784   43.2810    8.1213 H   0  0  0  0  0  0  0  0  0  0  0  0
   68.3150   44.3792    6.9709 H   0  0  0  0  0  0  0  0  0  0  0  0
   66.1928   46.2975   12.3324 C   0  0  0  0  0  0  0  0  0  0  0  0
   66.3822   45.1348   13.1357 O   0  0  0  0  0  0  0  0  0  0  0  0
   66.2762   44.3774   12.5320 H   0  0  0  0  0  0  0  0  0  0  0  0
   66.1279   48.1573    8.4136 C   0  0  0  0  0  0  0  0  0  0  0  0
   66.0708   48.0394    7.0541 F   0  0  0  0  0  0  0  0  0  0  0  0
   72.0683   48.9970    7.2019 N   0  0  0  0  0  0  0  0  0  0  0  0
   72.5915   49.7618    6.7828 H   0  0  0  0  0  0  0  0  0  0  0  0
   72.6301   45.7843    3.3922 C   0  0  0  0  0  0  0  0  0  0  0  0
   71.9645   46.9771    3.6180 C   0  0  0  0  0  0  0  0  0  0  0  0
   71.9896   47.6546    4.7936 N   0  0  0  0  0  0  0  0  0  0  0  0
   72.7207   47.1410    5.8192 C   0  0  0  0  0  0  0  0  0  0  0  0
   72.7997   47.7858    7.0730 C   0  0  0  0  0  0  0  0  0  0  0  0
   73.5308   47.3017    8.1090 N   0  0  0  0  0  0  0  0  0  0  0  0
   74.2075   46.1538    7.9248 C   0  0  0  0  0  0  0  0  0  0  0  0
   74.1950   45.4425    6.7424 C   0  0  0  0  0  0  0  0  0  0  0  0
   73.4419   45.9417    5.6753 C   0  0  0  0  0  0  0  0  0  0  0  0
   73.3844   45.2719    4.4435 C   0  0  0  0  0  0  0  0  0  0  0  0
   72.6498   45.0474    2.2449 O   0  0  0  0  0  0  0  0  0  0  0  0
   71.6116   45.2630    1.2836 C   0  0  0  0  0  0  0  0  0  0  0  0
   72.2250   44.1610   -1.0699 C   0  0  0  0  0  0  0  0  0  0  0  0
   71.9490   44.6581   -0.0118 C   0  0  0  0  0  0  0  0  0  0  0  0
   71.3423   51.3674    7.9699 H   0  0  0  0  0  0  0  0  0  0  0  0
   69.2845   52.0248    9.0578 H   0  0  0  0  0  0  0  0  0  0  0  0
   69.9779   47.4082    7.7908 H   0  0  0  0  0  0  0  0  0  0  0  0
   69.2739   46.2010   10.6776 H   0  0  0  0  0  0  0  0  0  0  0  0
   69.1673   46.8943   12.0172 H   0  0  0  0  0  0  0  0  0  0  0  0
   67.1280   48.5357   10.5056 H   0  0  0  0  0  0  0  0  0  0  0  0
   65.1650   46.3632   12.0421 H   0  0  0  0  0  0  0  0  0  0  0  0
   66.4679   47.1624   12.8991 H   0  0  0  0  0  0  0  0  0  0  0  0
   65.9744   49.1811    8.6840 H   0  0  0  0  0  0  0  0  0  0  0  0
   65.3665   47.5412    8.8444 H   0  0  0  0  0  0  0  0  0  0  0  0
   71.4137   47.3768    2.8422 H   0  0  0  0  0  0  0  0  0  0  0  0
   74.7662   45.7852    8.7103 H   0  0  0  0  0  0  0  0  0  0  0  0
   74.7282   44.5640    6.6481 H   0  0  0  0  0  0  0  0  0  0  0  0
   73.9065   44.3909    4.3160 H   0  0  0  0  0  0  0  0  0  0  0  0
   70.7046   44.8264    1.6464 H   0  0  0  0  0  0  0  0  0  0  0  0
   71.4949   46.3174    1.1436 H   0  0  0  0  0  0  0  0  0  0  0  0
   72.4534   43.7496   -1.9455 H   0  0  0  0  0  0  0  0  0  0  0  0
  1  2  2  0
  2  3  1  0
  2 39  1  0
  3  4  2  0
  3 40  1  0
  4  5  1  0
  4  6  1  0
  6  8  1  0
  6  7  2  0
  7  1  1  0
  7 41  1  0
  8 21  1  6
  8  9  1  0
  9 10  2  0
 10 11  1  0
 10 12  1  0
 11 16  1  0
 11 17  1  0
 12 13  1  0
 13 18  1  1
 13 14  1  0
 14 15  1  0
 14 42  1  0
 14 43  1  0
 15  8  1  0
 15 13  1  0
 15 44  1  1
 18 19  1  0
 18 45  1  0
 18 46  1  0
 19 20  1  0
 21 22  1  0
 21 47  1  0
 21 48  1  0
 23  1  1  0
 23 24  1  0
 25 26  2  0
 26 27  1  0
 26 49  1  0
 27 28  2  0
 28 29  1  0
 29 23  1  0
 29 30  2  0
 30 31  1  0
 31 32  2  0
 31 50  1  0
 32 33  1  0
 32 51  1  0
 33 34  2  0
 33 28  1  0
 34 25  1  0
 34 52  1  0
 35 25  1  0
 36 35  1  0
 36 53  1  0
 36 54  1  0
 37 38  3  0
 37 55  1  0
 38 36  1  0
M  END
>  <minimizedAffinity>  (10) 
-8.61655

>  <mol_id>  (10) 
107160

>  <source_index>  (10) 
9

>  <layer>  (10) 
L2

>  <uniprot>  (10) 
P56817

>  <paff>  (10) 
7.9787999999999997

>  <smiles>  (10) 
C#CCOc1cnc2c(Nc3ccc(F)c([C@@]4(CF)N=C(N)S[C@@]5(CO)C[C@H]54)c3)nccc2c1

$$$$
