L3:Q9Y6M4:6175
     RDKit          3D

 53 57  0  0  0  0  0  0  0  0999 V2000
   36.9482  -14.8942   27.3971 C   0  0  0  0  0  0  0  0  0  0  0  0
   36.5578  -15.7001   26.3323 C   0  0  0  0  0  0  0  0  0  0  0  0
   35.6660  -16.7485   26.5676 C   0  0  0  0  0  0  0  0  0  0  0  0
   35.1938  -16.9615   27.8578 C   0  0  0  0  0  0  0  0  0  0  0  0
   35.6336  -16.1121   28.8531 C   0  0  0  0  0  0  0  0  0  0  0  0
   36.5017  -15.0989   28.6471 N   0  0  0  0  0  0  0  0  0  0  0  0
   35.2407  -17.6176   25.4738 C   0  0  0  0  0  0  0  0  0  0  0  0
   35.1739  -17.1204   24.1911 N   0  0  0  0  0  0  0  0  0  0  0  0
   34.7669  -18.0851   23.3095 C   0  0  0  0  0  0  0  0  0  0  0  0
   34.5627  -18.0426   21.9290 C   0  0  0  0  0  0  0  0  0  0  0  0
   34.1475  -19.2310   21.3388 C   0  0  0  0  0  0  0  0  0  0  0  0
   33.9698  -20.3517   22.1331 C   0  0  0  0  0  0  0  0  0  0  0  0
   34.1606  -20.4064   23.4673 N   0  0  0  0  0  0  0  0  0  0  0  0
   34.5645  -19.2459   24.0497 C   0  0  0  0  0  0  0  0  0  0  0  0
   34.8520  -18.9598   25.4270 C   0  0  0  0  0  0  0  0  0  0  0  0
   35.4081  -16.1706   23.9359 H   0  0  0  0  0  0  0  0  0  0  0  0
   34.7689  -19.8529   26.5890 C   0  0  0  0  0  0  0  0  0  0  0  0
   33.5531  -20.1721   27.1868 C   0  0  0  0  0  0  0  0  0  0  0  0
   33.5328  -21.0249   28.2899 C   0  0  0  0  0  0  0  0  0  0  0  0
   34.7272  -21.5323   28.7797 C   0  0  0  0  0  0  0  0  0  0  0  0
   35.8936  -21.1690   28.1356 C   0  0  0  0  0  0  0  0  0  0  0  0
   35.9369  -20.3496   27.0636 N   0  0  0  0  0  0  0  0  0  0  0  0
   37.5635  -12.4971   27.2548 C   0  0  0  0  0  0  0  0  0  0  0  0
   36.5099  -11.9888   27.6284 O   0  0  0  0  0  0  0  0  0  0  0  0
   37.8347  -13.8468   27.1144 N   0  0  0  0  0  0  0  0  0  0  0  0
   38.7668  -14.1098   26.8368 H   0  0  0  0  0  0  0  0  0  0  0  0
   38.7149  -11.6001   26.8038 C   0  0  0  0  0  0  0  0  0  0  0  0
   38.8818  -12.4711   21.7602 C   0  0  0  0  0  0  0  0  0  0  0  0
   38.9131  -11.8744   23.1177 C   0  0  0  0  0  0  0  0  0  0  0  0
   38.7336  -12.5276   24.3563 C   0  0  0  0  0  0  0  0  0  0  0  0
   38.8384  -11.5345   25.3123 C   0  0  0  0  0  0  0  0  0  0  0  0
   39.1248  -10.3884   24.6145 N   0  0  0  0  0  0  0  0  0  0  0  0
   39.3868   -9.0693   25.1428 C   0  0  0  0  0  0  0  0  0  0  0  0
   39.1281  -10.5662   23.2817 N   0  0  0  0  0  0  0  0  0  0  0  0
   36.9219  -15.5256   25.3826 H   0  0  0  0  0  0  0  0  0  0  0  0
   34.5361  -17.7294   28.0646 H   0  0  0  0  0  0  0  0  0  0  0  0
   35.2781  -16.2602   29.8105 H   0  0  0  0  0  0  0  0  0  0  0  0
   34.7109  -17.1814   21.3800 H   0  0  0  0  0  0  0  0  0  0  0  0
   33.9740  -19.2775   20.3225 H   0  0  0  0  0  0  0  0  0  0  0  0
   33.6654  -21.2191   21.6640 H   0  0  0  0  0  0  0  0  0  0  0  0
   32.6731  -19.7805   26.8163 H   0  0  0  0  0  0  0  0  0  0  0  0
   32.6376  -21.2761   28.7376 H   0  0  0  0  0  0  0  0  0  0  0  0
   34.7437  -22.1605   29.5983 H   0  0  0  0  0  0  0  0  0  0  0  0
   36.7845  -21.5461   28.4949 H   0  0  0  0  0  0  0  0  0  0  0  0
   38.5474  -10.6119   27.1784 H   0  0  0  0  0  0  0  0  0  0  0  0
   39.6224  -12.0169   27.1879 H   0  0  0  0  0  0  0  0  0  0  0  0
   38.6982  -13.5224   21.8369 H   0  0  0  0  0  0  0  0  0  0  0  0
   39.8224  -12.3076   21.2770 H   0  0  0  0  0  0  0  0  0  0  0  0
   38.1023  -12.0137   21.1874 H   0  0  0  0  0  0  0  0  0  0  0  0
   38.5609  -13.5327   24.5144 H   0  0  0  0  0  0  0  0  0  0  0  0
   39.3478   -9.0990   26.2117 H   0  0  0  0  0  0  0  0  0  0  0  0
   38.6488   -8.3859   24.7778 H   0  0  0  0  0  0  0  0  0  0  0  0
   40.3578   -8.7462   24.8301 H   0  0  0  0  0  0  0  0  0  0  0  0
  1  2  2  0
  2  3  1  0
  2 35  1  0
  3  7  1  0
  3  4  2  0
  4  5  1  0
  4 36  1  0
  5  6  2  0
  5 37  1  0
  6  1  1  0
  7  8  1  0
  8  9  1  0
  8 16  1  0
  9 10  2  0
 10 11  1  0
 10 38  1  0
 11 12  2  0
 11 39  1  0
 12 13  1  0
 12 40  1  0
 13 14  2  0
 14 15  1  0
 14  9  1  0
 15 17  1  0
 15  7  2  0
 17 18  2  0
 18 19  1  0
 18 41  1  0
 19 20  2  0
 19 42  1  0
 20 21  1  0
 20 43  1  0
 21 22  2  0
 21 44  1  0
 22 17  1  0
 23 24  2  0
 23 25  1  0
 25  1  1  0
 25 26  1  0
 27 23  1  0
 27 45  1  0
 27 46  1  0
 28 29  1  0
 28 47  1  0
 28 48  1  0
 28 49  1  0
 29 30  1  0
 30 31  2  0
 30 50  1  0
 31 27  1  0
 31 32  1  0
 32 33  1  0
 32 34  1  0
 33 51  1  0
 33 52  1  0
 33 53  1  0
 34 29  2  0
M  END
>  <minimizedAffinity>  (1) 
-8.51333

>  <mol_id>  (1) 
6175

>  <source_index>  (1) 
0

>  <layer>  (1) 
L3

>  <uniprot>  (1) 
Q9Y6M4

>  <paff>  (1) 
7.4509999999999996

>  <smiles>  (1) 
Cc1cc(CC(=O)Nc2cc(-c3[nH]c4cccnc4c3-c3ccccn3)ccn2)n(C)n1

$$$$
L3:Q9Y6M4:10544
     RDKit          3D

 53 57  0  0  0  0  0  0  0  0999 V2000
   37.7478  -13.4957   26.8024 C   0  0  0  0  0  0  0  0  0  0  0  0
   37.0282  -14.6734   26.6606 C   0  0  0  0  0  0  0  0  0  0  0  0
   36.2703  -15.1405   27.7413 C   0  0  0  0  0  0  0  0  0  0  0  0
   36.2407  -14.4034   28.9205 C   0  0  0  0  0  0  0  0  0  0  0  0
   36.9806  -13.2405   28.9682 C   0  0  0  0  0  0  0  0  0  0  0  0
   37.7176  -12.7766   27.9374 N   0  0  0  0  0  0  0  0  0  0  0  0
   35.5632  -16.4176   27.6595 C   0  0  0  0  0  0  0  0  0  0  0  0
   35.1689  -17.0701   28.8116 N   0  0  0  0  0  0  0  0  0  0  0  0
   34.5428  -18.2525   28.5092 C   0  0  0  0  0  0  0  0  0  0  0  0
   33.9780  -19.2308   29.3325 C   0  0  0  0  0  0  0  0  0  0  0  0
   33.4304  -20.3332   28.6829 C   0  0  0  0  0  0  0  0  0  0  0  0
   33.4759  -20.3918   27.2962 C   0  0  0  0  0  0  0  0  0  0  0  0
   34.0128  -19.4526   26.4857 N   0  0  0  0  0  0  0  0  0  0  0  0
   34.5470  -18.3707   27.1176 C   0  0  0  0  0  0  0  0  0  0  0  0
   35.1778  -17.2044   26.5624 C   0  0  0  0  0  0  0  0  0  0  0  0
   35.3282  -16.7221   29.7540 H   0  0  0  0  0  0  0  0  0  0  0  0
   35.4160  -16.8536   25.1547 C   0  0  0  0  0  0  0  0  0  0  0  0
   34.5657  -16.0130   24.4435 C   0  0  0  0  0  0  0  0  0  0  0  0
   34.8537  -15.7058   23.1104 C   0  0  0  0  0  0  0  0  0  0  0  0
   35.9897  -16.2435   22.5191 C   0  0  0  0  0  0  0  0  0  0  0  0
   36.7894  -17.0688   23.2903 C   0  0  0  0  0  0  0  0  0  0  0  0
   36.5228  -17.3787   24.5765 N   0  0  0  0  0  0  0  0  0  0  0  0
   38.6600  -11.7724   25.2911 C   0  0  0  0  0  0  0  0  0  0  0  0
   38.1858  -10.7752   25.8195 O   0  0  0  0  0  0  0  0  0  0  0  0
   38.5137  -13.0754   25.7064 N   0  0  0  0  0  0  0  0  0  0  0  0
   38.9920  -13.7926   25.1826 H   0  0  0  0  0  0  0  0  0  0  0  0
   39.5383  -11.6389   24.0576 C   0  0  0  0  0  0  0  0  0  0  0  0
   36.8997  -13.4868   20.1084 C   0  0  0  0  0  0  0  0  0  0  0  0
   37.8349  -13.2540   21.2334 C   0  0  0  0  0  0  0  0  0  0  0  0
   37.9120  -12.1956   22.1122 C   0  0  0  0  0  0  0  0  0  0  0  0
   39.0112  -12.4820   22.9550 C   0  0  0  0  0  0  0  0  0  0  0  0
   39.5879  -13.6489   22.6342 N   0  0  0  0  0  0  0  0  0  0  0  0
   38.8405  -14.1100   21.6041 N   0  0  0  0  0  0  0  0  0  0  0  0
   39.1880  -15.3769   21.0093 C   0  0  0  0  0  0  0  0  0  0  0  0
   37.0512  -15.1974   25.7718 H   0  0  0  0  0  0  0  0  0  0  0  0
   35.6844  -14.7159   29.7316 H   0  0  0  0  0  0  0  0  0  0  0  0
   36.9700  -12.6933   29.8431 H   0  0  0  0  0  0  0  0  0  0  0  0
   33.9677  -19.1410   30.3605 H   0  0  0  0  0  0  0  0  0  0  0  0
   32.9963  -21.0969   29.2245 H   0  0  0  0  0  0  0  0  0  0  0  0
   33.0644  -21.2241   26.8456 H   0  0  0  0  0  0  0  0  0  0  0  0
   33.7271  -15.6184   24.8974 H   0  0  0  0  0  0  0  0  0  0  0  0
   34.2289  -15.0861   22.5714 H   0  0  0  0  0  0  0  0  0  0  0  0
   36.2295  -16.0345   21.5373 H   0  0  0  0  0  0  0  0  0  0  0  0
   37.6365  -17.4694   22.8579 H   0  0  0  0  0  0  0  0  0  0  0  0
   39.5527  -10.6161   23.7437 H   0  0  0  0  0  0  0  0  0  0  0  0
   40.5291  -11.9625   24.2996 H   0  0  0  0  0  0  0  0  0  0  0  0
   36.2162  -12.6666   20.0372 H   0  0  0  0  0  0  0  0  0  0  0  0
   36.3546  -14.3916   20.2791 H   0  0  0  0  0  0  0  0  0  0  0  0
   37.4528  -13.5704   19.1963 H   0  0  0  0  0  0  0  0  0  0  0  0
   37.2969  -11.3677   22.1480 H   0  0  0  0  0  0  0  0  0  0  0  0
   40.0216  -15.7990   21.5306 H   0  0  0  0  0  0  0  0  0  0  0  0
   39.4475  -15.2293   19.9818 H   0  0  0  0  0  0  0  0  0  0  0  0
   38.3527  -16.0424   21.0741 H   0  0  0  0  0  0  0  0  0  0  0  0
  1  2  2  0
  2  3  1  0
  2 35  1  0
  3  7  1  0
  3  4  2  0
  4  5  1  0
  4 36  1  0
  5  6  2  0
  5 37  1  0
  6  1  1  0
  7  8  1  0
  8  9  1  0
  8 16  1  0
  9 10  2  0
 10 11  1  0
 10 38  1  0
 11 12  2  0
 11 39  1  0
 12 13  1  0
 12 40  1  0
 13 14  2  0
 14 15  1  0
 14  9  1  0
 15 17  1  0
 15  7  2  0
 17 18  2  0
 18 19  1  0
 18 41  1  0
 19 20  2  0
 19 42  1  0
 20 21  1  0
 20 43  1  0
 21 22  2  0
 21 44  1  0
 22 17  1  0
 23 24  2  0
 23 25  1  0
 25  1  1  0
 25 26  1  0
 27 23  1  0
 27 45  1  0
 27 46  1  0
 28 29  1  0
 28 47  1  0
 28 48  1  0
 28 49  1  0
 29 30  2  0
 30 31  1  0
 30 50  1  0
 31 27  1  0
 31 32  2  0
 32 33  1  0
 33 34  1  0
 33 29  1  0
 34 51  1  0
 34 52  1  0
 34 53  1  0
M  END
>  <minimizedAffinity>  (2) 
-8.10569

>  <mol_id>  (2) 
10544

>  <source_index>  (2) 
1

>  <layer>  (2) 
L3

>  <uniprot>  (2) 
Q9Y6M4

>  <paff>  (2) 
7.4988999999999999

>  <smiles>  (2) 
Cc1cc(CC(=O)Nc2cc(-c3[nH]c4cccnc4c3-c3ccccn3)ccn2)nn1C

$$$$
L3:Q9Y6M4:19862
     RDKit          3D

 56 60  0  0  0  0  0  0  0  0999 V2000
   36.8290  -14.5175   27.1176 C   0  0  0  0  0  0  0  0  0  0  0  0
   36.5540  -15.8380   26.7818 C   0  0  0  0  0  0  0  0  0  0  0  0
   36.2202  -16.7455   27.7873 C   0  0  0  0  0  0  0  0  0  0  0  0
   36.1460  -16.2945   29.0991 C   0  0  0  0  0  0  0  0  0  0  0  0
   36.4112  -14.9572   29.3404 C   0  0  0  0  0  0  0  0  0  0  0  0
   36.7396  -14.0684   28.3781 N   0  0  0  0  0  0  0  0  0  0  0  0
   35.9104  -18.1342   27.4510 C   0  0  0  0  0  0  0  0  0  0  0  0
   36.3893  -19.1514   28.2514 N   0  0  0  0  0  0  0  0  0  0  0  0
   35.9724  -20.3746   27.8000 C   0  0  0  0  0  0  0  0  0  0  0  0
   36.2014  -21.6630   28.2859 C   0  0  0  0  0  0  0  0  0  0  0  0
   35.6059  -22.6979   27.5702 C   0  0  0  0  0  0  0  0  0  0  0  0
   34.8478  -22.3941   26.4483 C   0  0  0  0  0  0  0  0  0  0  0  0
   34.6229  -21.1553   25.9638 N   0  0  0  0  0  0  0  0  0  0  0  0
   35.2016  -20.1423   26.6641 C   0  0  0  0  0  0  0  0  0  0  0  0
   35.1620  -18.7278   26.4288 C   0  0  0  0  0  0  0  0  0  0  0  0
   36.9527  -19.0054   29.0770 H   0  0  0  0  0  0  0  0  0  0  0  0
   34.5002  -18.0166   25.3297 C   0  0  0  0  0  0  0  0  0  0  0  0
   33.2634  -17.4024   25.5065 C   0  0  0  0  0  0  0  0  0  0  0  0
   32.6728  -16.7348   24.4330 C   0  0  0  0  0  0  0  0  0  0  0  0
   33.3234  -16.7048   23.2081 C   0  0  0  0  0  0  0  0  0  0  0  0
   34.5479  -17.3365   23.1085 C   0  0  0  0  0  0  0  0  0  0  0  0
   35.1497  -17.9762   24.1358 N   0  0  0  0  0  0  0  0  0  0  0  0
   38.3523  -12.8870   26.0399 C   0  0  0  0  0  0  0  0  0  0  0  0
   39.2020  -12.7758   26.9210 O   0  0  0  0  0  0  0  0  0  0  0  0
   37.2141  -13.6717   26.0701 N   0  0  0  0  0  0  0  0  0  0  0  0
   36.6779  -13.7538   25.2157 H   0  0  0  0  0  0  0  0  0  0  0  0
   38.4845  -12.1194   24.7129 C   0  0  2  0  0  0  0  0  0  0  0  0
   38.6803  -16.1985   21.7561 C   0  0  0  0  0  0  0  0  0  0  0  0
   38.8457  -14.8792   22.3073 N   0  0  0  0  0  0  0  0  0  0  0  0
   38.3327  -14.4069   23.4866 C   0  0  0  0  0  0  0  0  0  0  0  0
   38.7459  -13.0942   23.5929 C   0  0  0  0  0  0  0  0  0  0  0  0
   39.4971  -12.8776   22.4056 C   0  0  0  0  0  0  0  0  0  0  0  0
   39.5736  -13.9668   21.6449 N   0  0  0  0  0  0  0  0  0  0  0  0
   39.5701  -11.0351   24.7807 C   0  0  0  0  0  0  0  0  0  0  0  0
   38.9711   -9.6497   24.9393 C   0  0  0  0  0  0  0  0  0  0  0  0
   39.9741   -8.7382   25.0396 F   0  0  0  0  0  0  0  0  0  0  0  0
   38.2923   -9.5949   26.1181 F   0  0  0  0  0  0  0  0  0  0  0  0
   36.5964  -16.1444   25.7972 H   0  0  0  0  0  0  0  0  0  0  0  0
   35.9009  -16.9360   29.8695 H   0  0  0  0  0  0  0  0  0  0  0  0
   36.3545  -14.6194   30.3139 H   0  0  0  0  0  0  0  0  0  0  0  0
   36.7770  -21.8376   29.1245 H   0  0  0  0  0  0  0  0  0  0  0  0
   35.7266  -23.6780   27.8700 H   0  0  0  0  0  0  0  0  0  0  0  0
   34.4191  -23.1839   25.9409 H   0  0  0  0  0  0  0  0  0  0  0  0
   32.7884  -17.4405   26.4219 H   0  0  0  0  0  0  0  0  0  0  0  0
   31.7600  -16.2675   24.5492 H   0  0  0  0  0  0  0  0  0  0  0  0
   32.9052  -16.2250   22.3957 H   0  0  0  0  0  0  0  0  0  0  0  0
   35.0312  -17.3189   22.1968 H   0  0  0  0  0  0  0  0  0  0  0  0
   37.5631  -11.6096   24.5230 H   0  0  0  0  0  0  0  0  0  0  0  0
   38.0753  -16.7867   22.4141 H   0  0  0  0  0  0  0  0  0  0  0  0
   39.6387  -16.6609   21.6440 H   0  0  0  0  0  0  0  0  0  0  0  0
   38.2040  -16.1287   20.8005 H   0  0  0  0  0  0  0  0  0  0  0  0
   37.7524  -14.9291   24.1616 H   0  0  0  0  0  0  0  0  0  0  0  0
   39.9346  -11.9756   22.1607 H   0  0  0  0  0  0  0  0  0  0  0  0
   40.1449  -11.0631   23.8786 H   0  0  0  0  0  0  0  0  0  0  0  0
   40.1852  -11.2320   25.6338 H   0  0  0  0  0  0  0  0  0  0  0  0
   38.3357   -9.4474   24.1025 H   0  0  0  0  0  0  0  0  0  0  0  0
  1  2  2  0
  2  3  1  0
  2 38  1  0
  3  7  1  0
  3  4  2  0
  4  5  1  0
  4 39  1  0
  5  6  2  0
  5 40  1  0
  6  1  1  0
  7  8  1  0
  8  9  1  0
  8 16  1  0
  9 10  2  0
 10 11  1  0
 10 41  1  0
 11 12  2  0
 11 42  1  0
 12 13  1  0
 12 43  1  0
 13 14  2  0
 14 15  1  0
 14  9  1  0
 15 17  1  0
 15  7  2  0
 17 18  2  0
 18 19  1  0
 18 44  1  0
 19 20  2  0
 19 45  1  0
 20 21  1  0
 20 46  1  0
 21 22  2  0
 21 47  1  0
 22 17  1  0
 23 24  2  0
 23 25  1  0
 25  1  1  0
 25 26  1  0
 27 34  1  0
 27 23  1  0
 27 48  1  6
 28 29  1  0
 28 49  1  0
 28 50  1  0
 28 51  1  0
 29 30  1  0
 30 31  2  0
 30 52  1  0
 31 27  1  0
 31 32  1  0
 32 33  2  0
 32 53  1  0
 33 29  1  0
 34 35  1  0
 34 54  1  0
 34 55  1  0
 35 36  1  0
 35 37  1  0
 35 56  1  0
M  END
>  <minimizedAffinity>  (3) 
-8.63333

>  <mol_id>  (3) 
19862

>  <source_index>  (3) 
2

>  <layer>  (3) 
L3

>  <uniprot>  (3) 
Q9Y6M4

>  <paff>  (3) 
7.2027000000000001

>  <smiles>  (3) 
Cn1cc(C(CC(F)F)C(=O)Nc2cc(-c3[nH]c4cccnc4c3-c3ccccn3)ccn2)cn1

$$$$
L3:Q9Y6M4:28224
     RDKit          3D

 46 50  0  0  0  0  0  0  0  0999 V2000
   36.4948  -15.1637   28.5548 C   0  0  0  0  0  0  0  0  0  0  0  0
   36.8493  -15.1844   27.2105 C   0  0  0  0  0  0  0  0  0  0  0  0
   37.1609  -13.9843   26.5699 C   0  0  0  0  0  0  0  0  0  0  0  0
   37.1136  -12.7982   27.2942 C   0  0  0  0  0  0  0  0  0  0  0  0
   36.7549  -12.8707   28.6273 C   0  0  0  0  0  0  0  0  0  0  0  0
   36.4554  -14.0229   29.2630 N   0  0  0  0  0  0  0  0  0  0  0  0
   37.5471  -13.9766   25.1626 C   0  0  0  0  0  0  0  0  0  0  0  0
   38.4320  -13.0365   24.6812 N   0  0  0  0  0  0  0  0  0  0  0  0
   38.6163  -13.1833   23.3303 C   0  0  0  0  0  0  0  0  0  0  0  0
   39.3965  -12.4670   22.4225 C   0  0  0  0  0  0  0  0  0  0  0  0
   39.3402  -12.8991   21.1012 C   0  0  0  0  0  0  0  0  0  0  0  0
   38.5334  -13.9798   20.7748 C   0  0  0  0  0  0  0  0  0  0  0  0
   37.7687  -14.6803   21.6391 N   0  0  0  0  0  0  0  0  0  0  0  0
   37.8328  -14.2625   22.9306 C   0  0  0  0  0  0  0  0  0  0  0  0
   37.1722  -14.7793   24.0852 C   0  0  0  0  0  0  0  0  0  0  0  0
   38.8768  -12.3276   25.2500 H   0  0  0  0  0  0  0  0  0  0  0  0
   36.2191  -15.8789   24.1617 C   0  0  0  0  0  0  0  0  0  0  0  0
   34.8479  -15.6369   24.0946 C   0  0  0  0  0  0  0  0  0  0  0  0
   33.9678  -16.7122   24.1995 C   0  0  0  0  0  0  0  0  0  0  0  0
   34.4773  -17.9935   24.3696 C   0  0  0  0  0  0  0  0  0  0  0  0
   35.8540  -18.1475   24.4179 C   0  0  0  0  0  0  0  0  0  0  0  0
   36.7346  -17.1260   24.3137 N   0  0  0  0  0  0  0  0  0  0  0  0
   34.6580  -17.2684   27.6125 O   0  0  0  0  0  0  0  0  0  0  0  0
   35.3021  -17.3311   28.6566 C   0  0  0  0  0  0  0  0  0  0  0  0
   36.1891  -16.3936   29.1541 N   0  0  0  0  0  0  0  0  0  0  0  0
   36.6609  -16.5895   30.0246 H   0  0  0  0  0  0  0  0  0  0  0  0
   35.1556  -18.5398   29.5698 C   0  0  0  0  0  0  0  0  0  0  0  0
   35.0427  -19.7725   28.7384 C   0  0  0  0  0  0  0  0  0  0  0  0
   36.0188  -20.4686   28.0491 C   0  0  0  0  0  0  0  0  0  0  0  0
   35.4458  -21.5856   27.3782 C   0  0  0  0  0  0  0  0  0  0  0  0
   34.1347  -21.7715   27.5270 N   0  0  0  0  0  0  0  0  0  0  0  0
   33.5426  -20.5632   28.4960 S   0  0  0  0  0  0  0  0  0  0  0  0
   36.8816  -16.0765   26.6926 H   0  0  0  0  0  0  0  0  0  0  0  0
   37.3388  -11.8937   26.8512 H   0  0  0  0  0  0  0  0  0  0  0  0
   36.7137  -11.9926   29.1679 H   0  0  0  0  0  0  0  0  0  0  0  0
   39.9792  -11.6663   22.7129 H   0  0  0  0  0  0  0  0  0  0  0  0
   39.8923  -12.4212   20.3720 H   0  0  0  0  0  0  0  0  0  0  0  0
   38.5165  -14.2735   19.7856 H   0  0  0  0  0  0  0  0  0  0  0  0
   34.4904  -14.6770   23.9693 H   0  0  0  0  0  0  0  0  0  0  0  0
   32.9485  -16.5584   24.1514 H   0  0  0  0  0  0  0  0  0  0  0  0
   33.8488  -18.8073   24.4575 H   0  0  0  0  0  0  0  0  0  0  0  0
   36.2305  -19.1005   24.5410 H   0  0  0  0  0  0  0  0  0  0  0  0
   34.2760  -18.4308   30.1692 H   0  0  0  0  0  0  0  0  0  0  0  0
   36.0115  -18.6139   30.2077 H   0  0  0  0  0  0  0  0  0  0  0  0
   37.0188  -20.2147   28.0246 H   0  0  0  0  0  0  0  0  0  0  0  0
   36.0194  -22.2222   26.8030 H   0  0  0  0  0  0  0  0  0  0  0  0
  1  2  2  0
  2  3  1  0
  2 33  1  0
  3  7  1  0
  3  4  2  0
  4  5  1  0
  4 34  1  0
  5  6  2  0
  5 35  1  0
  6  1  1  0
  7  8  1  0
  8  9  1  0
  8 16  1  0
  9 10  2  0
 10 11  1  0
 10 36  1  0
 11 12  2  0
 11 37  1  0
 12 13  1  0
 12 38  1  0
 13 14  2  0
 14 15  1  0
 14  9  1  0
 15 17  1  0
 15  7  2  0
 17 18  2  0
 18 19  1  0
 18 39  1  0
 19 20  2  0
 19 40  1  0
 20 21  1  0
 20 41  1  0
 21 22  2  0
 21 42  1  0
 22 17  1  0
 23 24  2  0
 24 27  1  0
 24 25  1  0
 25  1  1  0
 25 26  1  0
 27 28  1  0
 27 43  1  0
 27 44  1  0
 28 29  2  0
 29 30  1  0
 29 45  1  0
 30 31  2  0
 30 46  1  0
 31 32  1  0
 32 28  1  0
M  END
>  <minimizedAffinity>  (4) 
-8.06831

>  <mol_id>  (4) 
28224

>  <source_index>  (4) 
3

>  <layer>  (4) 
L3

>  <uniprot>  (4) 
Q9Y6M4

>  <paff>  (4) 
7.5686

>  <smiles>  (4) 
O=C(Cc1ccns1)Nc1cc(-c2[nH]c3cccnc3c2-c2ccccn2)ccn1

$$$$
L3:Q9Y6M4:72738
     RDKit          3D

 55 59  0  0  0  0  0  0  0  0999 V2000
   35.2890  -16.1371   24.7226 C   0  0  0  0  0  0  0  0  0  0  0  0
   35.1460  -17.4862   25.0129 C   0  0  0  0  0  0  0  0  0  0  0  0
   34.3772  -18.2890   24.1620 C   0  0  0  0  0  0  0  0  0  0  0  0
   33.7746  -17.6988   23.0565 C   0  0  0  0  0  0  0  0  0  0  0  0
   33.9857  -16.3510   22.8339 C   0  0  0  0  0  0  0  0  0  0  0  0
   34.7284  -15.5624   23.6401 N   0  0  0  0  0  0  0  0  0  0  0  0
   34.2004  -19.7136   24.4569 C   0  0  0  0  0  0  0  0  0  0  0  0
   33.8098  -20.5920   23.4624 N   0  0  0  0  0  0  0  0  0  0  0  0
   33.6314  -21.8439   23.9691 C   0  0  0  0  0  0  0  0  0  0  0  0
   33.2203  -22.9230   23.2707 N   0  0  0  0  0  0  0  0  0  0  0  0
   33.1269  -24.0076   24.0843 C   0  0  0  0  0  0  0  0  0  0  0  0
   33.4183  -23.9972   25.4435 C   0  0  0  0  0  0  0  0  0  0  0  0
   33.2748  -25.1349   26.1395 F   0  0  0  0  0  0  0  0  0  0  0  0
   33.8287  -22.9027   26.1194 N   0  0  0  0  0  0  0  0  0  0  0  0
   33.9341  -21.7991   25.3260 C   0  0  0  0  0  0  0  0  0  0  0  0
   34.3232  -20.4645   25.6310 C   0  0  0  0  0  0  0  0  0  0  0  0
   33.6520  -20.3516   22.4935 H   0  0  0  0  0  0  0  0  0  0  0  0
   34.6971  -19.9415   26.9336 C   0  0  0  0  0  0  0  0  0  0  0  0
   36.0218  -19.9821   27.3571 C   0  0  0  0  0  0  0  0  0  0  0  0
   36.3449  -19.4296   28.5950 C   0  0  0  0  0  0  0  0  0  0  0  0
   35.3433  -18.8493   29.3631 C   0  0  0  0  0  0  0  0  0  0  0  0
   34.0517  -18.8467   28.8605 C   0  0  0  0  0  0  0  0  0  0  0  0
   33.7055  -19.3793   27.6672 N   0  0  0  0  0  0  0  0  0  0  0  0
   37.7302  -14.5845   24.1059 O   0  0  0  0  0  0  0  0  0  0  0  0
   37.1278  -14.5132   25.1756 C   0  0  0  0  0  0  0  0  0  0  0  0
   36.0059  -15.2336   25.5074 N   0  0  0  0  0  0  0  0  0  0  0  0
   35.6102  -15.1511   26.4351 H   0  0  0  0  0  0  0  0  0  0  0  0
   37.7036  -13.6651   26.3203 C   0  0  1  0  0  0  0  0  0  0  0  0
   38.1983  -12.3055   25.8261 C   0  0  0  0  0  0  0  0  0  0  0  0
   37.9648  -11.1753   26.6338 C   0  0  0  0  0  0  0  0  0  0  0  0
   38.4120   -9.9121   26.2437 C   0  0  0  0  0  0  0  0  0  0  0  0
   39.0948   -9.7689   25.0436 C   0  0  0  0  0  0  0  0  0  0  0  0
   39.5231   -8.5576   24.6647 F   0  0  0  0  0  0  0  0  0  0  0  0
   39.3372  -10.8657   24.2256 C   0  0  0  0  0  0  0  0  0  0  0  0
   38.8933  -12.1320   24.6140 C   0  0  0  0  0  0  0  0  0  0  0  0
   36.6823  -13.6111   27.4685 C   0  0  0  0  0  0  0  0  0  0  0  0
   37.1279  -14.4272   28.6701 C   0  0  0  0  0  0  0  0  0  0  0  0
   36.0728  -15.1160   29.1702 F   0  0  0  0  0  0  0  0  0  0  0  0
   38.0267  -15.3576   28.2474 F   0  0  0  0  0  0  0  0  0  0  0  0
   35.6006  -17.8927   25.8455 H   0  0  0  0  0  0  0  0  0  0  0  0
   33.1839  -18.2537   22.4176 H   0  0  0  0  0  0  0  0  0  0  0  0
   33.5500  -15.9221   22.0025 H   0  0  0  0  0  0  0  0  0  0  0  0
   32.8189  -24.8988   23.6649 H   0  0  0  0  0  0  0  0  0  0  0  0
   36.7504  -20.4127   26.7665 H   0  0  0  0  0  0  0  0  0  0  0  0
   37.3181  -19.4513   28.9376 H   0  0  0  0  0  0  0  0  0  0  0  0
   35.5552  -18.4316   30.2827 H   0  0  0  0  0  0  0  0  0  0  0  0
   33.3099  -18.4122   29.4314 H   0  0  0  0  0  0  0  0  0  0  0  0
   38.5852  -14.1241   26.7165 H   0  0  0  0  0  0  0  0  0  0  0  0
   37.4565  -11.2827   27.5255 H   0  0  0  0  0  0  0  0  0  0  0  0
   38.2364   -9.0905   26.8430 H   0  0  0  0  0  0  0  0  0  0  0  0
   39.8433  -10.7452   23.3344 H   0  0  0  0  0  0  0  0  0  0  0  0
   39.0762  -12.9468   24.0077 H   0  0  0  0  0  0  0  0  0  0  0  0
   35.7479  -13.9964   27.1173 H   0  0  0  0  0  0  0  0  0  0  0  0
   36.5902  -12.5914   27.7792 H   0  0  0  0  0  0  0  0  0  0  0  0
   37.5410  -13.7695   29.4061 H   0  0  0  0  0  0  0  0  0  0  0  0
  1  2  2  0
  2  3  1  0
  2 40  1  0
  3  7  1  0
  3  4  2  0
  4  5  1  0
  4 41  1  0
  5  6  2  0
  5 42  1  0
  6  1  1  0
  7  8  1  0
  8  9  1  0
  8 17  1  0
  9 10  2  0
 10 11  1  0
 11 12  2  0
 11 43  1  0
 12 13  1  0
 12 14  1  0
 14 15  2  0
 15 16  1  0
 15  9  1  0
 16 18  1  0
 16  7  2  0
 18 19  2  0
 19 20  1  0
 19 44  1  0
 20 21  2  0
 20 45  1  0
 21 22  1  0
 21 46  1  0
 22 23  2  0
 22 47  1  0
 23 18  1  0
 24 25  2  0
 25 26  1  0
 25 28  1  0
 26  1  1  0
 26 27  1  0
 28 36  1  0
 28 29  1  0
 28 48  1  1
 29 30  2  0
 30 31  1  0
 30 49  1  0
 31 32  2  0
 31 50  1  0
 32 33  1  0
 32 34  1  0
 34 35  2  0
 34 51  1  0
 35 29  1  0
 35 52  1  0
 36 37  1  0
 36 53  1  0
 36 54  1  0
 37 38  1  0
 37 39  1  0
 37 55  1  0
M  END
>  <minimizedAffinity>  (5) 
-9.25155

>  <mol_id>  (5) 
72738

>  <source_index>  (5) 
4

>  <layer>  (5) 
L3

>  <uniprot>  (5) 
Q9Y6M4

>  <paff>  (5) 
8.6197999999999997

>  <smiles>  (5) 
O=C(Nc1cc(-c2[nH]c3ncc(F)nc3c2-c2ccccn2)ccn1)[C@H](CC(F)F)c1ccc(F)cc1

$$$$
L3:Q9Y6M4:73293
     RDKit          3D

 46 50  0  0  0  0  0  0  0  0999 V2000
   36.9153  -14.8789   27.6518 C   0  0  0  0  0  0  0  0  0  0  0  0
   36.5974  -15.6606   26.5527 C   0  0  0  0  0  0  0  0  0  0  0  0
   35.7469  -16.7539   26.7303 C   0  0  0  0  0  0  0  0  0  0  0  0
   35.2446  -17.0225   27.9989 C   0  0  0  0  0  0  0  0  0  0  0  0
   35.6157  -16.1887   29.0351 C   0  0  0  0  0  0  0  0  0  0  0  0
   36.4308  -15.1229   28.8880 N   0  0  0  0  0  0  0  0  0  0  0  0
   35.3758  -17.5953   25.5924 C   0  0  0  0  0  0  0  0  0  0  0  0
   35.4792  -17.0985   24.3113 N   0  0  0  0  0  0  0  0  0  0  0  0
   35.0169  -18.0020   23.3936 C   0  0  0  0  0  0  0  0  0  0  0  0
   34.8891  -17.9180   22.0079 C   0  0  0  0  0  0  0  0  0  0  0  0
   34.3778  -19.0463   21.3759 C   0  0  0  0  0  0  0  0  0  0  0  0
   34.0434  -20.1566   22.1386 C   0  0  0  0  0  0  0  0  0  0  0  0
   34.1629  -20.2505   23.4778 N   0  0  0  0  0  0  0  0  0  0  0  0
   34.6544  -19.1437   24.1001 C   0  0  0  0  0  0  0  0  0  0  0  0
   34.8837  -18.9019   25.4959 C   0  0  0  0  0  0  0  0  0  0  0  0
   35.8230  -16.1759   24.0863 H   0  0  0  0  0  0  0  0  0  0  0  0
   34.6585  -19.8036   26.6345 C   0  0  0  0  0  0  0  0  0  0  0  0
   35.7061  -20.4810   27.2522 C   0  0  0  0  0  0  0  0  0  0  0  0
   35.4358  -21.3208   28.3328 C   0  0  0  0  0  0  0  0  0  0  0  0
   34.1294  -21.4744   28.7660 C   0  0  0  0  0  0  0  0  0  0  0  0
   33.1442  -20.7626   28.1082 C   0  0  0  0  0  0  0  0  0  0  0  0
   33.3789  -19.9385   27.0664 N   0  0  0  0  0  0  0  0  0  0  0  0
   36.3689  -12.0098   28.1294 O   0  0  0  0  0  0  0  0  0  0  0  0
   37.4696  -12.4504   27.8140 C   0  0  0  0  0  0  0  0  0  0  0  0
   37.7726  -13.7790   27.6165 N   0  0  0  0  0  0  0  0  0  0  0  0
   38.7256  -14.0595   27.4257 H   0  0  0  0  0  0  0  0  0  0  0  0
   38.6533  -11.5293   27.5594 C   0  0  0  0  0  0  0  0  0  0  0  0
   38.7319  -11.1627   26.1290 C   0  0  0  0  0  0  0  0  0  0  0  0
   38.7772   -9.9792   25.4257 C   0  0  0  0  0  0  0  0  0  0  0  0
   38.8058  -10.2339   24.0772 N   0  0  0  0  0  0  0  0  0  0  0  0
   38.7916  -11.5459   24.0132 C   0  0  0  0  0  0  0  0  0  0  0  0
   38.7449  -12.1849   25.2161 O   0  0  0  0  0  0  0  0  0  0  0  0
   36.9817  -15.4391   25.6209 H   0  0  0  0  0  0  0  0  0  0  0  0
   34.6126  -17.8220   28.1613 H   0  0  0  0  0  0  0  0  0  0  0  0
   35.2482  -16.3924   29.9777 H   0  0  0  0  0  0  0  0  0  0  0  0
   35.1574  -17.0707   21.4834 H   0  0  0  0  0  0  0  0  0  0  0  0
   34.2486  -19.0579   20.3521 H   0  0  0  0  0  0  0  0  0  0  0  0
   33.6721  -20.9793   21.6383 H   0  0  0  0  0  0  0  0  0  0  0  0
   36.6739  -20.3630   26.9138 H   0  0  0  0  0  0  0  0  0  0  0  0
   36.2031  -21.8235   28.8056 H   0  0  0  0  0  0  0  0  0  0  0  0
   33.8992  -22.0997   29.5540 H   0  0  0  0  0  0  0  0  0  0  0  0
   32.1705  -20.8679   28.4336 H   0  0  0  0  0  0  0  0  0  0  0  0
   39.5553  -12.0297   27.8439 H   0  0  0  0  0  0  0  0  0  0  0  0
   38.5257  -10.6375   28.1367 H   0  0  0  0  0  0  0  0  0  0  0  0
   38.7880   -9.0387   25.8504 H   0  0  0  0  0  0  0  0  0  0  0  0
   38.8142  -12.0561   23.1164 H   0  0  0  0  0  0  0  0  0  0  0  0
  1  2  2  0
  2  3  1  0
  2 33  1  0
  3  7  1  0
  3  4  2  0
  4  5  1  0
  4 34  1  0
  5  6  2  0
  5 35  1  0
  6  1  1  0
  7  8  1  0
  8  9  1  0
  8 16  1  0
  9 10  2  0
 10 11  1  0
 10 36  1  0
 11 12  2  0
 11 37  1  0
 12 13  1  0
 12 38  1  0
 13 14  2  0
 14 15  1  0
 14  9  1  0
 15 17  1  0
 15  7  2  0
 17 18  2  0
 18 19  1  0
 18 39  1  0
 19 20  2  0
 19 40  1  0
 20 21  1  0
 20 41  1  0
 21 22  2  0
 21 42  1  0
 22 17  1  0
 23 24  2  0
 24 27  1  0
 24 25  1  0
 25  1  1  0
 25 26  1  0
 27 28  1  0
 27 43  1  0
 27 44  1  0
 28 29  2  0
 29 30  1  0
 29 45  1  0
 30 31  2  0
 31 32  1  0
 31 46  1  0
 32 28  1  0
M  END
>  <minimizedAffinity>  (6) 
-8.04093

>  <mol_id>  (6) 
73293

>  <source_index>  (6) 
5

>  <layer>  (6) 
L3

>  <uniprot>  (6) 
Q9Y6M4

>  <paff>  (6) 
7.2984

>  <smiles>  (6) 
O=C(Cc1cnco1)Nc1cc(-c2[nH]c3cccnc3c2-c2ccccn2)ccn1

$$$$
L3:Q9Y6M4:87012
     RDKit          3D

 49 53  0  0  0  0  0  0  0  0999 V2000
   36.8755  -14.8731   27.3672 C   0  0  0  0  0  0  0  0  0  0  0  0
   36.5558  -15.7110   26.3087 C   0  0  0  0  0  0  0  0  0  0  0  0
   35.7302  -16.8139   26.5452 C   0  0  0  0  0  0  0  0  0  0  0  0
   35.2598  -17.0416   27.8340 C   0  0  0  0  0  0  0  0  0  0  0  0
   35.6214  -16.1498   28.8251 C   0  0  0  0  0  0  0  0  0  0  0  0
   36.4174  -15.0753   28.6204 N   0  0  0  0  0  0  0  0  0  0  0  0
   35.3748  -17.7105   25.4468 C   0  0  0  0  0  0  0  0  0  0  0  0
   35.4408  -17.2816   24.1371 N   0  0  0  0  0  0  0  0  0  0  0  0
   34.9896  -18.2500   23.2793 C   0  0  0  0  0  0  0  0  0  0  0  0
   34.8578  -18.2640   21.8913 C   0  0  0  0  0  0  0  0  0  0  0  0
   34.3389  -19.4343   21.3439 C   0  0  0  0  0  0  0  0  0  0  0  0
   33.9884  -20.4810   22.1858 C   0  0  0  0  0  0  0  0  0  0  0  0
   34.1101  -20.4824   23.5297 N   0  0  0  0  0  0  0  0  0  0  0  0
   34.6314  -19.3449   24.0600 C   0  0  0  0  0  0  0  0  0  0  0  0
   34.9032  -19.0211   25.4212 C   0  0  0  0  0  0  0  0  0  0  0  0
   35.7657  -16.3673   23.8508 H   0  0  0  0  0  0  0  0  0  0  0  0
   34.6470  -19.8357   26.5980 C   0  0  0  0  0  0  0  0  0  0  0  0
   35.6893  -20.5090   27.2290 C   0  0  0  0  0  0  0  0  0  0  0  0
   35.4036  -21.2871   28.3463 C   0  0  0  0  0  0  0  0  0  0  0  0
   34.0947  -21.3619   28.8074 C   0  0  0  0  0  0  0  0  0  0  0  0
   33.1206  -20.6497   28.1269 C   0  0  0  0  0  0  0  0  0  0  0  0
   33.3628  -19.8939   27.0344 N   0  0  0  0  0  0  0  0  0  0  0  0
   37.4250  -12.4692   27.7284 C   0  0  0  0  0  0  0  0  0  0  0  0
   36.3892  -12.1001   28.2791 O   0  0  0  0  0  0  0  0  0  0  0  0
   37.6754  -13.7351   27.2515 N   0  0  0  0  0  0  0  0  0  0  0  0
   38.5017  -13.9111   26.6937 H   0  0  0  0  0  0  0  0  0  0  0  0
   38.5611  -11.4951   27.4707 C   0  0  0  0  0  0  0  0  0  0  0  0
   38.8557  -11.8751   22.5537 C   0  0  0  0  0  0  0  0  0  0  0  0
   38.7835  -11.3780   23.9402 C   0  0  0  0  0  0  0  0  0  0  0  0
   38.6664  -12.0652   25.0572 N   0  0  0  0  0  0  0  0  0  0  0  0
   38.6614  -11.0985   26.0442 C   0  0  0  0  0  0  0  0  0  0  0  0
   38.7688   -9.8541   25.4614 C   0  0  0  0  0  0  0  0  0  0  0  0
   38.8448  -10.0200   24.1138 O   0  0  0  0  0  0  0  0  0  0  0  0
   36.9215  -15.5231   25.3622 H   0  0  0  0  0  0  0  0  0  0  0  0
   34.6580  -17.8533   28.0439 H   0  0  0  0  0  0  0  0  0  0  0  0
   35.2628  -16.3131   29.7789 H   0  0  0  0  0  0  0  0  0  0  0  0
   35.1279  -17.4577   21.3065 H   0  0  0  0  0  0  0  0  0  0  0  0
   34.2161  -19.5227   20.3231 H   0  0  0  0  0  0  0  0  0  0  0  0
   33.6016  -21.3308   21.7462 H   0  0  0  0  0  0  0  0  0  0  0  0
   36.6555  -20.4324   26.8747 H   0  0  0  0  0  0  0  0  0  0  0  0
   36.1561  -21.8036   28.8279 H   0  0  0  0  0  0  0  0  0  0  0  0
   33.8551  -21.9320   29.6336 H   0  0  0  0  0  0  0  0  0  0  0  0
   32.1508  -20.6998   28.4762 H   0  0  0  0  0  0  0  0  0  0  0  0
   38.3994  -10.6167   28.0599 H   0  0  0  0  0  0  0  0  0  0  0  0
   39.4744  -11.9857   27.7353 H   0  0  0  0  0  0  0  0  0  0  0  0
   38.7977  -12.9435   22.5544 H   0  0  0  0  0  0  0  0  0  0  0  0
   39.7811  -11.5685   22.1126 H   0  0  0  0  0  0  0  0  0  0  0  0
   38.0408  -11.4740   21.9881 H   0  0  0  0  0  0  0  0  0  0  0  0
   38.7882   -8.9517   25.9617 H   0  0  0  0  0  0  0  0  0  0  0  0
  1  2  2  0
  2  3  1  0
  2 34  1  0
  3  7  1  0
  3  4  2  0
  4  5  1  0
  4 35  1  0
  5  6  2  0
  5 36  1  0
  6  1  1  0
  7  8  1  0
  8  9  1  0
  8 16  1  0
  9 10  2  0
 10 11  1  0
 10 37  1  0
 11 12  2  0
 11 38  1  0
 12 13  1  0
 12 39  1  0
 13 14  2  0
 14 15  1  0
 14  9  1  0
 15 17  1  0
 15  7  2  0
 17 18  2  0
 18 19  1  0
 18 40  1  0
 19 20  2  0
 19 41  1  0
 20 21  1  0
 20 42  1  0
 21 22  2  0
 21 43  1  0
 22 17  1  0
 23 24  2  0
 23 25  1  0
 25  1  1  0
 25 26  1  0
 27 23  1  0
 27 44  1  0
 27 45  1  0
 28 29  1  0
 28 46  1  0
 28 47  1  0
 28 48  1  0
 29 30  2  0
 30 31  1  0
 31 27  1  0
 31 32  2  0
 32 33  1  0
 32 49  1  0
 33 29  1  0
M  END
>  <minimizedAffinity>  (7) 
-8.50449

>  <mol_id>  (7) 
87012

>  <source_index>  (7) 
6

>  <layer>  (7) 
L3

>  <uniprot>  (7) 
Q9Y6M4

>  <paff>  (7) 
7.1910999999999996

>  <smiles>  (7) 
Cc1nc(CC(=O)Nc2cc(-c3[nH]c4cccnc4c3-c3ccccn3)ccn2)co1

$$$$
L3:Q9Y6M4:95594
     RDKit          3D

 49 53  0  0  0  0  0  0  0  0999 V2000
   36.1891  -15.4347   28.4349 C   0  0  0  0  0  0  0  0  0  0  0  0
   36.5185  -15.3638   27.0893 C   0  0  0  0  0  0  0  0  0  0  0  0
   37.0914  -14.1891   26.5902 C   0  0  0  0  0  0  0  0  0  0  0  0
   37.3080  -13.1293   27.4673 C   0  0  0  0  0  0  0  0  0  0  0  0
   36.9320  -13.2823   28.7885 C   0  0  0  0  0  0  0  0  0  0  0  0
   36.3838  -14.4101   29.2903 N   0  0  0  0  0  0  0  0  0  0  0  0
   37.4769  -14.0882   25.1776 C   0  0  0  0  0  0  0  0  0  0  0  0
   38.3970  -13.1416   24.7687 N   0  0  0  0  0  0  0  0  0  0  0  0
   38.5669  -13.1676   23.4098 C   0  0  0  0  0  0  0  0  0  0  0  0
   39.3681  -12.3972   22.5674 C   0  0  0  0  0  0  0  0  0  0  0  0
   39.3002  -12.7090   21.2135 C   0  0  0  0  0  0  0  0  0  0  0  0
   38.4639  -13.7340   20.7962 C   0  0  0  0  0  0  0  0  0  0  0  0
   37.6799  -14.4845   21.5978 N   0  0  0  0  0  0  0  0  0  0  0  0
   37.7507  -14.1815   22.9217 C   0  0  0  0  0  0  0  0  0  0  0  0
   37.0746  -14.7793   24.0308 C   0  0  0  0  0  0  0  0  0  0  0  0
   38.8663  -12.4986   25.3909 H   0  0  0  0  0  0  0  0  0  0  0  0
   36.1484  -15.9080   24.0080 C   0  0  0  0  0  0  0  0  0  0  0  0
   34.7732  -15.7090   23.9239 C   0  0  0  0  0  0  0  0  0  0  0  0
   33.9301  -16.8180   23.8957 C   0  0  0  0  0  0  0  0  0  0  0  0
   34.4794  -18.0922   23.9486 C   0  0  0  0  0  0  0  0  0  0  0  0
   35.8561  -18.2045   24.0296 C   0  0  0  0  0  0  0  0  0  0  0  0
   36.6962  -17.1481   24.0643 N   0  0  0  0  0  0  0  0  0  0  0  0
   35.8757  -17.8846   28.7860 C   0  0  0  0  0  0  0  0  0  0  0  0
   36.6872  -18.3090   27.9668 O   0  0  0  0  0  0  0  0  0  0  0  0
   35.6269  -16.5552   29.0485 N   0  0  0  0  0  0  0  0  0  0  0  0
   35.0279  -16.2947   29.8211 H   0  0  0  0  0  0  0  0  0  0  0  0
   35.0614  -18.8254   29.6540 C   0  0  0  0  0  0  0  0  0  0  0  0
   36.1667  -21.7872   28.3179 C   0  0  0  0  0  0  0  0  0  0  0  0
   34.8621  -21.1004   28.3668 C   0  0  0  0  0  0  0  0  0  0  0  0
   33.8124  -21.7402   27.7653 O   0  0  0  0  0  0  0  0  0  0  0  0
   32.7579  -20.9076   27.9639 C   0  0  0  0  0  0  0  0  0  0  0  0
   33.0336  -19.8144   28.6354 N   0  0  0  0  0  0  0  0  0  0  0  0
   34.3896  -19.9090   28.8877 C   0  0  0  0  0  0  0  0  0  0  0  0
   36.3434  -16.1666   26.4649 H   0  0  0  0  0  0  0  0  0  0  0  0
   37.7388  -12.2510   27.1387 H   0  0  0  0  0  0  0  0  0  0  0  0
   37.0789  -12.4873   29.4299 H   0  0  0  0  0  0  0  0  0  0  0  0
   39.9738  -11.6426   22.9263 H   0  0  0  0  0  0  0  0  0  0  0  0
   39.8652  -12.1841   20.5277 H   0  0  0  0  0  0  0  0  0  0  0  0
   38.4392  -13.9404   19.7853 H   0  0  0  0  0  0  0  0  0  0  0  0
   34.3839  -14.7541   23.8830 H   0  0  0  0  0  0  0  0  0  0  0  0
   32.9074  -16.6936   23.8361 H   0  0  0  0  0  0  0  0  0  0  0  0
   33.8784  -18.9309   23.9281 H   0  0  0  0  0  0  0  0  0  0  0  0
   36.2648  -19.1514   24.0656 H   0  0  0  0  0  0  0  0  0  0  0  0
   35.7150  -19.2741   30.3726 H   0  0  0  0  0  0  0  0  0  0  0  0
   34.2915  -18.2417   30.1139 H   0  0  0  0  0  0  0  0  0  0  0  0
   36.0616  -22.7157   27.7967 H   0  0  0  0  0  0  0  0  0  0  0  0
   36.5089  -21.9743   29.3143 H   0  0  0  0  0  0  0  0  0  0  0  0
   36.8759  -21.1698   27.8073 H   0  0  0  0  0  0  0  0  0  0  0  0
   31.8107  -21.1189   27.6130 H   0  0  0  0  0  0  0  0  0  0  0  0
  1  2  2  0
  2  3  1  0
  2 34  1  0
  3  7  1  0
  3  4  2  0
  4  5  1  0
  4 35  1  0
  5  6  2  0
  5 36  1  0
  6  1  1  0
  7  8  1  0
  8  9  1  0
  8 16  1  0
  9 10  2  0
 10 11  1  0
 10 37  1  0
 11 12  2  0
 11 38  1  0
 12 13  1  0
 12 39  1  0
 13 14  2  0
 14 15  1  0
 14  9  1  0
 15 17  1  0
 15  7  2  0
 17 18  2  0
 18 19  1  0
 18 40  1  0
 19 20  2  0
 19 41  1  0
 20 21  1  0
 20 42  1  0
 21 22  2  0
 21 43  1  0
 22 17  1  0
 23 24  2  0
 23 25  1  0
 25  1  1  0
 25 26  1  0
 27 23  1  0
 27 44  1  0
 27 45  1  0
 28 29  1  0
 28 46  1  0
 28 47  1  0
 28 48  1  0
 29 30  1  0
 30 31  1  0
 31 32  2  0
 31 49  1  0
 32 33  1  0
 33 27  1  0
 33 29  2  0
M  END
>  <minimizedAffinity>  (8) 
-8.27993

>  <mol_id>  (8) 
95594

>  <source_index>  (8) 
7

>  <layer>  (8) 
L3

>  <uniprot>  (8) 
Q9Y6M4

>  <paff>  (8) 
6.9207999999999998

>  <smiles>  (8) 
Cc1ocnc1CC(=O)Nc1cc(-c2[nH]c3cccnc3c2-c2ccccn2)ccn1

$$$$
L3:Q9Y6M4:100681
     RDKit          3D

 53 57  0  0  0  0  0  0  0  0999 V2000
   37.8691  -15.2759   22.8172 C   0  0  0  0  0  0  0  0  0  0  0  0
   37.1249  -15.9116   23.8046 C   0  0  0  0  0  0  0  0  0  0  0  0
   36.9896  -17.3010   23.7697 C   0  0  0  0  0  0  0  0  0  0  0  0
   37.5981  -18.0104   22.7395 C   0  0  0  0  0  0  0  0  0  0  0  0
   38.3153  -17.2965   21.7978 C   0  0  0  0  0  0  0  0  0  0  0  0
   38.4691  -15.9564   21.8258 N   0  0  0  0  0  0  0  0  0  0  0  0
   36.2259  -17.9948   24.8066 C   0  0  0  0  0  0  0  0  0  0  0  0
   36.8569  -18.4851   25.9301 N   0  0  0  0  0  0  0  0  0  0  0  0
   35.9539  -19.0320   26.8026 C   0  0  0  0  0  0  0  0  0  0  0  0
   36.1252  -19.6230   28.0543 C   0  0  0  0  0  0  0  0  0  0  0  0
   34.9681  -20.0852   28.6712 C   0  0  0  0  0  0  0  0  0  0  0  0
   33.7507  -19.9345   28.0244 C   0  0  0  0  0  0  0  0  0  0  0  0
   33.5682  -19.3629   26.8162 N   0  0  0  0  0  0  0  0  0  0  0  0
   34.6995  -18.9123   26.2120 C   0  0  0  0  0  0  0  0  0  0  0  0
   34.8635  -18.2715   24.9439 C   0  0  0  0  0  0  0  0  0  0  0  0
   37.8515  -18.4211   26.0970 H   0  0  0  0  0  0  0  0  0  0  0  0
   33.8433  -17.9552   23.9447 C   0  0  0  0  0  0  0  0  0  0  0  0
   32.9537  -16.8990   24.1201 C   0  0  0  0  0  0  0  0  0  0  0  0
   31.9956  -16.6491   23.1381 C   0  0  0  0  0  0  0  0  0  0  0  0
   31.9500  -17.4569   22.0096 C   0  0  0  0  0  0  0  0  0  0  0  0
   32.8696  -18.4851   21.9091 C   0  0  0  0  0  0  0  0  0  0  0  0
   33.8064  -18.7487   22.8452 N   0  0  0  0  0  0  0  0  0  0  0  0
   40.2448  -13.5337   22.4984 O   0  0  0  0  0  0  0  0  0  0  0  0
   39.1103  -13.1273   22.7330 C   0  0  0  0  0  0  0  0  0  0  0  0
   37.9675  -13.8849   22.8967 N   0  0  0  0  0  0  0  0  0  0  0  0
   37.1339  -13.3743   23.1788 H   0  0  0  0  0  0  0  0  0  0  0  0
   38.8368  -11.6320   22.8086 C   0  0  0  0  0  0  0  0  0  0  0  0
   38.7675  -11.1344   24.2142 C   0  0  0  0  0  0  0  0  0  0  0  0
   38.7595   -9.7947   24.6632 C   0  0  0  0  0  0  0  0  0  0  0  0
   38.6886   -9.8784   26.0324 C   0  0  0  0  0  0  0  0  0  0  0  0
   38.6356  -11.2084   26.3299 N   0  0  0  0  0  0  0  0  0  0  0  0
   38.7083  -11.9996   25.2413 N   0  0  0  0  0  0  0  0  0  0  0  0
   38.6238  -11.8007   27.6472 C   0  0  0  0  0  0  0  0  0  0  0  0
   37.2582  -11.7440   28.2716 C   0  0  0  0  0  0  0  0  0  0  0  0
   37.1050  -12.6787   29.2361 F   0  0  0  0  0  0  0  0  0  0  0  0
   36.3144  -11.9968   27.3297 F   0  0  0  0  0  0  0  0  0  0  0  0
   36.9714  -10.5386   28.8041 F   0  0  0  0  0  0  0  0  0  0  0  0
   36.6773  -15.3626   24.5552 H   0  0  0  0  0  0  0  0  0  0  0  0
   37.5167  -19.0375   22.6801 H   0  0  0  0  0  0  0  0  0  0  0  0
   38.7597  -17.8199   21.0273 H   0  0  0  0  0  0  0  0  0  0  0  0
   37.0539  -19.7118   28.4955 H   0  0  0  0  0  0  0  0  0  0  0  0
   35.0146  -20.5348   29.5989 H   0  0  0  0  0  0  0  0  0  0  0  0
   32.9120  -20.2903   28.5092 H   0  0  0  0  0  0  0  0  0  0  0  0
   33.0025  -16.3089   24.9654 H   0  0  0  0  0  0  0  0  0  0  0  0
   31.3267  -15.8711   23.2491 H   0  0  0  0  0  0  0  0  0  0  0  0
   31.2508  -17.2949   21.2680 H   0  0  0  0  0  0  0  0  0  0  0  0
   32.8380  -19.0855   21.0703 H   0  0  0  0  0  0  0  0  0  0  0  0
   37.9035  -11.4290   22.3262 H   0  0  0  0  0  0  0  0  0  0  0  0
   39.6473  -11.1282   22.3247 H   0  0  0  0  0  0  0  0  0  0  0  0
   38.7985   -8.9391   24.0875 H   0  0  0  0  0  0  0  0  0  0  0  0
   38.6776   -9.0928   26.7015 H   0  0  0  0  0  0  0  0  0  0  0  0
   39.3125  -11.2708   28.2715 H   0  0  0  0  0  0  0  0  0  0  0  0
   38.9040  -12.8290   27.5523 H   0  0  0  0  0  0  0  0  0  0  0  0
  1  2  2  0
  2  3  1  0
  2 38  1  0
  3  7  1  0
  3  4  2  0
  4  5  1  0
  4 39  1  0
  5  6  2  0
  5 40  1  0
  6  1  1  0
  7  8  1  0
  8  9  1  0
  8 16  1  0
  9 10  2  0
 10 11  1  0
 10 41  1  0
 11 12  2  0
 11 42  1  0
 12 13  1  0
 12 43  1  0
 13 14  2  0
 14 15  1  0
 14  9  1  0
 15 17  1  0
 15  7  2  0
 17 18  2  0
 18 19  1  0
 18 44  1  0
 19 20  2  0
 19 45  1  0
 20 21  1  0
 20 46  1  0
 21 22  2  0
 21 47  1  0
 22 17  1  0
 23 24  2  0
 24 27  1  0
 24 25  1  0
 25  1  1  0
 25 26  1  0
 27 28  1  0
 27 48  1  0
 27 49  1  0
 28 29  1  0
 29 30  2  0
 29 50  1  0
 30 31  1  0
 30 51  1  0
 31 33  1  0
 31 32  1  0
 32 28  2  0
 33 34  1  0
 33 52  1  0
 33 53  1  0
 34 35  1  0
 34 36  1  0
 34 37  1  0
M  END
>  <minimizedAffinity>  (9) 
-8.37015

>  <mol_id>  (9) 
100681

>  <source_index>  (9) 
8

>  <layer>  (9) 
L3

>  <uniprot>  (9) 
Q9Y6M4

>  <paff>  (9) 
7.8296999999999999

>  <smiles>  (9) 
O=C(Cc1ccn(CC(F)(F)F)n1)Nc1cc(-c2[nH]c3cccnc3c2-c2ccccn2)ccn1

$$$$
L3:Q9Y6M4:136524
     RDKit          3D

 52 56  0  0  0  0  0  0  0  0999 V2000
   37.0765  -15.0676   27.4116 C   0  0  0  0  0  0  0  0  0  0  0  0
   36.6670  -16.1309   26.6210 C   0  0  0  0  0  0  0  0  0  0  0  0
   35.7351  -17.0390   27.1345 C   0  0  0  0  0  0  0  0  0  0  0  0
   35.2485  -16.8388   28.4238 C   0  0  0  0  0  0  0  0  0  0  0  0
   35.7006  -15.7422   29.1330 C   0  0  0  0  0  0  0  0  0  0  0  0
   36.6038  -14.8574   28.6578 N   0  0  0  0  0  0  0  0  0  0  0  0
   35.3008  -18.1920   26.3383 C   0  0  0  0  0  0  0  0  0  0  0  0
   35.0907  -19.4179   26.9400 N   0  0  0  0  0  0  0  0  0  0  0  0
   34.6278  -20.3403   26.0394 C   0  0  0  0  0  0  0  0  0  0  0  0
   34.2701  -21.6794   26.1947 C   0  0  0  0  0  0  0  0  0  0  0  0
   33.8423  -22.3304   25.0424 C   0  0  0  0  0  0  0  0  0  0  0  0
   33.7971  -21.6296   23.8463 C   0  0  0  0  0  0  0  0  0  0  0  0
   34.1353  -20.3339   23.6810 N   0  0  0  0  0  0  0  0  0  0  0  0
   34.5569  -19.6994   24.8076 C   0  0  0  0  0  0  0  0  0  0  0  0
   34.9951  -18.3497   24.9836 C   0  0  0  0  0  0  0  0  0  0  0  0
   35.2363  -19.6011   27.9230 H   0  0  0  0  0  0  0  0  0  0  0  0
   35.1251  -17.3118   23.9645 C   0  0  0  0  0  0  0  0  0  0  0  0
   34.1708  -16.3065   23.8353 C   0  0  0  0  0  0  0  0  0  0  0  0
   34.3343  -15.3421   22.8428 C   0  0  0  0  0  0  0  0  0  0  0  0
   35.4405  -15.4075   22.0062 C   0  0  0  0  0  0  0  0  0  0  0  0
   36.3422  -16.4392   22.1989 C   0  0  0  0  0  0  0  0  0  0  0  0
   36.2116  -17.3839   23.1549 N   0  0  0  0  0  0  0  0  0  0  0  0
   37.7996  -12.7635   26.7885 C   0  0  0  0  0  0  0  0  0  0  0  0
   36.7267  -12.1702   26.8647 O   0  0  0  0  0  0  0  0  0  0  0  0
   38.0039  -14.1051   27.0132 N   0  0  0  0  0  0  0  0  0  0  0  0
   38.9016  -14.5179   26.7996 H   0  0  0  0  0  0  0  0  0  0  0  0
   39.0711  -12.0281   26.3944 C   0  0  0  0  0  0  0  0  0  0  0  0
   39.6341   -9.0823   25.0935 C   0  0  0  0  0  0  0  0  0  0  0  0
   39.3002  -10.3490   24.3992 C   0  0  0  0  0  0  0  0  0  0  0  0
   39.1891  -10.3701   23.0663 N   0  0  0  0  0  0  0  0  0  0  0  0
   38.8725  -11.6705   22.7332 O   0  0  0  0  0  0  0  0  0  0  0  0
   38.7891  -12.4222   23.8609 C   0  0  0  0  0  0  0  0  0  0  0  0
   38.4586  -13.8473   23.6696 C   0  0  0  0  0  0  0  0  0  0  0  0
   39.0498  -11.6328   24.9614 C   0  0  0  0  0  0  0  0  0  0  0  0
   37.0442  -16.2504   25.6679 H   0  0  0  0  0  0  0  0  0  0  0  0
   34.5672  -17.4931   28.8394 H   0  0  0  0  0  0  0  0  0  0  0  0
   35.3257  -15.5902   30.0824 H   0  0  0  0  0  0  0  0  0  0  0  0
   34.3198  -22.1575   27.1079 H   0  0  0  0  0  0  0  0  0  0  0  0
   33.5619  -23.3230   25.0770 H   0  0  0  0  0  0  0  0  0  0  0  0
   33.4771  -22.1436   23.0106 H   0  0  0  0  0  0  0  0  0  0  0  0
   33.3541  -16.2759   24.4654 H   0  0  0  0  0  0  0  0  0  0  0  0
   33.6401  -14.5868   22.7307 H   0  0  0  0  0  0  0  0  0  0  0  0
   35.5859  -14.7071   21.2624 H   0  0  0  0  0  0  0  0  0  0  0  0
   37.1629  -16.4897   21.5752 H   0  0  0  0  0  0  0  0  0  0  0  0
   39.1648  -11.1485   26.9964 H   0  0  0  0  0  0  0  0  0  0  0  0
   39.9009  -12.6856   26.5490 H   0  0  0  0  0  0  0  0  0  0  0  0
   39.7598   -8.3024   24.3718 H   0  0  0  0  0  0  0  0  0  0  0  0
   40.5420   -9.2069   25.6458 H   0  0  0  0  0  0  0  0  0  0  0  0
   38.8414   -8.8234   25.7640 H   0  0  0  0  0  0  0  0  0  0  0  0
   38.3329  -14.0473   22.6260 H   0  0  0  0  0  0  0  0  0  0  0  0
   37.5511  -14.0757   24.1884 H   0  0  0  0  0  0  0  0  0  0  0  0
   39.2521  -14.4524   24.0556 H   0  0  0  0  0  0  0  0  0  0  0  0
  1  2  2  0
  2  3  1  0
  2 35  1  0
  3  7  1  0
  3  4  2  0
  4  5  1  0
  4 36  1  0
  5  6  2  0
  5 37  1  0
  6  1  1  0
  7  8  1  0
  8  9  1  0
  8 16  1  0
  9 10  2  0
 10 11  1  0
 10 38  1  0
 11 12  2  0
 11 39  1  0
 12 13  1  0
 12 40  1  0
 13 14  2  0
 14 15  1  0
 14  9  1  0
 15 17  1  0
 15  7  2  0
 17 18  2  0
 18 19  1  0
 18 41  1  0
 19 20  2  0
 19 42  1  0
 20 21  1  0
 20 43  1  0
 21 22  2  0
 21 44  1  0
 22 17  1  0
 23 24  2  0
 23 25  1  0
 25  1  1  0
 25 26  1  0
 27 23  1  0
 27 45  1  0
 27 46  1  0
 28 29  1  0
 28 47  1  0
 28 48  1  0
 28 49  1  0
 29 30  2  0
 30 31  1  0
 31 32  1  0
 32 33  1  0
 32 34  2  0
 33 50  1  0
 33 51  1  0
 33 52  1  0
 34 27  1  0
 34 29  1  0
M  END
>  <minimizedAffinity>  (10) 
-7.95503

>  <mol_id>  (10) 
136524

>  <source_index>  (10) 
9

>  <layer>  (10) 
L3

>  <uniprot>  (10) 
Q9Y6M4

>  <paff>  (10) 
7.2034000000000002

>  <smiles>  (10) 
Cc1noc(C)c1CC(=O)Nc1cc(-c2[nH]c3cccnc3c2-c2ccccn2)ccn1

$$$$
