cdk2_000
     RDKit          3D

 45 48  0  0  1  0  0  0  0  0999 V2000
    1.6171   28.7914    6.8217 C   0  0  0  0  0  0  0  0  0  0  0  0
   -1.3983   31.6913    8.0232 C   0  0  0  0  0  0  0  0  0  0  0  0
   -0.7127   26.1461    8.7746 C   0  0  0  0  0  0  0  0  0  0  0  0
   -1.1690   25.4708   10.0409 C   0  0  0  0  0  0  0  0  0  0  0  0
   -0.8033   23.9900    9.9650 C   0  0  0  0  0  0  0  0  0  0  0  0
   -1.1951   23.2362   11.2246 C   0  0  0  0  0  0  0  0  0  0  0  0
   -0.5964   23.8823   12.4672 C   0  0  0  0  0  0  0  0  0  0  0  0
   -0.9717   25.3555   12.5549 C   0  0  0  0  0  0  0  0  0  0  0  0
   -0.5697   26.0997   11.2910 C   0  0  0  0  0  0  0  0  0  0  0  0
    4.7178   25.1619    6.6299 C   0  0  0  0  0  0  0  0  0  0  0  0
    4.4921   24.7661    7.9350 C   0  0  0  0  0  0  0  0  0  0  0  0
    3.6974   25.5696    8.7412 C   0  0  0  0  0  0  0  0  0  0  0  0
    3.1679   26.7413    8.2524 C   0  0  0  0  0  0  0  0  0  0  0  0
    0.7943   27.9211    7.4321 N   0  0  0  0  0  0  0  0  0  0  0  0
   -0.2892   28.3682    8.0408 C   0  0  0  0  0  0  0  0  0  0  0  0
   -1.0454   27.5546    8.7858 O   0  0  0  0  0  0  0  0  0  0  0  0
   -0.6312   29.7190    7.9237 C   0  0  0  0  0  0  0  0  0  0  0  0
   -1.6661   30.4693    8.4229 N   0  0  0  0  0  0  0  0  0  0  0  0
   -0.2411   31.7927    7.2830 N   0  0  0  0  0  0  0  0  0  0  0  0
    0.2691   30.5205    7.1936 C   0  0  0  0  0  0  0  0  0  0  0  0
    1.3851   30.0953    6.5875 N   0  0  0  0  0  0  0  0  0  0  0  0
    2.8306   28.2784    6.3992 N   0  0  0  0  0  0  0  0  0  0  0  0
    3.4015   27.1314    6.9268 C   0  0  0  0  0  0  0  0  0  0  0  0
    4.2393   26.3498    6.1156 C   0  0  0  0  0  0  0  0  0  0  0  0
   -2.0143   32.5436    8.2265 H   0  0  0  0  0  0  0  0  0  0  0  0
   -1.2012   25.7097    7.9040 H   0  0  0  0  0  0  0  0  0  0  0  0
    0.3617   26.0582    8.6472 H   0  0  0  0  0  0  0  0  0  0  0  0
   -2.2566   25.5561   10.0971 H   0  0  0  0  0  0  0  0  0  0  0  0
    0.2797   23.9079    9.8200 H   0  0  0  0  0  0  0  0  0  0  0  0
   -1.2663   23.5375    9.0838 H   0  0  0  0  0  0  0  0  0  0  0  0
   -0.8964   22.1881   11.1475 H   0  0  0  0  0  0  0  0  0  0  0  0
   -2.2805   23.2295   11.3102 H   0  0  0  0  0  0  0  0  0  0  0  0
    0.4933   23.7923   12.4376 H   0  0  0  0  0  0  0  0  0  0  0  0
   -0.9297   23.3554   13.3653 H   0  0  0  0  0  0  0  0  0  0  0  0
   -0.4997   25.8076   13.4216 H   0  0  0  0  0  0  0  0  0  0  0  0
   -2.0474   25.4501   12.7047 H   0  0  0  0  0  0  0  0  0  0  0  0
   -0.8601   27.1479   11.3564 H   0  0  0  0  0  0  0  0  0  0  0  0
    0.5167   26.0815   11.1949 H   0  0  0  0  0  0  0  0  0  0  0  0
    5.7224   23.9613    5.5019 Br  0  0  0  0  0  0  0  0  0  0  0  0
    4.9627   23.8996    8.3704 H   0  0  0  0  0  0  0  0  0  0  0  0
    3.5275   25.2620    9.7613 H   0  0  0  0  0  0  0  0  0  0  0  0
    2.5701   27.3637    8.8948 H   0  0  0  0  0  0  0  0  0  0  0  0
    0.0804   32.6358    6.8032 H   0  0  0  0  0  0  0  0  0  0  0  0
    3.3936   28.8819    5.8019 H   0  0  0  0  0  0  0  0  0  0  0  0
    4.4871   26.6726    5.1158 H   0  0  0  0  0  0  0  0  0  0  0  0
  1 14  2  0
  1 21  1  0
  1 22  1  0
  2 18  2  0
  2 19  1  0
  2 25  1  0
  3  4  1  0
  3 16  1  0
  3 26  1  0
  3 27  1  0
  4  5  1  0
  4  9  1  0
  4 28  1  0
  5  6  1  0
  5 29  1  0
  5 30  1  0
  6  7  1  0
  6 31  1  0
  6 32  1  0
  7  8  1  0
  7 33  1  0
  7 34  1  0
  8  9  1  0
  8 35  1  0
  8 36  1  0
  9 37  1  0
  9 38  1  0
 10 11  2  0
 10 24  1  0
 10 39  1  0
 11 12  1  0
 11 40  1  0
 12 13  2  0
 12 41  1  0
 13 23  1  0
 13 42  1  0
 14 15  1  0
 15 16  1  0
 15 17  2  0
 17 18  1  0
 17 20  1  0
 19 20  1  0
 19 43  1  0
 20 21  2  0
 22 23  1  0
 22 44  1  0
 23 24  2  0
 24 45  1  0
M  END
>  <r_exp_dg>  (1) 
-7.04

>  <mol_id>  (1) 
0

>  <source_index>  (1) 
0

>  <paff>  (1) 
5.1612902946136563

>  <source_r_exp_dg>  (1) 
-7.04

>  <smiles>  (1) 
Brc1cccc(Nc2nc(OCC3CCCCC3)c3nc[nH]c3n2)c1

>  <aimnet_interaction_kcal_mol>  (1) 
-68.77351976143467

$$$$
cdk2_001
     RDKit          3D

 53 56  0  0  1  0  0  0  0  0999 V2000
    1.0903   29.4277    6.6748 C   0  0  0  0  0  0  0  0  0  0  0  0
   -2.1043   31.8790    8.3046 C   0  0  0  0  0  0  0  0  0  0  0  0
   -0.6171   26.4912    8.9016 C   0  0  0  0  0  0  0  0  0  0  0  0
   -1.1519   25.7339   10.0873 C   0  0  0  0  0  0  0  0  0  0  0  0
   -0.9501   24.2372    9.8862 C   0  0  0  0  0  0  0  0  0  0  0  0
   -1.4592   23.4394   11.0735 C   0  0  0  0  0  0  0  0  0  0  0  0
   -0.8323   23.9127   12.3791 C   0  0  0  0  0  0  0  0  0  0  0  0
   -1.0429   25.4062   12.5821 C   0  0  0  0  0  0  0  0  0  0  0  0
   -0.5143   26.1890   11.3933 C   0  0  0  0  0  0  0  0  0  0  0  0
    4.6888   26.4824    5.6101 C   0  0  0  0  0  0  0  0  0  0  0  0
    4.6365   26.0243    6.9158 C   0  0  0  0  0  0  0  0  0  0  0  0
    4.0752   26.7639    7.9457 C   0  0  0  0  0  0  0  0  0  0  0  0
    3.2906   27.8335    7.6176 C   0  0  0  0  0  0  0  0  0  0  0  0
    0.5200   28.4480    7.4110 N   0  0  0  0  0  0  0  0  0  0  0  0
   -0.5183   28.7590    8.1703 C   0  0  0  0  0  0  0  0  0  0  0  0
   -1.0684   27.8608    8.9873 O   0  0  0  0  0  0  0  0  0  0  0  0
   -1.0429   30.0538    8.1427 C   0  0  0  0  0  0  0  0  0  0  0  0
   -2.1412   30.6364    8.7242 N   0  0  0  0  0  0  0  0  0  0  0  0
   -1.0177   32.1602    7.5081 N   0  0  0  0  0  0  0  0  0  0  0  0
   -0.3385   30.9805    7.3639 C   0  0  0  0  0  0  0  0  0  0  0  0
    0.7349   30.7137    6.6148 N   0  0  0  0  0  0  0  0  0  0  0  0
    2.1607   29.0579    5.8837 N   0  0  0  0  0  0  0  0  0  0  0  0
    3.1169   28.1562    6.2666 C   0  0  0  0  0  0  0  0  0  0  0  0
    3.9325   27.5737    5.2905 C   0  0  0  0  0  0  0  0  0  0  0  0
   -2.8569   32.6039    8.5334 H   0  0  0  0  0  0  0  0  0  0  0  0
   -0.9836   26.0789    7.9634 H   0  0  0  0  0  0  0  0  0  0  0  0
    0.4694   26.4669    8.8827 H   0  0  0  0  0  0  0  0  0  0  0  0
   -2.2254   25.9245   10.1400 H   0  0  0  0  0  0  0  0  0  0  0  0
    0.1155   24.0469    9.7492 H   0  0  0  0  0  0  0  0  0  0  0  0
   -1.4402   23.9142    8.9645 H   0  0  0  0  0  0  0  0  0  0  0  0
   -1.2826   22.3735   10.9185 H   0  0  0  0  0  0  0  0  0  0  0  0
   -2.5405   23.5519   11.1347 H   0  0  0  0  0  0  0  0  0  0  0  0
    0.2432   23.7057   12.3640 H   0  0  0  0  0  0  0  0  0  0  0  0
   -1.2480   23.3532   13.2203 H   0  0  0  0  0  0  0  0  0  0  0  0
   -0.5571   25.7359   13.4958 H   0  0  0  0  0  0  0  0  0  0  0  0
   -2.1056   25.6108   12.7112 H   0  0  0  0  0  0  0  0  0  0  0  0
   -0.6612   27.2601   11.5328 H   0  0  0  0  0  0  0  0  0  0  0  0
    0.5638   26.0302   11.3230 H   0  0  0  0  0  0  0  0  0  0  0  0
    5.3190   26.0005    4.8783 H   0  0  0  0  0  0  0  0  0  0  0  0
    4.2355   26.4908    8.9791 H   0  0  0  0  0  0  0  0  0  0  0  0
    2.8013   28.4136    8.3734 H   0  0  0  0  0  0  0  0  0  0  0  0
   -0.7540   33.0292    7.0407 H   0  0  0  0  0  0  0  0  0  0  0  0
    2.4320   29.6760    5.1330 H   0  0  0  0  0  0  0  0  0  0  0  0
    3.9982   28.0101    4.3131 H   0  0  0  0  0  0  0  0  0  0  0  0
    5.1828   24.4109    7.1777 S   0  0  0  0  0  0  0  0  0  0  0  0
    6.6273   24.3648    7.4904 O   0  0  0  0  0  0  0  0  0  0  0  0
    4.7036   23.5301    6.0731 O   0  0  0  0  0  0  0  0  0  0  0  0
    4.8258   24.0519    9.4397 H   0  0  0  0  0  0  0  0  0  0  0  0
    4.3823   23.8423    8.5339 N   0  0  0  0  0  0  0  0  0  0  0  0
    2.9368   23.9154    8.6355 C   0  0  0  0  0  0  0  0  0  0  0  0
    2.6949   23.6867    9.6693 H   0  0  0  0  0  0  0  0  0  0  0  0
    2.5512   24.9045    8.4024 H   0  0  0  0  0  0  0  0  0  0  0  0
    2.4508   23.1869    7.9897 H   0  0  0  0  0  0  0  0  0  0  0  0
  1 14  2  0
  1 21  1  0
  1 22  1  0
  2 18  2  0
  2 19  1  0
  2 25  1  0
  3  4  1  0
  3 16  1  0
  3 26  1  0
  3 27  1  0
  4  5  1  0
  4  9  1  0
  4 28  1  0
  5  6  1  0
  5 29  1  0
  5 30  1  0
  6  7  1  0
  6 31  1  0
  6 32  1  0
  7  8  1  0
  7 33  1  0
  7 34  1  0
  8  9  1  0
  8 35  1  0
  8 36  1  0
  9 37  1  0
  9 38  1  0
 10 11  2  0
 10 24  1  0
 10 39  1  0
 11 12  1  0
 11 45  1  0
 12 13  2  0
 12 40  1  0
 13 23  1  0
 13 41  1  0
 14 15  1  0
 15 16  1  0
 15 17  2  0
 17 18  1  0
 17 20  1  0
 19 20  1  0
 19 42  1  0
 20 21  2  0
 22 23  1  0
 22 43  1  0
 23 24  2  0
 24 44  1  0
 45 46  2  0
 45 47  2  0
 45 49  1  0
 48 49  1  0
 49 50  1  0
 50 51  1  0
 50 52  1  0
 50 53  1  0
M  END
>  <r_exp_dg>  (2) 
-11.11

>  <mol_id>  (2) 
1

>  <source_index>  (2) 
1

>  <paff>  (2) 
8.1451610386196815

>  <source_r_exp_dg>  (2) 
-11.109999999999999

>  <smiles>  (2) 
CNS(=O)(=O)c1ccc(Nc2nc(OCC3CCCCC3)c3nc[nH]c3n2)cc1

>  <aimnet_interaction_kcal_mol>  (2) 
-82.121709641962397

$$$$
cdk2_002
     RDKit          3D

 49 52  0  0  1  0  0  0  0  0999 V2000
    1.6032   28.9510    6.8264 C   0  0  0  0  0  0  0  0  0  0  0  0
   -1.5635   31.6507    8.1030 C   0  0  0  0  0  0  0  0  0  0  0  0
   -0.6573   26.1722    8.8320 C   0  0  0  0  0  0  0  0  0  0  0  0
   -1.1334   25.5296   10.1090 C   0  0  0  0  0  0  0  0  0  0  0  0
   -0.9671   24.0159   10.0166 C   0  0  0  0  0  0  0  0  0  0  0  0
   -1.4049   23.3152   11.2913 C   0  0  0  0  0  0  0  0  0  0  0  0
   -0.6904   23.8769   12.5127 C   0  0  0  0  0  0  0  0  0  0  0  0
   -0.8851   25.3824   12.6120 C   0  0  0  0  0  0  0  0  0  0  0  0
   -0.4190   26.0677   11.3401 C   0  0  0  0  0  0  0  0  0  0  0  0
    4.6625   25.9109    4.6797 C   0  0  0  0  0  0  0  0  0  0  0  0
    4.7530   24.9804    5.7056 C   0  0  0  0  0  0  0  0  0  0  0  0
    4.2200   25.2900    6.9502 C   0  0  0  0  0  0  0  0  0  0  0  0
    3.5464   26.4811    7.1754 C   0  0  0  0  0  0  0  0  0  0  0  0
    0.8964   28.0221    7.5100 N   0  0  0  0  0  0  0  0  0  0  0  0
   -0.2204   28.4134    8.1112 C   0  0  0  0  0  0  0  0  0  0  0  0
   -0.9432   27.5824    8.8661 O   0  0  0  0  0  0  0  0  0  0  0  0
   -0.6646   29.7339    7.9894 C   0  0  0  0  0  0  0  0  0  0  0  0
   -1.7422   30.4122    8.5045 N   0  0  0  0  0  0  0  0  0  0  0  0
   -0.4273   31.8327    7.3478 N   0  0  0  0  0  0  0  0  0  0  0  0
    0.1600   30.5962    7.2494 C   0  0  0  0  0  0  0  0  0  0  0  0
    1.2758   30.2420    6.6175 N   0  0  0  0  0  0  0  0  0  0  0  0
    2.7999   28.6075    6.2663 N   0  0  0  0  0  0  0  0  0  0  0  0
    3.4339   27.3908    6.1347 C   0  0  0  0  0  0  0  0  0  0  0  0
    4.0585   27.1293    4.9079 C   0  0  0  0  0  0  0  0  0  0  0  0
   -2.2313   32.4570    8.3261 H   0  0  0  0  0  0  0  0  0  0  0  0
   -1.1750   25.7551    7.9685 H   0  0  0  0  0  0  0  0  0  0  0  0
    0.4106   26.0276    8.6997 H   0  0  0  0  0  0  0  0  0  0  0  0
   -2.1990   25.7492   10.2061 H   0  0  0  0  0  0  0  0  0  0  0  0
    0.0838   23.7875    9.8287 H   0  0  0  0  0  0  0  0  0  0  0  0
   -1.5214   23.6342    9.1550 H   0  0  0  0  0  0  0  0  0  0  0  0
   -1.2443   22.2393   11.2048 H   0  0  0  0  0  0  0  0  0  0  0  0
   -2.4781   23.4447   11.4118 H   0  0  0  0  0  0  0  0  0  0  0  0
    0.3810   23.6619   12.4427 H   0  0  0  0  0  0  0  0  0  0  0  0
   -1.0495   23.3867   13.4209 H   0  0  0  0  0  0  0  0  0  0  0  0
   -0.3441   25.7749   13.4664 H   0  0  0  0  0  0  0  0  0  0  0  0
   -1.9389   25.6018   12.7824 H   0  0  0  0  0  0  0  0  0  0  0  0
   -0.5500   27.1468   11.4141 H   0  0  0  0  0  0  0  0  0  0  0  0
    0.6533   25.8987   11.2184 H   0  0  0  0  0  0  0  0  0  0  0  0
    5.2597   24.0452    5.5198 H   0  0  0  0  0  0  0  0  0  0  0  0
    4.4790   24.1900    8.3158 S   0  0  0  0  0  0  0  0  0  0  0  0
    3.1216   26.7229    8.1363 H   0  0  0  0  0  0  0  0  0  0  0  0
   -0.1458   32.6920    6.8691 H   0  0  0  0  0  0  0  0  0  0  0  0
    3.2496   29.3523    5.7365 H   0  0  0  0  0  0  0  0  0  0  0  0
    4.1125   27.9163    4.1821 H   0  0  0  0  0  0  0  0  0  0  0  0
    5.0912   25.6839    3.7122 H   0  0  0  0  0  0  0  0  0  0  0  0
    2.8055   24.0088    9.0281 C   0  0  0  0  0  0  0  0  0  0  0  0
    2.9698   23.7849   10.0751 H   0  0  0  0  0  0  0  0  0  0  0  0
    2.2798   24.9482    8.9338 H   0  0  0  0  0  0  0  0  0  0  0  0
    2.2426   23.2281    8.5228 H   0  0  0  0  0  0  0  0  0  0  0  0
  1 14  2  0
  1 21  1  0
  1 22  1  0
  2 18  2  0
  2 19  1  0
  2 25  1  0
  3  4  1  0
  3 16  1  0
  3 26  1  0
  3 27  1  0
  4  5  1  0
  4  9  1  0
  4 28  1  0
  5  6  1  0
  5 29  1  0
  5 30  1  0
  6  7  1  0
  6 31  1  0
  6 32  1  0
  7  8  1  0
  7 33  1  0
  7 34  1  0
  8  9  1  0
  8 35  1  0
  8 36  1  0
  9 37  1  0
  9 38  1  0
 10 11  2  0
 10 24  1  0
 10 45  1  0
 11 12  1  0
 11 39  1  0
 12 13  2  0
 12 40  1  0
 13 23  1  0
 13 41  1  0
 14 15  1  0
 15 16  1  0
 15 17  2  0
 17 18  1  0
 17 20  1  0
 19 20  1  0
 19 42  1  0
 20 21  2  0
 22 23  1  0
 22 43  1  0
 23 24  2  0
 24 44  1  0
 40 46  1  0
 46 47  1  0
 46 48  1  0
 46 49  1  0
M  END
>  <r_exp_dg>  (3) 
-7.86

>  <mol_id>  (3) 
2

>  <source_index>  (3) 
2

>  <paff>  (3) 
5.7624634409929643

>  <source_r_exp_dg>  (3) 
-7.8600000000000003

>  <smiles>  (3) 
CSc1cccc(Nc2nc(OCC3CCCCC3)c3nc[nH]c3n2)c1

>  <aimnet_interaction_kcal_mol>  (3) 
-70.021528506632762

$$$$
cdk2_004
     RDKit          3D

 45 48  0  0  1  0  0  0  0  0999 V2000
    1.6150   28.7902    6.8196 C   0  0  0  0  0  0  0  0  0  0  0  0
   -1.3968   31.6935    8.0231 C   0  0  0  0  0  0  0  0  0  0  0  0
   -0.7163   26.1478    8.7741 C   0  0  0  0  0  0  0  0  0  0  0  0
   -1.1716   25.4743   10.0418 C   0  0  0  0  0  0  0  0  0  0  0  0
   -0.8045   23.9938    9.9677 C   0  0  0  0  0  0  0  0  0  0  0  0
   -1.1958   23.2412   11.2282 C   0  0  0  0  0  0  0  0  0  0  0  0
   -0.5977   23.8894   12.4700 C   0  0  0  0  0  0  0  0  0  0  0  0
   -0.9739   25.3625   12.5558 C   0  0  0  0  0  0  0  0  0  0  0  0
   -0.5725   26.1054   11.2909 C   0  0  0  0  0  0  0  0  0  0  0  0
    4.6954   25.1483    6.6454 C   0  0  0  0  0  0  0  0  0  0  0  0
    4.4609   24.7574    7.9495 C   0  0  0  0  0  0  0  0  0  0  0  0
    3.6734   25.5706    8.7512 C   0  0  0  0  0  0  0  0  0  0  0  0
    3.1588   26.7459    8.2567 C   0  0  0  0  0  0  0  0  0  0  0  0
    0.7896   27.9207    7.4276 N   0  0  0  0  0  0  0  0  0  0  0  0
   -0.2922   28.3691    8.0382 C   0  0  0  0  0  0  0  0  0  0  0  0
   -1.0487   27.5563    8.7839 O   0  0  0  0  0  0  0  0  0  0  0  0
   -0.6322   29.7204    7.9226 C   0  0  0  0  0  0  0  0  0  0  0  0
   -1.6662   30.4716    8.4222 N   0  0  0  0  0  0  0  0  0  0  0  0
   -0.2392   31.7939    7.2833 N   0  0  0  0  0  0  0  0  0  0  0  0
    0.2695   30.5211    7.1932 C   0  0  0  0  0  0  0  0  0  0  0  0
    1.3851   30.0949    6.5869 N   0  0  0  0  0  0  0  0  0  0  0  0
    2.8286   28.2760    6.3985 N   0  0  0  0  0  0  0  0  0  0  0  0
    3.3960   27.1281    6.9295 C   0  0  0  0  0  0  0  0  0  0  0  0
    4.2289   26.3368    6.1234 C   0  0  0  0  0  0  0  0  0  0  0  0
   -2.0119   32.5464    8.2265 H   0  0  0  0  0  0  0  0  0  0  0  0
   -1.2057   25.7104    7.9045 H   0  0  0  0  0  0  0  0  0  0  0  0
    0.3580   26.0597    8.6456 H   0  0  0  0  0  0  0  0  0  0  0  0
   -2.2593   25.5589   10.0983 H   0  0  0  0  0  0  0  0  0  0  0  0
    0.2786   23.9127    9.8228 H   0  0  0  0  0  0  0  0  0  0  0  0
   -1.2672   23.5398    9.0872 H   0  0  0  0  0  0  0  0  0  0  0  0
   -0.8961   22.1933   11.1523 H   0  0  0  0  0  0  0  0  0  0  0  0
   -2.2812   23.2338   11.3139 H   0  0  0  0  0  0  0  0  0  0  0  0
    0.4921   23.8000   12.4406 H   0  0  0  0  0  0  0  0  0  0  0  0
   -0.9308   23.3634   13.3688 H   0  0  0  0  0  0  0  0  0  0  0  0
   -0.5021   25.8158   13.4220 H   0  0  0  0  0  0  0  0  0  0  0  0
   -2.0495   25.4566   12.7056 H   0  0  0  0  0  0  0  0  0  0  0  0
   -0.8637   27.1534   11.3549 H   0  0  0  0  0  0  0  0  0  0  0  0
    0.5138   26.0879   11.1946 H   0  0  0  0  0  0  0  0  0  0  0  0
    5.6298   24.0413    5.6160 Cl  0  0  0  0  0  0  0  0  0  0  0  0
    4.9235   23.8862    8.3845 H   0  0  0  0  0  0  0  0  0  0  0  0
    3.4976   25.2662    9.7709 H   0  0  0  0  0  0  0  0  0  0  0  0
    2.5661   27.3766    8.8959 H   0  0  0  0  0  0  0  0  0  0  0  0
    0.0831   32.6368    6.8038 H   0  0  0  0  0  0  0  0  0  0  0  0
    3.3916   28.8800    5.8017 H   0  0  0  0  0  0  0  0  0  0  0  0
    4.4858   26.6449    5.1212 H   0  0  0  0  0  0  0  0  0  0  0  0
  1 14  2  0
  1 21  1  0
  1 22  1  0
  2 18  2  0
  2 19  1  0
  2 25  1  0
  3  4  1  0
  3 16  1  0
  3 26  1  0
  3 27  1  0
  4  5  1  0
  4  9  1  0
  4 28  1  0
  5  6  1  0
  5 29  1  0
  5 30  1  0
  6  7  1  0
  6 31  1  0
  6 32  1  0
  7  8  1  0
  7 33  1  0
  7 34  1  0
  8  9  1  0
  8 35  1  0
  8 36  1  0
  9 37  1  0
  9 38  1  0
 10 11  2  0
 10 24  1  0
 10 39  1  0
 11 12  1  0
 11 40  1  0
 12 13  2  0
 12 41  1  0
 13 23  1  0
 13 42  1  0
 14 15  1  0
 15 16  1  0
 15 17  2  0
 17 18  1  0
 17 20  1  0
 19 20  1  0
 19 43  1  0
 20 21  2  0
 22 23  1  0
 22 44  1  0
 23 24  2  0
 24 45  1  0
M  END
>  <r_exp_dg>  (4) 
-7.67

>  <mol_id>  (4) 
4

>  <source_index>  (4) 
4

>  <paff>  (4) 
5.6231672113591973

>  <source_r_exp_dg>  (4) 
-7.6699999999999999

>  <smiles>  (4) 
Clc1cccc(Nc2nc(OCC3CCCCC3)c3nc[nH]c3n2)c1

>  <aimnet_interaction_kcal_mol>  (4) 
-67.722249643686339

$$$$
cdk2_005
     RDKit          3D

 50 53  0  0  1  0  0  0  0  0999 V2000
    1.1532   29.3832    6.5187 C   0  0  0  0  0  0  0  0  0  0  0  0
   -2.0682   31.7704    8.1858 C   0  0  0  0  0  0  0  0  0  0  0  0
   -0.4088   26.4505    8.8717 C   0  0  0  0  0  0  0  0  0  0  0  0
   -0.9783   25.6645   10.0233 C   0  0  0  0  0  0  0  0  0  0  0  0
   -0.6643   24.1832    9.8434 C   0  0  0  0  0  0  0  0  0  0  0  0
   -1.2052   23.3454   10.9900 C   0  0  0  0  0  0  0  0  0  0  0  0
   -0.7147   23.8571   12.3396 C   0  0  0  0  0  0  0  0  0  0  0  0
   -1.0328   25.3348   12.5220 C   0  0  0  0  0  0  0  0  0  0  0  0
   -0.4679   26.1534   11.3725 C   0  0  0  0  0  0  0  0  0  0  0  0
    4.6672   26.3821    5.7251 C   0  0  0  0  0  0  0  0  0  0  0  0
    4.5812   26.1135    7.0828 C   0  0  0  0  0  0  0  0  0  0  0  0
    4.1314   27.0484    8.0034 C   0  0  0  0  0  0  0  0  0  0  0  0
    3.4654   28.1405    7.5234 C   0  0  0  0  0  0  0  0  0  0  0  0
    0.6347   28.3991    7.2896 N   0  0  0  0  0  0  0  0  0  0  0  0
   -0.3840   28.6990    8.0792 C   0  0  0  0  0  0  0  0  0  0  0  0
   -0.8719   27.8143    8.9514 O   0  0  0  0  0  0  0  0  0  0  0  0
   -0.9567   29.9736    8.0315 C   0  0  0  0  0  0  0  0  0  0  0  0
   -2.0755   30.5257    8.6042 N   0  0  0  0  0  0  0  0  0  0  0  0
   -0.9905   32.0746    7.3839 N   0  0  0  0  0  0  0  0  0  0  0  0
   -0.2844   30.9123    7.2420 C   0  0  0  0  0  0  0  0  0  0  0  0
    0.7861   30.6633    6.4799 N   0  0  0  0  0  0  0  0  0  0  0  0
    2.1993   29.0196    5.6873 N   0  0  0  0  0  0  0  0  0  0  0  0
    3.2166   28.2246    6.1482 C   0  0  0  0  0  0  0  0  0  0  0  0
    3.9883   27.4759    5.2556 C   0  0  0  0  0  0  0  0  0  0  0  0
   -2.8366   32.4809    8.4182 H   0  0  0  0  0  0  0  0  0  0  0  0
   -0.7413   26.0504    7.9169 H   0  0  0  0  0  0  0  0  0  0  0  0
    0.6801   26.4378    8.8935 H   0  0  0  0  0  0  0  0  0  0  0  0
   -2.0639   25.7843    9.9968 H   0  0  0  0  0  0  0  0  0  0  0  0
    0.4233   24.0595    9.7876 H   0  0  0  0  0  0  0  0  0  0  0  0
   -1.0661   23.8278    8.8913 H   0  0  0  0  0  0  0  0  0  0  0  0
   -0.9347   22.2967   10.8504 H   0  0  0  0  0  0  0  0  0  0  0  0
   -2.2951   23.3710   10.9684 H   0  0  0  0  0  0  0  0  0  0  0  0
    0.3687   23.7169   12.4080 H   0  0  0  0  0  0  0  0  0  0  0  0
   -1.1581   23.2706   13.1480 H   0  0  0  0  0  0  0  0  0  0  0  0
   -0.6330   25.6906   13.4670 H   0  0  0  0  0  0  0  0  0  0  0  0
   -2.1128   25.4750   12.5772 H   0  0  0  0  0  0  0  0  0  0  0  0
   -0.6926   27.2124   11.5001 H   0  0  0  0  0  0  0  0  0  0  0  0
    0.6189   26.0616   11.3818 H   0  0  0  0  0  0  0  0  0  0  0  0
    5.2650   25.7661    5.0717 H   0  0  0  0  0  0  0  0  0  0  0  0
    4.3075   26.9134    9.0603 H   0  0  0  0  0  0  0  0  0  0  0  0
    3.1391   28.9271    8.1782 H   0  0  0  0  0  0  0  0  0  0  0  0
   -0.7411   32.9531    6.9259 H   0  0  0  0  0  0  0  0  0  0  0  0
    2.4296   29.6392    4.9244 H   0  0  0  0  0  0  0  0  0  0  0  0
    4.0780   27.7711    4.2260 H   0  0  0  0  0  0  0  0  0  0  0  0
    4.9567   24.5380    7.6489 S   0  0  0  0  0  0  0  0  0  0  0  0
    6.1948   24.5769    8.4532 O   0  0  0  0  0  0  0  0  0  0  0  0
    4.9482   23.5706    6.5114 O   0  0  0  0  0  0  0  0  0  0  0  0
    3.9647   24.0537    9.5971 H   0  0  0  0  0  0  0  0  0  0  0  0
    3.6594   24.0456    8.6085 N   0  0  0  0  0  0  0  0  0  0  0  0
    2.8539   24.6466    8.4524 H   0  0  0  0  0  0  0  0  0  0  0  0
  1 14  2  0
  1 21  1  0
  1 22  1  0
  2 18  2  0
  2 19  1  0
  2 25  1  0
  3  4  1  0
  3 16  1  0
  3 26  1  0
  3 27  1  0
  4  5  1  0
  4  9  1  0
  4 28  1  0
  5  6  1  0
  5 29  1  0
  5 30  1  0
  6  7  1  0
  6 31  1  0
  6 32  1  0
  7  8  1  0
  7 33  1  0
  7 34  1  0
  8  9  1  0
  8 35  1  0
  8 36  1  0
  9 37  1  0
  9 38  1  0
 10 11  2  0
 10 24  1  0
 10 39  1  0
 11 12  1  0
 11 45  1  0
 12 13  2  0
 12 40  1  0
 13 23  1  0
 13 41  1  0
 14 15  1  0
 15 16  1  0
 15 17  2  0
 17 18  1  0
 17 20  1  0
 19 20  1  0
 19 42  1  0
 20 21  2  0
 22 23  1  0
 22 43  1  0
 23 24  2  0
 24 44  1  0
 45 46  2  0
 45 47  2  0
 45 49  1  0
 48 49  1  0
 49 50  1  0
M  END
>  <r_exp_dg>  (5) 
-11.25

>  <mol_id>  (5) 
5

>  <source_index>  (5) 
5

>  <paff>  (5) 
8.2478005865102642

>  <source_r_exp_dg>  (5) 
-11.25

>  <smiles>  (5) 
NS(=O)(=O)c1ccc(Nc2nc(OCC3CCCCC3)c3nc[nH]c3n2)cc1

>  <aimnet_interaction_kcal_mol>  (5) 
-92.289979632945858

$$$$
cdk2_006
     RDKit          3D

 49 52  0  0  1  0  0  0  0  0999 V2000
    1.7683   28.7783    6.9283 C   0  0  0  0  0  0  0  0  0  0  0  0
   -1.3827   31.5849    8.0218 C   0  0  0  0  0  0  0  0  0  0  0  0
   -0.6008   26.1003    8.8989 C   0  0  0  0  0  0  0  0  0  0  0  0
   -1.1150   25.4661   10.1633 C   0  0  0  0  0  0  0  0  0  0  0  0
   -0.9063   23.9562   10.0905 C   0  0  0  0  0  0  0  0  0  0  0  0
   -1.3566   23.2515   11.3576 C   0  0  0  0  0  0  0  0  0  0  0  0
   -0.6843   23.8424   12.5895 C   0  0  0  0  0  0  0  0  0  0  0  0
   -0.9269   25.3417   12.6733 C   0  0  0  0  0  0  0  0  0  0  0  0
   -0.4535   26.0371   11.4101 C   0  0  0  0  0  0  0  0  0  0  0  0
    4.1266   24.9511    7.1241 C   0  0  0  0  0  0  0  0  0  0  0  0
    4.8676   24.7138    5.9770 C   0  0  0  0  0  0  0  0  0  0  0  0
    4.9555   25.6975    5.0036 C   0  0  0  0  0  0  0  0  0  0  0  0
    4.3209   26.9081    5.1816 C   0  0  0  0  0  0  0  0  0  0  0  0
    1.0199   27.8908    7.6219 N   0  0  0  0  0  0  0  0  0  0  0  0
   -0.1178   28.3181    8.1563 C   0  0  0  0  0  0  0  0  0  0  0  0
   -0.8848   27.5132    8.8975 O   0  0  0  0  0  0  0  0  0  0  0  0
   -0.5357   29.6402    7.9720 C   0  0  0  0  0  0  0  0  0  0  0  0
   -1.6024   30.3630    8.4513 N   0  0  0  0  0  0  0  0  0  0  0  0
   -0.2337   31.7134    7.2727 N   0  0  0  0  0  0  0  0  0  0  0  0
    0.3271   30.4588    7.2224 C   0  0  0  0  0  0  0  0  0  0  0  0
    1.4561   30.0597    6.6394 N   0  0  0  0  0  0  0  0  0  0  0  0
    2.9895   28.3884    6.4462 N   0  0  0  0  0  0  0  0  0  0  0  0
    3.5910   27.1489    6.3513 C   0  0  0  0  0  0  0  0  0  0  0  0
    3.5412   26.1876    7.3622 C   0  0  0  0  0  0  0  0  0  0  0  0
   -2.0314   32.4191    8.2077 H   0  0  0  0  0  0  0  0  0  0  0  0
   -1.0880   25.6688    8.0249 H   0  0  0  0  0  0  0  0  0  0  0  0
    0.4717   25.9616    8.8055 H   0  0  0  0  0  0  0  0  0  0  0  0
   -2.1881   25.6615   10.2195 H   0  0  0  0  0  0  0  0  0  0  0  0
    0.1571   23.7586    9.9352 H   0  0  0  0  0  0  0  0  0  0  0  0
   -1.4251   23.5526    9.2168 H   0  0  0  0  0  0  0  0  0  0  0  0
   -1.1652   22.1792   11.2830 H   0  0  0  0  0  0  0  0  0  0  0  0
   -2.4354   23.3535   11.4527 H   0  0  0  0  0  0  0  0  0  0  0  0
    0.3943   23.6584   12.5423 H   0  0  0  0  0  0  0  0  0  0  0  0
   -1.0472   23.3482   13.4940 H   0  0  0  0  0  0  0  0  0  0  0  0
   -0.4216   25.7547   13.5403 H   0  0  0  0  0  0  0  0  0  0  0  0
   -1.9904   25.5304   12.8173 H   0  0  0  0  0  0  0  0  0  0  0  0
   -0.6268   27.1108   11.4739 H   0  0  0  0  0  0  0  0  0  0  0  0
    0.6258   25.9052   11.3140 H   0  0  0  0  0  0  0  0  0  0  0  0
    3.9506   23.8643    7.9638 O   0  0  0  0  0  0  0  0  0  0  0  0
    5.3827   23.7747    5.8206 H   0  0  0  0  0  0  0  0  0  0  0  0
    5.5378   25.5103    4.1137 H   0  0  0  0  0  0  0  0  0  0  0  0
    4.3961   27.6873    4.4379 H   0  0  0  0  0  0  0  0  0  0  0  0
    0.0645   32.5623    6.7861 H   0  0  0  0  0  0  0  0  0  0  0  0
    3.4474   29.0986    5.8755 H   0  0  0  0  0  0  0  0  0  0  0  0
    3.0133   26.4274    8.2688 H   0  0  0  0  0  0  0  0  0  0  0  0
    2.9453   24.0463    8.9697 C   0  0  0  0  0  0  0  0  0  0  0  0
    2.0027   24.2942    8.5006 H   0  0  0  0  0  0  0  0  0  0  0  0
    2.8621   23.1210    9.5270 H   0  0  0  0  0  0  0  0  0  0  0  0
    3.2424   24.8353    9.6412 H   0  0  0  0  0  0  0  0  0  0  0  0
  1 14  2  0
  1 21  1  0
  1 22  1  0
  2 18  2  0
  2 19  1  0
  2 25  1  0
  3  4  1  0
  3 16  1  0
  3 26  1  0
  3 27  1  0
  4  5  1  0
  4  9  1  0
  4 28  1  0
  5  6  1  0
  5 29  1  0
  5 30  1  0
  6  7  1  0
  6 31  1  0
  6 32  1  0
  7  8  1  0
  7 33  1  0
  7 34  1  0
  8  9  1  0
  8 35  1  0
  8 36  1  0
  9 37  1  0
  9 38  1  0
 10 11  2  0
 10 24  1  0
 10 39  1  0
 11 12  1  0
 11 40  1  0
 12 13  2  0
 12 41  1  0
 13 23  1  0
 13 42  1  0
 14 15  1  0
 15 16  1  0
 15 17  2  0
 17 18  1  0
 17 20  1  0
 19 20  1  0
 19 43  1  0
 20 21  2  0
 22 23  1  0
 22 44  1  0
 23 24  2  0
 24 45  1  0
 39 46  1  0
 46 47  1  0
 46 48  1  0
 46 49  1  0
M  END
>  <r_exp_dg>  (6) 
-7.83

>  <mol_id>  (6) 
6

>  <source_index>  (6) 
6

>  <paff>  (6) 
5.740469152277166

>  <source_r_exp_dg>  (6) 
-7.8300000000000001

>  <smiles>  (6) 
COc1cccc(Nc2nc(OCC3CCCCC3)c3nc[nH]c3n2)c1

>  <aimnet_interaction_kcal_mol>  (6) 
-70.779036103009858

$$$$
cdk2_007
     RDKit          3D

 49 52  0  0  1  0  0  0  0  0999 V2000
    1.2595   29.2635    6.7481 C   0  0  0  0  0  0  0  0  0  0  0  0
   -2.0240   31.7627    8.1218 C   0  0  0  0  0  0  0  0  0  0  0  0
   -0.6236   26.3524    8.8421 C   0  0  0  0  0  0  0  0  0  0  0  0
   -1.1584   25.5847   10.0224 C   0  0  0  0  0  0  0  0  0  0  0  0
   -0.7369   24.1222    9.9004 C   0  0  0  0  0  0  0  0  0  0  0  0
   -1.1928   23.2936   11.0893 C   0  0  0  0  0  0  0  0  0  0  0  0
   -0.7080   23.8950   12.4021 C   0  0  0  0  0  0  0  0  0  0  0  0
   -1.1469   25.3458   12.5377 C   0  0  0  0  0  0  0  0  0  0  0  0
   -0.6848   26.1692   11.3466 C   0  0  0  0  0  0  0  0  0  0  0  0
    4.7296   26.0858    5.8138 C   0  0  0  0  0  0  0  0  0  0  0  0
    4.6666   25.5470    7.0929 C   0  0  0  0  0  0  0  0  0  0  0  0
    3.8665   26.1543    8.0553 C   0  0  0  0  0  0  0  0  0  0  0  0
    3.1626   27.2948    7.7709 C   0  0  0  0  0  0  0  0  0  0  0  0
    0.5939   28.2964    7.4124 N   0  0  0  0  0  0  0  0  0  0  0  0
   -0.4849   28.6153    8.0995 C   0  0  0  0  0  0  0  0  0  0  0  0
   -1.1072   27.7195    8.8701 O   0  0  0  0  0  0  0  0  0  0  0  0
   -0.9803   29.9229    8.0369 C   0  0  0  0  0  0  0  0  0  0  0  0
   -2.1111   30.5186    8.5314 N   0  0  0  0  0  0  0  0  0  0  0  0
   -0.8839   32.0279    7.3985 N   0  0  0  0  0  0  0  0  0  0  0  0
   -0.2064   30.8377    7.3023 C   0  0  0  0  0  0  0  0  0  0  0  0
    0.9167   30.5603    6.6339 N   0  0  0  0  0  0  0  0  0  0  0  0
    2.4092   28.8816    6.1090 N   0  0  0  0  0  0  0  0  0  0  0  0
    3.1875   27.8000    6.4674 C   0  0  0  0  0  0  0  0  0  0  0  0
    4.0239   27.2245    5.5022 C   0  0  0  0  0  0  0  0  0  0  0  0
   -2.7783   32.5009    8.3130 H   0  0  0  0  0  0  0  0  0  0  0  0
   -0.9509   25.9124    7.9021 H   0  0  0  0  0  0  0  0  0  0  0  0
    0.4621   26.3715    8.8532 H   0  0  0  0  0  0  0  0  0  0  0  0
   -2.2491   25.6301    9.9902 H   0  0  0  0  0  0  0  0  0  0  0  0
    0.3551   24.0797    9.8321 H   0  0  0  0  0  0  0  0  0  0  0  0
   -1.1209   23.7015    8.9674 H   0  0  0  0  0  0  0  0  0  0  0  0
   -0.8499   22.2617   10.9850 H   0  0  0  0  0  0  0  0  0  0  0  0
   -2.2815   23.2432   11.0951 H   0  0  0  0  0  0  0  0  0  0  0  0
    0.3838   23.8474   12.4395 H   0  0  0  0  0  0  0  0  0  0  0  0
   -1.0761   23.3079   13.2474 H   0  0  0  0  0  0  0  0  0  0  0  0
   -0.7612   25.7692   13.4606 H   0  0  0  0  0  0  0  0  0  0  0  0
   -2.2328   25.3962   12.6153 H   0  0  0  0  0  0  0  0  0  0  0  0
   -1.0216   27.2016   11.4380 H   0  0  0  0  0  0  0  0  0  0  0  0
    0.4049   26.1952   11.3369 H   0  0  0  0  0  0  0  0  0  0  0  0
    5.3656   25.6129    5.0785 H   0  0  0  0  0  0  0  0  0  0  0  0
    3.7780   25.7174    9.0402 H   0  0  0  0  0  0  0  0  0  0  0  0
    2.5944   27.7930    8.5324 H   0  0  0  0  0  0  0  0  0  0  0  0
   -0.6084   32.8920    6.9286 H   0  0  0  0  0  0  0  0  0  0  0  0
    2.8535   29.5292    5.4691 H   0  0  0  0  0  0  0  0  0  0  0  0
    4.1468   27.7026    4.5425 H   0  0  0  0  0  0  0  0  0  0  0  0
    5.5223   24.3968    7.4343 C   0  0  0  0  0  0  0  0  0  0  0  0
    5.6013   23.4335    6.6009 O   0  0  0  0  0  0  0  0  0  0  0  0
    6.5933   22.8269    8.9429 H   0  0  0  0  0  0  0  0  0  0  0  0
    6.1883   24.3970    8.5754 N   0  0  0  0  0  0  0  0  0  0  0  0
    5.6656   24.7695    9.3639 H   0  0  0  0  0  0  0  0  0  0  0  0
  1 14  2  0
  1 21  1  0
  1 22  1  0
  2 18  2  0
  2 19  1  0
  2 25  1  0
  3  4  1  0
  3 16  1  0
  3 26  1  0
  3 27  1  0
  4  5  1  0
  4  9  1  0
  4 28  1  0
  5  6  1  0
  5 29  1  0
  5 30  1  0
  6  7  1  0
  6 31  1  0
  6 32  1  0
  7  8  1  0
  7 33  1  0
  7 34  1  0
  8  9  1  0
  8 35  1  0
  8 36  1  0
  9 37  1  0
  9 38  1  0
 10 11  2  0
 10 24  1  0
 10 39  1  0
 11 12  1  0
 11 45  1  0
 12 13  2  0
 12 40  1  0
 13 23  1  0
 13 41  1  0
 14 15  1  0
 15 16  1  0
 15 17  2  0
 17 18  1  0
 17 20  1  0
 19 20  1  0
 19 42  1  0
 20 21  2  0
 22 23  1  0
 22 43  1  0
 23 24  2  0
 24 44  1  0
 45 46  2  0
 45 48  1  0
 47 48  1  0
 48 49  1  0
M  END
>  <r_exp_dg>  (7) 
-9.79

>  <mol_id>  (7) 
7

>  <source_index>  (7) 
7

>  <paff>  (7) 
7.1774193268717204

>  <source_r_exp_dg>  (7) 
-9.7899999999999991

>  <smiles>  (7) 
NC(=O)c1ccc(Nc2nc(OCC3CCCCC3)c3nc[nH]c3n2)cc1

>  <aimnet_interaction_kcal_mol>  (7) 
-106.24006825009255

$$$$
cdk2_008
     RDKit          3D

 50 53  0  0  1  0  0  0  0  0999 V2000
    1.5946   28.9147    6.9156 C   0  0  0  0  0  0  0  0  0  0  0  0
   -1.5322   31.7011    8.0700 C   0  0  0  0  0  0  0  0  0  0  0  0
   -0.6553   26.1887    8.8501 C   0  0  0  0  0  0  0  0  0  0  0  0
   -1.1452   25.4773   10.0827 C   0  0  0  0  0  0  0  0  0  0  0  0
   -0.7623   24.0019    9.9820 C   0  0  0  0  0  0  0  0  0  0  0  0
   -1.1725   23.2151   11.2154 C   0  0  0  0  0  0  0  0  0  0  0  0
   -0.6088   23.8411   12.4845 C   0  0  0  0  0  0  0  0  0  0  0  0
   -1.0102   25.3050   12.5991 C   0  0  0  0  0  0  0  0  0  0  0  0
   -0.5907   26.0856   11.3638 C   0  0  0  0  0  0  0  0  0  0  0  0
    4.8301   25.4539    6.3361 C   0  0  0  0  0  0  0  0  0  0  0  0
    4.8959   25.0589    7.6608 C   0  0  0  0  0  0  0  0  0  0  0  0
    4.1265   25.7435    8.5885 C   0  0  0  0  0  0  0  0  0  0  0  0
    3.3724   26.8354    8.2005 C   0  0  0  0  0  0  0  0  0  0  0  0
    0.8295   28.0180    7.5647 N   0  0  0  0  0  0  0  0  0  0  0  0
   -0.2894   28.4264    8.1383 C   0  0  0  0  0  0  0  0  0  0  0  0
   -1.0285   27.5891    8.8722 O   0  0  0  0  0  0  0  0  0  0  0  0
   -0.6917   29.7577    7.9903 C   0  0  0  0  0  0  0  0  0  0  0  0
   -1.7558   30.4726    8.4787 N   0  0  0  0  0  0  0  0  0  0  0  0
   -0.3778   31.8412    7.3338 N   0  0  0  0  0  0  0  0  0  0  0  0
    0.1762   30.5880    7.2544 C   0  0  0  0  0  0  0  0  0  0  0  0
    1.3052   30.2001    6.6517 N   0  0  0  0  0  0  0  0  0  0  0  0
    2.8110   28.4597    6.4637 N   0  0  0  0  0  0  0  0  0  0  0  0
    3.4510   27.3135    6.8866 C   0  0  0  0  0  0  0  0  0  0  0  0
    4.2277   26.6330    5.9457 C   0  0  0  0  0  0  0  0  0  0  0  0
   -2.1753   32.5310    8.2753 H   0  0  0  0  0  0  0  0  0  0  0  0
   -1.0931   25.7566    7.9512 H   0  0  0  0  0  0  0  0  0  0  0  0
    0.4260   26.1354    8.7694 H   0  0  0  0  0  0  0  0  0  0  0  0
   -2.2353   25.5498   10.1049 H   0  0  0  0  0  0  0  0  0  0  0  0
    0.3239   23.9316    9.8577 H   0  0  0  0  0  0  0  0  0  0  0  0
   -1.2028   23.5652    9.0817 H   0  0  0  0  0  0  0  0  0  0  0  0
   -0.8580   22.1730   11.1218 H   0  0  0  0  0  0  0  0  0  0  0  0
   -2.2594   23.1920   11.2776 H   0  0  0  0  0  0  0  0  0  0  0  0
    0.4826   23.7701   12.4717 H   0  0  0  0  0  0  0  0  0  0  0  0
   -0.9484   23.2868   13.3638 H   0  0  0  0  0  0  0  0  0  0  0  0
   -0.5686   25.7438   13.4886 H   0  0  0  0  0  0  0  0  0  0  0  0
   -2.0903   25.3790   12.7267 H   0  0  0  0  0  0  0  0  0  0  0  0
   -0.8992   27.1276   11.4455 H   0  0  0  0  0  0  0  0  0  0  0  0
    0.4973   26.0873   11.2955 H   0  0  0  0  0  0  0  0  0  0  0  0
    5.5466   24.2603    7.9669 H   0  0  0  0  0  0  0  0  0  0  0  0
    4.1252   25.4060    9.6140 H   0  0  0  0  0  0  0  0  0  0  0  0
    2.7240   27.3248    8.9055 H   0  0  0  0  0  0  0  0  0  0  0  0
   -0.0731   32.6895    6.8516 H   0  0  0  0  0  0  0  0  0  0  0  0
    3.3157   29.0538    5.8085 H   0  0  0  0  0  0  0  0  0  0  0  0
    4.2937   26.9998    4.9324 H   0  0  0  0  0  0  0  0  0  0  0  0
    5.3382   24.3212    5.0356 S   0  0  0  0  0  0  0  0  0  0  0  0
    4.5319   24.6474    3.8643 O   0  0  0  0  0  0  0  0  0  0  0  0
    5.3474   22.9451    5.6392 O   0  0  0  0  0  0  0  0  0  0  0  0
    7.1970   25.6031    4.8254 H   0  0  0  0  0  0  0  0  0  0  0  0
    6.9475   24.6303    4.6384 N   0  0  0  0  0  0  0  0  0  0  0  0
    7.5418   23.9882    5.1448 H   0  0  0  0  0  0  0  0  0  0  0  0
  1 14  2  0
  1 21  1  0
  1 22  1  0
  2 18  2  0
  2 19  1  0
  2 25  1  0
  3  4  1  0
  3 16  1  0
  3 26  1  0
  3 27  1  0
  4  5  1  0
  4  9  1  0
  4 28  1  0
  5  6  1  0
  5 29  1  0
  5 30  1  0
  6  7  1  0
  6 31  1  0
  6 32  1  0
  7  8  1  0
  7 33  1  0
  7 34  1  0
  8  9  1  0
  8 35  1  0
  8 36  1  0
  9 37  1  0
  9 38  1  0
 10 11  2  0
 10 24  1  0
 10 45  1  0
 11 12  1  0
 11 39  1  0
 12 13  2  0
 12 40  1  0
 13 23  1  0
 13 41  1  0
 14 15  1  0
 15 16  1  0
 15 17  2  0
 17 18  1  0
 17 20  1  0
 19 20  1  0
 19 42  1  0
 20 21  2  0
 22 23  1  0
 22 43  1  0
 23 24  2  0
 24 44  1  0
 45 46  2  0
 45 47  2  0
 45 49  1  0
 48 49  1  0
 49 50  1  0
M  END
>  <r_exp_dg>  (8) 
-9.08

>  <mol_id>  (8) 
8

>  <source_index>  (8) 
8

>  <paff>  (8) 
6.656891439667195

>  <source_r_exp_dg>  (8) 
-9.0800000000000001

>  <smiles>  (8) 
NS(=O)(=O)c1cccc(Nc2nc(OCC3CCCCC3)c3nc[nH]c3n2)c1

>  <aimnet_interaction_kcal_mol>  (8) 
-85.215975735323681

$$$$
cdk2_011
     RDKit          3D

 49 52  0  0  1  0  0  0  0  0999 V2000
    1.6561   28.8411    6.8929 C   0  0  0  0  0  0  0  0  0  0  0  0
   -1.4685   31.6321    8.0695 C   0  0  0  0  0  0  0  0  0  0  0  0
   -0.5741   26.1313    8.8873 C   0  0  0  0  0  0  0  0  0  0  0  0
   -1.0857   25.4230   10.1118 C   0  0  0  0  0  0  0  0  0  0  0  0
   -0.7223   23.9424   10.0059 C   0  0  0  0  0  0  0  0  0  0  0  0
   -1.1522   23.1543   11.2318 C   0  0  0  0  0  0  0  0  0  0  0  0
   -0.5907   23.7679   12.5082 C   0  0  0  0  0  0  0  0  0  0  0  0
   -0.9757   25.2355   12.6270 C   0  0  0  0  0  0  0  0  0  0  0  0
   -0.5333   26.0166   11.4009 C   0  0  0  0  0  0  0  0  0  0  0  0
    4.2087   25.2321    7.6747 C   0  0  0  0  0  0  0  0  0  0  0  0
    4.8931   24.8143    6.5412 C   0  0  0  0  0  0  0  0  0  0  0  0
    4.8508   25.5555    5.3730 C   0  0  0  0  0  0  0  0  0  0  0  0
    4.1859   26.7636    5.3617 C   0  0  0  0  0  0  0  0  0  0  0  0
    0.9163   27.9494    7.5819 N   0  0  0  0  0  0  0  0  0  0  0  0
   -0.2005   28.3640    8.1599 C   0  0  0  0  0  0  0  0  0  0  0  0
   -0.9327   27.5342    8.9100 O   0  0  0  0  0  0  0  0  0  0  0  0
   -0.6185   29.6904    7.9994 C   0  0  0  0  0  0  0  0  0  0  0  0
   -1.6802   30.4064    8.4942 N   0  0  0  0  0  0  0  0  0  0  0  0
   -0.3265   31.7702    7.3132 N   0  0  0  0  0  0  0  0  0  0  0  0
    0.2350   30.5179    7.2436 C   0  0  0  0  0  0  0  0  0  0  0  0
    1.3545   30.1298    6.6326 N   0  0  0  0  0  0  0  0  0  0  0  0
    2.8539   28.4220    6.3808 N   0  0  0  0  0  0  0  0  0  0  0  0
    3.4783   27.1952    6.4869 C   0  0  0  0  0  0  0  0  0  0  0  0
    3.4907   26.4140    7.6463 C   0  0  0  0  0  0  0  0  0  0  0  0
   -2.1160   32.4611    8.2705 H   0  0  0  0  0  0  0  0  0  0  0  0
   -1.0063   25.7039    7.9834 H   0  0  0  0  0  0  0  0  0  0  0  0
    0.5070   26.0603    8.8203 H   0  0  0  0  0  0  0  0  0  0  0  0
   -2.1749   25.5110   10.1241 H   0  0  0  0  0  0  0  0  0  0  0  0
    0.3642   23.8592    9.8891 H   0  0  0  0  0  0  0  0  0  0  0  0
   -1.1622   23.5170    9.0997 H   0  0  0  0  0  0  0  0  0  0  0  0
   -0.8504   22.1086   11.1357 H   0  0  0  0  0  0  0  0  0  0  0  0
   -2.2398   23.1447   11.2850 H   0  0  0  0  0  0  0  0  0  0  0  0
    0.5003   23.6852   12.5023 H   0  0  0  0  0  0  0  0  0  0  0  0
   -0.9423   23.2127   13.3823 H   0  0  0  0  0  0  0  0  0  0  0  0
   -0.5378   25.6655   13.5224 H   0  0  0  0  0  0  0  0  0  0  0  0
   -2.0562   25.3220   12.7443 H   0  0  0  0  0  0  0  0  0  0  0  0
   -0.8265   27.0627   11.4863 H   0  0  0  0  0  0  0  0  0  0  0  0
    0.5558   26.0032   11.3420 H   0  0  0  0  0  0  0  0  0  0  0  0
    4.2576   24.6563    8.5912 H   0  0  0  0  0  0  0  0  0  0  0  0
    5.6575   23.6466    6.6386 O   0  0  0  0  0  0  0  0  0  0  0  0
    5.3562   25.2135    4.4821 H   0  0  0  0  0  0  0  0  0  0  0  0
    4.2195   27.3964    4.4873 H   0  0  0  0  0  0  0  0  0  0  0  0
   -0.0302   32.6197    6.8272 H   0  0  0  0  0  0  0  0  0  0  0  0
    3.3361   29.0982    5.7919 H   0  0  0  0  0  0  0  0  0  0  0  0
    2.9315   26.7358    8.5068 H   0  0  0  0  0  0  0  0  0  0  0  0
    6.8240   23.6185    5.8177 C   0  0  0  0  0  0  0  0  0  0  0  0
    7.4829   22.8516    6.2210 H   0  0  0  0  0  0  0  0  0  0  0  0
    6.5709   23.3774    4.7844 H   0  0  0  0  0  0  0  0  0  0  0  0
    7.3141   24.5898    5.8377 H   0  0  0  0  0  0  0  0  0  0  0  0
  1 14  2  0
  1 21  1  0
  1 22  1  0
  2 18  2  0
  2 19  1  0
  2 25  1  0
  3  4  1  0
  3 16  1  0
  3 26  1  0
  3 27  1  0
  4  5  1  0
  4  9  1  0
  4 28  1  0
  5  6  1  0
  5 29  1  0
  5 30  1  0
  6  7  1  0
  6 31  1  0
  6 32  1  0
  7  8  1  0
  7 33  1  0
  7 34  1  0
  8  9  1  0
  8 35  1  0
  8 36  1  0
  9 37  1  0
  9 38  1  0
 10 11  2  0
 10 24  1  0
 10 39  1  0
 11 12  1  0
 11 40  1  0
 12 13  2  0
 12 41  1  0
 13 23  1  0
 13 42  1  0
 14 15  1  0
 15 16  1  0
 15 17  2  0
 17 18  1  0
 17 20  1  0
 19 20  1  0
 19 43  1  0
 20 21  2  0
 22 23  1  0
 22 44  1  0
 23 24  2  0
 24 45  1  0
 40 46  1  0
 46 47  1  0
 46 48  1  0
 46 49  1  0
M  END
>  <r_exp_dg>  (9) 
-8.43

>  <mol_id>  (9) 
11

>  <source_index>  (9) 
11

>  <paff>  (9) 
6.180352129894267

>  <source_r_exp_dg>  (9) 
-8.4299999999999997

>  <smiles>  (9) 
COc1ccc(Nc2nc(OCC3CCCCC3)c3nc[nH]c3n2)cc1

>  <aimnet_interaction_kcal_mol>  (9) 
-76.099441986692469

$$$$
cdk2_012
     RDKit          3D

 46 49  0  0  1  0  0  0  0  0999 V2000
    1.6513   28.8444    6.8980 C   0  0  0  0  0  0  0  0  0  0  0  0
   -1.4771   31.6322    8.0710 C   0  0  0  0  0  0  0  0  0  0  0  0
   -0.5924   26.1286    8.8752 C   0  0  0  0  0  0  0  0  0  0  0  0
   -1.0963   25.4218   10.1043 C   0  0  0  0  0  0  0  0  0  0  0  0
   -0.7284   23.9421   10.0019 C   0  0  0  0  0  0  0  0  0  0  0  0
   -1.1514   23.1564   11.2317 C   0  0  0  0  0  0  0  0  0  0  0  0
   -0.5873   23.7757   12.5042 C   0  0  0  0  0  0  0  0  0  0  0  0
   -0.9763   25.2426   12.6196 C   0  0  0  0  0  0  0  0  0  0  0  0
   -0.5413   26.0214   11.3893 C   0  0  0  0  0  0  0  0  0  0  0  0
    4.9150   25.6081    5.4076 C   0  0  0  0  0  0  0  0  0  0  0  0
    4.9005   24.8290    6.5512 C   0  0  0  0  0  0  0  0  0  0  0  0
    4.1925   25.2214    7.6746 C   0  0  0  0  0  0  0  0  0  0  0  0
    3.4782   26.4081    7.6469 C   0  0  0  0  0  0  0  0  0  0  0  0
    0.9099   27.9508    7.5830 N   0  0  0  0  0  0  0  0  0  0  0  0
   -0.2097   28.3637    8.1568 C   0  0  0  0  0  0  0  0  0  0  0  0
   -0.9468   27.5322    8.9003 O   0  0  0  0  0  0  0  0  0  0  0  0
   -0.6267   29.6908    7.9991 C   0  0  0  0  0  0  0  0  0  0  0  0
   -1.6893   30.4059    8.4932 N   0  0  0  0  0  0  0  0  0  0  0  0
   -0.3338   31.7717    7.3168 N   0  0  0  0  0  0  0  0  0  0  0  0
    0.2278   30.5196    7.2464 C   0  0  0  0  0  0  0  0  0  0  0  0
    1.3485   30.1328    6.6372 N   0  0  0  0  0  0  0  0  0  0  0  0
    2.8523   28.4296    6.3919 N   0  0  0  0  0  0  0  0  0  0  0  0
    3.4856   27.2085    6.5007 C   0  0  0  0  0  0  0  0  0  0  0  0
    4.2317   26.8045    5.3881 C   0  0  0  0  0  0  0  0  0  0  0  0
   -2.1247   32.4608    8.2729 H   0  0  0  0  0  0  0  0  0  0  0  0
   -1.0337   25.7018    7.9753 H   0  0  0  0  0  0  0  0  0  0  0  0
    0.4880   26.0546    8.7998 H   0  0  0  0  0  0  0  0  0  0  0  0
   -2.1857   25.5061   10.1207 H   0  0  0  0  0  0  0  0  0  0  0  0
    0.3580   23.8619    9.8821 H   0  0  0  0  0  0  0  0  0  0  0  0
   -1.1695   23.5124    9.0983 H   0  0  0  0  0  0  0  0  0  0  0  0
   -0.8467   22.1114   11.1378 H   0  0  0  0  0  0  0  0  0  0  0  0
   -2.2388   23.1437   11.2888 H   0  0  0  0  0  0  0  0  0  0  0  0
    0.5038   23.6963   12.4950 H   0  0  0  0  0  0  0  0  0  0  0  0
   -0.9344   23.2225   13.3813 H   0  0  0  0  0  0  0  0  0  0  0  0
   -0.5360   25.6767   13.5119 H   0  0  0  0  0  0  0  0  0  0  0  0
   -2.0566   25.3262   12.7408 H   0  0  0  0  0  0  0  0  0  0  0  0
   -0.8391   27.0662   11.4727 H   0  0  0  0  0  0  0  0  0  0  0  0
    0.5476   26.0127   11.3261 H   0  0  0  0  0  0  0  0  0  0  0  0
    5.4871   25.2915    4.5459 H   0  0  0  0  0  0  0  0  0  0  0  0
    5.6388   23.6371    6.5981 O   0  0  0  0  0  0  0  0  0  0  0  0
    4.2165   24.6296    8.5811 H   0  0  0  0  0  0  0  0  0  0  0  0
    2.9058   26.7161    8.5038 H   0  0  0  0  0  0  0  0  0  0  0  0
   -0.0367   32.6215    6.8316 H   0  0  0  0  0  0  0  0  0  0  0  0
    3.3341   29.1088    5.8067 H   0  0  0  0  0  0  0  0  0  0  0  0
    4.2778   27.4472    4.5214 H   0  0  0  0  0  0  0  0  0  0  0  0
    6.2575   23.6505    5.8582 H   0  0  0  0  0  0  0  0  0  0  0  0
  1 14  2  0
  1 21  1  0
  1 22  1  0
  2 18  2  0
  2 19  1  0
  2 25  1  0
  3  4  1  0
  3 16  1  0
  3 26  1  0
  3 27  1  0
  4  5  1  0
  4  9  1  0
  4 28  1  0
  5  6  1  0
  5 29  1  0
  5 30  1  0
  6  7  1  0
  6 31  1  0
  6 32  1  0
  7  8  1  0
  7 33  1  0
  7 34  1  0
  8  9  1  0
  8 35  1  0
  8 36  1  0
  9 37  1  0
  9 38  1  0
 10 11  2  0
 10 24  1  0
 10 39  1  0
 11 12  1  0
 11 40  1  0
 12 13  2  0
 12 41  1  0
 13 23  1  0
 13 42  1  0
 14 15  1  0
 15 16  1  0
 15 17  2  0
 17 18  1  0
 17 20  1  0
 19 20  1  0
 19 43  1  0
 20 21  2  0
 22 23  1  0
 22 44  1  0
 23 24  2  0
 24 45  1  0
 40 46  1  0
M  END
>  <r_exp_dg>  (10) 
-9.74

>  <mol_id>  (10) 
12

>  <source_index>  (10) 
12

>  <paff>  (10) 
7.1407622955411751

>  <source_r_exp_dg>  (10) 
-9.7400000000000002

>  <smiles>  (10) 
Oc1ccc(Nc2nc(OCC3CCCCC3)c3nc[nH]c3n2)cc1

>  <aimnet_interaction_kcal_mol>  (10) 
-72.522159038370702

$$$$
cdk2_013
     RDKit          3D

 49 52  0  0  1  0  0  0  0  0999 V2000
    1.6434   28.7945    6.5293 C   0  0  0  0  0  0  0  0  0  0  0  0
   -1.3369   31.5897    8.0671 C   0  0  0  0  0  0  0  0  0  0  0  0
   -0.3161   26.1375    8.9150 C   0  0  0  0  0  0  0  0  0  0  0  0
   -0.9135   25.4567   10.1156 C   0  0  0  0  0  0  0  0  0  0  0  0
   -0.6289   23.9581   10.0206 C   0  0  0  0  0  0  0  0  0  0  0  0
   -1.1595   23.1952   11.2228 C   0  0  0  0  0  0  0  0  0  0  0  0
   -0.6301   23.7784   12.5272 C   0  0  0  0  0  0  0  0  0  0  0  0
   -0.9360   25.2658   12.6302 C   0  0  0  0  0  0  0  0  0  0  0  0
   -0.3825   26.0152   11.4298 C   0  0  0  0  0  0  0  0  0  0  0  0
    4.5599   25.4990    7.0375 C   0  0  0  0  0  0  0  0  0  0  0  0
    5.0623   24.9487    5.8674 C   0  0  0  0  0  0  0  0  0  0  0  0
    4.7396   25.5142    4.6502 C   0  0  0  0  0  0  0  0  0  0  0  0
    3.9317   26.6300    4.6090 C   0  0  0  0  0  0  0  0  0  0  0  0
    1.0140   27.9130    7.3407 N   0  0  0  0  0  0  0  0  0  0  0  0
   -0.0263   28.3391    8.0485 C   0  0  0  0  0  0  0  0  0  0  0  0
   -0.6579   27.5389    8.9117 O   0  0  0  0  0  0  0  0  0  0  0  0
   -0.4737   29.6573    7.9278 C   0  0  0  0  0  0  0  0  0  0  0  0
   -1.5063   30.3605    8.4998 N   0  0  0  0  0  0  0  0  0  0  0  0
   -0.2480   31.7403    7.2383 N   0  0  0  0  0  0  0  0  0  0  0  0
    0.3135   30.4927    7.1185 C   0  0  0  0  0  0  0  0  0  0  0  0
    1.3666   30.1076    6.4002 N   0  0  0  0  0  0  0  0  0  0  0  0
    2.6526   28.3444    5.7002 N   0  0  0  0  0  0  0  0  0  0  0  0
    3.4223   27.1970    5.7857 C   0  0  0  0  0  0  0  0  0  0  0  0
    3.7453   26.6130    7.0056 C   0  0  0  0  0  0  0  0  0  0  0  0
   -1.9928   32.4094    8.2921 H   0  0  0  0  0  0  0  0  0  0  0  0
   -0.7054   25.7100    7.9951 H   0  0  0  0  0  0  0  0  0  0  0  0
    0.7661   26.0369    8.9163 H   0  0  0  0  0  0  0  0  0  0  0  0
   -1.9965   25.6046   10.0836 H   0  0  0  0  0  0  0  0  0  0  0  0
    0.4550   23.8140    9.9492 H   0  0  0  0  0  0  0  0  0  0  0  0
   -1.0540   23.5590    9.0956 H   0  0  0  0  0  0  0  0  0  0  0  0
   -0.9100   22.1349   11.1401 H   0  0  0  0  0  0  0  0  0  0  0  0
   -2.2479   23.2415   11.2229 H   0  0  0  0  0  0  0  0  0  0  0  0
    0.4542   23.6353   12.5724 H   0  0  0  0  0  0  0  0  0  0  0  0
   -1.0531   23.2436   13.3817 H   0  0  0  0  0  0  0  0  0  0  0  0
   -2.0148   25.4137   12.6916 H   0  0  0  0  0  0  0  0  0  0  0  0
   -0.5212   25.6701   13.5482 H   0  0  0  0  0  0  0  0  0  0  0  0
   -0.6022   27.0804   11.5029 H   0  0  0  0  0  0  0  0  0  0  0  0
    0.7043   25.9240   11.4270 H   0  0  0  0  0  0  0  0  0  0  0  0
    5.7511   24.1133    5.9059 H   0  0  0  0  0  0  0  0  0  0  0  0
    5.1333   25.0965    3.7340 H   0  0  0  0  0  0  0  0  0  0  0  0
    3.6912   27.0488    3.6490 H   0  0  0  0  0  0  0  0  0  0  0  0
    0.0175   32.6000    6.7522 H   0  0  0  0  0  0  0  0  0  0  0  0
    3.0739   29.0882    5.1536 H   0  0  0  0  0  0  0  0  0  0  0  0
    3.3331   27.0272    7.9122 H   0  0  0  0  0  0  0  0  0  0  0  0
    4.8829   24.9016    8.3540 C   0  0  0  0  0  0  0  0  0  0  0  0
    4.6981   25.6229    9.1413 H   0  0  0  0  0  0  0  0  0  0  0  0
    4.0893   23.7329    8.6029 O   0  0  0  0  0  0  0  0  0  0  0  0
    5.9425   24.6332    8.4049 H   0  0  0  0  0  0  0  0  0  0  0  0
    4.1059   23.6721    9.5851 H   0  0  0  0  0  0  0  0  0  0  0  0
  1 14  2  0
  1 21  1  0
  1 22  1  0
  2 18  2  0
  2 19  1  0
  2 25  1  0
  3  4  1  0
  3 16  1  0
  3 26  1  0
  3 27  1  0
  4  5  1  0
  4  9  1  0
  4 28  1  0
  5  6  1  0
  5 29  1  0
  5 30  1  0
  6  7  1  0
  6 31  1  0
  6 32  1  0
  7  8  1  0
  7 33  1  0
  7 34  1  0
  8  9  1  0
  8 35  1  0
  8 36  1  0
  9 37  1  0
  9 38  1  0
 10 11  2  0
 10 24  1  0
 10 45  1  0
 11 12  1  0
 11 39  1  0
 12 13  2  0
 12 40  1  0
 13 23  1  0
 13 41  1  0
 14 15  1  0
 15 16  1  0
 15 17  2  0
 17 18  1  0
 17 20  1  0
 19 20  1  0
 19 42  1  0
 20 21  2  0
 22 23  1  0
 22 43  1  0
 23 24  2  0
 24 44  1  0
 45 46  1  0
 45 47  1  0
 45 48  1  0
 47 49  1  0
M  END
>  <r_exp_dg>  (11) 
-8.72

>  <mol_id>  (11) 
13

>  <source_index>  (11) 
13

>  <paff>  (11) 
6.3929620726017653

>  <source_r_exp_dg>  (11) 
-8.7200000000000006

>  <smiles>  (11) 
OCc1cccc(Nc2nc(OCC3CCCCC3)c3nc[nH]c3n2)c1

>  <aimnet_interaction_kcal_mol>  (11) 
-76.313113441431241

$$$$
cdk2_014
     RDKit          3D

 54 57  0  0  1  0  0  0  0  0999 V2000
    0.8365   29.4902    6.6056 C   0  0  0  0  0  0  0  0  0  0  0  0
   -2.2334   32.0007    8.3664 C   0  0  0  0  0  0  0  0  0  0  0  0
   -0.9993   26.5131    8.6790 C   0  0  0  0  0  0  0  0  0  0  0  0
   -1.5456   25.7192    9.8367 C   0  0  0  0  0  0  0  0  0  0  0  0
   -1.0072   24.2934    9.7585 C   0  0  0  0  0  0  0  0  0  0  0  0
   -1.4545   23.4470   10.9370 C   0  0  0  0  0  0  0  0  0  0  0  0
   -1.1040   24.1063   12.2636 C   0  0  0  0  0  0  0  0  0  0  0  0
   -1.6973   25.5056   12.3456 C   0  0  0  0  0  0  0  0  0  0  0  0
   -1.2293   26.3619   11.1801 C   0  0  0  0  0  0  0  0  0  0  0  0
    4.5457   26.5567    5.7386 C   0  0  0  0  0  0  0  0  0  0  0  0
    4.2329   25.8665    6.9024 C   0  0  0  0  0  0  0  0  0  0  0  0
    3.1863   26.2897    7.7350 C   0  0  0  0  0  0  0  0  0  0  0  0
    2.6496   27.5256    7.5186 C   0  0  0  0  0  0  0  0  0  0  0  0
    0.1534   28.4975    7.2089 N   0  0  0  0  0  0  0  0  0  0  0  0
   -0.8540   28.8036    8.0154 C   0  0  0  0  0  0  0  0  0  0  0  0
   -1.4821   27.8711    8.7353 O   0  0  0  0  0  0  0  0  0  0  0  0
   -1.2638   30.1354    8.1151 C   0  0  0  0  0  0  0  0  0  0  0  0
   -2.3267   30.7462    8.7300 N   0  0  0  0  0  0  0  0  0  0  0  0
   -1.1301   32.2692    7.5839 N   0  0  0  0  0  0  0  0  0  0  0  0
   -0.5075   31.0688    7.3879 C   0  0  0  0  0  0  0  0  0  0  0  0
    0.5620   30.7949    6.6371 N   0  0  0  0  0  0  0  0  0  0  0  0
    1.9659   29.1277    5.8871 N   0  0  0  0  0  0  0  0  0  0  0  0
    2.8054   28.1135    6.2620 C   0  0  0  0  0  0  0  0  0  0  0  0
    3.7918   27.6374    5.3850 C   0  0  0  0  0  0  0  0  0  0  0  0
   -2.9561   32.7427    8.6194 H   0  0  0  0  0  0  0  0  0  0  0  0
   -1.2942   26.0752    7.7278 H   0  0  0  0  0  0  0  0  0  0  0  0
    0.0835   26.5403    8.6983 H   0  0  0  0  0  0  0  0  0  0  0  0
   -2.6304   25.6703    9.7336 H   0  0  0  0  0  0  0  0  0  0  0  0
    0.0829   24.3291    9.7254 H   0  0  0  0  0  0  0  0  0  0  0  0
   -1.3230   23.8339    8.8198 H   0  0  0  0  0  0  0  0  0  0  0  0
   -1.0158   22.4496   10.8710 H   0  0  0  0  0  0  0  0  0  0  0  0
   -2.5315   23.2977   10.8824 H   0  0  0  0  0  0  0  0  0  0  0  0
   -0.0163   24.1686   12.3630 H   0  0  0  0  0  0  0  0  0  0  0  0
   -1.4607   23.4951   13.0942 H   0  0  0  0  0  0  0  0  0  0  0  0
   -1.4423   25.9804   13.2890 H   0  0  0  0  0  0  0  0  0  0  0  0
   -2.7851   25.4438   12.3381 H   0  0  0  0  0  0  0  0  0  0  0  0
   -1.6757   27.3531   11.2275 H   0  0  0  0  0  0  0  0  0  0  0  0
   -0.1528   26.5154   11.2490 H   0  0  0  0  0  0  0  0  0  0  0  0
    2.0486   28.0010    8.2640 H   0  0  0  0  0  0  0  0  0  0  0  0
   -0.8269   33.1351    7.1343 H   0  0  0  0  0  0  0  0  0  0  0  0
    2.2840   29.7361    5.1463 H   0  0  0  0  0  0  0  0  0  0  0  0
    3.9892   28.1554    4.4676 H   0  0  0  0  0  0  0  0  0  0  0  0
    5.1180   24.3884    7.0883 S   0  0  0  0  0  0  0  0  0  0  0  0
    6.5704   24.5578    7.3026 O   0  0  0  0  0  0  0  0  0  0  0  0
    4.7461   23.4698    5.9718 O   0  0  0  0  0  0  0  0  0  0  0  0
    3.5261   24.1300    8.5910 H   0  0  0  0  0  0  0  0  0  0  0  0
    4.4512   23.7074    8.4637 N   0  0  0  0  0  0  0  0  0  0  0  0
    4.9399   23.9074    9.3477 H   0  0  0  0  0  0  0  0  0  0  0  0
    2.5617   25.4284    8.6118 O   0  0  0  0  0  0  0  0  0  0  0  0
    2.3930   25.9038    9.9466 C   0  0  0  0  0  0  0  0  0  0  0  0
    2.1595   25.0537   10.5788 H   0  0  0  0  0  0  0  0  0  0  0  0
    3.3184   26.3635   10.2662 H   0  0  0  0  0  0  0  0  0  0  0  0
    1.5944   26.6326    9.9836 H   0  0  0  0  0  0  0  0  0  0  0  0
    5.3686   26.2251    5.1232 H   0  0  0  0  0  0  0  0  0  0  0  0
  1 14  2  0
  1 21  1  0
  1 22  1  0
  2 18  2  0
  2 19  1  0
  2 25  1  0
  3  4  1  0
  3 16  1  0
  3 26  1  0
  3 27  1  0
  4  5  1  0
  4  9  1  0
  4 28  1  0
  5  6  1  0
  5 29  1  0
  5 30  1  0
  6  7  1  0
  6 31  1  0
  6 32  1  0
  7  8  1  0
  7 33  1  0
  7 34  1  0
  8  9  1  0
  8 35  1  0
  8 36  1  0
  9 37  1  0
  9 38  1  0
 10 11  2  0
 10 24  1  0
 10 54  1  0
 11 12  1  0
 11 43  1  0
 12 13  2  0
 12 49  1  0
 13 23  1  0
 13 39  1  0
 14 15  1  0
 15 16  1  0
 15 17  2  0
 17 18  1  0
 17 20  1  0
 19 20  1  0
 19 40  1  0
 20 21  2  0
 22 23  1  0
 22 41  1  0
 23 24  2  0
 24 42  1  0
 43 44  2  0
 43 45  2  0
 43 47  1  0
 46 47  1  0
 47 48  1  0
 49 50  1  0
 50 51  1  0
 50 52  1  0
 50 53  1  0
M  END
>  <r_exp_dg>  (12) 
-9.75

>  <mol_id>  (12) 
14

>  <source_index>  (12) 
14

>  <paff>  (12) 
7.1480938416422282

>  <source_r_exp_dg>  (12) 
-9.75

>  <smiles>  (12) 
COc1cc(Nc2nc(OCC3CCCCC3)c3nc[nH]c3n2)ccc1S(N)(=O)=O

>  <aimnet_interaction_kcal_mol>  (12) 
-76.287822518531101

$$$$
cdk2_015
     RDKit          3D

 45 48  0  0  1  0  0  0  0  0999 V2000
    1.6869   28.7490    6.8741 C   0  0  0  0  0  0  0  0  0  0  0  0
   -1.3721   31.6285    8.0265 C   0  0  0  0  0  0  0  0  0  0  0  0
   -0.6368   26.1038    8.8508 C   0  0  0  0  0  0  0  0  0  0  0  0
   -1.1229   25.4172   10.0985 C   0  0  0  0  0  0  0  0  0  0  0  0
   -0.7840   23.9306   10.0018 C   0  0  0  0  0  0  0  0  0  0  0  0
   -1.1954   23.1638   11.2472 C   0  0  0  0  0  0  0  0  0  0  0  0
   -0.5956   23.7834   12.5032 C   0  0  0  0  0  0  0  0  0  0  0  0
   -0.9555   25.2584   12.6117 C   0  0  0  0  0  0  0  0  0  0  0  0
   -0.5297   26.0175   11.3656 C   0  0  0  0  0  0  0  0  0  0  0  0
    5.0556   25.3834    5.9035 C   0  0  0  0  0  0  0  0  0  0  0  0
    4.9789   24.7586    7.1429 C   0  0  0  0  0  0  0  0  0  0  0  0
    4.1569   25.2764    8.1365 C   0  0  0  0  0  0  0  0  0  0  0  0
    3.4219   26.4227    7.9044 C   0  0  0  0  0  0  0  0  0  0  0  0
    0.9105   27.8844    7.5557 N   0  0  0  0  0  0  0  0  0  0  0  0
   -0.1965   28.3270    8.1276 C   0  0  0  0  0  0  0  0  0  0  0  0
   -0.9545   27.5163    8.8746 O   0  0  0  0  0  0  0  0  0  0  0  0
   -0.5742   29.6640    7.9650 C   0  0  0  0  0  0  0  0  0  0  0  0
   -1.6174   30.4109    8.4547 N   0  0  0  0  0  0  0  0  0  0  0  0
   -0.2250   31.7323    7.2715 N   0  0  0  0  0  0  0  0  0  0  0  0
    0.3060   30.4648    7.2093 C   0  0  0  0  0  0  0  0  0  0  0  0
    1.4213   30.0447    6.6068 N   0  0  0  0  0  0  0  0  0  0  0  0
    2.8782   28.2702    6.3802 N   0  0  0  0  0  0  0  0  0  0  0  0
    3.5108   27.0718    6.6667 C   0  0  0  0  0  0  0  0  0  0  0  0
    4.3244   26.5281    5.6623 C   0  0  0  0  0  0  0  0  0  0  0  0
   -2.0010   32.4759    8.2163 H   0  0  0  0  0  0  0  0  0  0  0  0
   -1.1150   25.6827    7.9669 H   0  0  0  0  0  0  0  0  0  0  0  0
    0.4392   26.0042    8.7424 H   0  0  0  0  0  0  0  0  0  0  0  0
   -2.2100   25.5214   10.1399 H   0  0  0  0  0  0  0  0  0  0  0  0
    0.2977   23.8290    9.8598 H   0  0  0  0  0  0  0  0  0  0  0  0
   -1.2511   23.5013    9.1113 H   0  0  0  0  0  0  0  0  0  0  0  0
   -0.9122   22.1125   11.1571 H   0  0  0  0  0  0  0  0  0  0  0  0
   -2.2812   23.1721   11.3259 H   0  0  0  0  0  0  0  0  0  0  0  0
    0.4937   23.6834   12.4752 H   0  0  0  0  0  0  0  0  0  0  0  0
   -0.9369   23.2446   13.3915 H   0  0  0  0  0  0  0  0  0  0  0  0
   -0.4902   25.6927   13.4908 H   0  0  0  0  0  0  0  0  0  0  0  0
   -2.0319   25.3619   12.7512 H   0  0  0  0  0  0  0  0  0  0  0  0
   -0.8052   27.0686   11.4458 H   0  0  0  0  0  0  0  0  0  0  0  0
    0.5574   25.9869   11.2806 H   0  0  0  0  0  0  0  0  0  0  0  0
    5.7287   25.0049    5.1482 H   0  0  0  0  0  0  0  0  0  0  0  0
    5.6546   23.9406    7.3641 H   0  0  0  0  0  0  0  0  0  0  0  0
    4.1261   24.8051    9.1088 H   0  0  0  0  0  0  0  0  0  0  0  0
    2.7781   26.8256    8.6654 H   0  0  0  0  0  0  0  0  0  0  0  0
    0.0834   32.5749    6.7815 H   0  0  0  0  0  0  0  0  0  0  0  0
    3.3869   28.9209    5.7828 H   0  0  0  0  0  0  0  0  0  0  0  0
    4.3799   27.0245    4.7042 H   0  0  0  0  0  0  0  0  0  0  0  0
  1 14  2  0
  1 21  1  0
  1 22  1  0
  2 18  2  0
  2 19  1  0
  2 25  1  0
  3  4  1  0
  3 16  1  0
  3 26  1  0
  3 27  1  0
  4  5  1  0
  4  9  1  0
  4 28  1  0
  5  6  1  0
  5 29  1  0
  5 30  1  0
  6  7  1  0
  6 31  1  0
  6 32  1  0
  7  8  1  0
  7 33  1  0
  7 34  1  0
  8  9  1  0
  8 35  1  0
  8 36  1  0
  9 37  1  0
  9 38  1  0
 10 11  2  0
 10 24  1  0
 10 39  1  0
 11 12  1  0
 11 40  1  0
 12 13  2  0
 12 41  1  0
 13 23  1  0
 13 42  1  0
 14 15  1  0
 15 16  1  0
 15 17  2  0
 17 18  1  0
 17 20  1  0
 19 20  1  0
 19 43  1  0
 20 21  2  0
 22 23  1  0
 22 44  1  0
 23 24  2  0
 24 45  1  0
M  END
>  <r_exp_dg>  (13) 
-8.18

>  <mol_id>  (13) 
15

>  <source_index>  (13) 
15

>  <paff>  (13) 
5.9970676724162617

>  <source_r_exp_dg>  (13) 
-8.1799999999999997

>  <smiles>  (13) 
c1ccc(Nc2nc(OCC3CCCCC3)c3nc[nH]c3n2)cc1

>  <aimnet_interaction_kcal_mol>  (13) 
-62.102591426790767

$$$$
