L1:P49759:114565


 17 18  0  0  0  0  0  0  0  0999 V2000
   39.5238   31.0976    0.0100 N   0  0  0  0  0  0  0  0  0  0  0  0
   39.6770   30.9012   -1.3737 C   0  0  0  0  0  0  0  0  0  0  0  0
   40.8501   30.8215   -2.0259 C   0  0  0  0  0  0  0  0  0  0  0  0
   38.1239   30.8335   -2.2506 S   0  0  0  0  0  0  0  0  0  0  0  0
   37.2740   31.1113   -0.7063 C   0  0  0  0  0  0  0  0  0  0  0  0
   35.9000   31.2125   -0.5438 C   0  0  0  0  0  0  0  0  0  0  0  0
   35.3922   31.4421    0.7368 C   0  0  0  0  0  0  0  0  0  0  0  0
   36.2598   31.5686    1.8298 C   0  0  0  0  0  0  0  0  0  0  0  0
   37.6472   31.4626    1.6437 C   0  0  0  0  0  0  0  0  0  0  0  0
   38.1692   31.2312    0.3751 C   0  0  0  0  0  0  0  0  0  0  0  0
   41.0956   30.6160   -3.4756 C   0  0  0  0  0  0  0  0  0  0  0  0
   40.6233   29.3576   -4.1537 C   0  0  0  0  0  0  0  0  0  0  0  0
   41.7609   31.4573   -4.0808 O   0  0  0  0  0  0  0  0  0  0  0  0
   41.1212   32.6616    1.0287 C   0  0  0  0  0  0  0  0  0  0  0  0
   40.5849   31.2381    1.0021 C   0  0  0  0  0  0  0  0  0  0  0  0
   35.8820   31.7966    3.1266 O   0  0  0  0  0  0  0  0  0  0  0  0
   34.6225   32.4248    3.3311 C   0  0  0  0  0  0  0  0  0  0  0  0
 14 15  1  0  0  0
 15  1  1  0  0  0
  1  2  1  0  0  0
  2  3  2  0  0  0
  3 11  1  0  0  0
 11 12  1  0  0  0
 11 13  2  0  0  0
  2  4  1  0  0  0
  4  5  1  0  0  0
  5  6  2  0  0  0
  6  7  1  0  0  0
  7  8  2  0  0  0
  8 16  1  0  0  0
 16 17  1  0  0  0
  8  9  1  0  0  0
  9 10  2  0  0  0
 10  1  1  0  0  0
 10  5  1  0  0  0
M  END
> <minimizedAffinity>
-6.70429

$$$$
