L1:P49759:114565
     RDKit          3D

 32 33  0  0  0  0  0  0  0  0999 V2000
   -0.6310   -2.9777   -0.5651 C   0  0  0  0  0  0  0  0  0  0  0  0
   -0.6187   -2.1678    0.7228 C   0  0  0  0  0  0  0  0  0  0  0  0
   -0.6598   -0.7365    0.4408 N   0  0  0  0  0  0  0  0  0  0  0  0
   -1.8043    0.0694    0.3087 C   0  0  0  0  0  0  0  0  0  0  0  0
   -3.0755   -0.3570    0.4100 C   0  0  0  0  0  0  0  0  0  0  0  0
   -4.3311    0.4253    0.2850 C   0  0  0  0  0  0  0  0  0  0  0  0
   -4.4946    1.7213    1.0333 C   0  0  0  0  0  0  0  0  0  0  0  0
   -5.2543   -0.0527   -0.3752 O   0  0  0  0  0  0  0  0  0  0  0  0
   -1.4265    1.7669   -0.0927 S   0  0  0  0  0  0  0  0  0  0  0  0
    0.3075    1.3458   -0.1097 C   0  0  0  0  0  0  0  0  0  0  0  0
    1.3508    2.2175   -0.3854 C   0  0  0  0  0  0  0  0  0  0  0  0
    2.6576    1.7249   -0.3673 C   0  0  0  0  0  0  0  0  0  0  0  0
    2.9012    0.3758   -0.0778 C   0  0  0  0  0  0  0  0  0  0  0  0
    4.1333   -0.2212   -0.0334 O   0  0  0  0  0  0  0  0  0  0  0  0
    5.2594    0.6006   -0.3149 C   0  0  0  0  0  0  0  0  0  0  0  0
    1.8310   -0.4896    0.1987 C   0  0  0  0  0  0  0  0  0  0  0  0
    0.5236   -0.0143    0.1877 C   0  0  0  0  0  0  0  0  0  0  0  0
   -0.6180   -4.0484   -0.3387 H   0  0  0  0  0  0  0  0  0  0  0  0
    0.2402   -2.7525   -1.1883 H   0  0  0  0  0  0  0  0  0  0  0  0
   -1.5279   -2.7663   -1.1565 H   0  0  0  0  0  0  0  0  0  0  0  0
   -1.4785   -2.4602    1.3368 H   0  0  0  0  0  0  0  0  0  0  0  0
    0.2556   -2.4321    1.3286 H   0  0  0  0  0  0  0  0  0  0  0  0
   -3.2836   -1.4114    0.5522 H   0  0  0  0  0  0  0  0  0  0  0  0
   -5.4926    1.7437    1.4821 H   0  0  0  0  0  0  0  0  0  0  0  0
   -4.3894    2.5638    0.3461 H   0  0  0  0  0  0  0  0  0  0  0  0
   -3.7724    1.8034    1.8497 H   0  0  0  0  0  0  0  0  0  0  0  0
    1.1581    3.2610   -0.6133 H   0  0  0  0  0  0  0  0  0  0  0  0
    3.4643    2.4171   -0.5853 H   0  0  0  0  0  0  0  0  0  0  0  0
    5.3543    1.4054    0.4215 H   0  0  0  0  0  0  0  0  0  0  0  0
    6.1551   -0.0239   -0.2423 H   0  0  0  0  0  0  0  0  0  0  0  0
    5.2128    0.9987   -1.3339 H   0  0  0  0  0  0  0  0  0  0  0  0
    2.0535   -1.5289    0.4140 H   0  0  0  0  0  0  0  0  0  0  0  0
  1  2  1  0
  2  3  1  0
  3  4  1  0
  4  5  2  0
  5  6  1  0
  6  7  1  0
  6  8  2  0
  4  9  1  0
  9 10  1  0
 10 11  2  0
 11 12  1  0
 12 13  2  0
 13 14  1  0
 14 15  1  0
 13 16  1  0
 16 17  2  0
 17  3  1  0
 17 10  1  0
  1 18  1  0
  1 19  1  0
  1 20  1  0
  2 21  1  0
  2 22  1  0
  5 23  1  0
  7 24  1  0
  7 25  1  0
  7 26  1  0
 11 27  1  0
 12 28  1  0
 15 29  1  0
 15 30  1  0
 15 31  1  0
 16 32  1  0
M  END
>  <mol_id>  (1) 
114565

>  <source_index>  (1) 
7

>  <layer>  (1) 
L1

>  <uniprot>  (1) 
P49759

>  <paff>  (1) 
7.585

>  <smiles>  (1) 
CCN\1c2cc(ccc2S/C1=C\C(=O)C)OC

$$$$
