L1:P49759:135630


 37 41  0  0  0  0  0  0  0  0999 V2000
   35.5552   33.0679    4.2804 C   0  0  0  0  0  0  0  0  0  0  0  0
   34.8422   32.9501    3.2888 O   0  0  0  0  0  0  0  0  0  0  0  0
   36.9267   32.9443    4.3102 N   0  0  0  0  0  0  0  0  0  0  0  0
   37.4534   33.1478    5.1465 H   0  0  0  0  0  0  0  0  0  0  0  0
   37.7149   32.5957    3.2457 C   0  0  0  0  0  0  0  0  0  0  0  0
   37.4358   31.8009    2.1620 C   0  0  0  0  0  0  0  0  0  0  0  0
   38.5818   31.7932    1.4131 N   0  0  0  0  0  0  0  0  0  0  0  0
   38.8494   31.1463    0.2099 C   0  0  0  0  0  0  0  0  0  0  0  0
   40.0654   31.2784   -0.3603 C   0  0  0  0  0  0  0  0  0  0  0  0
   41.0584   32.1081    0.3293 C   0  0  0  0  0  0  0  0  0  0  0  0
   40.7879   32.7296    1.4938 C   0  0  0  0  0  0  0  0  0  0  0  0
   39.5037   32.5859    2.0875 C   0  0  0  0  0  0  0  0  0  0  0  0
   38.9947   33.0775    3.1985 N   0  0  0  0  0  0  0  0  0  0  0  0
   40.3407   30.5842   -1.6278 C   0  0  0  0  0  0  0  0  0  0  0  0
   39.8690   29.2895   -1.8504 C   0  0  0  0  0  0  0  0  0  0  0  0
   40.1502   28.6882   -3.0657 C   0  0  0  0  0  0  0  0  0  0  0  0
   40.8553   29.2822   -4.0519 N   0  0  0  0  0  0  0  0  0  0  0  0
   41.2990   30.5347   -3.8134 C   0  0  0  0  0  0  0  0  0  0  0  0
   41.0690   31.2215   -2.6331 C   0  0  0  0  0  0  0  0  0  0  0  0
   33.6356   34.0786    8.0255 C   0  0  0  0  0  0  0  0  0  0  0  0
   35.0271   33.8916    7.9655 C   0  0  0  0  0  0  0  0  0  0  0  0
   35.6638   33.5596    6.7618 C   0  0  0  0  0  0  0  0  0  0  0  0
   34.9212   33.4156    5.5855 C   0  0  0  0  0  0  0  0  0  0  0  0
   33.5346   33.5742    5.6307 C   0  0  0  0  0  0  0  0  0  0  0  0
   32.9023   33.9049    6.8329 C   0  0  0  0  0  0  0  0  0  0  0  0
   32.8815   34.4659    9.3351 C   0  0  0  0  0  0  0  0  0  0  0  0
   31.3830   34.3662    8.9800 C   0  0  0  0  0  0  0  0  0  0  0  0
   33.1929   35.9063    9.7930 C   0  0  0  0  0  0  0  0  0  0  0  0
   32.3517   28.1587   11.5197 C   0  0  0  0  0  0  0  0  0  0  0  0
   32.8281   29.1655   10.5749 N   0  0  0  0  0  0  0  0  0  0  0  0
   34.0107   29.8866   11.0881 C   0  0  0  0  0  0  0  0  0  0  0  0
   33.7530   31.3397   11.5286 C   0  0  0  0  0  0  0  0  0  0  0  0
   33.1210   32.1470   10.4744 N   0  0  0  0  0  0  0  0  0  0  0  0
   33.3549   33.5145   10.4919 C   0  0  0  0  0  0  0  0  0  0  0  0
   33.9212   34.0043   11.4802 O   0  0  0  0  0  0  0  0  0  0  0  0
   32.2482   31.3952    9.5669 C   0  0  0  0  0  0  0  0  0  0  0  0
   31.7387   30.0830   10.1956 C   0  0  0  0  0  0  0  0  0  0  0  0
 29 30  1  0  0  0
 30 31  1  0  0  0
 31 32  1  0  0  0
 32 33  1  0  0  0
 33 34  1  0  0  0
 34 35  2  0  0  0
 34 26  1  0  0  0
 26 27  1  0  0  0
 26 28  1  0  0  0
 26 20  1  0  0  0
 20 21  2  0  0  0
 21 22  1  0  0  0
 22 23  2  0  0  0
 23  1  1  0  0  0
  1  2  2  0  0  0
  1  3  1  0  0  0
  3  5  1  0  0  0
  5  6  2  0  0  0
  6  7  1  0  0  0
  7  8  1  0  0  0
  8  9  2  0  0  0
  9 14  1  0  0  0
 14 15  2  0  0  0
 15 16  1  0  0  0
 16 17  2  0  0  0
 17 18  1  0  0  0
 18 19  2  0  0  0
  9 10  1  0  0  0
 10 11  2  0  0  0
 11 12  1  0  0  0
 12 13  2  0  0  0
 23 24  1  0  0  0
 24 25  2  0  0  0
 33 36  1  0  0  0
 36 37  1  0  0  0
 37 30  1  0  0  0
 25 20  1  0  0  0
 13  5  1  0  0  0
 12  7  1  0  0  0
 19 14  1  0  0  0
  3  4  1  0  0  0
M  END
> <minimizedAffinity>
-9.56613

$$$$
