L1:P49759:135630
     RDKit          3D

 66 70  0  0  0  0  0  0  0  0999 V2000
  -10.0920   -1.4494   -0.1294 C   0  0  0  0  0  0  0  0  0  0  0  0
   -8.8658   -0.8608   -0.6615 N   0  0  0  0  0  0  0  0  0  0  0  0
   -7.7813   -1.8570   -0.7764 C   0  0  0  0  0  0  0  0  0  0  0  0
   -6.6477   -1.7149    0.2565 C   0  0  0  0  0  0  0  0  0  0  0  0
   -6.0596   -0.3672    0.2694 N   0  0  0  0  0  0  0  0  0  0  0  0
   -4.7381   -0.2520    0.6763 C   0  0  0  0  0  0  0  0  0  0  0  0
   -4.1851   -1.2433    1.1750 O   0  0  0  0  0  0  0  0  0  0  0  0
   -3.9400    1.0974    0.5781 C   0  0  0  0  0  0  0  0  0  0  0  0
   -4.2759    1.9663   -0.6522 C   0  0  0  0  0  0  0  0  0  0  0  0
   -4.2635    1.8957    1.8584 C   0  0  0  0  0  0  0  0  0  0  0  0
   -2.4199    0.7735    0.4435 C   0  0  0  0  0  0  0  0  0  0  0  0
   -1.4566    1.2023    1.3724 C   0  0  0  0  0  0  0  0  0  0  0  0
   -0.0985    0.9008    1.2016 C   0  0  0  0  0  0  0  0  0  0  0  0
    0.3287    0.1688    0.0891 C   0  0  0  0  0  0  0  0  0  0  0  0
    1.7635   -0.1719   -0.1375 C   0  0  0  0  0  0  0  0  0  0  0  0
    2.0385   -1.2037   -0.7418 O   0  0  0  0  0  0  0  0  0  0  0  0
    2.6670    0.7527    0.3378 N   0  0  0  0  0  0  0  0  0  0  0  0
    4.0301    0.6335    0.2769 C   0  0  0  0  0  0  0  0  0  0  0  0
    4.8072   -0.3862   -0.2132 C   0  0  0  0  0  0  0  0  0  0  0  0
    6.1007    0.0186   -0.0205 N   0  0  0  0  0  0  0  0  0  0  0  0
    7.2894   -0.6334   -0.3364 C   0  0  0  0  0  0  0  0  0  0  0  0
    8.4685   -0.0413   -0.0528 C   0  0  0  0  0  0  0  0  0  0  0  0
    9.7190   -0.7421   -0.3834 C   0  0  0  0  0  0  0  0  0  0  0  0
   10.1081   -0.9209   -1.7120 C   0  0  0  0  0  0  0  0  0  0  0  0
   11.2997   -1.5797   -1.9642 C   0  0  0  0  0  0  0  0  0  0  0  0
   12.1108   -2.0604   -0.9980 N   0  0  0  0  0  0  0  0  0  0  0  0
   11.7138   -1.8736    0.2787 C   0  0  0  0  0  0  0  0  0  0  0  0
   10.5421   -1.2266    0.6340 C   0  0  0  0  0  0  0  0  0  0  0  0
    8.4359    1.2784    0.5855 C   0  0  0  0  0  0  0  0  0  0  0  0
    7.2789    1.8999    0.8866 C   0  0  0  0  0  0  0  0  0  0  0  0
    6.0408    1.2694    0.5837 C   0  0  0  0  0  0  0  0  0  0  0  0
    4.7952    1.6545    0.7713 N   0  0  0  0  0  0  0  0  0  0  0  0
   -0.6171   -0.2861   -0.8320 C   0  0  0  0  0  0  0  0  0  0  0  0
   -1.9710    0.0158   -0.6587 C   0  0  0  0  0  0  0  0  0  0  0  0
   -6.9884    0.7104   -0.0863 C   0  0  0  0  0  0  0  0  0  0  0  0
   -8.4614    0.3122    0.1341 C   0  0  0  0  0  0  0  0  0  0  0  0
  -10.8910   -0.7010   -0.0842 H   0  0  0  0  0  0  0  0  0  0  0  0
   -9.9483   -1.8638    0.8750 H   0  0  0  0  0  0  0  0  0  0  0  0
  -10.4497   -2.2503   -0.7858 H   0  0  0  0  0  0  0  0  0  0  0  0
   -8.1700   -2.8826   -0.7527 H   0  0  0  0  0  0  0  0  0  0  0  0
   -7.3432   -1.7282   -1.7748 H   0  0  0  0  0  0  0  0  0  0  0  0
   -7.0254   -1.9145    1.2669 H   0  0  0  0  0  0  0  0  0  0  0  0
   -5.8734   -2.4602    0.0420 H   0  0  0  0  0  0  0  0  0  0  0  0
   -3.4813    2.6950   -0.8590 H   0  0  0  0  0  0  0  0  0  0  0  0
   -5.1833    2.5600   -0.5143 H   0  0  0  0  0  0  0  0  0  0  0  0
   -4.4090    1.3587   -1.5545 H   0  0  0  0  0  0  0  0  0  0  0  0
   -3.9829    1.3361    2.7590 H   0  0  0  0  0  0  0  0  0  0  0  0
   -5.3312    2.1107    1.9541 H   0  0  0  0  0  0  0  0  0  0  0  0
   -3.7416    2.8594    1.8769 H   0  0  0  0  0  0  0  0  0  0  0  0
   -1.7346    1.7667    2.2583 H   0  0  0  0  0  0  0  0  0  0  0  0
    0.6015    1.2208    1.9685 H   0  0  0  0  0  0  0  0  0  0  0  0
    2.3608    1.6246    0.7430 H   0  0  0  0  0  0  0  0  0  0  0  0
    4.5605   -1.3344   -0.6686 H   0  0  0  0  0  0  0  0  0  0  0  0
    7.1999   -1.6090   -0.7999 H   0  0  0  0  0  0  0  0  0  0  0  0
    9.5050   -0.5530   -2.5351 H   0  0  0  0  0  0  0  0  0  0  0  0
   11.6450   -1.7421   -2.9814 H   0  0  0  0  0  0  0  0  0  0  0  0
   12.3848   -2.2714    1.0348 H   0  0  0  0  0  0  0  0  0  0  0  0
   10.2793   -1.1115    1.6801 H   0  0  0  0  0  0  0  0  0  0  0  0
    9.3858    1.7569    0.8083 H   0  0  0  0  0  0  0  0  0  0  0  0
    7.2627    2.8770    1.3552 H   0  0  0  0  0  0  0  0  0  0  0  0
   -0.3058   -0.8819   -1.6878 H   0  0  0  0  0  0  0  0  0  0  0  0
   -2.6803   -0.3665   -1.3909 H   0  0  0  0  0  0  0  0  0  0  0  0
   -6.7782    1.5952    0.5136 H   0  0  0  0  0  0  0  0  0  0  0  0
   -6.8249    0.9530   -1.1421 H   0  0  0  0  0  0  0  0  0  0  0  0
   -8.6033    0.1168    1.2060 H   0  0  0  0  0  0  0  0  0  0  0  0
   -9.1040    1.1600   -0.1299 H   0  0  0  0  0  0  0  0  0  0  0  0
  1  2  1  0
  2  3  1  0
  3  4  1  0
  4  5  1  0
  5  6  1  0
  6  7  2  0
  6  8  1  0
  8  9  1  0
  8 10  1  0
  8 11  1  0
 11 12  2  0
 12 13  1  0
 13 14  2  0
 14 15  1  0
 15 16  2  0
 15 17  1  0
 17 18  1  0
 18 19  2  0
 19 20  1  0
 20 21  1  0
 21 22  2  0
 22 23  1  0
 23 24  2  0
 24 25  1  0
 25 26  2  0
 26 27  1  0
 27 28  2  0
 22 29  1  0
 29 30  2  0
 30 31  1  0
 31 32  2  0
 14 33  1  0
 33 34  2  0
  5 35  1  0
 35 36  1  0
 36  2  1  0
 34 11  1  0
 32 18  1  0
 31 20  1  0
 28 23  1  0
  1 37  1  0
  1 38  1  0
  1 39  1  0
  3 40  1  0
  3 41  1  0
  4 42  1  0
  4 43  1  0
  9 44  1  0
  9 45  1  0
  9 46  1  0
 10 47  1  0
 10 48  1  0
 10 49  1  0
 12 50  1  0
 13 51  1  0
 17 52  1  0
 19 53  1  0
 21 54  1  0
 24 55  1  0
 25 56  1  0
 27 57  1  0
 28 58  1  0
 29 59  1  0
 30 60  1  0
 33 61  1  0
 34 62  1  0
 35 63  1  0
 35 64  1  0
 36 65  1  0
 36 66  1  0
M  END
>  <mol_id>  (1) 
135630

>  <source_index>  (1) 
8

>  <layer>  (1) 
L1

>  <uniprot>  (1) 
P49759

>  <paff>  (1) 
9.1738999999999997

>  <smiles>  (1) 
CN1CCN(CC1)C(=O)C(C)(C)c1ccc(cc1)C(=O)Nc1cn2cc(ccc2n1)-c1ccncc1

$$$$
