L1:P49759:142923
     RDKit          3D

 62 67  0  0  0  0  0  0  0  0999 V2000
   -7.6347    3.2432   -0.2075 C   0  0  0  0  0  0  0  0  0  0  0  0
   -7.3855    2.4774    1.0918 C   0  0  0  0  0  0  0  0  0  0  0  0
   -8.5780    1.5913    1.4513 C   0  0  0  0  0  0  0  0  0  0  0  0
   -6.0549    1.7094    1.0834 C   0  0  0  0  0  0  0  0  0  0  0  0
   -5.9024    0.5928    0.0548 C   0  0  0  0  0  0  0  0  0  0  0  0
   -6.7801    0.2876   -0.7410 O   0  0  0  0  0  0  0  0  0  0  0  0
   -4.6580   -0.0116    0.1522 N   0  0  0  0  0  0  0  0  0  0  0  0
   -4.1677   -1.0708   -0.6416 C   0  0  0  0  0  0  0  0  0  0  0  0
   -4.8614   -1.6874   -1.6769 C   0  0  0  0  0  0  0  0  0  0  0  0
   -4.3614   -2.7030   -2.4247 N   0  0  0  0  0  0  0  0  0  0  0  0
   -3.1097   -3.1213   -2.1269 C   0  0  0  0  0  0  0  0  0  0  0  0
   -2.3152   -2.5911   -1.1114 C   0  0  0  0  0  0  0  0  0  0  0  0
   -0.9620   -3.1004   -0.8332 C   0  0  0  0  0  0  0  0  0  0  0  0
   -0.7218   -4.4799   -0.6974 C   0  0  0  0  0  0  0  0  0  0  0  0
    0.5538   -4.9981   -0.4313 C   0  0  0  0  0  0  0  0  0  0  0  0
    1.5961   -4.0793   -0.2990 C   0  0  0  0  0  0  0  0  0  0  0  0
    2.9313   -4.2462   -0.0442 N   0  0  0  0  0  0  0  0  0  0  0  0
    3.6328   -3.0983    0.0147 N   0  0  0  0  0  0  0  0  0  0  0  0
    2.7030   -2.1581   -0.2114 C   0  0  0  0  0  0  0  0  0  0  0  0
    3.0764   -0.6441   -0.2238 C   0  0  0  0  0  0  0  0  0  0  0  0
    2.2512    0.3632   -0.4233 N   0  0  0  0  0  0  0  0  0  0  0  0
    3.0334    1.4945   -0.3399 C   0  0  0  0  0  0  0  0  0  0  0  0
    2.6861    2.8428   -0.4606 C   0  0  0  0  0  0  0  0  0  0  0  0
    3.6328    3.8084   -0.3299 N   0  0  0  0  0  0  0  0  0  0  0  0
    4.9158    3.4340   -0.0907 C   0  0  0  0  0  0  0  0  0  0  0  0
    5.3772    2.1204    0.0398 C   0  0  0  0  0  0  0  0  0  0  0  0
    6.7703    1.7670    0.2955 C   0  0  0  0  0  0  0  0  0  0  0  0
    7.4918    0.9662   -0.6089 C   0  0  0  0  0  0  0  0  0  0  0  0
    8.8255    0.6229   -0.3650 C   0  0  0  0  0  0  0  0  0  0  0  0
    9.4583    1.0776    0.7885 C   0  0  0  0  0  0  0  0  0  0  0  0
    8.7541    1.8719    1.6840 C   0  0  0  0  0  0  0  0  0  0  0  0
    9.3617    2.3097    2.7944 F   0  0  0  0  0  0  0  0  0  0  0  0
    7.4267    2.2197    1.4493 C   0  0  0  0  0  0  0  0  0  0  0  0
    4.3640    1.1647   -0.0925 C   0  0  0  0  0  0  0  0  0  0  0  0
    4.3555   -0.2045   -0.0124 N   0  0  0  0  0  0  0  0  0  0  0  0
    1.4137   -2.7079   -0.4190 C   0  0  0  0  0  0  0  0  0  0  0  0
    0.1234   -2.2123   -0.6920 C   0  0  0  0  0  0  0  0  0  0  0  0
   -2.8783   -1.5419   -0.3673 C   0  0  0  0  0  0  0  0  0  0  0  0
   -8.5110    3.8928   -0.1056 H   0  0  0  0  0  0  0  0  0  0  0  0
   -6.7779    3.8785   -0.4551 H   0  0  0  0  0  0  0  0  0  0  0  0
   -7.8189    2.5747   -1.0533 H   0  0  0  0  0  0  0  0  0  0  0  0
   -7.3005    3.2290    1.8887 H   0  0  0  0  0  0  0  0  0  0  0  0
   -8.3928    1.0497    2.3848 H   0  0  0  0  0  0  0  0  0  0  0  0
   -8.7997    0.8583    0.6704 H   0  0  0  0  0  0  0  0  0  0  0  0
   -9.4771    2.2008    1.5940 H   0  0  0  0  0  0  0  0  0  0  0  0
   -5.2358    2.4217    0.9186 H   0  0  0  0  0  0  0  0  0  0  0  0
   -5.8950    1.2661    2.0751 H   0  0  0  0  0  0  0  0  0  0  0  0
   -4.0313    0.3413    0.8649 H   0  0  0  0  0  0  0  0  0  0  0  0
   -5.8652   -1.3939   -1.9648 H   0  0  0  0  0  0  0  0  0  0  0  0
   -2.7470   -3.9242   -2.7643 H   0  0  0  0  0  0  0  0  0  0  0  0
   -1.5489   -5.1846   -0.7867 H   0  0  0  0  0  0  0  0  0  0  0  0
    0.7116   -6.0670   -0.3299 H   0  0  0  0  0  0  0  0  0  0  0  0
    3.4244   -5.1203    0.0999 H   0  0  0  0  0  0  0  0  0  0  0  0
    1.6722    3.1689   -0.6545 H   0  0  0  0  0  0  0  0  0  0  0  0
    5.6095    4.2694   -0.0100 H   0  0  0  0  0  0  0  0  0  0  0  0
    7.0200    0.6153   -1.5261 H   0  0  0  0  0  0  0  0  0  0  0  0
    9.3688    0.0077   -1.0782 H   0  0  0  0  0  0  0  0  0  0  0  0
   10.4932    0.8228    0.9937 H   0  0  0  0  0  0  0  0  0  0  0  0
    6.9133    2.8368    2.1820 H   0  0  0  0  0  0  0  0  0  0  0  0
    5.1406   -0.8129    0.1740 H   0  0  0  0  0  0  0  0  0  0  0  0
   -0.0160   -1.1391   -0.8040 H   0  0  0  0  0  0  0  0  0  0  0  0
   -2.3005   -1.1001    0.4413 H   0  0  0  0  0  0  0  0  0  0  0  0
  1  2  1  0
  2  3  1  0
  2  4  1  0
  4  5  1  0
  5  6  2  0
  5  7  1  0
  7  8  1  0
  8  9  2  0
  9 10  1  0
 10 11  2  0
 11 12  1  0
 12 13  1  0
 13 14  2  0
 14 15  1  0
 15 16  2  0
 16 17  1  0
 17 18  1  0
 18 19  2  0
 19 20  1  0
 20 21  2  0
 21 22  1  0
 22 23  2  0
 23 24  1  0
 24 25  2  0
 25 26  1  0
 26 27  1  0
 27 28  2  0
 28 29  1  0
 29 30  2  0
 30 31  1  0
 31 32  1  0
 31 33  2  0
 26 34  2  0
 34 35  1  0
 19 36  1  0
 36 37  2  0
 12 38  2  0
 38  8  1  0
 37 13  1  0
 36 16  1  0
 35 20  1  0
 34 22  1  0
 33 27  1  0
  1 39  1  0
  1 40  1  0
  1 41  1  0
  2 42  1  0
  3 43  1  0
  3 44  1  0
  3 45  1  0
  4 46  1  0
  4 47  1  0
  7 48  1  0
  9 49  1  0
 11 50  1  0
 14 51  1  0
 15 52  1  0
 17 53  1  0
 23 54  1  0
 25 55  1  0
 28 56  1  0
 29 57  1  0
 30 58  1  0
 33 59  1  0
 35 60  1  0
 37 61  1  0
 38 62  1  0
M  END
>  <mol_id>  (1) 
142923

>  <source_index>  (1) 
9

>  <layer>  (1) 
L1

>  <uniprot>  (1) 
P49759

>  <paff>  (1) 
6.6215999999999999

>  <smiles>  (1) 
CC(C)CC(=O)Nc1cncc(-c2ccc3[nH]nc(-c4nc5cncc(-c6cccc(F)c6)c5[nH]4)c3c2)c1

$$$$
