L1:P49759:142923


 41 46  0  0  0  0  0  0  0  0999 V2000
   39.6922   31.6158   -0.2834 C   0  0  0  0  0  0  0  0  0  0  0  0
   41.0237   31.9861   -0.5463 C   0  0  0  0  0  0  0  0  0  0  0  0
   41.6610   31.6888   -1.7596 C   0  0  0  0  0  0  0  0  0  0  0  0
   40.9122   31.0032   -2.7173 C   0  0  0  0  0  0  0  0  0  0  0  0
   41.2240   30.5682   -3.9779 N   0  0  0  0  0  0  0  0  0  0  0  0
   40.2184   29.9349   -4.6111 N   0  0  0  0  0  0  0  0  0  0  0  0
   39.2211   29.9689   -3.7146 C   0  0  0  0  0  0  0  0  0  0  0  0
   39.5939   30.6181   -2.5115 C   0  0  0  0  0  0  0  0  0  0  0  0
   38.9776   30.9237   -1.2820 C   0  0  0  0  0  0  0  0  0  0  0  0
   42.1080   30.6742   -4.4630 H   0  0  0  0  0  0  0  0  0  0  0  0
   37.8286   29.3450   -4.0363 C   0  0  0  0  0  0  0  0  0  0  0  0
   37.6066   28.2246   -4.6926 N   0  0  0  0  0  0  0  0  0  0  0  0
   36.2358   28.0878   -4.7229 C   0  0  0  0  0  0  0  0  0  0  0  0
   35.4412   27.0815   -5.2788 C   0  0  0  0  0  0  0  0  0  0  0  0
   34.0877   27.1445   -5.1805 N   0  0  0  0  0  0  0  0  0  0  0  0
   33.5301   28.2055   -4.5426 C   0  0  0  0  0  0  0  0  0  0  0  0
   34.2239   29.2700   -3.9587 C   0  0  0  0  0  0  0  0  0  0  0  0
   35.6130   29.1537   -4.0775 C   0  0  0  0  0  0  0  0  0  0  0  0
   36.6559   29.9305   -3.6414 N   0  0  0  0  0  0  0  0  0  0  0  0
   36.6012   30.7903   -3.1130 H   0  0  0  0  0  0  0  0  0  0  0  0
   33.5782   30.3920   -3.2840 C   0  0  0  0  0  0  0  0  0  0  0  0
   32.2717   30.7874   -3.6253 C   0  0  0  0  0  0  0  0  0  0  0  0
   31.6517   31.8641   -2.9832 C   0  0  0  0  0  0  0  0  0  0  0  0
   32.3303   32.5613   -1.9876 C   0  0  0  0  0  0  0  0  0  0  0  0
   33.6187   32.1745   -1.6422 C   0  0  0  0  0  0  0  0  0  0  0  0
   34.2728   32.8447   -0.6847 F   0  0  0  0  0  0  0  0  0  0  0  0
   34.2436   31.1034   -2.2749 C   0  0  0  0  0  0  0  0  0  0  0  0
   37.1375   31.8951    2.5144 C   0  0  0  0  0  0  0  0  0  0  0  0
   37.9117   32.6026    3.4273 C   0  0  0  0  0  0  0  0  0  0  0  0
   39.1925   32.9866    3.1977 N   0  0  0  0  0  0  0  0  0  0  0  0
   39.7265   32.6466    2.0020 C   0  0  0  0  0  0  0  0  0  0  0  0
   39.0541   31.9458    1.0018 C   0  0  0  0  0  0  0  0  0  0  0  0
   37.7317   31.5710    1.2890 C   0  0  0  0  0  0  0  0  0  0  0  0
   34.6619   32.2525    2.5883 C   0  0  0  0  0  0  0  0  0  0  0  0
   34.6357   33.4287    2.2526 O   0  0  0  0  0  0  0  0  0  0  0  0
   35.8051   31.4790    2.7238 N   0  0  0  0  0  0  0  0  0  0  0  0
   35.6756   30.5145    3.0034 H   0  0  0  0  0  0  0  0  0  0  0  0
   33.4085   31.4450    2.9121 C   0  0  0  0  0  0  0  0  0  0  0  0
   32.9482   29.6421    1.1651 C   0  0  0  0  0  0  0  0  0  0  0  0
   32.5352   31.0019    1.7283 C   0  0  0  0  0  0  0  0  0  0  0  0
   31.0410   31.0395    2.0484 C   0  0  0  0  0  0  0  0  0  0  0  0
 39 40  1  0  0  0
 40 41  1  0  0  0
 40 38  1  0  0  0
 38 34  1  0  0  0
 34 35  2  0  0  0
 34 36  1  0  0  0
 36 28  1  0  0  0
 28 29  2  0  0  0
 29 30  1  0  0  0
 30 31  2  0  0  0
 31 32  1  0  0  0
 32  1  1  0  0  0
  1  2  2  0  0  0
  2  3  1  0  0  0
  3  4  2  0  0  0
  4  5  1  0  0  0
  5  6  1  0  0  0
  6  7  2  0  0  0
  7 11  1  0  0  0
 11 12  2  0  0  0
 12 13  1  0  0  0
 13 14  2  0  0  0
 14 15  1  0  0  0
 15 16  2  0  0  0
 16 17  1  0  0  0
 17 21  1  0  0  0
 21 22  2  0  0  0
 22 23  1  0  0  0
 23 24  2  0  0  0
 24 25  1  0  0  0
 25 26  1  0  0  0
 25 27  2  0  0  0
 17 18  2  0  0  0
 18 19  1  0  0  0
  7  8  1  0  0  0
  8  9  2  0  0  0
 32 33  2  0  0  0
 33 28  1  0  0  0
  9  1  1  0  0  0
  8  4  1  0  0  0
 19 11  1  0  0  0
 18 13  1  0  0  0
 27 21  1  0  0  0
 36 37  1  0  0  0
  5 10  1  0  0  0
 19 20  1  0  0  0
M  END
> <minimizedAffinity>
-10.71527

$$$$
