L1:P49759:1812


 37 44  0  0  0  0  0  0  0  0999 V2000
   34.1308   30.8314   -2.6481 C   0  0  0  0  0  0  0  0  0  0  0  0
   33.4311   30.3840   -1.3628 C   0  0  0  0  0  0  0  0  0  0  0  0
   34.3079   29.5847   -0.4089 C   0  0  0  0  0  0  0  0  0  0  0  0
   35.0817   28.5564   -1.0205 O   0  0  0  0  0  0  0  0  0  0  0  0
   35.7654   28.8398   -2.2691 C   0  0  0  0  0  0  0  0  0  0  0  0
   36.0087   27.3976   -2.7820 C   0  0  0  0  0  0  0  0  0  0  0  0
   34.8231   29.5850   -3.2732 C   0  0  0  0  0  0  0  0  0  0  0  0
   37.0601   29.5107   -2.0011 N   0  0  0  0  0  0  0  0  0  0  0  0
   38.2006   29.5155   -2.8158 C   0  0  0  0  0  0  0  0  0  0  0  0
   38.4377   29.0471   -4.1236 C   0  0  0  0  0  0  0  0  0  0  0  0
   39.7197   29.1534   -4.6729 C   0  0  0  0  0  0  0  0  0  0  0  0
   40.7578   29.7221   -3.9524 C   0  0  0  0  0  0  0  0  0  0  0  0
   40.5274   30.2184   -2.6692 C   0  0  0  0  0  0  0  0  0  0  0  0
   39.2401   30.1281   -2.0927 C   0  0  0  0  0  0  0  0  0  0  0  0
   38.6959   30.5893   -0.8669 C   0  0  0  0  0  0  0  0  0  0  0  0
   39.1579   31.3142    0.2451 C   0  0  0  0  0  0  0  0  0  0  0  0
   38.2936   31.6859    1.3186 C   0  0  0  0  0  0  0  0  0  0  0  0
   36.9284   31.3767    1.3857 C   0  0  0  0  0  0  0  0  0  0  0  0
   35.8090   31.6024    2.2441 C   0  0  0  0  0  0  0  0  0  0  0  0
   35.6232   32.2825    3.4671 C   0  0  0  0  0  0  0  0  0  0  0  0
   34.3591   32.3254    4.0641 C   0  0  0  0  0  0  0  0  0  0  0  0
   33.2737   31.7013    3.4633 C   0  0  0  0  0  0  0  0  0  0  0  0
   33.4205   31.0187    2.2538 C   0  0  0  0  0  0  0  0  0  0  0  0
   34.6942   30.9795    1.6578 C   0  0  0  0  0  0  0  0  0  0  0  0
   35.1290   30.3855    0.4844 N   0  0  0  0  0  0  0  0  0  0  0  0
   36.4504   30.6358    0.3187 C   0  0  0  0  0  0  0  0  0  0  0  0
   37.3669   30.2165   -0.8630 C   0  0  0  0  0  0  0  0  0  0  0  0
   39.1014   32.4478    2.2816 C   0  0  0  0  0  0  0  0  0  0  0  0
   38.7427   32.9440    3.3300 O   0  0  0  0  0  0  0  0  0  0  0  0
   40.3824   32.5117    1.7797 N   0  0  0  0  0  0  0  0  0  0  0  0
   40.5352   31.8450    0.5170 C   0  0  0  0  0  0  0  0  0  0  0  0
   41.1135   32.9938    2.2843 H   0  0  0  0  0  0  0  0  0  0  0  0
   34.5486   33.0356   -1.6285 C   0  0  0  0  0  0  0  0  0  0  0  0
   35.0019   32.0070   -2.5495 N   0  0  0  0  0  0  0  0  0  0  0  0
   35.9744   31.7750   -2.3541 H   0  0  0  0  0  0  0  0  0  0  0  0
   35.4792   29.8322   -4.5245 O   0  0  0  0  0  0  0  0  0  0  0  0
   34.7997   29.3352   -5.6671 C   0  0  0  0  0  0  0  0  0  0  0  0
 33 34  1  0  0  0
 34  1  1  0  0  0
  1  2  1  0  0  0
  2  3  1  0  0  0
  3  4  1  0  0  0
  4  5  1  0  0  0
  5  6  1  0  0  0
  5  7  1  0  0  0
  7 36  1  0  0  0
 36 37  1  0  0  0
  5  8  1  0  0  0
  8  9  1  0  0  0
  9 10  2  0  0  0
 10 11  1  0  0  0
 11 12  2  0  0  0
 12 13  1  0  0  0
 13 14  2  0  0  0
 14 15  1  0  0  0
 15 16  2  0  0  0
 16 17  1  0  0  0
 17 18  2  0  0  0
 18 19  1  0  0  0
 19 20  2  0  0  0
 20 21  1  0  0  0
 21 22  2  0  0  0
 22 23  1  0  0  0
 23 24  2  0  0  0
 24 25  1  0  0  0
 25 26  1  0  0  0
 26 27  2  0  0  0
 17 28  1  0  0  0
 28 29  2  0  0  0
 28 30  1  0  0  0
 30 31  1  0  0  0
  7  1  1  0  0  0
 27  8  1  0  0  0
 25  3  1  0  0  0
 14  9  1  0  0  0
 27 15  1  0  0  0
 31 16  1  0  0  0
 26 18  1  0  0  0
 24 19  1  0  0  0
 34 35  1  0  0  0
 30 32  1  0  0  0
M  END
> <minimizedAffinity>
-11.34079

$$$$
