L1:P49759:1813


 44 48  0  0  0  0  0  0  0  0999 V2000
   34.3575   33.1793    2.6796 N   0  0  0  0  0  0  0  0  0  0  0  0
   33.4343   32.8445    3.6566 C   0  0  0  0  0  0  0  0  0  0  0  0
   33.4965   31.8458    4.3623 O   0  0  0  0  0  0  0  0  0  0  0  0
   32.4232   33.7955    3.7154 N   0  0  0  0  0  0  0  0  0  0  0  0
   34.2408   34.0648    2.2061 H   0  0  0  0  0  0  0  0  0  0  0  0
   32.4625   34.5719    3.0734 H   0  0  0  0  0  0  0  0  0  0  0  0
   37.8543   31.0571    1.6592 C   0  0  0  0  0  0  0  0  0  0  0  0
   36.7483   30.9775    0.8117 C   0  0  0  0  0  0  0  0  0  0  0  0
   35.5677   31.6639    1.1226 C   0  0  0  0  0  0  0  0  0  0  0  0
   35.4954   32.4464    2.2753 C   0  0  0  0  0  0  0  0  0  0  0  0
   36.6290   32.5326    3.0966 C   0  0  0  0  0  0  0  0  0  0  0  0
   36.5809   33.2942    4.2024 F   0  0  0  0  0  0  0  0  0  0  0  0
   37.8064   31.8541    2.8004 C   0  0  0  0  0  0  0  0  0  0  0  0
   38.9903   30.3824    1.2764 O   0  0  0  0  0  0  0  0  0  0  0  0
   40.7652   31.1232   -1.7850 C   0  0  0  0  0  0  0  0  0  0  0  0
   39.8997   30.5056   -0.8970 C   0  0  0  0  0  0  0  0  0  0  0  0
   39.8274   31.0211    0.3901 C   0  0  0  0  0  0  0  0  0  0  0  0
   40.6350   32.0939    0.7628 C   0  0  0  0  0  0  0  0  0  0  0  0
   41.4703   32.6419   -0.1953 C   0  0  0  0  0  0  0  0  0  0  0  0
   41.5542   32.1905   -1.4648 N   0  0  0  0  0  0  0  0  0  0  0  0
   40.0270   28.9126   -4.7623 C   0  0  0  0  0  0  0  0  0  0  0  0
   40.0760   29.5267   -3.4647 N   0  0  0  0  0  0  0  0  0  0  0  0
   40.8714   30.6188   -3.1926 C   0  0  0  0  0  0  0  0  0  0  0  0
   41.6099   31.1526   -4.0118 O   0  0  0  0  0  0  0  0  0  0  0  0
   39.4921   29.1894   -2.7034 H   0  0  0  0  0  0  0  0  0  0  0  0
   31.3947   33.7703    4.6527 C   0  0  0  0  0  0  0  0  0  0  0  0
   30.0735   33.3975    4.5201 C   0  0  0  0  0  0  0  0  0  0  0  0
   29.5492   33.3344    5.8307 C   0  0  0  0  0  0  0  0  0  0  0  0
   30.4813   33.6666    6.7317 N   0  0  0  0  0  0  0  0  0  0  0  0
   31.5504   34.0819    6.0049 N   0  0  0  0  0  0  0  0  0  0  0  0
   32.6220   34.7508    6.6670 C   0  0  0  0  0  0  0  0  0  0  0  0
   32.5496   36.1043    7.0041 C   0  0  0  0  0  0  0  0  0  0  0  0
   33.6261   36.7204    7.6564 C   0  0  0  0  0  0  0  0  0  0  0  0
   34.7750   36.0223    8.0008 C   0  0  0  0  0  0  0  0  0  0  0  0
   35.7785   36.6675    8.6193 N   0  0  0  0  0  0  0  0  0  0  0  0
   36.8770   35.9552    8.9547 C   0  0  0  0  0  0  0  0  0  0  0  0
   37.0291   34.6057    8.6988 C   0  0  0  0  0  0  0  0  0  0  0  0
   35.9898   33.9434    8.0574 C   0  0  0  0  0  0  0  0  0  0  0  0
   34.8347   34.6476    7.6929 C   0  0  0  0  0  0  0  0  0  0  0  0
   33.7586   34.0185    7.0400 C   0  0  0  0  0  0  0  0  0  0  0  0
   28.1637   32.9079    6.2902 C   0  0  0  0  0  0  0  0  0  0  0  0
   28.1656   31.4061    6.6405 C   0  0  0  0  0  0  0  0  0  0  0  0
   27.0983   33.1433    5.1992 C   0  0  0  0  0  0  0  0  0  0  0  0
   27.7431   33.7127    7.5381 C   0  0  0  0  0  0  0  0  0  0  0  0
 21 22  1  0  0  0
 22 23  1  0  0  0
 23 24  2  0  0  0
 23 15  1  0  0  0
 15 16  2  0  0  0
 16 17  1  0  0  0
 17 14  1  0  0  0
 14  7  1  0  0  0
  7  8  2  0  0  0
  8  9  1  0  0  0
  9 10  2  0  0  0
 10  1  1  0  0  0
  1  2  1  0  0  0
  2  3  2  0  0  0
  2  4  1  0  0  0
  4 26  1  0  0  0
 26 27  2  0  0  0
 27 28  1  0  0  0
 28 41  1  0  0  0
 41 42  1  0  0  0
 41 43  1  0  0  0
 41 44  1  0  0  0
 28 29  2  0  0  0
 29 30  1  0  0  0
 30 31  1  0  0  0
 31 32  2  0  0  0
 32 33  1  0  0  0
 33 34  2  0  0  0
 34 35  1  0  0  0
 35 36  2  0  0  0
 36 37  1  0  0  0
 37 38  2  0  0  0
 38 39  1  0  0  0
 39 40  2  0  0  0
 10 11  1  0  0  0
 11 12  1  0  0  0
 11 13  2  0  0  0
 17 18  2  0  0  0
 18 19  1  0  0  0
 19 20  2  0  0  0
 20 15  1  0  0  0
 13  7  1  0  0  0
 30 26  1  0  0  0
 40 31  1  0  0  0
 39 34  1  0  0  0
 22 25  1  0  0  0
  1  5  1  0  0  0
  4  6  1  0  0  0
M  END
> <minimizedAffinity>
-9.34981

$$$$
