L1:P49759:1814
     RDKit          3D

 53 56  0  0  0  0  0  0  0  0999 V2000
   11.8990   -0.4099   -1.6786 N   0  0  0  0  0  0  0  0  0  0  0  0
   10.9585   -0.9519   -2.0910 C   0  0  0  0  0  0  0  0  0  0  0  0
    9.7403   -1.6148   -2.5781 C   0  0  0  0  0  0  0  0  0  0  0  0
    8.5510   -1.1176   -1.9094 N   0  0  0  0  0  0  0  0  0  0  0  0
    7.3076   -1.5551   -2.3043 C   0  0  0  0  0  0  0  0  0  0  0  0
    7.1548   -2.3821   -3.1957 O   0  0  0  0  0  0  0  0  0  0  0  0
    6.1350   -1.0039   -1.5706 C   0  0  0  0  0  0  0  0  0  0  0  0
    4.9652   -1.7661   -1.5229 C   0  0  0  0  0  0  0  0  0  0  0  0
    3.8377   -1.2865   -0.8465 C   0  0  0  0  0  0  0  0  0  0  0  0
    3.8418   -0.0347   -0.2038 C   0  0  0  0  0  0  0  0  0  0  0  0
    2.6393    0.4517    0.5053 C   0  0  0  0  0  0  0  0  0  0  0  0
    2.7029    1.2327    1.6403 C   0  0  0  0  0  0  0  0  0  0  0  0
    1.4992    1.6023    2.1839 C   0  0  0  0  0  0  0  0  0  0  0  0
    0.3122    1.2457    1.6683 N   0  0  0  0  0  0  0  0  0  0  0  0
    0.3231    0.4833    0.5677 C   0  0  0  0  0  0  0  0  0  0  0  0
   -0.8475    0.0570   -0.0515 N   0  0  0  0  0  0  0  0  0  0  0  0
   -2.2080    0.2305    0.2123 C   0  0  0  0  0  0  0  0  0  0  0  0
   -2.7121    0.9465    1.2946 C   0  0  0  0  0  0  0  0  0  0  0  0
   -4.0961    1.0835    1.5000 C   0  0  0  0  0  0  0  0  0  0  0  0
   -5.0410    0.5122    0.6380 C   0  0  0  0  0  0  0  0  0  0  0  0
   -6.4001    0.6499    0.8447 N   0  0  0  0  0  0  0  0  0  0  0  0
   -7.3801   -0.2688    0.2455 C   0  0  0  0  0  0  0  0  0  0  0  0
   -8.6497   -0.3244    1.1125 C   0  0  0  0  0  0  0  0  0  0  0  0
   -9.2965    0.9437    1.2883 O   0  0  0  0  0  0  0  0  0  0  0  0
   -8.3905    2.0543    1.2293 C   0  0  0  0  0  0  0  0  0  0  0  0
   -6.9577    1.7238    1.6814 C   0  0  0  0  0  0  0  0  0  0  0  0
   -4.5234   -0.2065   -0.4461 C   0  0  0  0  0  0  0  0  0  0  0  0
   -3.1419   -0.3443   -0.6563 C   0  0  0  0  0  0  0  0  0  0  0  0
    1.4552    0.0714   -0.0265 N   0  0  0  0  0  0  0  0  0  0  0  0
    5.0225    0.7275   -0.2842 C   0  0  0  0  0  0  0  0  0  0  0  0
    6.1563    0.2537   -0.9600 C   0  0  0  0  0  0  0  0  0  0  0  0
    9.6215   -1.4560   -3.6555 H   0  0  0  0  0  0  0  0  0  0  0  0
    9.7959   -2.6948   -2.4041 H   0  0  0  0  0  0  0  0  0  0  0  0
    8.6594   -0.5244   -1.0974 H   0  0  0  0  0  0  0  0  0  0  0  0
    4.9222   -2.7381   -2.0112 H   0  0  0  0  0  0  0  0  0  0  0  0
    2.9409   -1.9051   -0.8237 H   0  0  0  0  0  0  0  0  0  0  0  0
    3.6345    1.5313    2.0998 H   0  0  0  0  0  0  0  0  0  0  0  0
    1.4495    2.2132    3.0803 H   0  0  0  0  0  0  0  0  0  0  0  0
   -0.6050   -0.4893   -0.8644 H   0  0  0  0  0  0  0  0  0  0  0  0
   -2.0472    1.4148    2.0133 H   0  0  0  0  0  0  0  0  0  0  0  0
   -4.4134    1.6381    2.3786 H   0  0  0  0  0  0  0  0  0  0  0  0
   -7.6294    0.0836   -0.7621 H   0  0  0  0  0  0  0  0  0  0  0  0
   -6.9787   -1.2863    0.1752 H   0  0  0  0  0  0  0  0  0  0  0  0
   -9.3803   -1.0062    0.6655 H   0  0  0  0  0  0  0  0  0  0  0  0
   -8.4098   -0.7127    2.1096 H   0  0  0  0  0  0  0  0  0  0  0  0
   -8.8071    2.8511    1.8538 H   0  0  0  0  0  0  0  0  0  0  0  0
   -8.3855    2.4201    0.1956 H   0  0  0  0  0  0  0  0  0  0  0  0
   -6.9609    1.3957    2.7273 H   0  0  0  0  0  0  0  0  0  0  0  0
   -6.3620    2.6402    1.5998 H   0  0  0  0  0  0  0  0  0  0  0  0
   -5.1879   -0.6617   -1.1749 H   0  0  0  0  0  0  0  0  0  0  0  0
   -2.8080   -0.9101   -1.5226 H   0  0  0  0  0  0  0  0  0  0  0  0
    5.0670    1.7221    0.1558 H   0  0  0  0  0  0  0  0  0  0  0  0
    7.0272    0.8993   -1.0254 H   0  0  0  0  0  0  0  0  0  0  0  0
  1  2  3  0
  2  3  1  0
  3  4  1  0
  4  5  1  0
  5  6  2  0
  5  7  1  0
  7  8  2  0
  8  9  1  0
  9 10  2  0
 10 11  1  0
 11 12  2  0
 12 13  1  0
 13 14  2  0
 14 15  1  0
 15 16  1  0
 16 17  1  0
 17 18  2  0
 18 19  1  0
 19 20  2  0
 20 21  1  0
 21 22  1  0
 22 23  1  0
 23 24  1  0
 24 25  1  0
 25 26  1  0
 20 27  1  0
 27 28  2  0
 15 29  2  0
 10 30  1  0
 30 31  2  0
 31  7  1  0
 29 11  1  0
 28 17  1  0
 26 21  1  0
  3 32  1  0
  3 33  1  0
  4 34  1  0
  8 35  1  0
  9 36  1  0
 12 37  1  0
 13 38  1  0
 16 39  1  0
 18 40  1  0
 19 41  1  0
 22 42  1  0
 22 43  1  0
 23 44  1  0
 23 45  1  0
 25 46  1  0
 25 47  1  0
 26 48  1  0
 26 49  1  0
 27 50  1  0
 28 51  1  0
 30 52  1  0
 31 53  1  0
M  END
>  <mol_id>  (1) 
1814

>  <source_index>  (1) 
3

>  <layer>  (1) 
L1

>  <uniprot>  (1) 
P49759

>  <paff>  (1) 
6

>  <smiles>  (1) 
O=C(NCC#N)c1ccc(cc1)-c1ccnc(Nc2ccc(cc2)N2CCOCC2)n1

$$$$
