L1:P49759:1814
 OpenBabel09212617433D

 53 56  0  0  0  0  0  0  0  0999 V2000
   39.3747   30.7670   -2.4198 C   0  0  0  0  0  0  0  0  0  0  0  0
   40.5945   31.2452   -2.8507 C   0  0  0  0  0  0  0  0  0  0  0  0
   41.4521   31.6748   -1.8704 C   0  0  0  0  0  0  0  0  0  0  0  0
   41.1551   31.6480   -0.5616 N   0  0  0  0  0  0  0  0  0  0  0  0
   39.9552   31.1673   -0.2124 C   0  0  0  0  0  0  0  0  0  0  0  0
   39.0570   30.7207   -1.1058 N   0  0  0  0  0  0  0  0  0  0  0  0
   36.3174   29.3213   -5.1051 C   0  0  0  0  0  0  0  0  0  0  0  0
   36.0930   30.4473   -4.3092 C   0  0  0  0  0  0  0  0  0  0  0  0
   37.0895   30.9076   -3.4409 C   0  0  0  0  0  0  0  0  0  0  0  0
   38.3369   30.2636   -3.3443 C   0  0  0  0  0  0  0  0  0  0  0  0
   38.5510   29.1454   -4.1722 C   0  0  0  0  0  0  0  0  0  0  0  0
   37.5574   28.6782   -5.0446 C   0  0  0  0  0  0  0  0  0  0  0  0
   34.8662   29.7314   -7.0261 N   0  0  0  0  0  0  0  0  0  0  0  0
   35.2281   28.8712   -6.0150 C   0  0  0  0  0  0  0  0  0  0  0  0
   34.7104   27.7695   -5.8730 O   0  0  0  0  0  0  0  0  0  0  0  0
   35.3846   30.5835   -7.1939 H   0  0  0  0  0  0  0  0  0  0  0  0
   33.8132   29.3574   -7.9536 C   0  0  0  0  0  0  0  0  0  0  0  0
   33.0371   31.4001   -9.4185 N   0  0  0  0  0  0  0  0  0  0  0  0
   33.3923   30.4915   -8.7887 C   0  0  0  0  0  0  0  0  0  0  0  0
   39.5422   31.0947    1.1141 N   0  0  0  0  0  0  0  0  0  0  0  0
   40.2226   30.5650    1.6380 H   0  0  0  0  0  0  0  0  0  0  0  0
   38.4364   31.5769    1.8179 C   0  0  0  0  0  0  0  0  0  0  0  0
   38.5074   32.5185    2.8409 C   0  0  0  0  0  0  0  0  0  0  0  0
   37.3521   32.9624    3.5077 C   0  0  0  0  0  0  0  0  0  0  0  0
   36.0738   32.4875    3.1874 C   0  0  0  0  0  0  0  0  0  0  0  0
   36.0139   31.5402    2.1584 C   0  0  0  0  0  0  0  0  0  0  0  0
   37.1650   31.0954    1.4883 C   0  0  0  0  0  0  0  0  0  0  0  0
   34.9417   32.9271    3.8461 N   0  0  0  0  0  0  0  0  0  0  0  0
   33.6818   33.2026    3.1388 C   0  0  0  0  0  0  0  0  0  0  0  0
   32.4897   33.0176    4.0935 C   0  0  0  0  0  0  0  0  0  0  0  0
   32.5290   33.8620    5.2522 O   0  0  0  0  0  0  0  0  0  0  0  0
   33.8616   34.2030    5.6592 C   0  0  0  0  0  0  0  0  0  0  0  0
   34.9203   33.1460    5.3007 C   0  0  0  0  0  0  0  0  0  0  0  0
   40.8468   31.2778   -3.8509 H   0  0  0  0  0  0  0  0  0  0  0  0
   42.3754   32.0382   -2.1542 H   0  0  0  0  0  0  0  0  0  0  0  0
   35.1887   30.9417   -4.3617 H   0  0  0  0  0  0  0  0  0  0  0  0
   36.9051   31.7389   -2.8578 H   0  0  0  0  0  0  0  0  0  0  0  0
   39.4601   28.6582   -4.1363 H   0  0  0  0  0  0  0  0  0  0  0  0
   37.7418   27.8580   -5.6432 H   0  0  0  0  0  0  0  0  0  0  0  0
   34.1728   28.5747   -8.5884 H   0  0  0  0  0  0  0  0  0  0  0  0
   32.9680   29.0328   -7.3834 H   0  0  0  0  0  0  0  0  0  0  0  0
   39.4269   32.8984    3.1153 H   0  0  0  0  0  0  0  0  0  0  0  0
   37.4492   33.6627    4.2595 H   0  0  0  0  0  0  0  0  0  0  0  0
   35.0958   31.1571    1.8839 H   0  0  0  0  0  0  0  0  0  0  0  0
   37.0708   30.3966    0.7347 H   0  0  0  0  0  0  0  0  0  0  0  0
   33.5835   32.5275    2.3145 H   0  0  0  0  0  0  0  0  0  0  0  0
   33.6928   34.2116    2.7828 H   0  0  0  0  0  0  0  0  0  0  0  0
   32.4766   31.9989    4.4207 H   0  0  0  0  0  0  0  0  0  0  0  0
   31.6114   33.2878    3.5453 H   0  0  0  0  0  0  0  0  0  0  0  0
   33.8649   34.3345    6.7211 H   0  0  0  0  0  0  0  0  0  0  0  0
   34.1260   35.0948    5.1303 H   0  0  0  0  0  0  0  0  0  0  0  0
   34.6837   32.2263    5.7938 H   0  0  0  0  0  0  0  0  0  0  0  0
   35.8822   33.4913    5.6177 H   0  0  0  0  0  0  0  0  0  0  0  0
  1  2  2  0  0  0  0
  2  3  1  0  0  0  0
  2 34  1  0  0  0  0
  3  4  2  0  0  0  0
  3 35  1  0  0  0  0
  4  5  1  0  0  0  0
  5 20  1  0  0  0  0
  5  6  2  0  0  0  0
  6  1  1  0  0  0  0
  7  8  2  0  0  0  0
  8  9  1  0  0  0  0
  8 36  1  0  0  0  0
  9 10  2  0  0  0  0
  9 37  1  0  0  0  0
 10  1  1  0  0  0  0
 10 11  1  0  0  0  0
 11 12  2  0  0  0  0
 11 38  1  0  0  0  0
 12  7  1  0  0  0  0
 12 39  1  0  0  0  0
 13 14  1  0  0  0  0
 13 16  1  0  0  0  0
 14 15  2  0  0  0  0
 14  7  1  0  0  0  0
 17 13  1  0  0  0  0
 17 40  1  0  0  0  0
 17 41  1  0  0  0  0
 18 19  3  0  0  0  0
 19 17  1  0  0  0  0
 20 22  1  0  0  0  0
 20 21  1  0  0  0  0
 22 23  2  0  0  0  0
 23 24  1  0  0  0  0
 23 42  1  0  0  0  0
 24 25  2  0  0  0  0
 24 43  1  0  0  0  0
 25 28  1  0  0  0  0
 25 26  1  0  0  0  0
 26 27  2  0  0  0  0
 26 44  1  0  0  0  0
 27 22  1  0  0  0  0
 27 45  1  0  0  0  0
 28 29  1  0  0  0  0
 29 30  1  0  0  0  0
 29 46  1  0  0  0  0
 29 47  1  0  0  0  0
 30 31  1  0  0  0  0
 30 48  1  0  0  0  0
 30 49  1  0  0  0  0
 31 32  1  0  0  0  0
 32 33  1  0  0  0  0
 32 50  1  0  0  0  0
 32 51  1  0  0  0  0
 33 28  1  0  0  0  0
 33 52  1  0  0  0  0
 33 53  1  0  0  0  0
M  END
>  <minimizedAffinity>
-8.61555

$$$$
