L1:P49759:4296
     RDKit          3D

 28 30  0  0  0  0  0  0  0  0999 V2000
    3.7635   -2.3424   -0.4309 N   0  0  0  0  0  0  0  0  0  0  0  0
    2.4218   -2.0925   -0.4773 C   0  0  0  0  0  0  0  0  0  0  0  0
    1.6616   -2.9755   -0.8538 O   0  0  0  0  0  0  0  0  0  0  0  0
    1.9585   -0.7379   -0.0598 C   0  0  0  0  0  0  0  0  0  0  0  0
    2.8057    0.3028    0.3792 C   0  0  0  0  0  0  0  0  0  0  0  0
    4.1669    0.1133    0.4482 O   0  0  0  0  0  0  0  0  0  0  0  0
    2.3043    1.5501    0.7563 C   0  0  0  0  0  0  0  0  0  0  0  0
    0.9328    1.8034    0.7081 C   0  0  0  0  0  0  0  0  0  0  0  0
    0.5377    3.0627    1.0998 O   0  0  0  0  0  0  0  0  0  0  0  0
    0.0383    0.8035    0.2784 C   0  0  0  0  0  0  0  0  0  0  0  0
    0.5852   -0.4304   -0.0896 C   0  0  0  0  0  0  0  0  0  0  0  0
   -0.4162   -1.2728   -0.4760 O   0  0  0  0  0  0  0  0  0  0  0  0
   -1.5915   -0.6094   -0.3647 C   0  0  0  0  0  0  0  0  0  0  0  0
   -2.8378   -1.1530   -0.6730 C   0  0  0  0  0  0  0  0  0  0  0  0
   -3.9298   -0.3085   -0.4916 C   0  0  0  0  0  0  0  0  0  0  0  0
   -5.1983   -0.7360   -0.7624 O   0  0  0  0  0  0  0  0  0  0  0  0
   -3.7808    0.9961   -0.0310 C   0  0  0  0  0  0  0  0  0  0  0  0
   -2.5102    1.5107    0.2697 C   0  0  0  0  0  0  0  0  0  0  0  0
   -1.3800    0.6839    0.0982 C   0  0  0  0  0  0  0  0  0  0  0  0
    4.4199   -1.6328   -0.1238 H   0  0  0  0  0  0  0  0  0  0  0  0
    4.0961   -3.2538   -0.7097 H   0  0  0  0  0  0  0  0  0  0  0  0
    4.5862    0.9319    0.7693 H   0  0  0  0  0  0  0  0  0  0  0  0
    2.9637    2.3457    1.0931 H   0  0  0  0  0  0  0  0  0  0  0  0
   -0.4278    3.1146    1.0226 H   0  0  0  0  0  0  0  0  0  0  0  0
   -2.9223   -2.1711   -1.0293 H   0  0  0  0  0  0  0  0  0  0  0  0
   -5.1560   -1.6564   -1.0729 H   0  0  0  0  0  0  0  0  0  0  0  0
   -4.6612    1.6223    0.0965 H   0  0  0  0  0  0  0  0  0  0  0  0
   -2.4305    2.5314    0.6265 H   0  0  0  0  0  0  0  0  0  0  0  0
  1  2  1  0
  2  3  2  0
  2  4  1  0
  4  5  2  0
  5  6  1  0
  5  7  1  0
  7  8  2  0
  8  9  1  0
  8 10  1  0
 10 11  2  0
 11 12  1  0
 12 13  1  0
 13 14  2  0
 14 15  1  0
 15 16  1  0
 15 17  2  0
 17 18  1  0
 18 19  2  0
 11  4  1  0
 19 13  1  0
 19 10  1  0
  1 20  1  0
  1 21  1  0
  6 22  1  0
  7 23  1  0
  9 24  1  0
 14 25  1  0
 16 26  1  0
 17 27  1  0
 18 28  1  0
M  END
>  <mol_id>  (1) 
4296

>  <source_index>  (1) 
4

>  <layer>  (1) 
L1

>  <uniprot>  (1) 
P49759

>  <paff>  (1) 
7.585

>  <smiles>  (1) 
NC(=O)c1c(O)cc(O)c2c1oc1cc(O)ccc12

$$$$
