L1:P49759:4296


 24 26  0  0  0  0  0  0  0  0999 V2000
   37.8755   29.2280   -2.8991 C   0  0  0  0  0  0  0  0  0  0  0  0
   38.4505   28.9898   -4.1665 C   0  0  0  0  0  0  0  0  0  0  0  0
   37.7931   28.2196   -5.0982 O   0  0  0  0  0  0  0  0  0  0  0  0
   39.6929   29.5184   -4.5218 C   0  0  0  0  0  0  0  0  0  0  0  0
   40.4084   30.3074   -3.6200 C   0  0  0  0  0  0  0  0  0  0  0  0
   41.6222   30.7814   -4.0640 O   0  0  0  0  0  0  0  0  0  0  0  0
   39.8853   30.5795   -2.3406 C   0  0  0  0  0  0  0  0  0  0  0  0
   38.6377   30.0291   -2.0281 C   0  0  0  0  0  0  0  0  0  0  0  0
   38.2873   30.3914   -0.7601 O   0  0  0  0  0  0  0  0  0  0  0  0
   39.2796   31.1603   -0.2521 C   0  0  0  0  0  0  0  0  0  0  0  0
   39.2724   31.7162    1.0265 C   0  0  0  0  0  0  0  0  0  0  0  0
   40.3881   32.4781    1.3632 C   0  0  0  0  0  0  0  0  0  0  0  0
   40.4876   33.0700    2.5899 O   0  0  0  0  0  0  0  0  0  0  0  0
   41.4419   32.6695    0.4748 C   0  0  0  0  0  0  0  0  0  0  0  0
   41.4156   32.0946   -0.8052 C   0  0  0  0  0  0  0  0  0  0  0  0
   40.3010   31.3158   -1.1816 C   0  0  0  0  0  0  0  0  0  0  0  0
   38.3355   28.1648   -5.9055 H   0  0  0  0  0  0  0  0  0  0  0  0
   42.0184   31.3105   -3.3542 H   0  0  0  0  0  0  0  0  0  0  0  0
   39.6904   32.8558    3.1035 H   0  0  0  0  0  0  0  0  0  0  0  0
   35.7802   29.5098   -1.6743 N   0  0  0  0  0  0  0  0  0  0  0  0
   36.5559   28.6974   -2.4509 C   0  0  0  0  0  0  0  0  0  0  0  0
   36.1457   27.5819   -2.7454 O   0  0  0  0  0  0  0  0  0  0  0  0
   36.0905   30.4392   -1.4125 H   0  0  0  0  0  0  0  0  0  0  0  0
   34.8834   29.1680   -1.3612 H   0  0  0  0  0  0  0  0  0  0  0  0
 20 21  1  0  0  0
 21 22  2  0  0  0
 21  1  1  0  0  0
  1  2  2  0  0  0
  2  3  1  0  0  0
  2  4  1  0  0  0
  4  5  2  0  0  0
  5  6  1  0  0  0
  5  7  1  0  0  0
  7  8  2  0  0  0
  8  9  1  0  0  0
  9 10  1  0  0  0
 10 11  2  0  0  0
 11 12  1  0  0  0
 12 13  1  0  0  0
 12 14  2  0  0  0
 14 15  1  0  0  0
 15 16  2  0  0  0
  8  1  1  0  0  0
 16 10  1  0  0  0
 16  7  1  0  0  0
 20 23  1  0  0  0
 20 24  1  0  0  0
  3 17  1  0  0  0
  6 18  1  0  0  0
 13 19  1  0  0  0
M  END
> <minimizedAffinity>
-9.20353

$$$$
