L1:P49759:474
     RDKit          3D

 39 42  0  0  0  0  0  0  0  0999 V2000
    2.0575    3.6114    0.2474 C   0  0  0  0  0  0  0  0  0  0  0  0
    2.3779    2.1490    0.1306 C   0  0  0  0  0  0  0  0  0  0  0  0
    3.7137    1.6454    0.1252 C   0  0  0  0  0  0  0  0  0  0  0  0
    5.1500    2.9128    0.2782 Br  0  0  0  0  0  0  0  0  0  0  0  0
    3.9960    0.2569    0.0033 C   0  0  0  0  0  0  0  0  0  0  0  0
    5.7925   -0.3985   -0.0558 Br  0  0  0  0  0  0  0  0  0  0  0  0
    2.9571   -0.6843   -0.0922 C   0  0  0  0  0  0  0  0  0  0  0  0
    1.6800   -0.1350   -0.0925 C   0  0  0  0  0  0  0  0  0  0  0  0
    1.3512    1.1952    0.0041 C   0  0  0  0  0  0  0  0  0  0  0  0
   -0.0185    1.3388   -0.0622 N   0  0  0  0  0  0  0  0  0  0  0  0
   -0.5206    0.1237   -0.1731 C   0  0  0  0  0  0  0  0  0  0  0  0
   -1.8283   -0.2190   -0.2795 N   0  0  0  0  0  0  0  0  0  0  0  0
   -2.4644   -0.8340    0.9032 C   0  0  0  0  0  0  0  0  0  0  0  0
   -3.9923   -0.9567    0.7135 C   0  0  0  0  0  0  0  0  0  0  0  0
   -4.6896    0.3238    0.4850 N   0  0  0  0  0  0  0  0  0  0  0  0
   -3.7959    1.3114   -0.1556 C   0  0  0  0  0  0  0  0  0  0  0  0
   -2.6945    0.6990   -1.0461 C   0  0  0  0  0  0  0  0  0  0  0  0
    0.4870   -0.7979   -0.2179 N   0  0  0  0  0  0  0  0  0  0  0  0
    0.4883   -2.2217   -0.4850 C   0  0  0  0  0  0  0  0  0  0  0  0
    1.7478   -2.8889    0.1059 C   0  0  0  0  0  0  0  0  0  0  0  0
    3.0690   -2.1730   -0.2750 C   0  0  0  0  0  0  0  0  0  0  0  0
    0.9761    3.7842    0.2386 H   0  0  0  0  0  0  0  0  0  0  0  0
    2.4818    4.1669   -0.5948 H   0  0  0  0  0  0  0  0  0  0  0  0
    2.4417    4.0160    1.1890 H   0  0  0  0  0  0  0  0  0  0  0  0
   -2.2595   -0.2287    1.7965 H   0  0  0  0  0  0  0  0  0  0  0  0
   -2.0542   -1.8324    1.0831 H   0  0  0  0  0  0  0  0  0  0  0  0
   -4.1869   -1.6158   -0.1424 H   0  0  0  0  0  0  0  0  0  0  0  0
   -4.4333   -1.4379    1.5929 H   0  0  0  0  0  0  0  0  0  0  0  0
   -5.4932    0.1516   -0.1178 H   0  0  0  0  0  0  0  0  0  0  0  0
   -3.3278    1.9084    0.6368 H   0  0  0  0  0  0  0  0  0  0  0  0
   -4.4057    2.0024   -0.7483 H   0  0  0  0  0  0  0  0  0  0  0  0
   -2.1237    1.5052   -1.5238 H   0  0  0  0  0  0  0  0  0  0  0  0
   -3.1602    0.1284   -1.8595 H   0  0  0  0  0  0  0  0  0  0  0  0
    0.4620   -2.3407   -1.5739 H   0  0  0  0  0  0  0  0  0  0  0  0
   -0.4091   -2.6722   -0.0581 H   0  0  0  0  0  0  0  0  0  0  0  0
    1.7942   -3.9383   -0.2062 H   0  0  0  0  0  0  0  0  0  0  0  0
    1.6577   -2.8870    1.2010 H   0  0  0  0  0  0  0  0  0  0  0  0
    3.8676   -2.5862    0.3497 H   0  0  0  0  0  0  0  0  0  0  0  0
    3.3085   -2.3822   -1.3241 H   0  0  0  0  0  0  0  0  0  0  0  0
  1  2  1  0
  2  3  2  0
  3  4  1  0
  3  5  1  0
  5  6  1  0
  5  7  2  0
  7  8  1  0
  8  9  2  0
  9 10  1  0
 10 11  2  0
 11 12  1  0
 12 13  1  0
 13 14  1  0
 14 15  1  0
 15 16  1  0
 16 17  1  0
 11 18  1  0
 18 19  1  0
 19 20  1  0
 20 21  1  0
  9  2  1  0
 17 12  1  0
 21  7  1  0
 18  8  1  0
  1 22  1  0
  1 23  1  0
  1 24  1  0
 13 25  1  0
 13 26  1  0
 14 27  1  0
 14 28  1  0
 15 29  1  0
 16 30  1  0
 16 31  1  0
 17 32  1  0
 17 33  1  0
 19 34  1  0
 19 35  1  0
 20 36  1  0
 20 37  1  0
 21 38  1  0
 21 39  1  0
M  END
>  <mol_id>  (1) 
474

>  <source_index>  (1) 
0

>  <layer>  (1) 
L1

>  <uniprot>  (1) 
P49759

>  <paff>  (1) 
8.2757000000000005

>  <smiles>  (1) 
Cc1c(Br)c(Br)c2CCCn3c(nc1c23)N1CCNCC1

$$$$
