L1:P49759:474
 OpenBabel09212617423D

 39 42  0  0  0  0  0  0  0  0999 V2000
   36.1474   30.6441    1.3552 C   0  0  0  0  0  0  0  0  0  0  0  0
   37.4006   30.8718    0.5599 C   0  0  0  0  0  0  0  0  0  0  0  0
   38.5391   31.5549    1.0845 C   0  0  0  0  0  0  0  0  0  0  0  0
   38.4428   32.2004    2.8919 Br  0  0  0  0  0  0  0  0  0  0  0  0
   39.7130   31.7692    0.3109 C   0  0  0  0  0  0  0  0  0  0  0  0
   41.2110   32.7327    1.0096 Br  0  0  0  0  0  0  0  0  0  0  0  0
   39.8061   31.2886   -1.0062 C   0  0  0  0  0  0  0  0  0  0  0  0
   38.6644   30.6420   -1.4658 C   0  0  0  0  0  0  0  0  0  0  0  0
   37.5002   30.4238   -0.7702 C   0  0  0  0  0  0  0  0  0  0  0  0
   36.5924   29.7751   -1.5803 N   0  0  0  0  0  0  0  0  0  0  0  0
   37.1930   29.5785   -2.7386 C   0  0  0  0  0  0  0  0  0  0  0  0
   38.4495   30.1145   -2.7124 N   0  0  0  0  0  0  0  0  0  0  0  0
   39.4440   30.3066   -3.7480 C   0  0  0  0  0  0  0  0  0  0  0  0
   40.8545   30.4359   -3.1359 C   0  0  0  0  0  0  0  0  0  0  0  0
   40.9397   31.4642   -1.9790 C   0  0  0  0  0  0  0  0  0  0  0  0
   36.6762   28.9837   -3.8422 N   0  0  0  0  0  0  0  0  0  0  0  0
   36.0854   27.6406   -3.6723 C   0  0  0  0  0  0  0  0  0  0  0  0
   35.3412   27.1937   -4.9497 C   0  0  0  0  0  0  0  0  0  0  0  0
   34.2390   28.0835   -5.3639 N   0  0  0  0  0  0  0  0  0  0  0  0
   34.4799   29.4730   -4.9218 C   0  0  0  0  0  0  0  0  0  0  0  0
   35.9688   29.8592   -4.7980 C   0  0  0  0  0  0  0  0  0  0  0  0
   34.1670   28.0580   -6.3802 H   0  0  0  0  0  0  0  0  0  0  0  0
   36.2677   31.0549    2.3359 H   0  0  0  0  0  0  0  0  0  0  0  0
   35.9579   29.5936    1.4293 H   0  0  0  0  0  0  0  0  0  0  0  0
   35.3236   31.1216    0.8671 H   0  0  0  0  0  0  0  0  0  0  0  0
   39.2151   31.1984   -4.2931 H   0  0  0  0  0  0  0  0  0  0  0  0
   39.4293   29.4578   -4.3993 H   0  0  0  0  0  0  0  0  0  0  0  0
   41.5312   30.7386   -3.9075 H   0  0  0  0  0  0  0  0  0  0  0  0
   41.1057   29.4806   -2.7244 H   0  0  0  0  0  0  0  0  0  0  0  0
   40.8984   32.4523   -2.3874 H   0  0  0  0  0  0  0  0  0  0  0  0
   41.8602   31.3084   -1.4562 H   0  0  0  0  0  0  0  0  0  0  0  0
   35.3945   27.6637   -2.8556 H   0  0  0  0  0  0  0  0  0  0  0  0
   36.8747   26.9447   -3.4783 H   0  0  0  0  0  0  0  0  0  0  0  0
   34.9353   26.2191   -4.7754 H   0  0  0  0  0  0  0  0  0  0  0  0
   36.0605   27.2144   -5.7416 H   0  0  0  0  0  0  0  0  0  0  0  0
   34.0208   29.6028   -3.9641 H   0  0  0  0  0  0  0  0  0  0  0  0
   34.0639   30.1075   -5.6763 H   0  0  0  0  0  0  0  0  0  0  0  0
   36.0385   30.8718   -4.4595 H   0  0  0  0  0  0  0  0  0  0  0  0
   36.4262   29.7469   -5.7588 H   0  0  0  0  0  0  0  0  0  0  0  0
  1  2  1  0  0  0  0
  1 23  1  0  0  0  0
  1 24  1  0  0  0  0
  1 25  1  0  0  0  0
  2  3  2  0  0  0  0
  3  4  1  0  0  0  0
  3  5  1  0  0  0  0
  5  6  1  0  0  0  0
  5  7  2  0  0  0  0
  7  8  1  0  0  0  0
  8  9  2  0  0  0  0
  9 10  1  0  0  0  0
  9  2  1  0  0  0  0
 10 11  2  0  0  0  0
 11 16  1  0  0  0  0
 11 12  1  0  0  0  0
 12 13  1  0  0  0  0
 12  8  1  0  0  0  0
 13 14  1  0  0  0  0
 13 26  1  0  0  0  0
 13 27  1  0  0  0  0
 14 15  1  0  0  0  0
 14 28  1  0  0  0  0
 14 29  1  0  0  0  0
 15  7  1  0  0  0  0
 15 30  1  0  0  0  0
 15 31  1  0  0  0  0
 16 17  1  0  0  0  0
 17 18  1  0  0  0  0
 17 32  1  0  0  0  0
 17 33  1  0  0  0  0
 18 19  1  0  0  0  0
 18 34  1  0  0  0  0
 18 35  1  0  0  0  0
 19 20  1  0  0  0  0
 19 22  1  0  0  0  0
 20 21  1  0  0  0  0
 20 36  1  0  0  0  0
 20 37  1  0  0  0  0
 21 16  1  0  0  0  0
 21 38  1  0  0  0  0
 21 39  1  0  0  0  0
M  END
>  <minimizedAffinity>
-8.35501

$$$$
