L1:P49759:60031
 OpenBabel09212617433D

 36 39  0  0  0  0  0  0  0  0999 V2000
   36.7613   30.7966    0.4627 O   0  0  0  0  0  0  0  0  0  0  0  0
   37.1198   31.5038    1.3807 C   0  0  0  0  0  0  0  0  0  0  0  0
   36.3332   32.0985    2.3145 N   0  0  0  0  0  0  0  0  0  0  0  0
   37.1045   32.8020    3.1843 C   0  0  0  0  0  0  0  0  0  0  0  0
   38.3729   32.7376    2.9156 N   0  0  0  0  0  0  0  0  0  0  0  0
   38.4807   31.9432    1.7918 C   0  0  0  0  0  0  0  0  0  0  0  0
   39.6502   31.6376    1.2167 C   0  0  0  0  0  0  0  0  0  0  0  0
   35.3353   31.9945    2.3155 H   0  0  0  0  0  0  0  0  0  0  0  0
   39.8431   30.8046    0.0289 C   0  0  0  0  0  0  0  0  0  0  0  0
   39.8523   29.4001    0.1704 C   0  0  0  0  0  0  0  0  0  0  0  0
   40.0575   28.5692   -0.9361 C   0  0  0  0  0  0  0  0  0  0  0  0
   40.2555   29.1707   -2.1596 C   0  0  0  0  0  0  0  0  0  0  0  0
   40.2566   30.5384   -2.3023 C   0  0  0  0  0  0  0  0  0  0  0  0
   40.0570   31.3828   -1.2301 C   0  0  0  0  0  0  0  0  0  0  0  0
   40.4776   30.9252   -3.5877 O   0  0  0  0  0  0  0  0  0  0  0  0
   40.5890   29.6439   -4.2402 C   0  0  0  0  0  0  0  0  0  0  0  0
   40.4716   28.5253   -3.3367 O   0  0  0  0  0  0  0  0  0  0  0  0
   36.4626   33.4601    4.1922 N   0  0  0  0  0  0  0  0  0  0  0  0
   36.9018   34.2989    4.5402 H   0  0  0  0  0  0  0  0  0  0  0  0
   35.2534   33.1445    4.8401 C   0  0  0  0  0  0  0  0  0  0  0  0
   34.2108   32.4234    4.2491 C   0  0  0  0  0  0  0  0  0  0  0  0
   33.0323   32.1442    4.9512 C   0  0  0  0  0  0  0  0  0  0  0  0
   32.8754   32.5834    6.2618 C   0  0  0  0  0  0  0  0  0  0  0  0
   33.8975   33.3023    6.8712 C   0  0  0  0  0  0  0  0  0  0  0  0
   35.0729   33.5788    6.1659 C   0  0  0  0  0  0  0  0  0  0  0  0
   40.4996   32.0279    1.6540 H   0  0  0  0  0  0  0  0  0  0  0  0
   39.7058   28.9810    1.1020 H   0  0  0  0  0  0  0  0  0  0  0  0
   40.0605   27.5418   -0.8393 H   0  0  0  0  0  0  0  0  0  0  0  0
   40.0649   32.4077   -1.3509 H   0  0  0  0  0  0  0  0  0  0  0  0
   41.5428   29.5912   -4.7222 H   0  0  0  0  0  0  0  0  0  0  0  0
   39.7784   29.5733   -4.9351 H   0  0  0  0  0  0  0  0  0  0  0  0
   34.3122   32.0910    3.2774 H   0  0  0  0  0  0  0  0  0  0  0  0
   32.2765   31.6102    4.4945 H   0  0  0  0  0  0  0  0  0  0  0  0
   32.0061   32.3770    6.7783 H   0  0  0  0  0  0  0  0  0  0  0  0
   33.7889   33.6316    7.8432 H   0  0  0  0  0  0  0  0  0  0  0  0
   35.8248   34.1134    6.6284 H   0  0  0  0  0  0  0  0  0  0  0  0
  1  2  2  0  0  0  0
  2  3  1  0  0  0  0
  3  4  1  0  0  0  0
  3  8  1  0  0  0  0
  4 18  1  0  0  0  0
  4  5  2  0  0  0  0
  5  6  1  0  0  0  0
  6  7  2  0  0  0  0
  6  2  1  0  0  0  0
  7  9  1  0  0  0  0
  7 26  1  0  0  0  0
  9 10  2  0  0  0  0
 10 11  1  0  0  0  0
 10 27  1  0  0  0  0
 11 12  2  0  0  0  0
 11 28  1  0  0  0  0
 12 13  1  0  0  0  0
 13 14  2  0  0  0  0
 13 15  1  0  0  0  0
 14  9  1  0  0  0  0
 14 29  1  0  0  0  0
 15 16  1  0  0  0  0
 16 17  1  0  0  0  0
 16 30  1  0  0  0  0
 16 31  1  0  0  0  0
 17 12  1  0  0  0  0
 18 20  1  0  0  0  0
 18 19  1  0  0  0  0
 20 21  2  0  0  0  0
 21 22  1  0  0  0  0
 21 32  1  0  0  0  0
 22 23  2  0  0  0  0
 22 33  1  0  0  0  0
 23 24  1  0  0  0  0
 23 34  1  0  0  0  0
 24 25  2  0  0  0  0
 24 35  1  0  0  0  0
 25 20  1  0  0  0  0
 25 36  1  0  0  0  0
M  END
>  <minimizedAffinity>
-8.99566

$$$$
