L1:P49759:60031
     RDKit          3D

 36 39  0  0  0  0  0  0  0  0999 V2000
    1.3527   -0.8605    2.1044 O   0  0  0  0  0  0  0  0  0  0  0  0
    0.3568   -0.5928    1.4657 C   0  0  0  0  0  0  0  0  0  0  0  0
   -0.9314   -0.8592    1.8034 N   0  0  0  0  0  0  0  0  0  0  0  0
   -1.7653   -0.3952    0.8361 C   0  0  0  0  0  0  0  0  0  0  0  0
   -3.1031   -0.5820    1.0268 N   0  0  0  0  0  0  0  0  0  0  0  0
   -4.1847   -0.2151    0.2040 C   0  0  0  0  0  0  0  0  0  0  0  0
   -4.0498    0.4372   -1.0258 C   0  0  0  0  0  0  0  0  0  0  0  0
   -5.1697    0.7746   -1.7951 C   0  0  0  0  0  0  0  0  0  0  0  0
   -6.4491    0.4644   -1.3457 C   0  0  0  0  0  0  0  0  0  0  0  0
   -6.6093   -0.1836   -0.1262 C   0  0  0  0  0  0  0  0  0  0  0  0
   -5.4877   -0.5187    0.6388 C   0  0  0  0  0  0  0  0  0  0  0  0
   -1.1426    0.1729   -0.1512 N   0  0  0  0  0  0  0  0  0  0  0  0
    0.2012    0.0934    0.1545 C   0  0  0  0  0  0  0  0  0  0  0  0
    1.1649    0.5865   -0.6329 C   0  0  0  0  0  0  0  0  0  0  0  0
    2.6051    0.5406   -0.3764 C   0  0  0  0  0  0  0  0  0  0  0  0
    3.2997    1.7481   -0.1479 C   0  0  0  0  0  0  0  0  0  0  0  0
    4.6804    1.7495    0.0773 C   0  0  0  0  0  0  0  0  0  0  0  0
    5.3323    0.5360    0.0610 C   0  0  0  0  0  0  0  0  0  0  0  0
    4.6626   -0.6426   -0.1699 C   0  0  0  0  0  0  0  0  0  0  0  0
    3.3022   -0.6754   -0.3950 C   0  0  0  0  0  0  0  0  0  0  0  0
    5.4912   -1.7215   -0.1522 O   0  0  0  0  0  0  0  0  0  0  0  0
    6.7531   -1.0885    0.1422 C   0  0  0  0  0  0  0  0  0  0  0  0
    6.6645    0.3470    0.2567 O   0  0  0  0  0  0  0  0  0  0  0  0
   -1.1727   -1.3282    2.6569 H   0  0  0  0  0  0  0  0  0  0  0  0
   -3.3807   -1.0507    1.8759 H   0  0  0  0  0  0  0  0  0  0  0  0
   -3.0728    0.7000   -1.4197 H   0  0  0  0  0  0  0  0  0  0  0  0
   -5.0344    1.2811   -2.7475 H   0  0  0  0  0  0  0  0  0  0  0  0
   -7.3166    0.7275   -1.9449 H   0  0  0  0  0  0  0  0  0  0  0  0
   -7.6056   -0.4292    0.2320 H   0  0  0  0  0  0  0  0  0  0  0  0
   -5.6484   -1.0247    1.5876 H   0  0  0  0  0  0  0  0  0  0  0  0
    0.8773    1.0879   -1.5534 H   0  0  0  0  0  0  0  0  0  0  0  0
    2.7619    2.6940   -0.1387 H   0  0  0  0  0  0  0  0  0  0  0  0
    5.2199    2.6716    0.2597 H   0  0  0  0  0  0  0  0  0  0  0  0
    2.7996   -1.6195   -0.5728 H   0  0  0  0  0  0  0  0  0  0  0  0
    7.1371   -1.4927    1.0860 H   0  0  0  0  0  0  0  0  0  0  0  0
    7.4616   -1.3321   -0.6578 H   0  0  0  0  0  0  0  0  0  0  0  0
  1  2  2  0
  2  3  1  0
  3  4  1  0
  4  5  1  0
  5  6  1  0
  6  7  2  0
  7  8  1  0
  8  9  2  0
  9 10  1  0
 10 11  2  0
  4 12  2  0
 12 13  1  0
 13 14  2  0
 14 15  1  0
 15 16  2  0
 16 17  1  0
 17 18  2  0
 18 19  1  0
 19 20  2  0
 19 21  1  0
 21 22  1  0
 22 23  1  0
 13  2  1  0
 20 15  1  0
 11  6  1  0
 23 18  1  0
  3 24  1  0
  5 25  1  0
  7 26  1  0
  8 27  1  0
  9 28  1  0
 10 29  1  0
 11 30  1  0
 14 31  1  0
 16 32  1  0
 17 33  1  0
 20 34  1  0
 22 35  1  0
 22 36  1  0
M  END
>  <mol_id>  (1) 
60031

>  <source_index>  (1) 
5

>  <layer>  (1) 
L1

>  <uniprot>  (1) 
P49759

>  <paff>  (1) 
7.4558999999999997

>  <smiles>  (1) 
O=C1NC(Nc2ccccc2)=NC1=Cc1ccc2c(c1)OCO2

$$$$
