L1:P49759:94228
 OpenBabel09212617433D

 35 36  0  0  0  0  0  0  0  0999 V2000
   38.8869   30.7358   -0.8084 C   0  0  0  0  0  0  0  0  0  0  0  0
   39.0768   30.3466   -2.1408 C   0  0  0  0  0  0  0  0  0  0  0  0
   37.8061   30.4904   -2.8007 C   0  0  0  0  0  0  0  0  0  0  0  0
   37.3897   30.3696   -4.1462 C   0  0  0  0  0  0  0  0  0  0  0  0
   36.0624   30.6179   -4.5020 C   0  0  0  0  0  0  0  0  0  0  0  0
   35.1369   31.0069   -3.5421 C   0  0  0  0  0  0  0  0  0  0  0  0
   33.5233   31.3205   -4.0898 Cl  0  0  0  0  0  0  0  0  0  0  0  0
   35.5109   31.1401   -2.1929 C   0  0  0  0  0  0  0  0  0  0  0  0
   34.3673   31.7019   -1.0213 Cl  0  0  0  0  0  0  0  0  0  0  0  0
   36.8550   30.8527   -1.8356 C   0  0  0  0  0  0  0  0  0  0  0  0
   37.5174   30.8219   -0.6171 N   0  0  0  0  0  0  0  0  0  0  0  0
   36.8671   30.7885    0.6812 C   0  0  0  0  0  0  0  0  0  0  0  0
   39.9302   30.9808    0.1809 C   0  0  0  0  0  0  0  0  0  0  0  0
   40.5515   30.1015    0.7649 O   0  0  0  0  0  0  0  0  0  0  0  0
   40.1710   32.3123    0.3130 O   0  0  0  0  0  0  0  0  0  0  0  0
   39.2717   32.8156    2.5031 C   0  0  0  0  0  0  0  0  0  0  0  0
   40.5127   32.7644    1.6320 C   0  0  0  0  0  0  0  0  0  0  0  0
   40.4153   29.9747   -2.7560 C   0  0  2  0  0  0  0  0  0  0  0  0
   41.1939   31.2312   -3.0743 C   0  0  0  0  0  0  0  0  0  0  0  0
   41.9482   31.3725   -4.1202 N   0  0  0  0  0  0  0  0  0  0  0  0
   41.9429   30.5154   -4.6999 H   0  0  0  0  0  0  0  0  0  0  0  0
   40.2995   29.1412   -3.9618 C   0  0  0  0  0  0  0  0  0  0  0  0
   40.2043   28.4929   -4.9212 N   0  0  0  0  0  0  0  0  0  0  0  0
   38.0716   30.0959   -4.8708 H   0  0  0  0  0  0  0  0  0  0  0  0
   35.7670   30.5116   -5.4851 H   0  0  0  0  0  0  0  0  0  0  0  0
   35.8082   30.8721    0.5520 H   0  0  0  0  0  0  0  0  0  0  0  0
   37.2192   31.6042    1.2775 H   0  0  0  0  0  0  0  0  0  0  0  0
   37.0948   29.8646    1.1705 H   0  0  0  0  0  0  0  0  0  0  0  0
   39.5374   33.1535    3.4830 H   0  0  0  0  0  0  0  0  0  0  0  0
   38.8406   31.8384    2.5675 H   0  0  0  0  0  0  0  0  0  0  0  0
   38.5618   33.4910    2.0732 H   0  0  0  0  0  0  0  0  0  0  0  0
   41.2214   32.0897    2.0649 H   0  0  0  0  0  0  0  0  0  0  0  0
   40.9361   33.7449    1.5675 H   0  0  0  0  0  0  0  0  0  0  0  0
   40.9321   29.3835   -2.0292 H   0  0  0  0  0  0  0  0  0  0  0  0
   41.1207   32.0252   -2.4192 H   0  0  0  0  0  0  0  0  0  0  0  0
  1  2  2  0  0  0  0
  2 18  1  0  0  0  0
  2  3  1  0  0  0  0
  3  4  2  0  0  0  0
  4  5  1  0  0  0  0
  4 24  1  0  0  0  0
  5  6  2  0  0  0  0
  5 25  1  0  0  0  0
  6  7  1  0  0  0  0
  6  8  1  0  0  0  0
  8  9  1  0  0  0  0
  8 10  2  0  0  0  0
 10 11  1  0  0  0  0
 10  3  1  0  0  0  0
 11 12  1  0  0  0  0
 11  1  1  0  0  0  0
 12 26  1  0  0  0  0
 12 27  1  0  0  0  0
 12 28  1  0  0  0  0
 13 14  2  0  0  0  0
 13  1  1  0  0  0  0
 15 13  1  0  0  0  0
 16 17  1  0  0  0  0
 16 29  1  0  0  0  0
 16 30  1  0  0  0  0
 16 31  1  0  0  0  0
 17 15  1  0  0  0  0
 17 32  1  0  0  0  0
 17 33  1  0  0  0  0
 18 22  1  0  0  0  0
 18 19  1  0  0  0  0
 18 34  1  1  0  0  0
 19 20  2  0  0  0  0
 19 35  1  0  0  0  0
 20 21  1  0  0  0  0
 22 23  3  0  0  0  0
M  END
>  <minimizedAffinity>
-7.06279

$$$$
