L1:O95271:3228


 29 31  0  0  0  0  0  0  0  0999 V2000
  -25.5953  -13.6822   -4.1680 C   0  0  0  0  0  0  0  0  0  0  0  0
  -26.6876  -14.0350   -4.9650 C   0  0  0  0  0  0  0  0  0  0  0  0
  -27.7904  -14.6854   -4.4044 C   0  0  0  0  0  0  0  0  0  0  0  0
  -27.7936  -14.9815   -3.0405 C   0  0  0  0  0  0  0  0  0  0  0  0
  -28.9335  -15.6614   -2.4073 C   0  0  0  0  0  0  0  0  0  0  0  0
  -29.9334  -15.9915   -3.0330 O   0  0  0  0  0  0  0  0  0  0  0  0
  -28.8079  -15.8998   -1.0620 N   0  0  0  0  0  0  0  0  0  0  0  0
  -27.7023  -15.5391   -0.3248 C   0  0  0  0  0  0  0  0  0  0  0  0
  -26.6886  -14.9240   -0.8477 N   0  0  0  0  0  0  0  0  0  0  0  0
  -26.7163  -14.6389   -2.2241 C   0  0  0  0  0  0  0  0  0  0  0  0
  -25.6204  -13.9889   -2.7993 C   0  0  0  0  0  0  0  0  0  0  0  0
  -29.6121  -16.3349   -0.6363 H   0  0  0  0  0  0  0  0  0  0  0  0
  -27.7230  -15.8690    1.1258 C   0  0  0  0  0  0  0  0  0  0  0  0
  -26.7954  -16.7958    1.6167 C   0  0  0  0  0  0  0  0  0  0  0  0
  -26.7829  -17.1327    2.9731 C   0  0  0  0  0  0  0  0  0  0  0  0
  -27.7001  -16.5499    3.8602 C   0  0  0  0  0  0  0  0  0  0  0  0
  -28.6433  -15.6395    3.3575 C   0  0  0  0  0  0  0  0  0  0  0  0
  -28.6566  -15.2999    2.0002 C   0  0  0  0  0  0  0  0  0  0  0  0
  -27.7047  -16.9320    5.3217 C   0  0  0  0  0  0  0  0  0  0  0  0
  -28.9524  -17.1875    5.8042 F   0  0  0  0  0  0  0  0  0  0  0  0
  -27.1882  -15.9529    6.1133 F   0  0  0  0  0  0  0  0  0  0  0  0
  -26.9704  -18.0499    5.5804 F   0  0  0  0  0  0  0  0  0  0  0  0
  -23.2916  -13.5846   -5.1631 C   0  0  0  0  0  0  0  0  0  0  0  0
  -23.0374  -14.7788   -5.2850 O   0  0  0  0  0  0  0  0  0  0  0  0
  -24.4514  -13.0285   -4.6562 N   0  0  0  0  0  0  0  0  0  0  0  0
  -24.4459  -12.0097   -4.6486 H   0  0  0  0  0  0  0  0  0  0  0  0
  -22.2796  -12.5143   -5.5891 C   0  0  0  0  0  0  0  0  0  0  0  0
  -20.7503  -12.3873   -3.8045 C   0  0  0  0  0  0  0  0  0  0  0  0
  -21.8217  -11.7381   -4.4789 O   0  0  0  0  0  0  0  0  0  0  0  0
 28 29  1  0  0  0
 29 27  1  0  0  0
 27 23  1  0  0  0
 23 24  2  0  0  0
 23 25  1  0  0  0
 25  1  1  0  0  0
  1  2  2  0  0  0
  2  3  1  0  0  0
  3  4  2  0  0  0
  4  5  1  0  0  0
  5  6  2  0  0  0
  5  7  1  0  0  0
  7  8  1  0  0  0
  8 13  1  0  0  0
 13 14  2  0  0  0
 14 15  1  0  0  0
 15 16  2  0  0  0
 16 19  1  0  0  0
 19 20  1  0  0  0
 19 21  1  0  0  0
 19 22  1  0  0  0
 16 17  1  0  0  0
 17 18  2  0  0  0
  8  9  2  0  0  0
  9 10  1  0  0  0
 10 11  2  0  0  0
 11  1  1  0  0  0
 10  4  1  0  0  0
 18 13  1  0  0  0
 25 26  1  0  0  0
  7 12  1  0  0  0
M  END
> <minimizedAffinity>
-10.52971

$$$$
