L1:O95271:32927


 33 37  0  0  0  0  0  0  0  0999 V2000
  -27.0641  -13.8457   -2.1478 C   0  0  0  0  0  0  0  0  0  0  0  0
  -27.8624  -14.6422   -1.3158 C   0  0  0  0  0  0  0  0  0  0  0  0
  -27.7700  -14.5269    0.0796 C   0  0  0  0  0  0  0  0  0  0  0  0
  -26.8480  -13.6187    0.6242 C   0  0  0  0  0  0  0  0  0  0  0  0
  -26.0690  -12.8106   -0.2077 C   0  0  0  0  0  0  0  0  0  0  0  0
  -26.1904  -12.9179   -1.5894 C   0  0  0  0  0  0  0  0  0  0  0  0
  -25.4519  -12.1101   -2.3632 F   0  0  0  0  0  0  0  0  0  0  0  0
  -26.3160  -14.4596   -4.2438 O   0  0  0  0  0  0  0  0  0  0  0  0
  -27.2417  -13.9596   -3.6064 C   0  0  0  0  0  0  0  0  0  0  0  0
  -28.3972  -13.4714   -4.2049 N   0  0  0  0  0  0  0  0  0  0  0  0
  -28.5799  -13.7132   -5.6399 C   0  0  0  0  0  0  0  0  0  0  0  0
  -30.0373  -13.5688   -6.0898 C   0  0  0  0  0  0  0  0  0  0  0  0
  -30.6121  -12.2765   -5.7065 N   0  0  0  0  0  0  0  0  0  0  0  0
  -31.5747  -11.7044   -6.5237 C   0  0  0  0  0  0  0  0  0  0  0  0
  -32.0065  -12.2383   -7.5388 O   0  0  0  0  0  0  0  0  0  0  0  0
  -30.0990  -11.6613   -4.4792 C   0  0  0  0  0  0  0  0  0  0  0  0
  -29.4314  -12.6718   -3.5347 C   0  0  0  0  0  0  0  0  0  0  0  0
  -32.0837  -10.3609   -6.1261 C   0  0  0  0  0  0  0  0  0  0  0  0
  -31.4675   -9.1086   -6.7118 C   0  0  0  0  0  0  0  0  0  0  0  0
  -32.8494   -9.5168   -7.1207 C   0  0  0  0  0  0  0  0  0  0  0  0
  -28.6313  -15.3923    0.9726 C   0  0  0  0  0  0  0  0  0  0  0  0
  -27.8495  -16.0886    2.0793 C   0  0  0  0  0  0  0  0  0  0  0  0
  -26.7873  -16.7512    1.7226 N   0  0  0  0  0  0  0  0  0  0  0  0
  -26.0616  -17.3772    2.6863 N   0  0  0  0  0  0  0  0  0  0  0  0
  -26.3337  -17.3815    4.0320 C   0  0  0  0  0  0  0  0  0  0  0  0
  -25.6270  -17.9705    4.8422 O   0  0  0  0  0  0  0  0  0  0  0  0
  -27.5302  -16.6355    4.4534 C   0  0  0  0  0  0  0  0  0  0  0  0
  -27.8840  -16.5846    5.8075 C   0  0  0  0  0  0  0  0  0  0  0  0
  -29.0177  -15.8758    6.2005 C   0  0  0  0  0  0  0  0  0  0  0  0
  -29.7933  -15.2230    5.2438 C   0  0  0  0  0  0  0  0  0  0  0  0
  -29.4400  -15.2764    3.8916 C   0  0  0  0  0  0  0  0  0  0  0  0
  -28.3010  -15.9851    3.4914 C   0  0  0  0  0  0  0  0  0  0  0  0
  -25.2412  -17.8902    2.3782 H   0  0  0  0  0  0  0  0  0  0  0  0
  8  9  2  0  0  0
  9  1  1  0  0  0
  1  2  2  0  0  0
  2  3  1  0  0  0
  3 21  1  0  0  0
 21 22  1  0  0  0
 22 23  2  0  0  0
 23 24  1  0  0  0
 24 25  1  0  0  0
 25 26  2  0  0  0
 25 27  1  0  0  0
 27 28  2  0  0  0
 28 29  1  0  0  0
 29 30  2  0  0  0
 30 31  1  0  0  0
 31 32  2  0  0  0
  3  4  2  0  0  0
  4  5  1  0  0  0
  5  6  2  0  0  0
  6  7  1  0  0  0
  9 10  1  0  0  0
 10 11  1  0  0  0
 11 12  1  0  0  0
 12 13  1  0  0  0
 13 14  1  0  0  0
 14 15  2  0  0  0
 14 18  1  0  0  0
 18 19  1  0  0  0
 19 20  1  0  0  0
 13 16  1  0  0  0
 16 17  1  0  0  0
  6  1  1  0  0  0
 17 10  1  0  0  0
 32 22  1  0  0  0
 20 18  1  0  0  0
 32 27  1  0  0  0
 24 33  1  0  0  0
M  END
> <minimizedAffinity>
-12.72737

$$$$
