L1:O95271:32927
     RDKit          3D

 55 59  0  0  0  0  0  0  0  0999 V2000
    0.1463   -0.3660    2.4385 O   0  0  0  0  0  0  0  0  0  0  0  0
   -0.4433    0.0910    1.4603 C   0  0  0  0  0  0  0  0  0  0  0  0
    0.3742    0.4110    0.2765 C   0  0  0  0  0  0  0  0  0  0  0  0
    1.2296   -0.5774   -0.2286 C   0  0  0  0  0  0  0  0  0  0  0  0
    2.0695   -0.3008   -1.3181 C   0  0  0  0  0  0  0  0  0  0  0  0
    2.9878   -1.3730   -1.8616 C   0  0  0  0  0  0  0  0  0  0  0  0
    4.4271   -0.9062   -2.0387 C   0  0  0  0  0  0  0  0  0  0  0  0
    4.8083   -0.6192   -3.2498 N   0  0  0  0  0  0  0  0  0  0  0  0
    6.0839   -0.1913   -3.4420 N   0  0  0  0  0  0  0  0  0  0  0  0
    7.0372   -0.0203   -2.4688 C   0  0  0  0  0  0  0  0  0  0  0  0
    8.1702    0.3732   -2.7224 O   0  0  0  0  0  0  0  0  0  0  0  0
    6.6227   -0.3383   -1.0930 C   0  0  0  0  0  0  0  0  0  0  0  0
    7.5297   -0.1921   -0.0360 C   0  0  0  0  0  0  0  0  0  0  0  0
    7.1311   -0.4940    1.2648 C   0  0  0  0  0  0  0  0  0  0  0  0
    5.8329   -0.9408    1.5060 C   0  0  0  0  0  0  0  0  0  0  0  0
    4.9288   -1.0883    0.4491 C   0  0  0  0  0  0  0  0  0  0  0  0
    5.3231   -0.7844   -0.8593 C   0  0  0  0  0  0  0  0  0  0  0  0
    2.0185    0.9735   -1.9057 C   0  0  0  0  0  0  0  0  0  0  0  0
    1.1805    1.9634   -1.3864 C   0  0  0  0  0  0  0  0  0  0  0  0
    0.3725    1.6821   -0.2894 C   0  0  0  0  0  0  0  0  0  0  0  0
   -0.4001    2.6590    0.2059 F   0  0  0  0  0  0  0  0  0  0  0  0
   -1.8213    0.2677    1.4203 N   0  0  0  0  0  0  0  0  0  0  0  0
   -2.5762    0.0480    2.6584 C   0  0  0  0  0  0  0  0  0  0  0  0
   -3.9600    0.7052    2.6397 C   0  0  0  0  0  0  0  0  0  0  0  0
   -4.7512    0.3022    1.4739 N   0  0  0  0  0  0  0  0  0  0  0  0
   -6.1297    0.2228    1.5968 C   0  0  0  0  0  0  0  0  0  0  0  0
   -6.7365    0.5096    2.6223 O   0  0  0  0  0  0  0  0  0  0  0  0
   -6.8861   -0.2521    0.4033 C   0  0  0  0  0  0  0  0  0  0  0  0
   -8.3435    0.1170    0.2284 C   0  0  0  0  0  0  0  0  0  0  0  0
   -7.3101    0.7315   -0.6648 C   0  0  0  0  0  0  0  0  0  0  0  0
   -4.0114   -0.0179    0.2499 C   0  0  0  0  0  0  0  0  0  0  0  0
   -2.6038    0.5960    0.2212 C   0  0  0  0  0  0  0  0  0  0  0  0
    1.2403   -1.5582    0.2447 H   0  0  0  0  0  0  0  0  0  0  0  0
    2.5956   -1.6981   -2.8339 H   0  0  0  0  0  0  0  0  0  0  0  0
    2.9807   -2.2637   -1.2228 H   0  0  0  0  0  0  0  0  0  0  0  0
    6.3546    0.0206   -4.3975 H   0  0  0  0  0  0  0  0  0  0  0  0
    8.5428    0.1574   -0.2258 H   0  0  0  0  0  0  0  0  0  0  0  0
    7.8314   -0.3792    2.0892 H   0  0  0  0  0  0  0  0  0  0  0  0
    5.5206   -1.1728    2.5227 H   0  0  0  0  0  0  0  0  0  0  0  0
    3.9286   -1.4366    0.6845 H   0  0  0  0  0  0  0  0  0  0  0  0
    2.6434    1.2096   -2.7670 H   0  0  0  0  0  0  0  0  0  0  0  0
    1.1620    2.9560   -1.8270 H   0  0  0  0  0  0  0  0  0  0  0  0
   -2.6799   -1.0381    2.7733 H   0  0  0  0  0  0  0  0  0  0  0  0
   -1.9945    0.4155    3.5112 H   0  0  0  0  0  0  0  0  0  0  0  0
   -3.8564    1.7957    2.5848 H   0  0  0  0  0  0  0  0  0  0  0  0
   -4.4974    0.4714    3.5648 H   0  0  0  0  0  0  0  0  0  0  0  0
   -6.6226   -1.2567    0.0881 H   0  0  0  0  0  0  0  0  0  0  0  0
   -8.8080    0.7461    0.9807 H   0  0  0  0  0  0  0  0  0  0  0  0
   -9.0069   -0.6303   -0.1905 H   0  0  0  0  0  0  0  0  0  0  0  0
   -7.2746    0.4068   -1.6978 H   0  0  0  0  0  0  0  0  0  0  0  0
   -7.0820    1.7817   -0.5184 H   0  0  0  0  0  0  0  0  0  0  0  0
   -3.9412   -1.1115    0.2053 H   0  0  0  0  0  0  0  0  0  0  0  0
   -4.5748    0.3142   -0.6264 H   0  0  0  0  0  0  0  0  0  0  0  0
   -2.0781    0.2627   -0.6783 H   0  0  0  0  0  0  0  0  0  0  0  0
   -2.6846    1.6884    0.1856 H   0  0  0  0  0  0  0  0  0  0  0  0
  1  2  2  0
  2  3  1  0
  3  4  2  0
  4  5  1  0
  5  6  1  0
  6  7  1  0
  7  8  2  0
  8  9  1  0
  9 10  1  0
 10 11  2  0
 10 12  1  0
 12 13  2  0
 13 14  1  0
 14 15  2  0
 15 16  1  0
 16 17  2  0
  5 18  2  0
 18 19  1  0
 19 20  2  0
 20 21  1  0
  2 22  1  0
 22 23  1  0
 23 24  1  0
 24 25  1  0
 25 26  1  0
 26 27  2  0
 26 28  1  0
 28 29  1  0
 29 30  1  0
 25 31  1  0
 31 32  1  0
 20  3  1  0
 32 22  1  0
 17  7  1  0
 30 28  1  0
 17 12  1  0
  4 33  1  0
  6 34  1  0
  6 35  1  0
  9 36  1  0
 13 37  1  0
 14 38  1  0
 15 39  1  0
 16 40  1  0
 18 41  1  0
 19 42  1  0
 23 43  1  0
 23 44  1  0
 24 45  1  0
 24 46  1  0
 28 47  1  0
 29 48  1  0
 29 49  1  0
 30 50  1  0
 30 51  1  0
 31 52  1  0
 31 53  1  0
 32 54  1  0
 32 55  1  0
M  END
>  <mol_id>  (1) 
32927

>  <source_index>  (1) 
3

>  <layer>  (1) 
L1

>  <uniprot>  (1) 
O95271

>  <paff>  (1) 
6.1917999999999997

>  <smiles>  (1) 
c1ccc2c(c1)C(=NNC2=O)Cc3ccc(c(c3)C(=O)N4CCN(CC4)C(=O)C5CC5)F

$$$$
