L1:O95271:33996


 29 31  0  0  0  0  0  0  0  0999 V2000
  -25.5096  -13.5726   -4.2818 C   0  0  0  0  0  0  0  0  0  0  0  0
  -26.6877  -13.6873   -5.0334 C   0  0  0  0  0  0  0  0  0  0  0  0
  -27.8540  -14.1882   -4.4533 C   0  0  0  0  0  0  0  0  0  0  0  0
  -27.8363  -14.5776   -3.1135 C   0  0  0  0  0  0  0  0  0  0  0  0
  -29.0419  -15.1050   -2.4569 C   0  0  0  0  0  0  0  0  0  0  0  0
  -30.1114  -15.2142   -3.0450 O   0  0  0  0  0  0  0  0  0  0  0  0
  -28.8936  -15.4603   -1.1408 N   0  0  0  0  0  0  0  0  0  0  0  0
  -27.7080  -15.3431   -0.4496 C   0  0  0  0  0  0  0  0  0  0  0  0
  -26.6340  -14.8652   -0.9948 N   0  0  0  0  0  0  0  0  0  0  0  0
  -26.6770  -14.4760   -2.3446 C   0  0  0  0  0  0  0  0  0  0  0  0
  -25.5148  -13.9704   -2.9404 C   0  0  0  0  0  0  0  0  0  0  0  0
  -29.7359  -15.7886   -0.6940 H   0  0  0  0  0  0  0  0  0  0  0  0
  -27.7099  -15.7708    0.9767 C   0  0  0  0  0  0  0  0  0  0  0  0
  -26.8083  -16.7206    1.4692 C   0  0  0  0  0  0  0  0  0  0  0  0
  -26.8503  -17.0947    2.8167 C   0  0  0  0  0  0  0  0  0  0  0  0
  -27.7788  -16.5191    3.6969 C   0  0  0  0  0  0  0  0  0  0  0  0
  -28.6718  -15.5603    3.1960 C   0  0  0  0  0  0  0  0  0  0  0  0
  -28.6339  -15.1853    1.8499 C   0  0  0  0  0  0  0  0  0  0  0  0
  -27.8504  -16.9271    5.1527 C   0  0  0  0  0  0  0  0  0  0  0  0
  -27.3577  -18.3548    5.3547 C   0  0  0  0  0  0  0  0  0  0  0  0
  -27.0617  -16.0456    5.9499 O   0  0  0  0  0  0  0  0  0  0  0  0
  -27.2152  -16.2877    6.8782 H   0  0  0  0  0  0  0  0  0  0  0  0
  -23.2528  -13.7357   -5.3725 C   0  0  0  0  0  0  0  0  0  0  0  0
  -23.0177  -14.9328   -5.2530 O   0  0  0  0  0  0  0  0  0  0  0  0
  -24.3811  -13.0568   -4.9438 N   0  0  0  0  0  0  0  0  0  0  0  0
  -24.3571  -12.0552   -5.1193 H   0  0  0  0  0  0  0  0  0  0  0  0
  -22.2760  -12.8012   -6.0972 C   0  0  0  0  0  0  0  0  0  0  0  0
  -20.4436  -12.5679   -4.6244 C   0  0  0  0  0  0  0  0  0  0  0  0
  -21.5713  -11.9276   -5.2146 O   0  0  0  0  0  0  0  0  0  0  0  0
 28 29  1  0  0  0
 29 27  1  0  0  0
 27 23  1  0  0  0
 23 24  2  0  0  0
 23 25  1  0  0  0
 25  1  1  0  0  0
  1  2  2  0  0  0
  2  3  1  0  0  0
  3  4  2  0  0  0
  4  5  1  0  0  0
  5  6  2  0  0  0
  5  7  1  0  0  0
  7  8  1  0  0  0
  8 13  1  0  0  0
 13 14  2  0  0  0
 14 15  1  0  0  0
 15 16  2  0  0  0
 16 19  1  0  0  0
 19 20  1  0  0  0
 19 21  1  0  0  0
 16 17  1  0  0  0
 17 18  2  0  0  0
  8  9  2  0  0  0
  9 10  1  0  0  0
 10 11  2  0  0  0
 11  1  1  0  0  0
 10  4  1  0  0  0
 18 13  1  0  0  0
 25 26  1  0  0  0
  7 12  1  0  0  0
 21 22  1  0  0  0
M  END
> <minimizedAffinity>
-10.10068

$$$$
