L1:O95271:33996
     RDKit          3D

 45 47  0  0  0  0  0  0  0  0999 V2000
    6.9232   -2.8419    1.2888 C   0  0  0  0  0  0  0  0  0  0  0  0
    7.0771   -1.8052    0.3236 O   0  0  0  0  0  0  0  0  0  0  0  0
    6.2960   -2.0492   -0.8465 C   0  0  0  0  0  0  0  0  0  0  0  0
    4.8394   -1.5886   -0.7094 C   0  0  0  0  0  0  0  0  0  0  0  0
    3.9385   -2.1321   -1.3384 O   0  0  0  0  0  0  0  0  0  0  0  0
    4.7274   -0.5082    0.1496 N   0  0  0  0  0  0  0  0  0  0  0  0
    3.5711    0.2129    0.4970 C   0  0  0  0  0  0  0  0  0  0  0  0
    3.7275    1.2527    1.4245 C   0  0  0  0  0  0  0  0  0  0  0  0
    2.6311    2.0175    1.8253 C   0  0  0  0  0  0  0  0  0  0  0  0
    1.3729    1.7383    1.2906 C   0  0  0  0  0  0  0  0  0  0  0  0
    0.1871    2.5124    1.6873 C   0  0  0  0  0  0  0  0  0  0  0  0
    0.2444    3.4211    2.5073 O   0  0  0  0  0  0  0  0  0  0  0  0
   -0.9892    2.1465    1.0850 N   0  0  0  0  0  0  0  0  0  0  0  0
   -1.0884    1.1257    0.1656 C   0  0  0  0  0  0  0  0  0  0  0  0
   -2.4389    0.8494   -0.3973 C   0  0  0  0  0  0  0  0  0  0  0  0
   -3.4205    1.8415   -0.4958 C   0  0  0  0  0  0  0  0  0  0  0  0
   -4.6773    1.5340   -1.0281 C   0  0  0  0  0  0  0  0  0  0  0  0
   -4.9712    0.2402   -1.4839 C   0  0  0  0  0  0  0  0  0  0  0  0
   -6.3321   -0.1136   -2.0441 C   0  0  1  0  0  0  0  0  0  0  0  0
   -7.2699   -0.6135   -0.9521 C   0  0  0  0  0  0  0  0  0  0  0  0
   -6.9162    1.0254   -2.6735 O   0  0  0  0  0  0  0  0  0  0  0  0
   -3.9772   -0.7451   -1.3904 C   0  0  0  0  0  0  0  0  0  0  0  0
   -2.7209   -0.4421   -0.8576 C   0  0  0  0  0  0  0  0  0  0  0  0
   -0.0658    0.4139   -0.1903 N   0  0  0  0  0  0  0  0  0  0  0  0
    1.1908    0.7112    0.3646 C   0  0  0  0  0  0  0  0  0  0  0  0
    2.3003   -0.0483   -0.0270 C   0  0  0  0  0  0  0  0  0  0  0  0
    7.5167   -2.5799    2.1688 H   0  0  0  0  0  0  0  0  0  0  0  0
    5.8763   -2.9410    1.5909 H   0  0  0  0  0  0  0  0  0  0  0  0
    7.2930   -3.7914    0.8900 H   0  0  0  0  0  0  0  0  0  0  0  0
    6.7391   -1.4688   -1.6627 H   0  0  0  0  0  0  0  0  0  0  0  0
    6.3260   -3.1084   -1.1254 H   0  0  0  0  0  0  0  0  0  0  0  0
    5.6015   -0.2349    0.5923 H   0  0  0  0  0  0  0  0  0  0  0  0
    4.7033    1.4799    1.8475 H   0  0  0  0  0  0  0  0  0  0  0  0
    2.7567    2.8216    2.5464 H   0  0  0  0  0  0  0  0  0  0  0  0
   -1.7994    2.6630    1.3910 H   0  0  0  0  0  0  0  0  0  0  0  0
   -3.2282    2.8673   -0.1975 H   0  0  0  0  0  0  0  0  0  0  0  0
   -5.4299    2.3177   -1.1030 H   0  0  0  0  0  0  0  0  0  0  0  0
   -6.2148   -0.8803   -2.8191 H   0  0  0  0  0  0  0  0  0  0  0  0
   -7.4449    0.1607   -0.1961 H   0  0  0  0  0  0  0  0  0  0  0  0
   -8.2485   -0.8662   -1.3745 H   0  0  0  0  0  0  0  0  0  0  0  0
   -6.8690   -1.4999   -0.4500 H   0  0  0  0  0  0  0  0  0  0  0  0
   -7.7377    0.7261   -3.0971 H   0  0  0  0  0  0  0  0  0  0  0  0
   -4.1709   -1.7583   -1.7364 H   0  0  0  0  0  0  0  0  0  0  0  0
   -1.9634   -1.2218   -0.8019 H   0  0  0  0  0  0  0  0  0  0  0  0
    2.1349   -0.8402   -0.7509 H   0  0  0  0  0  0  0  0  0  0  0  0
  1  2  1  0
  2  3  1  0
  3  4  1  0
  4  5  2  0
  4  6  1  0
  6  7  1  0
  7  8  2  0
  8  9  1  0
  9 10  2  0
 10 11  1  0
 11 12  2  0
 11 13  1  0
 13 14  1  0
 14 15  1  0
 15 16  2  0
 16 17  1  0
 17 18  2  0
 18 19  1  0
 19 20  1  0
 19 21  1  0
 18 22  1  0
 22 23  2  0
 14 24  2  0
 24 25  1  0
 25 26  2  0
 26  7  1  0
 25 10  1  0
 23 15  1  0
  1 27  1  0
  1 28  1  0
  1 29  1  0
  3 30  1  0
  3 31  1  0
  6 32  1  0
  8 33  1  0
  9 34  1  0
 13 35  1  0
 16 36  1  0
 17 37  1  0
 19 38  1  6
 20 39  1  0
 20 40  1  0
 20 41  1  0
 21 42  1  0
 22 43  1  0
 23 44  1  0
 26 45  1  0
M  END
>  <mol_id>  (1) 
33996

>  <source_index>  (1) 
4

>  <layer>  (1) 
L1

>  <uniprot>  (1) 
O95271

>  <paff>  (1) 
6

>  <smiles>  (1) 
COCC(=O)Nc1ccc2c(=O)[nH]c(-c3ccc(C(C)O)cc3)nc2c1

$$$$
