L1:O95271:39496


 28 30  0  0  0  0  0  0  0  0999 V2000
  -25.8694  -13.7326   -3.1422 C   0  0  0  0  0  0  0  0  0  0  0  0
  -25.9316  -13.4813   -4.5290 C   0  0  0  0  0  0  0  0  0  0  0  0
  -26.9439  -14.0269   -5.3181 C   0  0  0  0  0  0  0  0  0  0  0  0
  -27.9103  -14.8326   -4.7305 C   0  0  0  0  0  0  0  0  0  0  0  0
  -27.8552  -15.0832   -3.3543 C   0  0  0  0  0  0  0  0  0  0  0  0
  -28.8817  -15.9322   -2.7255 C   0  0  0  0  0  0  0  0  0  0  0  0
  -29.7992  -16.4333   -3.3641 O   0  0  0  0  0  0  0  0  0  0  0  0
  -28.7522  -16.1243   -1.3765 N   0  0  0  0  0  0  0  0  0  0  0  0
  -27.7427  -15.5723   -0.6286 C   0  0  0  0  0  0  0  0  0  0  0  0
  -26.8281  -14.8133   -1.1436 N   0  0  0  0  0  0  0  0  0  0  0  0
  -26.8496  -14.5459   -2.5346 C   0  0  0  0  0  0  0  0  0  0  0  0
  -29.4813  -16.6800   -0.9529 H   0  0  0  0  0  0  0  0  0  0  0  0
  -27.7513  -15.8673    0.8266 C   0  0  0  0  0  0  0  0  0  0  0  0
  -26.8250  -16.7407    1.4014 C   0  0  0  0  0  0  0  0  0  0  0  0
  -26.8630  -16.9934    2.7771 C   0  0  0  0  0  0  0  0  0  0  0  0
  -27.8176  -16.3807    3.6074 C   0  0  0  0  0  0  0  0  0  0  0  0
  -28.7324  -15.4938    3.0114 C   0  0  0  0  0  0  0  0  0  0  0  0
  -28.6989  -15.2362    1.6374 C   0  0  0  0  0  0  0  0  0  0  0  0
  -27.8584  -16.6544    5.1108 C   0  0  0  0  0  0  0  0  0  0  0  0
  -27.5550  -18.1275    5.4128 C   0  0  0  0  0  0  0  0  0  0  0  0
  -29.2130  -16.2460    5.7028 C   0  0  0  0  0  0  0  0  0  0  0  0
  -26.8541  -15.8755    5.7741 O   0  0  0  0  0  0  0  0  0  0  0  0
  -26.9132  -16.0647    6.7255 H   0  0  0  0  0  0  0  0  0  0  0  0
  -22.2995  -12.7130   -2.2976 C   0  0  0  0  0  0  0  0  0  0  0  0
  -23.4649  -13.2860   -2.9120 N   0  0  0  0  0  0  0  0  0  0  0  0
  -24.7278  -13.0957   -2.4062 C   0  0  0  0  0  0  0  0  0  0  0  0
  -24.9369  -12.4262   -1.3980 O   0  0  0  0  0  0  0  0  0  0  0  0
  -23.3739  -13.8608   -3.7485 H   0  0  0  0  0  0  0  0  0  0  0  0
 24 25  1  0  0  0
 25 26  1  0  0  0
 26 27  2  0  0  0
 26  1  1  0  0  0
  1  2  2  0  0  0
  2  3  1  0  0  0
  3  4  2  0  0  0
  4  5  1  0  0  0
  5  6  1  0  0  0
  6  7  2  0  0  0
  6  8  1  0  0  0
  8  9  1  0  0  0
  9 13  1  0  0  0
 13 14  2  0  0  0
 14 15  1  0  0  0
 15 16  2  0  0  0
 16 19  1  0  0  0
 19 20  1  0  0  0
 19 21  1  0  0  0
 19 22  1  0  0  0
 16 17  1  0  0  0
 17 18  2  0  0  0
  9 10  2  0  0  0
 10 11  1  0  0  0
 11  1  1  0  0  0
 11  5  2  0  0  0
 18 13  1  0  0  0
 25 28  1  0  0  0
  8 12  1  0  0  0
 22 23  1  0  0  0
M  END
> <minimizedAffinity>
-11.17961

$$$$
