L1:O95271:67395
 OpenBabel09212617333D

 48 50  0  0  0  0  0  0  0  0999 V2000
  -29.7360  -15.5523   -4.6036 C   0  0  0  0  0  0  0  0  0  0  0  0
  -28.6506  -14.8374   -5.1173 C   0  0  0  0  0  0  0  0  0  0  0  0
  -27.6128  -14.4240   -4.2764 C   0  0  0  0  0  0  0  0  0  0  0  0
  -27.6656  -14.7301   -2.9162 C   0  0  0  0  0  0  0  0  0  0  0  0
  -26.5984  -14.3131   -1.9943 C   0  0  0  0  0  0  0  0  0  0  0  0
  -25.6237  -13.6707   -2.3650 O   0  0  0  0  0  0  0  0  0  0  0  0
  -26.7686  -14.6864   -0.6853 N   0  0  0  0  0  0  0  0  0  0  0  0
  -27.8552  -15.4006   -0.2315 C   0  0  0  0  0  0  0  0  0  0  0  0
  -28.8218  -15.7672   -1.0137 N   0  0  0  0  0  0  0  0  0  0  0  0
  -28.7371  -15.4409   -2.3782 C   0  0  0  0  0  0  0  0  0  0  0  0
  -29.7674  -15.8479   -3.2317 C   0  0  0  0  0  0  0  0  0  0  0  0
  -26.0465  -14.3650   -0.0584 H   0  0  0  0  0  0  0  0  0  0  0  0
  -27.8887  -15.7235    1.2199 C   0  0  0  0  0  0  0  0  0  0  0  0
  -28.8212  -15.1450    2.0844 C   0  0  0  0  0  0  0  0  0  0  0  0
  -28.8151  -15.4798    3.4427 C   0  0  0  0  0  0  0  0  0  0  0  0
  -27.8764  -16.3864    3.9739 C   0  0  0  0  0  0  0  0  0  0  0  0
  -26.9439  -16.9522    3.0915 C   0  0  0  0  0  0  0  0  0  0  0  0
  -26.9450  -16.6192    1.7319 C   0  0  0  0  0  0  0  0  0  0  0  0
  -27.9193  -16.7253    5.4636 C   0  0  0  0  0  0  0  0  0  0  0  0
  -29.3170  -16.4542    6.0310 C   0  0  0  0  0  0  0  0  0  0  0  0
  -27.4966  -18.1582    5.8137 C   0  0  0  0  0  0  0  0  0  0  0  0
  -27.0014  -15.8645    6.1519 O   0  0  0  0  0  0  0  0  0  0  0  0
  -26.1730  -15.8679    5.6410 H   0  0  0  0  0  0  0  0  0  0  0  0
  -31.7102  -15.2395   -6.1279 C   0  0  0  0  0  0  0  0  0  0  0  0
  -31.6924  -14.0183   -6.2362 O   0  0  0  0  0  0  0  0  0  0  0  0
  -30.8228  -16.0063   -5.3807 N   0  0  0  0  0  0  0  0  0  0  0  0
  -30.9618  -17.0096   -5.3981 H   0  0  0  0  0  0  0  0  0  0  0  0
  -32.7721  -16.1183   -6.8255 C   0  0  0  0  0  0  0  0  0  0  0  0
  -34.8189  -17.2697   -6.5518 C   0  0  0  0  0  0  0  0  0  0  0  0
  -33.5163  -17.0287   -6.0368 O   0  0  0  0  0  0  0  0  0  0  0  0
  -28.6148  -14.6131   -6.1240 H   0  0  0  0  0  0  0  0  0  0  0  0
  -26.8131  -13.8960   -4.6593 H   0  0  0  0  0  0  0  0  0  0  0  0
  -30.5659  -16.3755   -2.8457 H   0  0  0  0  0  0  0  0  0  0  0  0
  -29.5138  -14.4715    1.7215 H   0  0  0  0  0  0  0  0  0  0  0  0
  -29.5144  -15.0528    4.0702 H   0  0  0  0  0  0  0  0  0  0  0  0
  -26.2470  -17.6237    3.4500 H   0  0  0  0  0  0  0  0  0  0  0  0
  -26.2432  -17.0384    1.1020 H   0  0  0  0  0  0  0  0  0  0  0  0
  -30.0299  -17.0818    5.5382 H   0  0  0  0  0  0  0  0  0  0  0  0
  -29.5742  -15.4280    5.8706 H   0  0  0  0  0  0  0  0  0  0  0  0
  -29.3227  -16.6635    7.0803 H   0  0  0  0  0  0  0  0  0  0  0  0
  -28.1491  -18.8518    5.3259 H   0  0  0  0  0  0  0  0  0  0  0  0
  -27.5545  -18.2984    6.8729 H   0  0  0  0  0  0  0  0  0  0  0  0
  -26.4914  -18.3235    5.4865 H   0  0  0  0  0  0  0  0  0  0  0  0
  -33.4727  -15.4576   -7.2919 H   0  0  0  0  0  0  0  0  0  0  0  0
  -32.2053  -16.7429   -7.4839 H   0  0  0  0  0  0  0  0  0  0  0  0
  -35.3310  -17.9621   -5.9168 H   0  0  0  0  0  0  0  0  0  0  0  0
  -34.7426  -17.6790   -7.5375 H   0  0  0  0  0  0  0  0  0  0  0  0
  -35.3637  -16.3495   -6.5889 H   0  0  0  0  0  0  0  0  0  0  0  0
  1  2  2  0  0  0  0
  2  3  1  0  0  0  0
  2 31  1  0  0  0  0
  3  4  2  0  0  0  0
  3 32  1  0  0  0  0
  4  5  1  0  0  0  0
  5  6  2  0  0  0  0
  5  7  1  0  0  0  0
  7  8  1  0  0  0  0
  7 12  1  0  0  0  0
  8 13  1  0  0  0  0
  8  9  2  0  0  0  0
  9 10  1  0  0  0  0
 10 11  2  0  0  0  0
 10  4  1  0  0  0  0
 11  1  1  0  0  0  0
 11 33  1  0  0  0  0
 13 14  2  0  0  0  0
 14 15  1  0  0  0  0
 14 34  1  0  0  0  0
 15 16  2  0  0  0  0
 15 35  1  0  0  0  0
 16 19  1  0  0  0  0
 16 17  1  0  0  0  0
 17 18  2  0  0  0  0
 17 36  1  0  0  0  0
 18 13  1  0  0  0  0
 18 37  1  0  0  0  0
 19 20  1  0  0  0  0
 19 21  1  0  0  0  0
 19 22  1  0  0  0  0
 20 38  1  0  0  0  0
 20 39  1  0  0  0  0
 20 40  1  0  0  0  0
 21 41  1  0  0  0  0
 21 42  1  0  0  0  0
 21 43  1  0  0  0  0
 22 23  1  0  0  0  0
 24 25  2  0  0  0  0
 24 26  1  0  0  0  0
 26  1  1  0  0  0  0
 26 27  1  0  0  0  0
 28 24  1  0  0  0  0
 28 44  1  0  0  0  0
 28 45  1  0  0  0  0
 29 30  1  0  0  0  0
 29 46  1  0  0  0  0
 29 47  1  0  0  0  0
 29 48  1  0  0  0  0
 30 28  1  0  0  0  0
M  END
>  <minimizedAffinity>
-10.33419

$$$$
