L1:O95271:67399


 32 34  0  0  0  0  0  0  0  0999 V2000
  -25.1854  -13.3487   -4.0041 C   0  0  0  0  0  0  0  0  0  0  0  0
  -26.0834  -13.6640   -3.1247 N   0  0  0  0  0  0  0  0  0  0  0  0
  -27.4453  -13.6176   -3.5055 C   0  0  0  0  0  0  0  0  0  0  0  0
  -28.4298  -13.9706   -2.5605 C   0  0  0  0  0  0  0  0  0  0  0  0
  -29.7816  -13.9374   -2.9158 C   0  0  0  0  0  0  0  0  0  0  0  0
  -30.1633  -13.5554   -4.2062 C   0  0  0  0  0  0  0  0  0  0  0  0
  -29.1982  -13.2042   -5.1471 C   0  0  0  0  0  0  0  0  0  0  0  0
  -27.8488  -13.2392   -4.7877 C   0  0  0  0  0  0  0  0  0  0  0  0
  -26.7981  -12.8718   -5.7481 C   0  0  0  0  0  0  0  0  0  0  0  0
  -27.0520  -12.5138   -6.8918 O   0  0  0  0  0  0  0  0  0  0  0  0
  -25.5111  -12.9518   -5.2811 N   0  0  0  0  0  0  0  0  0  0  0  0
  -24.8049  -12.6618   -5.9408 H   0  0  0  0  0  0  0  0  0  0  0  0
  -20.9897  -13.3976   -2.9491 C   0  0  0  0  0  0  0  0  0  0  0  0
  -21.8667  -12.4033   -2.4740 C   0  0  0  0  0  0  0  0  0  0  0  0
  -23.2224  -12.3976   -2.8186 C   0  0  0  0  0  0  0  0  0  0  0  0
  -23.7394  -13.3854   -3.6585 C   0  0  0  0  0  0  0  0  0  0  0  0
  -22.8915  -14.3908   -4.1289 C   0  0  0  0  0  0  0  0  0  0  0  0
  -21.5340  -14.3919   -3.7791 C   0  0  0  0  0  0  0  0  0  0  0  0
  -18.5362  -13.6964   -3.7070 C   0  0  0  0  0  0  0  0  0  0  0  0
  -19.5038  -13.3708   -2.5467 C   0  0  0  0  0  0  0  0  0  0  0  0
  -19.1321  -11.9660   -2.0245 C   0  0  0  0  0  0  0  0  0  0  0  0
  -19.2490  -14.4103   -1.4341 C   0  0  0  0  0  0  0  0  0  0  0  0
  -27.9613  -14.3400   -1.2836 N   0  0  0  0  0  0  0  0  0  0  0  0
  -27.8758  -15.5951   -0.7192 C   0  0  0  0  0  0  0  0  0  0  0  0
  -28.1947  -16.6576   -1.2464 O   0  0  0  0  0  0  0  0  0  0  0  0
  -27.6238  -13.5559   -0.7216 H   0  0  0  0  0  0  0  0  0  0  0  0
  -27.3501  -15.5305    0.7280 C   0  0  0  0  0  0  0  0  0  0  0  0
  -26.6684  -16.7379    1.0789 O   0  0  0  0  0  0  0  0  0  0  0  0
  -27.3293  -17.4541    1.0906 H   0  0  0  0  0  0  0  0  0  0  0  0
  -28.4935  -15.2529    1.7089 C   0  0  0  0  0  0  0  0  0  0  0  0
  -28.3913  -16.0381    2.8920 O   0  0  0  0  0  0  0  0  0  0  0  0
  -27.5570  -15.7709    3.3320 H   0  0  0  0  0  0  0  0  0  0  0  0
 19 20  1  0  0  0
 20 21  1  0  0  0
 20 22  1  0  0  0
 20 13  1  0  0  0
 13 14  2  0  0  0
 14 15  1  0  0  0
 15 16  2  0  0  0
 16  1  1  0  0  0
  1  2  2  0  0  0
  2  3  1  0  0  0
  3  4  2  0  0  0
  4 23  1  0  0  0
 23 24  1  0  0  0
 24 25  2  0  0  0
 24 27  1  0  0  0
 27 28  1  0  0  0
 27 30  1  0  0  0
 30 31  1  0  0  0
  4  5  1  0  0  0
  5  6  2  0  0  0
  6  7  1  0  0  0
  7  8  2  0  0  0
  8  9  1  0  0  0
  9 10  2  0  0  0
  9 11  1  0  0  0
 16 17  1  0  0  0
 17 18  2  0  0  0
 18 13  1  0  0  0
 11  1  1  0  0  0
  8  3  1  0  0  0
 23 26  1  0  0  0
 28 29  1  0  0  0
 31 32  1  0  0  0
 11 12  1  0  0  0
M  END
> <minimizedAffinity>
-8.63244

$$$$
