L1:O95271:67397
     RDKit          3D

 44 46  0  0  0  0  0  0  0  0999 V2000
   -3.9020    3.1368   -1.5896 C   0  0  0  0  0  0  0  0  0  0  0  0
   -4.5885    1.8679   -1.1529 C   0  0  0  0  0  0  0  0  0  0  0  0
   -5.8076    1.7547   -1.2096 O   0  0  0  0  0  0  0  0  0  0  0  0
   -3.6888    0.9188   -0.7209 N   0  0  0  0  0  0  0  0  0  0  0  0
   -3.9499   -0.3810   -0.2352 C   0  0  0  0  0  0  0  0  0  0  0  0
   -5.2319   -0.9233   -0.1031 C   0  0  0  0  0  0  0  0  0  0  0  0
   -5.4039   -2.2186    0.3956 C   0  0  0  0  0  0  0  0  0  0  0  0
   -4.2974   -2.9788    0.7661 C   0  0  0  0  0  0  0  0  0  0  0  0
   -3.0182   -2.4337    0.6320 C   0  0  0  0  0  0  0  0  0  0  0  0
   -1.8243   -3.2028    1.0113 C   0  0  0  0  0  0  0  0  0  0  0  0
   -1.8905   -4.3462    1.4458 O   0  0  0  0  0  0  0  0  0  0  0  0
   -0.6250   -2.5597    0.8429 N   0  0  0  0  0  0  0  0  0  0  0  0
   -0.5077   -1.2818    0.3470 C   0  0  0  0  0  0  0  0  0  0  0  0
    0.8700   -0.7399    0.2190 C   0  0  0  0  0  0  0  0  0  0  0  0
    1.8809   -1.0847    1.1190 C   0  0  0  0  0  0  0  0  0  0  0  0
    3.1639   -0.5500    0.9635 C   0  0  0  0  0  0  0  0  0  0  0  0
    3.4696    0.3375   -0.0874 C   0  0  0  0  0  0  0  0  0  0  0  0
    4.8843    0.9042   -0.2050 C   0  0  0  0  0  0  0  0  0  0  0  0
    5.1246    1.9633    0.8762 C   0  0  0  0  0  0  0  0  0  0  0  0
    5.2332    1.4892   -1.5799 C   0  0  0  0  0  0  0  0  0  0  0  0
    5.8194   -0.1599    0.0200 O   0  0  0  0  0  0  0  0  0  0  0  0
    2.4351    0.6879   -0.9685 C   0  0  0  0  0  0  0  0  0  0  0  0
    1.1490    0.1565   -0.8168 C   0  0  0  0  0  0  0  0  0  0  0  0
   -1.5327   -0.5761   -0.0146 N   0  0  0  0  0  0  0  0  0  0  0  0
   -2.8226   -1.1436    0.1329 C   0  0  0  0  0  0  0  0  0  0  0  0
   -3.2896    2.9381   -2.4736 H   0  0  0  0  0  0  0  0  0  0  0  0
   -4.6496    3.8959   -1.8362 H   0  0  0  0  0  0  0  0  0  0  0  0
   -3.2676    3.5162   -0.7834 H   0  0  0  0  0  0  0  0  0  0  0  0
   -2.6966    1.1445   -0.7342 H   0  0  0  0  0  0  0  0  0  0  0  0
   -6.1180   -0.3591   -0.3788 H   0  0  0  0  0  0  0  0  0  0  0  0
   -6.4062   -2.6296    0.4944 H   0  0  0  0  0  0  0  0  0  0  0  0
   -4.4306   -3.9856    1.1552 H   0  0  0  0  0  0  0  0  0  0  0  0
    0.1862   -3.1123    1.0783 H   0  0  0  0  0  0  0  0  0  0  0  0
    1.6903   -1.7382    1.9655 H   0  0  0  0  0  0  0  0  0  0  0  0
    3.9370   -0.8221    1.6829 H   0  0  0  0  0  0  0  0  0  0  0  0
    4.4350    2.8084    0.7742 H   0  0  0  0  0  0  0  0  0  0  0  0
    5.0042    1.5448    1.8823 H   0  0  0  0  0  0  0  0  0  0  0  0
    6.1510    2.3453    0.8269 H   0  0  0  0  0  0  0  0  0  0  0  0
    5.0691    0.7524   -2.3752 H   0  0  0  0  0  0  0  0  0  0  0  0
    6.2948    1.7600   -1.6276 H   0  0  0  0  0  0  0  0  0  0  0  0
    4.6478    2.3856   -1.8101 H   0  0  0  0  0  0  0  0  0  0  0  0
    5.5333   -0.9095   -0.5304 H   0  0  0  0  0  0  0  0  0  0  0  0
    2.6017    1.3843   -1.7867 H   0  0  0  0  0  0  0  0  0  0  0  0
    0.3685    0.4442   -1.5181 H   0  0  0  0  0  0  0  0  0  0  0  0
  1  2  1  0
  2  3  2  0
  2  4  1  0
  4  5  1  0
  5  6  2  0
  6  7  1  0
  7  8  2  0
  8  9  1  0
  9 10  1  0
 10 11  2  0
 10 12  1  0
 12 13  1  0
 13 14  1  0
 14 15  2  0
 15 16  1  0
 16 17  2  0
 17 18  1  0
 18 19  1  0
 18 20  1  0
 18 21  1  0
 17 22  1  0
 22 23  2  0
 13 24  2  0
 24 25  1  0
 25  5  1  0
 25  9  2  0
 23 14  1  0
  1 26  1  0
  1 27  1  0
  1 28  1  0
  4 29  1  0
  6 30  1  0
  7 31  1  0
  8 32  1  0
 12 33  1  0
 15 34  1  0
 16 35  1  0
 19 36  1  0
 19 37  1  0
 19 38  1  0
 20 39  1  0
 20 40  1  0
 20 41  1  0
 21 42  1  0
 22 43  1  0
 23 44  1  0
M  END
>  <mol_id>  (1) 
67397

>  <source_index>  (1) 
8

>  <layer>  (1) 
L1

>  <uniprot>  (1) 
O95271

>  <paff>  (1) 
7.2441000000000004

>  <smiles>  (1) 
CC(=O)Nc1cccc2c(=O)[nH]c(-c3ccc(C(C)(C)O)cc3)nc12

$$$$
