L1:O95271:67397


 28 30  0  0  0  0  0  0  0  0999 V2000
  -29.0364  -15.7544    4.8750 C   0  0  0  0  0  0  0  0  0  0  0  0
  -28.7636  -16.3734    6.0987 C   0  0  0  0  0  0  0  0  0  0  0  0
  -27.7474  -17.3294    6.1966 C   0  0  0  0  0  0  0  0  0  0  0  0
  -26.9976  -17.6716    5.0741 C   0  0  0  0  0  0  0  0  0  0  0  0
  -27.2736  -17.0514    3.8532 C   0  0  0  0  0  0  0  0  0  0  0  0
  -26.5058  -17.3842    2.6447 C   0  0  0  0  0  0  0  0  0  0  0  0
  -25.6079  -18.2175    2.6460 O   0  0  0  0  0  0  0  0  0  0  0  0
  -26.8621  -16.7044    1.5084 N   0  0  0  0  0  0  0  0  0  0  0  0
  -27.8718  -15.7710    1.4629 C   0  0  0  0  0  0  0  0  0  0  0  0
  -28.5834  -15.4607    2.5005 N   0  0  0  0  0  0  0  0  0  0  0  0
  -28.2861  -16.0966    3.7313 C   0  0  0  0  0  0  0  0  0  0  0  0
  -26.3467  -16.9669    0.6811 H   0  0  0  0  0  0  0  0  0  0  0  0
  -28.1340  -15.1359    0.1453 C   0  0  0  0  0  0  0  0  0  0  0  0
  -29.3320  -15.3410   -0.5429 C   0  0  0  0  0  0  0  0  0  0  0  0
  -29.5374  -14.7257   -1.7820 C   0  0  0  0  0  0  0  0  0  0  0  0
  -28.5587  -13.8952   -2.3633 C   0  0  0  0  0  0  0  0  0  0  0  0
  -27.3537  -13.7187   -1.6660 C   0  0  0  0  0  0  0  0  0  0  0  0
  -27.1425  -14.3329   -0.4261 C   0  0  0  0  0  0  0  0  0  0  0  0
  -28.8274  -13.2572   -3.7260 C   0  0  0  0  0  0  0  0  0  0  0  0
  -30.2996  -12.8473   -3.8404 C   0  0  0  0  0  0  0  0  0  0  0  0
  -28.4432  -14.1245   -4.9320 C   0  0  0  0  0  0  0  0  0  0  0  0
  -28.0393  -12.0634   -3.8313 O   0  0  0  0  0  0  0  0  0  0  0  0
  -27.1351  -12.2958   -3.5572 H   0  0  0  0  0  0  0  0  0  0  0  0
  -32.0541  -13.4960    4.8089 C   0  0  0  0  0  0  0  0  0  0  0  0
  -31.2883  -14.7124    5.2628 C   0  0  0  0  0  0  0  0  0  0  0  0
  -31.7824  -15.5179    6.0434 O   0  0  0  0  0  0  0  0  0  0  0  0
  -30.0368  -14.7751    4.6914 N   0  0  0  0  0  0  0  0  0  0  0  0
  -29.7554  -14.0373    4.0494 H   0  0  0  0  0  0  0  0  0  0  0  0
 24 25  1  0  0  0
 25 26  2  0  0  0
 25 27  1  0  0  0
 27  1  1  0  0  0
  1  2  2  0  0  0
  2  3  1  0  0  0
  3  4  2  0  0  0
  4  5  1  0  0  0
  5  6  1  0  0  0
  6  7  2  0  0  0
  6  8  1  0  0  0
  8  9  1  0  0  0
  9 13  1  0  0  0
 13 14  2  0  0  0
 14 15  1  0  0  0
 15 16  2  0  0  0
 16 19  1  0  0  0
 19 20  1  0  0  0
 19 21  1  0  0  0
 19 22  1  0  0  0
 16 17  1  0  0  0
 17 18  2  0  0  0
  9 10  2  0  0  0
 10 11  1  0  0  0
 11  1  1  0  0  0
 11  5  2  0  0  0
 18 13  1  0  0  0
 27 28  1  0  0  0
  8 12  1  0  0  0
 22 23  1  0  0  0
M  END
> <minimizedAffinity>
-12.61033

$$$$
