L1:O95271:67393
     RDKit          3D

 58 60  0  0  0  0  0  0  0  0999 V2000
   -5.4277    2.0945    1.6585 C   0  0  0  0  0  0  0  0  0  0  0  0
   -3.9119    1.9111    1.5506 C   0  0  1  0  0  0  0  0  0  0  0  0
   -3.4351    0.7472    2.4591 C   0  0  0  0  0  0  0  0  0  0  0  0
   -4.1080    0.2775    3.3729 O   0  0  0  0  0  0  0  0  0  0  0  0
   -2.1540    0.3323    2.1743 N   0  0  0  0  0  0  0  0  0  0  0  0
   -1.5052   -0.7667    2.8413 C   0  0  0  0  0  0  0  0  0  0  0  0
   -1.6852   -2.0458    2.0631 C   0  0  0  0  0  0  0  0  0  0  0  0
   -2.7812   -2.8803    2.3569 C   0  0  0  0  0  0  0  0  0  0  0  0
   -2.9983   -4.0587    1.6423 C   0  0  0  0  0  0  0  0  0  0  0  0
   -2.1283   -4.4141    0.6167 C   0  0  0  0  0  0  0  0  0  0  0  0
   -1.0498   -3.5778    0.3117 C   0  0  0  0  0  0  0  0  0  0  0  0
   -0.1212   -3.9216   -0.7769 C   0  0  0  0  0  0  0  0  0  0  0  0
   -0.2355   -4.9451   -1.4411 O   0  0  0  0  0  0  0  0  0  0  0  0
    0.8880   -3.0224   -1.0047 N   0  0  0  0  0  0  0  0  0  0  0  0
    1.0493   -1.8639   -0.2817 C   0  0  0  0  0  0  0  0  0  0  0  0
    2.1920   -0.9884   -0.6564 C   0  0  0  0  0  0  0  0  0  0  0  0
    2.7711   -0.1817    0.3261 C   0  0  0  0  0  0  0  0  0  0  0  0
    3.8453    0.6536    0.0074 C   0  0  0  0  0  0  0  0  0  0  0  0
    4.3674    0.7091   -1.2991 C   0  0  0  0  0  0  0  0  0  0  0  0
    5.5348    1.6486   -1.6020 C   0  0  0  0  0  0  0  0  0  0  0  0
    6.2903    1.3389   -2.9013 C   0  0  0  0  0  0  0  0  0  0  0  0
    5.0552    3.1039   -1.6261 C   0  0  0  0  0  0  0  0  0  0  0  0
    6.5028    1.5320   -0.5500 O   0  0  0  0  0  0  0  0  0  0  0  0
    3.7581   -0.0894   -2.2799 C   0  0  0  0  0  0  0  0  0  0  0  0
    2.6816   -0.9297   -1.9649 C   0  0  0  0  0  0  0  0  0  0  0  0
    0.2633   -1.5405    0.6953 N   0  0  0  0  0  0  0  0  0  0  0  0
   -0.8121   -2.3918    1.0169 C   0  0  0  0  0  0  0  0  0  0  0  0
   -3.3739    1.7271    0.1695 N   0  0  0  0  0  0  0  0  0  0  0  0
   -4.0372    0.6483   -0.5672 C   0  0  0  0  0  0  0  0  0  0  0  0
   -3.4194    2.9700   -0.5995 C   0  0  0  0  0  0  0  0  0  0  0  0
   -5.7103    2.3231    2.6926 H   0  0  0  0  0  0  0  0  0  0  0  0
   -5.9698    1.1863    1.3744 H   0  0  0  0  0  0  0  0  0  0  0  0
   -5.7825    2.9211    1.0361 H   0  0  0  0  0  0  0  0  0  0  0  0
   -3.4325    2.8011    1.9823 H   0  0  0  0  0  0  0  0  0  0  0  0
   -1.7385    0.7045    1.3247 H   0  0  0  0  0  0  0  0  0  0  0  0
   -0.4449   -0.5159    2.9517 H   0  0  0  0  0  0  0  0  0  0  0  0
   -1.9078   -0.8791    3.8547 H   0  0  0  0  0  0  0  0  0  0  0  0
   -3.4786   -2.5988    3.1461 H   0  0  0  0  0  0  0  0  0  0  0  0
   -3.8483   -4.6923    1.8837 H   0  0  0  0  0  0  0  0  0  0  0  0
   -2.2917   -5.3301    0.0540 H   0  0  0  0  0  0  0  0  0  0  0  0
    1.5346   -3.2899   -1.7308 H   0  0  0  0  0  0  0  0  0  0  0  0
    2.3925   -0.1976    1.3462 H   0  0  0  0  0  0  0  0  0  0  0  0
    4.2761    1.2746    0.7930 H   0  0  0  0  0  0  0  0  0  0  0  0
    6.6469    0.3021   -2.9124 H   0  0  0  0  0  0  0  0  0  0  0  0
    5.6724    1.5042   -3.7900 H   0  0  0  0  0  0  0  0  0  0  0  0
    7.1825    1.9703   -2.9907 H   0  0  0  0  0  0  0  0  0  0  0  0
    4.3024    3.2683   -2.4047 H   0  0  0  0  0  0  0  0  0  0  0  0
    4.6206    3.3994   -0.6640 H   0  0  0  0  0  0  0  0  0  0  0  0
    5.8932    3.7881   -1.8037 H   0  0  0  0  0  0  0  0  0  0  0  0
    6.5938    0.5843   -0.3492 H   0  0  0  0  0  0  0  0  0  0  0  0
    4.0964   -0.0655   -3.3132 H   0  0  0  0  0  0  0  0  0  0  0  0
    2.2227   -1.5009   -2.7669 H   0  0  0  0  0  0  0  0  0  0  0  0
   -5.0805    0.8816   -0.8060 H   0  0  0  0  0  0  0  0  0  0  0  0
   -3.5115    0.4614   -1.5106 H   0  0  0  0  0  0  0  0  0  0  0  0
   -4.0123   -0.2939   -0.0099 H   0  0  0  0  0  0  0  0  0  0  0  0
   -2.8847    3.7700   -0.0755 H   0  0  0  0  0  0  0  0  0  0  0  0
   -2.9138    2.8394   -1.5630 H   0  0  0  0  0  0  0  0  0  0  0  0
   -4.4419    3.3082   -0.7973 H   0  0  0  0  0  0  0  0  0  0  0  0
  1  2  1  0
  2  3  1  0
  3  4  2  0
  3  5  1  0
  5  6  1  0
  6  7  1  0
  7  8  2  0
  8  9  1  0
  9 10  2  0
 10 11  1  0
 11 12  1  0
 12 13  2  0
 12 14  1  0
 14 15  1  0
 15 16  1  0
 16 17  2  0
 17 18  1  0
 18 19  2  0
 19 20  1  0
 20 21  1  0
 20 22  1  0
 20 23  1  0
 19 24  1  0
 24 25  2  0
 15 26  2  0
 26 27  1  0
  2 28  1  0
 28 29  1  0
 28 30  1  0
 27  7  1  0
 27 11  2  0
 25 16  1  0
  1 31  1  0
  1 32  1  0
  1 33  1  0
  2 34  1  1
  5 35  1  0
  6 36  1  0
  6 37  1  0
  8 38  1  0
  9 39  1  0
 10 40  1  0
 14 41  1  0
 17 42  1  0
 18 43  1  0
 21 44  1  0
 21 45  1  0
 21 46  1  0
 22 47  1  0
 22 48  1  0
 22 49  1  0
 23 50  1  0
 24 51  1  0
 25 52  1  0
 29 53  1  0
 29 54  1  0
 29 55  1  0
 30 56  1  0
 30 57  1  0
 30 58  1  0
M  END
>  <mol_id>  (1) 
67393

>  <source_index>  (1) 
6

>  <layer>  (1) 
L1

>  <uniprot>  (1) 
O95271

>  <paff>  (1) 
6.5199999999999996

>  <smiles>  (1) 
CC(C(=O)NCc1cccc2c(=O)[nH]c(-c3ccc(C(C)(C)O)cc3)nc12)N(C)C

$$$$
