L1:O95271:67399
 OpenBabel09212617343D

 51 53  0  0  0  0  0  0  0  0999 V2000
  -25.1854  -13.3487   -4.0041 C   0  0  0  0  0  0  0  0  0  0  0  0
  -26.0834  -13.6640   -3.1247 N   0  0  0  0  0  0  0  0  0  0  0  0
  -27.4453  -13.6176   -3.5055 C   0  0  0  0  0  0  0  0  0  0  0  0
  -28.4298  -13.9706   -2.5605 C   0  0  0  0  0  0  0  0  0  0  0  0
  -29.7816  -13.9374   -2.9158 C   0  0  0  0  0  0  0  0  0  0  0  0
  -30.1633  -13.5554   -4.2062 C   0  0  0  0  0  0  0  0  0  0  0  0
  -29.1982  -13.2042   -5.1471 C   0  0  0  0  0  0  0  0  0  0  0  0
  -27.8488  -13.2392   -4.7877 C   0  0  0  0  0  0  0  0  0  0  0  0
  -26.7981  -12.8718   -5.7481 C   0  0  0  0  0  0  0  0  0  0  0  0
  -27.0520  -12.5138   -6.8918 O   0  0  0  0  0  0  0  0  0  0  0  0
  -25.5111  -12.9518   -5.2811 N   0  0  0  0  0  0  0  0  0  0  0  0
  -24.8049  -12.6618   -5.9408 H   0  0  0  0  0  0  0  0  0  0  0  0
  -20.9897  -13.3976   -2.9491 C   0  0  0  0  0  0  0  0  0  0  0  0
  -21.8667  -12.4033   -2.4740 C   0  0  0  0  0  0  0  0  0  0  0  0
  -23.2224  -12.3976   -2.8186 C   0  0  0  0  0  0  0  0  0  0  0  0
  -23.7394  -13.3854   -3.6585 C   0  0  0  0  0  0  0  0  0  0  0  0
  -22.8915  -14.3908   -4.1289 C   0  0  0  0  0  0  0  0  0  0  0  0
  -21.5340  -14.3919   -3.7791 C   0  0  0  0  0  0  0  0  0  0  0  0
  -18.5362  -13.6964   -3.7070 C   0  0  0  0  0  0  0  0  0  0  0  0
  -19.5038  -13.3708   -2.5467 C   0  0  0  0  0  0  0  0  0  0  0  0
  -19.1321  -11.9660   -2.0245 C   0  0  0  0  0  0  0  0  0  0  0  0
  -19.2490  -14.4103   -1.4341 C   0  0  0  0  0  0  0  0  0  0  0  0
  -27.9613  -14.3400   -1.2836 N   0  0  0  0  0  0  0  0  0  0  0  0
  -27.8758  -15.5951   -0.7192 C   0  0  0  0  0  0  0  0  0  0  0  0
  -28.1947  -16.6576   -1.2464 O   0  0  0  0  0  0  0  0  0  0  0  0
  -27.6238  -13.5559   -0.7216 H   0  0  0  0  0  0  0  0  0  0  0  0
  -27.3501  -15.5305    0.7280 C   0  0  2  0  0  0  0  0  0  0  0  0
  -26.6684  -16.7379    1.0789 O   0  0  0  0  0  0  0  0  0  0  0  0
  -27.3293  -17.4541    1.0906 H   0  0  0  0  0  0  0  0  0  0  0  0
  -28.4935  -15.2529    1.7089 C   0  0  0  0  0  0  0  0  0  0  0  0
  -28.3913  -16.0381    2.8920 O   0  0  0  0  0  0  0  0  0  0  0  0
  -27.5570  -15.7709    3.3320 H   0  0  0  0  0  0  0  0  0  0  0  0
  -30.5012  -14.1959   -2.2228 H   0  0  0  0  0  0  0  0  0  0  0  0
  -31.1629  -13.5337   -4.4618 H   0  0  0  0  0  0  0  0  0  0  0  0
  -29.4771  -12.9212   -6.0995 H   0  0  0  0  0  0  0  0  0  0  0  0
  -21.5005  -11.6614   -1.8571 H   0  0  0  0  0  0  0  0  0  0  0  0
  -23.8430  -11.6599   -2.4503 H   0  0  0  0  0  0  0  0  0  0  0  0
  -23.2660  -15.1361   -4.7366 H   0  0  0  0  0  0  0  0  0  0  0  0
  -20.9208  -15.1397   -4.1393 H   0  0  0  0  0  0  0  0  0  0  0  0
  -17.5276  -13.6584   -3.3517 H   0  0  0  0  0  0  0  0  0  0  0  0
  -18.6654  -12.9797   -4.4909 H   0  0  0  0  0  0  0  0  0  0  0  0
  -18.7456  -14.6765   -4.0817 H   0  0  0  0  0  0  0  0  0  0  0  0
  -18.0991  -11.9509   -1.7458 H   0  0  0  0  0  0  0  0  0  0  0  0
  -19.7349  -11.7313   -1.1722 H   0  0  0  0  0  0  0  0  0  0  0  0
  -19.3047  -11.2424   -2.7936 H   0  0  0  0  0  0  0  0  0  0  0  0
  -18.2159  -14.3896   -1.1564 H   0  0  0  0  0  0  0  0  0  0  0  0
  -19.5024  -15.3860   -1.7928 H   0  0  0  0  0  0  0  0  0  0  0  0
  -19.8521  -14.1758   -0.5820 H   0  0  0  0  0  0  0  0  0  0  0  0
  -26.6505  -14.7232    0.7892 H   0  0  0  0  0  0  0  0  0  0  0  0
  -29.4224  -15.4757    1.2269 H   0  0  0  0  0  0  0  0  0  0  0  0
  -28.4388  -14.2228    1.9932 H   0  0  0  0  0  0  0  0  0  0  0  0
  1  2  2  0  0  0  0
  2  3  1  0  0  0  0
  3  4  2  0  0  0  0
  4 23  1  0  0  0  0
  4  5  1  0  0  0  0
  5  6  2  0  0  0  0
  5 33  1  0  0  0  0
  6  7  1  0  0  0  0
  6 34  1  0  0  0  0
  7  8  2  0  0  0  0
  7 35  1  0  0  0  0
  8  9  1  0  0  0  0
  8  3  1  0  0  0  0
  9 10  2  0  0  0  0
  9 11  1  0  0  0  0
 11  1  1  0  0  0  0
 11 12  1  0  0  0  0
 13 14  2  0  0  0  0
 14 15  1  0  0  0  0
 14 36  1  0  0  0  0
 15 16  2  0  0  0  0
 15 37  1  0  0  0  0
 16  1  1  0  0  0  0
 16 17  1  0  0  0  0
 17 18  2  0  0  0  0
 17 38  1  0  0  0  0
 18 13  1  0  0  0  0
 18 39  1  0  0  0  0
 19 20  1  0  0  0  0
 19 40  1  0  0  0  0
 19 41  1  0  0  0  0
 19 42  1  0  0  0  0
 20 21  1  0  0  0  0
 20 22  1  0  0  0  0
 20 13  1  0  0  0  0
 21 43  1  0  0  0  0
 21 44  1  0  0  0  0
 21 45  1  0  0  0  0
 22 46  1  0  0  0  0
 22 47  1  0  0  0  0
 22 48  1  0  0  0  0
 23 24  1  0  0  0  0
 23 26  1  0  0  0  0
 24 25  2  0  0  0  0
 24 27  1  0  0  0  0
 27 28  1  0  0  0  0
 27 30  1  0  0  0  0
 27 49  1  1  0  0  0
 28 29  1  0  0  0  0
 30 31  1  0  0  0  0
 30 50  1  0  0  0  0
 30 51  1  0  0  0  0
 31 32  1  0  0  0  0
M  END
>  <minimizedAffinity>
-8.63244

$$$$
