L1:O95271:67399
     RDKit          3D

 51 53  0  0  0  0  0  0  0  0999 V2000
   -6.2250    0.1367   -0.6109 C   0  0  0  0  0  0  0  0  0  0  0  0
   -4.9760    1.0057   -0.8815 C   0  0  0  0  0  0  0  0  0  0  0  0
   -5.2673    2.4113   -0.3124 C   0  0  0  0  0  0  0  0  0  0  0  0
   -4.8096    1.1021   -2.4133 C   0  0  0  0  0  0  0  0  0  0  0  0
   -3.6838    0.4507   -0.2548 C   0  0  0  0  0  0  0  0  0  0  0  0
   -2.4686    1.1445   -0.4139 C   0  0  0  0  0  0  0  0  0  0  0  0
   -1.2759    0.6687    0.1408 C   0  0  0  0  0  0  0  0  0  0  0  0
   -1.2667   -0.5149    0.8807 C   0  0  0  0  0  0  0  0  0  0  0  0
    0.0193   -0.9914    1.4561 C   0  0  0  0  0  0  0  0  0  0  0  0
    1.1465   -0.6977    0.8884 N   0  0  0  0  0  0  0  0  0  0  0  0
    2.3414   -1.1797    1.4731 C   0  0  0  0  0  0  0  0  0  0  0  0
    3.5724   -0.8767    0.8569 C   0  0  0  0  0  0  0  0  0  0  0  0
    3.5055   -0.0929   -0.3126 N   0  0  0  0  0  0  0  0  0  0  0  0
    4.5285    0.3299   -1.1347 C   0  0  0  0  0  0  0  0  0  0  0  0
    5.7245    0.0857   -0.9991 O   0  0  0  0  0  0  0  0  0  0  0  0
    4.0042    1.2181   -2.2798 C   0  0  2  0  0  0  0  0  0  0  0  0
    2.7391    0.7481   -2.7534 O   0  0  0  0  0  0  0  0  0  0  0  0
    5.0188    1.2811   -3.4258 C   0  0  0  0  0  0  0  0  0  0  0  0
    6.2115    1.9632   -3.0529 O   0  0  0  0  0  0  0  0  0  0  0  0
    4.7656   -1.3467    1.4136 C   0  0  0  0  0  0  0  0  0  0  0  0
    4.7448   -2.1176    2.5806 C   0  0  0  0  0  0  0  0  0  0  0  0
    3.5336   -2.4221    3.1975 C   0  0  0  0  0  0  0  0  0  0  0  0
    2.3439   -1.9506    2.6375 C   0  0  0  0  0  0  0  0  0  0  0  0
    1.0443   -2.2445    3.2586 C   0  0  0  0  0  0  0  0  0  0  0  0
    0.9436   -2.9008    4.2880 O   0  0  0  0  0  0  0  0  0  0  0  0
   -0.0525   -1.7332    2.6132 N   0  0  0  0  0  0  0  0  0  0  0  0
   -2.4572   -1.2283    1.0382 C   0  0  0  0  0  0  0  0  0  0  0  0
   -3.6491   -0.7470    0.4789 C   0  0  0  0  0  0  0  0  0  0  0  0
   -7.1185    0.5747   -1.0719 H   0  0  0  0  0  0  0  0  0  0  0  0
   -6.1122   -0.8723   -1.0244 H   0  0  0  0  0  0  0  0  0  0  0  0
   -6.4282    0.0455    0.4625 H   0  0  0  0  0  0  0  0  0  0  0  0
   -4.4774    3.1298   -0.5571 H   0  0  0  0  0  0  0  0  0  0  0  0
   -6.2032    2.8150   -0.7162 H   0  0  0  0  0  0  0  0  0  0  0  0
   -5.3598    2.3831    0.7798 H   0  0  0  0  0  0  0  0  0  0  0  0
   -4.5718    0.1234   -2.8467 H   0  0  0  0  0  0  0  0  0  0  0  0
   -5.7292    1.4630   -2.8889 H   0  0  0  0  0  0  0  0  0  0  0  0
   -4.0087    1.7921   -2.7006 H   0  0  0  0  0  0  0  0  0  0  0  0
   -2.4312    2.0735   -0.9799 H   0  0  0  0  0  0  0  0  0  0  0  0
   -0.3589    1.2349   -0.0072 H   0  0  0  0  0  0  0  0  0  0  0  0
    2.5557    0.1711   -0.5825 H   0  0  0  0  0  0  0  0  0  0  0  0
    3.8544    2.2189   -1.8587 H   0  0  0  0  0  0  0  0  0  0  0  0
    2.8865   -0.1221   -3.1668 H   0  0  0  0  0  0  0  0  0  0  0  0
    4.5832    1.8094   -4.2806 H   0  0  0  0  0  0  0  0  0  0  0  0
    5.2845    0.2774   -3.7772 H   0  0  0  0  0  0  0  0  0  0  0  0
    6.6177    1.4389   -2.3309 H   0  0  0  0  0  0  0  0  0  0  0  0
    5.7286   -1.1264    0.9629 H   0  0  0  0  0  0  0  0  0  0  0  0
    5.6788   -2.4774    3.0068 H   0  0  0  0  0  0  0  0  0  0  0  0
    3.5169   -3.0198    4.1060 H   0  0  0  0  0  0  0  0  0  0  0  0
   -0.9330   -1.9132    3.0719 H   0  0  0  0  0  0  0  0  0  0  0  0
   -2.4844   -2.1779    1.5648 H   0  0  0  0  0  0  0  0  0  0  0  0
   -4.5458   -1.3434    0.6279 H   0  0  0  0  0  0  0  0  0  0  0  0
  1  2  1  0
  2  3  1  0
  2  4  1  0
  2  5  1  0
  5  6  2  0
  6  7  1  0
  7  8  2  0
  8  9  1  0
  9 10  2  0
 10 11  1  0
 11 12  2  0
 12 13  1  0
 13 14  1  0
 14 15  2  0
 14 16  1  0
 16 17  1  0
 16 18  1  0
 18 19  1  0
 12 20  1  0
 20 21  2  0
 21 22  1  0
 22 23  2  0
 23 24  1  0
 24 25  2  0
 24 26  1  0
  8 27  1  0
 27 28  2  0
 28  5  1  0
 26  9  1  0
 23 11  1  0
  1 29  1  0
  1 30  1  0
  1 31  1  0
  3 32  1  0
  3 33  1  0
  3 34  1  0
  4 35  1  0
  4 36  1  0
  4 37  1  0
  6 38  1  0
  7 39  1  0
 13 40  1  0
 16 41  1  1
 17 42  1  0
 18 43  1  0
 18 44  1  0
 19 45  1  0
 20 46  1  0
 21 47  1  0
 22 48  1  0
 26 49  1  0
 27 50  1  0
 28 51  1  0
M  END
>  <mol_id>  (1) 
67399

>  <source_index>  (1) 
9

>  <layer>  (1) 
L1

>  <uniprot>  (1) 
O95271

>  <paff>  (1) 
7.2999999999999998

>  <smiles>  (1) 
CC(C)(C)c1ccc(-c2nc3c(NC(=O)C(O)CO)cccc3c(=O)[nH]2)cc1

$$$$
