L1:O95271:67393
 OpenBabel09212617333D

 58 60  0  0  0  0  0  0  0  0999 V2000
  -25.9408  -13.6262   -2.9532 C   0  0  0  0  0  0  0  0  0  0  0  0
  -25.9330  -13.4027   -4.3439 C   0  0  0  0  0  0  0  0  0  0  0  0
  -26.8813  -14.0026   -5.1729 C   0  0  0  0  0  0  0  0  0  0  0  0
  -27.8446  -14.8430   -4.6243 C   0  0  0  0  0  0  0  0  0  0  0  0
  -27.8429  -15.0803   -3.2461 C   0  0  0  0  0  0  0  0  0  0  0  0
  -28.8414  -15.9754   -2.6400 C   0  0  0  0  0  0  0  0  0  0  0  0
  -29.7152  -16.5284   -3.2977 O   0  0  0  0  0  0  0  0  0  0  0  0
  -28.7361  -16.1541   -1.2851 N   0  0  0  0  0  0  0  0  0  0  0  0
  -27.7705  -15.5518   -0.5133 C   0  0  0  0  0  0  0  0  0  0  0  0
  -26.8894  -14.7433   -1.0102 N   0  0  0  0  0  0  0  0  0  0  0  0
  -26.9019  -14.4875   -2.3955 C   0  0  0  0  0  0  0  0  0  0  0  0
  -29.4483  -16.7428   -0.8812 H   0  0  0  0  0  0  0  0  0  0  0  0
  -27.7863  -15.8527    0.9434 C   0  0  0  0  0  0  0  0  0  0  0  0
  -28.7405  -15.2263    1.7488 C   0  0  0  0  0  0  0  0  0  0  0  0
  -28.7821  -15.4857    3.1214 C   0  0  0  0  0  0  0  0  0  0  0  0
  -27.8717  -16.3728    3.7271 C   0  0  0  0  0  0  0  0  0  0  0  0
  -26.9037  -16.9748    2.9077 C   0  0  0  0  0  0  0  0  0  0  0  0
  -26.8589  -16.7190    1.5305 C   0  0  0  0  0  0  0  0  0  0  0  0
  -27.9483  -16.6140    5.2348 C   0  0  0  0  0  0  0  0  0  0  0  0
  -29.2789  -16.2112    5.8846 C   0  0  0  0  0  0  0  0  0  0  0  0
  -27.6487  -18.0823    5.5555 C   0  0  0  0  0  0  0  0  0  0  0  0
  -26.9428  -15.8191    5.8785 O   0  0  0  0  0  0  0  0  0  0  0  0
  -26.9590  -14.9420    5.4576 H   0  0  0  0  0  0  0  0  0  0  0  0
  -24.8793  -12.9807   -2.0985 C   0  0  0  0  0  0  0  0  0  0  0  0
  -22.7072  -12.2083   -3.0194 C   0  0  0  0  0  0  0  0  0  0  0  0
  -22.9403  -11.0175   -2.8293 O   0  0  0  0  0  0  0  0  0  0  0  0
  -23.5690  -13.2152   -2.6479 N   0  0  0  0  0  0  0  0  0  0  0  0
  -23.3291  -14.1517   -2.9614 H   0  0  0  0  0  0  0  0  0  0  0  0
  -21.4161  -12.6052   -5.1646 C   0  0  0  0  0  0  0  0  0  0  0  0
  -21.3874  -12.7377   -3.6400 C   0  0  2  0  0  0  0  0  0  0  0  0
  -21.0910  -14.1020   -3.1094 N   0  0  0  0  0  0  0  0  0  0  0  0
  -20.7607  -15.0684   -4.1598 C   0  0  0  0  0  0  0  0  0  0  0  0
  -20.0364  -14.0720   -2.0969 C   0  0  0  0  0  0  0  0  0  0  0  0
  -25.2152  -12.7861   -4.7557 H   0  0  0  0  0  0  0  0  0  0  0  0
  -26.8682  -13.8236   -6.1892 H   0  0  0  0  0  0  0  0  0  0  0  0
  -28.5536  -15.2871   -5.2285 H   0  0  0  0  0  0  0  0  0  0  0  0
  -29.4170  -14.5698    1.3288 H   0  0  0  0  0  0  0  0  0  0  0  0
  -29.4946  -15.0175    3.7029 H   0  0  0  0  0  0  0  0  0  0  0  0
  -26.2130  -17.6169    3.3268 H   0  0  0  0  0  0  0  0  0  0  0  0
  -26.1382  -17.1720    0.9471 H   0  0  0  0  0  0  0  0  0  0  0  0
  -30.0756  -16.7736    5.4442 H   0  0  0  0  0  0  0  0  0  0  0  0
  -29.4506  -15.1667    5.7280 H   0  0  0  0  0  0  0  0  0  0  0  0
  -29.2383  -16.4124    6.9347 H   0  0  0  0  0  0  0  0  0  0  0  0
  -28.3824  -18.7061    5.0891 H   0  0  0  0  0  0  0  0  0  0  0  0
  -27.6773  -18.2290    6.6150 H   0  0  0  0  0  0  0  0  0  0  0  0
  -26.6773  -18.3370    5.1863 H   0  0  0  0  0  0  0  0  0  0  0  0
  -25.0576  -11.9266   -2.0539 H   0  0  0  0  0  0  0  0  0  0  0  0
  -24.9218  -13.4070   -1.1180 H   0  0  0  0  0  0  0  0  0  0  0  0
  -21.6361  -11.5924   -5.4305 H   0  0  0  0  0  0  0  0  0  0  0  0
  -22.1698  -13.2508   -5.5646 H   0  0  0  0  0  0  0  0  0  0  0  0
  -20.4624  -12.8798   -5.5645 H   0  0  0  0  0  0  0  0  0  0  0  0
  -20.5551  -12.1352   -3.3413 H   0  0  0  0  0  0  0  0  0  0  0  0
  -21.5404  -15.0792   -4.8925 H   0  0  0  0  0  0  0  0  0  0  0  0
  -20.6621  -16.0431   -3.7295 H   0  0  0  0  0  0  0  0  0  0  0  0
  -19.8384  -14.7887   -4.6246 H   0  0  0  0  0  0  0  0  0  0  0  0
  -20.2912  -13.3627   -1.3374 H   0  0  0  0  0  0  0  0  0  0  0  0
  -19.1113  -13.7885   -2.5538 H   0  0  0  0  0  0  0  0  0  0  0  0
  -19.9350  -15.0429   -1.6587 H   0  0  0  0  0  0  0  0  0  0  0  0
  1  2  2  0  0  0  0
  2  3  1  0  0  0  0
  2 34  1  0  0  0  0
  3  4  2  0  0  0  0
  3 35  1  0  0  0  0
  4  5  1  0  0  0  0
  4 36  1  0  0  0  0
  5  6  1  0  0  0  0
  6  7  2  0  0  0  0
  6  8  1  0  0  0  0
  8  9  1  0  0  0  0
  8 12  1  0  0  0  0
  9 13  1  0  0  0  0
  9 10  2  0  0  0  0
 10 11  1  0  0  0  0
 11  1  1  0  0  0  0
 11  5  2  0  0  0  0
 13 14  2  0  0  0  0
 14 15  1  0  0  0  0
 14 37  1  0  0  0  0
 15 16  2  0  0  0  0
 15 38  1  0  0  0  0
 16 19  1  0  0  0  0
 16 17  1  0  0  0  0
 17 18  2  0  0  0  0
 17 39  1  0  0  0  0
 18 13  1  0  0  0  0
 18 40  1  0  0  0  0
 19 20  1  0  0  0  0
 19 21  1  0  0  0  0
 19 22  1  0  0  0  0
 20 41  1  0  0  0  0
 20 42  1  0  0  0  0
 20 43  1  0  0  0  0
 21 44  1  0  0  0  0
 21 45  1  0  0  0  0
 21 46  1  0  0  0  0
 22 23  1  0  0  0  0
 24  1  1  0  0  0  0
 24 47  1  0  0  0  0
 24 48  1  0  0  0  0
 25 26  2  0  0  0  0
 25 27  1  0  0  0  0
 27 24  1  0  0  0  0
 27 28  1  0  0  0  0
 29 30  1  0  0  0  0
 29 49  1  0  0  0  0
 29 50  1  0  0  0  0
 29 51  1  0  0  0  0
 30 25  1  0  0  0  0
 30 31  1  0  0  0  0
 30 52  1  1  0  0  0
 31 32  1  0  0  0  0
 31 33  1  0  0  0  0
 32 53  1  0  0  0  0
 32 54  1  0  0  0  0
 32 55  1  0  0  0  0
 33 56  1  0  0  0  0
 33 57  1  0  0  0  0
 33 58  1  0  0  0  0
M  END
>  <minimizedAffinity>
-10.85926

$$$$
