L1:O95271:67395
     RDKit          3D

 48 50  0  0  0  0  0  0  0  0999 V2000
    8.9085   -0.6408   -1.8493 C   0  0  0  0  0  0  0  0  0  0  0  0
    8.4311   -1.2487   -0.6565 O   0  0  0  0  0  0  0  0  0  0  0  0
    7.0201   -1.3603   -0.6220 C   0  0  0  0  0  0  0  0  0  0  0  0
    6.1863   -0.0757   -0.4187 C   0  0  0  0  0  0  0  0  0  0  0  0
    6.6965    1.0379   -0.3625 O   0  0  0  0  0  0  0  0  0  0  0  0
    4.8278   -0.3575   -0.3253 N   0  0  0  0  0  0  0  0  0  0  0  0
    3.7688    0.5585   -0.1505 C   0  0  0  0  0  0  0  0  0  0  0  0
    3.9393    1.9415   -0.0434 C   0  0  0  0  0  0  0  0  0  0  0  0
    2.8340    2.7803    0.1288 C   0  0  0  0  0  0  0  0  0  0  0  0
    1.5544    2.2281    0.1940 C   0  0  0  0  0  0  0  0  0  0  0  0
    0.3631    3.0720    0.3712 C   0  0  0  0  0  0  0  0  0  0  0  0
    0.4289    4.2920    0.4570 O   0  0  0  0  0  0  0  0  0  0  0  0
   -0.8327    2.4022    0.4286 N   0  0  0  0  0  0  0  0  0  0  0  0
   -0.9452    1.0334    0.3270 C   0  0  0  0  0  0  0  0  0  0  0  0
   -2.3169    0.4640    0.4067 C   0  0  0  0  0  0  0  0  0  0  0  0
   -3.3280    1.0737    1.1533 C   0  0  0  0  0  0  0  0  0  0  0  0
   -4.6039    0.5017    1.1982 C   0  0  0  0  0  0  0  0  0  0  0  0
   -4.9002   -0.6933    0.5129 C   0  0  0  0  0  0  0  0  0  0  0  0
   -6.3132   -1.2711    0.5871 C   0  0  0  0  0  0  0  0  0  0  0  0
   -7.2777   -0.4280   -0.2542 C   0  0  0  0  0  0  0  0  0  0  0  0
   -6.4322   -2.7444    0.1751 C   0  0  0  0  0  0  0  0  0  0  0  0
   -6.7599   -1.2054    1.9485 O   0  0  0  0  0  0  0  0  0  0  0  0
   -3.8703   -1.2943   -0.2263 C   0  0  0  0  0  0  0  0  0  0  0  0
   -2.5916   -0.7266   -0.2730 C   0  0  0  0  0  0  0  0  0  0  0  0
    0.0823    0.2627    0.1516 N   0  0  0  0  0  0  0  0  0  0  0  0
    1.3566    0.8524    0.0889 C   0  0  0  0  0  0  0  0  0  0  0  0
    2.4717    0.0262   -0.0827 C   0  0  0  0  0  0  0  0  0  0  0  0
   10.0015   -0.6355   -1.8147 H   0  0  0  0  0  0  0  0  0  0  0  0
    8.5644    0.3927   -1.9359 H   0  0  0  0  0  0  0  0  0  0  0  0
    8.5939   -1.2160   -2.7256 H   0  0  0  0  0  0  0  0  0  0  0  0
    6.6671   -1.8646   -1.5304 H   0  0  0  0  0  0  0  0  0  0  0  0
    6.7838   -2.0224    0.2196 H   0  0  0  0  0  0  0  0  0  0  0  0
    4.5605   -1.3330   -0.3804 H   0  0  0  0  0  0  0  0  0  0  0  0
    4.9209    2.4041   -0.0880 H   0  0  0  0  0  0  0  0  0  0  0  0
    2.9760    3.8556    0.2116 H   0  0  0  0  0  0  0  0  0  0  0  0
   -1.6439    2.9955    0.5165 H   0  0  0  0  0  0  0  0  0  0  0  0
   -3.1458    1.9755    1.7303 H   0  0  0  0  0  0  0  0  0  0  0  0
   -5.3796    0.9947    1.7849 H   0  0  0  0  0  0  0  0  0  0  0  0
   -6.9917   -0.4220   -1.3117 H   0  0  0  0  0  0  0  0  0  0  0  0
   -8.3020   -0.8104   -0.1741 H   0  0  0  0  0  0  0  0  0  0  0  0
   -7.3133    0.6106    0.0951 H   0  0  0  0  0  0  0  0  0  0  0  0
   -6.2132   -2.8968   -0.8870 H   0  0  0  0  0  0  0  0  0  0  0  0
   -7.4446   -3.1198    0.3668 H   0  0  0  0  0  0  0  0  0  0  0  0
   -5.7557   -3.3747    0.7645 H   0  0  0  0  0  0  0  0  0  0  0  0
   -6.0317   -1.5386    2.5016 H   0  0  0  0  0  0  0  0  0  0  0  0
   -4.0356   -2.2130   -0.7836 H   0  0  0  0  0  0  0  0  0  0  0  0
   -1.8121   -1.2181   -0.8523 H   0  0  0  0  0  0  0  0  0  0  0  0
    2.3035   -1.0447   -0.1607 H   0  0  0  0  0  0  0  0  0  0  0  0
  1  2  1  0
  2  3  1  0
  3  4  1  0
  4  5  2  0
  4  6  1  0
  6  7  1  0
  7  8  2  0
  8  9  1  0
  9 10  2  0
 10 11  1  0
 11 12  2  0
 11 13  1  0
 13 14  1  0
 14 15  1  0
 15 16  2  0
 16 17  1  0
 17 18  2  0
 18 19  1  0
 19 20  1  0
 19 21  1  0
 19 22  1  0
 18 23  1  0
 23 24  2  0
 14 25  2  0
 25 26  1  0
 26 27  2  0
 27  7  1  0
 26 10  1  0
 24 15  1  0
  1 28  1  0
  1 29  1  0
  1 30  1  0
  3 31  1  0
  3 32  1  0
  6 33  1  0
  8 34  1  0
  9 35  1  0
 13 36  1  0
 16 37  1  0
 17 38  1  0
 20 39  1  0
 20 40  1  0
 20 41  1  0
 21 42  1  0
 21 43  1  0
 21 44  1  0
 22 45  1  0
 23 46  1  0
 24 47  1  0
 27 48  1  0
M  END
>  <mol_id>  (1) 
67395

>  <source_index>  (1) 
7

>  <layer>  (1) 
L1

>  <uniprot>  (1) 
O95271

>  <paff>  (1) 
6.1700999999999997

>  <smiles>  (1) 
COCC(=O)Nc1ccc2c(=O)[nH]c(-c3ccc(C(C)(C)O)cc3)nc2c1

$$$$
