L1:O95271:9152


 31 33  0  0  0  0  0  0  0  0999 V2000
  -27.6047  -15.5780    1.0831 C   0  0  0  0  0  0  0  0  0  0  0  0
  -26.7624  -14.4572    1.0655 C   0  0  0  0  0  0  0  0  0  0  0  0
  -26.6953  -13.6368   -0.0616 C   0  0  0  0  0  0  0  0  0  0  0  0
  -27.4772  -13.9438   -1.1757 C   0  0  0  0  0  0  0  0  0  0  0  0
  -27.4451  -13.1057   -2.3839 C   0  0  0  0  0  0  0  0  0  0  0  0
  -26.7425  -12.1054   -2.4681 O   0  0  0  0  0  0  0  0  0  0  0  0
  -28.2567  -13.5138   -3.4112 N   0  0  0  0  0  0  0  0  0  0  0  0
  -29.0576  -14.6322   -3.3486 C   0  0  0  0  0  0  0  0  0  0  0  0
  -29.1191  -15.3825   -2.2948 N   0  0  0  0  0  0  0  0  0  0  0  0
  -28.3237  -15.0527   -1.1838 C   0  0  0  0  0  0  0  0  0  0  0  0
  -28.3803  -15.8661   -0.0454 C   0  0  0  0  0  0  0  0  0  0  0  0
  -28.2536  -12.9091   -4.2181 H   0  0  0  0  0  0  0  0  0  0  0  0
  -29.8794  -14.9415   -4.5495 C   0  0  0  0  0  0  0  0  0  0  0  0
  -30.5436  -16.1652   -4.6986 C   0  0  0  0  0  0  0  0  0  0  0  0
  -31.3089  -16.4190   -5.8452 C   0  0  0  0  0  0  0  0  0  0  0  0
  -31.4217  -15.4519   -6.8446 C   0  0  0  0  0  0  0  0  0  0  0  0
  -30.7678  -14.2279   -6.6873 C   0  0  0  0  0  0  0  0  0  0  0  0
  -30.0056  -13.9681   -5.5455 C   0  0  0  0  0  0  0  0  0  0  0  0
  -32.1308  -15.5726   -8.0061 O   0  0  0  0  0  0  0  0  0  0  0  0
  -33.4563  -16.0983   -7.9162 C   0  0  0  0  0  0  0  0  0  0  0  0
  -33.5927  -17.3324   -8.8316 C   0  0  0  0  0  0  0  0  0  0  0  0
  -33.4716  -18.6745   -8.2303 N   0  0  0  0  0  0  0  0  0  0  0  0
  -34.0878  -18.7569   -6.9080 C   0  0  0  0  0  0  0  0  0  0  0  0
  -32.0949  -19.1579   -8.1915 C   0  0  0  0  0  0  0  0  0  0  0  0
  -26.6486  -17.2362    2.7095 C   0  0  0  0  0  0  0  0  0  0  0  0
  -25.5922  -17.5255    2.1590 O   0  0  0  0  0  0  0  0  0  0  0  0
  -27.6119  -16.3493    2.2590 N   0  0  0  0  0  0  0  0  0  0  0  0
  -28.4061  -16.2428    2.8854 H   0  0  0  0  0  0  0  0  0  0  0  0
  -27.0697  -17.9040    4.0245 C   0  0  0  0  0  0  0  0  0  0  0  0
  -27.4715  -16.8194    6.0845 C   0  0  0  0  0  0  0  0  0  0  0  0
  -26.4831  -17.2992    5.1772 O   0  0  0  0  0  0  0  0  0  0  0  0
 30 31  1  0  0  0
 31 29  1  0  0  0
 29 25  1  0  0  0
 25 26  2  0  0  0
 25 27  1  0  0  0
 27  1  1  0  0  0
  1  2  2  0  0  0
  2  3  1  0  0  0
  3  4  2  0  0  0
  4  5  1  0  0  0
  5  6  2  0  0  0
  5  7  1  0  0  0
  7  8  1  0  0  0
  8 13  1  0  0  0
 13 14  2  0  0  0
 14 15  1  0  0  0
 15 16  2  0  0  0
 16 19  1  0  0  0
 19 20  1  0  0  0
 20 21  1  0  0  0
 21 22  1  0  0  0
 22 23  1  0  0  0
 22 24  1  0  0  0
 16 17  1  0  0  0
 17 18  2  0  0  0
  8  9  2  0  0  0
  9 10  1  0  0  0
 10 11  2  0  0  0
 11  1  1  0  0  0
 10  4  1  0  0  0
 18 13  1  0  0  0
 27 28  1  0  0  0
  7 12  1  0  0  0
M  END
> <minimizedAffinity>
-8.26624

$$$$
