L1:O95271:9726
     RDKit          3D

 44 46  0  0  0  0  0  0  0  0999 V2000
    7.8136    1.6297   -0.9921 C   0  0  0  0  0  0  0  0  0  0  0  0
    7.0158    0.3575   -0.8531 C   0  0  0  0  0  0  0  0  0  0  0  0
    7.5664   -0.7369   -0.8594 O   0  0  0  0  0  0  0  0  0  0  0  0
    5.6613    0.6101   -0.7262 N   0  0  0  0  0  0  0  0  0  0  0  0
    4.6214   -0.3312   -0.5776 C   0  0  0  0  0  0  0  0  0  0  0  0
    4.8201   -1.7140   -0.5362 C   0  0  0  0  0  0  0  0  0  0  0  0
    3.7339   -2.5813   -0.3856 C   0  0  0  0  0  0  0  0  0  0  0  0
    2.4454   -2.0573   -0.2760 C   0  0  0  0  0  0  0  0  0  0  0  0
    1.2731   -2.9314   -0.1200 C   0  0  0  0  0  0  0  0  0  0  0  0
    1.3626   -4.1526   -0.0873 O   0  0  0  0  0  0  0  0  0  0  0  0
    0.0656   -2.2885   -0.0172 N   0  0  0  0  0  0  0  0  0  0  0  0
   -0.0741   -0.9191   -0.0532 C   0  0  0  0  0  0  0  0  0  0  0  0
   -1.4549   -0.3815    0.0720 C   0  0  0  0  0  0  0  0  0  0  0  0
   -1.7657    0.8261   -0.5568 C   0  0  0  0  0  0  0  0  0  0  0  0
   -3.0549    1.3572   -0.4604 C   0  0  0  0  0  0  0  0  0  0  0  0
   -4.0621    0.7064    0.2780 C   0  0  0  0  0  0  0  0  0  0  0  0
   -5.4587    1.3244    0.3480 C   0  0  0  0  0  0  0  0  0  0  0  0
   -6.3475    0.7857    1.4769 C   0  0  0  0  0  0  0  0  0  0  0  0
   -6.1828    1.1575   -0.9924 C   0  0  0  0  0  0  0  0  0  0  0  0
   -5.3253    2.7314    0.5926 O   0  0  0  0  0  0  0  0  0  0  0  0
   -3.7304   -0.5023    0.9104 C   0  0  0  0  0  0  0  0  0  0  0  0
   -2.4398   -1.0400    0.8148 C   0  0  0  0  0  0  0  0  0  0  0  0
    0.9359   -0.1211   -0.2058 N   0  0  0  0  0  0  0  0  0  0  0  0
    2.2200   -0.6821   -0.3151 C   0  0  0  0  0  0  0  0  0  0  0  0
    3.3163    0.1727   -0.4661 C   0  0  0  0  0  0  0  0  0  0  0  0
    7.4871    2.1773   -1.8808 H   0  0  0  0  0  0  0  0  0  0  0  0
    8.8760    1.3911   -1.0934 H   0  0  0  0  0  0  0  0  0  0  0  0
    7.6734    2.2542   -0.1053 H   0  0  0  0  0  0  0  0  0  0  0  0
    5.3800    1.5830   -0.7409 H   0  0  0  0  0  0  0  0  0  0  0  0
    5.8101   -2.1529   -0.6188 H   0  0  0  0  0  0  0  0  0  0  0  0
    3.8974   -3.6561   -0.3553 H   0  0  0  0  0  0  0  0  0  0  0  0
   -0.7329   -2.9010    0.0528 H   0  0  0  0  0  0  0  0  0  0  0  0
   -1.0107    1.3580   -1.1322 H   0  0  0  0  0  0  0  0  0  0  0  0
   -3.2738    2.2952   -0.9707 H   0  0  0  0  0  0  0  0  0  0  0  0
   -7.2835    1.3541    1.5381 H   0  0  0  0  0  0  0  0  0  0  0  0
   -5.8580    0.8975    2.4517 H   0  0  0  0  0  0  0  0  0  0  0  0
   -6.6043   -0.2692    1.3348 H   0  0  0  0  0  0  0  0  0  0  0  0
   -7.1705    1.6325   -0.9644 H   0  0  0  0  0  0  0  0  0  0  0  0
   -6.3134    0.1012   -1.2519 H   0  0  0  0  0  0  0  0  0  0  0  0
   -5.6353    1.6437   -1.8083 H   0  0  0  0  0  0  0  0  0  0  0  0
   -4.6363    2.8387    1.2715 H   0  0  0  0  0  0  0  0  0  0  0  0
   -4.4652   -1.0508    1.4952 H   0  0  0  0  0  0  0  0  0  0  0  0
   -2.2229   -1.9587    1.3525 H   0  0  0  0  0  0  0  0  0  0  0  0
    3.1279    1.2427   -0.4938 H   0  0  0  0  0  0  0  0  0  0  0  0
  1  2  1  0
  2  3  2  0
  2  4  1  0
  4  5  1  0
  5  6  2  0
  6  7  1  0
  7  8  2  0
  8  9  1  0
  9 10  2  0
  9 11  1  0
 11 12  1  0
 12 13  1  0
 13 14  2  0
 14 15  1  0
 15 16  2  0
 16 17  1  0
 17 18  1  0
 17 19  1  0
 17 20  1  0
 16 21  1  0
 21 22  2  0
 12 23  2  0
 23 24  1  0
 24 25  2  0
 25  5  1  0
 24  8  1  0
 22 13  1  0
  1 26  1  0
  1 27  1  0
  1 28  1  0
  4 29  1  0
  6 30  1  0
  7 31  1  0
 11 32  1  0
 14 33  1  0
 15 34  1  0
 18 35  1  0
 18 36  1  0
 18 37  1  0
 19 38  1  0
 19 39  1  0
 19 40  1  0
 20 41  1  0
 21 42  1  0
 22 43  1  0
 25 44  1  0
M  END
>  <mol_id>  (1) 
9726

>  <source_index>  (1) 
2

>  <layer>  (1) 
L1

>  <uniprot>  (1) 
O95271

>  <paff>  (1) 
7.0861999999999998

>  <smiles>  (1) 
CC(=O)Nc1ccc2c(=O)[nH]c(-c3ccc(C(C)(C)O)cc3)nc2c1

$$$$
