L1:O95271:9726


 28 30  0  0  0  0  0  0  0  0999 V2000
  -25.5672  -13.6650   -4.2336 C   0  0  0  0  0  0  0  0  0  0  0  0
  -26.6524  -14.0211   -5.0390 C   0  0  0  0  0  0  0  0  0  0  0  0
  -27.7631  -14.6657   -4.4862 C   0  0  0  0  0  0  0  0  0  0  0  0
  -27.7826  -14.9532   -3.1210 C   0  0  0  0  0  0  0  0  0  0  0  0
  -28.9308  -15.6263   -2.4956 C   0  0  0  0  0  0  0  0  0  0  0  0
  -29.9242  -15.9589   -3.1303 O   0  0  0  0  0  0  0  0  0  0  0  0
  -28.8197  -15.8554   -1.1476 N   0  0  0  0  0  0  0  0  0  0  0  0
  -27.7209  -15.4929   -0.4011 C   0  0  0  0  0  0  0  0  0  0  0  0
  -26.6997  -14.8841   -0.9175 N   0  0  0  0  0  0  0  0  0  0  0  0
  -26.7134  -14.6079   -2.2956 C   0  0  0  0  0  0  0  0  0  0  0  0
  -25.6095  -13.9637   -2.8630 C   0  0  0  0  0  0  0  0  0  0  0  0
  -29.6291  -16.2847   -0.7253 H   0  0  0  0  0  0  0  0  0  0  0  0
  -27.7594  -15.8145    1.0503 C   0  0  0  0  0  0  0  0  0  0  0  0
  -28.7230  -15.1968    1.8504 C   0  0  0  0  0  0  0  0  0  0  0  0
  -28.7874  -15.4793    3.2176 C   0  0  0  0  0  0  0  0  0  0  0  0
  -27.8831  -16.3721    3.8247 C   0  0  0  0  0  0  0  0  0  0  0  0
  -26.9158  -16.9780    3.0073 C   0  0  0  0  0  0  0  0  0  0  0  0
  -26.8487  -16.6998    1.6355 C   0  0  0  0  0  0  0  0  0  0  0  0
  -27.9985  -16.6532    5.3230 C   0  0  0  0  0  0  0  0  0  0  0  0
  -27.7365  -18.1096    5.7290 C   0  0  0  0  0  0  0  0  0  0  0  0
  -29.3744  -16.2208    5.8416 C   0  0  0  0  0  0  0  0  0  0  0  0
  -27.0136  -15.8715    6.0129 O   0  0  0  0  0  0  0  0  0  0  0  0
  -26.1896  -15.9326    5.4987 H   0  0  0  0  0  0  0  0  0  0  0  0
  -22.2056  -12.5620   -5.5337 C   0  0  0  0  0  0  0  0  0  0  0  0
  -23.2039  -13.5910   -5.0661 C   0  0  0  0  0  0  0  0  0  0  0  0
  -22.9138  -14.7807   -5.0286 O   0  0  0  0  0  0  0  0  0  0  0  0
  -24.4109  -13.0143   -4.7122 N   0  0  0  0  0  0  0  0  0  0  0  0
  -24.4752  -12.0078   -4.8061 H   0  0  0  0  0  0  0  0  0  0  0  0
 24 25  1  0  0  0
 25 26  2  0  0  0
 25 27  1  0  0  0
 27  1  1  0  0  0
  1  2  2  0  0  0
  2  3  1  0  0  0
  3  4  2  0  0  0
  4  5  1  0  0  0
  5  6  2  0  0  0
  5  7  1  0  0  0
  7  8  1  0  0  0
  8 13  1  0  0  0
 13 14  2  0  0  0
 14 15  1  0  0  0
 15 16  2  0  0  0
 16 19  1  0  0  0
 19 20  1  0  0  0
 19 21  1  0  0  0
 19 22  1  0  0  0
 16 17  1  0  0  0
 17 18  2  0  0  0
  8  9  2  0  0  0
  9 10  1  0  0  0
 10 11  2  0  0  0
 11  1  1  0  0  0
 10  4  1  0  0  0
 18 13  1  0  0  0
 27 28  1  0  0  0
  7 12  1  0  0  0
 22 23  1  0  0  0
M  END
> <minimizedAffinity>
-11.43115

$$$$
