L3:A0A1D8PKB4:1740
     RDKit          3D

 37 40  0  0  0  0  0  0  0  0999 V2000
   21.8594  -21.8411  -17.5987 C   0  0  0  0  0  0  0  0  0  0  0  0
   22.4333  -20.8177  -16.6713 C   0  0  0  0  0  0  0  0  0  0  0  0
   23.7378  -21.0825  -16.0741 C   0  0  0  0  0  0  0  0  0  0  0  0
   24.3236  -20.2097  -15.2328 C   0  0  0  0  0  0  0  0  0  0  0  0
   23.6654  -18.9848  -14.9118 C   0  0  0  0  0  0  0  0  0  0  0  0
   23.9500  -17.8881  -14.1240 C   0  0  0  0  0  0  0  0  0  0  0  0
   22.8083  -17.0390  -14.2454 C   0  0  0  0  0  0  0  0  0  0  0  0
   21.8867  -17.5825  -15.0548 N   0  0  0  0  0  0  0  0  0  0  0  0
   22.4105  -18.7577  -15.4744 N   0  0  0  0  0  0  0  0  0  0  0  0
   21.8121  -19.6684  -16.3482 C   0  0  0  0  0  0  0  0  0  0  0  0
   22.5566  -15.7374  -13.6180 C   0  0  0  0  0  0  0  0  0  0  0  0
   21.3298  -15.4509  -12.9992 C   0  0  0  0  0  0  0  0  0  0  0  0
   21.1068  -14.2017  -12.4132 C   0  0  0  0  0  0  0  0  0  0  0  0
   22.1112  -13.2419  -12.4378 C   0  0  0  0  0  0  0  0  0  0  0  0
   23.3376  -13.5069  -13.0333 C   0  0  0  0  0  0  0  0  0  0  0  0
   23.5611  -14.7546  -13.6203 C   0  0  0  0  0  0  0  0  0  0  0  0
   21.8950  -12.0460  -11.8751 F   0  0  0  0  0  0  0  0  0  0  0  0
   25.1544  -17.7556  -13.3272 C   0  0  0  0  0  0  0  0  0  0  0  0
   25.0763  -17.6305  -11.9398 C   0  0  0  0  0  0  0  0  0  0  0  0
   26.2572  -17.5224  -11.2259 C   0  0  0  0  0  0  0  0  0  0  0  0
   27.4813  -17.5322  -11.7950 N   0  0  0  0  0  0  0  0  0  0  0  0
   27.5286  -17.6556  -13.1390 C   0  0  0  0  0  0  0  0  0  0  0  0
   26.4065  -17.7699  -13.9412 C   0  0  0  0  0  0  0  0  0  0  0  0
   22.5418  -22.6598  -17.6927 H   0  0  0  0  0  0  0  0  0  0  0  0
   21.6969  -21.4001  -18.5599 H   0  0  0  0  0  0  0  0  0  0  0  0
   20.9289  -22.1955  -17.2069 H   0  0  0  0  0  0  0  0  0  0  0  0
   24.2250  -21.9631  -16.3028 H   0  0  0  0  0  0  0  0  0  0  0  0
   25.2452  -20.4257  -14.8216 H   0  0  0  0  0  0  0  0  0  0  0  0
   20.8850  -19.4580  -16.7498 H   0  0  0  0  0  0  0  0  0  0  0  0
   20.5874  -16.1674  -12.9767 H   0  0  0  0  0  0  0  0  0  0  0  0
   20.2010  -13.9933  -11.9647 H   0  0  0  0  0  0  0  0  0  0  0  0
   24.0778  -12.7878  -13.0421 H   0  0  0  0  0  0  0  0  0  0  0  0
   24.4727  -14.9566  -14.0599 H   0  0  0  0  0  0  0  0  0  0  0  0
   24.1632  -17.6189  -11.4591 H   0  0  0  0  0  0  0  0  0  0  0  0
   26.1985  -17.4290  -10.1998 H   0  0  0  0  0  0  0  0  0  0  0  0
   28.4548  -17.6652  -13.5941 H   0  0  0  0  0  0  0  0  0  0  0  0
   26.4940  -17.8631  -14.9653 H   0  0  0  0  0  0  0  0  0  0  0  0
  1  2  1  0
  1 24  1  0
  1 25  1  0
  1 26  1  0
  2  3  1  0
  3  4  2  0
  3 27  1  0
  4  5  1  0
  4 28  1  0
  5  6  2  0
  6  7  1  0
  6 18  1  0
  7  8  2  0
  7 11  1  0
  8  9  1  0
  9 10  1  0
  9  5  1  0
 10  2  2  0
 10 29  1  0
 11 12  2  0
 12 13  1  0
 12 30  1  0
 13 14  2  0
 13 31  1  0
 14 15  1  0
 14 17  1  0
 15 16  2  0
 15 32  1  0
 16 11  1  0
 16 33  1  0
 18 19  2  0
 19 20  1  0
 19 34  1  0
 20 21  2  0
 20 35  1  0
 21 22  1  0
 22 23  2  0
 22 36  1  0
 23 18  1  0
 23 37  1  0
M  END
>  <minimizedAffinity>  (1) 
-9.31379

>  <mol_id>  (1) 
1740

>  <source_index>  (1) 
0

>  <layer>  (1) 
L3

>  <uniprot>  (1) 
A0A1D8PKB4

>  <paff>  (1) 
6.9585999999999997

>  <smiles>  (1) 
Cc1ccc2c(c(nn2c1)c3ccc(cc3)F)c4ccncc4

$$$$
L3:A0A1D8PKB4:3477
     RDKit          3D

 39 42  0  0  0  0  0  0  0  0999 V2000
   24.4493  -20.6544  -16.8756 N   0  0  0  0  0  0  0  0  0  0  0  0
   24.2863  -19.4736  -16.2415 N   0  0  0  0  0  0  0  0  0  0  0  0
   22.9808  -19.4617  -15.9242 C   0  0  0  0  0  0  0  0  0  0  0  0
   22.2846  -20.5813  -16.4506 C   0  0  0  0  0  0  0  0  0  0  0  0
   20.9817  -21.0838  -16.5637 C   0  0  0  0  0  0  0  0  0  0  0  0
   19.8222  -20.4121  -16.1957 N   0  0  0  0  0  0  0  0  0  0  0  0
   20.7941  -22.2897  -17.1423 N   0  0  0  0  0  0  0  0  0  0  0  0
   21.8629  -22.9528  -17.6179 C   0  0  0  0  0  0  0  0  0  0  0  0
   23.1417  -22.5531  -17.6193 N   0  0  0  0  0  0  0  0  0  0  0  0
   23.2843  -21.3560  -17.0232 C   0  0  0  0  0  0  0  0  0  0  0  0
   19.8587  -19.4211  -16.4040 H   0  0  0  0  0  0  0  0  0  0  0  0
   19.0211  -20.8915  -16.5951 H   0  0  0  0  0  0  0  0  0  0  0  0
   22.4764  -18.2741  -15.0522 C   0  0  0  0  0  0  0  0  0  0  0  0
   21.2645  -18.0582  -14.4401 C   0  0  0  0  0  0  0  0  0  0  0  0
   21.3364  -16.8048  -13.7640 C   0  0  0  0  0  0  0  0  0  0  0  0
   20.4292  -16.0603  -12.9866 C   0  0  0  0  0  0  0  0  0  0  0  0
   20.8432  -14.8380  -12.4562 C   0  0  0  0  0  0  0  0  0  0  0  0
   19.9368  -14.1393  -11.7102 O   0  0  0  0  0  0  0  0  0  0  0  0
   22.1260  -14.3455  -12.6736 C   0  0  0  0  0  0  0  0  0  0  0  0
   23.0449  -15.0735  -13.4371 C   0  0  0  0  0  0  0  0  0  0  0  0
   22.6201  -16.2978  -13.9671 C   0  0  0  0  0  0  0  0  0  0  0  0
   23.2944  -17.2206  -14.7296 N   0  0  0  0  0  0  0  0  0  0  0  0
   20.3586  -13.3225  -11.3977 H   0  0  0  0  0  0  0  0  0  0  0  0
   24.2553  -17.1525  -15.0361 H   0  0  0  0  0  0  0  0  0  0  0  0
   26.4826  -21.9258  -16.2942 C   0  0  0  0  0  0  0  0  0  0  0  0
   25.7712  -21.0637  -17.3367 C   0  0  0  0  0  0  0  0  0  0  0  0
   26.6206  -19.8566  -17.7339 C   0  0  0  0  0  0  0  0  0  0  0  0
   21.6759  -23.8799  -18.0310 H   0  0  0  0  0  0  0  0  0  0  0  0
   20.4489  -18.6900  -14.4654 H   0  0  0  0  0  0  0  0  0  0  0  0
   19.4749  -16.4123  -12.8121 H   0  0  0  0  0  0  0  0  0  0  0  0
   22.4016  -13.4370  -12.2689 H   0  0  0  0  0  0  0  0  0  0  0  0
   24.0005  -14.7211  -13.6035 H   0  0  0  0  0  0  0  0  0  0  0  0
   27.4466  -22.2083  -16.6627 H   0  0  0  0  0  0  0  0  0  0  0  0
   25.9028  -22.8043  -16.1021 H   0  0  0  0  0  0  0  0  0  0  0  0
   26.5965  -21.3684  -15.3880 H   0  0  0  0  0  0  0  0  0  0  0  0
   25.6350  -21.6639  -18.2120 H   0  0  0  0  0  0  0  0  0  0  0  0
   26.7764  -19.2331  -16.8784 H   0  0  0  0  0  0  0  0  0  0  0  0
   26.1146  -19.2991  -18.4942 H   0  0  0  0  0  0  0  0  0  0  0  0
   27.5654  -20.1926  -18.1072 H   0  0  0  0  0  0  0  0  0  0  0  0
  1  2  1  0
  2  3  2  0
  3 13  1  0
  3  4  1  0
  4  5  2  0
  5  6  1  0
  5  7  1  0
  6 11  1  0
  6 12  1  0
  7  8  2  0
  8  9  1  0
  8 28  1  0
  9 10  2  0
 10  1  1  0
 10  4  1  0
 13 14  2  0
 14 15  1  0
 14 29  1  0
 15 16  2  0
 16 17  1  0
 16 30  1  0
 17 18  1  0
 17 19  2  0
 18 23  1  0
 19 20  1  0
 19 31  1  0
 20 21  2  0
 20 32  1  0
 21 22  1  0
 21 15  1  0
 22 13  1  0
 22 24  1  0
 25 26  1  0
 25 33  1  0
 25 34  1  0
 25 35  1  0
 26 27  1  0
 26  1  1  0
 26 36  1  0
 27 37  1  0
 27 38  1  0
 27 39  1  0
M  END
>  <minimizedAffinity>  (2) 
-8.07853

>  <mol_id>  (2) 
3477

>  <source_index>  (2) 
1

>  <layer>  (2) 
L3

>  <uniprot>  (2) 
A0A1D8PKB4

>  <paff>  (2) 
6.0044000000000004

>  <smiles>  (2) 
CC(C)n1nc(-c2cc3cc(O)ccc3[nH]2)c2c(N)ncnc21

$$$$
L3:A0A1D8PKB4:10448
     RDKit          3D

 35 38  0  0  0  0  0  0  0  0999 V2000
   22.8137  -16.9649  -14.2269 C   0  0  0  0  0  0  0  0  0  0  0  0
   23.9174  -17.8569  -14.0681 C   0  0  0  0  0  0  0  0  0  0  0  0
   23.6360  -18.9258  -14.8948 C   0  0  0  0  0  0  0  0  0  0  0  0
   24.2952  -20.1403  -15.2504 C   0  0  0  0  0  0  0  0  0  0  0  0
   23.7066  -20.9869  -16.1163 C   0  0  0  0  0  0  0  0  0  0  0  0
   22.4071  -20.6930  -16.7104 C   0  0  0  0  0  0  0  0  0  0  0  0
   21.8006  -19.5386  -16.3841 C   0  0  0  0  0  0  0  0  0  0  0  0
   22.4050  -18.6556  -15.4900 N   0  0  0  0  0  0  0  0  0  0  0  0
   21.9175  -17.4598  -15.0943 N   0  0  0  0  0  0  0  0  0  0  0  0
   23.5781  -14.6738  -13.5729 C   0  0  0  0  0  0  0  0  0  0  0  0
   23.3348  -13.4357  -12.9716 C   0  0  0  0  0  0  0  0  0  0  0  0
   22.0999  -13.1872  -12.3850 C   0  0  0  0  0  0  0  0  0  0  0  0
   21.1030  -14.1541  -12.3834 C   0  0  0  0  0  0  0  0  0  0  0  0
   21.3446  -15.3915  -12.9850 C   0  0  0  0  0  0  0  0  0  0  0  0
   22.5815  -15.6622  -13.5947 C   0  0  0  0  0  0  0  0  0  0  0  0
   21.8698  -12.0002  -11.8093 F   0  0  0  0  0  0  0  0  0  0  0  0
   25.1394  -17.7313  -13.2972 C   0  0  0  0  0  0  0  0  0  0  0  0
   26.3828  -17.7570  -13.9298 C   0  0  0  0  0  0  0  0  0  0  0  0
   27.5175  -17.6469  -13.1451 C   0  0  0  0  0  0  0  0  0  0  0  0
   27.4899  -17.5168  -11.8018 N   0  0  0  0  0  0  0  0  0  0  0  0
   26.2743  -17.4971  -11.2141 C   0  0  0  0  0  0  0  0  0  0  0  0
   25.0823  -17.6005  -11.9098 C   0  0  0  0  0  0  0  0  0  0  0  0
   21.8146  -21.6143  -17.6198 C   0  0  0  0  0  0  0  0  0  0  0  0
   21.3299  -22.3603  -18.3643 N   0  0  0  0  0  0  0  0  0  0  0  0
   25.2171  -20.3683  -14.8465 H   0  0  0  0  0  0  0  0  0  0  0  0
   24.1868  -21.8656  -16.3659 H   0  0  0  0  0  0  0  0  0  0  0  0
   20.8841  -19.3049  -16.7969 H   0  0  0  0  0  0  0  0  0  0  0  0
   24.4966  -14.8626  -14.0038 H   0  0  0  0  0  0  0  0  0  0  0  0
   24.0684  -12.7099  -12.9633 H   0  0  0  0  0  0  0  0  0  0  0  0
   20.1909  -13.9600  -11.9413 H   0  0  0  0  0  0  0  0  0  0  0  0
   20.6076  -16.1139  -12.9817 H   0  0  0  0  0  0  0  0  0  0  0  0
   26.4544  -17.8554  -14.9546 H   0  0  0  0  0  0  0  0  0  0  0  0
   28.4369  -17.6653  -13.6135 H   0  0  0  0  0  0  0  0  0  0  0  0
   26.2317  -17.3994  -10.1876 H   0  0  0  0  0  0  0  0  0  0  0  0
   24.1765  -17.5813  -11.4157 H   0  0  0  0  0  0  0  0  0  0  0  0
  1  2  1  0
  2  3  2  0
  2 17  1  0
  3  4  1  0
  4  5  2  0
  4 25  1  0
  5  6  1  0
  5 26  1  0
  6  7  2  0
  6 23  1  0
  7  8  1  0
  7 27  1  0
  8  9  1  0
  8  3  1  0
  9  1  2  0
 10 11  2  0
 10 28  1  0
 11 12  1  0
 11 29  1  0
 12 13  2  0
 12 16  1  0
 13 14  1  0
 13 30  1  0
 14 15  2  0
 14 31  1  0
 15  1  1  0
 15 10  1  0
 17 18  2  0
 18 19  1  0
 18 32  1  0
 19 20  2  0
 19 33  1  0
 20 21  1  0
 21 22  2  0
 21 34  1  0
 22 17  1  0
 22 35  1  0
 23 24  3  0
M  END
>  <minimizedAffinity>  (3) 
-8.96812

>  <mol_id>  (3) 
10448

>  <source_index>  (3) 
2

>  <layer>  (3) 
L3

>  <uniprot>  (3) 
A0A1D8PKB4

>  <paff>  (3) 
7.1078999999999999

>  <smiles>  (3) 
c1cc(ccc1c2c(c3ccc(cn3n2)C#N)c4ccncc4)F

$$$$
L3:A0A1D8PKB4:21866
     RDKit          3D

 64 69  0  0  0  0  0  0  0  0999 V2000
   22.6955  -21.9383  -16.9434 C   0  0  0  0  0  0  0  0  0  0  0  0
   21.3359  -21.9113  -16.9689 N   0  0  0  0  0  0  0  0  0  0  0  0
   20.7180  -20.7914  -16.5573 C   0  0  0  0  0  0  0  0  0  0  0  0
   19.3214  -20.8366  -16.5588 N   0  0  0  0  0  0  0  0  0  0  0  0
   21.4029  -19.6628  -16.0934 C   0  0  0  0  0  0  0  0  0  0  0  0
   22.7943  -19.7184  -16.0610 C   0  0  0  0  0  0  0  0  0  0  0  0
   23.4816  -20.8763  -16.4730 C   0  0  0  0  0  0  0  0  0  0  0  0
   18.9361  -19.9918  -16.9671 H   0  0  0  0  0  0  0  0  0  0  0  0
   19.0364  -21.6860  -17.0358 H   0  0  0  0  0  0  0  0  0  0  0  0
   24.9484  -20.9082  -16.3693 C   0  0  0  0  0  0  0  0  0  0  0  0
   25.7747  -20.8031  -17.4900 C   0  0  0  0  0  0  0  0  0  0  0  0
   27.1562  -20.8487  -17.2663 C   0  0  0  0  0  0  0  0  0  0  0  0
   28.3312  -20.7657  -18.0600 C   0  0  0  0  0  0  0  0  0  0  0  0
   28.4238  -20.5834  -19.5293 C   0  0  0  0  0  0  0  0  0  0  0  0
   29.4417  -20.8769  -17.3187 N   0  0  0  0  0  0  0  0  0  0  0  0
   28.9804  -21.0221  -16.0650 N   0  0  0  0  0  0  0  0  0  0  0  0
   27.6177  -21.0143  -15.9690 C   0  0  0  0  0  0  0  0  0  0  0  0
   26.7632  -21.1372  -14.8883 C   0  0  0  0  0  0  0  0  0  0  0  0
   25.4278  -21.0874  -15.1085 N   0  0  0  0  0  0  0  0  0  0  0  0
   29.6569  -21.1232  -15.3167 H   0  0  0  0  0  0  0  0  0  0  0  0
   21.9880  -23.2803  -19.7950 C   0  0  0  0  0  0  0  0  0  0  0  0
   22.9218  -23.6934  -18.7245 C   0  0  0  0  0  0  0  0  0  0  0  0
   23.6194  -24.8440  -18.9512 O   0  0  0  0  0  0  0  0  0  0  0  0
   24.4261  -25.0405  -17.8789 C   0  0  0  0  0  0  0  0  0  0  0  0
   24.2548  -24.0352  -16.9580 C   0  0  0  0  0  0  0  0  0  0  0  0
   23.2646  -23.1620  -17.4924 C   0  0  0  0  0  0  0  0  0  0  0  0
   20.6405  -18.5854  -15.7291 O   0  0  0  0  0  0  0  0  0  0  0  0
   20.8964  -18.0003  -14.4483 C   0  0  0  0  0  0  0  0  0  0  0  0
   20.6110  -16.4836  -14.5345 C   0  0  1  0  0  0  0  0  0  0  0  0
   19.6057  -16.0902  -13.5212 N   0  0  0  0  0  0  0  0  0  0  0  0
   18.7970  -16.7080  -13.6306 H   0  0  0  0  0  0  0  0  0  0  0  0
   19.9646  -16.2796  -12.5871 H   0  0  0  0  0  0  0  0  0  0  0  0
   21.9274  -15.6943  -14.3756 C   0  0  0  0  0  0  0  0  0  0  0  0
   22.7782  -16.1659  -13.2359 C   0  0  0  0  0  0  0  0  0  0  0  0
   22.4466  -16.1325  -11.8955 C   0  0  0  0  0  0  0  0  0  0  0  0
   23.4919  -16.6477  -11.1795 N   0  0  0  0  0  0  0  0  0  0  0  0
   24.5041  -17.0359  -12.0255 C   0  0  0  0  0  0  0  0  0  0  0  0
   25.7471  -17.6137  -11.7394 C   0  0  0  0  0  0  0  0  0  0  0  0
   26.5908  -17.9022  -12.8159 C   0  0  0  0  0  0  0  0  0  0  0  0
   26.2052  -17.6219  -14.1243 C   0  0  0  0  0  0  0  0  0  0  0  0
   24.9588  -17.0434  -14.3920 C   0  0  0  0  0  0  0  0  0  0  0  0
   24.0870  -16.7436  -13.3243 C   0  0  0  0  0  0  0  0  0  0  0  0
   23.5236  -16.7292  -10.1732 H   0  0  0  0  0  0  0  0  0  0  0  0
   23.3288  -18.8998  -15.7305 H   0  0  0  0  0  0  0  0  0  0  0  0
   25.3850  -20.6967  -18.4397 H   0  0  0  0  0  0  0  0  0  0  0  0
   27.4394  -20.5153  -19.9430 H   0  0  0  0  0  0  0  0  0  0  0  0
   28.9350  -21.4185  -19.9608 H   0  0  0  0  0  0  0  0  0  0  0  0
   28.9638  -19.6849  -19.7439 H   0  0  0  0  0  0  0  0  0  0  0  0
   27.1354  -21.2642  -13.9342 H   0  0  0  0  0  0  0  0  0  0  0  0
   22.0284  -23.9882  -20.5963 H   0  0  0  0  0  0  0  0  0  0  0  0
   22.2675  -22.3136  -20.1587 H   0  0  0  0  0  0  0  0  0  0  0  0
   20.9927  -23.2403  -19.4043 H   0  0  0  0  0  0  0  0  0  0  0  0
   25.0772  -25.8337  -17.7699 H   0  0  0  0  0  0  0  0  0  0  0  0
   24.7468  -23.9330  -16.0566 H   0  0  0  0  0  0  0  0  0  0  0  0
   21.9189  -18.1600  -14.1766 H   0  0  0  0  0  0  0  0  0  0  0  0
   20.2675  -18.4496  -13.7084 H   0  0  0  0  0  0  0  0  0  0  0  0
   20.2021  -16.2511  -15.4955 H   0  0  0  0  0  0  0  0  0  0  0  0
   21.6864  -14.6644  -14.2138 H   0  0  0  0  0  0  0  0  0  0  0  0
   22.4928  -15.8452  -15.2714 H   0  0  0  0  0  0  0  0  0  0  0  0
   21.5608  -15.7790  -11.5013 H   0  0  0  0  0  0  0  0  0  0  0  0
   26.0302  -17.8192  -10.7685 H   0  0  0  0  0  0  0  0  0  0  0  0
   27.5133  -18.3293  -12.6384 H   0  0  0  0  0  0  0  0  0  0  0  0
   26.8443  -17.8427  -14.9040 H   0  0  0  0  0  0  0  0  0  0  0  0
   24.6796  -16.8376  -15.3640 H   0  0  0  0  0  0  0  0  0  0  0  0
  1  2  2  0
  2  3  1  0
  3  4  1  0
  3  5  2  0
  4  8  1  0
  4  9  1  0
  5 27  1  0
  5  6  1  0
  6  7  2  0
  6 44  1  0
  7 10  1  0
  7  1  1  0
 10 11  2  0
 11 12  1  0
 11 45  1  0
 12 13  1  0
 13 14  1  0
 13 15  2  0
 14 46  1  0
 14 47  1  0
 14 48  1  0
 15 16  1  0
 16 17  1  0
 16 20  1  0
 17 18  1  0
 17 12  2  0
 18 19  2  0
 18 49  1  0
 19 10  1  0
 21 22  1  0
 21 50  1  0
 21 51  1  0
 21 52  1  0
 22 23  1  0
 23 24  1  0
 24 25  2  0
 24 53  1  0
 25 26  1  0
 25 54  1  0
 26  1  1  0
 26 22  2  0
 27 28  1  0
 28 29  1  0
 28 55  1  0
 28 56  1  0
 29 30  1  0
 29 33  1  0
 29 57  1  6
 30 31  1  0
 30 32  1  0
 33 34  1  0
 33 58  1  0
 33 59  1  0
 34 35  2  0
 35 36  1  0
 35 60  1  0
 36 37  1  0
 36 43  1  0
 37 38  2  0
 38 39  1  0
 38 61  1  0
 39 40  2  0
 39 62  1  0
 40 41  1  0
 40 63  1  0
 41 42  2  0
 41 64  1  0
 42 34  1  0
 42 37  1  0
M  END
>  <minimizedAffinity>  (4) 
-8.89634

>  <mol_id>  (4) 
21866

>  <source_index>  (4) 
3

>  <layer>  (4) 
L3

>  <uniprot>  (4) 
A0A1D8PKB4

>  <paff>  (4) 
6.7446999999999999

>  <smiles>  (4) 
Cc1occc1-c1nc(N)c(OC[C@@H](N)Cc2c[nH]c3ccccc23)cc1-c1cc2c(C)n[nH]c2cn1

$$$$
L3:A0A1D8PKB4:38545
     RDKit          3D

 61 64  0  0  0  0  0  0  0  0999 V2000
   23.5013  -23.4857  -17.8861 C   0  0  0  0  0  0  0  0  0  0  0  0
   22.3189  -22.9366  -18.3610 C   0  0  0  0  0  0  0  0  0  0  0  0
   21.8451  -21.7292  -17.9853 N   0  0  0  0  0  0  0  0  0  0  0  0
   22.5617  -21.0504  -17.0710 C   0  0  0  0  0  0  0  0  0  0  0  0
   22.1110  -19.8173  -16.6341 C   0  0  0  0  0  0  0  0  0  0  0  0
   22.8291  -19.0808  -15.6902 C   0  0  0  0  0  0  0  0  0  0  0  0
   24.0167  -19.6018  -15.1932 C   0  0  0  0  0  0  0  0  0  0  0  0
   24.4870  -20.8010  -15.6111 N   0  0  0  0  0  0  0  0  0  0  0  0
   23.7727  -21.5156  -16.5177 C   0  0  0  0  0  0  0  0  0  0  0  0
   24.2589  -22.7651  -16.9543 C   0  0  0  0  0  0  0  0  0  0  0  0
   24.8571  -18.9103  -14.1974 C   0  0  0  0  0  0  0  0  0  0  0  0
   24.3026  -18.1505  -13.1511 C   0  0  0  0  0  0  0  0  0  0  0  0
   25.1225  -17.5190  -12.2107 C   0  0  0  0  0  0  0  0  0  0  0  0
   24.3879  -16.6043  -10.9429 Cl  0  0  0  0  0  0  0  0  0  0  0  0
   26.5110  -17.6253  -12.2911 C   0  0  0  0  0  0  0  0  0  0  0  0
   27.3153  -17.0046  -11.3710 O   0  0  0  0  0  0  0  0  0  0  0  0
   27.0810  -18.3750  -13.3194 C   0  0  0  0  0  0  0  0  0  0  0  0
   28.7910  -18.5487  -13.4696 Cl  0  0  0  0  0  0  0  0  0  0  0  0
   26.2621  -19.0118  -14.2572 C   0  0  0  0  0  0  0  0  0  0  0  0
   26.7413  -16.5522  -10.7250 H   0  0  0  0  0  0  0  0  0  0  0  0
   23.7160  -25.1053  -19.8316 C   0  0  0  0  0  0  0  0  0  0  0  0
   23.8353  -24.8406  -18.3532 C   0  0  0  0  0  0  0  0  0  0  0  0
   24.1424  -25.7158  -17.5513 O   0  0  0  0  0  0  0  0  0  0  0  0
   25.4879  -23.2139  -16.3941 N   0  0  0  0  0  0  0  0  0  0  0  0
   25.5174  -22.8715  -15.4246 H   0  0  0  0  0  0  0  0  0  0  0  0
   26.7449  -22.9222  -17.0964 C   0  0  1  0  0  0  0  0  0  0  0  0
   26.5395  -21.9118  -18.2429 C   0  0  0  0  0  0  0  0  0  0  0  0
   27.1975  -20.5612  -17.9767 C   0  0  0  0  0  0  0  0  0  0  0  0
   28.7034  -20.6882  -17.6792 C   0  0  1  0  0  0  0  0  0  0  0  0
   29.0054  -21.8607  -16.7178 C   0  0  0  0  0  0  0  0  0  0  0  0
   27.7559  -22.4228  -16.0493 C   0  0  0  0  0  0  0  0  0  0  0  0
   29.5680  -20.8425  -18.9583 C   0  0  0  0  0  0  0  0  0  0  0  0
   30.2710  -22.1311  -19.0834 N   0  0  0  0  0  0  0  0  0  0  0  0
   31.7082  -21.9049  -19.2809 C   0  0  0  0  0  0  0  0  0  0  0  0
   29.7449  -22.9427  -20.1829 C   0  0  0  0  0  0  0  0  0  0  0  0
   21.7689  -23.4834  -19.0418 H   0  0  0  0  0  0  0  0  0  0  0  0
   21.2297  -19.4358  -17.0121 H   0  0  0  0  0  0  0  0  0  0  0  0
   22.4830  -18.1639  -15.3669 H   0  0  0  0  0  0  0  0  0  0  0  0
   23.2774  -18.0580  -13.0767 H   0  0  0  0  0  0  0  0  0  0  0  0
   26.6960  -19.5686  -15.0100 H   0  0  0  0  0  0  0  0  0  0  0  0
   23.9858  -26.1205  -20.0351 H   0  0  0  0  0  0  0  0  0  0  0  0
   24.3705  -24.4485  -20.3655 H   0  0  0  0  0  0  0  0  0  0  0  0
   22.7070  -24.9349  -20.1442 H   0  0  0  0  0  0  0  0  0  0  0  0
   27.1207  -23.8070  -17.5663 H   0  0  0  0  0  0  0  0  0  0  0  0
   25.4891  -21.7581  -18.3771 H   0  0  0  0  0  0  0  0  0  0  0  0
   26.9995  -22.3236  -19.1168 H   0  0  0  0  0  0  0  0  0  0  0  0
   26.7185  -20.1059  -17.1352 H   0  0  0  0  0  0  0  0  0  0  0  0
   27.0892  -19.9667  -18.8597 H   0  0  0  0  0  0  0  0  0  0  0  0
   28.9713  -19.7655  -17.2083 H   0  0  0  0  0  0  0  0  0  0  0  0
   29.6722  -21.5136  -15.9563 H   0  0  0  0  0  0  0  0  0  0  0  0
   29.4372  -22.6477  -17.3001 H   0  0  0  0  0  0  0  0  0  0  0  0
   27.2990  -21.6549  -15.4607 H   0  0  0  0  0  0  0  0  0  0  0  0
   28.0426  -23.2488  -15.4325 H   0  0  0  0  0  0  0  0  0  0  0  0
   30.3011  -20.0631  -18.9593 H   0  0  0  0  0  0  0  0  0  0  0  0
   28.8907  -20.7901  -19.7850 H   0  0  0  0  0  0  0  0  0  0  0  0
   32.0898  -21.3118  -18.4762 H   0  0  0  0  0  0  0  0  0  0  0  0
   31.8646  -21.3925  -20.2071 H   0  0  0  0  0  0  0  0  0  0  0  0
   32.2176  -22.8456  -19.3033 H   0  0  0  0  0  0  0  0  0  0  0  0
   28.6976  -23.1059  -20.0363 H   0  0  0  0  0  0  0  0  0  0  0  0
   30.2528  -23.8842  -20.2060 H   0  0  0  0  0  0  0  0  0  0  0  0
   29.8999  -22.4310  -21.1098 H   0  0  0  0  0  0  0  0  0  0  0  0
  1  2  2  0
  2  3  1  0
  2 36  1  0
  3  4  2  0
  4  5  1  0
  5  6  2  0
  5 37  1  0
  6  7  1  0
  6 38  1  0
  7 11  1  0
  7  8  2  0
  8  9  1  0
  9 10  2  0
  9  4  1  0
 10 24  1  0
 10  1  1  0
 11 12  2  0
 12 13  1  0
 12 39  1  0
 13 14  1  0
 13 15  2  0
 15 16  1  0
 15 17  1  0
 16 20  1  0
 17 18  1  0
 17 19  2  0
 19 11  1  0
 19 40  1  0
 21 22  1  0
 21 41  1  0
 21 42  1  0
 21 43  1  0
 22 23  2  0
 22  1  1  0
 24 26  1  0
 24 25  1  0
 26 27  1  0
 26 44  1  6
 27 28  1  0
 27 45  1  0
 27 46  1  0
 28 29  1  0
 28 47  1  0
 28 48  1  0
 29 32  1  0
 29 30  1  0
 29 49  1  1
 30 31  1  0
 30 50  1  0
 30 51  1  0
 31 26  1  0
 31 52  1  0
 31 53  1  0
 32 33  1  0
 32 54  1  0
 32 55  1  0
 33 34  1  0
 33 35  1  0
 34 56  1  0
 34 57  1  0
 34 58  1  0
 35 59  1  0
 35 60  1  0
 35 61  1  0
M  END
>  <minimizedAffinity>  (5) 
-7.10069

>  <mol_id>  (5) 
38545

>  <source_index>  (5) 
4

>  <layer>  (5) 
L3

>  <uniprot>  (5) 
A0A1D8PKB4

>  <paff>  (5) 
6.8860999999999999

>  <smiles>  (5) 
CC(=O)c1cnc2ccc(-c3cc(Cl)c(O)c(Cl)c3)nc2c1N[C@H]1CC[C@H](CN(C)C)CC1

$$$$
L3:A0A1D8PKB4:65458
     RDKit          3D

 66 70  0  0  0  0  0  0  0  0999 V2000
   21.9474  -17.4497  -14.9427 C   0  0  0  0  0  0  0  0  0  0  0  0
   22.4131  -18.3889  -15.7984 N   0  0  0  0  0  0  0  0  0  0  0  0
   23.6371  -18.7065  -15.3333 N   0  0  0  0  0  0  0  0  0  0  0  0
   24.4293  -19.6604  -16.0731 C   0  0  0  0  0  0  0  0  0  0  0  0
   23.9661  -18.0427  -14.1889 C   0  0  0  0  0  0  0  0  0  0  0  0
   22.8751  -17.2402  -13.8736 C   0  0  0  0  0  0  0  0  0  0  0  0
   22.8903  -16.3033  -12.6723 C   0  0  0  0  0  0  0  0  0  0  0  0
   23.1396  -14.8568  -13.1442 C   0  0  0  0  0  0  0  0  0  0  0  0
   21.5877  -16.3611  -11.8504 C   0  0  0  0  0  0  0  0  0  0  0  0
   24.0455  -16.7087  -11.6748 C   0  0  0  0  0  0  0  0  0  0  0  0
   25.2756  -17.3189  -12.2859 C   0  0  0  0  0  0  0  0  0  0  0  0
   26.5112  -17.2801  -11.6935 C   0  0  0  0  0  0  0  0  0  0  0  0
   27.5926  -17.8997  -12.2006 N   0  0  0  0  0  0  0  0  0  0  0  0
   27.4257  -18.6253  -13.3215 C   0  0  0  0  0  0  0  0  0  0  0  0
   26.2585  -18.7227  -13.9776 N   0  0  0  0  0  0  0  0  0  0  0  0
   25.2190  -18.0541  -13.4539 C   0  0  0  0  0  0  0  0  0  0  0  0
   18.7165  -16.9219  -16.7846 C   0  0  0  0  0  0  0  0  0  0  0  0
   19.9986  -17.3584  -16.3049 N   0  0  0  0  0  0  0  0  0  0  0  0
   20.6551  -16.7904  -15.2345 C   0  0  0  0  0  0  0  0  0  0  0  0
   20.2135  -15.8340  -14.6092 O   0  0  0  0  0  0  0  0  0  0  0  0
   20.4838  -18.1414  -16.7381 H   0  0  0  0  0  0  0  0  0  0  0  0
   28.5792  -19.2496  -13.7864 N   0  0  0  0  0  0  0  0  0  0  0  0
   29.3621  -18.9271  -13.2354 H   0  0  0  0  0  0  0  0  0  0  0  0
   28.7882  -20.4507  -14.4716 C   0  0  0  0  0  0  0  0  0  0  0  0
   27.7418  -21.3734  -14.5508 C   0  0  0  0  0  0  0  0  0  0  0  0
   27.8991  -22.6030  -15.2096 C   0  0  0  0  0  0  0  0  0  0  0  0
   29.1056  -22.9705  -15.8198 C   0  0  0  0  0  0  0  0  0  0  0  0
   30.1566  -22.0507  -15.6993 C   0  0  0  0  0  0  0  0  0  0  0  0
   30.0053  -20.8220  -15.0353 C   0  0  0  0  0  0  0  0  0  0  0  0
   29.2582  -24.1707  -16.4915 N   0  0  0  0  0  0  0  0  0  0  0  0
   30.5844  -24.6435  -16.9313 C   0  0  0  0  0  0  0  0  0  0  0  0
   30.4823  -25.3721  -18.2932 C   0  0  0  0  0  0  0  0  0  0  0  0
   29.5916  -26.5542  -18.2921 N   0  0  0  0  0  0  0  0  0  0  0  0
   29.0770  -26.8014  -19.6372 C   0  0  0  0  0  0  0  0  0  0  0  0
   28.4968  -26.3973  -17.3096 C   0  0  0  0  0  0  0  0  0  0  0  0
   28.1004  -24.9385  -16.9800 C   0  0  0  0  0  0  0  0  0  0  0  0
   23.8782  -19.9959  -16.9267 H   0  0  0  0  0  0  0  0  0  0  0  0
   24.6589  -20.4962  -15.4457 H   0  0  0  0  0  0  0  0  0  0  0  0
   25.3379  -19.1960  -16.3951 H   0  0  0  0  0  0  0  0  0  0  0  0
   22.3652  -14.5643  -13.8222 H   0  0  0  0  0  0  0  0  0  0  0  0
   24.0866  -14.8013  -13.6391 H   0  0  0  0  0  0  0  0  0  0  0  0
   23.1400  -14.2009  -12.2988 H   0  0  0  0  0  0  0  0  0  0  0  0
   20.7602  -16.0947  -12.4743 H   0  0  0  0  0  0  0  0  0  0  0  0
   21.6521  -15.6756  -11.0313 H   0  0  0  0  0  0  0  0  0  0  0  0
   21.4465  -17.3531  -11.4750 H   0  0  0  0  0  0  0  0  0  0  0  0
   23.6423  -17.4161  -10.9806 H   0  0  0  0  0  0  0  0  0  0  0  0
   24.3739  -15.7908  -11.2337 H   0  0  0  0  0  0  0  0  0  0  0  0
   26.6173  -16.7493  -10.8149 H   0  0  0  0  0  0  0  0  0  0  0  0
   18.3801  -16.0921  -16.1988 H   0  0  0  0  0  0  0  0  0  0  0  0
   18.0133  -17.7242  -16.7034 H   0  0  0  0  0  0  0  0  0  0  0  0
   18.8014  -16.6243  -17.8089 H   0  0  0  0  0  0  0  0  0  0  0  0
   26.8340  -21.1461  -14.1157 H   0  0  0  0  0  0  0  0  0  0  0  0
   27.1012  -23.2566  -15.2456 H   0  0  0  0  0  0  0  0  0  0  0  0
   31.0730  -22.2842  -16.1126 H   0  0  0  0  0  0  0  0  0  0  0  0
   30.8121  -20.1824  -14.9641 H   0  0  0  0  0  0  0  0  0  0  0  0
   30.9765  -25.3192  -16.2001 H   0  0  0  0  0  0  0  0  0  0  0  0
   31.2315  -23.7985  -17.0412 H   0  0  0  0  0  0  0  0  0  0  0  0
   31.4634  -25.6933  -18.5747 H   0  0  0  0  0  0  0  0  0  0  0  0
   30.0574  -24.6718  -18.9817 H   0  0  0  0  0  0  0  0  0  0  0  0
   29.8954  -26.9092  -20.3180 H   0  0  0  0  0  0  0  0  0  0  0  0
   28.4655  -25.9780  -19.9421 H   0  0  0  0  0  0  0  0  0  0  0  0
   28.4932  -27.6981  -19.6365 H   0  0  0  0  0  0  0  0  0  0  0  0
   28.8010  -26.8698  -16.3991 H   0  0  0  0  0  0  0  0  0  0  0  0
   27.6334  -26.8415  -17.7591 H   0  0  0  0  0  0  0  0  0  0  0  0
   27.3419  -24.9447  -16.2253 H   0  0  0  0  0  0  0  0  0  0  0  0
   27.7386  -24.4750  -17.8739 H   0  0  0  0  0  0  0  0  0  0  0  0
  1  2  2  0
  2  3  1  0
  3  4  1  0
  3  5  1  0
  4 37  1  0
  4 38  1  0
  4 39  1  0
  5  6  2  0
  5 16  1  0
  6  7  1  0
  6  1  1  0
  7  8  1  0
  7  9  1  0
  7 10  1  0
  8 40  1  0
  8 41  1  0
  8 42  1  0
  9 43  1  0
  9 44  1  0
  9 45  1  0
 10 11  1  0
 10 46  1  0
 10 47  1  0
 11 12  2  0
 12 13  1  0
 12 48  1  0
 13 14  2  0
 14 22  1  0
 14 15  1  0
 15 16  2  0
 16 11  1  0
 17 18  1  0
 17 49  1  0
 17 50  1  0
 17 51  1  0
 18 19  1  0
 18 21  1  0
 19 20  2  0
 19  1  1  0
 22 24  1  0
 22 23  1  0
 24 25  2  0
 25 26  1  0
 25 52  1  0
 26 27  2  0
 26 53  1  0
 27 28  1  0
 27 30  1  0
 28 29  2  0
 28 54  1  0
 29 24  1  0
 29 55  1  0
 30 31  1  0
 31 32  1  0
 31 56  1  0
 31 57  1  0
 32 33  1  0
 32 58  1  0
 32 59  1  0
 33 34  1  0
 33 35  1  0
 34 60  1  0
 34 61  1  0
 34 62  1  0
 35 36  1  0
 35 63  1  0
 35 64  1  0
 36 30  1  0
 36 65  1  0
 36 66  1  0
M  END
>  <minimizedAffinity>  (6) 
-8.79006

>  <mol_id>  (6) 
65458

>  <source_index>  (6) 
5

>  <layer>  (6) 
L3

>  <uniprot>  (6) 
A0A1D8PKB4

>  <paff>  (6) 
6.1135000000000002

>  <smiles>  (6) 
CNC(=O)c1nn(C)c-2c1C(C)(C)Cc1cnc(Nc3ccc(cc3)N3CCN(C)CC3)nc-21

$$$$
L3:A0A1D8PKB4:66338
     RDKit          3D

 41 43  0  0  0  0  0  0  0  0999 V2000
   19.6118  -20.7141  -16.4718 N   0  0  0  0  0  0  0  0  0  0  0  0
   20.8936  -20.4665  -16.2237 C   0  0  0  0  0  0  0  0  0  0  0  0
   21.6042  -21.3819  -15.5329 N   0  0  0  0  0  0  0  0  0  0  0  0
   22.8138  -20.8687  -15.4478 C   0  0  0  0  0  0  0  0  0  0  0  0
   22.8113  -19.6328  -16.1096 N   0  0  0  0  0  0  0  0  0  0  0  0
   21.5619  -19.3984  -16.6269 N   0  0  0  0  0  0  0  0  0  0  0  0
   19.3149  -21.6776  -16.3801 H   0  0  0  0  0  0  0  0  0  0  0  0
   19.1869  -20.2237  -17.2476 H   0  0  0  0  0  0  0  0  0  0  0  0
   23.9199  -21.3791  -14.8462 N   0  0  0  0  0  0  0  0  0  0  0  0
   24.0379  -21.2375  -13.8434 H   0  0  0  0  0  0  0  0  0  0  0  0
   24.9788  -22.1147  -15.4184 C   0  0  0  0  0  0  0  0  0  0  0  0
   24.6730  -23.0274  -16.4459 C   0  0  0  0  0  0  0  0  0  0  0  0
   25.6661  -23.7981  -17.0592 C   0  0  0  0  0  0  0  0  0  0  0  0
   26.9912  -23.6572  -16.6514 C   0  0  0  0  0  0  0  0  0  0  0  0
   27.3212  -22.7722  -15.6262 C   0  0  0  0  0  0  0  0  0  0  0  0
   26.3175  -22.0065  -15.0205 C   0  0  0  0  0  0  0  0  0  0  0  0
   28.2516  -24.6471  -17.3959 S   0  0  0  0  0  0  0  0  0  0  0  0
   28.0841  -26.1003  -16.5721 N   0  0  0  0  0  0  0  0  0  0  0  0
   29.5474  -24.1289  -17.0230 O   0  0  0  0  0  0  0  0  0  0  0  0
   27.8946  -24.9244  -18.7676 O   0  0  0  0  0  0  0  0  0  0  0  0
   28.9365  -26.3022  -16.0495 H   0  0  0  0  0  0  0  0  0  0  0  0
   27.8131  -26.8375  -17.2230 H   0  0  0  0  0  0  0  0  0  0  0  0
   23.8390  -18.6669  -16.3293 C   0  0  0  0  0  0  0  0  0  0  0  0
   25.0575  -18.7839  -17.4797 S   0  0  0  0  0  0  0  0  0  0  0  0
   23.5795  -17.5877  -15.4844 N   0  0  0  0  0  0  0  0  0  0  0  0
   23.1882  -16.7717  -15.9724 H   0  0  0  0  0  0  0  0  0  0  0  0
   23.8432  -17.3604  -14.1119 C   0  0  0  0  0  0  0  0  0  0  0  0
   22.9190  -16.5592  -13.4264 C   0  0  0  0  0  0  0  0  0  0  0  0
   21.8690  -16.0492  -14.0906 F   0  0  0  0  0  0  0  0  0  0  0  0
   23.0612  -16.2519  -12.0738 C   0  0  0  0  0  0  0  0  0  0  0  0
   24.1380  -16.7700  -11.3615 C   0  0  0  0  0  0  0  0  0  0  0  0
   25.0446  -17.6083  -12.0078 C   0  0  0  0  0  0  0  0  0  0  0  0
   24.8880  -17.9081  -13.3651 C   0  0  0  0  0  0  0  0  0  0  0  0
   25.7120  -18.8296  -13.8788 F   0  0  0  0  0  0  0  0  0  0  0  0
   23.6933  -23.1301  -16.7537 H   0  0  0  0  0  0  0  0  0  0  0  0
   25.4197  -24.4652  -17.8071 H   0  0  0  0  0  0  0  0  0  0  0  0
   28.3010  -22.6817  -15.3150 H   0  0  0  0  0  0  0  0  0  0  0  0
   26.5691  -21.3492  -14.2657 H   0  0  0  0  0  0  0  0  0  0  0  0
   22.3721  -15.6440  -11.6041 H   0  0  0  0  0  0  0  0  0  0  0  0
   24.2642  -16.5359  -10.3644 H   0  0  0  0  0  0  0  0  0  0  0  0
   25.8363  -18.0103  -11.4818 H   0  0  0  0  0  0  0  0  0  0  0  0
  1  2  1  0
  1  7  1  0
  1  8  1  0
  2  3  1  0
  3  4  2  0
  4  9  1  0
  4  5  1  0
  5  6  1  0
  5 23  1  0
  6  2  2  0
  9 11  1  0
  9 10  1  0
 11 12  2  0
 12 13  1  0
 12 35  1  0
 13 14  2  0
 13 36  1  0
 14 15  1  0
 14 17  1  0
 15 16  2  0
 15 37  1  0
 16 11  1  0
 16 38  1  0
 17 18  1  0
 17 19  2  0
 17 20  2  0
 18 21  1  0
 18 22  1  0
 23 24  2  0
 23 25  1  0
 25 27  1  0
 25 26  1  0
 27 28  2  0
 28 29  1  0
 28 30  1  0
 30 31  2  0
 30 39  1  0
 31 32  1  0
 31 40  1  0
 32 33  2  0
 32 41  1  0
 33 34  1  0
 33 27  1  0
M  END
>  <minimizedAffinity>  (7) 
-7.60486

>  <mol_id>  (7) 
66338

>  <source_index>  (7) 
6

>  <layer>  (7) 
L3

>  <uniprot>  (7) 
A0A1D8PKB4

>  <paff>  (7) 
6.3278999999999996

>  <smiles>  (7) 
Nc1nc(Nc2ccc(cc2)S(N)(=O)=O)n(n1)C(=S)Nc1c(F)cccc1F

$$$$
L3:A0A1D8PKB4:69135
     RDKit          3D

 35 38  0  0  0  0  0  0  0  0999 V2000
   22.5784  -20.8444  -16.6232 C   0  0  0  0  0  0  0  0  0  0  0  0
   23.8819  -21.0553  -15.9944 C   0  0  0  0  0  0  0  0  0  0  0  0
   24.3655  -20.1288  -15.1484 C   0  0  0  0  0  0  0  0  0  0  0  0
   23.6152  -18.9789  -14.8830 N   0  0  0  0  0  0  0  0  0  0  0  0
   23.8920  -17.8926  -14.0633 C   0  0  0  0  0  0  0  0  0  0  0  0
   22.8004  -17.0463  -14.2327 C   0  0  0  0  0  0  0  0  0  0  0  0
   21.8866  -17.5793  -15.1146 N   0  0  0  0  0  0  0  0  0  0  0  0
   22.3814  -18.7381  -15.4797 C   0  0  0  0  0  0  0  0  0  0  0  0
   21.8677  -19.7254  -16.3686 C   0  0  0  0  0  0  0  0  0  0  0  0
   22.5898  -15.7393  -13.6259 C   0  0  0  0  0  0  0  0  0  0  0  0
   21.3668  -15.4769  -12.9867 C   0  0  0  0  0  0  0  0  0  0  0  0
   21.1255  -14.2367  -12.3913 C   0  0  0  0  0  0  0  0  0  0  0  0
   22.1112  -13.2592  -12.4264 C   0  0  0  0  0  0  0  0  0  0  0  0
   21.8823  -12.0691  -11.8564 F   0  0  0  0  0  0  0  0  0  0  0  0
   23.3347  -13.5011  -13.0389 C   0  0  0  0  0  0  0  0  0  0  0  0
   23.5770  -14.7427  -13.6338 C   0  0  0  0  0  0  0  0  0  0  0  0
   25.1265  -17.7468  -13.2963 C   0  0  0  0  0  0  0  0  0  0  0  0
   25.0809  -17.6180  -11.9080 C   0  0  0  0  0  0  0  0  0  0  0  0
   26.2760  -17.4900  -11.2212 C   0  0  0  0  0  0  0  0  0  0  0  0
   27.4867  -17.4826  -11.8185 N   0  0  0  0  0  0  0  0  0  0  0  0
   27.5063  -17.6178  -13.1608 C   0  0  0  0  0  0  0  0  0  0  0  0
   26.3670  -17.7518  -13.9361 C   0  0  0  0  0  0  0  0  0  0  0  0
   21.6673  -22.6502  -18.2351 N   0  0  0  0  0  0  0  0  0  0  0  0
   22.0718  -21.8374  -17.5130 C   0  0  0  0  0  0  0  0  0  0  0  0
   24.4260  -21.9082  -16.1983 H   0  0  0  0  0  0  0  0  0  0  0  0
   25.2840  -20.2653  -14.6981 H   0  0  0  0  0  0  0  0  0  0  0  0
   20.9499  -19.5849  -16.8191 H   0  0  0  0  0  0  0  0  0  0  0  0
   20.6391  -16.2080  -12.9567 H   0  0  0  0  0  0  0  0  0  0  0  0
   20.2222  -14.0484  -11.9291 H   0  0  0  0  0  0  0  0  0  0  0  0
   24.0608  -12.7679  -13.0546 H   0  0  0  0  0  0  0  0  0  0  0  0
   24.4882  -14.9274  -14.0818 H   0  0  0  0  0  0  0  0  0  0  0  0
   24.1793  -17.6181  -11.4058 H   0  0  0  0  0  0  0  0  0  0  0  0
   26.2394  -17.3948  -10.1943 H   0  0  0  0  0  0  0  0  0  0  0  0
   28.4221  -17.6215  -13.6365 H   0  0  0  0  0  0  0  0  0  0  0  0
   26.4333  -17.8528  -14.9610 H   0  0  0  0  0  0  0  0  0  0  0  0
  1  2  1  0
  2  3  2  0
  2 25  1  0
  3  4  1  0
  3 26  1  0
  4  5  1  0
  5 17  1  0
  5  6  2  0
  6 10  1  0
  6  7  1  0
  7  8  2  0
  8  9  1  0
  8  4  1  0
  9  1  2  0
  9 27  1  0
 10 11  2  0
 11 12  1  0
 11 28  1  0
 12 13  2  0
 12 29  1  0
 13 14  1  0
 13 15  1  0
 15 16  2  0
 15 30  1  0
 16 10  1  0
 16 31  1  0
 17 18  2  0
 18 19  1  0
 18 32  1  0
 19 20  2  0
 19 33  1  0
 20 21  1  0
 21 22  2  0
 21 34  1  0
 22 17  1  0
 22 35  1  0
 23 24  3  0
 24  1  1  0
M  END
>  <minimizedAffinity>  (8) 
-8.83502

>  <mol_id>  (8) 
69135

>  <source_index>  (8) 
7

>  <layer>  (8) 
L3

>  <uniprot>  (8) 
A0A1D8PKB4

>  <paff>  (8) 
6.8860999999999999

>  <smiles>  (8) 
N#Cc1ccn2c(-c3ccncc3)c(-c3ccc(F)cc3)nc2c1

$$$$
L3:A0A1D8PKB4:121070
     RDKit          3D

 33 36  0  0  0  0  0  0  0  0999 V2000
   21.7461  -16.2651  -14.1836 C   0  0  0  0  0  0  0  0  0  0  0  0
   20.4612  -16.5795  -14.5496 N   0  0  0  0  0  0  0  0  0  0  0  0
   20.3206  -17.7939  -15.1074 N   0  0  0  0  0  0  0  0  0  0  0  0
   21.5540  -18.3002  -15.0557 C   0  0  0  0  0  0  0  0  0  0  0  0
   22.4807  -17.4043  -14.4785 C   0  0  0  0  0  0  0  0  0  0  0  0
   19.6302  -16.0101  -14.4372 H   0  0  0  0  0  0  0  0  0  0  0  0
   23.9076  -17.5712  -14.2645 C   0  0  0  0  0  0  0  0  0  0  0  0
   24.7023  -17.8939  -15.3650 C   0  0  0  0  0  0  0  0  0  0  0  0
   26.0508  -18.0881  -15.1575 C   0  0  0  0  0  0  0  0  0  0  0  0
   26.6468  -17.9927  -13.9522 N   0  0  0  0  0  0  0  0  0  0  0  0
   25.8860  -17.6720  -12.8915 C   0  0  0  0  0  0  0  0  0  0  0  0
   26.5045  -17.5644  -11.6526 C   0  0  0  0  0  0  0  0  0  0  0  0
   25.7961  -17.2305  -10.4962 C   0  0  0  0  0  0  0  0  0  0  0  0
   24.4321  -16.9918  -10.5723 C   0  0  0  0  0  0  0  0  0  0  0  0
   23.7856  -17.0946  -11.8029 C   0  0  0  0  0  0  0  0  0  0  0  0
   24.4951  -17.4430  -12.9809 C   0  0  0  0  0  0  0  0  0  0  0  0
   22.5953  -12.5997  -12.3334 C   0  0  0  0  0  0  0  0  0  0  0  0
   23.5343  -13.1117  -13.2210 C   0  0  0  0  0  0  0  0  0  0  0  0
   23.2849  -14.3279  -13.8530 C   0  0  0  0  0  0  0  0  0  0  0  0
   22.0954  -14.9918  -13.5715 C   0  0  0  0  0  0  0  0  0  0  0  0
   21.1718  -14.5076  -12.7142 N   0  0  0  0  0  0  0  0  0  0  0  0
   21.4398  -13.3291  -12.1129 C   0  0  0  0  0  0  0  0  0  0  0  0
   21.8029  -19.2410  -15.3990 H   0  0  0  0  0  0  0  0  0  0  0  0
   24.2919  -17.9846  -16.3076 H   0  0  0  0  0  0  0  0  0  0  0  0
   26.6391  -18.3203  -15.9730 H   0  0  0  0  0  0  0  0  0  0  0  0
   27.5197  -17.7366  -11.5844 H   0  0  0  0  0  0  0  0  0  0  0  0
   26.2850  -17.1618   -9.5900 H   0  0  0  0  0  0  0  0  0  0  0  0
   23.9000  -16.7401   -9.7246 H   0  0  0  0  0  0  0  0  0  0  0  0
   22.7711  -16.9137  -11.8581 H   0  0  0  0  0  0  0  0  0  0  0  0
   22.7551  -11.7008  -11.8522 H   0  0  0  0  0  0  0  0  0  0  0  0
   24.4079  -12.5959  -13.4101 H   0  0  0  0  0  0  0  0  0  0  0  0
   23.9677  -14.7276  -14.5156 H   0  0  0  0  0  0  0  0  0  0  0  0
   20.7439  -12.9506  -11.4515 H   0  0  0  0  0  0  0  0  0  0  0  0
  1  2  1  0
  2  3  1  0
  2  6  1  0
  3  4  2  0
  4  5  1  0
  4 23  1  0
  5  7  1  0
  5  1  2  0
  7  8  2  0
  8  9  1  0
  8 24  1  0
  9 10  2  0
  9 25  1  0
 10 11  1  0
 11 12  2  0
 12 13  1  0
 12 26  1  0
 13 14  2  0
 13 27  1  0
 14 15  1  0
 14 28  1  0
 15 16  2  0
 15 29  1  0
 16  7  1  0
 16 11  1  0
 17 18  2  0
 17 30  1  0
 18 19  1  0
 18 31  1  0
 19 20  2  0
 19 32  1  0
 20  1  1  0
 20 21  1  0
 21 22  2  0
 22 17  1  0
 22 33  1  0
M  END
>  <minimizedAffinity>  (9) 
-7.41282

>  <mol_id>  (9) 
121070

>  <source_index>  (9) 
8

>  <layer>  (9) 
L3

>  <uniprot>  (9) 
A0A1D8PKB4

>  <paff>  (9) 
6.8239000000000001

>  <smiles>  (9) 
c1ccc(-c2[nH]ncc2-c2ccnc3ccccc23)nc1

$$$$
L3:A0A1D8PKB4:127503
     RDKit          3D

 56 60  0  0  0  0  0  0  0  0999 V2000
   24.0407  -20.0329  -16.2286 C   0  0  0  0  0  0  0  0  0  0  0  0
   23.5866  -18.7680  -15.8071 C   0  0  0  0  0  0  0  0  0  0  0  0
   22.2394  -18.4203  -15.8715 C   0  0  0  0  0  0  0  0  0  0  0  0
   21.3644  -19.3745  -16.3584 C   0  0  0  0  0  0  0  0  0  0  0  0
   21.7426  -20.6039  -16.7783 N   0  0  0  0  0  0  0  0  0  0  0  0
   23.0674  -20.9161  -16.7267 C   0  0  0  0  0  0  0  0  0  0  0  0
   28.8695  -20.5542  -19.3677 C   0  0  0  0  0  0  0  0  0  0  0  0
   28.8159  -20.7793  -17.9030 C   0  0  0  0  0  0  0  0  0  0  0  0
   29.9211  -21.1209  -17.2278 N   0  0  0  0  0  0  0  0  0  0  0  0
   29.4995  -21.2282  -15.9567 N   0  0  0  0  0  0  0  0  0  0  0  0
   28.1655  -20.9754  -15.7827 C   0  0  0  0  0  0  0  0  0  0  0  0
   27.3589  -20.9845  -14.6433 C   0  0  0  0  0  0  0  0  0  0  0  0
   26.0054  -20.6696  -14.8210 C   0  0  0  0  0  0  0  0  0  0  0  0
   25.4709  -20.3527  -16.0826 C   0  0  0  0  0  0  0  0  0  0  0  0
   26.3201  -20.3657  -17.2076 C   0  0  0  0  0  0  0  0  0  0  0  0
   27.6840  -20.6763  -17.0500 C   0  0  0  0  0  0  0  0  0  0  0  0
   30.1779  -21.4800  -15.2476 H   0  0  0  0  0  0  0  0  0  0  0  0
   23.3471  -22.2529  -17.2335 C   0  0  0  0  0  0  0  0  0  0  0  0
   24.2217  -23.2443  -16.7019 C   0  0  0  0  0  0  0  0  0  0  0  0
   24.0982  -24.3504  -17.5081 C   0  0  0  0  0  0  0  0  0  0  0  0
   23.1865  -24.1217  -18.4866 O   0  0  0  0  0  0  0  0  0  0  0  0
   22.7208  -22.8573  -18.3044 C   0  0  0  0  0  0  0  0  0  0  0  0
   21.9342  -17.1656  -15.4338 O   0  0  0  0  0  0  0  0  0  0  0  0
   21.6148  -17.0233  -14.0438 C   0  0  0  0  0  0  0  0  0  0  0  0
   22.5466  -15.9539  -13.4275 C   0  0  1  0  0  0  0  0  0  0  0  0
   21.7995  -14.6995  -13.1882 N   0  0  0  0  0  0  0  0  0  0  0  0
   21.0062  -14.8808  -12.5749 H   0  0  0  0  0  0  0  0  0  0  0  0
   21.3919  -14.4071  -14.0795 H   0  0  0  0  0  0  0  0  0  0  0  0
   23.1813  -16.4918  -12.1274 C   0  0  0  0  0  0  0  0  0  0  0  0
   24.6261  -16.9076  -12.2831 C   0  0  0  0  0  0  0  0  0  0  0  0
   25.3898  -17.2579  -11.1606 C   0  0  0  0  0  0  0  0  0  0  0  0
   26.7239  -17.6443  -11.3037 C   0  0  0  0  0  0  0  0  0  0  0  0
   27.3064  -17.6883  -12.5688 C   0  0  0  0  0  0  0  0  0  0  0  0
   26.5551  -17.3483  -13.6916 C   0  0  0  0  0  0  0  0  0  0  0  0
   25.2217  -16.9608  -13.5499 C   0  0  0  0  0  0  0  0  0  0  0  0
   24.2673  -18.0835  -15.4424 H   0  0  0  0  0  0  0  0  0  0  0  0
   20.3618  -19.1341  -16.4042 H   0  0  0  0  0  0  0  0  0  0  0  0
   29.8690  -20.7105  -19.7162 H   0  0  0  0  0  0  0  0  0  0  0  0
   28.5686  -19.5508  -19.5856 H   0  0  0  0  0  0  0  0  0  0  0  0
   28.2096  -21.2389  -19.8582 H   0  0  0  0  0  0  0  0  0  0  0  0
   27.7421  -21.2128  -13.7127 H   0  0  0  0  0  0  0  0  0  0  0  0
   25.3805  -20.6702  -13.9997 H   0  0  0  0  0  0  0  0  0  0  0  0
   25.9433  -20.1483  -18.1434 H   0  0  0  0  0  0  0  0  0  0  0  0
   24.8294  -23.1501  -15.8731 H   0  0  0  0  0  0  0  0  0  0  0  0
   24.6242  -25.2300  -17.3865 H   0  0  0  0  0  0  0  0  0  0  0  0
   21.9968  -22.4100  -18.8881 H   0  0  0  0  0  0  0  0  0  0  0  0
   21.7594  -17.9581  -13.5437 H   0  0  0  0  0  0  0  0  0  0  0  0
   20.5935  -16.7240  -13.9334 H   0  0  0  0  0  0  0  0  0  0  0  0
   23.3370  -15.7358  -14.1149 H   0  0  0  0  0  0  0  0  0  0  0  0
   22.6182  -17.3420  -11.8033 H   0  0  0  0  0  0  0  0  0  0  0  0
   23.1609  -15.6930  -11.4158 H   0  0  0  0  0  0  0  0  0  0  0  0
   24.9626  -17.2299  -10.2216 H   0  0  0  0  0  0  0  0  0  0  0  0
   27.2792  -17.8976  -10.4715 H   0  0  0  0  0  0  0  0  0  0  0  0
   28.2930  -17.9724  -12.6738 H   0  0  0  0  0  0  0  0  0  0  0  0
   26.9849  -17.3830  -14.6292 H   0  0  0  0  0  0  0  0  0  0  0  0
   24.6699  -16.7114  -14.3855 H   0  0  0  0  0  0  0  0  0  0  0  0
  1  2  2  0
  2  3  1  0
  2 36  1  0
  3 23  1  0
  3  4  2  0
  4  5  1  0
  4 37  1  0
  5  6  2  0
  6 18  1  0
  6  1  1  0
  7  8  1  0
  7 38  1  0
  7 39  1  0
  7 40  1  0
  8  9  2  0
  9 10  1  0
 10 11  1  0
 10 17  1  0
 11 12  2  0
 12 13  1  0
 12 41  1  0
 13 14  2  0
 13 42  1  0
 14  1  1  0
 14 15  1  0
 15 16  2  0
 15 43  1  0
 16  8  1  0
 16 11  1  0
 18 19  1  0
 19 20  2  0
 19 44  1  0
 20 21  1  0
 20 45  1  0
 21 22  1  0
 22 18  2  0
 22 46  1  0
 23 24  1  0
 24 25  1  0
 24 47  1  0
 24 48  1  0
 25 26  1  0
 25 29  1  0
 25 49  1  6
 26 27  1  0
 26 28  1  0
 29 30  1  0
 29 50  1  0
 29 51  1  0
 30 31  2  0
 31 32  1  0
 31 52  1  0
 32 33  2  0
 32 53  1  0
 33 34  1  0
 33 54  1  0
 34 35  2  0
 34 55  1  0
 35 30  1  0
 35 56  1  0
M  END
>  <minimizedAffinity>  (10) 
-8.32603

>  <mol_id>  (10) 
127503

>  <source_index>  (10) 
9

>  <layer>  (10) 
L3

>  <uniprot>  (10) 
A0A1D8PKB4

>  <paff>  (10) 
6.7958999999999996

>  <smiles>  (10) 
Cc1n[nH]c2ccc(-c3cc(OC[C@@H](N)Cc4ccccc4)cnc3-c3ccoc3)cc12

$$$$
