L3:P05556:6155
     RDKit          3D

 68 72  0  0  0  0  0  0  0  0999 V2000
    0.8427  113.4036   38.8804 N   0  0  0  0  0  0  0  0  0  0  0  0
   -0.0329  112.6005   37.9988 C   0  0  0  0  0  0  0  0  0  0  0  0
   -0.3699  111.3025   38.7347 C   0  0  0  0  0  0  0  0  0  0  0  0
    0.5376  111.2822   39.9587 C   0  0  2  0  0  0  0  0  0  0  0  0
    1.5669  112.3621   39.6348 C   0  0  0  0  0  0  0  0  0  0  0  0
    0.0506  114.3428   39.7421 C   0  0  1  0  0  0  0  0  0  0  0  0
    0.8727  115.0207   40.8501 C   0  0  0  0  0  0  0  0  0  0  0  0
    1.9594  115.8274   40.4427 C   0  0  0  0  0  0  0  0  0  0  0  0
    2.7203  116.5168   41.3757 C   0  0  0  0  0  0  0  0  0  0  0  0
    3.7447  117.2753   40.9630 F   0  0  0  0  0  0  0  0  0  0  0  0
    2.4222  116.4403   42.7235 C   0  0  0  0  0  0  0  0  0  0  0  0
    1.3606  115.6370   43.1429 C   0  0  0  0  0  0  0  0  0  0  0  0
    0.5730  114.8911   42.2362 C   0  0  0  0  0  0  0  0  0  0  0  0
   -0.5728  114.0365   42.7524 C   0  0  0  0  0  0  0  0  0  0  0  0
   -1.9922  114.5602   42.8267 C   0  0  0  0  0  0  0  0  0  0  0  0
   -1.2094  114.3627   44.0866 C   0  0  0  0  0  0  0  0  0  0  0  0
   -1.8777  115.7731   39.1641 O   0  0  0  0  0  0  0  0  0  0  0  0
   -0.7244  115.4210   38.9417 C   0  0  0  0  0  0  0  0  0  0  0  0
   -0.0750  115.9768   37.8950 O   0  0  0  0  0  0  0  0  0  0  0  0
   -0.7192  116.6257   37.5460 H   0  0  0  0  0  0  0  0  0  0  0  0
    1.1891  110.0354   40.1545 O   0  0  0  0  0  0  0  0  0  0  0  0
    1.9347  109.9241   41.3650 C   0  0  0  0  0  0  0  0  0  0  0  0
    1.2521  110.5926   42.5615 C   0  0  0  0  0  0  0  0  0  0  0  0
    2.0882  111.6636   43.2738 C   0  0  0  0  0  0  0  0  0  0  0  0
    3.5022  111.8598   42.7168 C   0  0  0  0  0  0  0  0  0  0  0  0
    4.2574  112.9957   43.3573 C   0  0  0  0  0  0  0  0  0  0  0  0
    4.9222  113.9404   42.5839 C   0  0  0  0  0  0  0  0  0  0  0  0
    5.5740  114.9873   43.2262 C   0  0  0  0  0  0  0  0  0  0  0  0
    5.5680  115.0467   44.6218 C   0  0  0  0  0  0  0  0  0  0  0  0
    4.8881  114.0506   45.3236 C   0  0  0  0  0  0  0  0  0  0  0  0
    4.2334  113.0490   44.7112 N   0  0  0  0  0  0  0  0  0  0  0  0
    4.8980  114.0125   46.7101 N   0  0  0  0  0  0  0  0  0  0  0  0
    5.0765  115.2749   47.3916 C   0  0  0  0  0  0  0  0  0  0  0  0
    6.3264  115.9615   46.8497 C   0  0  0  0  0  0  0  0  0  0  0  0
    6.1914  116.2072   45.3467 C   0  0  0  0  0  0  0  0  0  0  0  0
    4.1816  113.3736   47.0346 H   0  0  0  0  0  0  0  0  0  0  0  0
    0.4758  112.3791   37.0839 H   0  0  0  0  0  0  0  0  0  0  0  0
   -0.9261  113.1412   37.7648 H   0  0  0  0  0  0  0  0  0  0  0  0
   -0.1740  110.4564   38.1097 H   0  0  0  0  0  0  0  0  0  0  0  0
   -1.4039  111.2565   39.0059 H   0  0  0  0  0  0  0  0  0  0  0  0
   -0.0148  111.4437   40.8607 H   0  0  0  0  0  0  0  0  0  0  0  0
    2.3579  111.9550   39.0402 H   0  0  0  0  0  0  0  0  0  0  0  0
    2.0098  112.7597   40.5240 H   0  0  0  0  0  0  0  0  0  0  0  0
   -0.6620  113.6963   40.2102 H   0  0  0  0  0  0  0  0  0  0  0  0
    2.1895  115.9045   39.4396 H   0  0  0  0  0  0  0  0  0  0  0  0
    2.9784  116.9712   43.4118 H   0  0  0  0  0  0  0  0  0  0  0  0
    1.1429  115.5857   44.1504 H   0  0  0  0  0  0  0  0  0  0  0  0
   -0.1133  113.1812   42.3027 H   0  0  0  0  0  0  0  0  0  0  0  0
   -2.8131  113.9121   42.6009 H   0  0  0  0  0  0  0  0  0  0  0  0
   -2.5175  115.3814   42.3857 H   0  0  0  0  0  0  0  0  0  0  0  0
   -1.4718  113.5737   44.7600 H   0  0  0  0  0  0  0  0  0  0  0  0
   -0.9456  114.9851   44.9160 H   0  0  0  0  0  0  0  0  0  0  0  0
    2.8899  110.3836   41.2188 H   0  0  0  0  0  0  0  0  0  0  0  0
    2.0186  108.8815   41.5903 H   0  0  0  0  0  0  0  0  0  0  0  0
    1.0123  109.8313   43.2741 H   0  0  0  0  0  0  0  0  0  0  0  0
    0.3931  111.0968   42.1707 H   0  0  0  0  0  0  0  0  0  0  0  0
    2.1729  111.3873   44.3040 H   0  0  0  0  0  0  0  0  0  0  0  0
    1.5765  112.5911   43.1226 H   0  0  0  0  0  0  0  0  0  0  0  0
    3.4271  112.0543   41.6673 H   0  0  0  0  0  0  0  0  0  0  0  0
    4.0476  110.9643   42.9301 H   0  0  0  0  0  0  0  0  0  0  0  0
    4.9318  113.8663   41.5546 H   0  0  0  0  0  0  0  0  0  0  0  0
    6.0581  115.7143   42.6765 H   0  0  0  0  0  0  0  0  0  0  0  0
    5.1889  115.1026   48.4416 H   0  0  0  0  0  0  0  0  0  0  0  0
    4.2224  115.8979   47.2266 H   0  0  0  0  0  0  0  0  0  0  0  0
    7.1771  115.3380   47.0298 H   0  0  0  0  0  0  0  0  0  0  0  0
    6.4478  116.9020   47.3452 H   0  0  0  0  0  0  0  0  0  0  0  0
    7.1655  116.3815   44.9397 H   0  0  0  0  0  0  0  0  0  0  0  0
    5.5495  117.0530   45.2142 H   0  0  0  0  0  0  0  0  0  0  0  0
  1  2  1  0
  2  3  1  0
  2 37  1  0
  2 38  1  0
  3  4  1  0
  3 39  1  0
  3 40  1  0
  4 21  1  0
  4  5  1  0
  4 41  1  1
  5  1  1  0
  5 42  1  0
  5 43  1  0
  6  7  1  0
  6  1  1  0
  6 44  1  1
  7  8  2  0
  8  9  1  0
  8 45  1  0
  9 10  1  0
  9 11  2  0
 11 12  1  0
 11 46  1  0
 12 13  2  0
 12 47  1  0
 13 14  1  0
 13  7  1  0
 14 15  1  0
 14 48  1  0
 15 16  1  0
 15 49  1  0
 15 50  1  0
 16 14  1  0
 16 51  1  0
 16 52  1  0
 17 18  2  0
 18 19  1  0
 18  6  1  0
 19 20  1  0
 21 22  1  0
 22 23  1  0
 22 53  1  0
 22 54  1  0
 23 24  1  0
 23 55  1  0
 23 56  1  0
 24 25  1  0
 24 57  1  0
 24 58  1  0
 25 26  1  0
 25 59  1  0
 25 60  1  0
 26 27  2  0
 27 28  1  0
 27 61  1  0
 28 29  2  0
 28 62  1  0
 29 30  1  0
 30 31  2  0
 30 32  1  0
 31 26  1  0
 32 33  1  0
 32 36  1  0
 33 34  1  0
 33 63  1  0
 33 64  1  0
 34 35  1  0
 34 65  1  0
 34 66  1  0
 35 29  1  0
 35 67  1  0
 35 68  1  0
M  END
>  <minimizedAffinity>  (1) 
-5.70898

>  <mol_id>  (1) 
6155

>  <source_index>  (1) 
0

>  <layer>  (1) 
L3

>  <uniprot>  (1) 
P05556

>  <paff>  (1) 
7.0362

>  <smiles>  (1) 
O=C(O)[C@H](c1cc(F)ccc1C1CC1)N1CC[C@@H](OCCCCc2ccc3c(n2)NCCC3)C1

$$$$
L3:P05556:22350
     RDKit          3D

 68 72  0  0  0  0  0  0  0  0999 V2000
    3.3338  114.4505   42.1645 N   0  0  0  0  0  0  0  0  0  0  0  0
    4.4930  114.8136   42.9663 C   0  0  0  0  0  0  0  0  0  0  0  0
    4.7147  113.5390   43.7606 C   0  0  0  0  0  0  0  0  0  0  0  0
    4.4872  112.4377   42.7284 C   0  0  2  0  0  0  0  0  0  0  0  0
    3.5149  113.0712   41.7135 C   0  0  0  0  0  0  0  0  0  0  0  0
    2.8653  115.4622   41.1919 C   0  0  1  0  0  0  0  0  0  0  0  0
   -1.3338  115.3642   40.0061 C   0  0  0  0  0  0  0  0  0  0  0  0
   -0.3518  115.6718   39.0796 C   0  0  0  0  0  0  0  0  0  0  0  0
    0.9877  115.6762   39.4690 C   0  0  0  0  0  0  0  0  0  0  0  0
    1.3837  115.3764   40.7912 C   0  0  0  0  0  0  0  0  0  0  0  0
    0.3826  115.0245   41.7382 C   0  0  0  0  0  0  0  0  0  0  0  0
   -0.9669  115.0499   41.3129 C   0  0  0  0  0  0  0  0  0  0  0  0
    0.6808  114.6623   43.1855 C   0  0  0  0  0  0  0  0  0  0  0  0
   -0.4346  114.5733   44.2064 C   0  0  0  0  0  0  0  0  0  0  0  0
    0.5383  115.7074   44.2747 C   0  0  0  0  0  0  0  0  0  0  0  0
    3.3200  116.8712   41.6386 C   0  0  0  0  0  0  0  0  0  0  0  0
    3.1845  117.4053   42.7301 O   0  0  0  0  0  0  0  0  0  0  0  0
    3.9763  117.5457   40.6607 O   0  0  0  0  0  0  0  0  0  0  0  0
    4.2472  118.3784   41.0976 H   0  0  0  0  0  0  0  0  0  0  0  0
    3.9913  111.2673   43.3750 O   0  0  0  0  0  0  0  0  0  0  0  0
    3.2406  111.5663   44.5485 C   0  0  0  0  0  0  0  0  0  0  0  0
    2.0039  110.6717   44.6075 C   0  0  0  0  0  0  0  0  0  0  0  0
    1.3044  110.4579   43.2594 C   0  0  0  0  0  0  0  0  0  0  0  0
   -0.1339  110.9808   43.2319 C   0  0  0  0  0  0  0  0  0  0  0  0
   -0.6120  111.3470   41.8482 C   0  0  0  0  0  0  0  0  0  0  0  0
   -1.9699  111.4081   41.5510 C   0  0  0  0  0  0  0  0  0  0  0  0
   -2.3582  111.7212   40.2534 C   0  0  0  0  0  0  0  0  0  0  0  0
   -1.3807  111.9469   39.2818 C   0  0  0  0  0  0  0  0  0  0  0  0
   -0.0383  111.8478   39.6566 C   0  0  0  0  0  0  0  0  0  0  0  0
    0.3479  111.5586   40.9135 N   0  0  0  0  0  0  0  0  0  0  0  0
    0.9815  112.0766   38.7370 N   0  0  0  0  0  0  0  0  0  0  0  0
    0.6579  111.7769   37.3602 C   0  0  0  0  0  0  0  0  0  0  0  0
   -0.5758  112.5842   36.9700 C   0  0  0  0  0  0  0  0  0  0  0  0
   -1.7675  112.1948   37.8485 C   0  0  0  0  0  0  0  0  0  0  0  0
    1.8551  111.7277   39.1163 H   0  0  0  0  0  0  0  0  0  0  0  0
    4.2814  115.6434   43.6079 H   0  0  0  0  0  0  0  0  0  0  0  0
    5.3412  115.1272   42.3943 H   0  0  0  0  0  0  0  0  0  0  0  0
    4.0130  113.4615   44.5647 H   0  0  0  0  0  0  0  0  0  0  0  0
    5.6818  113.4925   44.2162 H   0  0  0  0  0  0  0  0  0  0  0  0
    5.3715  112.1053   42.2259 H   0  0  0  0  0  0  0  0  0  0  0  0
    2.5801  112.5505   41.7142 H   0  0  0  0  0  0  0  0  0  0  0  0
    3.8939  113.0241   40.7140 H   0  0  0  0  0  0  0  0  0  0  0  0
    3.3436  115.2299   40.2634 H   0  0  0  0  0  0  0  0  0  0  0  0
   -2.3285  115.3677   39.7311 H   0  0  0  0  0  0  0  0  0  0  0  0
   -0.6096  115.8967   38.1059 H   0  0  0  0  0  0  0  0  0  0  0  0
    1.7113  115.9055   38.7698 H   0  0  0  0  0  0  0  0  0  0  0  0
   -1.7072  114.8272   41.9965 H   0  0  0  0  0  0  0  0  0  0  0  0
    1.4569  114.0055   42.8520 H   0  0  0  0  0  0  0  0  0  0  0  0
   -0.4147  113.8073   44.9532 H   0  0  0  0  0  0  0  0  0  0  0  0
   -1.5005  114.4966   44.1536 H   0  0  0  0  0  0  0  0  0  0  0  0
    1.2529  115.7508   45.0699 H   0  0  0  0  0  0  0  0  0  0  0  0
    0.4538  116.7739   44.2905 H   0  0  0  0  0  0  0  0  0  0  0  0
    2.9372  112.5921   44.5254 H   0  0  0  0  0  0  0  0  0  0  0  0
    3.8471  111.3915   45.4125 H   0  0  0  0  0  0  0  0  0  0  0  0
    1.3017  111.1173   45.2807 H   0  0  0  0  0  0  0  0  0  0  0  0
    2.3418  109.7088   44.9294 H   0  0  0  0  0  0  0  0  0  0  0  0
    1.2882  109.4091   43.0481 H   0  0  0  0  0  0  0  0  0  0  0  0
    1.8553  111.0093   42.5264 H   0  0  0  0  0  0  0  0  0  0  0  0
   -0.1903  111.8512   43.8517 H   0  0  0  0  0  0  0  0  0  0  0  0
   -0.7639  110.1913   43.5852 H   0  0  0  0  0  0  0  0  0  0  0  0
   -2.6761  111.2243   42.2807 H   0  0  0  0  0  0  0  0  0  0  0  0
   -3.3591  111.7862   40.0104 H   0  0  0  0  0  0  0  0  0  0  0  0
    0.4539  110.7317   37.2560 H   0  0  0  0  0  0  0  0  0  0  0  0
    1.4804  112.0315   36.7250 H   0  0  0  0  0  0  0  0  0  0  0  0
   -0.8147  112.3900   35.9453 H   0  0  0  0  0  0  0  0  0  0  0  0
   -0.3679  113.6247   37.1080 H   0  0  0  0  0  0  0  0  0  0  0  0
   -2.2058  111.3021   37.4536 H   0  0  0  0  0  0  0  0  0  0  0  0
   -2.4559  113.0139   37.8382 H   0  0  0  0  0  0  0  0  0  0  0  0
  1  2  1  0
  2  3  1  0
  2 36  1  0
  2 37  1  0
  3  4  1  0
  3 38  1  0
  3 39  1  0
  4  5  1  0
  4 20  1  0
  4 40  1  6
  5  1  1  0
  5 41  1  0
  5 42  1  0
  6 16  1  0
  6  1  1  0
  6 43  1  6
  7  8  2  0
  7 44  1  0
  8  9  1  0
  8 45  1  0
  9 10  2  0
  9 46  1  0
 10 11  1  0
 10  6  1  0
 11 12  2  0
 11 13  1  0
 12  7  1  0
 12 47  1  0
 13 14  1  0
 13 48  1  0
 14 15  1  0
 14 49  1  0
 14 50  1  0
 15 13  1  0
 15 51  1  0
 15 52  1  0
 16 17  2  0
 16 18  1  0
 18 19  1  0
 20 21  1  0
 21 22  1  0
 21 53  1  0
 21 54  1  0
 22 23  1  0
 22 55  1  0
 22 56  1  0
 23 24  1  0
 23 57  1  0
 23 58  1  0
 24 25  1  0
 24 59  1  0
 24 60  1  0
 25 26  2  0
 26 27  1  0
 26 61  1  0
 27 28  2  0
 27 62  1  0
 28 29  1  0
 29 30  2  0
 29 31  1  0
 30 25  1  0
 31 32  1  0
 31 35  1  0
 32 33  1  0
 32 63  1  0
 32 64  1  0
 33 34  1  0
 33 65  1  0
 33 66  1  0
 34 28  1  0
 34 67  1  0
 34 68  1  0
M  END
>  <minimizedAffinity>  (2) 
-5.71338

>  <mol_id>  (2) 
22350

>  <source_index>  (2) 
1

>  <layer>  (2) 
L3

>  <uniprot>  (2) 
P05556

>  <paff>  (2) 
7.0176999999999996

>  <smiles>  (2) 
c1ccc(c(c1)C2CC2)[C@@H](C(=O)O)N3CC[C@H](C3)OCCCCc4ccc5c(n4)NCCC5

$$$$
L3:P05556:37092
     RDKit          3D

 72 76  0  0  0  0  0  0  0  0999 V2000
    3.1637  113.9885   42.5336 N   0  0  0  0  0  0  0  0  0  0  0  0
    3.7704  114.3089   43.8232 C   0  0  0  0  0  0  0  0  0  0  0  0
    4.2432  112.9615   44.3331 C   0  0  0  0  0  0  0  0  0  0  0  0
    4.7705  112.2913   43.0747 C   0  0  2  0  0  0  0  0  0  0  0  0
    3.7952  112.7794   41.9946 C   0  0  0  0  0  0  0  0  0  0  0  0
    2.9945  115.1087   41.5811 C   0  0  1  0  0  0  0  0  0  0  0  0
    1.5397  115.1639   41.0815 C   0  0  0  0  0  0  0  0  0  0  0  0
    1.2817  115.5003   39.7339 C   0  0  0  0  0  0  0  0  0  0  0  0
   -0.0178  115.5724   39.2464 C   0  0  0  0  0  0  0  0  0  0  0  0
   -0.2239  115.8870   37.9597 F   0  0  0  0  0  0  0  0  0  0  0  0
   -1.0997  115.3289   40.0723 C   0  0  0  0  0  0  0  0  0  0  0  0
   -0.8765  115.0258   41.4132 C   0  0  0  0  0  0  0  0  0  0  0  0
    0.4299  114.9508   41.9492 C   0  0  0  0  0  0  0  0  0  0  0  0
    0.5905  114.6829   43.4351 C   0  0  1  0  0  0  0  0  0  0  0  0
    0.3671  115.8928   44.3295 C   0  0  0  0  0  0  0  0  0  0  0  0
    0.1497  115.2366   45.6746 C   0  0  0  0  0  0  0  0  0  0  0  0
   -0.5597  114.0158   45.4195 O   0  0  0  0  0  0  0  0  0  0  0  0
   -0.3847  113.6689   44.0328 C   0  0  0  0  0  0  0  0  0  0  0  0
    2.9529  117.3229   42.6945 O   0  0  0  0  0  0  0  0  0  0  0  0
    3.5588  116.4784   42.0451 C   0  0  0  0  0  0  0  0  0  0  0  0
    4.8142  116.7739   41.6410 O   0  0  0  0  0  0  0  0  0  0  0  0
    4.9636  117.6752   41.9987 H   0  0  0  0  0  0  0  0  0  0  0  0
    4.7768  110.8806   43.2545 O   0  0  0  0  0  0  0  0  0  0  0  0
    3.6046  110.4041   43.9144 C   0  0  0  0  0  0  0  0  0  0  0  0
    3.1083  109.1524   43.1962 C   0  0  0  0  0  0  0  0  0  0  0  0
    1.9225  109.3959   42.2509 C   0  0  0  0  0  0  0  0  0  0  0  0
    1.1204  110.6728   42.5251 C   0  0  0  0  0  0  0  0  0  0  0  0
    0.3053  111.1228   41.3391 C   0  0  0  0  0  0  0  0  0  0  0  0
   -1.0823  111.1634   41.4146 C   0  0  0  0  0  0  0  0  0  0  0  0
   -1.7999  111.5576   40.2919 C   0  0  0  0  0  0  0  0  0  0  0  0
   -1.1139  111.9148   39.1321 C   0  0  0  0  0  0  0  0  0  0  0  0
    0.2822  111.8541   39.1398 C   0  0  0  0  0  0  0  0  0  0  0  0
    0.9889  111.4584   40.2163 N   0  0  0  0  0  0  0  0  0  0  0  0
    1.0218  112.2634   38.0377 N   0  0  0  0  0  0  0  0  0  0  0  0
    0.3711  112.1607   36.7507 C   0  0  0  0  0  0  0  0  0  0  0  0
   -0.9629  112.8977   36.8097 C   0  0  0  0  0  0  0  0  0  0  0  0
   -1.8639  112.2798   37.8786 C   0  0  0  0  0  0  0  0  0  0  0  0
    1.9847  111.9573   38.1322 H   0  0  0  0  0  0  0  0  0  0  0  0
    3.0512  114.7392   44.4884 H   0  0  0  0  0  0  0  0  0  0  0  0
    4.5598  115.0272   43.7467 H   0  0  0  0  0  0  0  0  0  0  0  0
    3.4339  112.4040   44.7565 H   0  0  0  0  0  0  0  0  0  0  0  0
    4.9737  113.0357   45.1114 H   0  0  0  0  0  0  0  0  0  0  0  0
    5.7804  112.5320   42.8159 H   0  0  0  0  0  0  0  0  0  0  0  0
    3.0563  112.0314   41.7960 H   0  0  0  0  0  0  0  0  0  0  0  0
    4.3007  112.9799   41.0731 H   0  0  0  0  0  0  0  0  0  0  0  0
    3.6264  114.8905   40.7457 H   0  0  0  0  0  0  0  0  0  0  0  0
    2.0723  115.6960   39.1001 H   0  0  0  0  0  0  0  0  0  0  0  0
   -2.0611  115.3713   39.6996 H   0  0  0  0  0  0  0  0  0  0  0  0
   -1.6846  114.8516   42.0310 H   0  0  0  0  0  0  0  0  0  0  0  0
    1.6016  114.3327   43.4346 H   0  0  0  0  0  0  0  0  0  0  0  0
   -0.4925  116.4517   44.0236 H   0  0  0  0  0  0  0  0  0  0  0  0
    1.1689  116.6011   44.3139 H   0  0  0  0  0  0  0  0  0  0  0  0
   -0.4289  115.8753   46.3088 H   0  0  0  0  0  0  0  0  0  0  0  0
    1.0796  115.0489   46.1696 H   0  0  0  0  0  0  0  0  0  0  0  0
   -1.3233  113.7168   43.5213 H   0  0  0  0  0  0  0  0  0  0  0  0
   -0.0062  112.6729   43.9344 H   0  0  0  0  0  0  0  0  0  0  0  0
    2.8459  111.1581   43.8881 H   0  0  0  0  0  0  0  0  0  0  0  0
    3.8313  110.1716   44.9339 H   0  0  0  0  0  0  0  0  0  0  0  0
    2.8074  108.4391   43.9348 H   0  0  0  0  0  0  0  0  0  0  0  0
    3.9183  108.8052   42.5894 H   0  0  0  0  0  0  0  0  0  0  0  0
    1.2565  108.5625   42.3339 H   0  0  0  0  0  0  0  0  0  0  0  0
    2.3415  109.5128   41.2733 H   0  0  0  0  0  0  0  0  0  0  0  0
    1.8027  111.4546   42.7862 H   0  0  0  0  0  0  0  0  0  0  0  0
    0.4370  110.4570   43.3197 H   0  0  0  0  0  0  0  0  0  0  0  0
   -1.5697  110.9059   42.2871 H   0  0  0  0  0  0  0  0  0  0  0  0
   -2.8312  111.5857   40.3164 H   0  0  0  0  0  0  0  0  0  0  0  0
    0.2020  111.1307   36.5152 H   0  0  0  0  0  0  0  0  0  0  0  0
    0.9919  112.5958   35.9955 H   0  0  0  0  0  0  0  0  0  0  0  0
   -1.4465  112.8289   35.8577 H   0  0  0  0  0  0  0  0  0  0  0  0
   -0.7832  113.9232   37.0565 H   0  0  0  0  0  0  0  0  0  0  0  0
   -2.3123  111.3946   37.4782 H   0  0  0  0  0  0  0  0  0  0  0  0
   -2.5987  113.0111   38.1435 H   0  0  0  0  0  0  0  0  0  0  0  0
  1  2  1  0
  2  3  1  0
  2 39  1  0
  2 40  1  0
  3  4  1  0
  3 41  1  0
  3 42  1  0
  4 23  1  0
  4  5  1  0
  4 43  1  6
  5  1  1  0
  5 44  1  0
  5 45  1  0
  6  7  1  0
  6  1  1  0
  6 46  1  6
  7  8  2  0
  8  9  1  0
  8 47  1  0
  9 10  1  0
  9 11  2  0
 11 12  1  0
 11 48  1  0
 12 13  2  0
 12 49  1  0
 13 14  1  0
 13  7  1  0
 14 15  1  0
 14 50  1  6
 15 16  1  0
 15 51  1  0
 15 52  1  0
 16 17  1  0
 16 53  1  0
 16 54  1  0
 17 18  1  0
 18 14  1  0
 18 55  1  0
 18 56  1  0
 19 20  2  0
 20 21  1  0
 20  6  1  0
 21 22  1  0
 23 24  1  0
 24 25  1  0
 24 57  1  0
 24 58  1  0
 25 26  1  0
 25 59  1  0
 25 60  1  0
 26 27  1  0
 26 61  1  0
 26 62  1  0
 27 28  1  0
 27 63  1  0
 27 64  1  0
 28 29  2  0
 29 30  1  0
 29 65  1  0
 30 31  2  0
 30 66  1  0
 31 32  1  0
 32 33  2  0
 32 34  1  0
 33 28  1  0
 34 35  1  0
 34 38  1  0
 35 36  1  0
 35 67  1  0
 35 68  1  0
 36 37  1  0
 36 69  1  0
 36 70  1  0
 37 31  1  0
 37 71  1  0
 37 72  1  0
M  END
>  <minimizedAffinity>  (3) 
-5.69801

>  <mol_id>  (3) 
37092

>  <source_index>  (3) 
2

>  <layer>  (3) 
L3

>  <uniprot>  (3) 
P05556

>  <paff>  (3) 
6.9585999999999997

>  <smiles>  (3) 
O=C(O)[C@H](c1cc(F)ccc1[C@H]1CCOC1)N1CC[C@@H](OCCCCc2ccc3c(n2)NCCC3)C1

$$$$
L3:P05556:48770
     RDKit          3D

 54 56  0  0  0  0  0  0  0  0999 V2000
    3.3676  110.6250   42.9480 C   0  0  0  0  0  0  0  0  0  0  0  0
    3.0489  109.6905   43.6746 O   0  0  0  0  0  0  0  0  0  0  0  0
    3.4822  110.5049   41.5785 N   0  0  0  0  0  0  0  0  0  0  0  0
    3.7751  111.3037   41.0315 H   0  0  0  0  0  0  0  0  0  0  0  0
    2.8710  114.5794   42.1080 N   0  0  0  0  0  0  0  0  0  0  0  0
    4.2670  114.2805   42.4593 C   0  0  0  0  0  0  0  0  0  0  0  0
    4.5550  112.7809   42.4404 C   0  0  0  0  0  0  0  0  0  0  0  0
    3.6984  112.0238   43.4678 C   0  0  0  0  0  0  0  0  0  0  0  0
    2.4280  112.8087   43.8285 C   0  0  0  0  0  0  0  0  0  0  0  0
    1.9090  113.5914   42.6235 C   0  0  0  0  0  0  0  0  0  0  0  0
    2.4897  115.9537   42.5000 C   0  0  0  0  0  0  0  0  0  0  0  0
    3.6439  117.2239   40.7525 O   0  0  0  0  0  0  0  0  0  0  0  0
    3.4466  116.9924   41.9364 C   0  0  0  0  0  0  0  0  0  0  0  0
    4.0784  117.7121   42.8862 O   0  0  0  0  0  0  0  0  0  0  0  0
    4.5964  118.3707   42.3800 H   0  0  0  0  0  0  0  0  0  0  0  0
    3.2052  109.2615   40.8876 C   0  0  0  0  0  0  0  0  0  0  0  0
    1.9527  109.3262   40.0169 C   0  0  0  0  0  0  0  0  0  0  0  0
    2.1411  110.2304   38.7978 C   0  0  0  0  0  0  0  0  0  0  0  0
    1.1444  111.3599   38.7862 C   0  0  0  0  0  0  0  0  0  0  0  0
   -0.2066  111.1092   38.5733 C   0  0  0  0  0  0  0  0  0  0  0  0
   -1.0919  112.1801   38.5859 C   0  0  0  0  0  0  0  0  0  0  0  0
   -0.6075  113.4669   38.8262 C   0  0  0  0  0  0  0  0  0  0  0  0
    0.7637  113.6316   39.0350 C   0  0  0  0  0  0  0  0  0  0  0  0
    1.6317  112.6033   39.0155 N   0  0  0  0  0  0  0  0  0  0  0  0
    1.3009  114.8791   39.3259 N   0  0  0  0  0  0  0  0  0  0  0  0
    0.5717  116.0194   38.8169 C   0  0  0  0  0  0  0  0  0  0  0  0
   -0.8731  115.9333   39.2959 C   0  0  0  0  0  0  0  0  0  0  0  0
   -1.5286  114.6557   38.7720 C   0  0  0  0  0  0  0  0  0  0  0  0
    2.3072  114.8468   39.2051 H   0  0  0  0  0  0  0  0  0  0  0  0
    4.4641  114.6575   43.4411 H   0  0  0  0  0  0  0  0  0  0  0  0
    4.8974  114.7466   41.7310 H   0  0  0  0  0  0  0  0  0  0  0  0
    5.5887  112.6236   42.6677 H   0  0  0  0  0  0  0  0  0  0  0  0
    4.3150  112.4077   41.4667 H   0  0  0  0  0  0  0  0  0  0  0  0
    4.2650  111.9208   44.3696 H   0  0  0  0  0  0  0  0  0  0  0  0
    2.6520  113.4927   44.6202 H   0  0  0  0  0  0  0  0  0  0  0  0
    1.6736  112.1148   44.1356 H   0  0  0  0  0  0  0  0  0  0  0  0
    1.0166  114.1061   42.9125 H   0  0  0  0  0  0  0  0  0  0  0  0
    1.7331  112.8841   41.8401 H   0  0  0  0  0  0  0  0  0  0  0  0
    1.5048  116.1567   42.1343 H   0  0  0  0  0  0  0  0  0  0  0  0
    2.5261  116.0153   43.5676 H   0  0  0  0  0  0  0  0  0  0  0  0
    3.0739  108.4890   41.6162 H   0  0  0  0  0  0  0  0  0  0  0  0
    4.0340  109.0648   40.2401 H   0  0  0  0  0  0  0  0  0  0  0  0
    1.1435  109.7056   40.6053 H   0  0  0  0  0  0  0  0  0  0  0  0
    1.7477  108.3374   39.6632 H   0  0  0  0  0  0  0  0  0  0  0  0
    2.0151  109.6469   37.9098 H   0  0  0  0  0  0  0  0  0  0  0  0
    3.1238  110.6515   38.8419 H   0  0  0  0  0  0  0  0  0  0  0  0
   -0.5447  110.1480   38.4094 H   0  0  0  0  0  0  0  0  0  0  0  0
   -2.0985  112.0254   38.4191 H   0  0  0  0  0  0  0  0  0  0  0  0
    0.5967  116.0138   37.7472 H   0  0  0  0  0  0  0  0  0  0  0  0
    1.0188  116.9244   39.1719 H   0  0  0  0  0  0  0  0  0  0  0  0
   -1.4159  116.7822   38.9357 H   0  0  0  0  0  0  0  0  0  0  0  0
   -0.8855  115.9183   40.3657 H   0  0  0  0  0  0  0  0  0  0  0  0
   -1.8238  114.8142   37.7558 H   0  0  0  0  0  0  0  0  0  0  0  0
   -2.3690  114.4427   39.3991 H   0  0  0  0  0  0  0  0  0  0  0  0
  1  2  2  0
  1  3  1  0
  3 16  1  0
  3  4  1  0
  5  6  1  0
  6  7  1  0
  6 30  1  0
  6 31  1  0
  7  8  1  0
  7 32  1  0
  7 33  1  0
  8  1  1  0
  8  9  1  0
  8 34  1  0
  9 10  1  0
  9 35  1  0
  9 36  1  0
 10  5  1  0
 10 37  1  0
 10 38  1  0
 11  5  1  0
 11 39  1  0
 11 40  1  0
 12 13  2  0
 13 14  1  0
 13 11  1  0
 14 15  1  0
 16 17  1  0
 16 41  1  0
 16 42  1  0
 17 18  1  0
 17 43  1  0
 17 44  1  0
 18 19  1  0
 18 45  1  0
 18 46  1  0
 19 20  2  0
 20 21  1  0
 20 47  1  0
 21 22  2  0
 21 48  1  0
 22 23  1  0
 23 24  2  0
 23 25  1  0
 24 19  1  0
 25 26  1  0
 25 29  1  0
 26 27  1  0
 26 49  1  0
 26 50  1  0
 27 28  1  0
 27 51  1  0
 27 52  1  0
 28 22  1  0
 28 53  1  0
 28 54  1  0
M  END
>  <minimizedAffinity>  (4) 
-5.76278

>  <mol_id>  (4) 
48770

>  <source_index>  (4) 
3

>  <layer>  (4) 
L3

>  <uniprot>  (4) 
P05556

>  <paff>  (4) 
6.1871

>  <smiles>  (4) 
O=C(O)CN1CCC(C(=O)NCCCc2ccc3c(n2)NCCC3)CC1

$$$$
L3:P05556:52854
     RDKit          3D

 75 79  0  0  0  0  0  0  0  0999 V2000
    4.0409  114.5042   42.4028 N   0  0  0  0  0  0  0  0  0  0  0  0
    3.8445  114.3603   43.8496 C   0  0  0  0  0  0  0  0  0  0  0  0
    4.6987  113.1471   44.1753 C   0  0  0  0  0  0  0  0  0  0  0  0
    4.4525  112.2088   42.9981 C   0  0  2  0  0  0  0  0  0  0  0  0
    3.9396  113.1298   41.8773 C   0  0  0  0  0  0  0  0  0  0  0  0
    3.0640  115.4406   41.7801 C   0  0  1  0  0  0  0  0  0  0  0  0
    1.6438  115.2754   42.3458 C   0  0  0  0  0  0  0  0  0  0  0  0
    1.4256  115.7993   43.6405 C   0  0  0  0  0  0  0  0  0  0  0  0
    0.1844  115.7014   44.2508 C   0  0  0  0  0  0  0  0  0  0  0  0
    0.0086  116.2068   45.4783 F   0  0  0  0  0  0  0  0  0  0  0  0
   -0.8710  115.0874   43.6052 C   0  0  0  0  0  0  0  0  0  0  0  0
   -0.6809  114.5618   42.3265 C   0  0  0  0  0  0  0  0  0  0  0  0
    0.5651  114.6361   41.6677 C   0  0  0  0  0  0  0  0  0  0  0  0
    0.7131  114.0444   40.2609 C   0  0  0  0  0  0  0  0  0  0  0  0
   -0.1585  112.7998   40.0155 C   0  0  0  0  0  0  0  0  0  0  0  0
   -1.5128  113.0986   39.3889 C   0  0  0  0  0  0  0  0  0  0  0  0
   -1.3806  113.9502   38.2554 O   0  0  0  0  0  0  0  0  0  0  0  0
   -0.8410  115.2242   38.5975 C   0  0  0  0  0  0  0  0  0  0  0  0
    0.5739  115.0884   39.1400 C   0  0  0  0  0  0  0  0  0  0  0  0
    3.7037  117.6142   42.8459 O   0  0  0  0  0  0  0  0  0  0  0  0
    3.4985  116.9256   41.8577 C   0  0  0  0  0  0  0  0  0  0  0  0
    3.6791  117.4744   40.6304 O   0  0  0  0  0  0  0  0  0  0  0  0
    3.9357  118.3989   40.8292 H   0  0  0  0  0  0  0  0  0  0  0  0
    3.4282  111.2613   43.3177 O   0  0  0  0  0  0  0  0  0  0  0  0
    2.2660  111.4057   42.5017 C   0  0  0  0  0  0  0  0  0  0  0  0
    1.0302  111.3449   43.3939 C   0  0  0  0  0  0  0  0  0  0  0  0
    1.3701  111.6309   44.8592 C   0  0  0  0  0  0  0  0  0  0  0  0
    0.1553  112.1739   45.6138 C   0  0  0  0  0  0  0  0  0  0  0  0
    0.5630  113.1642   46.6739 C   0  0  0  0  0  0  0  0  0  0  0  0
   -0.3705  113.6534   47.5814 C   0  0  0  0  0  0  0  0  0  0  0  0
    0.0435  114.5846   48.5260 C   0  0  0  0  0  0  0  0  0  0  0  0
    1.3720  115.0125   48.5297 C   0  0  0  0  0  0  0  0  0  0  0  0
    2.2453  114.4730   47.5825 C   0  0  0  0  0  0  0  0  0  0  0  0
    1.8573  113.5655   46.6678 N   0  0  0  0  0  0  0  0  0  0  0  0
    3.5679  114.8909   47.5047 N   0  0  0  0  0  0  0  0  0  0  0  0
    4.1521  115.3780   48.7348 C   0  0  0  0  0  0  0  0  0  0  0  0
    3.2716  116.4940   49.2872 C   0  0  0  0  0  0  0  0  0  0  0  0
    1.8694  115.9624   49.5859 C   0  0  0  0  0  0  0  0  0  0  0  0
    4.0927  114.2297   46.9415 H   0  0  0  0  0  0  0  0  0  0  0  0
    2.8157  114.1839   44.0850 H   0  0  0  0  0  0  0  0  0  0  0  0
    4.1123  115.2338   44.4065 H   0  0  0  0  0  0  0  0  0  0  0  0
    4.3876  112.6965   45.0946 H   0  0  0  0  0  0  0  0  0  0  0  0
    5.7328  113.3893   44.3048 H   0  0  0  0  0  0  0  0  0  0  0  0
    5.3330  111.6614   42.7336 H   0  0  0  0  0  0  0  0  0  0  0  0
    2.9226  112.8963   41.6403 H   0  0  0  0  0  0  0  0  0  0  0  0
    4.5098  113.0102   40.9798 H   0  0  0  0  0  0  0  0  0  0  0  0
    3.0484  115.1654   40.7462 H   0  0  0  0  0  0  0  0  0  0  0  0
    2.2019  116.2617   44.1390 H   0  0  0  0  0  0  0  0  0  0  0  0
   -1.7925  115.0179   44.0646 H   0  0  0  0  0  0  0  0  0  0  0  0
   -1.4740  114.1058   41.8490 H   0  0  0  0  0  0  0  0  0  0  0  0
    1.7255  113.7003   40.2215 H   0  0  0  0  0  0  0  0  0  0  0  0
   -0.3234  112.3153   40.9552 H   0  0  0  0  0  0  0  0  0  0  0  0
    0.3730  112.1854   39.3191 H   0  0  0  0  0  0  0  0  0  0  0  0
   -2.1348  113.5787   40.1152 H   0  0  0  0  0  0  0  0  0  0  0  0
   -1.9487  112.1752   39.0692 H   0  0  0  0  0  0  0  0  0  0  0  0
   -1.4599  115.6776   39.3434 H   0  0  0  0  0  0  0  0  0  0  0  0
   -0.8118  115.8302   37.7161 H   0  0  0  0  0  0  0  0  0  0  0  0
    0.8801  116.0388   39.5246 H   0  0  0  0  0  0  0  0  0  0  0  0
    1.1876  114.7571   38.3285 H   0  0  0  0  0  0  0  0  0  0  0  0
    2.2303  110.6139   41.7829 H   0  0  0  0  0  0  0  0  0  0  0  0
    2.2972  112.3427   41.9861 H   0  0  0  0  0  0  0  0  0  0  0  0
    0.5998  110.3679   43.3228 H   0  0  0  0  0  0  0  0  0  0  0  0
    0.3428  112.0940   43.0603 H   0  0  0  0  0  0  0  0  0  0  0  0
    2.1579  112.3538   44.8999 H   0  0  0  0  0  0  0  0  0  0  0  0
    1.6739  110.7149   45.3212 H   0  0  0  0  0  0  0  0  0  0  0  0
   -0.3587  111.3586   46.0785 H   0  0  0  0  0  0  0  0  0  0  0  0
   -0.4801  112.6739   44.9130 H   0  0  0  0  0  0  0  0  0  0  0  0
   -1.3506  113.3314   47.5538 H   0  0  0  0  0  0  0  0  0  0  0  0
   -0.6252  114.9564   49.2185 H   0  0  0  0  0  0  0  0  0  0  0  0
    5.1341  115.7566   48.5416 H   0  0  0  0  0  0  0  0  0  0  0  0
    4.2197  114.5816   49.4462 H   0  0  0  0  0  0  0  0  0  0  0  0
    3.2047  117.2812   48.5656 H   0  0  0  0  0  0  0  0  0  0  0  0
    3.7047  116.8641   50.1930 H   0  0  0  0  0  0  0  0  0  0  0  0
    1.1948  116.7908   49.6466 H   0  0  0  0  0  0  0  0  0  0  0  0
    1.9176  115.4234   50.5090 H   0  0  0  0  0  0  0  0  0  0  0  0
  1  2  1  0
  2  3  1  0
  2 40  1  0
  2 41  1  0
  3  4  1  0
  3 42  1  0
  3 43  1  0
  4 24  1  0
  4  5  1  0
  4 44  1  6
  5  1  1  0
  5 45  1  0
  5 46  1  0
  6  7  1  0
  6  1  1  0
  6 47  1  6
  7  8  2  0
  8  9  1  0
  8 48  1  0
  9 10  1  0
  9 11  2  0
 11 12  1  0
 11 49  1  0
 12 13  2  0
 12 50  1  0
 13 14  1  0
 13  7  1  0
 14 15  1  0
 14 51  1  0
 15 16  1  0
 15 52  1  0
 15 53  1  0
 16 17  1  0
 16 54  1  0
 16 55  1  0
 17 18  1  0
 18 19  1  0
 18 56  1  0
 18 57  1  0
 19 14  1  0
 19 58  1  0
 19 59  1  0
 20 21  2  0
 21 22  1  0
 21  6  1  0
 22 23  1  0
 24 25  1  0
 25 26  1  0
 25 60  1  0
 25 61  1  0
 26 27  1  0
 26 62  1  0
 26 63  1  0
 27 28  1  0
 27 64  1  0
 27 65  1  0
 28 29  1  0
 28 66  1  0
 28 67  1  0
 29 30  2  0
 30 31  1  0
 30 68  1  0
 31 32  2  0
 31 69  1  0
 32 33  1  0
 33 34  2  0
 33 35  1  0
 34 29  1  0
 35 36  1  0
 35 39  1  0
 36 37  1  0
 36 70  1  0
 36 71  1  0
 37 38  1  0
 37 72  1  0
 37 73  1  0
 38 32  1  0
 38 74  1  0
 38 75  1  0
M  END
>  <minimizedAffinity>  (5) 
-5.83541

>  <mol_id>  (5) 
52854

>  <source_index>  (5) 
4

>  <layer>  (5) 
L3

>  <uniprot>  (5) 
P05556

>  <paff>  (5) 
6.9207999999999998

>  <smiles>  (5) 
O=C(O)[C@H](c1cc(F)ccc1C1CCOCC1)N1CC[C@@H](OCCCCc2ccc3c(n2)NCCC3)C1

$$$$
L3:P05556:84044
     RDKit          3D

 72 76  0  0  0  0  0  0  0  0999 V2000
    3.5068  114.0761   41.8780 N   0  0  0  0  0  0  0  0  0  0  0  0
    2.3576  113.5712   41.1161 C   0  0  0  0  0  0  0  0  0  0  0  0
    1.8070  112.3819   41.8799 C   0  0  0  0  0  0  0  0  0  0  0  0
    3.0263  111.7734   42.5456 C   0  0  2  0  0  0  0  0  0  0  0  0
    4.0474  112.9188   42.6252 C   0  0  0  0  0  0  0  0  0  0  0  0
    3.2584  115.2616   42.7516 C   0  0  1  0  0  0  0  0  0  0  0  0
    3.7598  115.1444   44.2095 C   0  0  0  0  0  0  0  0  0  0  0  0
    5.0983  115.4682   44.5260 C   0  0  0  0  0  0  0  0  0  0  0  0
    5.5816  115.3746   45.8254 C   0  0  0  0  0  0  0  0  0  0  0  0
    6.8555  115.6960   46.0834 F   0  0  0  0  0  0  0  0  0  0  0  0
    4.7654  114.9476   46.8537 C   0  0  0  0  0  0  0  0  0  0  0  0
    3.4452  114.6005   46.5749 C   0  0  0  0  0  0  0  0  0  0  0  0
    2.9164  114.6756   45.2660 C   0  0  0  0  0  0  0  0  0  0  0  0
    1.4670  114.2378   45.0235 C   0  0  2  0  0  0  0  0  0  0  0  0
    0.5083  115.4090   44.8762 C   0  0  0  0  0  0  0  0  0  0  0  0
   -0.0155  115.6325   46.2805 C   0  0  0  0  0  0  0  0  0  0  0  0
    0.1068  114.3934   46.9919 O   0  0  0  0  0  0  0  0  0  0  0  0
    0.8098  113.4552   46.1629 C   0  0  0  0  0  0  0  0  0  0  0  0
    3.5704  117.6918   42.5657 O   0  0  0  0  0  0  0  0  0  0  0  0
    3.6558  116.5778   42.0641 C   0  0  0  0  0  0  0  0  0  0  0  0
    4.0599  116.4531   40.7826 O   0  0  0  0  0  0  0  0  0  0  0  0
    4.2283  117.3676   40.4796 H   0  0  0  0  0  0  0  0  0  0  0  0
    3.5193  110.7172   41.7122 O   0  0  0  0  0  0  0  0  0  0  0  0
    2.4745  109.9210   41.1485 C   0  0  0  0  0  0  0  0  0  0  0  0
    2.7219  109.6965   39.6565 C   0  0  0  0  0  0  0  0  0  0  0  0
    1.4902  109.0963   38.9678 C   0  0  0  0  0  0  0  0  0  0  0  0
    0.8949  110.0071   37.8919 C   0  0  0  0  0  0  0  0  0  0  0  0
    0.3101  111.2949   38.4084 C   0  0  0  0  0  0  0  0  0  0  0  0
   -0.7442  111.2853   39.3161 C   0  0  0  0  0  0  0  0  0  0  0  0
   -1.2645  112.5009   39.7420 C   0  0  0  0  0  0  0  0  0  0  0  0
   -0.7317  113.6904   39.2388 C   0  0  0  0  0  0  0  0  0  0  0  0
    0.3287  113.6126   38.3338 C   0  0  0  0  0  0  0  0  0  0  0  0
    0.8505  112.4426   37.9250 N   0  0  0  0  0  0  0  0  0  0  0  0
    0.8687  114.7579   37.7614 N   0  0  0  0  0  0  0  0  0  0  0  0
    0.7749  115.9630   38.5553 C   0  0  0  0  0  0  0  0  0  0  0  0
   -0.6889  116.1993   38.9095 C   0  0  0  0  0  0  0  0  0  0  0  0
   -1.2410  115.0237   39.7184 C   0  0  0  0  0  0  0  0  0  0  0  0
    1.7517  114.5339   37.3112 H   0  0  0  0  0  0  0  0  0  0  0  0
    2.6695  113.2677   40.1386 H   0  0  0  0  0  0  0  0  0  0  0  0
    1.6120  114.3301   41.0020 H   0  0  0  0  0  0  0  0  0  0  0  0
    1.3488  111.6814   41.2133 H   0  0  0  0  0  0  0  0  0  0  0  0
    1.0507  112.6602   42.5838 H   0  0  0  0  0  0  0  0  0  0  0  0
    2.8219  111.3644   43.5130 H   0  0  0  0  0  0  0  0  0  0  0  0
    4.9742  112.6081   42.1900 H   0  0  0  0  0  0  0  0  0  0  0  0
    4.2209  113.1877   43.6462 H   0  0  0  0  0  0  0  0  0  0  0  0
    2.1961  115.2806   42.8782 H   0  0  0  0  0  0  0  0  0  0  0  0
    5.7320  115.7817   43.7742 H   0  0  0  0  0  0  0  0  0  0  0  0
    5.1289  114.8862   47.8176 H   0  0  0  0  0  0  0  0  0  0  0  0
    2.8370  114.2800   47.3446 H   0  0  0  0  0  0  0  0  0  0  0  0
    1.5922  113.6429   44.1430 H   0  0  0  0  0  0  0  0  0  0  0  0
   -0.2900  115.1652   44.2068 H   0  0  0  0  0  0  0  0  0  0  0  0
    0.9801  116.2789   44.4692 H   0  0  0  0  0  0  0  0  0  0  0  0
   -1.0420  115.9321   46.2435 H   0  0  0  0  0  0  0  0  0  0  0  0
    0.5414  116.4035   46.7707 H   0  0  0  0  0  0  0  0  0  0  0  0
    0.1241  112.7375   45.7633 H   0  0  0  0  0  0  0  0  0  0  0  0
    1.5498  112.9338   46.7334 H   0  0  0  0  0  0  0  0  0  0  0  0
    1.5388  110.4233   41.2791 H   0  0  0  0  0  0  0  0  0  0  0  0
    2.4548  108.9727   41.6438 H   0  0  0  0  0  0  0  0  0  0  0  0
    3.5478  109.0267   39.5377 H   0  0  0  0  0  0  0  0  0  0  0  0
    2.9319  110.6433   39.2044 H   0  0  0  0  0  0  0  0  0  0  0  0
    0.7416  108.9130   39.7100 H   0  0  0  0  0  0  0  0  0  0  0  0
    1.8053  108.1963   38.4825 H   0  0  0  0  0  0  0  0  0  0  0  0
    0.1195  109.4669   37.3901 H   0  0  0  0  0  0  0  0  0  0  0  0
    1.7038  110.2806   37.2471 H   0  0  0  0  0  0  0  0  0  0  0  0
   -1.1312  110.3947   39.6654 H   0  0  0  0  0  0  0  0  0  0  0  0
   -2.0382  112.5251   40.4245 H   0  0  0  0  0  0  0  0  0  0  0  0
    1.1488  116.7941   37.9946 H   0  0  0  0  0  0  0  0  0  0  0  0
    1.3548  115.8585   39.4484 H   0  0  0  0  0  0  0  0  0  0  0  0
   -1.2566  116.3044   38.0086 H   0  0  0  0  0  0  0  0  0  0  0  0
   -0.7631  117.0897   39.4982 H   0  0  0  0  0  0  0  0  0  0  0  0
   -2.3083  115.0286   39.6425 H   0  0  0  0  0  0  0  0  0  0  0  0
   -0.9125  115.1476   40.7292 H   0  0  0  0  0  0  0  0  0  0  0  0
  1  2  1  0
  2  3  1  0
  2 39  1  0
  2 40  1  0
  3  4  1  0
  3 41  1  0
  3 42  1  0
  4 23  1  0
  4  5  1  0
  4 43  1  1
  5  1  1  0
  5 44  1  0
  5 45  1  0
  6  7  1  0
  6  1  1  0
  6 46  1  1
  7  8  2  0
  8  9  1  0
  8 47  1  0
  9 10  1  0
  9 11  2  0
 11 12  1  0
 11 48  1  0
 12 13  2  0
 12 49  1  0
 13 14  1  0
 13  7  1  0
 14 15  1  0
 14 50  1  6
 15 16  1  0
 15 51  1  0
 15 52  1  0
 16 17  1  0
 16 53  1  0
 16 54  1  0
 17 18  1  0
 18 14  1  0
 18 55  1  0
 18 56  1  0
 19 20  2  0
 20 21  1  0
 20  6  1  0
 21 22  1  0
 23 24  1  0
 24 25  1  0
 24 57  1  0
 24 58  1  0
 25 26  1  0
 25 59  1  0
 25 60  1  0
 26 27  1  0
 26 61  1  0
 26 62  1  0
 27 28  1  0
 27 63  1  0
 27 64  1  0
 28 29  2  0
 29 30  1  0
 29 65  1  0
 30 31  2  0
 30 66  1  0
 31 32  1  0
 32 33  2  0
 32 34  1  0
 33 28  1  0
 34 35  1  0
 34 38  1  0
 35 36  1  0
 35 67  1  0
 35 68  1  0
 36 37  1  0
 36 69  1  0
 36 70  1  0
 37 31  1  0
 37 71  1  0
 37 72  1  0
M  END
>  <minimizedAffinity>  (6) 
-6.40043

>  <mol_id>  (6) 
84044

>  <source_index>  (6) 
5

>  <layer>  (6) 
L3

>  <uniprot>  (6) 
P05556

>  <paff>  (6) 
6.7695999999999996

>  <smiles>  (6) 
O=C(O)[C@H](c1cc(F)ccc1[C@@H]1CCOC1)N1CC[C@@H](OCCCCc2ccc3c(n2)NCCC3)C1

$$$$
L3:P05556:91140
     RDKit          3D

 82 83  0  0  0  0  0  0  0  0999 V2000
   -1.5088  115.2236   47.2847 C   0  0  1  0  0  0  0  0  0  0  0  0
   -0.0123  115.5372   47.5994 C   0  0  0  0  0  0  0  0  0  0  0  0
    0.3312  116.4972   48.2886 O   0  0  0  0  0  0  0  0  0  0  0  0
    0.8970  114.6199   47.1210 N   0  0  0  0  0  0  0  0  0  0  0  0
    2.3260  114.8950   47.0642 C   0  0  2  0  0  0  0  0  0  0  0  0
    2.8680  114.0759   45.8732 C   0  0  0  0  0  0  0  0  0  0  0  0
    2.4147  112.9699   45.5828 O   0  0  0  0  0  0  0  0  0  0  0  0
    3.8794  114.6786   45.1519 N   0  0  0  0  0  0  0  0  0  0  0  0
    4.8086  113.8501   44.3986 C   0  0  0  0  0  0  0  0  0  0  0  0
    4.3768  113.0302   43.1725 C   0  0  0  0  0  0  0  0  0  0  0  0
    4.9053  111.9337   42.9561 O   0  0  0  0  0  0  0  0  0  0  0  0
    3.5990  113.5447   42.1781 N   0  0  0  0  0  0  0  0  0  0  0  0
    2.6037  114.6131   42.2458 C   0  0  2  0  0  0  0  0  0  0  0  0
    1.2305  113.9473   42.4278 C   0  0  0  0  0  0  0  0  0  0  0  0
    0.9853  112.8047   42.0475 O   0  0  0  0  0  0  0  0  0  0  0  0
    0.2771  114.7522   43.0017 N   0  0  0  0  0  0  0  0  0  0  0  0
   -0.9320  114.1798   43.5997 C   0  0  1  0  0  0  0  0  0  0  0  0
   -1.1819  115.0230   44.8670 C   0  0  0  0  0  0  0  0  0  0  0  0
   -0.8798  116.2247   44.8615 O   0  0  0  0  0  0  0  0  0  0  0  0
   -1.6341  114.3983   46.0361 N   0  0  0  0  0  0  0  0  0  0  0  0
   -1.9562  112.9757   46.1047 C   0  0  0  0  0  0  0  0  0  0  0  0
    0.5643  113.8335   46.5748 H   0  0  0  0  0  0  0  0  0  0  0  0
    4.2781  115.5180   45.5506 H   0  0  0  0  0  0  0  0  0  0  0  0
    3.3760  112.8052   41.5155 H   0  0  0  0  0  0  0  0  0  0  0  0
    0.5140  115.6862   43.3272 H   0  0  0  0  0  0  0  0  0  0  0  0
   -3.0028  115.8489   49.2498 C   0  0  0  0  0  0  0  0  0  0  0  0
   -2.2708  114.7047   48.5336 C   0  0  0  0  0  0  0  0  0  0  0  0
   -1.3869  113.9722   49.5510 C   0  0  0  0  0  0  0  0  0  0  0  0
    3.0127  114.4926   48.3724 C   0  0  0  0  0  0  0  0  0  0  0  0
    4.0138  115.5424   48.8704 C   0  0  0  0  0  0  0  0  0  0  0  0
    5.4076  115.3387   48.2751 C   0  0  0  0  0  0  0  0  0  0  0  0
    5.5976  116.2133   47.1256 N   0  0  0  0  0  0  0  0  0  0  0  0
    6.7311  116.2959   46.5436 C   0  0  0  0  0  0  0  0  0  0  0  0
    7.9060  115.6817   46.8067 N   0  0  0  0  0  0  0  0  0  0  0  0
    6.8799  117.1298   45.4913 N   0  0  0  0  0  0  0  0  0  0  0  0
    8.4098  115.4545   45.9548 H   0  0  0  0  0  0  0  0  0  0  0  0
    7.8313  114.8672   47.3992 H   0  0  0  0  0  0  0  0  0  0  0  0
    6.0432  117.6975   45.3928 H   0  0  0  0  0  0  0  0  0  0  0  0
    7.6918  117.7252   45.5891 H   0  0  0  0  0  0  0  0  0  0  0  0
    2.5849  115.4431   40.9639 C   0  0  0  0  0  0  0  0  0  0  0  0
    3.2026  116.7909   41.1957 C   0  0  0  0  0  0  0  0  0  0  0  0
    3.8423  117.4613   40.4028 O   0  0  0  0  0  0  0  0  0  0  0  0
    2.9968  117.2266   42.4540 O   0  0  0  0  0  0  0  0  0  0  0  0
    3.4404  118.1001   42.4910 H   0  0  0  0  0  0  0  0  0  0  0  0
   -2.1323  114.1176   42.6490 C   0  0  0  0  0  0  0  0  0  0  0  0
   -1.7952  114.1615   41.1758 C   0  0  0  0  0  0  0  0  0  0  0  0
   -1.6688  112.9739   40.4411 C   0  0  0  0  0  0  0  0  0  0  0  0
   -1.3664  113.0125   39.0796 C   0  0  0  0  0  0  0  0  0  0  0  0
   -1.1880  114.2370   38.4372 C   0  0  0  0  0  0  0  0  0  0  0  0
   -1.3125  115.4253   39.1562 C   0  0  0  0  0  0  0  0  0  0  0  0
   -1.6136  115.3884   40.5195 C   0  0  0  0  0  0  0  0  0  0  0  0
   -2.0210  116.1337   47.0517 H   0  0  0  0  0  0  0  0  0  0  0  0
    2.5192  115.9394   46.9347 H   0  0  0  0  0  0  0  0  0  0  0  0
    5.2147  113.1486   45.0971 H   0  0  0  0  0  0  0  0  0  0  0  0
    5.4488  114.5848   43.9567 H   0  0  0  0  0  0  0  0  0  0  0  0
    2.8414  115.2692   43.0569 H   0  0  0  0  0  0  0  0  0  0  0  0
   -0.7935  113.1460   43.8383 H   0  0  0  0  0  0  0  0  0  0  0  0
   -1.9995  112.5717   45.1149 H   0  0  0  0  0  0  0  0  0  0  0  0
   -2.9042  112.8474   46.5841 H   0  0  0  0  0  0  0  0  0  0  0  0
   -1.2010  112.4657   46.6654 H   0  0  0  0  0  0  0  0  0  0  0  0
   -3.5180  115.4630   50.1045 H   0  0  0  0  0  0  0  0  0  0  0  0
   -3.7077  116.2958   48.5802 H   0  0  0  0  0  0  0  0  0  0  0  0
   -2.2928  116.5853   49.5637 H   0  0  0  0  0  0  0  0  0  0  0  0
   -2.9699  113.9920   48.1486 H   0  0  0  0  0  0  0  0  0  0  0  0
   -0.6719  114.6555   49.9595 H   0  0  0  0  0  0  0  0  0  0  0  0
   -0.8747  113.1683   49.0649 H   0  0  0  0  0  0  0  0  0  0  0  0
   -1.9975  113.5819   50.3382 H   0  0  0  0  0  0  0  0  0  0  0  0
    3.5343  113.5717   48.2146 H   0  0  0  0  0  0  0  0  0  0  0  0
    2.2511  114.3972   49.1179 H   0  0  0  0  0  0  0  0  0  0  0  0
    4.0812  115.4762   49.9362 H   0  0  0  0  0  0  0  0  0  0  0  0
    3.6619  116.5046   48.5618 H   0  0  0  0  0  0  0  0  0  0  0  0
    5.5140  114.3201   47.9653 H   0  0  0  0  0  0  0  0  0  0  0  0
    6.1416  115.5739   49.0173 H   0  0  0  0  0  0  0  0  0  0  0  0
    1.5722  115.5713   40.6433 H   0  0  0  0  0  0  0  0  0  0  0  0
    3.1497  114.9302   40.2136 H   0  0  0  0  0  0  0  0  0  0  0  0
   -2.7695  114.9491   42.8668 H   0  0  0  0  0  0  0  0  0  0  0  0
   -2.5934  113.1669   42.8179 H   0  0  0  0  0  0  0  0  0  0  0  0
   -1.8004  112.0645   40.9109 H   0  0  0  0  0  0  0  0  0  0  0  0
   -1.2746  112.1332   38.5472 H   0  0  0  0  0  0  0  0  0  0  0  0
   -0.9639  114.2639   37.4302 H   0  0  0  0  0  0  0  0  0  0  0  0
   -1.1821  116.3320   38.6809 H   0  0  0  0  0  0  0  0  0  0  0  0
   -1.7032  116.2701   41.0482 H   0  0  0  0  0  0  0  0  0  0  0  0
  1  2  1  0
  1 52  1  6
  2  3  2  0
  2  4  1  0
  4  5  1  0
  4 22  1  0
  5 29  1  0
  5  6  1  0
  5 53  1  6
  6  7  2  0
  6  8  1  0
  8  9  1  0
  8 23  1  0
  9 10  1  0
  9 54  1  0
  9 55  1  0
 10 11  2  0
 10 12  1  0
 12 13  1  0
 12 24  1  0
 13 40  1  0
 13 14  1  0
 13 56  1  1
 14 15  2  0
 14 16  1  0
 16 17  1  0
 16 25  1  0
 17 45  1  0
 17 18  1  0
 17 57  1  1
 18 19  2  0
 18 20  1  0
 20 21  1  0
 20  1  1  0
 21 58  1  0
 21 59  1  0
 21 60  1  0
 26 27  1  0
 26 61  1  0
 26 62  1  0
 26 63  1  0
 27 28  1  0
 27  1  1  0
 27 64  1  0
 28 65  1  0
 28 66  1  0
 28 67  1  0
 29 30  1  0
 29 68  1  0
 29 69  1  0
 30 31  1  0
 30 70  1  0
 30 71  1  0
 31 32  1  0
 31 72  1  0
 31 73  1  0
 32 33  2  0
 33 34  1  0
 33 35  1  0
 34 36  1  0
 34 37  1  0
 35 38  1  0
 35 39  1  0
 40 41  1  0
 40 74  1  0
 40 75  1  0
 41 42  2  0
 41 43  1  0
 43 44  1  0
 45 46  1  0
 45 76  1  0
 45 77  1  0
 46 47  2  0
 47 48  1  0
 47 78  1  0
 48 49  2  0
 48 79  1  0
 49 50  1  0
 49 80  1  0
 50 51  2  0
 50 81  1  0
 51 46  1  0
 51 82  1  0
M  END
>  <minimizedAffinity>  (7) 
-7.15175

>  <mol_id>  (7) 
91140

>  <source_index>  (7) 
6

>  <layer>  (7) 
L3

>  <uniprot>  (7) 
P05556

>  <paff>  (7) 
7.8268000000000004

>  <smiles>  (7) 
CC(C)[C@H]1C(=O)N[C@@H](CCCN=C(N)N)C(=O)NCC(=O)N[C@@H](CC(=O)O)C(=O)N[C@H](Cc2ccccc2)C(=O)N1C

$$$$
L3:P05556:92903
     RDKit          3D

150153  0  0  0  0  0  0  0  0999 V2000
   -5.1017  115.9288   45.3940 C   0  0  2  0  0  0  0  0  0  0  0  0
   -4.8678  116.7361   46.5915 N   0  0  0  0  0  0  0  0  0  0  0  0
   -4.6682  116.1187   47.8190 C   0  0  0  0  0  0  0  0  0  0  0  0
   -5.2850  115.1049   48.1367 O   0  0  0  0  0  0  0  0  0  0  0  0
   -3.4824  116.6513   48.6773 C   0  0  1  0  0  0  0  0  0  0  0  0
   -2.2736  116.0125   48.1448 N   0  0  0  0  0  0  0  0  0  0  0  0
   -1.0877  115.7250   48.7428 C   0  0  0  0  0  0  0  0  0  0  0  0
   -0.1955  115.2081   48.0671 O   0  0  0  0  0  0  0  0  0  0  0  0
   -0.9389  116.0102   50.2386 C   0  0  0  0  0  0  0  0  0  0  0  0
    0.4523  115.8759   50.6470 N   0  0  0  0  0  0  0  0  0  0  0  0
    1.3606  116.8443   50.2514 C   0  0  0  0  0  0  0  0  0  0  0  0
    1.0082  117.8317   49.6060 O   0  0  0  0  0  0  0  0  0  0  0  0
    2.8322  116.4778   50.5297 C   0  0  1  0  0  0  0  0  0  0  0  0
    3.4319  115.8437   49.3524 N   0  0  0  0  0  0  0  0  0  0  0  0
    3.1762  114.4962   49.1333 C   0  0  0  0  0  0  0  0  0  0  0  0
    2.3923  113.8734   49.8478 O   0  0  0  0  0  0  0  0  0  0  0  0
    4.0460  113.7843   48.0718 C   0  0  1  0  0  0  0  0  0  0  0  0
    3.8754  114.2948   46.6940 N   0  0  0  0  0  0  0  0  0  0  0  0
    4.2997  113.4778   45.6631 C   0  0  0  0  0  0  0  0  0  0  0  0
    4.7947  112.3688   45.8926 O   0  0  0  0  0  0  0  0  0  0  0  0
    4.2902  113.9969   44.1943 C   0  0  1  0  0  0  0  0  0  0  0  0
    3.8954  112.8929   43.2709 N   0  0  0  0  0  0  0  0  0  0  0  0
    4.9503  111.9325   42.9619 C   0  0  0  0  0  0  0  0  0  0  0  0
    2.5592  112.6501   42.9704 C   0  0  0  0  0  0  0  0  0  0  0  0
    1.6583  113.4460   43.2606 O   0  0  0  0  0  0  0  0  0  0  0  0
    2.2111  111.2966   42.2929 C   0  0  1  0  0  0  0  0  0  0  0  0
    2.1510  110.1791   43.3344 C   0  0  0  0  0  0  0  0  0  0  0  0
    0.6633  109.8690   43.4942 C   0  0  0  0  0  0  0  0  0  0  0  0
    0.0472  110.2788   42.1764 C   0  0  0  0  0  0  0  0  0  0  0  0
    0.8794  111.3737   41.7177 N   0  0  0  0  0  0  0  0  0  0  0  0
    0.6957  112.0068   40.4928 C   0  0  0  0  0  0  0  0  0  0  0  0
    1.6388  112.2190   39.7315 O   0  0  0  0  0  0  0  0  0  0  0  0
   -0.7353  112.5677   40.2759 C   0  0  1  0  0  0  0  0  0  0  0  0
   -0.9839  113.3550   41.4941 N   0  0  0  0  0  0  0  0  0  0  0  0
   -2.1748  113.9495   41.8372 C   0  0  0  0  0  0  0  0  0  0  0  0
   -3.0298  114.2984   41.0278 O   0  0  0  0  0  0  0  0  0  0  0  0
   -2.3071  114.2300   43.3383 C   0  0  2  0  0  0  0  0  0  0  0  0
   -2.1360  112.9435   44.1575 C   0  0  0  0  0  0  0  0  0  0  0  0
   -3.5932  114.8301   43.6894 N   0  0  0  0  0  0  0  0  0  0  0  0
   -3.6969  115.5474   44.8576 C   0  0  0  0  0  0  0  0  0  0  0  0
   -2.6867  115.7903   45.5213 O   0  0  0  0  0  0  0  0  0  0  0  0
   -4.3719  117.6084   46.4153 H   0  0  0  0  0  0  0  0  0  0  0  0
   -2.2660  115.8160   47.1389 H   0  0  0  0  0  0  0  0  0  0  0  0
    0.8130  114.9200   50.7268 H   0  0  0  0  0  0  0  0  0  0  0  0
    3.7077  116.4129   48.5631 H   0  0  0  0  0  0  0  0  0  0  0  0
    3.0581  114.8659   46.5067 H   0  0  0  0  0  0  0  0  0  0  0  0
   -0.2277  113.3457   42.1845 H   0  0  0  0  0  0  0  0  0  0  0  0
   -4.2885  114.8989   42.9395 H   0  0  0  0  0  0  0  0  0  0  0  0
    3.6758  117.6039   51.1398 C   0  0  0  0  0  0  0  0  0  0  0  0
    3.2505  118.2780   52.4420 C   0  0  0  0  0  0  0  0  0  0  0  0
    2.9827  119.7725   52.3478 C   0  0  0  0  0  0  0  0  0  0  0  0
    1.5756  119.9997   51.9768 N   0  0  0  0  0  0  0  0  0  0  0  0
    1.0485  119.1418   52.0201 H   0  0  0  0  0  0  0  0  0  0  0  0
    1.2725  120.7147   50.8681 C   0  0  0  0  0  0  0  0  0  0  0  0
    2.3604  121.3625   50.3920 N   0  0  0  0  0  0  0  0  0  0  0  0
    0.1160  120.7927   50.3193 N   0  0  0  0  0  0  0  0  0  0  0  0
    3.1834  120.7702   50.4065 H   0  0  0  0  0  0  0  0  0  0  0  0
    2.2296  121.7635   49.4719 H   0  0  0  0  0  0  0  0  0  0  0  0
    0.1497  121.4080   49.5109 H   0  0  0  0  0  0  0  0  0  0  0  0
    5.5431  113.8555   48.4918 C   0  0  0  0  0  0  0  0  0  0  0  0
    6.0813  112.6461   49.2254 C   0  0  0  0  0  0  0  0  0  0  0  0
    5.3534  111.4609   49.3037 C   0  0  0  0  0  0  0  0  0  0  0  0
    5.8444  110.3602   50.0206 C   0  0  0  0  0  0  0  0  0  0  0  0
    7.0803  110.4434   50.6563 C   0  0  0  0  0  0  0  0  0  0  0  0
    7.8332  111.6089   50.5579 C   0  0  0  0  0  0  0  0  0  0  0  0
    7.3387  112.7128   49.8447 C   0  0  0  0  0  0  0  0  0  0  0  0
   -3.3504  118.1678   48.7134 C   0  0  0  0  0  0  0  0  0  0  0  0
   -2.3612  118.6402   47.6988 C   0  0  0  0  0  0  0  0  0  0  0  0
   -1.1984  119.0529   48.2352 O   0  0  0  0  0  0  0  0  0  0  0  0
   -2.5316  118.6575   46.4937 O   0  0  0  0  0  0  0  0  0  0  0  0
   -0.6374  119.3086   47.4747 H   0  0  0  0  0  0  0  0  0  0  0  0
    3.7032  115.3903   43.9364 C   0  0  0  0  0  0  0  0  0  0  0  0
    4.2519  116.1908   42.7424 C   0  0  0  0  0  0  0  0  0  0  0  0
    3.2704  116.7915   41.7334 C   0  0  0  0  0  0  0  0  0  0  0  0
    2.4898  115.8198   40.8551 C   0  0  0  0  0  0  0  0  0  0  0  0
    1.1224  115.5921   41.3168 N   0  0  0  0  0  0  0  0  0  0  0  0
    1.1573  115.3152   42.3047 H   0  0  0  0  0  0  0  0  0  0  0  0
    0.7655  114.7648   40.8434 H   0  0  0  0  0  0  0  0  0  0  0  0
   -0.8348  113.3825   38.9722 C   0  0  0  0  0  0  0  0  0  0  0  0
   -0.8822  112.6051   37.6702 C   0  0  0  0  0  0  0  0  0  0  0  0
    0.0346  112.8007   36.6257 C   0  0  0  0  0  0  0  0  0  0  0  0
   -0.0170  112.0039   35.4778 C   0  0  0  0  0  0  0  0  0  0  0  0
   -0.9648  110.9934   35.3648 C   0  0  0  0  0  0  0  0  0  0  0  0
   -1.8961  110.7971   36.3852 C   0  0  0  0  0  0  0  0  0  0  0  0
   -1.8467  111.5916   37.5313 C   0  0  0  0  0  0  0  0  0  0  0  0
   -6.0616  116.5757   44.3888 C   0  0  0  0  0  0  0  0  0  0  0  0
   -6.7198  115.7104   42.0769 C   0  0  0  0  0  0  0  0  0  0  0  0
   -7.0351  115.6965   43.5729 C   0  0  0  0  0  0  0  0  0  0  0  0
   -7.1824  114.2656   44.0879 C   0  0  0  0  0  0  0  0  0  0  0  0
   -5.6422  115.0332   45.6191 H   0  0  0  0  0  0  0  0  0  0  0  0
   -3.6544  116.3994   49.7029 H   0  0  0  0  0  0  0  0  0  0  0  0
   -1.5367  115.3155   50.7908 H   0  0  0  0  0  0  0  0  0  0  0  0
   -1.2620  117.0114   50.4340 H   0  0  0  0  0  0  0  0  0  0  0  0
    2.8257  115.7532   51.3170 H   0  0  0  0  0  0  0  0  0  0  0  0
    3.7077  112.7696   48.0420 H   0  0  0  0  0  0  0  0  0  0  0  0
    5.2990  114.2557   43.9489 H   0  0  0  0  0  0  0  0  0  0  0  0
    5.8939  112.3249   43.2789 H   0  0  0  0  0  0  0  0  0  0  0  0
    4.9738  111.7557   41.9069 H   0  0  0  0  0  0  0  0  0  0  0  0
    4.7565  111.0129   43.4734 H   0  0  0  0  0  0  0  0  0  0  0  0
    2.9599  111.0986   41.5547 H   0  0  0  0  0  0  0  0  0  0  0  0
    2.5689  110.5074   44.2631 H   0  0  0  0  0  0  0  0  0  0  0  0
    2.7115  109.3185   43.0341 H   0  0  0  0  0  0  0  0  0  0  0  0
    0.2436  110.4344   44.2999 H   0  0  0  0  0  0  0  0  0  0  0  0
    0.4849  108.8393   43.7238 H   0  0  0  0  0  0  0  0  0  0  0  0
   -0.9632  110.6027   42.3147 H   0  0  0  0  0  0  0  0  0  0  0  0
    0.0089  109.4722   41.4744 H   0  0  0  0  0  0  0  0  0  0  0  0
   -1.4785  111.8092   40.1449 H   0  0  0  0  0  0  0  0  0  0  0  0
   -1.5294  114.9266   43.5726 H   0  0  0  0  0  0  0  0  0  0  0  0
   -2.9200  112.2578   43.9125 H   0  0  0  0  0  0  0  0  0  0  0  0
   -2.1792  113.1767   45.2009 H   0  0  0  0  0  0  0  0  0  0  0  0
   -1.1895  112.4991   43.9302 H   0  0  0  0  0  0  0  0  0  0  0  0
    3.7353  118.3758   50.4012 H   0  0  0  0  0  0  0  0  0  0  0  0
    4.5801  117.1025   51.4149 H   0  0  0  0  0  0  0  0  0  0  0  0
    4.0285  118.1270   53.1609 H   0  0  0  0  0  0  0  0  0  0  0  0
    2.3185  117.8288   52.7149 H   0  0  0  0  0  0  0  0  0  0  0  0
    3.6209  120.2025   51.6044 H   0  0  0  0  0  0  0  0  0  0  0  0
    3.1786  120.2291   53.2955 H   0  0  0  0  0  0  0  0  0  0  0  0
    5.6649  114.7065   49.1288 H   0  0  0  0  0  0  0  0  0  0  0  0
    6.0980  113.9113   47.5786 H   0  0  0  0  0  0  0  0  0  0  0  0
    4.4404  111.3920   48.8276 H   0  0  0  0  0  0  0  0  0  0  0  0
    5.2911  109.4909   50.0768 H   0  0  0  0  0  0  0  0  0  0  0  0
    7.4372  109.6418   51.1995 H   0  0  0  0  0  0  0  0  0  0  0  0
    8.7589  111.6625   51.0109 H   0  0  0  0  0  0  0  0  0  0  0  0
    7.9014  113.5752   49.7758 H   0  0  0  0  0  0  0  0  0  0  0  0
   -3.0242  118.4681   49.6872 H   0  0  0  0  0  0  0  0  0  0  0  0
   -4.3033  118.5997   48.4892 H   0  0  0  0  0  0  0  0  0  0  0  0
    3.8709  115.9751   44.8166 H   0  0  0  0  0  0  0  0  0  0  0  0
    2.6777  115.2091   43.6906 H   0  0  0  0  0  0  0  0  0  0  0  0
    4.8990  115.5357   42.1974 H   0  0  0  0  0  0  0  0  0  0  0  0
    4.7065  117.0465   43.1964 H   0  0  0  0  0  0  0  0  0  0  0  0
    3.8287  117.4338   41.0849 H   0  0  0  0  0  0  0  0  0  0  0  0
    2.5284  117.2809   42.3291 H   0  0  0  0  0  0  0  0  0  0  0  0
    3.0052  114.8822   40.8452 H   0  0  0  0  0  0  0  0  0  0  0  0
    2.4260  116.2559   39.8801 H   0  0  0  0  0  0  0  0  0  0  0  0
    0.0173  114.0284   38.9305 H   0  0  0  0  0  0  0  0  0  0  0  0
   -1.7798  113.8810   39.0302 H   0  0  0  0  0  0  0  0  0  0  0  0
    0.7522  113.5381   36.7055 H   0  0  0  0  0  0  0  0  0  0  0  0
    0.6527  112.1671   34.7098 H   0  0  0  0  0  0  0  0  0  0  0  0
   -0.9797  110.3896   34.5280 H   0  0  0  0  0  0  0  0  0  0  0  0
   -2.6192  110.0666   36.2926 H   0  0  0  0  0  0  0  0  0  0  0  0
   -2.5290  111.4327   38.2891 H   0  0  0  0  0  0  0  0  0  0  0  0
   -6.6607  117.2717   44.9380 H   0  0  0  0  0  0  0  0  0  0  0  0
   -5.4051  116.9723   43.6428 H   0  0  0  0  0  0  0  0  0  0  0  0
   -7.4199  115.0887   41.5590 H   0  0  0  0  0  0  0  0  0  0  0  0
   -5.7285  115.3404   41.9179 H   0  0  0  0  0  0  0  0  0  0  0  0
   -6.7903  116.7119   41.7068 H   0  0  0  0  0  0  0  0  0  0  0  0
   -7.9891  116.1584   43.7189 H   0  0  0  0  0  0  0  0  0  0  0  0
   -6.2544  113.7464   43.9688 H   0  0  0  0  0  0  0  0  0  0  0  0
   -7.9461  113.7632   43.5318 H   0  0  0  0  0  0  0  0  0  0  0  0
   -7.4498  114.2851   45.1238 H   0  0  0  0  0  0  0  0  0  0  0  0
  1  2  1  0
  1 90  1  1
  2  3  1  0
  2 42  1  0
  3  4  2  0
  3  5  1  0
  5 67  1  0
  5  6  1  0
  5 91  1  1
  6  7  1  0
  6 43  1  0
  7  8  2  0
  7  9  1  0
  9 10  1  0
  9 92  1  0
  9 93  1  0
 10 11  1  0
 10 44  1  0
 11 12  2  0
 11 13  1  0
 13 49  1  0
 13 14  1  0
 13 94  1  1
 14 15  1  0
 14 45  1  0
 15 16  2  0
 15 17  1  0
 17 60  1  0
 17 18  1  0
 17 95  1  6
 18 19  1  0
 18 46  1  0
 19 20  2  0
 19 21  1  0
 21 72  1  0
 21 22  1  0
 21 96  1  6
 22 23  1  0
 22 24  1  0
 23 97  1  0
 23 98  1  0
 23 99  1  0
 24 25  2  0
 24 26  1  0
 26 27  1  0
 26100  1  6
 27 28  1  0
 27101  1  0
 27102  1  0
 28 29  1  0
 28103  1  0
 28104  1  0
 29 30  1  0
 29105  1  0
 29106  1  0
 30 31  1  0
 30 26  1  0
 31 32  2  0
 31 33  1  0
 33 79  1  0
 33 34  1  0
 33107  1  6
 34 35  1  0
 34 47  1  0
 35 36  2  0
 35 37  1  0
 37 38  1  0
 37 39  1  0
 37108  1  1
 38109  1  0
 38110  1  0
 38111  1  0
 39 40  1  0
 39 48  1  0
 40 41  2  0
 40  1  1  0
 49 50  1  0
 49112  1  0
 49113  1  0
 50 51  1  0
 50114  1  0
 50115  1  0
 51 52  1  0
 51116  1  0
 51117  1  0
 52 54  1  0
 52 53  1  0
 54 55  1  0
 54 56  2  0
 55 57  1  0
 55 58  1  0
 56 59  1  0
 60 61  1  0
 60118  1  0
 60119  1  0
 61 62  2  0
 62 63  1  0
 62120  1  0
 63 64  2  0
 63121  1  0
 64 65  1  0
 64122  1  0
 65 66  2  0
 65123  1  0
 66 61  1  0
 66124  1  0
 67 68  1  0
 67125  1  0
 67126  1  0
 68 69  1  0
 68 70  2  0
 69 71  1  0
 72 73  1  0
 72127  1  0
 72128  1  0
 73 74  1  0
 73129  1  0
 73130  1  0
 74 75  1  0
 74131  1  0
 74132  1  0
 75 76  1  0
 75133  1  0
 75134  1  0
 76 77  1  0
 76 78  1  0
 79 80  1  0
 79135  1  0
 79136  1  0
 80 81  2  0
 81 82  1  0
 81137  1  0
 82 83  2  0
 82138  1  0
 83 84  1  0
 83139  1  0
 84 85  2  0
 84140  1  0
 85 80  1  0
 85141  1  0
 86  1  1  0
 86142  1  0
 86143  1  0
 87 88  1  0
 87144  1  0
 87145  1  0
 87146  1  0
 88 89  1  0
 88 86  1  0
 88147  1  0
 89148  1  0
 89149  1  0
 89150  1  0
M  END
>  <minimizedAffinity>  (8) 
-5.57195

>  <mol_id>  (8) 
92903

>  <source_index>  (8) 
7

>  <layer>  (8) 
L3

>  <uniprot>  (8) 
P05556

>  <paff>  (8) 
7.1367000000000003

>  <smiles>  (8) 
CC(C)C[C@@H]1NC(=O)[C@H](CC(O)=O)NC(=O)CNC(=O)[C@H](CCCNC(N)=N)NC(=O)[C@H](Cc2ccccc2)NC(=O)[C@H](CCCCN)N(C)C(=O)[C@H]2CCCN2C(=O)[C@H](Cc2ccccc2)NC(=O)[C@H](C)NC1=O |r|

$$$$
L3:P05556:127413
     RDKit          3D

 75 79  0  0  0  0  0  0  0  0999 V2000
    0.6934  113.4713   39.3259 N   0  0  0  0  0  0  0  0  0  0  0  0
    0.1150  112.9540   38.0936 C   0  0  0  0  0  0  0  0  0  0  0  0
    0.8730  111.6532   37.9019 C   0  0  0  0  0  0  0  0  0  0  0  0
    0.9187  111.0814   39.3114 C   0  0  2  0  0  0  0  0  0  0  0  0
    1.0149  112.3325   40.1982 C   0  0  0  0  0  0  0  0  0  0  0  0
    0.0089  114.5913   40.0115 C   0  0  1  0  0  0  0  0  0  0  0  0
    2.5404  116.3255   43.1074 C   0  0  0  0  0  0  0  0  0  0  0  0
    1.3123  115.7669   43.4663 C   0  0  0  0  0  0  0  0  0  0  0  0
    0.4538  115.1714   42.5129 C   0  0  0  0  0  0  0  0  0  0  0  0
    0.8634  115.1818   41.1454 C   0  0  0  0  0  0  0  0  0  0  0  0
    2.1181  115.7450   40.8121 C   0  0  0  0  0  0  0  0  0  0  0  0
    2.9340  116.3055   41.7841 C   0  0  0  0  0  0  0  0  0  0  0  0
    4.1108  116.8415   41.4328 F   0  0  0  0  0  0  0  0  0  0  0  0
   -0.9066  114.6052   42.9497 C   0  0  2  0  0  0  0  0  0  0  0  0
   -1.4514  114.9619   44.3475 C   0  0  0  0  0  0  0  0  0  0  0  0
   -0.7569  114.1835   45.4651 C   0  0  0  0  0  0  0  0  0  0  0  0
   -0.7371  112.6932   45.1516 C   0  0  0  0  0  0  0  0  0  0  0  0
   -0.2171  112.4488   43.7441 C   0  0  0  0  0  0  0  0  0  0  0  0
   -0.9877  113.1825   42.7930 O   0  0  0  0  0  0  0  0  0  0  0  0
   -0.5237  115.6773   39.0430 C   0  0  0  0  0  0  0  0  0  0  0  0
    0.0690  116.2354   38.1301 O   0  0  0  0  0  0  0  0  0  0  0  0
   -1.8208  115.9948   39.2729 O   0  0  0  0  0  0  0  0  0  0  0  0
   -2.0186  116.6782   38.5990 H   0  0  0  0  0  0  0  0  0  0  0  0
    2.0171  110.2054   39.5419 O   0  0  0  0  0  0  0  0  0  0  0  0
    1.9749  109.5639   40.8130 C   0  0  0  0  0  0  0  0  0  0  0  0
    3.3024  109.7856   41.5336 C   0  0  0  0  0  0  0  0  0  0  0  0
    3.2175  110.7535   42.7234 C   0  0  0  0  0  0  0  0  0  0  0  0
    3.7051  112.1812   42.4527 C   0  0  0  0  0  0  0  0  0  0  0  0
    3.9403  112.9811   43.7088 C   0  0  0  0  0  0  0  0  0  0  0  0
    3.1457  112.7977   44.8347 C   0  0  0  0  0  0  0  0  0  0  0  0
    3.4265  113.5365   45.9783 C   0  0  0  0  0  0  0  0  0  0  0  0
    4.4918  114.4375   45.9683 C   0  0  0  0  0  0  0  0  0  0  0  0
    5.2302  114.5761   44.7909 C   0  0  0  0  0  0  0  0  0  0  0  0
    4.9683  113.8649   43.6791 N   0  0  0  0  0  0  0  0  0  0  0  0
    6.3200  115.4359   44.7228 N   0  0  0  0  0  0  0  0  0  0  0  0
    6.2879  116.5687   45.6216 C   0  0  0  0  0  0  0  0  0  0  0  0
    6.1011  116.0572   47.0467 C   0  0  0  0  0  0  0  0  0  0  0  0
    4.7757  115.3036   47.1660 C   0  0  0  0  0  0  0  0  0  0  0  0
    6.5594  115.5885   43.7478 H   0  0  0  0  0  0  0  0  0  0  0  0
    0.2819  113.6239   37.2761 H   0  0  0  0  0  0  0  0  0  0  0  0
   -0.9467  112.8287   38.1381 H   0  0  0  0  0  0  0  0  0  0  0  0
    1.8587  111.8328   37.5263 H   0  0  0  0  0  0  0  0  0  0  0  0
    0.4158  110.9961   37.1919 H   0  0  0  0  0  0  0  0  0  0  0  0
    0.0634  110.4701   39.5105 H   0  0  0  0  0  0  0  0  0  0  0  0
    2.0044  112.4337   40.5927 H   0  0  0  0  0  0  0  0  0  0  0  0
    0.3462  112.2753   41.0315 H   0  0  0  0  0  0  0  0  0  0  0  0
   -0.8625  114.1667   40.4646 H   0  0  0  0  0  0  0  0  0  0  0  0
    3.1488  116.7497   43.8250 H   0  0  0  0  0  0  0  0  0  0  0  0
    1.0223  115.7891   44.4565 H   0  0  0  0  0  0  0  0  0  0  0  0
    2.4316  115.7387   39.8289 H   0  0  0  0  0  0  0  0  0  0  0  0
   -1.5407  115.1291   42.2653 H   0  0  0  0  0  0  0  0  0  0  0  0
   -2.4978  114.7400   44.3744 H   0  0  0  0  0  0  0  0  0  0  0  0
   -1.2644  116.0024   44.5125 H   0  0  0  0  0  0  0  0  0  0  0  0
   -1.2831  114.3423   46.3831 H   0  0  0  0  0  0  0  0  0  0  0  0
    0.2517  114.5304   45.5504 H   0  0  0  0  0  0  0  0  0  0  0  0
   -1.7305  112.3038   45.2319 H   0  0  0  0  0  0  0  0  0  0  0  0
   -0.0896  112.2029   45.8483 H   0  0  0  0  0  0  0  0  0  0  0  0
   -0.2831  111.4045   43.5206 H   0  0  0  0  0  0  0  0  0  0  0  0
    0.8009  112.7736   43.6896 H   0  0  0  0  0  0  0  0  0  0  0  0
    1.8117  108.5150   40.6789 H   0  0  0  0  0  0  0  0  0  0  0  0
    1.1773  109.9749   41.3959 H   0  0  0  0  0  0  0  0  0  0  0  0
    4.0050  110.1799   40.8294 H   0  0  0  0  0  0  0  0  0  0  0  0
    3.6005  108.8370   41.9288 H   0  0  0  0  0  0  0  0  0  0  0  0
    3.8079  110.3495   43.5191 H   0  0  0  0  0  0  0  0  0  0  0  0
    2.1768  110.8393   42.9569 H   0  0  0  0  0  0  0  0  0  0  0  0
    2.9685  112.6851   41.8625 H   0  0  0  0  0  0  0  0  0  0  0  0
    4.6447  112.1038   41.9466 H   0  0  0  0  0  0  0  0  0  0  0  0
    2.3624  112.1259   44.8218 H   0  0  0  0  0  0  0  0  0  0  0  0
    2.8519  113.4195   46.8275 H   0  0  0  0  0  0  0  0  0  0  0  0
    5.4741  117.2125   45.3606 H   0  0  0  0  0  0  0  0  0  0  0  0
    7.2031  117.1181   45.5485 H   0  0  0  0  0  0  0  0  0  0  0  0
    6.0986  116.8866   47.7227 H   0  0  0  0  0  0  0  0  0  0  0  0
    6.9043  115.3927   47.2880 H   0  0  0  0  0  0  0  0  0  0  0  0
    3.9843  116.0164   47.2686 H   0  0  0  0  0  0  0  0  0  0  0  0
    4.8433  114.6628   48.0202 H   0  0  0  0  0  0  0  0  0  0  0  0
  1  2  1  0
  2  3  1  0
  2 40  1  0
  2 41  1  0
  3  4  1  0
  3 42  1  0
  3 43  1  0
  4  5  1  0
  4 24  1  0
  4 44  1  1
  5  1  1  0
  5 45  1  0
  5 46  1  0
  6 20  1  0
  6  1  1  0
  6 47  1  1
  7  8  2  0
  7 48  1  0
  8  9  1  0
  8 49  1  0
  9 10  2  0
  9 14  1  0
 10 11  1  0
 10  6  1  0
 11 12  2  0
 11 50  1  0
 12 13  1  0
 12  7  1  0
 14 15  1  0
 14 51  1  6
 15 16  1  0
 15 52  1  0
 15 53  1  0
 16 17  1  0
 16 54  1  0
 16 55  1  0
 17 18  1  0
 17 56  1  0
 17 57  1  0
 18 19  1  0
 18 58  1  0
 18 59  1  0
 19 14  1  0
 20 21  2  0
 20 22  1  0
 22 23  1  0
 24 25  1  0
 25 26  1  0
 25 60  1  0
 25 61  1  0
 26 27  1  0
 26 62  1  0
 26 63  1  0
 27 28  1  0
 27 64  1  0
 27 65  1  0
 28 29  1  0
 28 66  1  0
 28 67  1  0
 29 30  2  0
 30 31  1  0
 30 68  1  0
 31 32  2  0
 31 69  1  0
 32 33  1  0
 33 34  2  0
 33 35  1  0
 34 29  1  0
 35 36  1  0
 35 39  1  0
 36 37  1  0
 36 70  1  0
 36 71  1  0
 37 38  1  0
 37 72  1  0
 37 73  1  0
 38 32  1  0
 38 74  1  0
 38 75  1  0
M  END
>  <minimizedAffinity>  (9) 
-5.70487

>  <mol_id>  (9) 
127413

>  <source_index>  (9) 
8

>  <layer>  (9) 
L3

>  <uniprot>  (9) 
P05556

>  <paff>  (9) 
7.0605000000000002

>  <smiles>  (9) 
c1cc(c(cc1F)[C@@H](C(=O)O)N2CC[C@H](C2)OCCCCc3ccc4c(n3)NCCC4)[C@@H]5CCCCO5

$$$$
L3:P05556:139427
     RDKit          3D

 72 76  0  0  0  0  0  0  0  0999 V2000
    3.2109  114.4280   42.4794 N   0  0  0  0  0  0  0  0  0  0  0  0
    4.2953  114.8495   43.3731 C   0  0  0  0  0  0  0  0  0  0  0  0
    4.7014  113.5518   44.0476 C   0  0  0  0  0  0  0  0  0  0  0  0
    4.7075  112.5638   42.8942 C   0  0  2  0  0  0  0  0  0  0  0  0
    3.6032  113.0974   41.9664 C   0  0  0  0  0  0  0  0  0  0  0  0
    2.9048  115.4027   41.3935 C   0  0  1  0  0  0  0  0  0  0  0  0
    1.4299  115.3374   40.9655 C   0  0  0  0  0  0  0  0  0  0  0  0
    1.1506  115.5473   39.5960 C   0  0  0  0  0  0  0  0  0  0  0  0
   -0.1530  115.5120   39.1202 C   0  0  0  0  0  0  0  0  0  0  0  0
   -0.3867  115.7228   37.8159 F   0  0  0  0  0  0  0  0  0  0  0  0
   -1.2117  115.2769   39.9760 C   0  0  0  0  0  0  0  0  0  0  0  0
   -0.9592  115.0662   41.3336 C   0  0  0  0  0  0  0  0  0  0  0  0
    0.3528  115.0790   41.8576 C   0  0  0  0  0  0  0  0  0  0  0  0
    0.5672  114.8971   43.3538 C   0  0  2  0  0  0  0  0  0  0  0  0
   -0.4530  114.0371   44.1102 C   0  0  0  0  0  0  0  0  0  0  0  0
   -1.2855  115.0426   44.8732 C   0  0  0  0  0  0  0  0  0  0  0  0
   -0.2851  116.1464   45.1246 C   0  0  0  0  0  0  0  0  0  0  0  0
    0.5266  116.2130   43.9495 O   0  0  0  0  0  0  0  0  0  0  0  0
    3.2365  117.4622   42.7784 O   0  0  0  0  0  0  0  0  0  0  0  0
    3.3241  116.8594   41.7181 C   0  0  0  0  0  0  0  0  0  0  0  0
    3.9218  117.4730   40.6658 O   0  0  0  0  0  0  0  0  0  0  0  0
    4.0561  118.3899   40.9880 H   0  0  0  0  0  0  0  0  0  0  0  0
    4.4821  111.2490   43.3904 O   0  0  0  0  0  0  0  0  0  0  0  0
    3.7866  110.3877   42.4903 C   0  0  0  0  0  0  0  0  0  0  0  0
    2.7830  109.4740   43.1935 C   0  0  0  0  0  0  0  0  0  0  0  0
    1.3473  109.5720   42.6562 C   0  0  0  0  0  0  0  0  0  0  0  0
    0.7661  110.9924   42.6220 C   0  0  0  0  0  0  0  0  0  0  0  0
    0.0283  111.3371   41.3489 C   0  0  0  0  0  0  0  0  0  0  0  0
   -1.3620  111.3354   41.3256 C   0  0  0  0  0  0  0  0  0  0  0  0
   -2.0106  111.6261   40.1285 C   0  0  0  0  0  0  0  0  0  0  0  0
   -1.2554  111.9136   38.9922 C   0  0  0  0  0  0  0  0  0  0  0  0
    0.1370  111.8857   39.0970 C   0  0  0  0  0  0  0  0  0  0  0  0
    0.7731  111.5927   40.2451 N   0  0  0  0  0  0  0  0  0  0  0  0
    0.9464  112.2113   38.0195 N   0  0  0  0  0  0  0  0  0  0  0  0
    0.3871  111.9824   36.7057 C   0  0  0  0  0  0  0  0  0  0  0  0
   -0.9539  112.7011   36.6139 C   0  0  0  0  0  0  0  0  0  0  0  0
   -1.9219  112.1559   37.6643 C   0  0  0  0  0  0  0  0  0  0  0  0
    1.9000  111.9207   38.2091 H   0  0  0  0  0  0  0  0  0  0  0  0
    3.9478  115.5638   44.0900 H   0  0  0  0  0  0  0  0  0  0  0  0
    5.1024  115.3306   42.8611 H   0  0  0  0  0  0  0  0  0  0  0  0
    3.9914  113.2671   44.7957 H   0  0  0  0  0  0  0  0  0  0  0  0
    5.6396  113.6142   44.5583 H   0  0  0  0  0  0  0  0  0  0  0  0
    5.6333  112.4863   42.3634 H   0  0  0  0  0  0  0  0  0  0  0  0
    2.7619  112.4364   41.9789 H   0  0  0  0  0  0  0  0  0  0  0  0
    3.9529  113.1657   40.9575 H   0  0  0  0  0  0  0  0  0  0  0  0
    3.5115  115.0974   40.5667 H   0  0  0  0  0  0  0  0  0  0  0  0
    1.9267  115.7294   38.9406 H   0  0  0  0  0  0  0  0  0  0  0  0
   -2.1787  115.2572   39.6162 H   0  0  0  0  0  0  0  0  0  0  0  0
   -1.7527  114.8965   41.9713 H   0  0  0  0  0  0  0  0  0  0  0  0
    1.4966  114.3740   43.4401 H   0  0  0  0  0  0  0  0  0  0  0  0
    0.0396  113.3643   44.7807 H   0  0  0  0  0  0  0  0  0  0  0  0
   -1.0411  113.4265   43.4574 H   0  0  0  0  0  0  0  0  0  0  0  0
   -1.6494  114.6304   45.7911 H   0  0  0  0  0  0  0  0  0  0  0  0
   -2.1625  115.3638   44.3510 H   0  0  0  0  0  0  0  0  0  0  0  0
    0.3157  115.9168   45.9797 H   0  0  0  0  0  0  0  0  0  0  0  0
   -0.7702  117.0797   45.3210 H   0  0  0  0  0  0  0  0  0  0  0  0
    4.5027  109.7785   41.9795 H   0  0  0  0  0  0  0  0  0  0  0  0
    3.2358  111.0082   41.8147 H   0  0  0  0  0  0  0  0  0  0  0  0
    2.7692  109.7296   44.2324 H   0  0  0  0  0  0  0  0  0  0  0  0
    3.1074  108.4703   43.0139 H   0  0  0  0  0  0  0  0  0  0  0  0
    0.7179  108.9701   43.2778 H   0  0  0  0  0  0  0  0  0  0  0  0
    1.3833  109.2377   41.6404 H   0  0  0  0  0  0  0  0  0  0  0  0
    1.5721  111.6862   42.7395 H   0  0  0  0  0  0  0  0  0  0  0  0
    0.0485  111.0468   43.4138 H   0  0  0  0  0  0  0  0  0  0  0  0
   -1.9023  111.1229   42.1788 H   0  0  0  0  0  0  0  0  0  0  0  0
   -3.0416  111.6288   40.0825 H   0  0  0  0  0  0  0  0  0  0  0  0
    0.2445  110.9330   36.5529 H   0  0  0  0  0  0  0  0  0  0  0  0
    1.0529  112.3555   35.9558 H   0  0  0  0  0  0  0  0  0  0  0  0
   -1.3691  112.5502   35.6394 H   0  0  0  0  0  0  0  0  0  0  0  0
   -0.8016  113.7454   36.7901 H   0  0  0  0  0  0  0  0  0  0  0  0
   -2.3273  111.2312   37.3101 H   0  0  0  0  0  0  0  0  0  0  0  0
   -2.6865  112.8894   37.8135 H   0  0  0  0  0  0  0  0  0  0  0  0
  1  2  1  0
  2  3  1  0
  2 39  1  0
  2 40  1  0
  3  4  1  0
  3 41  1  0
  3 42  1  0
  4 23  1  0
  4  5  1  0
  4 43  1  6
  5  1  1  0
  5 44  1  0
  5 45  1  0
  6  7  1  0
  6  1  1  0
  6 46  1  6
  7  8  2  0
  8  9  1  0
  8 47  1  0
  9 10  1  0
  9 11  2  0
 11 12  1  0
 11 48  1  0
 12 13  2  0
 12 49  1  0
 13 14  1  0
 13  7  1  0
 14 15  1  0
 14 50  1  6
 15 16  1  0
 15 51  1  0
 15 52  1  0
 16 17  1  0
 16 53  1  0
 16 54  1  0
 17 18  1  0
 17 55  1  0
 17 56  1  0
 18 14  1  0
 19 20  2  0
 20 21  1  0
 20  6  1  0
 21 22  1  0
 23 24  1  0
 24 25  1  0
 24 57  1  0
 24 58  1  0
 25 26  1  0
 25 59  1  0
 25 60  1  0
 26 27  1  0
 26 61  1  0
 26 62  1  0
 27 28  1  0
 27 63  1  0
 27 64  1  0
 28 29  2  0
 29 30  1  0
 29 65  1  0
 30 31  2  0
 30 66  1  0
 31 32  1  0
 32 33  2  0
 32 34  1  0
 33 28  1  0
 34 35  1  0
 34 38  1  0
 35 36  1  0
 35 67  1  0
 35 68  1  0
 36 37  1  0
 36 69  1  0
 36 70  1  0
 37 31  1  0
 37 71  1  0
 37 72  1  0
M  END
>  <minimizedAffinity>  (10) 
-6.17688

>  <mol_id>  (10) 
139427

>  <source_index>  (10) 
9

>  <layer>  (10) 
L3

>  <uniprot>  (10) 
P05556

>  <paff>  (10) 
7.0362

>  <smiles>  (10) 
O=C(O)[C@H](c1cc(F)ccc1[C@@H]1CCCO1)N1CC[C@@H](OCCCCc2ccc3c(n2)NCCC3)C1

$$$$
