L2:P43405:113757


 33 36  0  0  0  0  0  0  0  0999 V2000
    1.5981    0.5558   14.0583 C   0  0  0  0  0  0  0  0  0  0  0  0
    1.5056    1.9416   13.7660 C   0  0  0  0  0  0  0  0  0  0  0  0
    2.7987    2.3938   13.5853 C   0  0  0  0  0  0  0  0  0  0  0  0
    3.5705    1.2663   13.6769 N   0  0  0  0  0  0  0  0  0  0  0  0
    4.9814    1.1364   13.3911 C   0  0  0  0  0  0  0  0  0  0  0  0
    2.8843    0.1618   14.0275 N   0  0  0  0  0  0  0  0  0  0  0  0
   -1.7139   -0.9196   14.0026 C   0  0  0  0  0  0  0  0  0  0  0  0
   -1.6270   -1.9653   14.8357 N   0  0  0  0  0  0  0  0  0  0  0  0
   -0.4441   -2.1933   15.4316 C   0  0  0  0  0  0  0  0  0  0  0  0
    0.6630   -1.4147   15.2301 C   0  0  0  0  0  0  0  0  0  0  0  0
    0.4917   -0.3602   14.3619 C   0  0  0  0  0  0  0  0  0  0  0  0
   -0.6837   -0.1006   13.7443 N   0  0  0  0  0  0  0  0  0  0  0  0
   -2.8921   -0.6012   13.3340 N   0  0  0  0  0  0  0  0  0  0  0  0
   -3.1444   -1.3730   12.7351 H   0  0  0  0  0  0  0  0  0  0  0  0
   -4.3374    2.8088   12.7387 C   0  0  0  0  0  0  0  0  0  0  0  0
   -5.5558    2.6767   13.4008 C   0  0  0  0  0  0  0  0  0  0  0  0
   -5.8759    1.4735   14.0270 C   0  0  0  0  0  0  0  0  0  0  0  0
   -4.9784    0.4039   13.9907 C   0  0  0  0  0  0  0  0  0  0  0  0
   -3.7441    0.5086   13.3309 C   0  0  0  0  0  0  0  0  0  0  0  0
   -3.4455    1.7266   12.7101 C   0  0  0  0  0  0  0  0  0  0  0  0
   -3.0216    4.7901   12.7988 C   0  0  0  0  0  0  0  0  0  0  0  0
   -3.8985    3.9289   12.0848 O   0  0  0  0  0  0  0  0  0  0  0  0
    3.2328    3.7338   13.2887 C   0  0  0  0  0  0  0  0  0  0  0  0
    3.5090    4.5531   14.1567 O   0  0  0  0  0  0  0  0  0  0  0  0
    3.3553    4.0080   11.9441 N   0  0  0  0  0  0  0  0  0  0  0  0
    3.2576    3.2522   11.2807 H   0  0  0  0  0  0  0  0  0  0  0  0
    3.7933    5.3180   11.4506 C   0  0  0  0  0  0  0  0  0  0  0  0
    5.1003    5.1423   10.6785 C   0  0  0  0  0  0  0  0  0  0  0  0
    2.6716    5.9898   10.6122 C   0  0  0  0  0  0  0  0  0  0  0  0
    1.4065    5.2399   10.6013 N   0  0  0  0  0  0  0  0  0  0  0  0
    0.2727    6.0565   11.1206 C   0  0  0  0  0  0  0  0  0  0  0  0
   -0.5724    5.4952    9.9628 C   0  0  0  0  0  0  0  0  0  0  0  0
    0.7805    5.3269    9.2506 C   0  0  0  0  0  0  0  0  0  0  0  0
 21 22  1  0  0  0
 22 15  1  0  0  0
 15 16  2  0  0  0
 16 17  1  0  0  0
 17 18  2  0  0  0
 18 19  1  0  0  0
 19 13  1  0  0  0
 13  7  1  0  0  0
  7  8  2  0  0  0
  8  9  1  0  0  0
  9 10  2  0  0  0
 10 11  1  0  0  0
 11  1  1  0  0  0
  1  2  1  0  0  0
  2  3  2  0  0  0
  3 23  1  0  0  0
 23 24  2  0  0  0
 23 25  1  0  0  0
 25 27  1  0  0  0
 27 28  1  0  0  0
 27 29  1  0  0  0
 29 30  1  0  0  0
 30 31  1  0  0  0
 31 32  1  0  0  0
 32 33  1  0  0  0
  3  4  1  0  0  0
  4  5  1  0  0  0
  4  6  1  0  0  0
 11 12  2  0  0  0
 19 20  2  0  0  0
 20 15  1  0  0  0
 12  7  1  0  0  0
  6  1  2  0  0  0
 33 30  1  0  0  0
 13 14  1  0  0  0
 25 26  1  0  0  0
M  END
> <minimizedAffinity>
-7.58488

$$$$
