L2:P43405:113757
 OpenBabel09212617463D

 58 61  0  0  0  0  0  0  0  0999 V2000
    1.5981    0.5558   14.0583 C   0  0  0  0  0  0  0  0  0  0  0  0
    1.5056    1.9416   13.7660 C   0  0  0  0  0  0  0  0  0  0  0  0
    2.7987    2.3938   13.5853 C   0  0  0  0  0  0  0  0  0  0  0  0
    3.5705    1.2663   13.6769 N   0  0  0  0  0  0  0  0  0  0  0  0
    4.9814    1.1364   13.3911 C   0  0  0  0  0  0  0  0  0  0  0  0
    2.8843    0.1618   14.0275 N   0  0  0  0  0  0  0  0  0  0  0  0
   -1.7139   -0.9196   14.0026 C   0  0  0  0  0  0  0  0  0  0  0  0
   -1.6270   -1.9653   14.8357 N   0  0  0  0  0  0  0  0  0  0  0  0
   -0.4441   -2.1933   15.4316 C   0  0  0  0  0  0  0  0  0  0  0  0
    0.6630   -1.4147   15.2301 C   0  0  0  0  0  0  0  0  0  0  0  0
    0.4917   -0.3602   14.3619 C   0  0  0  0  0  0  0  0  0  0  0  0
   -0.6837   -0.1006   13.7443 N   0  0  0  0  0  0  0  0  0  0  0  0
   -2.8921   -0.6012   13.3340 N   0  0  0  0  0  0  0  0  0  0  0  0
   -3.1444   -1.3730   12.7351 H   0  0  0  0  0  0  0  0  0  0  0  0
   -4.3374    2.8088   12.7387 C   0  0  0  0  0  0  0  0  0  0  0  0
   -5.5558    2.6767   13.4008 C   0  0  0  0  0  0  0  0  0  0  0  0
   -5.8759    1.4735   14.0270 C   0  0  0  0  0  0  0  0  0  0  0  0
   -4.9784    0.4039   13.9907 C   0  0  0  0  0  0  0  0  0  0  0  0
   -3.7441    0.5086   13.3309 C   0  0  0  0  0  0  0  0  0  0  0  0
   -3.4455    1.7266   12.7101 C   0  0  0  0  0  0  0  0  0  0  0  0
   -3.0216    4.7901   12.7988 C   0  0  0  0  0  0  0  0  0  0  0  0
   -3.8985    3.9289   12.0848 O   0  0  0  0  0  0  0  0  0  0  0  0
    3.2328    3.7338   13.2887 C   0  0  0  0  0  0  0  0  0  0  0  0
    3.5090    4.5531   14.1567 O   0  0  0  0  0  0  0  0  0  0  0  0
    3.3553    4.0080   11.9441 N   0  0  0  0  0  0  0  0  0  0  0  0
    3.2576    3.2522   11.2807 H   0  0  0  0  0  0  0  0  0  0  0  0
    3.7933    5.3180   11.4506 C   0  0  1  0  0  0  0  0  0  0  0  0
    5.1003    5.1423   10.6785 C   0  0  0  0  0  0  0  0  0  0  0  0
    2.6716    5.9898   10.6122 C   0  0  0  0  0  0  0  0  0  0  0  0
    1.4065    5.2399   10.6013 N   0  0  0  0  0  0  0  0  0  0  0  0
    0.2727    6.0565   11.1206 C   0  0  0  0  0  0  0  0  0  0  0  0
   -0.5724    5.4952    9.9628 C   0  0  0  0  0  0  0  0  0  0  0  0
    0.7805    5.3269    9.2506 C   0  0  0  0  0  0  0  0  0  0  0  0
    0.6414    2.5020   13.7011 H   0  0  0  0  0  0  0  0  0  0  0  0
    5.3820    2.0936   13.1298 H   0  0  0  0  0  0  0  0  0  0  0  0
    5.1191    0.4575   12.5756 H   0  0  0  0  0  0  0  0  0  0  0  0
    5.4876    0.7620   14.2563 H   0  0  0  0  0  0  0  0  0  0  0  0
   -0.3668   -2.9970   16.0743 H   0  0  0  0  0  0  0  0  0  0  0  0
    1.5637   -1.6048   15.6966 H   0  0  0  0  0  0  0  0  0  0  0  0
   -6.2190    3.4669   13.4275 H   0  0  0  0  0  0  0  0  0  0  0  0
   -6.7778    1.3726   14.5184 H   0  0  0  0  0  0  0  0  0  0  0  0
   -5.2280   -0.4814   14.4586 H   0  0  0  0  0  0  0  0  0  0  0  0
   -2.5446    1.8315   12.2178 H   0  0  0  0  0  0  0  0  0  0  0  0
   -2.7554    5.6211   12.1796 H   0  0  0  0  0  0  0  0  0  0  0  0
   -2.1382    4.2521   13.0728 H   0  0  0  0  0  0  0  0  0  0  0  0
   -3.5111    5.1454   13.6815 H   0  0  0  0  0  0  0  0  0  0  0  0
    3.9842    5.9818   12.2678 H   0  0  0  0  0  0  0  0  0  0  0  0
    4.9404    4.4813    9.8524 H   0  0  0  0  0  0  0  0  0  0  0  0
    5.8448    4.7294   11.3267 H   0  0  0  0  0  0  0  0  0  0  0  0
    5.4309    6.0931   10.3158 H   0  0  0  0  0  0  0  0  0  0  0  0
    3.0158    6.0849    9.6035 H   0  0  0  0  0  0  0  0  0  0  0  0
    2.4679    6.9365   11.0673 H   0  0  0  0  0  0  0  0  0  0  0  0
    0.4315    7.1141   11.0855 H   0  0  0  0  0  0  0  0  0  0  0  0
   -0.0506    5.9883   12.1383 H   0  0  0  0  0  0  0  0  0  0  0  0
   -1.2448    6.1923    9.5079 H   0  0  0  0  0  0  0  0  0  0  0  0
   -1.2760    4.6980   10.0824 H   0  0  0  0  0  0  0  0  0  0  0  0
    1.0874    6.1717    8.6701 H   0  0  0  0  0  0  0  0  0  0  0  0
    0.9359    4.5719    8.5085 H   0  0  0  0  0  0  0  0  0  0  0  0
  1  2  1  0  0  0  0
  2  3  2  0  0  0  0
  2 34  1  0  0  0  0
  3 23  1  0  0  0  0
  3  4  1  0  0  0  0
  4  5  1  0  0  0  0
  4  6  1  0  0  0  0
  5 35  1  0  0  0  0
  5 36  1  0  0  0  0
  5 37  1  0  0  0  0
  6  1  2  0  0  0  0
  7  8  2  0  0  0  0
  8  9  1  0  0  0  0
  9 10  2  0  0  0  0
  9 38  1  0  0  0  0
 10 11  1  0  0  0  0
 10 39  1  0  0  0  0
 11  1  1  0  0  0  0
 11 12  2  0  0  0  0
 12  7  1  0  0  0  0
 13  7  1  0  0  0  0
 13 14  1  0  0  0  0
 15 16  2  0  0  0  0
 16 17  1  0  0  0  0
 16 40  1  0  0  0  0
 17 18  2  0  0  0  0
 17 41  1  0  0  0  0
 18 19  1  0  0  0  0
 18 42  1  0  0  0  0
 19 13  1  0  0  0  0
 19 20  2  0  0  0  0
 20 15  1  0  0  0  0
 20 43  1  0  0  0  0
 21 22  1  0  0  0  0
 21 44  1  0  0  0  0
 21 45  1  0  0  0  0
 21 46  1  0  0  0  0
 22 15  1  0  0  0  0
 23 24  2  0  0  0  0
 23 25  1  0  0  0  0
 25 27  1  0  0  0  0
 25 26  1  0  0  0  0
 27 28  1  0  0  0  0
 27 29  1  0  0  0  0
 27 47  1  1  0  0  0
 28 48  1  0  0  0  0
 28 49  1  0  0  0  0
 28 50  1  0  0  0  0
 29 30  1  0  0  0  0
 29 51  1  0  0  0  0
 29 52  1  0  0  0  0
 30 31  1  0  0  0  0
 31 32  1  0  0  0  0
 31 53  1  0  0  0  0
 31 54  1  0  0  0  0
 32 33  1  0  0  0  0
 32 55  1  0  0  0  0
 32 56  1  0  0  0  0
 33 30  1  0  0  0  0
 33 57  1  0  0  0  0
 33 58  1  0  0  0  0
M  END
>  <minimizedAffinity>
-7.58488

$$$$
