L2:P43405:130651
     RDKit          3D

 57 61  0  0  0  0  0  0  0  0999 V2000
   -7.2096    0.0580    3.2750 N   0  0  0  0  0  0  0  0  0  0  0  0
   -5.9088    0.3139    2.8936 C   0  0  0  0  0  0  0  0  0  0  0  0
   -4.9245    0.6928    3.8027 C   0  0  0  0  0  0  0  0  0  0  0  0
   -3.6500    0.9815    3.4476 N   0  0  0  0  0  0  0  0  0  0  0  0
   -3.3946    0.8890    2.1224 C   0  0  0  0  0  0  0  0  0  0  0  0
   -4.3649    0.5287    1.1920 C   0  0  0  0  0  0  0  0  0  0  0  0
   -4.0596    0.4780   -0.2910 C   0  0  1  0  0  0  0  0  0  0  0  0
   -4.5496    1.8002   -0.9548 C   0  0  0  0  0  0  0  0  0  0  0  0
   -4.1982    1.8373   -2.3697 N   0  0  0  0  0  0  0  0  0  0  0  0
   -4.1296    2.9380   -3.2009 C   0  0  0  0  0  0  0  0  0  0  0  0
   -3.3239    2.6584   -4.2349 C   0  0  0  0  0  0  0  0  0  0  0  0
   -2.8066    1.3837   -4.0940 N   0  0  0  0  0  0  0  0  0  0  0  0
   -3.3684    0.7467   -2.8914 C   0  0  1  0  0  0  0  0  0  0  0  0
   -2.2751    0.3961   -1.8235 C   0  0  0  0  0  0  0  0  0  0  0  0
   -0.9860    0.3189   -2.3156 N   0  0  0  0  0  0  0  0  0  0  0  0
    0.1983   -0.1039   -1.7003 C   0  0  0  0  0  0  0  0  0  0  0  0
    1.4146    0.1220   -2.3532 C   0  0  0  0  0  0  0  0  0  0  0  0
    2.6362   -0.2792   -1.7887 C   0  0  0  0  0  0  0  0  0  0  0  0
    2.7040   -0.9272   -0.5493 C   0  0  0  0  0  0  0  0  0  0  0  0
    3.9063   -1.3222    0.0060 N   0  0  0  0  0  0  0  0  0  0  0  0
    3.9801   -2.3500    1.0558 C   0  0  0  0  0  0  0  0  0  0  0  0
    5.3506   -3.0465    1.0129 C   0  0  0  0  0  0  0  0  0  0  0  0
    6.4706   -2.1662    1.1878 O   0  0  0  0  0  0  0  0  0  0  0  0
    6.2003   -0.8085    0.7678 C   0  0  1  0  0  0  0  0  0  0  0  0
    7.5406   -0.1847    0.3722 C   0  0  0  0  0  0  0  0  0  0  0  0
    8.4472   -0.2420    1.4739 O   0  0  0  0  0  0  0  0  0  0  0  0
    5.1862   -0.7130   -0.3904 C   0  0  0  0  0  0  0  0  0  0  0  0
    1.4790   -1.1519    0.0915 C   0  0  0  0  0  0  0  0  0  0  0  0
    0.2539   -0.7509   -0.4687 C   0  0  0  0  0  0  0  0  0  0  0  0
   -2.6128    0.2236   -0.5757 N   0  0  0  0  0  0  0  0  0  0  0  0
   -5.6423    0.2465    1.5761 N   0  0  0  0  0  0  0  0  0  0  0  0
   -7.8085   -0.1851    2.4958 H   0  0  0  0  0  0  0  0  0  0  0  0
   -7.3707   -0.4160    4.1509 H   0  0  0  0  0  0  0  0  0  0  0  0
   -5.1422    0.7806    4.8608 H   0  0  0  0  0  0  0  0  0  0  0  0
   -2.3764    1.1210    1.8254 H   0  0  0  0  0  0  0  0  0  0  0  0
   -4.6250   -0.3691   -0.7046 H   0  0  0  0  0  0  0  0  0  0  0  0
   -4.0843    2.6580   -0.4516 H   0  0  0  0  0  0  0  0  0  0  0  0
   -5.6353    1.9055   -0.8445 H   0  0  0  0  0  0  0  0  0  0  0  0
   -4.6637    3.8507   -2.9790 H   0  0  0  0  0  0  0  0  0  0  0  0
   -3.0727    3.2787   -5.0834 H   0  0  0  0  0  0  0  0  0  0  0  0
   -2.6537    0.8316   -4.9273 H   0  0  0  0  0  0  0  0  0  0  0  0
   -3.9608   -0.1394   -3.1431 H   0  0  0  0  0  0  0  0  0  0  0  0
   -0.8822    0.7370   -3.2368 H   0  0  0  0  0  0  0  0  0  0  0  0
    1.4353    0.6207   -3.3191 H   0  0  0  0  0  0  0  0  0  0  0  0
    3.5388   -0.0867   -2.3615 H   0  0  0  0  0  0  0  0  0  0  0  0
    3.2113   -3.1183    0.9141 H   0  0  0  0  0  0  0  0  0  0  0  0
    3.8299   -1.8753    2.0324 H   0  0  0  0  0  0  0  0  0  0  0  0
    5.4089   -3.8099    1.7953 H   0  0  0  0  0  0  0  0  0  0  0  0
    5.4836   -3.5559    0.0510 H   0  0  0  0  0  0  0  0  0  0  0  0
    5.8123   -0.2875    1.6526 H   0  0  0  0  0  0  0  0  0  0  0  0
    7.4243    0.8628    0.0791 H   0  0  0  0  0  0  0  0  0  0  0  0
    8.0002   -0.7353   -0.4553 H   0  0  0  0  0  0  0  0  0  0  0  0
    8.3542   -1.1456    1.8362 H   0  0  0  0  0  0  0  0  0  0  0  0
    5.0532    0.3460   -0.6424 H   0  0  0  0  0  0  0  0  0  0  0  0
    5.5667   -1.2394   -1.2740 H   0  0  0  0  0  0  0  0  0  0  0  0
    1.4433   -1.6295    1.0669 H   0  0  0  0  0  0  0  0  0  0  0  0
   -0.6502   -0.9669    0.0922 H   0  0  0  0  0  0  0  0  0  0  0  0
  1  2  1  0
  2  3  2  0
  3  4  1  0
  4  5  2  0
  5  6  1  0
  6  7  1  0
  7  8  1  0
  8  9  1  0
  9 10  1  0
 10 11  2  0
 11 12  1  0
 12 13  1  0
 13 14  1  0
 14 15  1  0
 15 16  1  0
 16 17  2  0
 17 18  1  0
 18 19  2  0
 19 20  1  0
 20 21  1  0
 21 22  1  0
 22 23  1  0
 23 24  1  0
 24 25  1  0
 25 26  1  0
 24 27  1  0
 19 28  1  0
 28 29  2  0
 14 30  2  0
  6 31  2  0
 31  2  1  0
 30  7  1  0
 13  9  1  0
 29 16  1  0
 27 20  1  0
  1 32  1  0
  1 33  1  0
  3 34  1  0
  5 35  1  0
  7 36  1  6
  8 37  1  0
  8 38  1  0
 10 39  1  0
 11 40  1  0
 12 41  1  0
 13 42  1  6
 15 43  1  0
 17 44  1  0
 18 45  1  0
 21 46  1  0
 21 47  1  0
 22 48  1  0
 22 49  1  0
 24 50  1  1
 25 51  1  0
 25 52  1  0
 26 53  1  0
 27 54  1  0
 27 55  1  0
 28 56  1  0
 29 57  1  0
M  END
>  <mol_id>  (1) 
130651

>  <source_index>  (1) 
9

>  <layer>  (1) 
L2

>  <uniprot>  (1) 
P43405

>  <paff>  (1) 
7.8761000000000001

>  <smiles>  (1) 
Nc1cncc(C2CN3C=CNC3C(Nc3ccc(N4CCO[C@@H](CO)C4)cc3)=N2)n1

$$$$
