L2:P43405:130651
 OpenBabel09212617473D

 57 61  0  0  0  0  0  0  0  0999 V2000
    2.9154    3.1559   11.6150 C   0  0  1  0  0  0  0  0  0  0  0  0
    4.0523    3.8661   12.4101 C   0  0  0  0  0  0  0  0  0  0  0  0
    4.8782    2.8970   13.1211 N   0  0  0  0  0  0  0  0  0  0  0  0
    5.7292    3.1224   14.1851 C   0  0  0  0  0  0  0  0  0  0  0  0
    5.9082    1.9755   14.8553 C   0  0  0  0  0  0  0  0  0  0  0  0
    5.1499    0.9731   14.2788 N   0  0  0  0  0  0  0  0  0  0  0  0
    4.4567    1.4929   13.0884 C   0  0  1  0  0  0  0  0  0  0  0  0
    2.8955    1.4368   13.2225 C   0  0  0  0  0  0  0  0  0  0  0  0
    2.1484    2.2076   12.4818 N   0  0  0  0  0  0  0  0  0  0  0  0
    5.5218    0.0328   14.2701 H   0  0  0  0  0  0  0  0  0  0  0  0
    1.1719    7.6028   11.5858 N   0  0  0  0  0  0  0  0  0  0  0  0
    1.2120    6.3631   10.9820 C   0  0  0  0  0  0  0  0  0  0  0  0
    0.4177    6.0404    9.8847 C   0  0  0  0  0  0  0  0  0  0  0  0
    0.4152    4.8207    9.2964 N   0  0  0  0  0  0  0  0  0  0  0  0
    1.2421    3.9138    9.8654 C   0  0  0  0  0  0  0  0  0  0  0  0
    2.0333    4.2065   10.9723 C   0  0  0  0  0  0  0  0  0  0  0  0
    2.0141    5.4423   11.5479 N   0  0  0  0  0  0  0  0  0  0  0  0
    1.7922    7.6736   12.3827 H   0  0  0  0  0  0  0  0  0  0  0  0
    1.0685    8.4197   11.0029 H   0  0  0  0  0  0  0  0  0  0  0  0
    2.4255    0.5511   14.1736 N   0  0  0  0  0  0  0  0  0  0  0  0
    3.0436    0.4582   14.9758 H   0  0  0  0  0  0  0  0  0  0  0  0
    1.1957   -0.1107   14.2708 C   0  0  0  0  0  0  0  0  0  0  0  0
    1.1282   -1.3038   14.9979 C   0  0  0  0  0  0  0  0  0  0  0  0
   -0.0753   -2.0149   15.1313 C   0  0  0  0  0  0  0  0  0  0  0  0
   -1.2674   -1.5734   14.5443 C   0  0  0  0  0  0  0  0  0  0  0  0
   -1.1852   -0.3805   13.8149 C   0  0  0  0  0  0  0  0  0  0  0  0
    0.0167    0.3356   13.6797 C   0  0  0  0  0  0  0  0  0  0  0  0
   -2.4517   -2.2734   14.6755 N   0  0  0  0  0  0  0  0  0  0  0  0
   -3.2016   -2.7629   13.5085 C   0  0  0  0  0  0  0  0  0  0  0  0
   -4.0325   -3.9969   13.8985 C   0  0  0  0  0  0  0  0  0  0  0  0
   -4.9756   -3.7687   14.9559 O   0  0  0  0  0  0  0  0  0  0  0  0
   -4.5858   -2.6977   15.8469 C   0  0  2  0  0  0  0  0  0  0  0  0
   -3.0581   -2.5413   15.9897 C   0  0  0  0  0  0  0  0  0  0  0  0
   -5.2342   -2.9826   17.2035 C   0  0  0  0  0  0  0  0  0  0  0  0
   -4.4741   -3.9645   17.9086 O   0  0  0  0  0  0  0  0  0  0  0  0
   -3.5407   -3.6944   17.7985 H   0  0  0  0  0  0  0  0  0  0  0  0
    3.3416    2.5548   10.8392 H   0  0  0  0  0  0  0  0  0  0  0  0
    3.6160    4.5398   13.1177 H   0  0  0  0  0  0  0  0  0  0  0  0
    4.6710    4.3979   11.7178 H   0  0  0  0  0  0  0  0  0  0  0  0
    6.1588    4.0293   14.4258 H   0  0  0  0  0  0  0  0  0  0  0  0
    6.5201    1.8582   15.6780 H   0  0  0  0  0  0  0  0  0  0  0  0
    4.6868    0.9419   12.2005 H   0  0  0  0  0  0  0  0  0  0  0  0
   -0.2022    6.7698    9.4992 H   0  0  0  0  0  0  0  0  0  0  0  0
    1.2882    2.9651    9.4618 H   0  0  0  0  0  0  0  0  0  0  0  0
    1.9825   -1.6698   15.4466 H   0  0  0  0  0  0  0  0  0  0  0  0
   -0.0813   -2.8897   15.6788 H   0  0  0  0  0  0  0  0  0  0  0  0
   -2.0367   -0.0146   13.3609 H   0  0  0  0  0  0  0  0  0  0  0  0
    0.0255    1.2098   13.1313 H   0  0  0  0  0  0  0  0  0  0  0  0
   -2.5151   -3.0287   12.7320 H   0  0  0  0  0  0  0  0  0  0  0  0
   -3.8581   -1.9916   13.1635 H   0  0  0  0  0  0  0  0  0  0  0  0
   -3.3596   -4.7678   14.2113 H   0  0  0  0  0  0  0  0  0  0  0  0
   -4.6031   -4.2654   13.0341 H   0  0  0  0  0  0  0  0  0  0  0  0
   -4.9210   -1.7677   15.4375 H   0  0  0  0  0  0  0  0  0  0  0  0
   -2.6462   -3.4431   16.3923 H   0  0  0  0  0  0  0  0  0  0  0  0
   -2.8499   -1.7215   16.6450 H   0  0  0  0  0  0  0  0  0  0  0  0
   -6.2292   -3.3457   17.0519 H   0  0  0  0  0  0  0  0  0  0  0  0
   -5.2622   -2.0798   17.7772 H   0  0  0  0  0  0  0  0  0  0  0  0
  1  2  1  0  0  0  0
  1 37  1  6  0  0  0
  2  3  1  0  0  0  0
  2 38  1  0  0  0  0
  2 39  1  0  0  0  0
  3  4  1  0  0  0  0
  4  5  2  0  0  0  0
  4 40  1  0  0  0  0
  5  6  1  0  0  0  0
  5 41  1  0  0  0  0
  6  7  1  0  0  0  0
  6 10  1  0  0  0  0
  7  8  1  0  0  0  0
  7  3  1  0  0  0  0
  7 42  1  6  0  0  0
  8 20  1  0  0  0  0
  8  9  2  0  0  0  0
  9  1  1  0  0  0  0
 11 12  1  0  0  0  0
 11 18  1  0  0  0  0
 11 19  1  0  0  0  0
 12 13  2  0  0  0  0
 13 14  1  0  0  0  0
 13 43  1  0  0  0  0
 14 15  2  0  0  0  0
 15 16  1  0  0  0  0
 15 44  1  0  0  0  0
 16  1  1  0  0  0  0
 16 17  2  0  0  0  0
 17 12  1  0  0  0  0
 20 22  1  0  0  0  0
 20 21  1  0  0  0  0
 22 23  2  0  0  0  0
 23 24  1  0  0  0  0
 23 45  1  0  0  0  0
 24 25  2  0  0  0  0
 24 46  1  0  0  0  0
 25 28  1  0  0  0  0
 25 26  1  0  0  0  0
 26 27  2  0  0  0  0
 26 47  1  0  0  0  0
 27 22  1  0  0  0  0
 27 48  1  0  0  0  0
 28 29  1  0  0  0  0
 29 30  1  0  0  0  0
 29 49  1  0  0  0  0
 29 50  1  0  0  0  0
 30 31  1  0  0  0  0
 30 51  1  0  0  0  0
 30 52  1  0  0  0  0
 31 32  1  0  0  0  0
 32 34  1  0  0  0  0
 32 33  1  0  0  0  0
 32 53  1  6  0  0  0
 33 28  1  0  0  0  0
 33 54  1  0  0  0  0
 33 55  1  0  0  0  0
 34 35  1  0  0  0  0
 34 56  1  0  0  0  0
 34 57  1  0  0  0  0
 35 36  1  0  0  0  0
M  END
>  <minimizedAffinity>
-8.63796

$$$$
