L2:P43405:16711
 OpenBabel09212617453D

 75 80  0  0  0  0  0  0  0  0999 V2000
    0.8867    7.6438   11.4497 N   0  0  0  0  0  0  0  0  0  0  0  0
    1.3410    8.1587   12.1962 H   0  0  0  0  0  0  0  0  0  0  0  0
    2.4141    4.3580   10.7985 C   0  0  1  0  0  0  0  0  0  0  0  0
    1.1114    3.5200   10.7981 C   0  0  0  0  0  0  0  0  0  0  0  0
    0.2380    3.9421   11.8711 N   0  0  0  0  0  0  0  0  0  0  0  0
    0.1751    3.4088   13.1481 C   0  0  0  0  0  0  0  0  0  0  0  0
   -0.1258    4.3788   14.0216 C   0  0  0  0  0  0  0  0  0  0  0  0
   -0.2693    5.5777   13.3527 N   0  0  0  0  0  0  0  0  0  0  0  0
   -0.0678    5.3766   11.9143 C   0  0  1  0  0  0  0  0  0  0  0  0
    1.0875    6.2778   11.3542 C   0  0  0  0  0  0  0  0  0  0  0  0
    2.1668    5.8272   10.7826 N   0  0  0  0  0  0  0  0  0  0  0  0
    0.0959    6.4134   13.7881 H   0  0  0  0  0  0  0  0  0  0  0  0
    6.1515    2.8809   14.8690 C   0  0  0  0  0  0  0  0  0  0  0  0
    5.1453    3.2523   13.8228 C   0  0  0  0  0  0  0  0  0  0  0  0
    5.0531    4.5721   13.5096 N   0  0  0  0  0  0  0  0  0  0  0  0
    4.1598    4.8795   12.5441 C   0  0  0  0  0  0  0  0  0  0  0  0
    3.3762    3.9274   11.9010 C   0  0  0  0  0  0  0  0  0  0  0  0
    3.4711    2.6112   12.2347 N   0  0  0  0  0  0  0  0  0  0  0  0
    4.3475    2.2813   13.2016 C   0  0  0  0  0  0  0  0  0  0  0  0
    4.4329    0.9311   13.4827 N   0  0  0  0  0  0  0  0  0  0  0  0
    4.5399    0.6495   14.4446 H   0  0  0  0  0  0  0  0  0  0  0  0
    3.7926    0.3946   12.9096 H   0  0  0  0  0  0  0  0  0  0  0  0
    0.0200    8.4054   10.5713 C   0  0  2  0  0  0  0  0  0  0  0  0
    0.3160    7.9286    9.1832 C   0  0  0  0  0  0  0  0  0  0  0  0
    1.1365    8.5984    8.3606 C   0  0  0  0  0  0  0  0  0  0  0  0
    1.8362    9.8241    8.7524 C   0  0  0  0  0  0  0  0  0  0  0  0
    1.4359   10.4425    9.8960 C   0  0  0  0  0  0  0  0  0  0  0  0
    0.2746    9.9160   10.7262 C   0  0  0  0  0  0  0  0  0  0  0  0
    2.8566   10.2771    7.9006 N   0  0  0  0  0  0  0  0  0  0  0  0
    2.6175   10.7184    6.5104 C   0  0  0  0  0  0  0  0  0  0  0  0
    3.6624   11.7575    6.0458 C   0  0  0  0  0  0  0  0  0  0  0  0
    5.0735   11.3109    6.1034 N   0  0  1  0  0  0  0  0  0  0  0  0
    5.2489   10.3081    7.1842 C   0  0  0  0  0  0  0  0  0  0  0  0
    4.2550   10.4499    8.3581 C   0  0  0  0  0  0  0  0  0  0  0  0
    5.4753   10.7147    4.8126 C   0  0  0  0  0  0  0  0  0  0  0  0
    5.7168   11.8083    3.7544 C   0  0  0  0  0  0  0  0  0  0  0  0
    7.0313   11.2594    3.4562 O   0  0  0  0  0  0  0  0  0  0  0  0
    7.0049   10.5485    4.7264 C   0  0  0  0  0  0  0  0  0  0  0  0
    1.9690   11.6722   10.2636 O   0  0  0  0  0  0  0  0  0  0  0  0
    1.3917   12.2644   11.4314 C   0  0  0  0  0  0  0  0  0  0  0  0
    2.4797   13.0179   12.1992 C   0  0  0  0  0  0  0  0  0  0  0  0
    3.3904   12.1230   12.8398 O   0  0  0  0  0  0  0  0  0  0  0  0
    2.8722   11.5464   13.4263 H   0  0  0  0  0  0  0  0  0  0  0  0
    2.9042    4.1460    9.8713 H   0  0  0  0  0  0  0  0  0  0  0  0
    1.3571    2.4869   10.9296 H   0  0  0  0  0  0  0  0  0  0  0  0
    0.6078    3.6631    9.8649 H   0  0  0  0  0  0  0  0  0  0  0  0
    0.3352    2.4182   13.3890 H   0  0  0  0  0  0  0  0  0  0  0  0
   -0.2339    4.2494   15.0397 H   0  0  0  0  0  0  0  0  0  0  0  0
   -0.9007    5.6509   11.3011 H   0  0  0  0  0  0  0  0  0  0  0  0
    6.6508    3.7627   15.2126 H   0  0  0  0  0  0  0  0  0  0  0  0
    6.8681    2.2053   14.4507 H   0  0  0  0  0  0  0  0  0  0  0  0
    5.6542    2.4095   15.6908 H   0  0  0  0  0  0  0  0  0  0  0  0
    4.0537    5.8689   12.2704 H   0  0  0  0  0  0  0  0  0  0  0  0
   -1.0128    8.2576   10.8086 H   0  0  0  0  0  0  0  0  0  0  0  0
   -0.1251    7.0575    8.8491 H   0  0  0  0  0  0  0  0  0  0  0  0
    1.2818    8.2330    7.4065 H   0  0  0  0  0  0  0  0  0  0  0  0
   -0.6120   10.4374   10.4313 H   0  0  0  0  0  0  0  0  0  0  0  0
    0.5313   10.0804   11.7519 H   0  0  0  0  0  0  0  0  0  0  0  0
    1.6434   11.1570    6.4498 H   0  0  0  0  0  0  0  0  0  0  0  0
    2.6965    9.8623    5.8734 H   0  0  0  0  0  0  0  0  0  0  0  0
    3.5649   12.6236    6.6665 H   0  0  0  0  0  0  0  0  0  0  0  0
    3.4542   11.9424    5.0127 H   0  0  0  0  0  0  0  0  0  0  0  0
    6.2410   10.4059    7.5728 H   0  0  0  0  0  0  0  0  0  0  0  0
    5.0642    9.3507    6.7435 H   0  0  0  0  0  0  0  0  0  0  0  0
    4.3628   11.4224    8.7910 H   0  0  0  0  0  0  0  0  0  0  0  0
    4.4718    9.6895    9.0790 H   0  0  0  0  0  0  0  0  0  0  0  0
    4.7751    9.9124    4.7081 H   0  0  0  0  0  0  0  0  0  0  0  0
    5.7417   12.8005    4.1541 H   0  0  0  0  0  0  0  0  0  0  0  0
    5.0079   11.9553    2.9665 H   0  0  0  0  0  0  0  0  0  0  0  0
    7.5397   11.0420    5.5108 H   0  0  0  0  0  0  0  0  0  0  0  0
    7.4420    9.5749    4.8032 H   0  0  0  0  0  0  0  0  0  0  0  0
    0.9780   11.4991   12.0543 H   0  0  0  0  0  0  0  0  0  0  0  0
    0.6155   12.9433   11.1457 H   0  0  0  0  0  0  0  0  0  0  0  0
    2.0169   13.6327   12.9427 H   0  0  0  0  0  0  0  0  0  0  0  0
    3.0312   13.6112   11.5001 H   0  0  0  0  0  0  0  0  0  0  0  0
  1 23  1  0  0  0  0
  1  2  1  0  0  0  0
  3  4  1  0  0  0  0
  3 44  1  6  0  0  0
  4  5  1  0  0  0  0
  4 45  1  0  0  0  0
  4 46  1  0  0  0  0
  5  6  1  0  0  0  0
  6  7  2  0  0  0  0
  6 47  1  0  0  0  0
  7  8  1  0  0  0  0
  7 48  1  0  0  0  0
  8  9  1  0  0  0  0
  8 12  1  0  0  0  0
  9 10  1  0  0  0  0
  9  5  1  0  0  0  0
  9 49  1  6  0  0  0
 10  1  1  0  0  0  0
 10 11  2  0  0  0  0
 11  3  1  0  0  0  0
 13 14  1  0  0  0  0
 13 50  1  0  0  0  0
 13 51  1  0  0  0  0
 13 52  1  0  0  0  0
 14 15  2  0  0  0  0
 15 16  1  0  0  0  0
 16 17  2  0  0  0  0
 16 53  1  0  0  0  0
 17  3  1  0  0  0  0
 17 18  1  0  0  0  0
 18 19  2  0  0  0  0
 19 20  1  0  0  0  0
 19 14  1  0  0  0  0
 20 21  1  0  0  0  0
 20 22  1  0  0  0  0
 23 24  1  0  0  0  0
 23 54  1  1  0  0  0
 24 25  2  0  0  0  0
 24 55  1  0  0  0  0
 25 26  1  0  0  0  0
 25 56  1  0  0  0  0
 26 29  1  0  0  0  0
 26 27  2  0  0  0  0
 27 39  1  0  0  0  0
 27 28  1  0  0  0  0
 28 23  1  0  0  0  0
 28 57  1  0  0  0  0
 28 58  1  0  0  0  0
 29 30  1  0  0  0  0
 30 31  1  0  0  0  0
 30 59  1  0  0  0  0
 30 60  1  0  0  0  0
 31 32  1  0  0  0  0
 31 61  1  0  0  0  0
 31 62  1  0  0  0  0
 32 35  1  6  0  0  0
 32 33  1  0  0  0  0
 33 34  1  0  0  0  0
 33 63  1  0  0  0  0
 33 64  1  0  0  0  0
 34 29  1  0  0  0  0
 34 65  1  0  0  0  0
 34 66  1  0  0  0  0
 35 36  1  0  0  0  0
 35 67  1  0  0  0  0
 36 37  1  0  0  0  0
 36 68  1  0  0  0  0
 36 69  1  0  0  0  0
 37 38  1  0  0  0  0
 38 35  1  0  0  0  0
 38 70  1  0  0  0  0
 38 71  1  0  0  0  0
 39 40  1  0  0  0  0
 40 41  1  0  0  0  0
 40 72  1  0  0  0  0
 40 73  1  0  0  0  0
 41 42  1  0  0  0  0
 41 74  1  0  0  0  0
 41 75  1  0  0  0  0
 42 43  1  0  0  0  0
M  END
>  <minimizedAffinity>
-8.00342

$$$$
