L2:P43405:16711
     RDKit          3D

 75 80  0  0  0  0  0  0  0  0999 V2000
    9.0066   -1.3779   -1.3515 C   0  0  0  0  0  0  0  0  0  0  0  0
    7.7913   -0.8988   -0.6177 C   0  0  0  0  0  0  0  0  0  0  0  0
    8.0019   -0.3217    0.5952 N   0  0  0  0  0  0  0  0  0  0  0  0
    6.8948    0.1279    1.2252 C   0  0  0  0  0  0  0  0  0  0  0  0
    5.6163    0.0178    0.6891 C   0  0  0  0  0  0  0  0  0  0  0  0
    4.4233    0.5813    1.4545 C   0  0  1  0  0  0  0  0  0  0  0  0
    4.4060    2.1302    1.4538 C   0  0  0  0  0  0  0  0  0  0  0  0
    3.9557    2.6305    0.1734 N   0  0  0  0  0  0  0  0  0  0  0  0
    4.7498    2.9800   -0.9065 C   0  0  0  0  0  0  0  0  0  0  0  0
    4.1017    2.7002   -2.0450 C   0  0  0  0  0  0  0  0  0  0  0  0
    2.8657    2.1587   -1.7545 N   0  0  0  0  0  0  0  0  0  0  0  0
    2.6742    2.0970   -0.3021 C   0  0  1  0  0  0  0  0  0  0  0  0
    2.3868    0.6349    0.1881 C   0  0  0  0  0  0  0  0  0  0  0  0
    1.2309    0.0515   -0.3008 N   0  0  0  0  0  0  0  0  0  0  0  0
    0.8054   -1.3004    0.0062 C   0  0  2  0  0  0  0  0  0  0  0  0
   -0.0273   -1.7457   -1.1557 C   0  0  0  0  0  0  0  0  0  0  0  0
   -1.3675   -1.7035   -1.1284 C   0  0  0  0  0  0  0  0  0  0  0  0
   -2.1285   -1.1919    0.0137 C   0  0  0  0  0  0  0  0  0  0  0  0
   -3.4993   -0.9600   -0.1846 N   0  0  0  0  0  0  0  0  0  0  0  0
   -4.3292   -1.7483   -1.1197 C   0  0  0  0  0  0  0  0  0  0  0  0
   -5.8101   -1.7933   -0.6814 C   0  0  0  0  0  0  0  0  0  0  0  0
   -6.4740   -0.4763   -0.5452 N   0  0  0  0  0  0  0  0  0  0  0  0
   -7.1311   -0.1002   -1.8140 C   0  0  0  0  0  0  0  0  0  0  0  0
   -8.4536   -0.8695   -1.9964 C   0  0  0  0  0  0  0  0  0  0  0  0
   -9.1696    0.3751   -2.2342 O   0  0  0  0  0  0  0  0  0  0  0  0
   -8.0704    1.1061   -1.6202 C   0  0  0  0  0  0  0  0  0  0  0  0
   -5.4786    0.5630   -0.1799 C   0  0  0  0  0  0  0  0  0  0  0  0
   -4.2594    0.0346    0.6077 C   0  0  0  0  0  0  0  0  0  0  0  0
   -1.4607   -0.9986    1.1829 C   0  0  0  0  0  0  0  0  0  0  0  0
   -2.1410   -0.6341    2.3387 O   0  0  0  0  0  0  0  0  0  0  0  0
   -1.5203    0.3957    3.1145 C   0  0  0  0  0  0  0  0  0  0  0  0
   -2.5747    1.0523    4.0078 C   0  0  0  0  0  0  0  0  0  0  0  0
   -3.4353    1.9154    3.2627 O   0  0  0  0  0  0  0  0  0  0  0  0
    0.0153   -1.3388    1.3272 C   0  0  0  0  0  0  0  0  0  0  0  0
    3.1261   -0.0203    1.0359 N   0  0  0  0  0  0  0  0  0  0  0  0
    5.4204   -0.5740   -0.5209 N   0  0  0  0  0  0  0  0  0  0  0  0
    6.5078   -1.0392   -1.1636 C   0  0  0  0  0  0  0  0  0  0  0  0
    6.2637   -1.6014   -2.4020 N   0  0  0  0  0  0  0  0  0  0  0  0
    8.9586   -2.4608   -1.5022 H   0  0  0  0  0  0  0  0  0  0  0  0
    9.9160   -1.1573   -0.7829 H   0  0  0  0  0  0  0  0  0  0  0  0
    9.0885   -0.8791   -2.3222 H   0  0  0  0  0  0  0  0  0  0  0  0
    7.0728    0.5897    2.1903 H   0  0  0  0  0  0  0  0  0  0  0  0
    4.5574    0.2703    2.4994 H   0  0  0  0  0  0  0  0  0  0  0  0
    3.7027    2.4754    2.2224 H   0  0  0  0  0  0  0  0  0  0  0  0
    5.3855    2.5487    1.7133 H   0  0  0  0  0  0  0  0  0  0  0  0
    5.7662    3.3233   -0.7784 H   0  0  0  0  0  0  0  0  0  0  0  0
    4.4650    2.7631   -3.0603 H   0  0  0  0  0  0  0  0  0  0  0  0
    2.5330    1.3953   -2.3271 H   0  0  0  0  0  0  0  0  0  0  0  0
    1.8457    2.7455    0.0045 H   0  0  0  0  0  0  0  0  0  0  0  0
    0.6111    0.5995   -0.8875 H   0  0  0  0  0  0  0  0  0  0  0  0
    1.6726   -1.9672    0.0862 H   0  0  0  0  0  0  0  0  0  0  0  0
    0.4909   -2.1120   -2.0363 H   0  0  0  0  0  0  0  0  0  0  0  0
   -1.9089   -2.0293   -2.0093 H   0  0  0  0  0  0  0  0  0  0  0  0
   -4.2507   -1.3189   -2.1256 H   0  0  0  0  0  0  0  0  0  0  0  0
   -3.9666   -2.7825   -1.1634 H   0  0  0  0  0  0  0  0  0  0  0  0
   -5.8600   -2.2787    0.3025 H   0  0  0  0  0  0  0  0  0  0  0  0
   -6.3674   -2.4529   -1.3576 H   0  0  0  0  0  0  0  0  0  0  0  0
   -6.4983   -0.0538   -2.7069 H   0  0  0  0  0  0  0  0  0  0  0  0
   -8.4880   -1.5271   -2.8697 H   0  0  0  0  0  0  0  0  0  0  0  0
   -8.8638   -1.3915   -1.1250 H   0  0  0  0  0  0  0  0  0  0  0  0
   -8.3268    1.3959   -0.5955 H   0  0  0  0  0  0  0  0  0  0  0  0
   -7.8043    1.9950   -2.1990 H   0  0  0  0  0  0  0  0  0  0  0  0
   -5.0946    1.0613   -1.0813 H   0  0  0  0  0  0  0  0  0  0  0  0
   -5.9815    1.3303    0.4199 H   0  0  0  0  0  0  0  0  0  0  0  0
   -3.6196    0.8956    0.8293 H   0  0  0  0  0  0  0  0  0  0  0  0
   -4.5905   -0.4123    1.5524 H   0  0  0  0  0  0  0  0  0  0  0  0
   -1.0685    1.1496    2.4584 H   0  0  0  0  0  0  0  0  0  0  0  0
   -0.7550   -0.0603    3.7513 H   0  0  0  0  0  0  0  0  0  0  0  0
   -3.2039    0.2971    4.4884 H   0  0  0  0  0  0  0  0  0  0  0  0
   -2.0935    1.6571    4.7824 H   0  0  0  0  0  0  0  0  0  0  0  0
   -2.8769    2.5776    2.8216 H   0  0  0  0  0  0  0  0  0  0  0  0
    0.0701   -2.3526    1.7467 H   0  0  0  0  0  0  0  0  0  0  0  0
    0.5099   -0.6828    2.0497 H   0  0  0  0  0  0  0  0  0  0  0  0
    6.7840   -2.4240   -2.6639 H   0  0  0  0  0  0  0  0  0  0  0  0
    5.2756   -1.5856   -2.6252 H   0  0  0  0  0  0  0  0  0  0  0  0
  1  2  1  0
  2  3  2  0
  3  4  1  0
  4  5  2  0
  5  6  1  0
  6  7  1  0
  7  8  1  0
  8  9  1  0
  9 10  2  0
 10 11  1  0
 11 12  1  0
 12 13  1  0
 13 14  1  0
 14 15  1  0
 15 16  1  0
 16 17  2  0
 17 18  1  0
 18 19  1  0
 19 20  1  0
 20 21  1  0
 21 22  1  0
 22 23  1  0
 23 24  1  0
 24 25  1  0
 25 26  1  0
 22 27  1  0
 27 28  1  0
 18 29  2  0
 29 30  1  0
 30 31  1  0
 31 32  1  0
 32 33  1  0
 29 34  1  0
 13 35  2  0
  5 36  1  0
 36 37  2  0
 37 38  1  0
 37  2  1  0
 35  6  1  0
 12  8  1  0
 34 15  1  0
 28 19  1  0
 26 23  1  0
  1 39  1  0
  1 40  1  0
  1 41  1  0
  4 42  1  0
  6 43  1  1
  7 44  1  0
  7 45  1  0
  9 46  1  0
 10 47  1  0
 11 48  1  0
 12 49  1  6
 14 50  1  0
 15 51  1  1
 16 52  1  0
 17 53  1  0
 20 54  1  0
 20 55  1  0
 21 56  1  0
 21 57  1  0
 23 58  1  0
 24 59  1  0
 24 60  1  0
 26 61  1  0
 26 62  1  0
 27 63  1  0
 27 64  1  0
 28 65  1  0
 28 66  1  0
 31 67  1  0
 31 68  1  0
 32 69  1  0
 32 70  1  0
 33 71  1  0
 34 72  1  0
 34 73  1  0
 38 74  1  0
 38 75  1  0
M  END
>  <mol_id>  (1) 
16711

>  <source_index>  (1) 
2

>  <layer>  (1) 
L2

>  <uniprot>  (1) 
P43405

>  <paff>  (1) 
8.0604999999999993

>  <smiles>  (1) 
Cc1ncc(C2CN3C=CNC3C(NC3C=CC(N4CCN(C5COC5)CC4)=C(OCCO)C3)=N2)nc1N

$$$$
