L2:P43405:16711


 43 48  0  0  0  0  0  0  0  0999 V2000
    0.8867    7.6438   11.4497 N   0  0  0  0  0  0  0  0  0  0  0  0
    1.3410    8.1587   12.1962 H   0  0  0  0  0  0  0  0  0  0  0  0
    2.4141    4.3580   10.7985 C   0  0  0  0  0  0  0  0  0  0  0  0
    1.1114    3.5200   10.7981 C   0  0  0  0  0  0  0  0  0  0  0  0
    0.2380    3.9421   11.8711 N   0  0  0  0  0  0  0  0  0  0  0  0
    0.1751    3.4088   13.1481 C   0  0  0  0  0  0  0  0  0  0  0  0
   -0.1258    4.3788   14.0216 C   0  0  0  0  0  0  0  0  0  0  0  0
   -0.2693    5.5777   13.3527 N   0  0  0  0  0  0  0  0  0  0  0  0
   -0.0678    5.3766   11.9143 C   0  0  0  0  0  0  0  0  0  0  0  0
    1.0875    6.2778   11.3542 C   0  0  0  0  0  0  0  0  0  0  0  0
    2.1668    5.8272   10.7826 N   0  0  0  0  0  0  0  0  0  0  0  0
    0.0959    6.4134   13.7881 H   0  0  0  0  0  0  0  0  0  0  0  0
    6.1515    2.8809   14.8690 C   0  0  0  0  0  0  0  0  0  0  0  0
    5.1453    3.2523   13.8228 C   0  0  0  0  0  0  0  0  0  0  0  0
    5.0531    4.5721   13.5096 N   0  0  0  0  0  0  0  0  0  0  0  0
    4.1598    4.8795   12.5441 C   0  0  0  0  0  0  0  0  0  0  0  0
    3.3762    3.9274   11.9010 C   0  0  0  0  0  0  0  0  0  0  0  0
    3.4711    2.6112   12.2347 N   0  0  0  0  0  0  0  0  0  0  0  0
    4.3475    2.2813   13.2016 C   0  0  0  0  0  0  0  0  0  0  0  0
    4.4329    0.9311   13.4827 N   0  0  0  0  0  0  0  0  0  0  0  0
    4.5399    0.6495   14.4446 H   0  0  0  0  0  0  0  0  0  0  0  0
    3.7926    0.3946   12.9096 H   0  0  0  0  0  0  0  0  0  0  0  0
    0.0200    8.4054   10.5713 C   0  0  0  0  0  0  0  0  0  0  0  0
    0.3160    7.9286    9.1832 C   0  0  0  0  0  0  0  0  0  0  0  0
    1.1365    8.5984    8.3606 C   0  0  0  0  0  0  0  0  0  0  0  0
    1.8362    9.8241    8.7524 C   0  0  0  0  0  0  0  0  0  0  0  0
    1.4359   10.4425    9.8960 C   0  0  0  0  0  0  0  0  0  0  0  0
    0.2746    9.9160   10.7262 C   0  0  0  0  0  0  0  0  0  0  0  0
    2.8566   10.2771    7.9006 N   0  0  0  0  0  0  0  0  0  0  0  0
    2.6175   10.7184    6.5104 C   0  0  0  0  0  0  0  0  0  0  0  0
    3.6624   11.7575    6.0458 C   0  0  0  0  0  0  0  0  0  0  0  0
    5.0735   11.3109    6.1034 N   0  0  0  0  0  0  0  0  0  0  0  0
    5.2489   10.3081    7.1842 C   0  0  0  0  0  0  0  0  0  0  0  0
    4.2550   10.4499    8.3581 C   0  0  0  0  0  0  0  0  0  0  0  0
    5.4753   10.7147    4.8126 C   0  0  0  0  0  0  0  0  0  0  0  0
    5.7168   11.8083    3.7544 C   0  0  0  0  0  0  0  0  0  0  0  0
    7.0313   11.2594    3.4562 O   0  0  0  0  0  0  0  0  0  0  0  0
    7.0049   10.5485    4.7264 C   0  0  0  0  0  0  0  0  0  0  0  0
    1.9690   11.6722   10.2636 O   0  0  0  0  0  0  0  0  0  0  0  0
    1.3917   12.2644   11.4314 C   0  0  0  0  0  0  0  0  0  0  0  0
    2.4797   13.0179   12.1992 C   0  0  0  0  0  0  0  0  0  0  0  0
    3.3904   12.1230   12.8398 O   0  0  0  0  0  0  0  0  0  0  0  0
    2.8722   11.5464   13.4263 H   0  0  0  0  0  0  0  0  0  0  0  0
 13 14  1  0  0  0
 14 15  2  0  0  0
 15 16  1  0  0  0
 16 17  2  0  0  0
 17  3  1  0  0  0
  3  4  1  0  0  0
  4  5  1  0  0  0
  5  6  1  0  0  0
  6  7  2  0  0  0
  7  8  1  0  0  0
  8  9  1  0  0  0
  9 10  1  0  0  0
 10  1  1  0  0  0
  1 23  1  0  0  0
 23 24  1  0  0  0
 24 25  2  0  0  0
 25 26  1  0  0  0
 26 29  1  0  0  0
 29 30  1  0  0  0
 30 31  1  0  0  0
 31 32  1  0  0  0
 32 35  1  0  0  0
 35 36  1  0  0  0
 36 37  1  0  0  0
 37 38  1  0  0  0
 32 33  1  0  0  0
 33 34  1  0  0  0
 26 27  2  0  0  0
 27 39  1  0  0  0
 39 40  1  0  0  0
 40 41  1  0  0  0
 41 42  1  0  0  0
 27 28  1  0  0  0
 10 11  2  0  0  0
 17 18  1  0  0  0
 18 19  2  0  0  0
 19 20  1  0  0  0
 19 14  1  0  0  0
 11  3  1  0  0  0
  9  5  1  0  0  0
 28 23  1  0  0  0
 34 29  1  0  0  0
 38 35  1  0  0  0
  8 12  1  0  0  0
  1  2  1  0  0  0
 42 43  1  0  0  0
 20 21  1  0  0  0
 20 22  1  0  0  0
M  END
> <minimizedAffinity>
-8.00342

$$$$
