L2:P43405:33947
     RDKit          3D

 63 66  0  0  0  0  0  0  0  0999 V2000
    3.3145   -2.7184   -1.2009 C   0  0  0  0  0  0  0  0  0  0  0  0
    4.1384   -2.7457    0.0525 C   0  0  0  0  0  0  0  0  0  0  0  0
    5.1401   -3.7050    0.2267 C   0  0  0  0  0  0  0  0  0  0  0  0
    5.9204   -3.7107    1.3858 C   0  0  0  0  0  0  0  0  0  0  0  0
    7.0125   -4.7231    1.5626 C   0  0  0  0  0  0  0  0  0  0  0  0
    5.7086   -2.7185    2.3552 C   0  0  0  0  0  0  0  0  0  0  0  0
    4.7212   -1.7303    2.2020 C   0  0  0  0  0  0  0  0  0  0  0  0
    4.5697   -0.7760    3.2145 N   0  0  0  0  0  0  0  0  0  0  0  0
    3.7088    0.3006    3.4045 C   0  0  0  0  0  0  0  0  0  0  0  0
    3.9200    1.0020    4.5314 N   0  0  0  0  0  0  0  0  0  0  0  0
    3.1189    2.0566    4.7611 C   0  0  0  0  0  0  0  0  0  0  0  0
    2.1088    2.4399    3.9172 C   0  0  0  0  0  0  0  0  0  0  0  0
    1.9543    1.6656    2.7890 C   0  0  0  0  0  0  0  0  0  0  0  0
    0.9032    1.9594    1.8003 C   0  0  0  0  0  0  0  0  0  0  0  0
   -0.2634    2.7511    1.9740 C   0  0  0  0  0  0  0  0  0  0  0  0
   -0.9607    2.7049    0.7794 C   0  0  0  0  0  0  0  0  0  0  0  0
   -2.2217    3.3379    0.4831 C   0  0  0  0  0  0  0  0  0  0  0  0
   -2.5743    4.3907    1.0057 O   0  0  0  0  0  0  0  0  0  0  0  0
   -3.0298    2.6492   -0.3825 N   0  0  0  0  0  0  0  0  0  0  0  0
   -4.3431    3.1162   -0.7838 C   0  0  0  0  0  0  0  0  0  0  0  0
   -4.7389    2.5057   -2.1402 C   0  0  0  0  0  0  0  0  0  0  0  0
   -4.4921    1.0478   -2.2070 N   0  0  0  0  0  0  0  0  0  0  0  0
   -5.3717    0.3008   -1.2848 C   0  0  0  0  0  0  0  0  0  0  0  0
   -5.6215   -1.1564   -1.7002 C   0  0  0  0  0  0  0  0  0  0  0  0
   -4.4282   -1.7340   -2.4459 C   0  0  0  0  0  0  0  0  0  0  0  0
   -4.0862   -0.8840   -3.6712 C   0  0  0  0  0  0  0  0  0  0  0  0
   -4.6182    0.5510   -3.5798 C   0  0  0  0  0  0  0  0  0  0  0  0
   -0.1533    1.9784   -0.0560 N   0  0  0  0  0  0  0  0  0  0  0  0
   -0.3032    1.7560   -1.4767 C   0  0  0  0  0  0  0  0  0  0  0  0
    0.9377    1.4767    0.5467 N   0  0  0  0  0  0  0  0  0  0  0  0
    2.7455    0.6022    2.5310 N   0  0  0  0  0  0  0  0  0  0  0  0
    3.9460   -1.7637    1.0382 C   0  0  0  0  0  0  0  0  0  0  0  0
    2.2924   -2.3882   -0.9876 H   0  0  0  0  0  0  0  0  0  0  0  0
    3.7642   -2.0360   -1.9287 H   0  0  0  0  0  0  0  0  0  0  0  0
    3.2467   -3.7155   -1.6487 H   0  0  0  0  0  0  0  0  0  0  0  0
    5.3113   -4.4526   -0.5448 H   0  0  0  0  0  0  0  0  0  0  0  0
    7.9516   -4.3347    1.1565 H   0  0  0  0  0  0  0  0  0  0  0  0
    7.1555   -4.9623    2.6216 H   0  0  0  0  0  0  0  0  0  0  0  0
    6.7660   -5.6587    1.0495 H   0  0  0  0  0  0  0  0  0  0  0  0
    6.3317   -2.7168    3.2470 H   0  0  0  0  0  0  0  0  0  0  0  0
    5.2050   -0.8300    3.9955 H   0  0  0  0  0  0  0  0  0  0  0  0
    3.3241    2.6033    5.6769 H   0  0  0  0  0  0  0  0  0  0  0  0
    1.4951    3.3012    4.1360 H   0  0  0  0  0  0  0  0  0  0  0  0
   -0.5914    3.2710    2.8637 H   0  0  0  0  0  0  0  0  0  0  0  0
   -2.8104    1.6999   -0.6575 H   0  0  0  0  0  0  0  0  0  0  0  0
   -4.3432    4.2098   -0.8447 H   0  0  0  0  0  0  0  0  0  0  0  0
   -5.0474    2.8228    0.0020 H   0  0  0  0  0  0  0  0  0  0  0  0
   -5.7828    2.7486   -2.3734 H   0  0  0  0  0  0  0  0  0  0  0  0
   -4.1178    2.9961   -2.9013 H   0  0  0  0  0  0  0  0  0  0  0  0
   -6.3500    0.7879   -1.1814 H   0  0  0  0  0  0  0  0  0  0  0  0
   -4.9067    0.3049   -0.2919 H   0  0  0  0  0  0  0  0  0  0  0  0
   -5.8431   -1.7617   -0.8142 H   0  0  0  0  0  0  0  0  0  0  0  0
   -6.5062   -1.2058   -2.3479 H   0  0  0  0  0  0  0  0  0  0  0  0
   -4.6257   -2.7682   -2.7491 H   0  0  0  0  0  0  0  0  0  0  0  0
   -3.5626   -1.7643   -1.7719 H   0  0  0  0  0  0  0  0  0  0  0  0
   -2.9966   -0.8740   -3.7988 H   0  0  0  0  0  0  0  0  0  0  0  0
   -4.4995   -1.3532   -4.5721 H   0  0  0  0  0  0  0  0  0  0  0  0
   -5.6623    0.5955   -3.9164 H   0  0  0  0  0  0  0  0  0  0  0  0
   -4.0352    1.1676   -4.2749 H   0  0  0  0  0  0  0  0  0  0  0  0
   -0.9143    0.8620   -1.6207 H   0  0  0  0  0  0  0  0  0  0  0  0
   -0.7707    2.6307   -1.9343 H   0  0  0  0  0  0  0  0  0  0  0  0
    0.6849    1.6089   -1.9222 H   0  0  0  0  0  0  0  0  0  0  0  0
    3.1754   -1.0148    0.8704 H   0  0  0  0  0  0  0  0  0  0  0  0
  1  2  1  0
  2  3  2  0
  3  4  1  0
  4  5  1  0
  4  6  2  0
  6  7  1  0
  7  8  1  0
  8  9  1  0
  9 10  2  0
 10 11  1  0
 11 12  2  0
 12 13  1  0
 13 14  1  0
 14 15  1  0
 15 16  2  0
 16 17  1  0
 17 18  2  0
 17 19  1  0
 19 20  1  0
 20 21  1  0
 21 22  1  0
 22 23  1  0
 23 24  1  0
 24 25  1  0
 25 26  1  0
 26 27  1  0
 16 28  1  0
 28 29  1  0
 28 30  1  0
 13 31  2  0
  7 32  2  0
 32  2  1  0
 31  9  1  0
 30 14  2  0
 27 22  1  0
  1 33  1  0
  1 34  1  0
  1 35  1  0
  3 36  1  0
  5 37  1  0
  5 38  1  0
  5 39  1  0
  6 40  1  0
  8 41  1  0
 11 42  1  0
 12 43  1  0
 15 44  1  0
 19 45  1  0
 20 46  1  0
 20 47  1  0
 21 48  1  0
 21 49  1  0
 23 50  1  0
 23 51  1  0
 24 52  1  0
 24 53  1  0
 25 54  1  0
 25 55  1  0
 26 56  1  0
 26 57  1  0
 27 58  1  0
 27 59  1  0
 29 60  1  0
 29 61  1  0
 29 62  1  0
 32 63  1  0
M  END
>  <mol_id>  (1) 
33947

>  <source_index>  (1) 
3

>  <layer>  (1) 
L2

>  <uniprot>  (1) 
P43405

>  <paff>  (1) 
6.6180000000000003

>  <smiles>  (1) 
Cc1cc(C)cc(Nc2nccc(-c3cc(C(=O)NCCN4CCCCC4)n(C)n3)n2)c1

$$$$
