L2:P43405:33947


 34 37  0  0  0  0  0  0  0  0999 V2000
    1.8833    0.6814   13.9783 C   0  0  0  0  0  0  0  0  0  0  0  0
    1.7639    2.0666   13.6868 C   0  0  0  0  0  0  0  0  0  0  0  0
    3.0333    2.5214   13.3751 C   0  0  0  0  0  0  0  0  0  0  0  0
    3.8416    1.4333   13.5759 N   0  0  0  0  0  0  0  0  0  0  0  0
    5.2862    1.3758   13.5618 C   0  0  0  0  0  0  0  0  0  0  0  0
    3.1712    0.3101   13.8826 N   0  0  0  0  0  0  0  0  0  0  0  0
   -1.3672   -0.9403   14.0020 C   0  0  0  0  0  0  0  0  0  0  0  0
   -1.2488   -1.9272   14.9067 N   0  0  0  0  0  0  0  0  0  0  0  0
   -0.0594   -2.0649   15.5175 C   0  0  0  0  0  0  0  0  0  0  0  0
    1.0186   -1.2549   15.2701 C   0  0  0  0  0  0  0  0  0  0  0  0
    0.8129   -0.2649   14.3353 C   0  0  0  0  0  0  0  0  0  0  0  0
   -0.3700   -0.1044   13.7042 N   0  0  0  0  0  0  0  0  0  0  0  0
   -2.6168   -0.8472   13.3968 N   0  0  0  0  0  0  0  0  0  0  0  0
   -2.6781   -1.5356   12.6628 H   0  0  0  0  0  0  0  0  0  0  0  0
   -5.1381    3.3755   12.5870 C   0  0  0  0  0  0  0  0  0  0  0  0
   -5.0092    2.0372   13.2524 C   0  0  0  0  0  0  0  0  0  0  0  0
   -6.0391    1.5375   14.0546 C   0  0  0  0  0  0  0  0  0  0  0  0
   -5.9235    0.2798   14.6525 C   0  0  0  0  0  0  0  0  0  0  0  0
   -7.0384   -0.2686   15.4922 C   0  0  0  0  0  0  0  0  0  0  0  0
   -4.7755   -0.4889   14.4070 C   0  0  0  0  0  0  0  0  0  0  0  0
   -3.7303   -0.0220   13.5918 C   0  0  0  0  0  0  0  0  0  0  0  0
   -3.8700    1.2481   13.0229 C   0  0  0  0  0  0  0  0  0  0  0  0
    3.4076    3.8590   12.9885 C   0  0  0  0  0  0  0  0  0  0  0  0
    3.9364    4.6499   13.7635 O   0  0  0  0  0  0  0  0  0  0  0  0
    3.0769    4.2085   11.7059 N   0  0  0  0  0  0  0  0  0  0  0  0
    2.4781    3.6179   11.1423 H   0  0  0  0  0  0  0  0  0  0  0  0
    3.3535    5.5166   11.1435 C   0  0  0  0  0  0  0  0  0  0  0  0
    2.0438    6.2103   10.7280 C   0  0  0  0  0  0  0  0  0  0  0  0
    0.8395    5.5053   11.2215 N   0  0  0  0  0  0  0  0  0  0  0  0
    0.1629    6.2626   12.2943 C   0  0  0  0  0  0  0  0  0  0  0  0
   -1.3346    5.9516   12.4317 C   0  0  0  0  0  0  0  0  0  0  0  0
   -1.6430    4.5164   12.0331 C   0  0  0  0  0  0  0  0  0  0  0  0
   -1.1708    4.2325   10.6058 C   0  0  0  0  0  0  0  0  0  0  0  0
   -0.0829    5.1998   10.1247 C   0  0  0  0  0  0  0  0  0  0  0  0
 15 16  1  0  0  0
 16 17  2  0  0  0
 17 18  1  0  0  0
 18 19  1  0  0  0
 18 20  2  0  0  0
 20 21  1  0  0  0
 21 13  1  0  0  0
 13  7  1  0  0  0
  7  8  2  0  0  0
  8  9  1  0  0  0
  9 10  2  0  0  0
 10 11  1  0  0  0
 11  1  1  0  0  0
  1  2  1  0  0  0
  2  3  2  0  0  0
  3 23  1  0  0  0
 23 24  2  0  0  0
 23 25  1  0  0  0
 25 27  1  0  0  0
 27 28  1  0  0  0
 28 29  1  0  0  0
 29 30  1  0  0  0
 30 31  1  0  0  0
 31 32  1  0  0  0
 32 33  1  0  0  0
 33 34  1  0  0  0
  3  4  1  0  0  0
  4  5  1  0  0  0
  4  6  1  0  0  0
 11 12  2  0  0  0
 21 22  2  0  0  0
 22 16  1  0  0  0
 12  7  1  0  0  0
  6  1  2  0  0  0
 34 29  1  0  0  0
 13 14  1  0  0  0
 25 26  1  0  0  0
M  END
> <minimizedAffinity>
-7.89350

$$$$
