L2:P43405:40410
     RDKit          3D

 57 60  0  0  0  0  0  0  0  0999 V2000
   -8.7345    0.9972    0.8817 C   0  0  0  0  0  0  0  0  0  0  0  0
   -7.6541    0.9367   -0.1576 C   0  0  0  0  0  0  0  0  0  0  0  0
   -7.9626    1.0994   -1.5114 C   0  0  0  0  0  0  0  0  0  0  0  0
   -6.9621    1.0039   -2.4818 C   0  0  0  0  0  0  0  0  0  0  0  0
   -7.2841    1.2195   -3.9307 C   0  0  0  0  0  0  0  0  0  0  0  0
   -5.6416    0.7577   -2.0770 C   0  0  0  0  0  0  0  0  0  0  0  0
   -5.3016    0.5742   -0.7256 C   0  0  0  0  0  0  0  0  0  0  0  0
   -3.9639    0.3176   -0.4048 N   0  0  0  0  0  0  0  0  0  0  0  0
   -3.2744    0.0890    0.7820 C   0  0  0  0  0  0  0  0  0  0  0  0
   -3.8880    0.0770    1.9738 N   0  0  0  0  0  0  0  0  0  0  0  0
   -3.1340   -0.1556    3.0620 C   0  0  0  0  0  0  0  0  0  0  0  0
   -1.7846   -0.3770    3.0106 C   0  0  0  0  0  0  0  0  0  0  0  0
   -1.2302   -0.3472    1.7512 C   0  0  0  0  0  0  0  0  0  0  0  0
    0.2080   -0.5665    1.5534 C   0  0  0  0  0  0  0  0  0  0  0  0
    0.9091   -0.5823    0.3191 C   0  0  0  0  0  0  0  0  0  0  0  0
    2.2407   -0.7851    0.6260 C   0  0  0  0  0  0  0  0  0  0  0  0
    3.3573   -0.8606   -0.2784 C   0  0  0  0  0  0  0  0  0  0  0  0
    3.3210   -1.4786   -1.3359 O   0  0  0  0  0  0  0  0  0  0  0  0
    4.4621   -0.1420    0.1241 N   0  0  0  0  0  0  0  0  0  0  0  0
    5.6973   -0.1313   -0.6502 C   0  0  2  0  0  0  0  0  0  0  0  0
    6.5529   -1.3585   -0.3235 C   0  0  0  0  0  0  0  0  0  0  0  0
    7.8709   -1.3520   -1.1048 C   0  0  0  0  0  0  0  0  0  0  0  0
    8.2161    0.0157   -1.6975 C   0  0  0  0  0  0  0  0  0  0  0  0
    7.9416    1.0931   -0.7492 N   0  0  0  0  0  0  0  0  0  0  0  0
    6.5145    1.1610   -0.4016 C   0  0  0  0  0  0  0  0  0  0  0  0
    2.2545   -0.9765    1.9816 N   0  0  0  0  0  0  0  0  0  0  0  0
    3.3670   -1.4018    2.8008 C   0  0  0  0  0  0  0  0  0  0  0  0
    1.0600   -0.7820    2.5724 N   0  0  0  0  0  0  0  0  0  0  0  0
   -1.9572   -0.1163    0.6339 N   0  0  0  0  0  0  0  0  0  0  0  0
   -6.3292    0.6609    0.2186 C   0  0  0  0  0  0  0  0  0  0  0  0
   -9.5516    1.6515    0.5601 H   0  0  0  0  0  0  0  0  0  0  0  0
   -9.1352   -0.0048    1.0632 H   0  0  0  0  0  0  0  0  0  0  0  0
   -8.3478    1.4012    1.8232 H   0  0  0  0  0  0  0  0  0  0  0  0
   -8.9890    1.3015   -1.8107 H   0  0  0  0  0  0  0  0  0  0  0  0
   -6.6209    0.6275   -4.5702 H   0  0  0  0  0  0  0  0  0  0  0  0
   -8.3105    0.9098   -4.1540 H   0  0  0  0  0  0  0  0  0  0  0  0
   -7.1708    2.2776   -4.1856 H   0  0  0  0  0  0  0  0  0  0  0  0
   -4.8637    0.7034   -2.8359 H   0  0  0  0  0  0  0  0  0  0  0  0
   -3.3120    0.2766   -1.1737 H   0  0  0  0  0  0  0  0  0  0  0  0
   -3.6696   -0.1579    4.0064 H   0  0  0  0  0  0  0  0  0  0  0  0
   -1.2004   -0.5620    3.9015 H   0  0  0  0  0  0  0  0  0  0  0  0
    0.4947   -0.4371   -0.6699 H   0  0  0  0  0  0  0  0  0  0  0  0
    4.3944    0.4437    0.9448 H   0  0  0  0  0  0  0  0  0  0  0  0
    5.4246   -0.1721   -1.7131 H   0  0  0  0  0  0  0  0  0  0  0  0
    6.0060   -2.2868   -0.5278 H   0  0  0  0  0  0  0  0  0  0  0  0
    6.7735   -1.3717    0.7526 H   0  0  0  0  0  0  0  0  0  0  0  0
    8.6768   -1.6878   -0.4405 H   0  0  0  0  0  0  0  0  0  0  0  0
    7.8171   -2.0838   -1.9198 H   0  0  0  0  0  0  0  0  0  0  0  0
    9.2772    0.0357   -1.9703 H   0  0  0  0  0  0  0  0  0  0  0  0
    7.6596    0.1856   -2.6275 H   0  0  0  0  0  0  0  0  0  0  0  0
    8.4864    0.9285    0.0980 H   0  0  0  0  0  0  0  0  0  0  0  0
    6.0536    1.9801   -0.9670 H   0  0  0  0  0  0  0  0  0  0  0  0
    6.4424    1.4547    0.6534 H   0  0  0  0  0  0  0  0  0  0  0  0
    2.9848   -1.9552    3.6630 H   0  0  0  0  0  0  0  0  0  0  0  0
    4.0193   -2.0552    2.2167 H   0  0  0  0  0  0  0  0  0  0  0  0
    3.9050   -0.5109    3.1328 H   0  0  0  0  0  0  0  0  0  0  0  0
   -6.1147    0.5185    1.2737 H   0  0  0  0  0  0  0  0  0  0  0  0
  1  2  1  0
  2  3  2  0
  3  4  1  0
  4  5  1  0
  4  6  2  0
  6  7  1  0
  7  8  1  0
  8  9  1  0
  9 10  2  0
 10 11  1  0
 11 12  2  0
 12 13  1  0
 13 14  1  0
 14 15  1  0
 15 16  2  0
 16 17  1  0
 17 18  2  0
 17 19  1  0
 19 20  1  0
 20 21  1  0
 21 22  1  0
 22 23  1  0
 23 24  1  0
 24 25  1  0
 16 26  1  0
 26 27  1  0
 26 28  1  0
 13 29  2  0
  7 30  2  0
 30  2  1  0
 29  9  1  0
 28 14  2  0
 25 20  1  0
  1 31  1  0
  1 32  1  0
  1 33  1  0
  3 34  1  0
  5 35  1  0
  5 36  1  0
  5 37  1  0
  6 38  1  0
  8 39  1  0
 11 40  1  0
 12 41  1  0
 15 42  1  0
 19 43  1  0
 20 44  1  6
 21 45  1  0
 21 46  1  0
 22 47  1  0
 22 48  1  0
 23 49  1  0
 23 50  1  0
 24 51  1  0
 25 52  1  0
 25 53  1  0
 27 54  1  0
 27 55  1  0
 27 56  1  0
 30 57  1  0
M  END
>  <mol_id>  (1) 
40410

>  <source_index>  (1) 
4

>  <layer>  (1) 
L2

>  <uniprot>  (1) 
P43405

>  <paff>  (1) 
7.2290999999999999

>  <smiles>  (1) 
Cc1cc(C)cc(Nc2nccc(-c3cc(C(=O)N[C@@H]4CCCNC4)n(C)n3)n2)c1

$$$$
