L2:P43405:40410


 33 36  0  0  0  0  0  0  0  0999 V2000
    2.5281    5.8877   11.0248 C   0  0  0  0  0  0  0  0  0  0  0  0
    1.3445    5.7700   11.7996 C   0  0  0  0  0  0  0  0  0  0  0  0
    0.4345    6.6614   11.2650 C   0  0  0  0  0  0  0  0  0  0  0  0
    1.0667    7.1787   10.1663 N   0  0  0  0  0  0  0  0  0  0  0  0
    0.5017    8.0287    9.1426 C   0  0  0  0  0  0  0  0  0  0  0  0
    2.3481    6.7847   10.0381 N   0  0  0  0  0  0  0  0  0  0  0  0
    4.8443    3.2975   12.0633 C   0  0  0  0  0  0  0  0  0  0  0  0
    6.0439    3.7433   11.6644 N   0  0  0  0  0  0  0  0  0  0  0  0
    6.0912    4.9294   11.0337 C   0  0  0  0  0  0  0  0  0  0  0  0
    4.9847    5.6947   10.7839 C   0  0  0  0  0  0  0  0  0  0  0  0
    3.7922    5.1683   11.2256 C   0  0  0  0  0  0  0  0  0  0  0  0
    3.7060    3.9784   11.8636 N   0  0  0  0  0  0  0  0  0  0  0  0
    4.6863    2.0819   12.7217 N   0  0  0  0  0  0  0  0  0  0  0  0
    5.5960    1.6736   12.8751 H   0  0  0  0  0  0  0  0  0  0  0  0
   -0.2104    1.1447   12.8607 C   0  0  0  0  0  0  0  0  0  0  0  0
    1.1949    0.8349   13.2850 C   0  0  0  0  0  0  0  0  0  0  0  0
    1.4485   -0.1828   14.2093 C   0  0  0  0  0  0  0  0  0  0  0  0
    2.7536   -0.4446   14.6336 C   0  0  0  0  0  0  0  0  0  0  0  0
    3.0319   -1.5631   15.5933 C   0  0  0  0  0  0  0  0  0  0  0  0
    3.8070    0.3179   14.1073 C   0  0  0  0  0  0  0  0  0  0  0  0
    3.5835    1.3578   13.1884 C   0  0  0  0  0  0  0  0  0  0  0  0
    2.2641    1.6037   12.7964 C   0  0  0  0  0  0  0  0  0  0  0  0
   -0.9073    6.9316   11.7088 C   0  0  0  0  0  0  0  0  0  0  0  0
   -1.2374    7.9868   12.2372 O   0  0  0  0  0  0  0  0  0  0  0  0
   -1.8044    5.9179   11.4509 N   0  0  0  0  0  0  0  0  0  0  0  0
   -1.5021    5.1214   10.9074 H   0  0  0  0  0  0  0  0  0  0  0  0
   -3.2007    6.0028   11.8615 C   0  0  0  0  0  0  0  0  0  0  0  0
   -3.4444    5.1790   13.1290 C   0  0  0  0  0  0  0  0  0  0  0  0
   -4.9134    5.2299   13.5617 C   0  0  0  0  0  0  0  0  0  0  0  0
   -5.8518    5.7257   12.4596 C   0  0  0  0  0  0  0  0  0  0  0  0
   -5.5077    5.1443   11.1638 N   0  0  0  0  0  0  0  0  0  0  0  0
   -4.1552    5.5314   10.7361 C   0  0  0  0  0  0  0  0  0  0  0  0
   -5.5583    4.1277   11.2389 H   0  0  0  0  0  0  0  0  0  0  0  0
 15 16  1  0  0  0
 16 17  2  0  0  0
 17 18  1  0  0  0
 18 19  1  0  0  0
 18 20  2  0  0  0
 20 21  1  0  0  0
 21 13  1  0  0  0
 13  7  1  0  0  0
  7  8  2  0  0  0
  8  9  1  0  0  0
  9 10  2  0  0  0
 10 11  1  0  0  0
 11  1  1  0  0  0
  1  2  1  0  0  0
  2  3  2  0  0  0
  3 23  1  0  0  0
 23 24  2  0  0  0
 23 25  1  0  0  0
 25 27  1  0  0  0
 27 28  1  0  0  0
 28 29  1  0  0  0
 29 30  1  0  0  0
 30 31  1  0  0  0
 31 32  1  0  0  0
  3  4  1  0  0  0
  4  5  1  0  0  0
  4  6  1  0  0  0
 11 12  2  0  0  0
 21 22  2  0  0  0
 22 16  1  0  0  0
 12  7  1  0  0  0
  6  1  2  0  0  0
 32 27  1  0  0  0
 13 14  1  0  0  0
 25 26  1  0  0  0
 31 33  1  0  0  0
M  END
> <minimizedAffinity>
-8.63154

$$$$
