L2:P43405:458
 OpenBabel09212617453D

 50 52  0  0  0  0  0  0  0  0999 V2000
    3.9625    0.6100   14.1428 C   0  0  0  0  0  0  0  0  0  0  0  0
    5.1027    0.5919   14.8472 N   0  0  0  0  0  0  0  0  0  0  0  0
    5.9103    1.6628   14.7564 C   0  0  0  0  0  0  0  0  0  0  0  0
    5.6259    2.7575   13.9869 C   0  0  0  0  0  0  0  0  0  0  0  0
    4.4375    2.6987   13.2948 C   0  0  0  0  0  0  0  0  0  0  0  0
    3.5984    1.6382   13.3612 N   0  0  0  0  0  0  0  0  0  0  0  0
    4.0123    3.8074   12.4314 C   0  0  0  0  0  0  0  0  0  0  0  0
    2.6889    4.2897   12.2475 C   0  0  0  0  0  0  0  0  0  0  0  0
    2.7658    5.3384   11.3468 C   0  0  0  0  0  0  0  0  0  0  0  0
    4.1042    5.4255   11.0473 N   0  0  0  0  0  0  0  0  0  0  0  0
    4.7426    6.3688   10.1556 C   0  0  0  0  0  0  0  0  0  0  0  0
    4.8717    4.5175   11.6838 N   0  0  0  0  0  0  0  0  0  0  0  0
    1.7438    6.1945   10.7855 C   0  0  0  0  0  0  0  0  0  0  0  0
    1.2936    6.0506    9.6511 O   0  0  0  0  0  0  0  0  0  0  0  0
    1.3013    7.1994   11.6180 N   0  0  0  0  0  0  0  0  0  0  0  0
    1.7501    7.3390   12.5096 H   0  0  0  0  0  0  0  0  0  0  0  0
    0.3170    8.1741   11.1872 C   0  0  0  0  0  0  0  0  0  0  0  0
   -1.0837    7.9156   11.7750 C   0  0  0  0  0  0  0  0  0  0  0  0
   -1.0606    7.3417   13.1203 N   0  0  0  0  0  0  0  0  0  0  0  0
   -0.2948    7.7601   13.6556 H   0  0  0  0  0  0  0  0  0  0  0  0
   -1.9238    7.5652   13.6110 H   0  0  0  0  0  0  0  0  0  0  0  0
    3.0592   -0.4485   14.1696 N   0  0  0  0  0  0  0  0  0  0  0  0
    3.5669   -1.3141   14.0713 H   0  0  0  0  0  0  0  0  0  0  0  0
   -1.3456    1.5635   13.2627 C   0  0  0  0  0  0  0  0  0  0  0  0
   -0.5281    0.4441   13.8355 C   0  0  0  0  0  0  0  0  0  0  0  0
   -1.1454   -0.6057   14.5200 C   0  0  0  0  0  0  0  0  0  0  0  0
   -0.3809   -1.6362   15.0746 C   0  0  0  0  0  0  0  0  0  0  0  0
   -1.0410   -2.7508   15.8317 C   0  0  0  0  0  0  0  0  0  0  0  0
    1.0190   -1.5888   14.9690 C   0  0  0  0  0  0  0  0  0  0  0  0
    1.6695   -0.5453   14.3035 C   0  0  0  0  0  0  0  0  0  0  0  0
    0.8717    0.4678   13.7440 C   0  0  0  0  0  0  0  0  0  0  0  0
    6.7905    1.6588   15.2952 H   0  0  0  0  0  0  0  0  0  0  0  0
    6.2584    3.5709   13.9293 H   0  0  0  0  0  0  0  0  0  0  0  0
    1.8342    3.9279   12.6987 H   0  0  0  0  0  0  0  0  0  0  0  0
    4.0032    7.0163    9.7326 H   0  0  0  0  0  0  0  0  0  0  0  0
    5.2417    5.8375    9.3723 H   0  0  0  0  0  0  0  0  0  0  0  0
    5.4552    6.9504   10.7024 H   0  0  0  0  0  0  0  0  0  0  0  0
    0.2500    8.1421   10.1198 H   0  0  0  0  0  0  0  0  0  0  0  0
    0.6398    9.1318   11.5387 H   0  0  0  0  0  0  0  0  0  0  0  0
   -1.6018    7.2389   11.1280 H   0  0  0  0  0  0  0  0  0  0  0  0
   -1.5718    8.8649   11.8486 H   0  0  0  0  0  0  0  0  0  0  0  0
   -2.3843    1.3679   13.4290 H   0  0  0  0  0  0  0  0  0  0  0  0
   -1.1606    1.6386   12.2115 H   0  0  0  0  0  0  0  0  0  0  0  0
   -1.0751    2.4827   13.7390 H   0  0  0  0  0  0  0  0  0  0  0  0
   -2.1727   -0.6205   14.6169 H   0  0  0  0  0  0  0  0  0  0  0  0
   -2.1027   -2.6208   15.8043 H   0  0  0  0  0  0  0  0  0  0  0  0
   -0.7063   -2.7389   16.8479 H   0  0  0  0  0  0  0  0  0  0  0  0
   -0.7847   -3.6876   15.3828 H   0  0  0  0  0  0  0  0  0  0  0  0
    1.5814   -2.3430   15.3932 H   0  0  0  0  0  0  0  0  0  0  0  0
    1.3287    1.2514   13.2519 H   0  0  0  0  0  0  0  0  0  0  0  0
  1  2  2  0  0  0  0
  2  3  1  0  0  0  0
  3  4  2  0  0  0  0
  3 32  1  0  0  0  0
  4  5  1  0  0  0  0
  4 33  1  0  0  0  0
  5  7  1  0  0  0  0
  5  6  2  0  0  0  0
  6  1  1  0  0  0  0
  7  8  1  0  0  0  0
  8  9  2  0  0  0  0
  8 34  1  0  0  0  0
  9 13  1  0  0  0  0
  9 10  1  0  0  0  0
 10 11  1  0  0  0  0
 10 12  1  0  0  0  0
 11 35  1  0  0  0  0
 11 36  1  0  0  0  0
 11 37  1  0  0  0  0
 12  7  2  0  0  0  0
 13 14  2  0  0  0  0
 13 15  1  0  0  0  0
 15 17  1  0  0  0  0
 15 16  1  0  0  0  0
 17 18  1  0  0  0  0
 17 38  1  0  0  0  0
 17 39  1  0  0  0  0
 18 19  1  0  0  0  0
 18 40  1  0  0  0  0
 18 41  1  0  0  0  0
 19 20  1  0  0  0  0
 19 21  1  0  0  0  0
 22  1  1  0  0  0  0
 22 23  1  0  0  0  0
 24 25  1  0  0  0  0
 24 42  1  0  0  0  0
 24 43  1  0  0  0  0
 24 44  1  0  0  0  0
 25 26  2  0  0  0  0
 26 27  1  0  0  0  0
 26 45  1  0  0  0  0
 27 28  1  0  0  0  0
 27 29  2  0  0  0  0
 28 46  1  0  0  0  0
 28 47  1  0  0  0  0
 28 48  1  0  0  0  0
 29 30  1  0  0  0  0
 29 49  1  0  0  0  0
 30 22  1  0  0  0  0
 30 31  2  0  0  0  0
 31 25  1  0  0  0  0
 31 50  1  0  0  0  0
M  END
>  <minimizedAffinity>
-8.23225

$$$$
