L2:P43405:458
     RDKit          3D

 50 52  0  0  0  0  0  0  0  0999 V2000
   -6.0904    1.0298    3.1632 C   0  0  0  0  0  0  0  0  0  0  0  0
   -5.6803    0.4972    1.8225 C   0  0  0  0  0  0  0  0  0  0  0  0
   -6.6303   -0.0508    0.9571 C   0  0  0  0  0  0  0  0  0  0  0  0
   -6.2439   -0.5691   -0.2823 C   0  0  0  0  0  0  0  0  0  0  0  0
   -7.2598   -1.1808   -1.2016 C   0  0  0  0  0  0  0  0  0  0  0  0
   -4.8845   -0.5672   -0.6361 C   0  0  0  0  0  0  0  0  0  0  0  0
   -3.9064   -0.0399    0.2125 C   0  0  0  0  0  0  0  0  0  0  0  0
   -2.5401   -0.0133   -0.0895 N   0  0  0  0  0  0  0  0  0  0  0  0
   -1.7747   -0.4376   -1.1717 C   0  0  0  0  0  0  0  0  0  0  0  0
   -2.3215   -1.0288   -2.2432 N   0  0  0  0  0  0  0  0  0  0  0  0
   -1.4986   -1.4039   -3.2379 C   0  0  0  0  0  0  0  0  0  0  0  0
   -0.1444   -1.2121   -3.2077 C   0  0  0  0  0  0  0  0  0  0  0  0
    0.3389   -0.5990   -2.0741 C   0  0  0  0  0  0  0  0  0  0  0  0
    1.7739   -0.3333   -1.9142 C   0  0  0  0  0  0  0  0  0  0  0  0
    2.4114    0.2841   -0.8051 C   0  0  0  0  0  0  0  0  0  0  0  0
    3.7650    0.3265   -1.0931 C   0  0  0  0  0  0  0  0  0  0  0  0
    4.8873    0.8450   -0.3420 C   0  0  0  0  0  0  0  0  0  0  0  0
    6.0278    0.9102   -0.7950 O   0  0  0  0  0  0  0  0  0  0  0  0
    4.5906    1.2666    0.9358 N   0  0  0  0  0  0  0  0  0  0  0  0
    5.6137    1.7642    1.8359 C   0  0  0  0  0  0  0  0  0  0  0  0
    6.2357    0.6587    2.7106 C   0  0  0  0  0  0  0  0  0  0  0  0
    6.6803   -0.5109    1.9530 N   0  0  0  0  0  0  0  0  0  0  0  0
    3.8621   -0.2569   -2.3336 N   0  0  0  0  0  0  0  0  0  0  0  0
    5.0654   -0.4793   -3.1051 C   0  0  0  0  0  0  0  0  0  0  0  0
    2.6820   -0.6593   -2.8474 N   0  0  0  0  0  0  0  0  0  0  0  0
   -0.4581   -0.2075   -1.0520 N   0  0  0  0  0  0  0  0  0  0  0  0
   -4.3291    0.4871    1.4452 C   0  0  0  0  0  0  0  0  0  0  0  0
   -7.1099    1.4284    3.1308 H   0  0  0  0  0  0  0  0  0  0  0  0
   -5.4328    1.8476    3.4761 H   0  0  0  0  0  0  0  0  0  0  0  0
   -6.0459    0.2330    3.9119 H   0  0  0  0  0  0  0  0  0  0  0  0
   -7.6785   -0.0732    1.2483 H   0  0  0  0  0  0  0  0  0  0  0  0
   -7.3435   -2.2541   -1.0051 H   0  0  0  0  0  0  0  0  0  0  0  0
   -8.2427   -0.7185   -1.0625 H   0  0  0  0  0  0  0  0  0  0  0  0
   -6.9775   -1.0323   -2.2492 H   0  0  0  0  0  0  0  0  0  0  0  0
   -4.6040   -0.9926   -1.5953 H   0  0  0  0  0  0  0  0  0  0  0  0
   -1.9312    0.4004    0.5994 H   0  0  0  0  0  0  0  0  0  0  0  0
   -1.9813   -1.8789   -4.0867 H   0  0  0  0  0  0  0  0  0  0  0  0
    0.4968   -1.5231   -4.0213 H   0  0  0  0  0  0  0  0  0  0  0  0
    1.9149    0.6516    0.0813 H   0  0  0  0  0  0  0  0  0  0  0  0
    3.6632    1.1225    1.3032 H   0  0  0  0  0  0  0  0  0  0  0  0
    6.3972    2.2602    1.2517 H   0  0  0  0  0  0  0  0  0  0  0  0
    5.1440    2.5187    2.4755 H   0  0  0  0  0  0  0  0  0  0  0  0
    5.5007    0.3225    3.4500 H   0  0  0  0  0  0  0  0  0  0  0  0
    7.0834    1.0834    3.2596 H   0  0  0  0  0  0  0  0  0  0  0  0
    7.0821   -0.2065    1.0619 H   0  0  0  0  0  0  0  0  0  0  0  0
    7.4161   -0.9977    2.4605 H   0  0  0  0  0  0  0  0  0  0  0  0
    4.8134   -1.0167   -4.0237 H   0  0  0  0  0  0  0  0  0  0  0  0
    5.7552   -1.0827   -2.5103 H   0  0  0  0  0  0  0  0  0  0  0  0
    5.4996    0.4909   -3.3576 H   0  0  0  0  0  0  0  0  0  0  0  0
   -3.5919    0.8971    2.1323 H   0  0  0  0  0  0  0  0  0  0  0  0
  1  2  1  0
  2  3  2  0
  3  4  1  0
  4  5  1  0
  4  6  2  0
  6  7  1  0
  7  8  1  0
  8  9  1  0
  9 10  2  0
 10 11  1  0
 11 12  2  0
 12 13  1  0
 13 14  1  0
 14 15  1  0
 15 16  2  0
 16 17  1  0
 17 18  2  0
 17 19  1  0
 19 20  1  0
 20 21  1  0
 21 22  1  0
 16 23  1  0
 23 24  1  0
 23 25  1  0
 13 26  2  0
  7 27  2  0
 27  2  1  0
 26  9  1  0
 25 14  2  0
  1 28  1  0
  1 29  1  0
  1 30  1  0
  3 31  1  0
  5 32  1  0
  5 33  1  0
  5 34  1  0
  6 35  1  0
  8 36  1  0
 11 37  1  0
 12 38  1  0
 15 39  1  0
 19 40  1  0
 20 41  1  0
 20 42  1  0
 21 43  1  0
 21 44  1  0
 22 45  1  0
 22 46  1  0
 24 47  1  0
 24 48  1  0
 24 49  1  0
 27 50  1  0
M  END
>  <mol_id>  (1) 
458

>  <source_index>  (1) 
0

>  <layer>  (1) 
L2

>  <uniprot>  (1) 
P43405

>  <paff>  (1) 
7.1367000000000003

>  <smiles>  (1) 
Cc1cc(C)cc(Nc2nccc(-c3cc(C(=O)NCCN)n(C)n3)n2)c1

$$$$
