L2:P43405:67215


 31 35  0  0  0  0  0  0  0  0999 V2000
    5.6516    1.5111   13.7395 C   0  0  0  0  0  0  0  0  0  0  0  0
    5.3354    2.5984   12.9550 C   0  0  0  0  0  0  0  0  0  0  0  0
    4.0671    2.8683   12.5839 N   0  0  0  0  0  0  0  0  0  0  0  0
    3.1005    2.0124   13.0309 C   0  0  0  0  0  0  0  0  0  0  0  0
    1.7413    2.1714   12.7158 C   0  0  0  0  0  0  0  0  0  0  0  0
    0.7771    1.3248   13.1466 N   0  0  0  0  0  0  0  0  0  0  0  0
    1.1224    0.2711   13.9197 C   0  0  0  0  0  0  0  0  0  0  0  0
    2.4455    0.0418   14.2651 C   0  0  0  0  0  0  0  0  0  0  0  0
    3.4361    0.9020   13.8302 C   0  0  0  0  0  0  0  0  0  0  0  0
    4.7133    0.6483   14.1857 N   0  0  0  0  0  0  0  0  0  0  0  0
    0.0096   -0.6025   14.3485 C   0  0  0  0  0  0  0  0  0  0  0  0
    0.2307   -1.6699   15.2304 C   0  0  0  0  0  0  0  0  0  0  0  0
   -0.8140   -2.5081   15.6524 C   0  0  0  0  0  0  0  0  0  0  0  0
   -2.1326   -2.3301   15.2161 C   0  0  0  0  0  0  0  0  0  0  0  0
   -2.3475   -1.2678   14.3282 C   0  0  0  0  0  0  0  0  0  0  0  0
   -1.3065   -0.4257   13.9004 C   0  0  0  0  0  0  0  0  0  0  0  0
   -3.1598   -3.1550   15.6327 N   0  0  0  0  0  0  0  0  0  0  0  0
   -4.2675   -2.6622   16.4666 C   0  0  0  0  0  0  0  0  0  0  0  0
   -4.8512   -3.8138   17.3031 C   0  0  0  0  0  0  0  0  0  0  0  0
   -5.3490   -4.9113   16.5251 O   0  0  0  0  0  0  0  0  0  0  0  0
   -4.6725   -5.0686   15.2701 C   0  0  0  0  0  0  0  0  0  0  0  0
   -3.2134   -4.5810   15.2759 C   0  0  0  0  0  0  0  0  0  0  0  0
    1.3581    3.2800   11.9607 N   0  0  0  0  0  0  0  0  0  0  0  0
    1.6169    4.1747   12.3641 H   0  0  0  0  0  0  0  0  0  0  0  0
    1.0871    3.1444   10.5463 C   0  0  0  0  0  0  0  0  0  0  0  0
    1.4814    4.4223    9.8114 C   0  0  0  0  0  0  0  0  0  0  0  0
    0.3211    5.3923    9.6356 C   0  0  0  0  0  0  0  0  0  0  0  0
    1.0386    6.7104    9.4306 C   0  0  0  0  0  0  0  0  0  0  0  0
    2.1230    6.6594   10.4070 N   0  0  0  0  0  0  0  0  0  0  0  0
    2.5346    5.2559   10.5437 C   0  0  0  0  0  0  0  0  0  0  0  0
    2.9055    7.2439   10.1189 H   0  0  0  0  0  0  0  0  0  0  0  0
  1  2  2  0  0  0
  2  3  1  0  0  0
  3  4  2  0  0  0
  4  5  1  0  0  0
  5 23  1  0  0  0
 23 25  1  0  0  0
 25 26  1  0  0  0
 26 27  1  0  0  0
 27 28  1  0  0  0
 28 29  1  0  0  0
 29 30  1  0  0  0
  5  6  2  0  0  0
  6  7  1  0  0  0
  7 11  1  0  0  0
 11 12  2  0  0  0
 12 13  1  0  0  0
 13 14  2  0  0  0
 14 17  1  0  0  0
 17 18  1  0  0  0
 18 19  1  0  0  0
 19 20  1  0  0  0
 20 21  1  0  0  0
 21 22  1  0  0  0
 14 15  1  0  0  0
 15 16  2  0  0  0
  7  8  2  0  0  0
  8  9  1  0  0  0
  9 10  2  0  0  0
 10  1  1  0  0  0
  9  4  1  0  0  0
 30 26  1  0  0  0
 16 11  1  0  0  0
 22 17  1  0  0  0
 23 24  1  0  0  0
 29 31  1  0  0  0
M  END
> <minimizedAffinity>
-8.19159

$$$$
