L2:P43405:67215
     RDKit          3D

 55 59  0  0  0  0  0  0  0  0999 V2000
    2.7167   -5.6100    0.9913 C   0  0  0  0  0  0  0  0  0  0  0  0
    3.8552   -4.8549    0.8141 C   0  0  0  0  0  0  0  0  0  0  0  0
    3.8031   -3.5361    0.5361 N   0  0  0  0  0  0  0  0  0  0  0  0
    2.5603   -2.9759    0.4449 C   0  0  0  0  0  0  0  0  0  0  0  0
    2.3601   -1.6164    0.1558 C   0  0  0  0  0  0  0  0  0  0  0  0
    3.4782   -0.7949    0.0100 N   0  0  0  0  0  0  0  0  0  0  0  0
    3.3214    0.6003   -0.3379 C   0  0  0  0  0  0  0  0  0  0  0  0
    4.6783    1.2984   -0.3324 C   0  0  1  0  0  0  0  0  0  0  0  0
    4.6165    2.7279   -0.8527 C   0  0  0  0  0  0  0  0  0  0  0  0
    5.8594    3.3413   -0.2417 C   0  0  0  0  0  0  0  0  0  0  0  0
    5.8703    2.8005    1.1146 N   0  0  0  0  0  0  0  0  0  0  0  0
    5.2875    1.4531    1.0623 C   0  0  0  0  0  0  0  0  0  0  0  0
    1.1334   -1.0533    0.0552 N   0  0  0  0  0  0  0  0  0  0  0  0
    0.0377   -1.8228    0.2407 C   0  0  0  0  0  0  0  0  0  0  0  0
   -1.2622   -1.1299    0.1152 C   0  0  0  0  0  0  0  0  0  0  0  0
   -1.3984    0.0037   -0.6986 C   0  0  0  0  0  0  0  0  0  0  0  0
   -2.6255    0.6729   -0.8338 C   0  0  0  0  0  0  0  0  0  0  0  0
   -3.7804    0.2511   -0.1636 C   0  0  0  0  0  0  0  0  0  0  0  0
   -4.9874    0.9100   -0.2981 N   0  0  0  0  0  0  0  0  0  0  0  0
   -5.0685    2.3028   -0.7659 C   0  0  0  0  0  0  0  0  0  0  0  0
   -6.3371    2.9730   -0.2107 C   0  0  0  0  0  0  0  0  0  0  0  0
   -7.5581    2.3186   -0.5829 O   0  0  0  0  0  0  0  0  0  0  0  0
   -7.4017    0.9095   -0.8006 C   0  0  0  0  0  0  0  0  0  0  0  0
   -6.2712    0.2670    0.0214 C   0  0  0  0  0  0  0  0  0  0  0  0
   -3.6377   -0.8767    0.6553 C   0  0  0  0  0  0  0  0  0  0  0  0
   -2.4123   -1.5507    0.7966 C   0  0  0  0  0  0  0  0  0  0  0  0
    0.1541   -3.1760    0.5197 C   0  0  0  0  0  0  0  0  0  0  0  0
    1.4030   -3.7586    0.6251 C   0  0  0  0  0  0  0  0  0  0  0  0
    1.4788   -5.0784    0.8980 N   0  0  0  0  0  0  0  0  0  0  0  0
    2.7650   -6.6698    1.2139 H   0  0  0  0  0  0  0  0  0  0  0  0
    4.8451   -5.2896    0.8903 H   0  0  0  0  0  0  0  0  0  0  0  0
    4.3438   -1.2906   -0.1776 H   0  0  0  0  0  0  0  0  0  0  0  0
    2.6456    1.1010    0.3668 H   0  0  0  0  0  0  0  0  0  0  0  0
    2.8778    0.6788   -1.3382 H   0  0  0  0  0  0  0  0  0  0  0  0
    5.3838    0.7361   -0.9612 H   0  0  0  0  0  0  0  0  0  0  0  0
    4.6269    2.7710   -1.9460 H   0  0  0  0  0  0  0  0  0  0  0  0
    3.7159    3.2426   -0.4950 H   0  0  0  0  0  0  0  0  0  0  0  0
    5.8221    4.4340   -0.2388 H   0  0  0  0  0  0  0  0  0  0  0  0
    6.7566    3.0224   -0.7850 H   0  0  0  0  0  0  0  0  0  0  0  0
    6.8152    2.7761    1.4935 H   0  0  0  0  0  0  0  0  0  0  0  0
    6.0572    0.6913    1.2288 H   0  0  0  0  0  0  0  0  0  0  0  0
    4.5426    1.3579    1.8591 H   0  0  0  0  0  0  0  0  0  0  0  0
   -0.5382    0.3811   -1.2499 H   0  0  0  0  0  0  0  0  0  0  0  0
   -2.6542    1.5292   -1.5016 H   0  0  0  0  0  0  0  0  0  0  0  0
   -4.2059    2.8867   -0.4251 H   0  0  0  0  0  0  0  0  0  0  0  0
   -5.0900    2.3097   -1.8619 H   0  0  0  0  0  0  0  0  0  0  0  0
   -6.3002    3.0025    0.8848 H   0  0  0  0  0  0  0  0  0  0  0  0
   -6.3994    4.0081   -0.5617 H   0  0  0  0  0  0  0  0  0  0  0  0
   -8.3577    0.4325   -0.5618 H   0  0  0  0  0  0  0  0  0  0  0  0
   -7.2220    0.7599   -1.8719 H   0  0  0  0  0  0  0  0  0  0  0  0
   -6.2494   -0.8023   -0.2185 H   0  0  0  0  0  0  0  0  0  0  0  0
   -6.4726    0.3853    1.0924 H   0  0  0  0  0  0  0  0  0  0  0  0
   -4.4800   -1.2461    1.2340 H   0  0  0  0  0  0  0  0  0  0  0  0
   -2.3792   -2.4006    1.4743 H   0  0  0  0  0  0  0  0  0  0  0  0
   -0.7223   -3.8027    0.6435 H   0  0  0  0  0  0  0  0  0  0  0  0
  1  2  2  0
  2  3  1  0
  3  4  2  0
  4  5  1  0
  5  6  1  0
  6  7  1  0
  7  8  1  0
  8  9  1  0
  9 10  1  0
 10 11  1  0
 11 12  1  0
  5 13  2  0
 13 14  1  0
 14 15  1  0
 15 16  2  0
 16 17  1  0
 17 18  2  0
 18 19  1  0
 19 20  1  0
 20 21  1  0
 21 22  1  0
 22 23  1  0
 23 24  1  0
 18 25  1  0
 25 26  2  0
 14 27  2  0
 27 28  1  0
 28 29  2  0
 29  1  1  0
 28  4  1  0
 12  8  1  0
 26 15  1  0
 24 19  1  0
  1 30  1  0
  2 31  1  0
  6 32  1  0
  7 33  1  0
  7 34  1  0
  8 35  1  6
  9 36  1  0
  9 37  1  0
 10 38  1  0
 10 39  1  0
 11 40  1  0
 12 41  1  0
 12 42  1  0
 16 43  1  0
 17 44  1  0
 20 45  1  0
 20 46  1  0
 21 47  1  0
 21 48  1  0
 23 49  1  0
 23 50  1  0
 24 51  1  0
 24 52  1  0
 25 53  1  0
 26 54  1  0
 27 55  1  0
M  END
>  <mol_id>  (1) 
67215

>  <source_index>  (1) 
5

>  <layer>  (1) 
L2

>  <uniprot>  (1) 
P43405

>  <paff>  (1) 
6.7234999999999996

>  <smiles>  (1) 
c1cnc2c(NC[C@H]3CCNC3)nc(-c3ccc(N4CCOCC4)cc3)cc2n1

$$$$
