L2:P43405:73311
     RDKit          3D

 60 63  0  0  0  0  0  0  0  0999 V2000
   -5.3619   -2.9325    0.8868 C   0  0  0  0  0  0  0  0  0  0  0  0
   -6.0722   -1.6778    0.4717 C   0  0  0  0  0  0  0  0  0  0  0  0
   -7.4214   -1.7110    0.1074 C   0  0  0  0  0  0  0  0  0  0  0  0
   -8.0694   -0.5472   -0.3147 C   0  0  0  0  0  0  0  0  0  0  0  0
   -9.5269   -0.5733   -0.6670 C   0  0  0  0  0  0  0  0  0  0  0  0
   -7.3513    0.6576   -0.3525 C   0  0  0  0  0  0  0  0  0  0  0  0
   -5.9911    0.7214   -0.0045 C   0  0  0  0  0  0  0  0  0  0  0  0
   -5.3371    1.9556   -0.0939 N   0  0  0  0  0  0  0  0  0  0  0  0
   -4.0210    2.3654    0.0951 C   0  0  0  0  0  0  0  0  0  0  0  0
   -3.8123    3.6856   -0.0512 N   0  0  0  0  0  0  0  0  0  0  0  0
   -2.5579    4.1374    0.1215 C   0  0  0  0  0  0  0  0  0  0  0  0
   -1.4958    3.3259    0.4235 C   0  0  0  0  0  0  0  0  0  0  0  0
   -1.7950    1.9880    0.5484 C   0  0  0  0  0  0  0  0  0  0  0  0
   -0.7462    1.0078    0.8585 C   0  0  0  0  0  0  0  0  0  0  0  0
    0.6116    1.0246    0.4351 C   0  0  0  0  0  0  0  0  0  0  0  0
    1.2109   -0.1044    0.9710 C   0  0  0  0  0  0  0  0  0  0  0  0
    2.5634   -0.6068    0.8764 C   0  0  0  0  0  0  0  0  0  0  0  0
    2.9869   -1.5355    1.5575 O   0  0  0  0  0  0  0  0  0  0  0  0
    3.3560    0.0271   -0.0553 N   0  0  0  0  0  0  0  0  0  0  0  0
    4.7307   -0.3831   -0.2904 C   0  0  0  0  0  0  0  0  0  0  0  0
    5.5564    0.7381   -0.9470 C   0  0  0  0  0  0  0  0  0  0  0  0
    6.9595    0.4741   -1.2590 N   0  0  0  0  0  0  0  0  0  0  0  0
    7.1958   -0.6238   -2.1907 C   0  0  0  0  0  0  0  0  0  0  0  0
    8.7068   -0.7948   -2.1229 C   0  0  0  0  0  0  0  0  0  0  0  0
    9.1078   -0.2652   -0.7486 C   0  0  0  0  0  0  0  0  0  0  0  0
    7.8086    0.1982   -0.1039 C   0  0  0  0  0  0  0  0  0  0  0  0
    0.2049   -0.7133    1.6827 N   0  0  0  0  0  0  0  0  0  0  0  0
    0.2841   -1.9414    2.4428 C   0  0  0  0  0  0  0  0  0  0  0  0
   -0.9727   -0.0677    1.6261 N   0  0  0  0  0  0  0  0  0  0  0  0
   -3.0431    1.5030    0.3829 N   0  0  0  0  0  0  0  0  0  0  0  0
   -5.3677   -0.4652    0.3955 C   0  0  0  0  0  0  0  0  0  0  0  0
   -6.0578   -3.6442    1.3432 H   0  0  0  0  0  0  0  0  0  0  0  0
   -4.8960   -3.4038    0.0160 H   0  0  0  0  0  0  0  0  0  0  0  0
   -4.5875   -2.7149    1.6300 H   0  0  0  0  0  0  0  0  0  0  0  0
   -7.9694   -2.6497    0.1533 H   0  0  0  0  0  0  0  0  0  0  0  0
  -10.1303   -0.3646    0.2217 H   0  0  0  0  0  0  0  0  0  0  0  0
   -9.8152   -1.5504   -1.0688 H   0  0  0  0  0  0  0  0  0  0  0  0
   -9.7564    0.1730   -1.4348 H   0  0  0  0  0  0  0  0  0  0  0  0
   -7.8650    1.5636   -0.6667 H   0  0  0  0  0  0  0  0  0  0  0  0
   -5.9025    2.7585   -0.3224 H   0  0  0  0  0  0  0  0  0  0  0  0
   -2.4326    5.2101    0.0072 H   0  0  0  0  0  0  0  0  0  0  0  0
   -0.5031    3.7264    0.5681 H   0  0  0  0  0  0  0  0  0  0  0  0
    1.0786    1.7723   -0.1886 H   0  0  0  0  0  0  0  0  0  0  0  0
    2.9401    0.6999   -0.6814 H   0  0  0  0  0  0  0  0  0  0  0  0
    4.6839   -1.2675   -0.9338 H   0  0  0  0  0  0  0  0  0  0  0  0
    5.1715   -0.6833    0.6655 H   0  0  0  0  0  0  0  0  0  0  0  0
    5.5091    1.6273   -0.3042 H   0  0  0  0  0  0  0  0  0  0  0  0
    5.0546    1.0403   -1.8760 H   0  0  0  0  0  0  0  0  0  0  0  0
    6.8640   -0.3860   -3.2061 H   0  0  0  0  0  0  0  0  0  0  0  0
    6.7116   -1.5537   -1.8716 H   0  0  0  0  0  0  0  0  0  0  0  0
    9.2005   -0.2060   -2.9051 H   0  0  0  0  0  0  0  0  0  0  0  0
    8.9997   -1.8412   -2.2555 H   0  0  0  0  0  0  0  0  0  0  0  0
    9.8068    0.5716   -0.8631 H   0  0  0  0  0  0  0  0  0  0  0  0
    9.6015   -1.0349   -0.1467 H   0  0  0  0  0  0  0  0  0  0  0  0
    7.4096   -0.6058    0.5248 H   0  0  0  0  0  0  0  0  0  0  0  0
    7.9640    1.0850    0.5184 H   0  0  0  0  0  0  0  0  0  0  0  0
   -0.7076   -2.1953    2.8278 H   0  0  0  0  0  0  0  0  0  0  0  0
    0.9720   -1.7879    3.2775 H   0  0  0  0  0  0  0  0  0  0  0  0
    0.6311   -2.7394    1.7821 H   0  0  0  0  0  0  0  0  0  0  0  0
   -4.3156   -0.4666    0.6704 H   0  0  0  0  0  0  0  0  0  0  0  0
  1  2  1  0
  2  3  2  0
  3  4  1  0
  4  5  1  0
  4  6  2  0
  6  7  1  0
  7  8  1  0
  8  9  1  0
  9 10  2  0
 10 11  1  0
 11 12  2  0
 12 13  1  0
 13 14  1  0
 14 15  1  0
 15 16  2  0
 16 17  1  0
 17 18  2  0
 17 19  1  0
 19 20  1  0
 20 21  1  0
 21 22  1  0
 22 23  1  0
 23 24  1  0
 24 25  1  0
 25 26  1  0
 16 27  1  0
 27 28  1  0
 27 29  1  0
 13 30  2  0
  7 31  2  0
 31  2  1  0
 30  9  1  0
 29 14  2  0
 26 22  1  0
  1 32  1  0
  1 33  1  0
  1 34  1  0
  3 35  1  0
  5 36  1  0
  5 37  1  0
  5 38  1  0
  6 39  1  0
  8 40  1  0
 11 41  1  0
 12 42  1  0
 15 43  1  0
 19 44  1  0
 20 45  1  0
 20 46  1  0
 21 47  1  0
 21 48  1  0
 23 49  1  0
 23 50  1  0
 24 51  1  0
 24 52  1  0
 25 53  1  0
 25 54  1  0
 26 55  1  0
 26 56  1  0
 28 57  1  0
 28 58  1  0
 28 59  1  0
 31 60  1  0
M  END
>  <mol_id>  (1) 
73311

>  <source_index>  (1) 
6

>  <layer>  (1) 
L2

>  <uniprot>  (1) 
P43405

>  <paff>  (1) 
7.0605000000000002

>  <smiles>  (1) 
Cc1cc(C)cc(Nc2nccc(-c3cc(C(=O)NCCN4CCCC4)n(C)n3)n2)c1

$$$$
