L2:P43405:73311
 OpenBabel09212617463D

 60 63  0  0  0  0  0  0  0  0999 V2000
    4.1366    1.8723   13.3643 C   0  0  0  0  0  0  0  0  0  0  0  0
    3.0614    2.7099   12.9574 C   0  0  0  0  0  0  0  0  0  0  0  0
    3.5799    3.6058   12.0358 C   0  0  0  0  0  0  0  0  0  0  0  0
    4.9110    3.2725   11.9551 N   0  0  0  0  0  0  0  0  0  0  0  0
    5.9246    3.8924   11.1301 C   0  0  0  0  0  0  0  0  0  0  0  0
    5.2638    2.2381   12.7375 N   0  0  0  0  0  0  0  0  0  0  0  0
    2.8565   -0.9272   15.2812 C   0  0  0  0  0  0  0  0  0  0  0  0
    3.8803   -1.2880   16.0746 N   0  0  0  0  0  0  0  0  0  0  0  0
    5.0266   -0.5949   15.9605 C   0  0  0  0  0  0  0  0  0  0  0  0
    5.1942    0.4540   15.0948 C   0  0  0  0  0  0  0  0  0  0  0  0
    4.0953    0.7622   14.3249 C   0  0  0  0  0  0  0  0  0  0  0  0
    2.9315    0.0856   14.4142 N   0  0  0  0  0  0  0  0  0  0  0  0
    1.6971   -1.6794   15.4418 N   0  0  0  0  0  0  0  0  0  0  0  0
    1.9310   -2.5544   15.8847 H   0  0  0  0  0  0  0  0  0  0  0  0
   -1.9466    1.0438   13.4014 C   0  0  0  0  0  0  0  0  0  0  0  0
   -1.4767   -0.1946   14.1062 C   0  0  0  0  0  0  0  0  0  0  0  0
   -2.3875   -1.1813   14.4949 C   0  0  0  0  0  0  0  0  0  0  0  0
   -1.9508   -2.3155   15.1844 C   0  0  0  0  0  0  0  0  0  0  0  0
   -2.9206   -3.3938   15.5663 C   0  0  0  0  0  0  0  0  0  0  0  0
   -0.5838   -2.4575   15.4669 C   0  0  0  0  0  0  0  0  0  0  0  0
    0.3548   -1.4777   15.1005 C   0  0  0  0  0  0  0  0  0  0  0  0
   -0.1181   -0.3458   14.4282 C   0  0  0  0  0  0  0  0  0  0  0  0
    2.9604    4.6787   11.2903 C   0  0  0  0  0  0  0  0  0  0  0  0
    3.3090    5.8517   11.3811 O   0  0  0  0  0  0  0  0  0  0  0  0
    1.9444    4.2893   10.4452 N   0  0  0  0  0  0  0  0  0  0  0  0
    1.7692    3.3060   10.3041 H   0  0  0  0  0  0  0  0  0  0  0  0
    1.2438    5.2471    9.6054 C   0  0  0  0  0  0  0  0  0  0  0  0
   -0.2812    5.0423    9.6564 C   0  0  0  0  0  0  0  0  0  0  0  0
   -1.0265    5.6531   10.7551 N   0  0  0  0  0  0  0  0  0  0  0  0
   -0.3931    6.8158   11.3685 C   0  0  0  0  0  0  0  0  0  0  0  0
   -1.2676    7.0621   12.5898 C   0  0  0  0  0  0  0  0  0  0  0  0
   -1.8864    5.7060   12.9185 C   0  0  0  0  0  0  0  0  0  0  0  0
   -1.3487    4.7538   11.8591 C   0  0  0  0  0  0  0  0  0  0  0  0
    2.0841    2.6601   13.2851 H   0  0  0  0  0  0  0  0  0  0  0  0
    5.4885    4.6939   10.5712 H   0  0  0  0  0  0  0  0  0  0  0  0
    6.3291    3.1664   10.4562 H   0  0  0  0  0  0  0  0  0  0  0  0
    6.7060    4.2755   11.7526 H   0  0  0  0  0  0  0  0  0  0  0  0
    5.8233   -0.8675   16.5571 H   0  0  0  0  0  0  0  0  0  0  0  0
    6.0816    0.9761   15.0249 H   0  0  0  0  0  0  0  0  0  0  0  0
   -3.0027    0.9834   13.2401 H   0  0  0  0  0  0  0  0  0  0  0  0
   -1.4463    1.1297   12.4595 H   0  0  0  0  0  0  0  0  0  0  0  0
   -1.7260    1.9014   14.0020 H   0  0  0  0  0  0  0  0  0  0  0  0
   -3.3889   -1.0713   14.2712 H   0  0  0  0  0  0  0  0  0  0  0  0
   -3.9080   -3.1064   15.2709 H   0  0  0  0  0  0  0  0  0  0  0  0
   -2.8934   -3.5390   16.6261 H   0  0  0  0  0  0  0  0  0  0  0  0
   -2.6523   -4.3054   15.0744 H   0  0  0  0  0  0  0  0  0  0  0  0
   -0.2584   -3.3051   15.9575 H   0  0  0  0  0  0  0  0  0  0  0  0
    0.5478    0.3964   14.1623 H   0  0  0  0  0  0  0  0  0  0  0  0
    1.5756    5.1298    8.5949 H   0  0  0  0  0  0  0  0  0  0  0  0
    1.4602    6.2299    9.9691 H   0  0  0  0  0  0  0  0  0  0  0  0
   -0.4578    3.9879    9.7016 H   0  0  0  0  0  0  0  0  0  0  0  0
   -0.6438    5.5414    8.7821 H   0  0  0  0  0  0  0  0  0  0  0  0
   -0.4065    7.6570   10.7074 H   0  0  0  0  0  0  0  0  0  0  0  0
    0.6388    6.6630   11.6068 H   0  0  0  0  0  0  0  0  0  0  0  0
   -2.0304    7.7786   12.3668 H   0  0  0  0  0  0  0  0  0  0  0  0
   -0.7059    7.4552   13.4113 H   0  0  0  0  0  0  0  0  0  0  0  0
   -2.9539    5.7587   12.8684 H   0  0  0  0  0  0  0  0  0  0  0  0
   -1.6393    5.3833   13.9083 H   0  0  0  0  0  0  0  0  0  0  0  0
   -2.0904    4.0386   11.5706 H   0  0  0  0  0  0  0  0  0  0  0  0
   -0.5135    4.1742   12.1929 H   0  0  0  0  0  0  0  0  0  0  0  0
  1  2  1  0  0  0  0
  2  3  2  0  0  0  0
  2 34  1  0  0  0  0
  3 23  1  0  0  0  0
  3  4  1  0  0  0  0
  4  5  1  0  0  0  0
  4  6  1  0  0  0  0
  5 35  1  0  0  0  0
  5 36  1  0  0  0  0
  5 37  1  0  0  0  0
  6  1  2  0  0  0  0
  7  8  2  0  0  0  0
  8  9  1  0  0  0  0
  9 10  2  0  0  0  0
  9 38  1  0  0  0  0
 10 11  1  0  0  0  0
 10 39  1  0  0  0  0
 11  1  1  0  0  0  0
 11 12  2  0  0  0  0
 12  7  1  0  0  0  0
 13  7  1  0  0  0  0
 13 14  1  0  0  0  0
 15 16  1  0  0  0  0
 15 40  1  0  0  0  0
 15 41  1  0  0  0  0
 15 42  1  0  0  0  0
 16 17  2  0  0  0  0
 17 18  1  0  0  0  0
 17 43  1  0  0  0  0
 18 19  1  0  0  0  0
 18 20  2  0  0  0  0
 19 44  1  0  0  0  0
 19 45  1  0  0  0  0
 19 46  1  0  0  0  0
 20 21  1  0  0  0  0
 20 47  1  0  0  0  0
 21 13  1  0  0  0  0
 21 22  2  0  0  0  0
 22 16  1  0  0  0  0
 22 48  1  0  0  0  0
 23 24  2  0  0  0  0
 23 25  1  0  0  0  0
 25 27  1  0  0  0  0
 25 26  1  0  0  0  0
 27 28  1  0  0  0  0
 27 49  1  0  0  0  0
 27 50  1  0  0  0  0
 28 29  1  0  0  0  0
 28 51  1  0  0  0  0
 28 52  1  0  0  0  0
 29 30  1  0  0  0  0
 30 31  1  0  0  0  0
 30 53  1  0  0  0  0
 30 54  1  0  0  0  0
 31 32  1  0  0  0  0
 31 55  1  0  0  0  0
 31 56  1  0  0  0  0
 32 33  1  0  0  0  0
 32 57  1  0  0  0  0
 32 58  1  0  0  0  0
 33 29  1  0  0  0  0
 33 59  1  0  0  0  0
 33 60  1  0  0  0  0
M  END
>  <minimizedAffinity>
-8.24537

$$$$
