L2:P43405:7613
     RDKit          3D

 45 49  0  0  0  0  0  0  0  0999 V2000
   -6.9822    0.7127    0.1357 C   0  0  0  0  0  0  0  0  0  0  0  0
   -5.4995    0.4661    0.2230 C   0  0  0  0  0  0  0  0  0  0  0  0
   -4.8285   -0.0252   -0.9156 C   0  0  0  0  0  0  0  0  0  0  0  0
   -3.4486   -0.2610   -0.8553 C   0  0  0  0  0  0  0  0  0  0  0  0
   -2.5926   -0.7248   -1.8224 N   0  0  0  0  0  0  0  0  0  0  0  0
   -1.4039   -0.7745   -1.2523 C   0  0  0  0  0  0  0  0  0  0  0  0
   -0.0719   -1.2357   -1.9501 C   0  0  0  0  0  0  0  0  0  0  0  0
   -0.0130   -1.5155   -3.2601 N   0  0  0  0  0  0  0  0  0  0  0  0
    1.2779   -1.8003   -3.4767 N   0  0  0  0  0  0  0  0  0  0  0  0
    2.0504   -1.7346   -2.3552 C   0  0  0  0  0  0  0  0  0  0  0  0
    1.2027   -1.3811   -1.3345 C   0  0  0  0  0  0  0  0  0  0  0  0
    1.5093   -1.3110   -0.0212 N   0  0  0  0  0  0  0  0  0  0  0  0
    2.6822   -0.9317    0.6456 C   0  0  0  0  0  0  0  0  0  0  0  0
    2.7917   -1.3887    1.9192 N   0  0  0  0  0  0  0  0  0  0  0  0
    3.8958   -1.0826    2.6268 C   0  0  0  0  0  0  0  0  0  0  0  0
    4.9381   -0.3328    2.2461 N   0  0  0  0  0  0  0  0  0  0  0  0
    4.7755    0.1462    1.0020 C   0  0  0  0  0  0  0  0  0  0  0  0
    3.6996   -0.0914    0.1538 C   0  0  0  0  0  0  0  0  0  0  0  0
    3.9477    0.6708   -1.0258 C   0  0  0  0  0  0  0  0  0  0  0  0
    5.1641    1.3048   -0.8799 C   0  0  0  0  0  0  0  0  0  0  0  0
    5.6576    0.9726    0.3537 N   0  0  0  0  0  0  0  0  0  0  0  0
    6.9063    1.4341    0.9128 C   0  0  0  0  0  0  0  0  0  0  0  0
   -1.4723   -0.3325    0.0452 N   0  0  0  0  0  0  0  0  0  0  0  0
   -2.7720   -0.0057    0.3279 C   0  0  0  0  0  0  0  0  0  0  0  0
   -3.3930    0.4851    1.4774 C   0  0  0  0  0  0  0  0  0  0  0  0
   -4.7811    0.7203    1.4136 C   0  0  0  0  0  0  0  0  0  0  0  0
   -5.4792    1.2487    2.6404 C   0  0  0  0  0  0  0  0  0  0  0  0
   -7.3751    0.4564   -0.8540 H   0  0  0  0  0  0  0  0  0  0  0  0
   -7.5139    0.0985    0.8692 H   0  0  0  0  0  0  0  0  0  0  0  0
   -7.2028    1.7699    0.3137 H   0  0  0  0  0  0  0  0  0  0  0  0
   -5.3540   -0.2257   -1.8434 H   0  0  0  0  0  0  0  0  0  0  0  0
    1.5595   -2.0490   -4.4194 H   0  0  0  0  0  0  0  0  0  0  0  0
    3.1008   -1.9850   -2.3820 H   0  0  0  0  0  0  0  0  0  0  0  0
    0.9149   -1.7813    0.6561 H   0  0  0  0  0  0  0  0  0  0  0  0
    3.9459   -1.4939    3.6305 H   0  0  0  0  0  0  0  0  0  0  0  0
    3.3018    0.7592   -1.8892 H   0  0  0  0  0  0  0  0  0  0  0  0
    5.7022    1.9672   -1.5460 H   0  0  0  0  0  0  0  0  0  0  0  0
    7.5234    0.5634    1.1491 H   0  0  0  0  0  0  0  0  0  0  0  0
    6.6897    2.0110    1.8156 H   0  0  0  0  0  0  0  0  0  0  0  0
    7.4217    2.0653    0.1845 H   0  0  0  0  0  0  0  0  0  0  0  0
   -0.6827   -0.2188    0.6617 H   0  0  0  0  0  0  0  0  0  0  0  0
   -2.8270    0.6770    2.3832 H   0  0  0  0  0  0  0  0  0  0  0  0
   -4.7795    1.3918    3.4709 H   0  0  0  0  0  0  0  0  0  0  0  0
   -6.2464    0.5432    2.9746 H   0  0  0  0  0  0  0  0  0  0  0  0
   -5.9397    2.2186    2.4277 H   0  0  0  0  0  0  0  0  0  0  0  0
  1  2  1  0
  2  3  2  0
  3  4  1  0
  4  5  1  0
  5  6  2  0
  6  7  1  0
  7  8  2  0
  8  9  1  0
  9 10  1  0
 10 11  2  0
 11 12  1  0
 12 13  1  0
 13 14  2  0
 14 15  1  0
 15 16  2  0
 16 17  1  0
 17 18  2  0
 18 19  1  0
 19 20  2  0
 20 21  1  0
 21 22  1  0
  6 23  1  0
 23 24  1  0
 24 25  1  0
 25 26  2  0
 26 27  1  0
 26  2  1  0
 24  4  2  0
 11  7  1  0
 18 13  1  0
 21 17  1  0
  1 28  1  0
  1 29  1  0
  1 30  1  0
  3 31  1  0
  9 32  1  0
 10 33  1  0
 12 34  1  0
 15 35  1  0
 19 36  1  0
 20 37  1  0
 22 38  1  0
 22 39  1  0
 22 40  1  0
 23 41  1  0
 25 42  1  0
 27 43  1  0
 27 44  1  0
 27 45  1  0
M  END
>  <mol_id>  (1) 
7613

>  <source_index>  (1) 
1

>  <layer>  (1) 
L2

>  <uniprot>  (1) 
P43405

>  <paff>  (1) 
7.6778000000000004

>  <smiles>  (1) 
Cc1cc2nc(-c3n[nH]cc3Nc3ncnc4c3ccn4C)[nH]c2cc1C

$$$$
