L2:P43405:7613
 OpenBabel09212617453D

 45 49  0  0  0  0  0  0  0  0999 V2000
    3.5284    3.9503   13.4483 C   0  0  0  0  0  0  0  0  0  0  0  0
    4.5575    4.7804   13.6711 N   0  0  0  0  0  0  0  0  0  0  0  0
    5.6088    3.9648   13.8263 N   0  0  0  0  0  0  0  0  0  0  0  0
    5.3027    2.6430   13.6929 C   0  0  0  0  0  0  0  0  0  0  0  0
    3.9554    2.5930   13.4328 C   0  0  0  0  0  0  0  0  0  0  0  0
    6.5151    4.3844   14.0063 H   0  0  0  0  0  0  0  0  0  0  0  0
   -3.8328    5.2353   13.2012 C   0  0  0  0  0  0  0  0  0  0  0  0
   -2.3558    5.4532   13.0066 C   0  0  0  0  0  0  0  0  0  0  0  0
   -1.4612    4.4649   13.4659 C   0  0  0  0  0  0  0  0  0  0  0  0
   -0.0827    4.6482   13.2941 C   0  0  0  0  0  0  0  0  0  0  0  0
    0.9637    3.8341   13.6483 N   0  0  0  0  0  0  0  0  0  0  0  0
    2.0552    4.4726   13.2724 C   0  0  0  0  0  0  0  0  0  0  0  0
    1.7342    5.6613   12.6661 N   0  0  0  0  0  0  0  0  0  0  0  0
    0.3719    5.8026   12.6747 C   0  0  0  0  0  0  0  0  0  0  0  0
   -0.4758    6.8047   12.2002 C   0  0  0  0  0  0  0  0  0  0  0  0
   -1.8616    6.6175   12.3754 C   0  0  0  0  0  0  0  0  0  0  0  0
   -2.8014    7.6840   11.8745 C   0  0  0  0  0  0  0  0  0  0  0  0
    2.3951    6.2920   12.2396 H   0  0  0  0  0  0  0  0  0  0  0  0
    3.2370    1.4945   13.1151 N   0  0  0  0  0  0  0  0  0  0  0  0
    3.1866    1.1941   12.1453 H   0  0  0  0  0  0  0  0  0  0  0  0
    2.7240    0.4539   13.9012 C   0  0  0  0  0  0  0  0  0  0  0  0
    3.6512   -0.2436   14.6061 N   0  0  0  0  0  0  0  0  0  0  0  0
    3.2413   -1.2515   15.3995 C   0  0  0  0  0  0  0  0  0  0  0  0
    1.9940   -1.7045   15.5799 N   0  0  0  0  0  0  0  0  0  0  0  0
    1.1082   -1.0283   14.8303 C   0  0  0  0  0  0  0  0  0  0  0  0
    1.3817    0.0348   13.9768 C   0  0  0  0  0  0  0  0  0  0  0  0
    0.1419    0.3803   13.3625 C   0  0  0  0  0  0  0  0  0  0  0  0
   -0.8382   -0.4401   13.8814 C   0  0  0  0  0  0  0  0  0  0  0  0
   -0.2378   -1.2864   14.7753 N   0  0  0  0  0  0  0  0  0  0  0  0
   -0.9036   -2.3173   15.5359 C   0  0  0  0  0  0  0  0  0  0  0  0
    5.9508    1.8438   13.7713 H   0  0  0  0  0  0  0  0  0  0  0  0
   -3.9933    4.2999   13.6953 H   0  0  0  0  0  0  0  0  0  0  0  0
   -4.3202    5.2238   12.2487 H   0  0  0  0  0  0  0  0  0  0  0  0
   -4.2346    6.0274   13.7979 H   0  0  0  0  0  0  0  0  0  0  0  0
   -1.8190    3.6128   13.9252 H   0  0  0  0  0  0  0  0  0  0  0  0
   -0.1026    7.6493   11.7393 H   0  0  0  0  0  0  0  0  0  0  0  0
   -2.2367    8.4776   11.4316 H   0  0  0  0  0  0  0  0  0  0  0  0
   -3.3744    8.0675   12.6928 H   0  0  0  0  0  0  0  0  0  0  0  0
   -3.4603    7.2641   11.1435 H   0  0  0  0  0  0  0  0  0  0  0  0
    3.9797   -1.7346   15.9347 H   0  0  0  0  0  0  0  0  0  0  0  0
    0.0022    1.1164   12.6528 H   0  0  0  0  0  0  0  0  0  0  0  0
   -1.8414   -0.4198   13.6400 H   0  0  0  0  0  0  0  0  0  0  0  0
   -1.9495   -2.3080   15.3101 H   0  0  0  0  0  0  0  0  0  0  0  0
   -0.7627   -2.1366   16.5811 H   0  0  0  0  0  0  0  0  0  0  0  0
   -0.4920   -3.2713   15.2802 H   0  0  0  0  0  0  0  0  0  0  0  0
  1  2  2  0  0  0  0
  2  3  1  0  0  0  0
  3  4  1  0  0  0  0
  3  6  1  0  0  0  0
  4  5  2  0  0  0  0
  4 31  1  0  0  0  0
  5 19  1  0  0  0  0
  5  1  1  0  0  0  0
  7  8  1  0  0  0  0
  7 32  1  0  0  0  0
  7 33  1  0  0  0  0
  7 34  1  0  0  0  0
  8  9  2  0  0  0  0
  9 10  1  0  0  0  0
  9 35  1  0  0  0  0
 10 11  1  0  0  0  0
 11 12  2  0  0  0  0
 12  1  1  0  0  0  0
 12 13  1  0  0  0  0
 13 14  1  0  0  0  0
 13 18  1  0  0  0  0
 14 15  1  0  0  0  0
 14 10  2  0  0  0  0
 15 16  2  0  0  0  0
 15 36  1  0  0  0  0
 16 17  1  0  0  0  0
 16  8  1  0  0  0  0
 17 37  1  0  0  0  0
 17 38  1  0  0  0  0
 17 39  1  0  0  0  0
 19 21  1  0  0  0  0
 19 20  1  0  0  0  0
 21 22  2  0  0  0  0
 22 23  1  0  0  0  0
 23 24  2  0  0  0  0
 23 40  1  0  0  0  0
 24 25  1  0  0  0  0
 25 26  2  0  0  0  0
 26 27  1  0  0  0  0
 26 21  1  0  0  0  0
 27 28  2  0  0  0  0
 27 41  1  0  0  0  0
 28 29  1  0  0  0  0
 28 42  1  0  0  0  0
 29 30  1  0  0  0  0
 29 25  1  0  0  0  0
 30 43  1  0  0  0  0
 30 44  1  0  0  0  0
 30 45  1  0  0  0  0
M  END
>  <minimizedAffinity>
-8.86331

$$$$
