L2:P43405:91792


 35 38  0  0  0  0  0  0  0  0999 V2000
    1.6549    0.4389   14.0536 C   0  0  0  0  0  0  0  0  0  0  0  0
    1.5344    1.8352   13.8216 C   0  0  0  0  0  0  0  0  0  0  0  0
    2.8075    2.3086   13.5519 C   0  0  0  0  0  0  0  0  0  0  0  0
    3.6038    1.1904   13.6289 N   0  0  0  0  0  0  0  0  0  0  0  0
    5.0342    1.1161   13.4235 C   0  0  0  0  0  0  0  0  0  0  0  0
    2.9366    0.0595   13.9338 N   0  0  0  0  0  0  0  0  0  0  0  0
   -1.6130   -1.1331   14.0309 C   0  0  0  0  0  0  0  0  0  0  0  0
   -1.4972   -2.1529   14.8930 N   0  0  0  0  0  0  0  0  0  0  0  0
   -0.3099   -2.3289   15.4983 C   0  0  0  0  0  0  0  0  0  0  0  0
    0.7740   -1.5237   15.2780 C   0  0  0  0  0  0  0  0  0  0  0  0
    0.5742   -0.4994   14.3805 C   0  0  0  0  0  0  0  0  0  0  0  0
   -0.6064   -0.2905   13.7514 N   0  0  0  0  0  0  0  0  0  0  0  0
   -2.7994   -0.8679   13.3537 N   0  0  0  0  0  0  0  0  0  0  0  0
   -2.8080   -1.3882   12.4903 H   0  0  0  0  0  0  0  0  0  0  0  0
   -7.1717   -0.4836   15.5921 C   0  0  0  0  0  0  0  0  0  0  0  0
   -6.0909    0.1280   14.7511 C   0  0  0  0  0  0  0  0  0  0  0  0
   -6.2472    1.4106   14.2198 C   0  0  0  0  0  0  0  0  0  0  0  0
   -5.2498    1.9706   13.4163 C   0  0  0  0  0  0  0  0  0  0  0  0
   -5.4279    3.3380   12.8246 C   0  0  0  0  0  0  0  0  0  0  0  0
   -4.1025    1.2176   13.1171 C   0  0  0  0  0  0  0  0  0  0  0  0
   -3.9212   -0.0744   13.6203 C   0  0  0  0  0  0  0  0  0  0  0  0
   -4.9356   -0.6033   14.4372 C   0  0  0  0  0  0  0  0  0  0  0  0
    3.2897    3.6369   13.2468 C   0  0  0  0  0  0  0  0  0  0  0  0
    3.5969    4.4577   14.1065 O   0  0  0  0  0  0  0  0  0  0  0  0
    3.3727    3.9384   11.9048 N   0  0  0  0  0  0  0  0  0  0  0  0
    3.0716    3.2587   11.2221 H   0  0  0  0  0  0  0  0  0  0  0  0
    3.8397    5.2403   11.4316 C   0  0  0  0  0  0  0  0  0  0  0  0
    5.0407    5.0460   10.5056 C   0  0  0  0  0  0  0  0  0  0  0  0
    2.6900    6.0211   10.7408 C   0  0  0  0  0  0  0  0  0  0  0  0
    1.5391    5.1687   10.4053 N   0  0  0  0  0  0  0  0  0  0  0  0
    0.8586    5.6576    9.1774 C   0  0  0  0  0  0  0  0  0  0  0  0
   -0.5003    5.5253    9.9031 C   0  0  0  0  0  0  0  0  0  0  0  0
   -1.3713    6.5472    9.7279 F   0  0  0  0  0  0  0  0  0  0  0  0
   -1.1906    4.3807    9.6800 F   0  0  0  0  0  0  0  0  0  0  0  0
    0.3480    5.5716   11.1952 C   0  0  0  0  0  0  0  0  0  0  0  0
 15 16  1  0  0  0
 16 17  2  0  0  0
 17 18  1  0  0  0
 18 19  1  0  0  0
 18 20  2  0  0  0
 20 21  1  0  0  0
 21 13  1  0  0  0
 13  7  1  0  0  0
  7  8  2  0  0  0
  8  9  1  0  0  0
  9 10  2  0  0  0
 10 11  1  0  0  0
 11  1  1  0  0  0
  1  2  1  0  0  0
  2  3  2  0  0  0
  3 23  1  0  0  0
 23 24  2  0  0  0
 23 25  1  0  0  0
 25 27  1  0  0  0
 27 28  1  0  0  0
 27 29  1  0  0  0
 29 30  1  0  0  0
 30 31  1  0  0  0
 31 32  1  0  0  0
 32 33  1  0  0  0
 32 34  1  0  0  0
 32 35  1  0  0  0
  3  4  1  0  0  0
  4  5  1  0  0  0
  4  6  1  0  0  0
 11 12  2  0  0  0
 21 22  2  0  0  0
 22 16  1  0  0  0
 12  7  1  0  0  0
  6  1  2  0  0  0
 35 30  1  0  0  0
 13 14  1  0  0  0
 25 26  1  0  0  0
M  END
> <minimizedAffinity>
-8.37726

$$$$
