L2:P43405:91792
     RDKit          3D

 60 63  0  0  0  0  0  0  0  0999 V2000
   -6.6707   -0.5273    4.2184 C   0  0  0  0  0  0  0  0  0  0  0  0
   -6.5781   -0.4983    2.7217 C   0  0  0  0  0  0  0  0  0  0  0  0
   -7.7181   -0.6915    1.9377 C   0  0  0  0  0  0  0  0  0  0  0  0
   -7.6272   -0.6883    0.5428 C   0  0  0  0  0  0  0  0  0  0  0  0
   -8.8468   -0.9209   -0.2997 C   0  0  0  0  0  0  0  0  0  0  0  0
   -6.3716   -0.5248   -0.0653 C   0  0  0  0  0  0  0  0  0  0  0  0
   -5.2088   -0.3439    0.6899 C   0  0  0  0  0  0  0  0  0  0  0  0
   -3.9341   -0.1772    0.1363 N   0  0  0  0  0  0  0  0  0  0  0  0
   -3.4358   -0.1368   -1.1624 C   0  0  0  0  0  0  0  0  0  0  0  0
   -4.2281   -0.2770   -2.2344 N   0  0  0  0  0  0  0  0  0  0  0  0
   -3.6536   -0.2230   -3.4485 C   0  0  0  0  0  0  0  0  0  0  0  0
   -2.3120   -0.0341   -3.6387 C   0  0  0  0  0  0  0  0  0  0  0  0
   -1.5673    0.1004   -2.4890 C   0  0  0  0  0  0  0  0  0  0  0  0
   -0.1152    0.3074   -2.5506 C   0  0  0  0  0  0  0  0  0  0  0  0
    0.7736    0.4656   -1.4538 C   0  0  0  0  0  0  0  0  0  0  0  0
    2.0416    0.6308   -1.9852 C   0  0  0  0  0  0  0  0  0  0  0  0
    3.3260    0.8297   -1.3521 C   0  0  0  0  0  0  0  0  0  0  0  0
    4.3729    0.9691   -1.9780 O   0  0  0  0  0  0  0  0  0  0  0  0
    3.3071    0.8400    0.0257 N   0  0  0  0  0  0  0  0  0  0  0  0
    4.5231    1.0283    0.8149 C   0  0  1  0  0  0  0  0  0  0  0  0
    4.1528    1.5276    2.2117 C   0  0  0  0  0  0  0  0  0  0  0  0
    5.3567   -0.2799    0.8643 C   0  0  0  0  0  0  0  0  0  0  0  0
    6.6230   -0.1253    1.5965 N   0  0  0  0  0  0  0  0  0  0  0  0
    7.6446    0.5465    0.7509 C   0  0  0  0  0  0  0  0  0  0  0  0
    8.6687   -0.5352    1.1657 C   0  0  0  0  0  0  0  0  0  0  0  0
    9.4514   -1.0256    0.1755 F   0  0  0  0  0  0  0  0  0  0  0  0
    9.4922   -0.2186    2.1943 F   0  0  0  0  0  0  0  0  0  0  0  0
    7.4206   -1.3756    1.5225 C   0  0  0  0  0  0  0  0  0  0  0  0
    1.8453    0.5706   -3.3448 N   0  0  0  0  0  0  0  0  0  0  0  0
    2.8465    0.6937   -4.3821 C   0  0  0  0  0  0  0  0  0  0  0  0
    0.5623    0.3717   -3.7073 N   0  0  0  0  0  0  0  0  0  0  0  0
   -2.1098    0.0516   -1.2495 N   0  0  0  0  0  0  0  0  0  0  0  0
   -5.3360   -0.3372    2.0898 C   0  0  0  0  0  0  0  0  0  0  0  0
   -7.6474   -0.1662    4.5572 H   0  0  0  0  0  0  0  0  0  0  0  0
   -5.9117    0.1209    4.6691 H   0  0  0  0  0  0  0  0  0  0  0  0
   -6.5256   -1.5490    4.5825 H   0  0  0  0  0  0  0  0  0  0  0  0
   -8.6839   -0.8439    2.4152 H   0  0  0  0  0  0  0  0  0  0  0  0
   -8.7755   -0.3774   -1.2478 H   0  0  0  0  0  0  0  0  0  0  0  0
   -8.9577   -1.9890   -0.5102 H   0  0  0  0  0  0  0  0  0  0  0  0
   -9.7487   -0.5657    0.2100 H   0  0  0  0  0  0  0  0  0  0  0  0
   -6.3213   -0.5452   -1.1500 H   0  0  0  0  0  0  0  0  0  0  0  0
   -3.1726   -0.0485    0.7843 H   0  0  0  0  0  0  0  0  0  0  0  0
   -4.3307   -0.3404   -4.2891 H   0  0  0  0  0  0  0  0  0  0  0  0
   -1.8735    0.0057   -4.6266 H   0  0  0  0  0  0  0  0  0  0  0  0
    0.4900    0.4562   -0.4113 H   0  0  0  0  0  0  0  0  0  0  0  0
    2.4380    0.6792    0.5130 H   0  0  0  0  0  0  0  0  0  0  0  0
    5.1124    1.8080    0.3158 H   0  0  0  0  0  0  0  0  0  0  0  0
    3.5434    2.4360    2.1472 H   0  0  0  0  0  0  0  0  0  0  0  0
    5.0429    1.7660    2.8021 H   0  0  0  0  0  0  0  0  0  0  0  0
    3.5687    0.7784    2.7576 H   0  0  0  0  0  0  0  0  0  0  0  0
    5.5219   -0.6535   -0.1555 H   0  0  0  0  0  0  0  0  0  0  0  0
    4.7562   -1.0489    1.3693 H   0  0  0  0  0  0  0  0  0  0  0  0
    7.4478    0.5643   -0.3284 H   0  0  0  0  0  0  0  0  0  0  0  0
    7.8948    1.5611    1.0754 H   0  0  0  0  0  0  0  0  0  0  0  0
    7.1369   -2.0855    0.7353 H   0  0  0  0  0  0  0  0  0  0  0  0
    7.4901   -1.9175    2.4705 H   0  0  0  0  0  0  0  0  0  0  0  0
    3.3164    1.6763   -4.2970 H   0  0  0  0  0  0  0  0  0  0  0  0
    2.3677    0.6029   -5.3612 H   0  0  0  0  0  0  0  0  0  0  0  0
    3.5760   -0.1100   -4.2582 H   0  0  0  0  0  0  0  0  0  0  0  0
   -4.4494   -0.2070    2.7067 H   0  0  0  0  0  0  0  0  0  0  0  0
  1  2  1  0
  2  3  2  0
  3  4  1  0
  4  5  1  0
  4  6  2  0
  6  7  1  0
  7  8  1  0
  8  9  1  0
  9 10  2  0
 10 11  1  0
 11 12  2  0
 12 13  1  0
 13 14  1  0
 14 15  1  0
 15 16  2  0
 16 17  1  0
 17 18  2  0
 17 19  1  0
 19 20  1  0
 20 21  1  0
 20 22  1  0
 22 23  1  0
 23 24  1  0
 24 25  1  0
 25 26  1  0
 25 27  1  0
 25 28  1  0
 16 29  1  0
 29 30  1  0
 29 31  1  0
 13 32  2  0
  7 33  2  0
 33  2  1  0
 32  9  1  0
 31 14  2  0
 28 23  1  0
  1 34  1  0
  1 35  1  0
  1 36  1  0
  3 37  1  0
  5 38  1  0
  5 39  1  0
  5 40  1  0
  6 41  1  0
  8 42  1  0
 11 43  1  0
 12 44  1  0
 15 45  1  0
 19 46  1  0
 20 47  1  6
 21 48  1  0
 21 49  1  0
 21 50  1  0
 22 51  1  0
 22 52  1  0
 24 53  1  0
 24 54  1  0
 28 55  1  0
 28 56  1  0
 30 57  1  0
 30 58  1  0
 30 59  1  0
 33 60  1  0
M  END
>  <mol_id>  (1) 
91792

>  <source_index>  (1) 
7

>  <layer>  (1) 
L2

>  <uniprot>  (1) 
P43405

>  <paff>  (1) 
6.7328000000000001

>  <smiles>  (1) 
Cc1cc(C)cc(Nc2nccc(-c3cc(C(=O)N[C@@H](C)CN4CC(F)(F)C4)n(C)n3)n2)c1

$$$$
