L2:Q92793:7699
     RDKit          3D

 62 66  0  0  0  0  0  0  0  0999 V2000
   -0.6647   -2.0905   16.4024 C   0  0  0  0  0  0  0  0  0  0  0  0
   -0.4370   -1.5745   15.3147 O   0  0  0  0  0  0  0  0  0  0  0  0
   -0.3294   -3.3921   16.7268 N   0  0  0  0  0  0  0  0  0  0  0  0
   -0.8130   -4.0608   17.9275 C   0  0  0  0  0  0  0  0  0  0  0  0
    0.2679   -4.9603   18.5221 C   0  0  0  0  0  0  0  0  0  0  0  0
    0.8609   -5.8845   17.4870 C   0  0  0  0  0  0  0  0  0  0  0  0
    1.4956   -7.0648   17.8951 C   0  0  0  0  0  0  0  0  0  0  0  0
    2.0834   -7.9363   16.9732 C   0  0  0  0  0  0  0  0  0  0  0  0
    2.0186   -7.5847   15.6197 C   0  0  0  0  0  0  0  0  0  0  0  0
    1.4015   -6.4128   15.1937 C   0  0  0  0  0  0  0  0  0  0  0  0
    1.4596   -6.3016   13.8313 N   0  0  0  0  0  0  0  0  0  0  0  0
    2.0650   -7.3862   13.3868 C   0  0  0  0  0  0  0  0  0  0  0  0
    2.4836   -8.1686   14.4541 N   0  0  0  0  0  0  0  0  0  0  0  0
    0.8202   -5.5230   16.1209 C   0  0  0  0  0  0  0  0  0  0  0  0
    0.1625   -4.2481   15.6534 C   0  0  0  0  0  0  0  0  0  0  0  0
    2.2870   -7.6617   11.9644 C   0  0  0  0  0  0  0  0  0  0  0  0
    1.3489   -8.3560   11.1913 C   0  0  0  0  0  0  0  0  0  0  0  0
    1.5886   -8.5975    9.8376 C   0  0  0  0  0  0  0  0  0  0  0  0
    2.7600   -8.1341    9.2395 C   0  0  0  0  0  0  0  0  0  0  0  0
    3.7023   -7.4168    9.9872 C   0  0  0  0  0  0  0  0  0  0  0  0
    3.4502   -7.1782   11.3473 C   0  0  0  0  0  0  0  0  0  0  0  0
    4.9598   -6.8908    9.3371 C   0  0  0  0  0  0  0  0  0  0  0  0
    5.1124   -5.3913    9.4094 C   0  0  0  0  0  0  0  0  0  0  0  0
    5.5257   -4.7120   10.3338 O   0  0  0  0  0  0  0  0  0  0  0  0
    4.6814   -4.7896    8.2773 O   0  0  0  0  0  0  0  0  0  0  0  0
    4.8383   -3.8367    8.4528 H   0  0  0  0  0  0  0  0  0  0  0  0
   -2.5487   -0.8838   17.0972 C   0  0  0  0  0  0  0  0  0  0  0  0
   -1.2748   -1.4352   17.4288 O   0  0  0  0  0  0  0  0  0  0  0  0
    3.3069   -9.3773   14.3593 C   0  0  1  0  0  0  0  0  0  0  0  0
    2.5329  -10.5560   13.7561 C   0  0  0  0  0  0  0  0  0  0  0  0
    4.6247   -9.0861   13.6332 C   0  0  0  0  0  0  0  0  0  0  0  0
    5.7401   -8.9387   14.5503 N   0  0  0  0  0  0  0  0  0  0  0  0
    5.9294   -7.9426   15.4626 C   0  0  0  0  0  0  0  0  0  0  0  0
    7.1177   -8.2301   16.0872 C   0  0  0  0  0  0  0  0  0  0  0  0
    7.8945   -7.3603   17.3099 Cl  0  0  0  0  0  0  0  0  0  0  0  0
    7.5647   -9.4215   15.4895 C   0  0  0  0  0  0  0  0  0  0  0  0
    6.7229   -9.8599   14.5468 N   0  0  0  0  0  0  0  0  0  0  0  0
   -1.6661   -4.6563   17.6775 H   0  0  0  0  0  0  0  0  0  0  0  0
   -1.0756   -3.3174   18.6509 H   0  0  0  0  0  0  0  0  0  0  0  0
   -0.1633   -5.5485   19.3050 H   0  0  0  0  0  0  0  0  0  0  0  0
    1.0512   -4.3352   18.8970 H   0  0  0  0  0  0  0  0  0  0  0  0
    1.5301   -7.2966   18.9001 H   0  0  0  0  0  0  0  0  0  0  0  0
    2.5475   -8.8059   17.2790 H   0  0  0  0  0  0  0  0  0  0  0  0
   -0.6656   -4.5092   15.0281 H   0  0  0  0  0  0  0  0  0  0  0  0
    0.9154   -3.6884   15.1389 H   0  0  0  0  0  0  0  0  0  0  0  0
    0.4746   -8.6914   11.6250 H   0  0  0  0  0  0  0  0  0  0  0  0
    0.8970   -9.1204    9.2778 H   0  0  0  0  0  0  0  0  0  0  0  0
    2.9337   -8.3209    8.2395 H   0  0  0  0  0  0  0  0  0  0  0  0
    4.1321   -6.6380   11.9025 H   0  0  0  0  0  0  0  0  0  0  0  0
    4.9501   -7.1778    8.3064 H   0  0  0  0  0  0  0  0  0  0  0  0
    5.7834   -7.3102    9.8763 H   0  0  0  0  0  0  0  0  0  0  0  0
   -2.9571   -0.3892   17.9536 H   0  0  0  0  0  0  0  0  0  0  0  0
   -3.2081   -1.6686   16.7903 H   0  0  0  0  0  0  0  0  0  0  0  0
   -2.4360   -0.1802   16.2990 H   0  0  0  0  0  0  0  0  0  0  0  0
    3.5626   -9.6821   15.3526 H   0  0  0  0  0  0  0  0  0  0  0  0
    2.2437  -10.3173   12.7540 H   0  0  0  0  0  0  0  0  0  0  0  0
    1.6592  -10.7470   14.3436 H   0  0  0  0  0  0  0  0  0  0  0  0
    3.1558  -11.4260   13.7500 H   0  0  0  0  0  0  0  0  0  0  0  0
    4.5166   -8.1797   13.0749 H   0  0  0  0  0  0  0  0  0  0  0  0
    4.8356   -9.9174   12.9934 H   0  0  0  0  0  0  0  0  0  0  0  0
    5.3080   -7.1392   15.6455 H   0  0  0  0  0  0  0  0  0  0  0  0
    8.4406   -9.9021   15.7480 H   0  0  0  0  0  0  0  0  0  0  0  0
  1  2  2  0
  1  3  1  0
  3  4  1  0
  4  5  1  0
  4 38  1  0
  4 39  1  0
  5  6  1  0
  5 40  1  0
  5 41  1  0
  6  7  2  0
  7  8  1  0
  7 42  1  0
  8  9  2  0
  8 43  1  0
  9 10  1  0
 10 11  1  0
 10 14  2  0
 11 12  2  0
 12 16  1  0
 12 13  1  0
 13 29  1  0
 13  9  1  0
 14 15  1  0
 14  6  1  0
 15  3  1  0
 15 44  1  0
 15 45  1  0
 16 17  2  0
 17 18  1  0
 17 46  1  0
 18 19  2  0
 18 47  1  0
 19 20  1  0
 19 48  1  0
 20 22  1  0
 20 21  2  0
 21 16  1  0
 21 49  1  0
 22 23  1  0
 22 50  1  0
 22 51  1  0
 23 24  2  0
 23 25  1  0
 25 26  1  0
 27 28  1  0
 27 52  1  0
 27 53  1  0
 27 54  1  0
 28  1  1  0
 29 30  1  0
 29 31  1  0
 29 55  1  1
 30 56  1  0
 30 57  1  0
 30 58  1  0
 31 32  1  0
 31 59  1  0
 31 60  1  0
 32 33  1  0
 33 34  2  0
 33 61  1  0
 34 35  1  0
 34 36  1  0
 36 37  2  0
 36 62  1  0
 37 32  1  0
M  END
>  <minimizedAffinity>  (1) 
-7.82658

>  <mol_id>  (1) 
7699

>  <source_index>  (1) 
0

>  <layer>  (1) 
L2

>  <uniprot>  (1) 
Q92793

>  <paff>  (1) 
8.2596000000000007

>  <smiles>  (1) 
COC(=O)N1CCc2ccc3c(nc(-c4cccc(CC(=O)O)c4)n3[C@@H](C)Cn3cc(Cl)cn3)c2C1

$$$$
L2:Q92793:30981
     RDKit          3D

 65 69  0  0  0  0  0  0  0  0999 V2000
    8.4376   -7.4135   16.9781 C   0  0  0  0  0  0  0  0  0  0  0  0
    8.2046   -6.2918   17.4138 O   0  0  0  0  0  0  0  0  0  0  0  0
    7.4827   -8.2352   16.4058 N   0  0  0  0  0  0  0  0  0  0  0  0
    7.7185   -9.6477   16.1354 C   0  0  0  0  0  0  0  0  0  0  0  0
    6.9996  -10.0911   14.8642 C   0  0  0  0  0  0  0  0  0  0  0  0
    5.5421   -9.7037   14.8843 C   0  0  0  0  0  0  0  0  0  0  0  0
    4.6252  -10.4097   14.0952 C   0  0  0  0  0  0  0  0  0  0  0  0
    3.2701  -10.0669   14.0648 C   0  0  0  0  0  0  0  0  0  0  0  0
    2.8595   -8.9812   14.8481 C   0  0  0  0  0  0  0  0  0  0  0  0
    3.7573   -8.2549   15.6224 C   0  0  0  0  0  0  0  0  0  0  0  0
    3.1156   -7.2447   16.2845 N   0  0  0  0  0  0  0  0  0  0  0  0
    1.8459   -7.3064   15.9356 C   0  0  0  0  0  0  0  0  0  0  0  0
    1.6351   -8.3738   15.0752 N   0  0  0  0  0  0  0  0  0  0  0  0
    5.1259   -8.5943   15.6545 C   0  0  0  0  0  0  0  0  0  0  0  0
    6.0931   -7.8023   16.4979 C   0  0  0  0  0  0  0  0  0  0  0  0
    0.8273   -6.3147   16.4398 C   0  0  1  0  0  0  0  0  0  0  0  0
    1.0458   -5.9246   17.9060 C   0  0  0  0  0  0  0  0  0  0  0  0
   -0.0829   -5.0289   18.4219 C   0  0  0  0  0  0  0  0  0  0  0  0
   -0.5278   -3.9473   17.4240 C   0  0  2  0  0  0  0  0  0  0  0  0
    0.4446   -3.7938   16.2499 C   0  0  0  0  0  0  0  0  0  0  0  0
    0.6366   -5.1120   15.5007 C   0  0  0  0  0  0  0  0  0  0  0  0
   -0.7152   -2.6245   18.1342 C   0  0  0  0  0  0  0  0  0  0  0  0
    0.0379   -1.6664   18.1158 O   0  0  0  0  0  0  0  0  0  0  0  0
   -1.8615   -2.5816   18.8404 O   0  0  0  0  0  0  0  0  0  0  0  0
   -1.8653   -1.6868   19.2412 H   0  0  0  0  0  0  0  0  0  0  0  0
   10.5535   -7.4284   17.9827 C   0  0  0  0  0  0  0  0  0  0  0  0
    9.6727   -7.9865   17.0074 O   0  0  0  0  0  0  0  0  0  0  0  0
    0.3499   -8.8237   14.5329 C   0  0  1  0  0  0  0  0  0  0  0  0
   -0.7088   -8.9575   15.6319 C   0  0  0  0  0  0  0  0  0  0  0  0
   -0.0893   -7.9503   13.3493 C   0  0  0  0  0  0  0  0  0  0  0  0
    0.9541   -7.8137   12.3484 N   0  0  0  0  0  0  0  0  0  0  0  0
    1.2883   -8.7233   11.3872 C   0  0  0  0  0  0  0  0  0  0  0  0
    2.3231   -8.1591   10.6837 C   0  0  0  0  0  0  0  0  0  0  0  0
    3.1660   -8.8007    9.3676 Cl  0  0  0  0  0  0  0  0  0  0  0  0
    2.5442   -6.9142   11.2975 C   0  0  0  0  0  0  0  0  0  0  0  0
    1.7079   -6.6984   12.3196 N   0  0  0  0  0  0  0  0  0  0  0  0
    7.3586  -10.2263   16.9604 H   0  0  0  0  0  0  0  0  0  0  0  0
    8.7695   -9.7973   16.0013 H   0  0  0  0  0  0  0  0  0  0  0  0
    7.0746  -11.1548   14.7764 H   0  0  0  0  0  0  0  0  0  0  0  0
    7.4629   -9.6043   14.0316 H   0  0  0  0  0  0  0  0  0  0  0  0
    4.9577  -11.2015   13.5228 H   0  0  0  0  0  0  0  0  0  0  0  0
    2.5975  -10.5944   13.4866 H   0  0  0  0  0  0  0  0  0  0  0  0
    5.7866   -7.8828   17.5199 H   0  0  0  0  0  0  0  0  0  0  0  0
    6.0652   -6.7994   16.1260 H   0  0  0  0  0  0  0  0  0  0  0  0
   -0.1116   -6.8277   16.4242 H   0  0  0  0  0  0  0  0  0  0  0  0
    1.9737   -5.3987   17.9914 H   0  0  0  0  0  0  0  0  0  0  0  0
    1.0597   -6.8191   18.4931 H   0  0  0  0  0  0  0  0  0  0  0  0
    0.2530   -4.5450   19.3152 H   0  0  0  0  0  0  0  0  0  0  0  0
   -0.9288   -5.6622   18.5899 H   0  0  0  0  0  0  0  0  0  0  0  0
   -1.4633   -4.2640   17.0123 H   0  0  0  0  0  0  0  0  0  0  0  0
    1.3919   -3.4664   16.6244 H   0  0  0  0  0  0  0  0  0  0  0  0
    0.0347   -3.0785   15.5679 H   0  0  0  0  0  0  0  0  0  0  0  0
    1.5013   -5.0265   14.8763 H   0  0  0  0  0  0  0  0  0  0  0  0
   -0.2517   -5.2886   14.9309 H   0  0  0  0  0  0  0  0  0  0  0  0
   11.4970   -7.9314   17.9406 H   0  0  0  0  0  0  0  0  0  0  0  0
   10.1285   -7.5484   18.9573 H   0  0  0  0  0  0  0  0  0  0  0  0
   10.6951   -6.3872   17.7811 H   0  0  0  0  0  0  0  0  0  0  0  0
    0.4754   -9.8099   14.1372 H   0  0  0  0  0  0  0  0  0  0  0  0
   -0.8857   -7.9998   16.0752 H   0  0  0  0  0  0  0  0  0  0  0  0
   -0.3615   -9.6384   16.3807 H   0  0  0  0  0  0  0  0  0  0  0  0
   -1.6186   -9.3277   15.2075 H   0  0  0  0  0  0  0  0  0  0  0  0
   -0.3445   -6.9778   13.7153 H   0  0  0  0  0  0  0  0  0  0  0  0
   -0.9281   -8.4256   12.8851 H   0  0  0  0  0  0  0  0  0  0  0  0
    0.8531   -9.6446   11.2233 H   0  0  0  0  0  0  0  0  0  0  0  0
    3.2681   -6.2438   10.9948 H   0  0  0  0  0  0  0  0  0  0  0  0
  1  2  2  0
  1  3  1  0
  3  4  1  0
  4  5  1  0
  4 37  1  0
  4 38  1  0
  5  6  1  0
  5 39  1  0
  5 40  1  0
  6  7  2  0
  7  8  1  0
  7 41  1  0
  8  9  2  0
  8 42  1  0
  9 10  1  0
 10 11  1  0
 10 14  2  0
 11 12  2  0
 12 16  1  0
 12 13  1  0
 13 28  1  0
 13  9  1  0
 14 15  1  0
 14  6  1  0
 15  3  1  0
 15 43  1  0
 15 44  1  0
 16 17  1  0
 16 45  1  1
 17 18  1  0
 17 46  1  0
 17 47  1  0
 18 19  1  0
 18 48  1  0
 18 49  1  0
 19 22  1  0
 19 20  1  0
 19 50  1  6
 20 21  1  0
 20 51  1  0
 20 52  1  0
 21 16  1  0
 21 53  1  0
 21 54  1  0
 22 23  2  0
 22 24  1  0
 24 25  1  0
 26 27  1  0
 26 55  1  0
 26 56  1  0
 26 57  1  0
 27  1  1  0
 28 29  1  0
 28 30  1  0
 28 58  1  6
 29 59  1  0
 29 60  1  0
 29 61  1  0
 30 31  1  0
 30 62  1  0
 30 63  1  0
 31 32  1  0
 32 33  2  0
 32 64  1  0
 33 34  1  0
 33 35  1  0
 35 36  2  0
 35 65  1  0
 36 31  1  0
M  END
>  <minimizedAffinity>  (2) 
-7.62885

>  <mol_id>  (2) 
30981

>  <source_index>  (2) 
1

>  <layer>  (2) 
L2

>  <uniprot>  (2) 
Q92793

>  <paff>  (2) 
7.2595999999999998

>  <smiles>  (2) 
COC(=O)N1CCc2ccc3c(nc([C@H]4CC[C@@H](C(=O)O)CC4)n3[C@@H](C)Cn3cc(Cl)cn3)c2C1

$$$$
L2:Q92793:46473
     RDKit          3D

 68 73  0  0  0  0  0  0  0  0999 V2000
    5.9118   -7.8018   16.6050 C   0  0  0  0  0  0  0  0  0  0  0  0
    6.0437   -8.5197   15.4296 C   0  0  0  0  0  0  0  0  0  0  0  0
    4.8901   -9.0011   14.8120 C   0  0  0  0  0  0  0  0  0  0  0  0
    4.9709   -9.7144   13.6010 C   0  0  0  0  0  0  0  0  0  0  0  0
    3.8215  -10.1757   12.9447 C   0  0  0  0  0  0  0  0  0  0  0  0
    2.5763   -9.9085   13.5141 C   0  0  0  0  0  0  0  0  0  0  0  0
    2.4830   -9.2118   14.7230 C   0  0  0  0  0  0  0  0  0  0  0  0
    3.6330   -8.7523   15.4054 C   0  0  0  0  0  0  0  0  0  0  0  0
    3.6062   -8.0327   16.6331 C   0  0  0  0  0  0  0  0  0  0  0  0
    4.7276   -7.5518   17.2179 N   0  0  0  0  0  0  0  0  0  0  0  0
    2.3735   -7.7999   17.2969 N   0  0  0  0  0  0  0  0  0  0  0  0
    2.2158   -8.6513   18.4880 C   0  0  0  0  0  0  0  0  0  0  0  0
    2.2288   -7.8298   19.7694 C   0  0  0  0  0  0  0  0  0  0  0  0
    1.0665   -6.8496   19.7454 C   0  0  0  0  0  0  0  0  0  0  0  0
    1.0567   -6.0650   18.4608 C   0  0  0  0  0  0  0  0  0  0  0  0
    0.3665   -4.8415   18.4140 C   0  0  0  0  0  0  0  0  0  0  0  0
    0.3399   -4.0619   17.2479 C   0  0  0  0  0  0  0  0  0  0  0  0
    1.0281   -4.5076   16.1090 C   0  0  0  0  0  0  0  0  0  0  0  0
    1.6931   -5.7495   16.1616 C   0  0  0  0  0  0  0  0  0  0  0  0
    1.7179   -6.5465   17.3190 C   0  0  0  0  0  0  0  0  0  0  0  0
   -0.3857   -2.8086   17.2827 C   0  0  0  0  0  0  0  0  0  0  0  0
    0.0383   -1.5127   17.6486 C   0  0  0  0  0  0  0  0  0  0  0  0
   -0.9458   -0.6135   17.5678 N   0  0  0  0  0  0  0  0  0  0  0  0
   -2.0092   -1.3390   17.1732 N   0  0  0  0  0  0  0  0  0  0  0  0
   -3.2860   -0.6933   16.9954 C   0  0  0  0  0  0  0  0  0  0  0  0
   -1.7264   -2.6621   16.9967 C   0  0  0  0  0  0  0  0  0  0  0  0
    1.0635   -3.7232   14.8228 C   0  0  0  0  0  0  0  0  0  0  0  0
    1.8917   -2.6377   14.8820 F   0  0  0  0  0  0  0  0  0  0  0  0
    1.5195   -4.4666   13.7738 F   0  0  0  0  0  0  0  0  0  0  0  0
    3.9223  -10.8934   11.6625 C   0  0  0  0  0  0  0  0  0  0  0  0
    5.0739  -10.9425   10.9674 C   0  0  0  0  0  0  0  0  0  0  0  0
    5.2060  -11.6836    9.6677 C   0  0  0  0  0  0  0  0  0  0  0  0
    4.1008  -12.5574    9.4191 O   0  0  0  0  0  0  0  0  0  0  0  0
    2.8500  -11.9055    9.6437 C   0  0  0  0  0  0  0  0  0  0  0  0
    2.6919  -11.5820   11.1291 C   0  0  0  0  0  0  0  0  0  0  0  0
    9.5905   -7.3616   17.3328 C   0  0  0  0  0  0  0  0  0  0  0  0
    8.3117   -7.8270   16.8744 N   0  0  0  0  0  0  0  0  0  0  0  0
    7.1283   -7.2504   17.2825 C   0  0  0  0  0  0  0  0  0  0  0  0
    7.0481   -6.3570   18.1179 O   0  0  0  0  0  0  0  0  0  0  0  0
    8.2412   -8.4949   16.1088 H   0  0  0  0  0  0  0  0  0  0  0  0
    6.9744   -8.6948   15.0195 H   0  0  0  0  0  0  0  0  0  0  0  0
    5.8975   -9.9019   13.1871 H   0  0  0  0  0  0  0  0  0  0  0  0
    1.7172  -10.2275   13.0394 H   0  0  0  0  0  0  0  0  0  0  0  0
    1.5514   -9.0284   15.1273 H   0  0  0  0  0  0  0  0  0  0  0  0
    3.0197   -9.3567   18.5196 H   0  0  0  0  0  0  0  0  0  0  0  0
    1.2719   -9.1506   18.4200 H   0  0  0  0  0  0  0  0  0  0  0  0
    3.1504   -7.2907   19.8398 H   0  0  0  0  0  0  0  0  0  0  0  0
    2.1344   -8.4794   20.6144 H   0  0  0  0  0  0  0  0  0  0  0  0
    1.1608   -6.1732   20.5691 H   0  0  0  0  0  0  0  0  0  0  0  0
    0.1517   -7.3998   19.8187 H   0  0  0  0  0  0  0  0  0  0  0  0
   -0.1311   -4.5097   19.2550 H   0  0  0  0  0  0  0  0  0  0  0  0
    2.1809   -6.0867   15.3170 H   0  0  0  0  0  0  0  0  0  0  0  0
    1.0004   -1.2858   17.9451 H   0  0  0  0  0  0  0  0  0  0  0  0
   -3.1904    0.3509   17.2086 H   0  0  0  0  0  0  0  0  0  0  0  0
   -4.0018   -1.1291   17.6607 H   0  0  0  0  0  0  0  0  0  0  0  0
   -3.6134   -0.8225   15.9849 H   0  0  0  0  0  0  0  0  0  0  0  0
   -2.3834   -3.4035   16.7075 H   0  0  0  0  0  0  0  0  0  0  0  0
    0.0465   -3.4224   14.6809 H   0  0  0  0  0  0  0  0  0  0  0  0
    5.8999  -10.4508   11.3429 H   0  0  0  0  0  0  0  0  0  0  0  0
    6.1037  -12.2652    9.6943 H   0  0  0  0  0  0  0  0  0  0  0  0
    5.2295  -10.9583    8.8814 H   0  0  0  0  0  0  0  0  0  0  0  0
    2.0536  -12.5495    9.3340 H   0  0  0  0  0  0  0  0  0  0  0  0
    2.8200  -10.9966    9.0799 H   0  0  0  0  0  0  0  0  0  0  0  0
    2.5363  -12.4913   11.6712 H   0  0  0  0  0  0  0  0  0  0  0  0
    1.8540  -10.9276   11.2496 H   0  0  0  0  0  0  0  0  0  0  0  0
    9.4510   -6.6706   18.1378 H   0  0  0  0  0  0  0  0  0  0  0  0
   10.1018   -6.8743   16.5290 H   0  0  0  0  0  0  0  0  0  0  0  0
   10.1716   -8.1931   17.6731 H   0  0  0  0  0  0  0  0  0  0  0  0
  1  2  2  0
  2  3  1  0
  2 41  1  0
  3  4  2  0
  4  5  1  0
  4 42  1  0
  5 30  1  0
  5  6  2  0
  6  7  1  0
  6 43  1  0
  7  8  2  0
  7 44  1  0
  8  9  1  0
  8  3  1  0
  9 11  1  0
  9 10  2  0
 10  1  1  0
 11 12  1  0
 12 13  1  0
 12 45  1  0
 12 46  1  0
 13 14  1  0
 13 47  1  0
 13 48  1  0
 14 15  1  0
 14 49  1  0
 14 50  1  0
 15 16  2  0
 16 17  1  0
 16 51  1  0
 17 21  1  0
 17 18  2  0
 18 27  1  0
 18 19  1  0
 19 20  2  0
 19 52  1  0
 20 15  1  0
 20 11  1  0
 21 22  1  0
 22 23  2  0
 22 53  1  0
 23 24  1  0
 24 25  1  0
 24 26  1  0
 25 54  1  0
 25 55  1  0
 25 56  1  0
 26 21  2  0
 26 57  1  0
 27 28  1  0
 27 29  1  0
 27 58  1  0
 30 31  2  0
 31 32  1  0
 31 59  1  0
 32 33  1  0
 32 60  1  0
 32 61  1  0
 33 34  1  0
 34 35  1  0
 34 62  1  0
 34 63  1  0
 35 30  1  0
 35 64  1  0
 35 65  1  0
 36 37  1  0
 36 66  1  0
 36 67  1  0
 36 68  1  0
 37 38  1  0
 37 40  1  0
 38 39  2  0
 38  1  1  0
M  END
>  <minimizedAffinity>  (3) 
-9.20133

>  <mol_id>  (3) 
46473

>  <source_index>  (3) 
2

>  <layer>  (3) 
L2

>  <uniprot>  (3) 
Q92793

>  <paff>  (3) 
7.7446999999999999

>  <smiles>  (3) 
CNC(=O)c6cc2cc(C1=CCOCC1)ccc2c(N5CCCc4cc(c3cnn(C)c3)c(C(F)F)cc45)n6

$$$$
L2:Q92793:56089
     RDKit          3D

 71 75  0  0  0  0  0  0  0  0999 V2000
    8.5532   -7.3916   17.0122 C   0  0  0  0  0  0  0  0  0  0  0  0
    8.3245   -6.2549   17.4108 O   0  0  0  0  0  0  0  0  0  0  0  0
    7.5990   -8.2241   16.4551 N   0  0  0  0  0  0  0  0  0  0  0  0
    7.8288   -9.6432   16.2159 C   0  0  0  0  0  0  0  0  0  0  0  0
    7.1319  -10.1046   14.9386 C   0  0  0  0  0  0  0  0  0  0  0  0
    5.6791   -9.7009   14.9186 C   0  0  0  0  0  0  0  0  0  0  0  0
    4.7743  -10.4040   14.1141 C   0  0  0  0  0  0  0  0  0  0  0  0
    3.4251  -10.0444   14.0470 C   0  0  0  0  0  0  0  0  0  0  0  0
    3.0056   -8.9456   14.8107 C   0  0  0  0  0  0  0  0  0  0  0  0
    3.8921   -8.2253   15.5953 C   0  0  0  0  0  0  0  0  0  0  0  0
    3.2456   -7.2049   16.2255 N   0  0  0  0  0  0  0  0  0  0  0  0
    1.9761   -7.2512   15.8584 C   0  0  0  0  0  0  0  0  0  0  0  0
    1.7739   -8.3108   14.9805 N   0  0  0  0  0  0  0  0  0  0  0  0
    5.2558   -8.5777   15.6645 C   0  0  0  0  0  0  0  0  0  0  0  0
    6.2098   -7.7836   16.5202 C   0  0  0  0  0  0  0  0  0  0  0  0
    1.0117   -6.2426   16.4386 C   0  0  1  0  0  0  0  0  0  0  0  0
    1.1069   -5.9729   17.9335 C   0  0  0  0  0  0  0  0  0  0  0  0
   -0.0872   -5.1551   18.4540 C   0  0  0  0  0  0  0  0  0  0  0  0
   -0.6520   -4.1156   17.4453 C   0  0  1  0  0  0  0  0  0  0  0  0
   -1.0814   -2.8503   18.2080 C   0  0  0  0  0  0  0  0  0  0  0  0
    0.4241   -3.7530   16.4001 C   0  0  0  0  0  0  0  0  0  0  0  0
    0.9101   -4.9644   15.5958 C   0  0  0  0  0  0  0  0  0  0  0  0
   -1.9190   -4.6525   16.7712 C   0  0  0  0  0  0  0  0  0  0  0  0
   -2.4749   -5.7146   16.9975 O   0  0  0  0  0  0  0  0  0  0  0  0
   -2.4600   -3.7981   15.8808 O   0  0  0  0  0  0  0  0  0  0  0  0
   -3.2534   -4.2731   15.5523 H   0  0  0  0  0  0  0  0  0  0  0  0
   10.6593   -7.3843   18.0356 C   0  0  0  0  0  0  0  0  0  0  0  0
    9.7844   -7.9707   17.0711 O   0  0  0  0  0  0  0  0  0  0  0  0
    0.5691   -8.7725   14.2871 C   0  0  1  0  0  0  0  0  0  0  0  0
   -0.6278   -9.0561   15.1954 C   0  0  0  0  0  0  0  0  0  0  0  0
    0.1995   -7.9139   13.0584 C   0  0  0  0  0  0  0  0  0  0  0  0
    1.3052   -7.8435   12.0281 C   0  0  0  0  0  0  0  0  0  0  0  0
    1.4767   -8.8781   11.0976 C   0  0  0  0  0  0  0  0  0  0  0  0
    2.5144   -8.8248   10.1659 C   0  0  0  0  0  0  0  0  0  0  0  0
    3.3910   -7.7415   10.1578 C   0  0  0  0  0  0  0  0  0  0  0  0
    3.2302   -6.7090   11.0799 C   0  0  0  0  0  0  0  0  0  0  0  0
    2.1910   -6.7576   12.0099 C   0  0  0  0  0  0  0  0  0  0  0  0
    7.4476  -10.2035   17.0440 H   0  0  0  0  0  0  0  0  0  0  0  0
    8.8810   -9.8035   16.1061 H   0  0  0  0  0  0  0  0  0  0  0  0
    7.1964  -11.1707   14.8742 H   0  0  0  0  0  0  0  0  0  0  0  0
    7.6186   -9.6399   14.1067 H   0  0  0  0  0  0  0  0  0  0  0  0
    5.1109  -11.2057   13.5582 H   0  0  0  0  0  0  0  0  0  0  0  0
    2.7612  -10.5691   13.4563 H   0  0  0  0  0  0  0  0  0  0  0  0
    5.8846   -7.8560   17.5370 H   0  0  0  0  0  0  0  0  0  0  0  0
    6.1924   -6.7826   16.1426 H   0  0  0  0  0  0  0  0  0  0  0  0
    0.0725   -6.7501   16.3661 H   0  0  0  0  0  0  0  0  0  0  0  0
    2.0078   -5.4297   18.1289 H   0  0  0  0  0  0  0  0  0  0  0  0
    1.1036   -6.9164   18.4382 H   0  0  0  0  0  0  0  0  0  0  0  0
    0.2256   -4.6308   19.3327 H   0  0  0  0  0  0  0  0  0  0  0  0
   -0.8749   -5.8551   18.6393 H   0  0  0  0  0  0  0  0  0  0  0  0
   -1.8273   -3.1058   18.9314 H   0  0  0  0  0  0  0  0  0  0  0  0
   -1.4827   -2.1372   17.5185 H   0  0  0  0  0  0  0  0  0  0  0  0
   -0.2329   -2.4279   18.7045 H   0  0  0  0  0  0  0  0  0  0  0  0
    1.2617   -3.3228   16.9082 H   0  0  0  0  0  0  0  0  0  0  0  0
   -0.0192   -3.0669   15.7090 H   0  0  0  0  0  0  0  0  0  0  0  0
    1.8773   -4.7421   15.1957 H   0  0  0  0  0  0  0  0  0  0  0  0
    0.1907   -5.1460   14.8248 H   0  0  0  0  0  0  0  0  0  0  0  0
   11.6004   -7.8932   18.0194 H   0  0  0  0  0  0  0  0  0  0  0  0
   10.2246   -7.4692   19.0096 H   0  0  0  0  0  0  0  0  0  0  0  0
   10.8084   -6.3512   17.8004 H   0  0  0  0  0  0  0  0  0  0  0  0
    0.8486   -9.7328   13.9069 H   0  0  0  0  0  0  0  0  0  0  0  0
   -0.9760   -8.1393   15.6233 H   0  0  0  0  0  0  0  0  0  0  0  0
   -0.3321   -9.7247   15.9767 H   0  0  0  0  0  0  0  0  0  0  0  0
   -1.4129   -9.5028   14.6218 H   0  0  0  0  0  0  0  0  0  0  0  0
   -0.0198   -6.9207   13.3907 H   0  0  0  0  0  0  0  0  0  0  0  0
   -0.6442   -8.3754   12.5893 H   0  0  0  0  0  0  0  0  0  0  0  0
    0.8318   -9.6838   11.1017 H   0  0  0  0  0  0  0  0  0  0  0  0
    2.6327   -9.5886    9.4821 H   0  0  0  0  0  0  0  0  0  0  0  0
    4.1589   -7.7039    9.4693 H   0  0  0  0  0  0  0  0  0  0  0  0
    3.8804   -5.9076   11.0749 H   0  0  0  0  0  0  0  0  0  0  0  0
    2.0740   -5.9890   12.6886 H   0  0  0  0  0  0  0  0  0  0  0  0
  1  2  2  0
  1  3  1  0
  3  4  1  0
  4  5  1  0
  4 38  1  0
  4 39  1  0
  5  6  1  0
  5 40  1  0
  5 41  1  0
  6  7  2  0
  7  8  1  0
  7 42  1  0
  8  9  2  0
  8 43  1  0
  9 10  1  0
 10 11  1  0
 10 14  2  0
 11 12  2  0
 12 16  1  0
 12 13  1  0
 13 29  1  0
 13  9  1  0
 14 15  1  0
 14  6  1  0
 15  3  1  0
 15 44  1  0
 15 45  1  0
 16 17  1  0
 16 46  1  1
 17 18  1  0
 17 47  1  0
 17 48  1  0
 18 19  1  0
 18 49  1  0
 18 50  1  0
 19 20  1  1
 19 23  1  0
 19 21  1  0
 20 51  1  0
 20 52  1  0
 20 53  1  0
 21 22  1  0
 21 54  1  0
 21 55  1  0
 22 16  1  0
 22 56  1  0
 22 57  1  0
 23 24  2  0
 23 25  1  0
 25 26  1  0
 27 28  1  0
 27 58  1  0
 27 59  1  0
 27 60  1  0
 28  1  1  0
 29 30  1  0
 29 31  1  0
 29 61  1  6
 30 62  1  0
 30 63  1  0
 30 64  1  0
 31 32  1  0
 31 65  1  0
 31 66  1  0
 32 33  2  0
 33 34  1  0
 33 67  1  0
 34 35  2  0
 34 68  1  0
 35 36  1  0
 35 69  1  0
 36 37  2  0
 36 70  1  0
 37 32  1  0
 37 71  1  0
M  END
>  <minimizedAffinity>  (4) 
-7.62385

>  <mol_id>  (4) 
56089

>  <source_index>  (4) 
3

>  <layer>  (4) 
L2

>  <uniprot>  (4) 
Q92793

>  <paff>  (4) 
7.2595999999999998

>  <smiles>  (4) 
COC(=O)N1CCc2ccc3c(nc([C@H]4CC[C@](C)(C(=O)O)CC4)n3[C@@H](C)Cc3ccccc3)c2C1

$$$$
L2:Q92793:74284
     RDKit          3D

 68 72  0  0  0  0  0  0  0  0999 V2000
    2.0782  -10.7155   22.8771 C   0  0  0  0  0  0  0  0  0  0  0  0
    1.5677  -11.0372   23.9442 O   0  0  0  0  0  0  0  0  0  0  0  0
    1.4025  -10.0664   21.8591 N   0  0  0  0  0  0  0  0  0  0  0  0
    0.0681   -9.5503   22.1190 C   0  0  0  0  0  0  0  0  0  0  0  0
   -0.8216   -9.6723   20.8859 C   0  0  0  0  0  0  0  0  0  0  0  0
   -0.1636   -9.0726   19.6682 C   0  0  0  0  0  0  0  0  0  0  0  0
   -0.9529   -8.6240   18.6013 C   0  0  0  0  0  0  0  0  0  0  0  0
   -0.3805   -8.0842   17.4456 C   0  0  0  0  0  0  0  0  0  0  0  0
    1.0172   -8.0184   17.3886 C   0  0  0  0  0  0  0  0  0  0  0  0
    1.8179   -8.4613   18.4320 C   0  0  0  0  0  0  0  0  0  0  0  0
    3.1395   -8.2676   18.1404 N   0  0  0  0  0  0  0  0  0  0  0  0
    3.1888   -7.7069   16.9478 C   0  0  0  0  0  0  0  0  0  0  0  0
    1.9100   -7.5577   16.4323 N   0  0  0  0  0  0  0  0  0  0  0  0
    1.2469   -9.0137   19.5965 C   0  0  0  0  0  0  0  0  0  0  0  0
    2.1234   -9.5033   20.7202 C   0  0  0  0  0  0  0  0  0  0  0  0
    4.4773   -7.3015   16.2741 C   0  0  1  0  0  0  0  0  0  0  0  0
    5.6683   -7.3480   17.2452 C   0  0  0  0  0  0  0  0  0  0  0  0
    6.1839   -8.7569   17.5442 C   0  0  0  0  0  0  0  0  0  0  0  0
    6.4502   -9.5790   16.2827 C   0  0  1  0  0  0  0  0  0  0  0  0
    5.2722   -9.5478   15.3031 C   0  0  0  0  0  0  0  0  0  0  0  0
    4.7392   -8.1418   15.0171 C   0  0  0  0  0  0  0  0  0  0  0  0
    7.7451   -9.1447   15.6254 C   0  0  0  0  0  0  0  0  0  0  0  0
    8.6385   -8.4751   16.1158 O   0  0  0  0  0  0  0  0  0  0  0  0
    7.8544   -9.5958   14.3591 O   0  0  0  0  0  0  0  0  0  0  0  0
    8.7192   -9.2489   14.0565 H   0  0  0  0  0  0  0  0  0  0  0  0
    4.2099  -11.2464   23.6910 C   0  0  0  0  0  0  0  0  0  0  0  0
    3.3812  -10.9590   22.5652 O   0  0  0  0  0  0  0  0  0  0  0  0
    1.5029   -7.0191   15.1329 C   0  0  2  0  0  0  0  0  0  0  0  0
    0.7859   -5.6693   15.2510 C   0  0  0  0  0  0  0  0  0  0  0  0
    0.7243   -8.0280   14.2629 C   0  0  0  0  0  0  0  0  0  0  0  0
    1.6311   -8.9893   13.5277 C   0  0  0  0  0  0  0  0  0  0  0  0
    2.3408   -8.5691   12.3944 C   0  0  0  0  0  0  0  0  0  0  0  0
    3.2001   -9.4475   11.7327 C   0  0  0  0  0  0  0  0  0  0  0  0
    3.3619  -10.7502   12.1992 C   0  0  0  0  0  0  0  0  0  0  0  0
    2.6636  -11.1766   13.3266 C   0  0  0  0  0  0  0  0  0  0  0  0
    1.8008  -10.3019   13.9878 C   0  0  0  0  0  0  0  0  0  0  0  0
    0.1407   -8.5194   22.3961 H   0  0  0  0  0  0  0  0  0  0  0  0
   -0.3686  -10.1242   22.9095 H   0  0  0  0  0  0  0  0  0  0  0  0
   -1.7434   -9.1612   21.0703 H   0  0  0  0  0  0  0  0  0  0  0  0
   -0.9934  -10.7114   20.6973 H   0  0  0  0  0  0  0  0  0  0  0  0
   -1.9803   -8.6936   18.6700 H   0  0  0  0  0  0  0  0  0  0  0  0
   -0.9653   -7.7473   16.6648 H   0  0  0  0  0  0  0  0  0  0  0  0
    2.7070   -8.6779   21.0709 H   0  0  0  0  0  0  0  0  0  0  0  0
    2.7154  -10.2977   20.3160 H   0  0  0  0  0  0  0  0  0  0  0  0
    4.3670   -6.2837   15.9629 H   0  0  0  0  0  0  0  0  0  0  0  0
    5.3655   -6.8994   18.1682 H   0  0  0  0  0  0  0  0  0  0  0  0
    6.4707   -6.8231   16.7704 H   0  0  0  0  0  0  0  0  0  0  0  0
    5.4536   -9.2682   18.1359 H   0  0  0  0  0  0  0  0  0  0  0  0
    7.1158   -8.6527   18.0595 H   0  0  0  0  0  0  0  0  0  0  0  0
    6.5573  -10.6005   16.5826 H   0  0  0  0  0  0  0  0  0  0  0  0
    4.4762  -10.1323   15.7150 H   0  0  0  0  0  0  0  0  0  0  0  0
    5.6311   -9.9384   14.3739 H   0  0  0  0  0  0  0  0  0  0  0  0
    3.8197   -8.2346   14.4778 H   0  0  0  0  0  0  0  0  0  0  0  0
    5.4972   -7.6329   14.4590 H   0  0  0  0  0  0  0  0  0  0  0  0
    5.2118  -11.4245   23.3602 H   0  0  0  0  0  0  0  0  0  0  0  0
    3.8402  -12.1159   24.1933 H   0  0  0  0  0  0  0  0  0  0  0  0
    4.1990  -10.4143   24.3636 H   0  0  0  0  0  0  0  0  0  0  0  0
    2.4157   -6.8336   14.6063 H   0  0  0  0  0  0  0  0  0  0  0  0
   -0.1386   -5.8010   15.7733 H   0  0  0  0  0  0  0  0  0  0  0  0
    0.5909   -5.2822   14.2727 H   0  0  0  0  0  0  0  0  0  0  0  0
    1.4050   -4.9825   15.7894 H   0  0  0  0  0  0  0  0  0  0  0  0
    0.1465   -7.4853   13.5441 H   0  0  0  0  0  0  0  0  0  0  0  0
    0.1040   -8.6055   14.9160 H   0  0  0  0  0  0  0  0  0  0  0  0
    2.2272   -7.6040   12.0470 H   0  0  0  0  0  0  0  0  0  0  0  0
    3.7163   -9.1316   10.8968 H   0  0  0  0  0  0  0  0  0  0  0  0
    3.9985  -11.3987   11.7100 H   0  0  0  0  0  0  0  0  0  0  0  0
    2.7846  -12.1410   13.6733 H   0  0  0  0  0  0  0  0  0  0  0  0
    1.2842  -10.6238   14.8212 H   0  0  0  0  0  0  0  0  0  0  0  0
  1  2  2  0
  1  3  1  0
  3  4  1  0
  4  5  1  0
  4 37  1  0
  4 38  1  0
  5  6  1  0
  5 39  1  0
  5 40  1  0
  6  7  2  0
  7  8  1  0
  7 41  1  0
  8  9  2  0
  8 42  1  0
  9 10  1  0
 10 11  1  0
 10 14  2  0
 11 12  2  0
 12 16  1  0
 12 13  1  0
 13 28  1  0
 13  9  1  0
 14 15  1  0
 14  6  1  0
 15  3  1  0
 15 43  1  0
 15 44  1  0
 16 17  1  0
 16 45  1  6
 17 18  1  0
 17 46  1  0
 17 47  1  0
 18 19  1  0
 18 48  1  0
 18 49  1  0
 19 22  1  0
 19 20  1  0
 19 50  1  1
 20 21  1  0
 20 51  1  0
 20 52  1  0
 21 16  1  0
 21 53  1  0
 21 54  1  0
 22 23  2  0
 22 24  1  0
 24 25  1  0
 26 27  1  0
 26 55  1  0
 26 56  1  0
 26 57  1  0
 27  1  1  0
 28 29  1  0
 28 30  1  0
 28 58  1  6
 29 59  1  0
 29 60  1  0
 29 61  1  0
 30 31  1  0
 30 62  1  0
 30 63  1  0
 31 32  2  0
 32 33  1  0
 32 64  1  0
 33 34  2  0
 33 65  1  0
 34 35  1  0
 34 66  1  0
 35 36  2  0
 35 67  1  0
 36 31  1  0
 36 68  1  0
M  END
>  <minimizedAffinity>  (5) 
-6.69751

>  <mol_id>  (5) 
74284

>  <source_index>  (5) 
4

>  <layer>  (5) 
L2

>  <uniprot>  (5) 
Q92793

>  <paff>  (5) 
6.2595999999999998

>  <smiles>  (5) 
COC(=O)N1CCc2ccc3c(nc([C@H]4CC[C@H](C(=O)O)CC4)n3[C@H](C)Cc3ccccc3)c2C1

$$$$
L2:Q92793:92633
     RDKit          3D

 69 73  0  0  0  0  0  0  0  0999 V2000
    8.7428   -7.7904   16.7983 C   0  0  0  0  0  0  0  0  0  0  0  0
    9.8892   -8.2266   16.7968 O   0  0  0  0  0  0  0  0  0  0  0  0
    7.6518   -8.4777   16.3000 N   0  0  0  0  0  0  0  0  0  0  0  0
    7.7966   -9.8838   15.9584 C   0  0  0  0  0  0  0  0  0  0  0  0
    7.0031  -10.2301   14.7035 C   0  0  0  0  0  0  0  0  0  0  0  0
    5.5673   -9.7805   14.8182 C   0  0  0  0  0  0  0  0  0  0  0  0
    4.5779  -10.4201   14.0594 C   0  0  0  0  0  0  0  0  0  0  0  0
    3.2414  -10.0152   14.1112 C   0  0  0  0  0  0  0  0  0  0  0  0
    2.9317   -8.9337   14.9427 C   0  0  0  0  0  0  0  0  0  0  0  0
    3.8964   -8.2739   15.6983 C   0  0  0  0  0  0  0  0  0  0  0  0
    3.3369   -7.2494   16.4196 N   0  0  0  0  0  0  0  0  0  0  0  0
    2.0594   -7.2619   16.1278 C   0  0  0  0  0  0  0  0  0  0  0  0
    1.7568   -8.2656   15.2326 N   0  0  0  0  0  0  0  0  0  0  0  0
    5.2459   -8.6819   15.6501 C   0  0  0  0  0  0  0  0  0  0  0  0
    6.2949   -7.9644   16.4630 C   0  0  0  0  0  0  0  0  0  0  0  0
    1.1083   -6.4064   16.5924 N   0  0  0  0  0  0  0  0  0  0  0  0
    1.0625   -6.3510   18.0782 C   0  0  0  0  0  0  0  0  0  0  0  0
   -0.1376   -5.5069   18.5390 C   0  0  0  0  0  0  0  0  0  0  0  0
   -0.1773   -4.1755   17.9188 N   0  0  0  0  0  0  0  0  0  0  0  0
   -0.8855   -3.1825   18.5793 C   0  0  0  0  0  0  0  0  0  0  0  0
   -1.3498   -3.3341   19.7139 O   0  0  0  0  0  0  0  0  0  0  0  0
    0.0702   -4.1540   16.4699 C   0  0  0  0  0  0  0  0  0  0  0  0
    1.2641   -5.0312   16.0519 C   0  0  0  0  0  0  0  0  0  0  0  0
   -1.0802   -1.8404   17.8634 C   0  0  0  0  0  0  0  0  0  0  0  0
    0.0493   -0.9880   18.0116 O   0  0  0  0  0  0  0  0  0  0  0  0
    0.6537   -1.4545   18.6290 H   0  0  0  0  0  0  0  0  0  0  0  0
    8.3310   -6.5040   18.7157 C   0  0  0  0  0  0  0  0  0  0  0  0
    8.4048   -6.5671   17.2904 O   0  0  0  0  0  0  0  0  0  0  0  0
    0.4472   -8.5660   14.6510 C   0  0  1  0  0  0  0  0  0  0  0  0
   -0.6476   -8.6105   15.7219 C   0  0  0  0  0  0  0  0  0  0  0  0
    0.1038   -7.6213   13.4812 C   0  0  0  0  0  0  0  0  0  0  0  0
    1.0133   -7.8065   12.2885 C   0  0  0  0  0  0  0  0  0  0  0  0
    2.0646   -6.9083   12.0589 C   0  0  0  0  0  0  0  0  0  0  0  0
    2.9130   -7.0782   10.9643 C   0  0  0  0  0  0  0  0  0  0  0  0
    2.7200   -8.1461   10.0909 C   0  0  0  0  0  0  0  0  0  0  0  0
    1.6782   -9.0448   10.3109 C   0  0  0  0  0  0  0  0  0  0  0  0
    0.8271   -8.8767   11.4043 C   0  0  0  0  0  0  0  0  0  0  0  0
    7.4398  -10.4794   16.7725 H   0  0  0  0  0  0  0  0  0  0  0  0
    8.8312  -10.0825   15.7710 H   0  0  0  0  0  0  0  0  0  0  0  0
    7.0255  -11.2901   14.5590 H   0  0  0  0  0  0  0  0  0  0  0  0
    7.4490   -9.7240   13.8729 H   0  0  0  0  0  0  0  0  0  0  0  0
    4.8424  -11.2084   13.4482 H   0  0  0  0  0  0  0  0  0  0  0  0
    2.5130  -10.4942   13.5589 H   0  0  0  0  0  0  0  0  0  0  0  0
    6.0295   -8.0469   17.4963 H   0  0  0  0  0  0  0  0  0  0  0  0
    6.3104   -6.9541   16.1109 H   0  0  0  0  0  0  0  0  0  0  0  0
    1.9664   -5.9103   18.4439 H   0  0  0  0  0  0  0  0  0  0  0  0
    0.9602   -7.3443   18.4626 H   0  0  0  0  0  0  0  0  0  0  0  0
   -0.0818   -5.3866   19.6007 H   0  0  0  0  0  0  0  0  0  0  0  0
   -1.0253   -6.0246   18.2409 H   0  0  0  0  0  0  0  0  0  0  0  0
    0.2672   -3.1453   16.1723 H   0  0  0  0  0  0  0  0  0  0  0  0
   -0.8010   -4.5484   15.9899 H   0  0  0  0  0  0  0  0  0  0  0  0
    2.1674   -4.6025   16.4328 H   0  0  0  0  0  0  0  0  0  0  0  0
    1.3031   -5.0796   14.9837 H   0  0  0  0  0  0  0  0  0  0  0  0
   -1.9384   -1.3511   18.2744 H   0  0  0  0  0  0  0  0  0  0  0  0
   -1.2099   -2.0384   16.8199 H   0  0  0  0  0  0  0  0  0  0  0  0
    8.0611   -5.5129   19.0153 H   0  0  0  0  0  0  0  0  0  0  0  0
    9.2832   -6.7562   19.1337 H   0  0  0  0  0  0  0  0  0  0  0  0
    7.5934   -7.1957   19.0656 H   0  0  0  0  0  0  0  0  0  0  0  0
    0.5004   -9.5484   14.2303 H   0  0  0  0  0  0  0  0  0  0  0  0
   -0.7415   -7.6463   16.1762 H   0  0  0  0  0  0  0  0  0  0  0  0
   -0.3879   -9.3324   16.4677 H   0  0  0  0  0  0  0  0  0  0  0  0
   -1.5780   -8.8838   15.2696 H   0  0  0  0  0  0  0  0  0  0  0  0
    0.1896   -6.6107   13.8222 H   0  0  0  0  0  0  0  0  0  0  0  0
   -0.8919   -7.8518   13.1643 H   0  0  0  0  0  0  0  0  0  0  0  0
    2.2121   -6.1161   12.7037 H   0  0  0  0  0  0  0  0  0  0  0  0
    3.6842   -6.4121   10.8016 H   0  0  0  0  0  0  0  0  0  0  0  0
    3.3480   -8.2715    9.2817 H   0  0  0  0  0  0  0  0  0  0  0  0
    1.5356   -9.8363    9.6642 H   0  0  0  0  0  0  0  0  0  0  0  0
    0.0564   -9.5446   11.5621 H   0  0  0  0  0  0  0  0  0  0  0  0
  1  2  2  0
  1  3  1  0
  3  4  1  0
  4  5  1  0
  4 38  1  0
  4 39  1  0
  5  6  1  0
  5 40  1  0
  5 41  1  0
  6  7  2  0
  7  8  1  0
  7 42  1  0
  8  9  2  0
  8 43  1  0
  9 10  1  0
 10 11  1  0
 10 14  2  0
 11 12  2  0
 12 16  1  0
 12 13  1  0
 13 29  1  0
 13  9  1  0
 14 15  1  0
 14  6  1  0
 15  3  1  0
 15 44  1  0
 15 45  1  0
 16 17  1  0
 17 18  1  0
 17 46  1  0
 17 47  1  0
 18 19  1  0
 18 48  1  0
 18 49  1  0
 19 20  1  0
 19 22  1  0
 20 21  2  0
 20 24  1  0
 22 23  1  0
 22 50  1  0
 22 51  1  0
 23 16  1  0
 23 52  1  0
 23 53  1  0
 24 25  1  0
 24 54  1  0
 24 55  1  0
 25 26  1  0
 27 28  1  0
 27 56  1  0
 27 57  1  0
 27 58  1  0
 28  1  1  0
 29 30  1  0
 29 31  1  0
 29 59  1  6
 30 60  1  0
 30 61  1  0
 30 62  1  0
 31 32  1  0
 31 63  1  0
 31 64  1  0
 32 33  2  0
 33 34  1  0
 33 65  1  0
 34 35  2  0
 34 66  1  0
 35 36  1  0
 35 67  1  0
 36 37  2  0
 36 68  1  0
 37 32  1  0
 37 69  1  0
M  END
>  <minimizedAffinity>  (6) 
-7.27726

>  <mol_id>  (6) 
92633

>  <source_index>  (6) 
5

>  <layer>  (6) 
L2

>  <uniprot>  (6) 
Q92793

>  <paff>  (6) 
8.2596000000000007

>  <smiles>  (6) 
COC(=O)N1CCc2ccc3c(nc(N4CCN(C(=O)CO)CC4)n3[C@@H](C)Cc3ccccc3)c2C1

$$$$
L2:Q92793:99659
     RDKit          3D

 65 69  0  0  0  0  0  0  0  0999 V2000
   -2.8840   -2.7795   19.2417 C   0  0  0  0  0  0  0  0  0  0  0  0
   -3.7439   -1.9275   19.0462 O   0  0  0  0  0  0  0  0  0  0  0  0
   -1.9928   -3.2169   18.2779 N   0  0  0  0  0  0  0  0  0  0  0  0
   -2.1949   -2.8064   16.8977 C   0  0  0  0  0  0  0  0  0  0  0  0
   -0.8644   -2.6009   16.1806 C   0  0  0  0  0  0  0  0  0  0  0  0
    0.0329   -3.8044   16.3278 C   0  0  0  0  0  0  0  0  0  0  0  0
    1.0348   -4.0442   15.3779 C   0  0  0  0  0  0  0  0  0  0  0  0
    1.9018   -5.1348   15.4897 C   0  0  0  0  0  0  0  0  0  0  0  0
    1.7366   -5.9758   16.5964 C   0  0  0  0  0  0  0  0  0  0  0  0
    0.7685   -5.7425   17.5662 C   0  0  0  0  0  0  0  0  0  0  0  0
    0.8344   -6.6898   18.5536 N   0  0  0  0  0  0  0  0  0  0  0  0
    1.8233   -7.4932   18.2250 C   0  0  0  0  0  0  0  0  0  0  0  0
    2.3903   -7.1185   17.0250 N   0  0  0  0  0  0  0  0  0  0  0  0
   -0.1096   -4.6447   17.4562 C   0  0  0  0  0  0  0  0  0  0  0  0
   -1.1588   -4.3942   18.5089 C   0  0  0  0  0  0  0  0  0  0  0  0
    2.2189   -8.6997   19.1340 C   0  0  1  0  0  0  0  0  0  0  0  0
    2.8967   -8.3281   20.4756 C   0  0  0  0  0  0  0  0  0  0  0  0
    2.0725   -9.4669   21.1339 C   0  0  2  0  0  0  0  0  0  0  0  0
    1.0557   -9.2725   19.9763 C   0  0  0  0  0  0  0  0  0  0  0  0
    1.5997   -9.2491   22.5877 C   0  0  0  0  0  0  0  0  0  0  0  0
    1.4019   -8.1865   23.1637 O   0  0  0  0  0  0  0  0  0  0  0  0
    1.4070  -10.3995   23.2764 O   0  0  0  0  0  0  0  0  0  0  0  0
    1.1004  -10.0908   24.1548 H   0  0  0  0  0  0  0  0  0  0  0  0
   -3.5841   -2.9599   21.4708 C   0  0  0  0  0  0  0  0  0  0  0  0
   -2.7036   -3.4029   20.4384 O   0  0  0  0  0  0  0  0  0  0  0  0
    3.4788   -7.7720   16.2992 C   0  0  2  0  0  0  0  0  0  0  0  0
    2.9770   -8.6338   15.1357 C   0  0  0  0  0  0  0  0  0  0  0  0
    4.4357   -8.5571   17.2202 C   0  0  0  0  0  0  0  0  0  0  0  0
    5.8780   -8.1040   17.1014 C   0  0  0  0  0  0  0  0  0  0  0  0
    6.2849   -6.9659   17.8205 C   0  0  0  0  0  0  0  0  0  0  0  0
    7.5906   -6.4876   17.7273 C   0  0  0  0  0  0  0  0  0  0  0  0
    8.5116   -7.1419   16.9181 C   0  0  0  0  0  0  0  0  0  0  0  0
    8.1260   -8.2727   16.1992 C   0  0  0  0  0  0  0  0  0  0  0  0
    6.8116   -8.7633   16.2734 C   0  0  0  0  0  0  0  0  0  0  0  0
    6.4546   -9.9936   15.4846 C   0  0  0  0  0  0  0  0  0  0  0  0
   -2.7439   -1.8881   16.8839 H   0  0  0  0  0  0  0  0  0  0  0  0
   -2.7360   -3.5782   16.3914 H   0  0  0  0  0  0  0  0  0  0  0  0
   -0.3726   -1.7471   16.5977 H   0  0  0  0  0  0  0  0  0  0  0  0
   -1.0626   -2.4545   15.1394 H   0  0  0  0  0  0  0  0  0  0  0  0
    1.1348   -3.4007   14.5773 H   0  0  0  0  0  0  0  0  0  0  0  0
    2.6342   -5.3128   14.7848 H   0  0  0  0  0  0  0  0  0  0  0  0
   -0.6635   -4.2714   19.4493 H   0  0  0  0  0  0  0  0  0  0  0  0
   -1.8166   -5.2377   18.4839 H   0  0  0  0  0  0  0  0  0  0  0  0
    2.7284   -9.2758   18.3901 H   0  0  0  0  0  0  0  0  0  0  0  0
    2.6666   -7.3467   20.8344 H   0  0  0  0  0  0  0  0  0  0  0  0
    3.9612   -8.2774   20.5719 H   0  0  0  0  0  0  0  0  0  0  0  0
    2.4862  -10.4290   21.3533 H   0  0  0  0  0  0  0  0  0  0  0  0
    0.2712   -8.5754   20.1848 H   0  0  0  0  0  0  0  0  0  0  0  0
    0.4495  -10.0792   19.6205 H   0  0  0  0  0  0  0  0  0  0  0  0
   -3.3761   -3.4977   22.3721 H   0  0  0  0  0  0  0  0  0  0  0  0
   -4.5973   -3.1368   21.1757 H   0  0  0  0  0  0  0  0  0  0  0  0
   -3.4390   -1.9131   21.6385 H   0  0  0  0  0  0  0  0  0  0  0  0
    4.0541   -6.9765   15.8737 H   0  0  0  0  0  0  0  0  0  0  0  0
    2.3940   -9.4453   15.5185 H   0  0  0  0  0  0  0  0  0  0  0  0
    3.8133   -9.0208   14.5919 H   0  0  0  0  0  0  0  0  0  0  0  0
    2.3733   -8.0370   14.4843 H   0  0  0  0  0  0  0  0  0  0  0  0
    4.3820   -9.5943   16.9629 H   0  0  0  0  0  0  0  0  0  0  0  0
    4.1266   -8.3790   18.2290 H   0  0  0  0  0  0  0  0  0  0  0  0
    5.6066   -6.4778   18.4261 H   0  0  0  0  0  0  0  0  0  0  0  0
    7.8730   -5.6490   18.2583 H   0  0  0  0  0  0  0  0  0  0  0  0
    9.4798   -6.7913   16.8493 H   0  0  0  0  0  0  0  0  0  0  0  0
    8.8163   -8.7564   15.6038 H   0  0  0  0  0  0  0  0  0  0  0  0
    7.3091  -10.3229   14.9312 H   0  0  0  0  0  0  0  0  0  0  0  0
    5.6580   -9.7647   14.8079 H   0  0  0  0  0  0  0  0  0  0  0  0
    6.1428  -10.7682   16.1537 H   0  0  0  0  0  0  0  0  0  0  0  0
  1  2  2  0
  1  3  1  0
  3  4  1  0
  4  5  1  0
  4 36  1  0
  4 37  1  0
  5  6  1  0
  5 38  1  0
  5 39  1  0
  6  7  2  0
  7  8  1  0
  7 40  1  0
  8  9  2  0
  8 41  1  0
  9 10  1  0
 10 11  1  0
 10 14  2  0
 11 12  2  0
 12 16  1  0
 12 13  1  0
 13 26  1  0
 13  9  1  0
 14 15  1  0
 14  6  1  0
 15  3  1  0
 15 42  1  0
 15 43  1  0
 16 17  1  0
 16 44  1  6
 17 18  1  0
 17 45  1  0
 17 46  1  0
 18 20  1  0
 18 19  1  0
 18 47  1  1
 19 16  1  0
 19 48  1  0
 19 49  1  0
 20 21  2  0
 20 22  1  0
 22 23  1  0
 24 25  1  0
 24 50  1  0
 24 51  1  0
 24 52  1  0
 25  1  1  0
 26 27  1  0
 26 28  1  0
 26 53  1  6
 27 54  1  0
 27 55  1  0
 27 56  1  0
 28 29  1  0
 28 57  1  0
 28 58  1  0
 29 30  2  0
 30 31  1  0
 30 59  1  0
 31 32  2  0
 31 60  1  0
 32 33  1  0
 32 61  1  0
 33 34  2  0
 33 62  1  0
 34 35  1  0
 34 29  1  0
 35 63  1  0
 35 64  1  0
 35 65  1  0
M  END
>  <minimizedAffinity>  (7) 
-7.51959

>  <mol_id>  (7) 
99659

>  <source_index>  (7) 
6

>  <layer>  (7) 
L2

>  <uniprot>  (7) 
Q92793

>  <paff>  (7) 
6.2595999999999998

>  <smiles>  (7) 
COC(=O)N1CCc2ccc3c(nc([C@H]4C[C@@H](C(=O)O)C4)n3[C@H](C)Cc3ccccc3C)c2C1

$$$$
L2:Q92793:104318
     RDKit          3D

 65 69  0  0  0  0  0  0  0  0999 V2000
   -1.7377   -4.0361   22.8796 C   0  0  0  0  0  0  0  0  0  0  0  0
   -1.2259   -4.6631   23.7998 O   0  0  0  0  0  0  0  0  0  0  0  0
   -1.4497   -4.2509   21.5432 N   0  0  0  0  0  0  0  0  0  0  0  0
   -2.2445   -3.6906   20.4630 C   0  0  0  0  0  0  0  0  0  0  0  0
   -1.3662   -3.3151   19.2713 C   0  0  0  0  0  0  0  0  0  0  0  0
   -0.4335   -4.4313   18.8480 C   0  0  0  0  0  0  0  0  0  0  0  0
    0.1398   -4.4690   17.5542 C   0  0  0  0  0  0  0  0  0  0  0  0
    0.9954   -5.5216   17.1721 C   0  0  0  0  0  0  0  0  0  0  0  0
    1.2718   -6.5119   18.1200 C   0  0  0  0  0  0  0  0  0  0  0  0
    0.7499   -6.4783   19.4044 C   0  0  0  0  0  0  0  0  0  0  0  0
    1.1919   -7.5505   20.1333 N   0  0  0  0  0  0  0  0  0  0  0  0
    1.9864   -8.2411   19.3395 C   0  0  0  0  0  0  0  0  0  0  0  0
    2.0489   -7.6501   18.0950 N   0  0  0  0  0  0  0  0  0  0  0  0
   -0.1051   -5.4315   19.8053 C   0  0  0  0  0  0  0  0  0  0  0  0
   -0.6383   -5.4119   21.2163 C   0  0  0  0  0  0  0  0  0  0  0  0
    2.7198   -9.4961   19.7395 C   0  0  0  0  0  0  0  0  0  0  0  0
    4.1163   -9.1639   20.3089 C   0  0  0  0  0  0  0  0  0  0  0  0
    4.1185   -9.0927   21.8329 C   0  0  0  0  0  0  0  0  0  0  0  0
    3.6866  -10.4171   22.4647 C   0  0  0  0  0  0  0  0  0  0  0  0
    2.7131  -11.2196   21.5997 C   0  0  0  0  0  0  0  0  0  0  0  0
    1.8585  -10.3152   20.7204 C   0  0  0  0  0  0  0  0  0  0  0  0
   -0.1037   -3.3757   16.5672 C   0  0  0  0  0  0  0  0  0  0  0  0
    0.5403   -2.3545   16.4267 O   0  0  0  0  0  0  0  0  0  0  0  0
   -1.1761   -3.6212   15.7879 O   0  0  0  0  0  0  0  0  0  0  0  0
   -1.2244   -2.8319   15.2083 H   0  0  0  0  0  0  0  0  0  0  0  0
   -2.3724   -2.1878   24.1703 C   0  0  0  0  0  0  0  0  0  0  0  0
   -2.6554   -3.0482   23.0665 O   0  0  0  0  0  0  0  0  0  0  0  0
    2.8008   -8.1227   16.9465 C   0  0  0  0  0  0  0  0  0  0  0  0
    4.1958   -7.5028   16.8872 C   0  0  0  0  0  0  0  0  0  0  0  0
    5.1552   -8.3858   16.1316 C   0  0  0  0  0  0  0  0  0  0  0  0
    4.7182   -9.1240   15.0237 C   0  0  0  0  0  0  0  0  0  0  0  0
    5.6131   -9.9222   14.3097 C   0  0  0  0  0  0  0  0  0  0  0  0
    6.9510   -9.9866   14.6941 C   0  0  0  0  0  0  0  0  0  0  0  0
    7.3961   -9.2536   15.7925 C   0  0  0  0  0  0  0  0  0  0  0  0
    6.5032   -8.4546   16.5078 C   0  0  0  0  0  0  0  0  0  0  0  0
   -2.7466   -2.8145   20.8168 H   0  0  0  0  0  0  0  0  0  0  0  0
   -2.9523   -4.4272   20.1446 H   0  0  0  0  0  0  0  0  0  0  0  0
   -0.7780   -2.4616   19.5368 H   0  0  0  0  0  0  0  0  0  0  0  0
   -2.0164   -3.1113   18.4463 H   0  0  0  0  0  0  0  0  0  0  0  0
    1.4040   -5.5603   16.2252 H   0  0  0  0  0  0  0  0  0  0  0  0
    0.1945   -5.4361   21.8876 H   0  0  0  0  0  0  0  0  0  0  0  0
   -1.2789   -6.2639   21.3091 H   0  0  0  0  0  0  0  0  0  0  0  0
    2.8851  -10.1009   18.8724 H   0  0  0  0  0  0  0  0  0  0  0  0
    4.4304   -8.2179   19.9198 H   0  0  0  0  0  0  0  0  0  0  0  0
    4.7837   -9.9477   20.0170 H   0  0  0  0  0  0  0  0  0  0  0  0
    3.4428   -8.3238   22.1446 H   0  0  0  0  0  0  0  0  0  0  0  0
    5.1169   -8.8812   22.1543 H   0  0  0  0  0  0  0  0  0  0  0  0
    3.2129  -10.2067   23.4008 H   0  0  0  0  0  0  0  0  0  0  0  0
    4.5683  -11.0123   22.5794 H   0  0  0  0  0  0  0  0  0  0  0  0
    2.0706  -11.7888   22.2386 H   0  0  0  0  0  0  0  0  0  0  0  0
    3.2858  -11.8592   20.9610 H   0  0  0  0  0  0  0  0  0  0  0  0
    1.3094   -9.6422   21.3452 H   0  0  0  0  0  0  0  0  0  0  0  0
    1.1976  -10.9329   20.1489 H   0  0  0  0  0  0  0  0  0  0  0  0
   -3.1371   -1.4434   24.2475 H   0  0  0  0  0  0  0  0  0  0  0  0
   -1.4259   -1.7124   24.0184 H   0  0  0  0  0  0  0  0  0  0  0  0
   -2.3421   -2.7628   25.0721 H   0  0  0  0  0  0  0  0  0  0  0  0
    2.2691   -7.8648   16.0545 H   0  0  0  0  0  0  0  0  0  0  0  0
    2.9117   -9.1832   17.0353 H   0  0  0  0  0  0  0  0  0  0  0  0
    4.5592   -7.3661   17.8843 H   0  0  0  0  0  0  0  0  0  0  0  0
    4.1272   -6.5645   16.3776 H   0  0  0  0  0  0  0  0  0  0  0  0
    3.7288   -9.0772   14.7340 H   0  0  0  0  0  0  0  0  0  0  0  0
    5.2837  -10.4652   13.4963 H   0  0  0  0  0  0  0  0  0  0  0  0
    7.6120  -10.5770   14.1654 H   0  0  0  0  0  0  0  0  0  0  0  0
    8.3869   -9.3017   16.0772 H   0  0  0  0  0  0  0  0  0  0  0  0
    6.8377   -7.9111   17.3188 H   0  0  0  0  0  0  0  0  0  0  0  0
  1  2  2  0
  1  3  1  0
  3  4  1  0
  4  5  1  0
  4 36  1  0
  4 37  1  0
  5  6  1  0
  5 38  1  0
  5 39  1  0
  6  7  2  0
  7 22  1  0
  7  8  1  0
  8  9  2  0
  8 40  1  0
  9 10  1  0
 10 11  1  0
 10 14  2  0
 11 12  2  0
 12 16  1  0
 12 13  1  0
 13 28  1  0
 13  9  1  0
 14 15  1  0
 14  6  1  0
 15  3  1  0
 15 41  1  0
 15 42  1  0
 16 17  1  0
 16 43  1  0
 17 18  1  0
 17 44  1  0
 17 45  1  0
 18 19  1  0
 18 46  1  0
 18 47  1  0
 19 20  1  0
 19 48  1  0
 19 49  1  0
 20 21  1  0
 20 50  1  0
 20 51  1  0
 21 16  1  0
 21 52  1  0
 21 53  1  0
 22 23  2  0
 22 24  1  0
 24 25  1  0
 26 27  1  0
 26 54  1  0
 26 55  1  0
 26 56  1  0
 27  1  1  0
 28 29  1  0
 28 57  1  0
 28 58  1  0
 29 30  1  0
 29 59  1  0
 29 60  1  0
 30 31  2  0
 31 32  1  0
 31 61  1  0
 32 33  2  0
 32 62  1  0
 33 34  1  0
 33 63  1  0
 34 35  2  0
 34 64  1  0
 35 30  1  0
 35 65  1  0
M  END
>  <minimizedAffinity>  (8) 
-7.94477

>  <mol_id>  (8) 
104318

>  <source_index>  (8) 
7

>  <layer>  (8) 
L2

>  <uniprot>  (8) 
Q92793

>  <paff>  (8) 
8.2596000000000007

>  <smiles>  (8) 
COC(=O)N1CCc2c(C(=O)O)cc3c(nc(C4CCCCC4)n3CCc3ccccc3)c2C1

$$$$
L2:Q92793:113888
     RDKit          3D

 68 72  0  0  0  0  0  0  0  0999 V2000
   -2.0381   -4.7694   16.3640 C   0  0  0  0  0  0  0  0  0  0  0  0
   -2.3529   -5.0703   15.2184 O   0  0  0  0  0  0  0  0  0  0  0  0
   -0.8941   -5.2218   16.9977 N   0  0  0  0  0  0  0  0  0  0  0  0
   -0.4084   -4.6532   18.2484 C   0  0  0  0  0  0  0  0  0  0  0  0
    0.2332   -5.7240   19.1260 C   0  0  0  0  0  0  0  0  0  0  0  0
    1.2710   -6.5152   18.3697 C   0  0  0  0  0  0  0  0  0  0  0  0
    2.2837   -7.1818   19.0733 C   0  0  0  0  0  0  0  0  0  0  0  0
    3.2531   -7.9420   18.4132 C   0  0  0  0  0  0  0  0  0  0  0  0
    3.1710   -8.0134   17.0180 C   0  0  0  0  0  0  0  0  0  0  0  0
    2.1511   -7.3986   16.3030 C   0  0  0  0  0  0  0  0  0  0  0  0
    2.2622   -7.6830   14.9688 N   0  0  0  0  0  0  0  0  0  0  0  0
    3.2938   -8.4953   14.8393 C   0  0  0  0  0  0  0  0  0  0  0  0
    3.9543   -8.6173   16.0504 N   0  0  0  0  0  0  0  0  0  0  0  0
    1.1719   -6.6286   16.9634 C   0  0  0  0  0  0  0  0  0  0  0  0
    0.0698   -5.9559   16.1846 C   0  0  0  0  0  0  0  0  0  0  0  0
    3.6130   -9.1950   13.5394 C   0  0  1  0  0  0  0  0  0  0  0  0
    3.4177  -10.7161   13.6110 C   0  0  0  0  0  0  0  0  0  0  0  0
    2.8860  -11.3180   12.3127 C   0  0  0  0  0  0  0  0  0  0  0  0
    3.5692  -10.7020   11.0997 C   0  0  0  0  0  0  0  0  0  0  0  0
    3.3265   -9.1900   10.9937 C   0  0  1  0  0  0  0  0  0  0  0  0
    2.9297   -8.5355   12.3302 C   0  0  0  0  0  0  0  0  0  0  0  0
    4.5433   -8.5223   10.3881 C   0  0  0  0  0  0  0  0  0  0  0  0
    4.5908   -7.4504    9.8125 O   0  0  0  0  0  0  0  0  0  0  0  0
    5.6610   -9.2584   10.5512 O   0  0  0  0  0  0  0  0  0  0  0  0
    6.3603   -8.7186   10.1246 H   0  0  0  0  0  0  0  0  0  0  0  0
   -3.5139   -2.9523   16.4353 C   0  0  0  0  0  0  0  0  0  0  0  0
   -2.7845   -3.9477   17.1534 O   0  0  0  0  0  0  0  0  0  0  0  0
    5.2083   -9.3010   16.3212 C   0  0  0  0  0  0  0  0  0  0  0  0
    6.4192   -8.8124   15.4907 C   0  0  2  0  0  0  0  0  0  0  0  0
    7.0773   -9.9269   14.6705 C   0  0  0  0  0  0  0  0  0  0  0  0
    7.4379   -8.1290   16.3955 C   0  0  0  0  0  0  0  0  0  0  0  0
    7.0483   -7.2091   17.3865 C   0  0  0  0  0  0  0  0  0  0  0  0
    8.0024   -6.5882   18.1982 C   0  0  0  0  0  0  0  0  0  0  0  0
    9.3498   -6.8809   18.0241 C   0  0  0  0  0  0  0  0  0  0  0  0
   10.2593   -6.2812   18.8040 F   0  0  0  0  0  0  0  0  0  0  0  0
    9.7490   -7.7851   17.0499 C   0  0  0  0  0  0  0  0  0  0  0  0
   11.0483   -8.0661   16.8806 F   0  0  0  0  0  0  0  0  0  0  0  0
    8.8057   -8.4087   16.2365 C   0  0  0  0  0  0  0  0  0  0  0  0
   -1.2301   -4.2154   18.7757 H   0  0  0  0  0  0  0  0  0  0  0  0
    0.3299   -3.9128   18.0211 H   0  0  0  0  0  0  0  0  0  0  0  0
   -0.5283   -6.3916   19.4715 H   0  0  0  0  0  0  0  0  0  0  0  0
    0.7170   -5.2374   19.9470 H   0  0  0  0  0  0  0  0  0  0  0  0
    2.3142   -7.1096   20.1023 H   0  0  0  0  0  0  0  0  0  0  0  0
    3.9987   -8.4305   18.9332 H   0  0  0  0  0  0  0  0  0  0  0  0
   -0.4598   -6.7089   15.6393 H   0  0  0  0  0  0  0  0  0  0  0  0
    0.5444   -5.2332   15.5543 H   0  0  0  0  0  0  0  0  0  0  0  0
    4.6624   -9.0629   13.3774 H   0  0  0  0  0  0  0  0  0  0  0  0
    2.7230  -10.9328   14.3954 H   0  0  0  0  0  0  0  0  0  0  0  0
    4.3784  -11.1510   13.7920 H   0  0  0  0  0  0  0  0  0  0  0  0
    1.8333  -11.1371   12.2496 H   0  0  0  0  0  0  0  0  0  0  0  0
    3.0887  -12.3686   12.3185 H   0  0  0  0  0  0  0  0  0  0  0  0
    3.1909  -11.1731   10.2166 H   0  0  0  0  0  0  0  0  0  0  0  0
    4.6227  -10.8557   11.2067 H   0  0  0  0  0  0  0  0  0  0  0  0
    2.4833   -9.0473   10.3506 H   0  0  0  0  0  0  0  0  0  0  0  0
    1.8695   -8.6166   12.4497 H   0  0  0  0  0  0  0  0  0  0  0  0
    3.2470   -7.5142   12.2968 H   0  0  0  0  0  0  0  0  0  0  0  0
   -4.0709   -2.3520   17.1240 H   0  0  0  0  0  0  0  0  0  0  0  0
   -4.1860   -3.4268   15.7512 H   0  0  0  0  0  0  0  0  0  0  0  0
   -2.8314   -2.3322   15.8926 H   0  0  0  0  0  0  0  0  0  0  0  0
    5.0675  -10.3424   16.1197 H   0  0  0  0  0  0  0  0  0  0  0  0
    5.4457   -9.0911   17.3432 H   0  0  0  0  0  0  0  0  0  0  0  0
    6.0437   -8.1041   14.7821 H   0  0  0  0  0  0  0  0  0  0  0  0
    7.4738  -10.6694   15.3312 H   0  0  0  0  0  0  0  0  0  0  0  0
    7.8692   -9.5153   14.0802 H   0  0  0  0  0  0  0  0  0  0  0  0
    6.3485  -10.3743   14.0274 H   0  0  0  0  0  0  0  0  0  0  0  0
    6.0480   -6.9905   17.5155 H   0  0  0  0  0  0  0  0  0  0  0  0
    7.7075   -5.9157   18.9233 H   0  0  0  0  0  0  0  0  0  0  0  0
    9.1127   -9.0788   15.5142 H   0  0  0  0  0  0  0  0  0  0  0  0
  1  2  2  0
  1  3  1  0
  3  4  1  0
  4  5  1  0
  4 39  1  0
  4 40  1  0
  5  6  1  0
  5 41  1  0
  5 42  1  0
  6  7  2  0
  7  8  1  0
  7 43  1  0
  8  9  2  0
  8 44  1  0
  9 10  1  0
 10 11  1  0
 10 14  2  0
 11 12  2  0
 12 16  1  0
 12 13  1  0
 13 28  1  0
 13  9  1  0
 14 15  1  0
 14  6  1  0
 15  3  1  0
 15 45  1  0
 15 46  1  0
 16 17  1  0
 16 47  1  6
 17 18  1  0
 17 48  1  0
 17 49  1  0
 18 19  1  0
 18 50  1  0
 18 51  1  0
 19 20  1  0
 19 52  1  0
 19 53  1  0
 20 22  1  0
 20 21  1  0
 20 54  1  6
 21 16  1  0
 21 55  1  0
 21 56  1  0
 22 23  2  0
 22 24  1  0
 24 25  1  0
 26 27  1  0
 26 57  1  0
 26 58  1  0
 26 59  1  0
 27  1  1  0
 28 29  1  0
 28 60  1  0
 28 61  1  0
 29 30  1  0
 29 31  1  0
 29 62  1  6
 30 63  1  0
 30 64  1  0
 30 65  1  0
 31 32  2  0
 32 33  1  0
 32 66  1  0
 33 34  2  0
 33 67  1  0
 34 35  1  0
 34 36  1  0
 36 37  1  0
 36 38  2  0
 38 31  1  0
 38 68  1  0
M  END
>  <minimizedAffinity>  (9) 
-8.45679

>  <mol_id>  (9) 
113888

>  <source_index>  (9) 
8

>  <layer>  (9) 
L2

>  <uniprot>  (9) 
Q92793

>  <paff>  (9) 
8.2596000000000007

>  <smiles>  (9) 
COC(=O)N1CCc2ccc3c(nc([C@H]4CCC[C@H](C(=O)O)C4)n3C[C@H](C)c3ccc(F)c(F)c3)c2C1

$$$$
L2:Q92793:128208
     RDKit          3D

 69 73  0  0  0  0  0  0  0  0999 V2000
    9.1523   -6.9277   18.9337 C   0  0  0  0  0  0  0  0  0  0  0  0
   10.3728   -6.8485   19.0203 O   0  0  0  0  0  0  0  0  0  0  0  0
    8.4838   -7.4149   17.8246 N   0  0  0  0  0  0  0  0  0  0  0  0
    9.2355   -7.6655   16.6053 C   0  0  0  0  0  0  0  0  0  0  0  0
    8.6991   -8.8872   15.8663 C   0  0  0  0  0  0  0  0  0  0  0  0
    7.2080   -8.7960   15.6554 C   0  0  0  0  0  0  0  0  0  0  0  0
    6.6119   -9.4964   14.5984 C   0  0  0  0  0  0  0  0  0  0  0  0
    5.2303   -9.4656   14.3901 C   0  0  0  0  0  0  0  0  0  0  0  0
    4.4596   -8.7280   15.2949 C   0  0  0  0  0  0  0  0  0  0  0  0
    5.0308   -8.0016   16.3317 C   0  0  0  0  0  0  0  0  0  0  0  0
    4.0745   -7.2851   17.0000 N   0  0  0  0  0  0  0  0  0  0  0  0
    2.9301   -7.5219   16.3851 C   0  0  0  0  0  0  0  0  0  0  0  0
    3.0993   -8.5232   15.4406 N   0  0  0  0  0  0  0  0  0  0  0  0
    6.4226   -8.0368   16.5538 C   0  0  0  0  0  0  0  0  0  0  0  0
    7.0365   -7.2649   17.6936 C   0  0  0  0  0  0  0  0  0  0  0  0
    1.6848   -6.7209   16.6766 C   0  0  0  0  0  0  0  0  0  0  0  0
    1.4091   -6.5879   18.1863 C   0  0  0  0  0  0  0  0  0  0  0  0
    0.5917   -5.3431   18.5399 C   0  0  0  0  0  0  0  0  0  0  0  0
   -0.4357   -5.0207   17.4629 C   0  0  0  0  0  0  0  0  0  0  0  0
    0.2152   -4.7404   16.1067 C   0  0  0  0  0  0  0  0  0  0  0  0
    1.5947   -5.3861   15.9393 C   0  0  0  0  0  0  0  0  0  0  0  0
    8.7434   -6.8822   21.2403 C   0  0  0  0  0  0  0  0  0  0  0  0
    8.3035   -6.5415   19.9257 O   0  0  0  0  0  0  0  0  0  0  0  0
    2.0777   -9.1850   14.6491 C   0  0  0  0  0  0  0  0  0  0  0  0
    1.5323   -8.4310   13.4157 C   0  0  1  0  0  0  0  0  0  0  0  0
    2.5384   -8.2039   12.2836 C   0  0  0  0  0  0  0  0  0  0  0  0
    3.0371   -6.9268   11.9697 C   0  0  0  0  0  0  0  0  0  0  0  0
    3.9487   -6.7533   10.9309 C   0  0  0  0  0  0  0  0  0  0  0  0
    4.3977   -5.5176   10.6675 F   0  0  0  0  0  0  0  0  0  0  0  0
    4.3771   -7.8387   10.1792 C   0  0  0  0  0  0  0  0  0  0  0  0
    5.4964   -7.6263    8.8883 Cl  0  0  0  0  0  0  0  0  0  0  0  0
    3.8898   -9.1147   10.4597 C   0  0  0  0  0  0  0  0  0  0  0  0
    2.9738   -9.3038   11.5028 C   0  0  0  0  0  0  0  0  0  0  0  0
    2.4204  -10.5171   11.8261 O   0  0  0  0  0  0  0  0  0  0  0  0
    2.0746  -11.3926   10.7578 C   0  0  0  0  0  0  0  0  0  0  0  0
    0.1582   -8.9054   12.9919 C   0  0  0  0  0  0  0  0  0  0  0  0
   -0.6665   -8.2271   12.3972 O   0  0  0  0  0  0  0  0  0  0  0  0
   -0.1422  -10.1684   13.3324 O   0  0  0  0  0  0  0  0  0  0  0  0
   -1.0575  -10.3181   13.0129 H   0  0  0  0  0  0  0  0  0  0  0  0
   10.2620   -7.8328   16.8566 H   0  0  0  0  0  0  0  0  0  0  0  0
    9.1370   -6.8132   15.9660 H   0  0  0  0  0  0  0  0  0  0  0  0
    8.9160   -9.7637   16.4405 H   0  0  0  0  0  0  0  0  0  0  0  0
    9.1713   -8.9332   14.9073 H   0  0  0  0  0  0  0  0  0  0  0  0
    7.2063  -10.0473   13.9595 H   0  0  0  0  0  0  0  0  0  0  0  0
    4.7958   -9.9673   13.5998 H   0  0  0  0  0  0  0  0  0  0  0  0
    6.5834   -7.5982   18.6038 H   0  0  0  0  0  0  0  0  0  0  0  0
    6.8579   -6.2302   17.4879 H   0  0  0  0  0  0  0  0  0  0  0  0
    0.8879   -7.3035   16.2638 H   0  0  0  0  0  0  0  0  0  0  0  0
    2.3461   -6.5374   18.7004 H   0  0  0  0  0  0  0  0  0  0  0  0
    0.8353   -7.4411   18.4823 H   0  0  0  0  0  0  0  0  0  0  0  0
    1.2556   -4.5108   18.6464 H   0  0  0  0  0  0  0  0  0  0  0  0
    0.0689   -5.5352   19.4535 H   0  0  0  0  0  0  0  0  0  0  0  0
   -0.9904   -4.1566   17.7638 H   0  0  0  0  0  0  0  0  0  0  0  0
   -1.0723   -5.8735   17.3511 H   0  0  0  0  0  0  0  0  0  0  0  0
    0.3223   -3.6815   15.9960 H   0  0  0  0  0  0  0  0  0  0  0  0
   -0.4219   -5.1670   15.3604 H   0  0  0  0  0  0  0  0  0  0  0  0
    2.3381   -4.7229   16.3299 H   0  0  0  0  0  0  0  0  0  0  0  0
    1.7543   -5.5684   14.8971 H   0  0  0  0  0  0  0  0  0  0  0  0
    8.0231   -6.5448   21.9561 H   0  0  0  0  0  0  0  0  0  0  0  0
    9.6854   -6.4131   21.4339 H   0  0  0  0  0  0  0  0  0  0  0  0
    8.8514   -7.9440   21.3163 H   0  0  0  0  0  0  0  0  0  0  0  0
    1.2489   -9.3831   15.2962 H   0  0  0  0  0  0  0  0  0  0  0  0
    2.5616  -10.0509   14.2478 H   0  0  0  0  0  0  0  0  0  0  0  0
    1.3750   -7.4284   13.7547 H   0  0  0  0  0  0  0  0  0  0  0  0
    2.7240   -6.1087   12.5154 H   0  0  0  0  0  0  0  0  0  0  0  0
    4.2044   -9.9212    9.8980 H   0  0  0  0  0  0  0  0  0  0  0  0
    1.6571  -12.2937   11.1561 H   0  0  0  0  0  0  0  0  0  0  0  0
    2.9510  -11.6261   10.1901 H   0  0  0  0  0  0  0  0  0  0  0  0
    1.3558  -10.9160   10.1245 H   0  0  0  0  0  0  0  0  0  0  0  0
  1  2  2  0
  1  3  1  0
  3  4  1  0
  4  5  1  0
  4 40  1  0
  4 41  1  0
  5  6  1  0
  5 42  1  0
  5 43  1  0
  6  7  2  0
  7  8  1  0
  7 44  1  0
  8  9  2  0
  8 45  1  0
  9 10  1  0
 10 11  1  0
 10 14  2  0
 11 12  2  0
 12 16  1  0
 12 13  1  0
 13 24  1  0
 13  9  1  0
 14 15  1  0
 14  6  1  0
 15  3  1  0
 15 46  1  0
 15 47  1  0
 16 17  1  0
 16 48  1  0
 17 18  1  0
 17 49  1  0
 17 50  1  0
 18 19  1  0
 18 51  1  0
 18 52  1  0
 19 20  1  0
 19 53  1  0
 19 54  1  0
 20 21  1  0
 20 55  1  0
 20 56  1  0
 21 16  1  0
 21 57  1  0
 21 58  1  0
 22 23  1  0
 22 59  1  0
 22 60  1  0
 22 61  1  0
 23  1  1  0
 24 25  1  0
 24 62  1  0
 24 63  1  0
 25 36  1  0
 25 26  1  0
 25 64  1  1
 26 27  2  0
 27 28  1  0
 27 65  1  0
 28 29  1  0
 28 30  2  0
 30 31  1  0
 30 32  1  0
 32 33  2  0
 32 66  1  0
 33 34  1  0
 33 26  1  0
 34 35  1  0
 35 67  1  0
 35 68  1  0
 35 69  1  0
 36 37  2  0
 36 38  1  0
 38 39  1  0
M  END
>  <minimizedAffinity>  (10) 
-7.34967

>  <mol_id>  (10) 
128208

>  <source_index>  (10) 
9

>  <layer>  (10) 
L2

>  <uniprot>  (10) 
Q92793

>  <paff>  (10) 
8.2596000000000007

>  <smiles>  (10) 
COC(=O)N1CCc2ccc3c(nc(C4CCCCC4)n3C[C@H](C(=O)O)c3cc(F)c(Cl)cc3OC)c2C1

$$$$
