L1:P08922:1812
     RDKit          3D

 61 68  0  0  0  0  0  0  0  0999 V2000
   42.3312  -20.6688   -0.8332 C   0  0  2  0  0  0  0  0  0  0  0  0
   43.7755  -21.0476   -1.1684 C   0  0  0  0  0  0  0  0  0  0  0  0
   43.9515  -21.7544   -2.5051 C   0  0  1  0  0  0  0  0  0  0  0  0
   43.0173  -22.7994   -2.7616 O   0  0  0  0  0  0  0  0  0  0  0  0
   41.6167  -22.5821   -2.4490 C   0  0  1  0  0  0  0  0  0  0  0  0
   41.1170  -24.0482   -2.3954 C   0  0  0  0  0  0  0  0  0  0  0  0
   41.4471  -21.9344   -1.0336 C   0  0  2  0  0  0  0  0  0  0  0  0
   40.9525  -21.8574   -3.5590 N   0  0  0  0  0  0  0  0  0  0  0  0
   39.5914  -21.8753   -3.8927 C   0  0  0  0  0  0  0  0  0  0  0  0
   38.4620  -22.4246   -3.2533 C   0  0  0  0  0  0  0  0  0  0  0  0
   37.2061  -22.3191   -3.8599 C   0  0  0  0  0  0  0  0  0  0  0  0
   37.0553  -21.6730   -5.0764 C   0  0  0  0  0  0  0  0  0  0  0  0
   38.1607  -21.0974   -5.7030 C   0  0  0  0  0  0  0  0  0  0  0  0
   39.4402  -21.1852   -5.1091 C   0  0  0  0  0  0  0  0  0  0  0  0
   40.7081  -20.6574   -5.4631 C   0  0  0  0  0  0  0  0  0  0  0  0
   41.2245  -19.8456   -6.4877 C   0  0  0  0  0  0  0  0  0  0  0  0
   42.5889  -19.4267   -6.5063 C   0  0  0  0  0  0  0  0  0  0  0  0
   43.5409  -19.7698   -5.5368 C   0  0  0  0  0  0  0  0  0  0  0  0
   44.9138  -19.5184   -5.2322 C   0  0  0  0  0  0  0  0  0  0  0  0
   45.9384  -18.7623   -5.8413 C   0  0  0  0  0  0  0  0  0  0  0  0
   47.2139  -18.7152   -5.2694 C   0  0  0  0  0  0  0  0  0  0  0  0
   47.4881  -19.4098   -4.0985 C   0  0  0  0  0  0  0  0  0  0  0  0
   46.4991  -20.1686   -3.4688 C   0  0  0  0  0  0  0  0  0  0  0  0
   45.2180  -20.2116   -4.0484 C   0  0  0  0  0  0  0  0  0  0  0  0
   44.0655  -20.8714   -3.6543 N   0  0  0  0  0  0  0  0  0  0  0  0
   43.0695  -20.5950   -4.5305 C   0  0  0  0  0  0  0  0  0  0  0  0
   41.5906  -21.0672   -4.4842 C   0  0  0  0  0  0  0  0  0  0  0  0
   42.7657  -18.5780   -7.6933 C   0  0  0  0  0  0  0  0  0  0  0  0
   43.7771  -18.0220   -8.0703 O   0  0  0  0  0  0  0  0  0  0  0  0
   41.5476  -18.5116   -8.3327 N   0  0  0  0  0  0  0  0  0  0  0  0
   40.5140  -19.2580   -7.6720 C   0  0  0  0  0  0  0  0  0  0  0  0
   41.4365  -17.9754   -9.1823 H   0  0  0  0  0  0  0  0  0  0  0  0
   40.3871  -19.2112   -1.2440 C   0  0  0  0  0  0  0  0  0  0  0  0
   41.7987  -19.4646   -1.4789 N   0  0  0  0  0  0  0  0  0  0  0  0
   42.3373  -18.6242   -1.2754 H   0  0  0  0  0  0  0  0  0  0  0  0
   40.0636  -21.7542   -0.7007 O   0  0  0  0  0  0  0  0  0  0  0  0
   39.6601  -22.3414    0.5267 C   0  0  0  0  0  0  0  0  0  0  0  0
   42.3146  -20.3579    0.1905 H   0  0  0  0  0  0  0  0  0  0  0  0
   44.1379  -21.6957   -0.3980 H   0  0  0  0  0  0  0  0  0  0  0  0
   44.3216  -20.1300   -1.2364 H   0  0  0  0  0  0  0  0  0  0  0  0
   44.9061  -22.2206   -2.3777 H   0  0  0  0  0  0  0  0  0  0  0  0
   41.6023  -24.5613   -1.5916 H   0  0  0  0  0  0  0  0  0  0  0  0
   41.3450  -24.5367   -3.3197 H   0  0  0  0  0  0  0  0  0  0  0  0
   40.0587  -24.0588   -2.2379 H   0  0  0  0  0  0  0  0  0  0  0  0
   41.8287  -22.6291   -0.3148 H   0  0  0  0  0  0  0  0  0  0  0  0
   38.5609  -22.9015   -2.3435 H   0  0  0  0  0  0  0  0  0  0  0  0
   36.3804  -22.7281   -3.3951 H   0  0  0  0  0  0  0  0  0  0  0  0
   36.1247  -21.6176   -5.5191 H   0  0  0  0  0  0  0  0  0  0  0  0
   38.0439  -20.6060   -6.6029 H   0  0  0  0  0  0  0  0  0  0  0  0
   45.7457  -18.2424   -6.7117 H   0  0  0  0  0  0  0  0  0  0  0  0
   47.9572  -18.1598   -5.7211 H   0  0  0  0  0  0  0  0  0  0  0  0
   48.4342  -19.3647   -3.6887 H   0  0  0  0  0  0  0  0  0  0  0  0
   46.7032  -20.6854   -2.5991 H   0  0  0  0  0  0  0  0  0  0  0  0
   40.1279  -20.0264   -8.3087 H   0  0  0  0  0  0  0  0  0  0  0  0
   39.6692  -18.6594   -7.4019 H   0  0  0  0  0  0  0  0  0  0  0  0
   39.8253  -20.0961   -1.4589 H   0  0  0  0  0  0  0  0  0  0  0  0
   40.0569  -18.4161   -1.8793 H   0  0  0  0  0  0  0  0  0  0  0  0
   40.2398  -18.9348   -0.2209 H   0  0  0  0  0  0  0  0  0  0  0  0
   38.6187  -22.1543    0.6863 H   0  0  0  0  0  0  0  0  0  0  0  0
   40.2260  -21.9157    1.3288 H   0  0  0  0  0  0  0  0  0  0  0  0
   39.8313  -23.3970    0.4904 H   0  0  0  0  0  0  0  0  0  0  0  0
  1  2  1  0
  1 38  1  1
  2  3  1  0
  2 39  1  0
  2 40  1  0
  3  4  1  0
  3 41  1  1
  4  5  1  0
  5  6  1  1
  5  7  1  0
  5  8  1  0
  6 42  1  0
  6 43  1  0
  6 44  1  0
  7 36  1  0
  7  1  1  0
  7 45  1  1
  8  9  1  0
  9 10  2  0
 10 11  1  0
 10 46  1  0
 11 12  2  0
 11 47  1  0
 12 13  1  0
 12 48  1  0
 13 14  2  0
 13 49  1  0
 14 15  1  0
 14  9  1  0
 15 16  2  0
 16 17  1  0
 17 18  2  0
 17 28  1  0
 18 19  1  0
 19 20  2  0
 20 21  1  0
 20 50  1  0
 21 22  2  0
 21 51  1  0
 22 23  1  0
 22 52  1  0
 23 24  2  0
 23 53  1  0
 24 25  1  0
 24 19  1  0
 25 26  1  0
 25  3  1  0
 26 27  2  0
 26 18  1  0
 27  8  1  0
 27 15  1  0
 28 29  2  0
 28 30  1  0
 30 31  1  0
 30 32  1  0
 31 16  1  0
 31 54  1  0
 31 55  1  0
 33 34  1  0
 33 56  1  0
 33 57  1  0
 33 58  1  0
 34  1  1  0
 34 35  1  0
 36 37  1  0
 37 59  1  0
 37 60  1  0
 37 61  1  0
M  END
>  <minimizedAffinity>  (1) 
-10.84173

>  <mol_id>  (1) 
1812

>  <source_index>  (1) 
0

>  <layer>  (1) 
L1

>  <uniprot>  (1) 
P08922

>  <paff>  (1) 
8.8538999999999994

>  <smiles>  (1) 
C[C@@]12[C@@H]([C@@H](C[C@@H](O1)n3c4ccccc4c5c3c6n2c7ccccc7c6c8c5C(=O)NC8)NC)OC

$$$$
L1:P08922:1814
     RDKit          3D

 53 56  0  0  0  0  0  0  0  0999 V2000
   42.0622  -19.4667   -6.1343 C   0  0  0  0  0  0  0  0  0  0  0  0
   41.8735  -18.9822   -7.4118 C   0  0  0  0  0  0  0  0  0  0  0  0
   42.9384  -18.3197   -7.9668 C   0  0  0  0  0  0  0  0  0  0  0  0
   44.1074  -18.1335   -7.3337 N   0  0  0  0  0  0  0  0  0  0  0  0
   44.2241  -18.6335   -6.0971 C   0  0  0  0  0  0  0  0  0  0  0  0
   43.2345  -19.3003   -5.4804 N   0  0  0  0  0  0  0  0  0  0  0  0
   38.9934  -21.6304   -4.0016 C   0  0  0  0  0  0  0  0  0  0  0  0
   39.0082  -21.6052   -5.3983 C   0  0  0  0  0  0  0  0  0  0  0  0
   40.0061  -20.9001   -6.0807 C   0  0  0  0  0  0  0  0  0  0  0  0
   41.0182  -20.2054   -5.3928 C   0  0  0  0  0  0  0  0  0  0  0  0
   40.9986  -20.2633   -3.9865 C   0  0  0  0  0  0  0  0  0  0  0  0
   40.0020  -20.9677   -3.2956 C   0  0  0  0  0  0  0  0  0  0  0  0
   37.7161  -22.1394   -1.9831 N   0  0  0  0  0  0  0  0  0  0  0  0
   37.9132  -22.3962   -3.3205 C   0  0  0  0  0  0  0  0  0  0  0  0
   37.2219  -23.1922   -3.9453 O   0  0  0  0  0  0  0  0  0  0  0  0
   38.2204  -21.3970   -1.5167 H   0  0  0  0  0  0  0  0  0  0  0  0
   36.6781  -22.8469   -1.2546 C   0  0  0  0  0  0  0  0  0  0  0  0
   34.9092  -21.1971   -0.2202 N   0  0  0  0  0  0  0  0  0  0  0  0
   35.7023  -21.9232   -0.6585 C   0  0  0  0  0  0  0  0  0  0  0  0
   45.3890  -18.4979   -5.3487 N   0  0  0  0  0  0  0  0  0  0  0  0
   45.1624  -18.0522   -4.4723 H   0  0  0  0  0  0  0  0  0  0  0  0
   46.7282  -18.8326   -5.5615 C   0  0  0  0  0  0  0  0  0  0  0  0
   47.4143  -18.6041   -6.7511 C   0  0  0  0  0  0  0  0  0  0  0  0
   48.7651  -18.9651   -6.8972 C   0  0  0  0  0  0  0  0  0  0  0  0
   49.4936  -19.5716   -5.8658 C   0  0  0  0  0  0  0  0  0  0  0  0
   48.7939  -19.7978   -4.6746 C   0  0  0  0  0  0  0  0  0  0  0  0
   47.4453  -19.4372   -4.5236 C   0  0  0  0  0  0  0  0  0  0  0  0
   50.8211  -19.9244   -6.0148 N   0  0  0  0  0  0  0  0  0  0  0  0
   51.7921  -19.0508   -6.6910 C   0  0  0  0  0  0  0  0  0  0  0  0
   53.2087  -19.3236   -6.1566 C   0  0  0  0  0  0  0  0  0  0  0  0
   53.6507  -20.6772   -6.3294 O   0  0  0  0  0  0  0  0  0  0  0  0
   52.5763  -21.6277   -6.3307 C   0  0  0  0  0  0  0  0  0  0  0  0
   51.3527  -21.1973   -5.5036 C   0  0  0  0  0  0  0  0  0  0  0  0
   40.9843  -19.1105   -7.9196 H   0  0  0  0  0  0  0  0  0  0  0  0
   42.8355  -17.9441   -8.9225 H   0  0  0  0  0  0  0  0  0  0  0  0
   38.2803  -22.1086   -5.9291 H   0  0  0  0  0  0  0  0  0  0  0  0
   39.9995  -20.8894   -7.1126 H   0  0  0  0  0  0  0  0  0  0  0  0
   41.7345  -19.7762   -3.4516 H   0  0  0  0  0  0  0  0  0  0  0  0
   40.0131  -20.9970   -2.2641 H   0  0  0  0  0  0  0  0  0  0  0  0
   36.1674  -23.5024   -1.9287 H   0  0  0  0  0  0  0  0  0  0  0  0
   37.1432  -23.3956   -0.4624 H   0  0  0  0  0  0  0  0  0  0  0  0
   46.9212  -18.1607   -7.5418 H   0  0  0  0  0  0  0  0  0  0  0  0
   49.2365  -18.7767   -7.7957 H   0  0  0  0  0  0  0  0  0  0  0  0
   49.2842  -20.2432   -3.8833 H   0  0  0  0  0  0  0  0  0  0  0  0
   46.9718  -19.6226   -3.6256 H   0  0  0  0  0  0  0  0  0  0  0  0
   51.5356  -18.0282   -6.5084 H   0  0  0  0  0  0  0  0  0  0  0  0
   51.7696  -19.2491   -7.7422 H   0  0  0  0  0  0  0  0  0  0  0  0
   53.2226  -19.0968   -5.1110 H   0  0  0  0  0  0  0  0  0  0  0  0
   53.8754  -18.7073   -6.7228 H   0  0  0  0  0  0  0  0  0  0  0  0
   52.9437  -22.5499   -5.9315 H   0  0  0  0  0  0  0  0  0  0  0  0
   52.2461  -21.7172   -7.3445 H   0  0  0  0  0  0  0  0  0  0  0  0
   51.6419  -21.0750   -4.4807 H   0  0  0  0  0  0  0  0  0  0  0  0
   50.5956  -21.9495   -5.5798 H   0  0  0  0  0  0  0  0  0  0  0  0
  1  2  2  0
  2  3  1  0
  2 34  1  0
  3  4  2  0
  3 35  1  0
  4  5  1  0
  5 20  1  0
  5  6  2  0
  6  1  1  0
  7  8  2  0
  8  9  1  0
  8 36  1  0
  9 10  2  0
  9 37  1  0
 10  1  1  0
 10 11  1  0
 11 12  2  0
 11 38  1  0
 12  7  1  0
 12 39  1  0
 13 14  1  0
 13 16  1  0
 14 15  2  0
 14  7  1  0
 17 13  1  0
 17 40  1  0
 17 41  1  0
 18 19  3  0
 19 17  1  0
 20 22  1  0
 20 21  1  0
 22 23  2  0
 23 24  1  0
 23 42  1  0
 24 25  2  0
 24 43  1  0
 25 28  1  0
 25 26  1  0
 26 27  2  0
 26 44  1  0
 27 22  1  0
 27 45  1  0
 28 29  1  0
 29 30  1  0
 29 46  1  0
 29 47  1  0
 30 31  1  0
 30 48  1  0
 30 49  1  0
 31 32  1  0
 32 33  1  0
 32 50  1  0
 32 51  1  0
 33 28  1  0
 33 52  1  0
 33 53  1  0
M  END
>  <minimizedAffinity>  (2) 
-7.82838

>  <mol_id>  (2) 
1814

>  <source_index>  (2) 
1

>  <layer>  (2) 
L1

>  <uniprot>  (2) 
P08922

>  <paff>  (2) 
6

>  <smiles>  (2) 
O=C(NCC#N)c1ccc(cc1)-c1ccnc(Nc2ccc(cc2)N2CCOCC2)n1

$$$$
L1:P08922:16940
     RDKit          3D

 79 83  0  0  0  0  0  0  0  0999 V2000
   40.8115  -21.9955    0.1733 C   0  0  0  0  0  0  0  0  0  0  0  0
   39.4727  -22.4187    0.2172 C   0  0  0  0  0  0  0  0  0  0  0  0
   38.4060  -21.5457   -0.0538 C   0  0  0  0  0  0  0  0  0  0  0  0
   38.7470  -20.2246   -0.3730 C   0  0  0  0  0  0  0  0  0  0  0  0
   40.0784  -19.7875   -0.4198 C   0  0  0  0  0  0  0  0  0  0  0  0
   41.1303  -20.6595   -0.1500 C   0  0  0  0  0  0  0  0  0  0  0  0
   37.0829  -21.9674   -0.0098 N   0  0  0  0  0  0  0  0  0  0  0  0
   36.0485  -21.1142    0.5808 C   0  0  0  0  0  0  0  0  0  0  0  0
   34.6917  -21.4072   -0.0545 C   0  0  0  0  0  0  0  0  0  0  0  0
   34.2727  -22.8686    0.1854 C   0  0  0  0  0  0  0  0  0  0  0  0
   35.4827  -23.8230    0.2052 C   0  0  0  0  0  0  0  0  0  0  0  0
   36.6874  -23.2713   -0.5497 C   0  0  0  0  0  0  0  0  0  0  0  0
   33.1761  -23.3504   -0.6771 N   0  0  0  0  0  0  0  0  0  0  0  0
   33.5679  -23.7886   -2.0292 C   0  0  0  0  0  0  0  0  0  0  0  0
   32.4031  -23.8217   -3.0577 C   0  0  0  0  0  0  0  0  0  0  0  0
   31.0657  -24.0734   -2.4933 N   0  0  0  0  0  0  0  0  0  0  0  0
   30.9638  -25.4437   -1.9878 C   0  0  0  0  0  0  0  0  0  0  0  0
   30.7872  -23.0943   -1.4187 C   0  0  0  0  0  0  0  0  0  0  0  0
   32.0223  -22.4440   -0.7365 C   0  0  0  0  0  0  0  0  0  0  0  0
   42.1358  -23.8777   -0.4752 C   0  0  0  0  0  0  0  0  0  0  0  0
   41.8998  -22.8042    0.4257 O   0  0  0  0  0  0  0  0  0  0  0  0
   42.4808  -20.2827   -0.1806 N   0  0  0  0  0  0  0  0  0  0  0  0
   42.8414  -19.9669    0.7112 H   0  0  0  0  0  0  0  0  0  0  0  0
   43.4683  -20.2450   -1.1530 C   0  0  0  0  0  0  0  0  0  0  0  0
   44.7439  -19.9624   -0.8568 N   0  0  0  0  0  0  0  0  0  0  0  0
   45.6218  -19.9535   -1.8783 C   0  0  0  0  0  0  0  0  0  0  0  0
   45.2787  -20.2122   -3.1831 C   0  0  0  0  0  0  0  0  0  0  0  0
   46.4786  -20.1876   -4.4131 Cl  0  0  0  0  0  0  0  0  0  0  0  0
   43.9395  -20.4906   -3.4179 C   0  0  0  0  0  0  0  0  0  0  0  0
   43.0483  -20.5137   -2.4009 N   0  0  0  0  0  0  0  0  0  0  0  0
   43.5091  -20.7837   -4.7309 N   0  0  0  0  0  0  0  0  0  0  0  0
   43.7186  -21.7537   -4.9987 H   0  0  0  0  0  0  0  0  0  0  0  0
   43.0827  -19.9520   -5.7842 C   0  0  0  0  0  0  0  0  0  0  0  0
   43.9855  -19.1648   -6.5154 C   0  0  0  0  0  0  0  0  0  0  0  0
   43.5597  -18.3413   -7.5602 C   0  0  0  0  0  0  0  0  0  0  0  0
   42.2143  -18.2868   -7.8961 C   0  0  0  0  0  0  0  0  0  0  0  0
   41.2968  -19.0539   -7.1836 C   0  0  0  0  0  0  0  0  0  0  0  0
   41.7139  -19.8862   -6.1268 C   0  0  0  0  0  0  0  0  0  0  0  0
   40.5009  -20.8471   -5.2604 P   0  0  0  0  0  0  0  0  0  0  0  0
   39.2183  -21.3519   -6.4134 C   0  0  0  0  0  0  0  0  0  0  0  0
   39.6199  -19.7912   -4.1032 C   0  0  0  0  0  0  0  0  0  0  0  0
   41.0374  -22.0584   -4.5318 O   0  0  0  0  0  0  0  0  0  0  0  0
   39.2664  -23.4013    0.4559 H   0  0  0  0  0  0  0  0  0  0  0  0
   37.9932  -19.5510   -0.5805 H   0  0  0  0  0  0  0  0  0  0  0  0
   40.2821  -18.8042   -0.6579 H   0  0  0  0  0  0  0  0  0  0  0  0
   36.3011  -20.0877    0.4154 H   0  0  0  0  0  0  0  0  0  0  0  0
   35.9911  -21.3137    1.6305 H   0  0  0  0  0  0  0  0  0  0  0  0
   34.7532  -21.2295   -1.1079 H   0  0  0  0  0  0  0  0  0  0  0  0
   33.9611  -20.7660    0.3926 H   0  0  0  0  0  0  0  0  0  0  0  0
   33.8482  -22.8738    1.1676 H   0  0  0  0  0  0  0  0  0  0  0  0
   35.1936  -24.7499   -0.2443 H   0  0  0  0  0  0  0  0  0  0  0  0
   35.7748  -23.9493    1.2268 H   0  0  0  0  0  0  0  0  0  0  0  0
   36.4342  -23.1615   -1.5835 H   0  0  0  0  0  0  0  0  0  0  0  0
   37.5050  -23.9525   -0.4387 H   0  0  0  0  0  0  0  0  0  0  0  0
   33.9772  -24.7745   -1.9557 H   0  0  0  0  0  0  0  0  0  0  0  0
   34.2729  -23.0693   -2.3903 H   0  0  0  0  0  0  0  0  0  0  0  0
   32.6121  -24.5945   -3.7677 H   0  0  0  0  0  0  0  0  0  0  0  0
   32.3616  -22.8421   -3.4862 H   0  0  0  0  0  0  0  0  0  0  0  0
   31.1687  -26.1325   -2.7806 H   0  0  0  0  0  0  0  0  0  0  0  0
   29.9756  -25.6135   -1.6143 H   0  0  0  0  0  0  0  0  0  0  0  0
   31.6726  -25.5865   -1.1991 H   0  0  0  0  0  0  0  0  0  0  0  0
   30.2233  -23.5958   -0.6601 H   0  0  0  0  0  0  0  0  0  0  0  0
   30.2706  -22.2884   -1.8967 H   0  0  0  0  0  0  0  0  0  0  0  0
   31.7550  -22.1635    0.2609 H   0  0  0  0  0  0  0  0  0  0  0  0
   32.3067  -21.5948   -1.3221 H   0  0  0  0  0  0  0  0  0  0  0  0
   43.0042  -24.4200   -0.1642 H   0  0  0  0  0  0  0  0  0  0  0  0
   42.2916  -23.4892   -1.4599 H   0  0  0  0  0  0  0  0  0  0  0  0
   41.2893  -24.5321   -0.4798 H   0  0  0  0  0  0  0  0  0  0  0  0
   46.6094  -19.7400   -1.6686 H   0  0  0  0  0  0  0  0  0  0  0  0
   44.9887  -19.1951   -6.2753 H   0  0  0  0  0  0  0  0  0  0  0  0
   44.2454  -17.7736   -8.0822 H   0  0  0  0  0  0  0  0  0  0  0  0
   41.8961  -17.6816   -8.6690 H   0  0  0  0  0  0  0  0  0  0  0  0
   40.2964  -19.0121   -7.4334 H   0  0  0  0  0  0  0  0  0  0  0  0
   38.8415  -20.4920   -6.9267 H   0  0  0  0  0  0  0  0  0  0  0  0
   38.4221  -21.8242   -5.8768 H   0  0  0  0  0  0  0  0  0  0  0  0
   39.6275  -22.0401   -7.1232 H   0  0  0  0  0  0  0  0  0  0  0  0
   39.2407  -18.9343   -4.6198 H   0  0  0  0  0  0  0  0  0  0  0  0
   40.2879  -19.4745   -3.3296 H   0  0  0  0  0  0  0  0  0  0  0  0
   38.8066  -20.3361   -3.6712 H   0  0  0  0  0  0  0  0  0  0  0  0
  1  2  2  0
  2  3  1  0
  2 43  1  0
  3  7  1  0
  3  4  2  0
  4  5  1  0
  4 44  1  0
  5  6  2  0
  5 45  1  0
  6 22  1  0
  6  1  1  0
  7  8  1  0
  8  9  1  0
  8 46  1  0
  8 47  1  0
  9 10  1  0
  9 48  1  0
  9 49  1  0
 10 13  1  0
 10 11  1  0
 10 50  1  0
 11 12  1  0
 11 51  1  0
 11 52  1  0
 12  7  1  0
 12 53  1  0
 12 54  1  0
 13 14  1  0
 14 15  1  0
 14 55  1  0
 14 56  1  0
 15 16  1  0
 15 57  1  0
 15 58  1  0
 16 17  1  0
 16 18  1  0
 17 59  1  0
 17 60  1  0
 17 61  1  0
 18 19  1  0
 18 62  1  0
 18 63  1  0
 19 13  1  0
 19 64  1  0
 19 65  1  0
 20 21  1  0
 20 66  1  0
 20 67  1  0
 20 68  1  0
 21  1  1  0
 22 24  1  0
 22 23  1  0
 24 25  2  0
 25 26  1  0
 26 27  2  0
 26 69  1  0
 27 28  1  0
 27 29  1  0
 29 31  1  0
 29 30  2  0
 30 24  1  0
 31 33  1  0
 31 32  1  0
 33 34  2  0
 34 35  1  0
 34 70  1  0
 35 36  2  0
 35 71  1  0
 36 37  1  0
 36 72  1  0
 37 38  2  0
 37 73  1  0
 38 39  1  0
 38 33  1  0
 39 40  1  0
 39 41  1  0
 39 42  2  0
 40 74  1  0
 40 75  1  0
 40 76  1  0
 41 77  1  0
 41 78  1  0
 41 79  1  0
M  END
>  <minimizedAffinity>  (3) 
-7.85232

>  <mol_id>  (3) 
16940

>  <source_index>  (3) 
2

>  <layer>  (3) 
L1

>  <uniprot>  (3) 
P08922

>  <paff>  (3) 
8.7211999999999996

>  <smiles>  (3) 
CN1CCN(CC1)C2CCN(CC2)c3ccc(c(c3)OC)Nc4ncc(c(n4)Nc5ccccc5P(=O)(C)C)Cl

$$$$
L1:P08922:38653
     RDKit          3D

 44 47  0  0  0  0  0  0  0  0999 V2000
   37.5466  -21.4907   -5.6678 C   0  0  0  0  0  0  0  0  0  0  0  0
   38.9718  -20.9482   -5.5483 C   0  0  1  0  0  0  0  0  0  0  0  0
   39.2646  -20.0948   -6.7080 N   0  0  0  0  0  0  0  0  0  0  0  0
   40.5137  -19.5848   -6.9724 C   0  0  0  0  0  0  0  0  0  0  0  0
   40.7544  -18.7513   -8.2034 C   0  0  0  0  0  0  0  0  0  0  0  0
   42.0008  -18.2822   -8.3851 C   0  0  0  0  0  0  0  0  0  0  0  0
   43.0022  -18.5634   -7.4609 N   0  0  0  0  0  0  0  0  0  0  0  0
   44.3070  -18.1899   -7.4699 N   0  0  0  0  0  0  0  0  0  0  0  0
   44.8142  -18.7329   -6.3542 C   0  0  0  0  0  0  0  0  0  0  0  0
   43.8610  -19.4379   -5.5973 C   0  0  0  0  0  0  0  0  0  0  0  0
   42.7074  -19.3298   -6.3454 C   0  0  0  0  0  0  0  0  0  0  0  0
   41.4674  -19.8437   -6.1171 N   0  0  0  0  0  0  0  0  0  0  0  0
   43.9888  -20.1786   -4.3535 C   0  0  0  0  0  0  0  0  0  0  0  0
   45.0714  -20.4813   -3.8684 O   0  0  0  0  0  0  0  0  0  0  0  0
   42.7718  -20.5275   -3.8125 N   0  0  0  0  0  0  0  0  0  0  0  0
   42.5406  -21.5810   -2.8450 C   0  0  0  0  0  0  0  0  0  0  0  0
   41.3939  -22.5074   -3.3297 C   0  0  2  0  0  0  0  0  0  0  0  0
   40.0250  -22.1286   -3.0351 O   0  0  0  0  0  0  0  0  0  0  0  0
   39.6889  -20.8067   -3.0810 C   0  0  0  0  0  0  0  0  0  0  0  0
   39.7487  -20.1070   -1.8669 C   0  0  0  0  0  0  0  0  0  0  0  0
   39.3317  -18.7803   -1.7933 C   0  0  0  0  0  0  0  0  0  0  0  0
   38.8192  -18.1691   -2.9261 C   0  0  0  0  0  0  0  0  0  0  0  0
   38.4020  -16.8983   -2.8605 F   0  0  0  0  0  0  0  0  0  0  0  0
   38.7102  -18.8636   -4.1261 C   0  0  0  0  0  0  0  0  0  0  0  0
   39.1420  -20.2025   -4.2305 C   0  0  0  0  0  0  0  0  0  0  0  0
   38.5037  -19.9130   -7.3488 H   0  0  0  0  0  0  0  0  0  0  0  0
   41.9530  -20.1397   -4.2791 H   0  0  0  0  0  0  0  0  0  0  0  0
   41.5729  -23.8888   -2.6976 C   0  0  0  0  0  0  0  0  0  0  0  0
   40.6222  -24.0947   -1.7500 F   0  0  0  0  0  0  0  0  0  0  0  0
   37.4400  -22.0116   -6.5963 H   0  0  0  0  0  0  0  0  0  0  0  0
   36.8515  -20.6780   -5.6329 H   0  0  0  0  0  0  0  0  0  0  0  0
   37.3514  -22.1620   -4.8577 H   0  0  0  0  0  0  0  0  0  0  0  0
   39.6730  -21.7564   -5.5455 H   0  0  0  0  0  0  0  0  0  0  0  0
   39.9979  -18.5498   -8.8758 H   0  0  0  0  0  0  0  0  0  0  0  0
   42.2166  -17.7094   -9.2160 H   0  0  0  0  0  0  0  0  0  0  0  0
   45.8045  -18.6427   -6.0783 H   0  0  0  0  0  0  0  0  0  0  0  0
   42.2709  -21.1458   -1.9055 H   0  0  0  0  0  0  0  0  0  0  0  0
   43.4348  -22.1583   -2.7353 H   0  0  0  0  0  0  0  0  0  0  0  0
   41.4944  -22.4559   -4.3937 H   0  0  0  0  0  0  0  0  0  0  0  0
   40.1047  -20.5792   -1.0211 H   0  0  0  0  0  0  0  0  0  0  0  0
   39.4036  -18.2587   -0.9057 H   0  0  0  0  0  0  0  0  0  0  0  0
   38.3078  -18.3929   -4.9517 H   0  0  0  0  0  0  0  0  0  0  0  0
   42.5413  -23.9488   -2.2464 H   0  0  0  0  0  0  0  0  0  0  0  0
   41.4784  -24.6366   -3.4571 H   0  0  0  0  0  0  0  0  0  0  0  0
  1  2  1  0
  1 30  1  0
  1 31  1  0
  1 32  1  0
  2  3  1  0
  2 33  1  1
  3  4  1  0
  3 26  1  0
  4  5  1  0
  5  6  2  0
  5 34  1  0
  6  7  1  0
  6 35  1  0
  7  8  1  0
  8  9  2  0
  9 10  1  0
  9 36  1  0
 10 11  2  0
 10 13  1  0
 11 12  1  0
 11  7  1  0
 12  4  2  0
 13 14  2  0
 13 15  1  0
 15 16  1  0
 15 27  1  0
 16 17  1  0
 16 37  1  0
 16 38  1  0
 17 28  1  0
 17 18  1  0
 17 39  1  6
 18 19  1  0
 19 20  2  0
 20 21  1  0
 20 40  1  0
 21 22  2  0
 21 41  1  0
 22 23  1  0
 22 24  1  0
 24 25  2  0
 24 42  1  0
 25  2  1  0
 25 19  1  0
 28 29  1  0
 28 43  1  0
 28 44  1  0
M  END
>  <minimizedAffinity>  (4) 
-9.52190

>  <mol_id>  (4) 
38653

>  <source_index>  (4) 
3

>  <layer>  (4) 
L1

>  <uniprot>  (4) 
P08922

>  <paff>  (4) 
8.6989999999999998

>  <smiles>  (4) 
C[C@H]1Nc2ccn3ncc(c3n2)C(=O)NC[C@@H](CF)Oc2ccc(F)cc21

$$$$
L1:P08922:44625
     RDKit          3D

 52 57  0  0  0  0  0  0  0  0999 V2000
   40.9836  -18.3676   -8.5432 C   0  0  0  0  0  0  0  0  0  0  0  0
   42.2931  -17.9689   -8.3954 C   0  0  0  0  0  0  0  0  0  0  0  0
   42.7647  -18.6895   -7.3325 N   0  0  0  0  0  0  0  0  0  0  0  0
   43.9873  -18.6846   -6.6992 C   0  0  0  0  0  0  0  0  0  0  0  0
   44.1572  -19.4960   -5.6379 C   0  0  0  0  0  0  0  0  0  0  0  0
   43.1667  -20.3495   -5.1735 N   0  0  0  0  0  0  0  0  0  0  0  0
   41.9884  -20.3994   -5.7770 C   0  0  0  0  0  0  0  0  0  0  0  0
   41.7498  -19.5100   -6.9096 C   0  0  0  0  0  0  0  0  0  0  0  0
   40.6500  -19.3173   -7.6104 N   0  0  0  0  0  0  0  0  0  0  0  0
   45.4634  -19.5244   -4.9391 C   0  0  0  0  0  0  0  0  0  0  0  0
   45.5844  -20.2489   -3.7425 C   0  0  0  0  0  0  0  0  0  0  0  0
   46.7950  -20.3076   -3.0362 C   0  0  0  0  0  0  0  0  0  0  0  0
   47.9038  -19.6122   -3.5429 C   0  0  0  0  0  0  0  0  0  0  0  0
   49.2482  -19.4156   -3.1571 C   0  0  0  0  0  0  0  0  0  0  0  0
   49.9201  -18.6337   -4.0064 N   0  0  0  0  0  0  0  0  0  0  0  0
   48.9997  -18.3212   -4.9360 N   0  0  0  0  0  0  0  0  0  0  0  0
   47.7699  -18.8862   -4.7199 C   0  0  0  0  0  0  0  0  0  0  0  0
   46.5713  -18.8158   -5.4414 C   0  0  0  0  0  0  0  0  0  0  0  0
   49.2764  -17.7149   -5.6992 H   0  0  0  0  0  0  0  0  0  0  0  0
   41.1096  -21.2854   -5.1991 N   0  0  0  0  0  0  0  0  0  0  0  0
   41.0464  -22.1591   -5.7045 H   0  0  0  0  0  0  0  0  0  0  0  0
   40.1765  -21.1391   -4.1671 C   0  0  0  0  0  0  0  0  0  0  0  0
   39.5528  -19.9388   -3.8391 C   0  0  0  0  0  0  0  0  0  0  0  0
   38.6382  -19.8578   -2.7756 C   0  0  0  0  0  0  0  0  0  0  0  0
   38.3191  -20.9685   -1.9855 C   0  0  0  0  0  0  0  0  0  0  0  0
   38.9478  -22.1726   -2.3253 C   0  0  0  0  0  0  0  0  0  0  0  0
   39.8593  -22.2571   -3.3881 C   0  0  0  0  0  0  0  0  0  0  0  0
   37.4139  -20.9098   -0.9317 N   0  0  0  0  0  0  0  0  0  0  0  0
   36.1319  -21.6272   -1.0801 C   0  0  0  0  0  0  0  0  0  0  0  0
   35.0996  -21.0977   -0.0723 C   0  0  0  0  0  0  0  0  0  0  0  0
   35.5954  -21.1422    1.2745 O   0  0  0  0  0  0  0  0  0  0  0  0
   36.7742  -20.3301    1.3847 C   0  0  0  0  0  0  0  0  0  0  0  0
   37.8948  -20.8265    0.4584 C   0  0  0  0  0  0  0  0  0  0  0  0
   40.3384  -18.0009   -9.2604 H   0  0  0  0  0  0  0  0  0  0  0  0
   42.8071  -17.2770   -8.9630 H   0  0  0  0  0  0  0  0  0  0  0  0
   44.7526  -18.0757   -7.0288 H   0  0  0  0  0  0  0  0  0  0  0  0
   44.7619  -20.7510   -3.3732 H   0  0  0  0  0  0  0  0  0  0  0  0
   46.8688  -20.8510   -2.1619 H   0  0  0  0  0  0  0  0  0  0  0  0
   49.6664  -19.8313   -2.3102 H   0  0  0  0  0  0  0  0  0  0  0  0
   46.5028  -18.2638   -6.3107 H   0  0  0  0  0  0  0  0  0  0  0  0
   39.7664  -19.0914   -4.3880 H   0  0  0  0  0  0  0  0  0  0  0  0
   38.1880  -18.9521   -2.5707 H   0  0  0  0  0  0  0  0  0  0  0  0
   38.7346  -23.0215   -1.7786 H   0  0  0  0  0  0  0  0  0  0  0  0
   40.3054  -23.1632   -3.5999 H   0  0  0  0  0  0  0  0  0  0  0  0
   36.2903  -22.6711   -0.9065 H   0  0  0  0  0  0  0  0  0  0  0  0
   35.7602  -21.4706   -2.0712 H   0  0  0  0  0  0  0  0  0  0  0  0
   34.2154  -21.6969   -0.1355 H   0  0  0  0  0  0  0  0  0  0  0  0
   34.8915  -20.0768   -0.3158 H   0  0  0  0  0  0  0  0  0  0  0  0
   37.1220  -20.3592    2.3962 H   0  0  0  0  0  0  0  0  0  0  0  0
   36.5198  -19.3319    1.0953 H   0  0  0  0  0  0  0  0  0  0  0  0
   38.2140  -21.7960    0.7796 H   0  0  0  0  0  0  0  0  0  0  0  0
   38.7117  -20.1369    0.5020 H   0  0  0  0  0  0  0  0  0  0  0  0
  1  2  2  0
  1 34  1  0
  2  3  1  0
  2 35  1  0
  3  4  1  0
  4  5  2  0
  4 36  1  0
  5 10  1  0
  5  6  1  0
  6  7  2  0
  7 20  1  0
  7  8  1  0
  8  9  2  0
  8  3  1  0
  9  1  1  0
 10 11  2  0
 11 12  1  0
 11 37  1  0
 12 13  2  0
 12 38  1  0
 13 14  1  0
 14 15  2  0
 14 39  1  0
 15 16  1  0
 16 17  1  0
 16 19  1  0
 17 18  2  0
 17 13  1  0
 18 10  1  0
 18 40  1  0
 20 22  1  0
 20 21  1  0
 22 23  2  0
 23 24  1  0
 23 41  1  0
 24 25  2  0
 24 42  1  0
 25 28  1  0
 25 26  1  0
 26 27  2  0
 26 43  1  0
 27 22  1  0
 27 44  1  0
 28 29  1  0
 29 30  1  0
 29 45  1  0
 29 46  1  0
 30 31  1  0
 30 47  1  0
 30 48  1  0
 31 32  1  0
 32 33  1  0
 32 49  1  0
 32 50  1  0
 33 28  1  0
 33 51  1  0
 33 52  1  0
M  END
>  <minimizedAffinity>  (5) 
-8.48171

>  <mol_id>  (5) 
44625

>  <source_index>  (5) 
4

>  <layer>  (5) 
L1

>  <uniprot>  (5) 
P08922

>  <paff>  (5) 
6.0670000000000002

>  <smiles>  (5) 
c1cn2cc(-c3ccc4cn[nH]c4c3)nc(Nc3ccc(N4CCOCC4)cc3)c2n1

$$$$
L1:P08922:52639
     RDKit          3D

 69 73  0  0  0  0  0  0  0  0999 V2000
   36.4879  -20.8209   -5.1879 C   0  0  0  0  0  0  0  0  0  0  0  0
   36.3878  -21.7865   -4.2623 N   0  0  0  0  0  0  0  0  0  0  0  0
   37.5364  -22.3012   -3.7798 C   0  0  0  0  0  0  0  0  0  0  0  0
   38.7798  -21.8932   -4.1870 C   0  0  0  0  0  0  0  0  0  0  0  0
   39.8790  -22.4352   -3.6477 F   0  0  0  0  0  0  0  0  0  0  0  0
   38.8161  -20.8995   -5.1439 C   0  0  0  0  0  0  0  0  0  0  0  0
   37.6696  -20.3599   -5.6379 N   0  0  0  0  0  0  0  0  0  0  0  0
   40.0669  -20.3331   -5.6995 C   0  0  0  0  0  0  0  0  0  0  0  0
   40.1106  -19.7288   -6.9672 C   0  0  0  0  0  0  0  0  0  0  0  0
   41.2942  -19.1897   -7.4831 C   0  0  0  0  0  0  0  0  0  0  0  0
   41.2718  -18.6225   -8.6983 F   0  0  0  0  0  0  0  0  0  0  0  0
   42.4764  -19.2409   -6.7302 C   0  0  0  0  0  0  0  0  0  0  0  0
   43.7359  -18.7820   -7.0138 N   0  0  0  0  0  0  0  0  0  0  0  0
   44.4808  -19.0665   -5.9644 C   0  0  0  0  0  0  0  0  0  0  0  0
   45.9220  -18.7211   -5.8680 C   0  0  0  0  0  0  0  0  0  0  0  0
   43.7407  -19.7242   -4.9994 N   0  0  0  0  0  0  0  0  0  0  0  0
   42.4435  -19.8344   -5.4735 C   0  0  0  0  0  0  0  0  0  0  0  0
   41.2604  -20.3774   -4.9392 C   0  0  0  0  0  0  0  0  0  0  0  0
   44.1792  -20.2065   -3.6908 C   0  0  0  0  0  0  0  0  0  0  0  0
   43.6799  -19.3691   -2.5125 C   0  0  0  0  0  0  0  0  0  0  0  0
   43.8820  -21.6939   -3.5037 C   0  0  0  0  0  0  0  0  0  0  0  0
   35.3722  -20.2269   -5.7444 N   0  0  0  0  0  0  0  0  0  0  0  0
   35.0063  -19.4802   -5.1763 H   0  0  0  0  0  0  0  0  0  0  0  0
   32.9910  -20.8407   -9.0988 C   0  0  0  0  0  0  0  0  0  0  0  0
   34.3192  -20.4665   -9.2890 C   0  0  0  0  0  0  0  0  0  0  0  0
   35.1481  -20.2549   -8.1857 C   0  0  0  0  0  0  0  0  0  0  0  0
   34.6404  -20.4113   -6.9024 C   0  0  0  0  0  0  0  0  0  0  0  0
   33.3504  -20.7673   -6.7018 N   0  0  0  0  0  0  0  0  0  0  0  0
   32.5633  -20.9694   -7.7861 C   0  0  0  0  0  0  0  0  0  0  0  0
   32.0430  -21.0552  -10.2535 C   0  0  0  0  0  0  0  0  0  0  0  0
   32.0176  -18.8638  -12.6048 N   0  0  0  0  0  0  0  0  0  0  0  0
   30.8867  -19.7933  -12.8145 C   0  0  0  0  0  0  0  0  0  0  0  0
   30.1495  -20.2193  -11.5169 C   0  0  0  0  0  0  0  0  0  0  0  0
   30.9277  -20.0896  -10.2713 N   0  0  0  0  0  0  0  0  0  0  0  0
   31.4110  -18.6930  -10.1589 C   0  0  0  0  0  0  0  0  0  0  0  0
   31.7122  -17.9506  -11.4929 C   0  0  0  0  0  0  0  0  0  0  0  0
   32.4473  -16.6594  -13.6873 C   0  0  0  0  0  0  0  0  0  0  0  0
   32.3572  -18.1722  -13.8536 C   0  0  0  0  0  0  0  0  0  0  0  0
   37.4762  -23.0429   -3.0648 H   0  0  0  0  0  0  0  0  0  0  0  0
   39.2481  -19.6814   -7.5319 H   0  0  0  0  0  0  0  0  0  0  0  0
   46.2281  -18.2157   -6.7601 H   0  0  0  0  0  0  0  0  0  0  0  0
   46.4962  -19.6163   -5.7503 H   0  0  0  0  0  0  0  0  0  0  0  0
   46.0800  -18.0825   -5.0241 H   0  0  0  0  0  0  0  0  0  0  0  0
   41.2627  -20.8049   -3.9999 H   0  0  0  0  0  0  0  0  0  0  0  0
   45.2420  -20.0825   -3.6879 H   0  0  0  0  0  0  0  0  0  0  0  0
   42.6144  -19.4428   -2.4487 H   0  0  0  0  0  0  0  0  0  0  0  0
   43.9586  -18.3464   -2.6583 H   0  0  0  0  0  0  0  0  0  0  0  0
   44.1174  -19.7322   -1.6061 H   0  0  0  0  0  0  0  0  0  0  0  0
   42.8233  -21.8487   -3.5025 H   0  0  0  0  0  0  0  0  0  0  0  0
   44.2919  -22.0251   -2.5725 H   0  0  0  0  0  0  0  0  0  0  0  0
   44.3228  -22.2493   -4.3051 H   0  0  0  0  0  0  0  0  0  0  0  0
   34.6901  -20.3458  -10.2444 H   0  0  0  0  0  0  0  0  0  0  0  0
   36.1342  -19.9833   -8.3231 H   0  0  0  0  0  0  0  0  0  0  0  0
   31.5798  -21.2370   -7.6241 H   0  0  0  0  0  0  0  0  0  0  0  0
   32.5915  -20.9593  -11.1672 H   0  0  0  0  0  0  0  0  0  0  0  0
   31.6192  -22.0314  -10.1423 H   0  0  0  0  0  0  0  0  0  0  0  0
   31.2635  -20.6753  -13.2888 H   0  0  0  0  0  0  0  0  0  0  0  0
   30.1702  -19.2684  -13.4112 H   0  0  0  0  0  0  0  0  0  0  0  0
   29.8643  -21.2453  -11.6218 H   0  0  0  0  0  0  0  0  0  0  0  0
   29.3217  -19.5488  -11.4165 H   0  0  0  0  0  0  0  0  0  0  0  0
   32.3135  -18.7070   -9.5842 H   0  0  0  0  0  0  0  0  0  0  0  0
   30.6052  -18.1508   -9.7100 H   0  0  0  0  0  0  0  0  0  0  0  0
   32.5523  -17.3054  -11.3415 H   0  0  0  0  0  0  0  0  0  0  0  0
   30.8315  -17.4051  -11.7605 H   0  0  0  0  0  0  0  0  0  0  0  0
   32.6966  -16.2116  -14.6265 H   0  0  0  0  0  0  0  0  0  0  0  0
   33.2037  -16.4241  -12.9680 H   0  0  0  0  0  0  0  0  0  0  0  0
   31.5048  -16.2808  -13.3506 H   0  0  0  0  0  0  0  0  0  0  0  0
   33.3029  -18.5348  -14.1986 H   0  0  0  0  0  0  0  0  0  0  0  0
   31.5745  -18.3725  -14.5551 H   0  0  0  0  0  0  0  0  0  0  0  0
  1  2  2  0
  2  3  1  0
  3  4  2  0
  3 39  1  0
  4  5  1  0
  4  6  1  0
  6  8  1  0
  6  7  2  0
  7  1  1  0
  8  9  2  0
  9 10  1  0
  9 40  1  0
 10 11  1  0
 10 12  2  0
 12 13  1  0
 13 14  2  0
 14 15  1  0
 14 16  1  0
 15 41  1  0
 15 42  1  0
 15 43  1  0
 16 19  1  0
 16 17  1  0
 17 18  2  0
 17 12  1  0
 18  8  1  0
 18 44  1  0
 19 20  1  0
 19 21  1  0
 19 45  1  0
 20 46  1  0
 20 47  1  0
 20 48  1  0
 21 49  1  0
 21 50  1  0
 21 51  1  0
 22  1  1  0
 22 23  1  0
 24 25  2  0
 25 26  1  0
 25 52  1  0
 26 27  2  0
 26 53  1  0
 27 22  1  0
 27 28  1  0
 28 29  2  0
 29 24  1  0
 29 54  1  0
 30 24  1  0
 30 55  1  0
 30 56  1  0
 31 32  1  0
 32 33  1  0
 32 57  1  0
 32 58  1  0
 33 34  1  0
 33 59  1  0
 33 60  1  0
 34 30  1  0
 34 35  1  0
 35 36  1  0
 35 61  1  0
 35 62  1  0
 36 31  1  0
 36 63  1  0
 36 64  1  0
 37 38  1  0
 37 65  1  0
 37 66  1  0
 37 67  1  0
 38 31  1  0
 38 68  1  0
 38 69  1  0
M  END
>  <minimizedAffinity>  (6) 
-8.79407

>  <mol_id>  (6) 
52639

>  <source_index>  (6) 
5

>  <layer>  (6) 
L1

>  <uniprot>  (6) 
P08922

>  <paff>  (6) 
6

>  <smiles>  (6) 
CCN1CCN(Cc2ccc(Nc3ncc(F)c(n3)-c3cc(F)c4nc(C)n(C(C)C)c4c3)nc2)CC1

$$$$
L1:P08922:62123
     RDKit          3D

 45 47  0  0  0  0  0  0  0  0999 V2000
   40.9435  -19.6841   -5.4749 N   0  0  0  0  0  0  0  0  0  0  0  0
   42.3035  -19.4318   -5.7815 C   0  0  0  0  0  0  0  0  0  0  0  0
   42.6322  -18.8440   -7.0275 C   0  0  0  0  0  0  0  0  0  0  0  0
   43.9419  -18.5192   -7.3925 C   0  0  0  0  0  0  0  0  0  0  0  0
   44.9783  -18.7604   -6.5102 C   0  0  0  0  0  0  0  0  0  0  0  0
   44.6958  -19.3296   -5.2737 C   0  0  0  0  0  0  0  0  0  0  0  0
   43.3762  -19.6835   -4.8964 C   0  0  0  0  0  0  0  0  0  0  0  0
   43.2558  -20.3157   -3.5254 C   0  0  0  0  0  0  0  0  0  0  0  0
   42.0515  -21.2159   -3.2871 C   0  0  0  0  0  0  0  0  0  0  0  0
   40.8120  -20.3844   -3.1197 C   0  0  0  0  0  0  0  0  0  0  0  0
   40.1540  -20.3444   -1.8779 C   0  0  0  0  0  0  0  0  0  0  0  0
   39.0141  -19.5621   -1.7062 C   0  0  0  0  0  0  0  0  0  0  0  0
   38.5323  -18.8144   -2.7734 C   0  0  0  0  0  0  0  0  0  0  0  0
   37.1305  -17.8370   -2.5677 Cl  0  0  0  0  0  0  0  0  0  0  0  0
   39.1763  -18.8516   -4.0088 C   0  0  0  0  0  0  0  0  0  0  0  0
   40.3220  -19.6440   -4.2052 C   0  0  0  0  0  0  0  0  0  0  0  0
   40.0395  -20.1346   -6.5651 C   0  0  0  0  0  0  0  0  0  0  0  0
   39.5122  -21.5500   -6.2933 C   0  0  0  0  0  0  0  0  0  0  0  0
   38.0291  -21.6987   -6.6533 C   0  0  0  0  0  0  0  0  0  0  0  0
   37.9078  -22.3348   -4.3067 C   0  0  0  0  0  0  0  0  0  0  0  0
   37.1486  -21.9476   -5.4993 N   0  0  0  0  0  0  0  0  0  0  0  0
   36.3555  -20.7494   -5.2074 C   0  0  0  0  0  0  0  0  0  0  0  0
   41.8709  -18.6467   -7.6957 H   0  0  0  0  0  0  0  0  0  0  0  0
   44.1341  -18.1013   -8.3163 H   0  0  0  0  0  0  0  0  0  0  0  0
   45.9490  -18.5211   -6.7660 H   0  0  0  0  0  0  0  0  0  0  0  0
   45.4690  -19.4993   -4.6116 H   0  0  0  0  0  0  0  0  0  0  0  0
   43.2154  -19.5242   -2.8065 H   0  0  0  0  0  0  0  0  0  0  0  0
   44.1069  -20.9583   -3.4381 H   0  0  0  0  0  0  0  0  0  0  0  0
   42.2118  -21.7948   -2.4016 H   0  0  0  0  0  0  0  0  0  0  0  0
   41.9272  -21.8652   -4.1284 H   0  0  0  0  0  0  0  0  0  0  0  0
   40.5183  -20.8989   -1.0874 H   0  0  0  0  0  0  0  0  0  0  0  0
   38.5318  -19.5382   -0.7942 H   0  0  0  0  0  0  0  0  0  0  0  0
   38.8071  -18.2893   -4.7914 H   0  0  0  0  0  0  0  0  0  0  0  0
   39.2117  -19.4602   -6.6343 H   0  0  0  0  0  0  0  0  0  0  0  0
   40.5910  -20.1467   -7.4819 H   0  0  0  0  0  0  0  0  0  0  0  0
   40.0790  -22.2459   -6.8759 H   0  0  0  0  0  0  0  0  0  0  0  0
   39.6151  -21.7416   -5.2456 H   0  0  0  0  0  0  0  0  0  0  0  0
   37.7081  -20.7970   -7.1317 H   0  0  0  0  0  0  0  0  0  0  0  0
   37.9520  -22.5561   -7.2888 H   0  0  0  0  0  0  0  0  0  0  0  0
   37.2329  -22.5058   -3.4942 H   0  0  0  0  0  0  0  0  0  0  0  0
   38.5878  -21.5506   -4.0466 H   0  0  0  0  0  0  0  0  0  0  0  0
   38.4569  -23.2306   -4.5088 H   0  0  0  0  0  0  0  0  0  0  0  0
   35.7190  -20.9386   -4.3683 H   0  0  0  0  0  0  0  0  0  0  0  0
   35.7579  -20.5009   -6.0595 H   0  0  0  0  0  0  0  0  0  0  0  0
   37.0108  -19.9343   -4.9814 H   0  0  0  0  0  0  0  0  0  0  0  0
  1  2  1  0
  2  3  2  0
  3  4  1  0
  3 23  1  0
  4  5  2  0
  4 24  1  0
  5  6  1  0
  5 25  1  0
  6  7  2  0
  6 26  1  0
  7  8  1  0
  7  2  1  0
  8  9  1  0
  8 27  1  0
  8 28  1  0
  9 10  1  0
  9 29  1  0
  9 30  1  0
 10 11  2  0
 11 12  1  0
 11 31  1  0
 12 13  2  0
 12 32  1  0
 13 14  1  0
 13 15  1  0
 15 16  2  0
 15 33  1  0
 16  1  1  0
 16 10  1  0
 17  1  1  0
 17 34  1  0
 17 35  1  0
 18 17  1  0
 18 36  1  0
 18 37  1  0
 19 18  1  0
 19 38  1  0
 19 39  1  0
 20 21  1  0
 20 40  1  0
 20 41  1  0
 20 42  1  0
 21 22  1  0
 21 19  1  0
 22 43  1  0
 22 44  1  0
 22 45  1  0
M  END
>  <minimizedAffinity>  (7) 
-7.07653

>  <mol_id>  (7) 
62123

>  <source_index>  (7) 
6

>  <layer>  (7) 
L1

>  <uniprot>  (7) 
P08922

>  <paff>  (7) 
6

>  <smiles>  (7) 
CN(C)CCCN1c2ccccc2CCc3c1cc(cc3)Cl

$$$$
L1:P08922:62474
     RDKit          3D

 58 65  0  0  0  0  0  0  0  0999 V2000
   37.4659  -20.2377   -4.0832 C   0  0  2  0  0  0  0  0  0  0  0  0
   38.3216  -19.7643   -5.2541 C   0  0  0  0  0  0  0  0  0  0  0  0
   39.2940  -20.8129   -5.7998 C   0  0  2  0  0  0  0  0  0  0  0  0
   39.2242  -22.0941   -5.1733 O   0  0  0  0  0  0  0  0  0  0  0  0
   39.1624  -22.1264   -3.7426 C   0  0  2  0  0  0  0  0  0  0  0  0
   38.3376  -21.0087   -3.0713 C   0  0  2  0  0  0  0  0  0  0  0  0
   40.5217  -22.1824   -3.1946 N   0  0  0  0  0  0  0  0  0  0  0  0
   40.9091  -22.8441   -2.0400 C   0  0  0  0  0  0  0  0  0  0  0  0
   40.1788  -23.6451   -1.1462 C   0  0  0  0  0  0  0  0  0  0  0  0
   40.8484  -24.1900   -0.0472 C   0  0  0  0  0  0  0  0  0  0  0  0
   42.2015  -23.9453    0.1604 C   0  0  0  0  0  0  0  0  0  0  0  0
   42.9231  -23.1415   -0.7277 C   0  0  0  0  0  0  0  0  0  0  0  0
   42.2746  -22.5758   -1.8461 C   0  0  0  0  0  0  0  0  0  0  0  0
   42.6990  -21.7208   -2.9054 C   0  0  0  0  0  0  0  0  0  0  0  0
   43.8805  -21.0786   -3.3096 C   0  0  0  0  0  0  0  0  0  0  0  0
   43.9277  -20.2494   -4.4765 C   0  0  0  0  0  0  0  0  0  0  0  0
   42.8406  -19.9947   -5.3298 C   0  0  0  0  0  0  0  0  0  0  0  0
   42.5404  -19.2591   -6.5173 C   0  0  0  0  0  0  0  0  0  0  0  0
   43.2860  -18.4187   -7.3720 C   0  0  0  0  0  0  0  0  0  0  0  0
   42.6785  -17.8286   -8.4851 C   0  0  0  0  0  0  0  0  0  0  0  0
   41.3379  -18.0616   -8.7638 C   0  0  0  0  0  0  0  0  0  0  0  0
   40.5695  -18.8891   -7.9420 C   0  0  0  0  0  0  0  0  0  0  0  0
   41.1857  -19.4808   -6.8245 C   0  0  0  0  0  0  0  0  0  0  0  0
   40.6770  -20.3317   -5.8547 N   0  0  0  0  0  0  0  0  0  0  0  0
   41.6612  -20.6177   -4.9620 C   0  0  0  0  0  0  0  0  0  0  0  0
   41.5909  -21.5095   -3.6988 C   0  0  0  0  0  0  0  0  0  0  0  0
   45.3031  -19.7414   -4.5859 C   0  0  0  0  0  0  0  0  0  0  0  0
   45.7598  -19.0001   -5.4321 O   0  0  0  0  0  0  0  0  0  0  0  0
   46.0168  -20.2598   -3.5277 N   0  0  0  0  0  0  0  0  0  0  0  0
   45.2369  -21.1077   -2.6700 C   0  0  0  0  0  0  0  0  0  0  0  0
   46.9962  -20.0404   -3.4074 H   0  0  0  0  0  0  0  0  0  0  0  0
   35.6996  -20.6815   -5.7982 C   0  0  0  0  0  0  0  0  0  0  0  0
   36.1740  -20.8603   -4.4367 N   0  0  0  0  0  0  0  0  0  0  0  0
   36.2606  -21.8667   -4.2640 H   0  0  0  0  0  0  0  0  0  0  0  0
   37.5187  -21.5815   -2.0265 O   0  0  0  0  0  0  0  0  0  0  0  0
   37.5997  -20.8692   -0.7972 C   0  0  0  0  0  0  0  0  0  0  0  0
   37.1062  -19.3636   -3.5816 H   0  0  0  0  0  0  0  0  0  0  0  0
   38.8909  -18.9181   -4.9304 H   0  0  0  0  0  0  0  0  0  0  0  0
   37.6446  -19.5359   -6.0506 H   0  0  0  0  0  0  0  0  0  0  0  0
   38.9508  -20.9665   -6.8016 H   0  0  0  0  0  0  0  0  0  0  0  0
   38.6165  -23.0153   -3.5043 H   0  0  0  0  0  0  0  0  0  0  0  0
   39.0195  -20.2997   -2.6503 H   0  0  0  0  0  0  0  0  0  0  0  0
   39.1741  -23.8264   -1.2973 H   0  0  0  0  0  0  0  0  0  0  0  0
   40.3309  -24.7829    0.6204 H   0  0  0  0  0  0  0  0  0  0  0  0
   42.6771  -24.3604    0.9768 H   0  0  0  0  0  0  0  0  0  0  0  0
   43.9265  -22.9626   -0.5658 H   0  0  0  0  0  0  0  0  0  0  0  0
   44.2829  -18.2391   -7.1748 H   0  0  0  0  0  0  0  0  0  0  0  0
   43.2308  -17.2151   -9.1044 H   0  0  0  0  0  0  0  0  0  0  0  0
   40.9042  -17.6177   -9.5884 H   0  0  0  0  0  0  0  0  0  0  0  0
   39.5735  -19.0623   -8.1496 H   0  0  0  0  0  0  0  0  0  0  0  0
   45.2008  -20.7184   -1.6740 H   0  0  0  0  0  0  0  0  0  0  0  0
   45.6376  -22.0954   -2.5759 H   0  0  0  0  0  0  0  0  0  0  0  0
   35.5996  -19.6368   -6.0067 H   0  0  0  0  0  0  0  0  0  0  0  0
   34.7493  -21.1602   -5.9105 H   0  0  0  0  0  0  0  0  0  0  0  0
   36.4005  -21.1158   -6.4801 H   0  0  0  0  0  0  0  0  0  0  0  0
   36.9738  -21.3417   -0.0693 H   0  0  0  0  0  0  0  0  0  0  0  0
   37.2740  -19.8610   -0.9470 H   0  0  0  0  0  0  0  0  0  0  0  0
   38.6121  -20.8693   -0.4510 H   0  0  0  0  0  0  0  0  0  0  0  0
  1  2  1  0
  1 37  1  1
  2  3  1  0
  2 38  1  0
  2 39  1  0
  3  4  1  0
  3 40  1  6
  4  5  1  0
  5  6  1  0
  5  7  1  0
  5 41  1  6
  6 35  1  0
  6  1  1  0
  6 42  1  1
  7  8  1  0
  8  9  2  0
  9 10  1  0
  9 43  1  0
 10 11  2  0
 10 44  1  0
 11 12  1  0
 11 45  1  0
 12 13  2  0
 12 46  1  0
 13 14  1  0
 13  8  1  0
 14 15  2  0
 15 16  1  0
 16 17  2  0
 16 27  1  0
 17 18  1  0
 18 19  2  0
 19 20  1  0
 19 47  1  0
 20 21  2  0
 20 48  1  0
 21 22  1  0
 21 49  1  0
 22 23  2  0
 22 50  1  0
 23 24  1  0
 23 18  1  0
 24 25  1  0
 24  3  1  0
 25 26  2  0
 25 17  1  0
 26  7  1  0
 26 14  1  0
 27 28  2  0
 27 29  1  0
 29 30  1  0
 29 31  1  0
 30 15  1  0
 30 51  1  0
 30 52  1  0
 32 33  1  0
 32 53  1  0
 32 54  1  0
 32 55  1  0
 33  1  1  0
 33 34  1  0
 35 36  1  0
 36 56  1  0
 36 57  1  0
 36 58  1  0
M  END
>  <minimizedAffinity>  (8) 
-10.42418

>  <mol_id>  (8) 
62474

>  <source_index>  (8) 
7

>  <layer>  (8) 
L1

>  <uniprot>  (8) 
P08922

>  <paff>  (8) 
9.6090999999999998

>  <smiles>  (8) 
CN[C@@H]1CC2OC([C@@H]1OC)n1c3ccccc3c3c4CNC(=O)c4c4c5ccccc5n2c4c13 |r|

$$$$
L1:P08922:70772
     RDKit          3D

 65 68  0  0  0  0  0  0  0  0999 V2000
   42.5081  -20.1376   -5.8785 C   0  0  0  0  0  0  0  0  0  0  0  0
   43.1630  -18.9634   -6.2838 C   0  0  0  0  0  0  0  0  0  0  0  0
   44.1184  -18.4211   -5.4454 C   0  0  0  0  0  0  0  0  0  0  0  0
   44.4549  -18.9457   -4.2483 N   0  0  0  0  0  0  0  0  0  0  0  0
   43.8554  -20.0821   -3.8599 C   0  0  0  0  0  0  0  0  0  0  0  0
   44.1933  -20.6123   -2.6274 C   0  0  0  0  0  0  0  0  0  0  0  0
   43.6071  -21.7813   -2.1332 C   0  0  0  0  0  0  0  0  0  0  0  0
   42.7294  -22.5147   -2.9347 C   0  0  0  0  0  0  0  0  0  0  0  0
   42.3845  -21.9891   -4.1826 C   0  0  0  0  0  0  0  0  0  0  0  0
   42.8920  -20.7461   -4.6465 C   0  0  0  0  0  0  0  0  0  0  0  0
   41.4269  -20.6337   -6.6519 N   0  0  0  0  0  0  0  0  0  0  0  0
   41.6565  -20.9299   -7.6012 H   0  0  0  0  0  0  0  0  0  0  0  0
   38.1109  -19.7253   -5.1539 C   0  0  0  0  0  0  0  0  0  0  0  0
   39.4790  -19.7114   -5.4540 C   0  0  0  0  0  0  0  0  0  0  0  0
   40.0319  -20.5833   -6.4092 C   0  0  0  0  0  0  0  0  0  0  0  0
   39.1629  -21.4629   -7.0826 C   0  0  0  0  0  0  0  0  0  0  0  0
   39.7740  -22.5695   -8.2637 Cl  0  0  0  0  0  0  0  0  0  0  0  0
   37.7942  -21.4702   -6.8174 C   0  0  0  0  0  0  0  0  0  0  0  0
   37.2734  -20.6051   -5.8551 C   0  0  0  0  0  0  0  0  0  0  0  0
   35.5732  -20.6685   -5.5469 Cl  0  0  0  0  0  0  0  0  0  0  0  0
   38.3499  -17.9608   -3.5616 C   0  0  0  0  0  0  0  0  0  0  0  0
   37.5227  -18.9174   -4.2156 O   0  0  0  0  0  0  0  0  0  0  0  0
   42.8546  -18.2950   -7.5079 C   0  0  0  0  0  0  0  0  0  0  0  0
   42.6156  -17.7581   -8.5084 N   0  0  0  0  0  0  0  0  0  0  0  0
   42.2870  -23.7173   -2.4550 O   0  0  0  0  0  0  0  0  0  0  0  0
   40.8829  -23.9230   -2.3648 C   0  0  0  0  0  0  0  0  0  0  0  0
   44.0167  -22.1256   -0.8715 O   0  0  0  0  0  0  0  0  0  0  0  0
   43.5686  -21.2523    0.1733 C   0  0  0  0  0  0  0  0  0  0  0  0
   42.1359  -21.6310    0.5571 C   0  0  0  0  0  0  0  0  0  0  0  0
   41.1608  -20.4433    0.4911 C   0  0  0  0  0  0  0  0  0  0  0  0
   39.7654  -20.7958    0.1920 N   0  0  0  0  0  0  0  0  0  0  0  0
   39.5271  -20.7507   -1.2671 C   0  0  0  0  0  0  0  0  0  0  0  0
   38.0853  -21.1615   -1.6424 C   0  0  0  0  0  0  0  0  0  0  0  0
   37.7503  -22.5110   -1.1546 N   0  0  0  0  0  0  0  0  0  0  0  0
   36.3642  -22.8484   -1.4684 C   0  0  0  0  0  0  0  0  0  0  0  0
   37.9826  -22.5697    0.3018 C   0  0  0  0  0  0  0  0  0  0  0  0
   39.4210  -22.1474    0.6862 C   0  0  0  0  0  0  0  0  0  0  0  0
   44.6035  -17.5638   -5.7531 H   0  0  0  0  0  0  0  0  0  0  0  0
   44.9018  -20.1286   -2.0537 H   0  0  0  0  0  0  0  0  0  0  0  0
   41.7397  -22.5216   -4.7873 H   0  0  0  0  0  0  0  0  0  0  0  0
   40.0959  -19.0457   -4.9627 H   0  0  0  0  0  0  0  0  0  0  0  0
   37.1698  -22.1122   -7.3303 H   0  0  0  0  0  0  0  0  0  0  0  0
   37.7647  -17.4033   -2.8604 H   0  0  0  0  0  0  0  0  0  0  0  0
   38.7671  -17.2945   -4.2874 H   0  0  0  0  0  0  0  0  0  0  0  0
   39.1396  -18.4657   -3.0455 H   0  0  0  0  0  0  0  0  0  0  0  0
   40.6900  -24.9009   -1.9757 H   0  0  0  0  0  0  0  0  0  0  0  0
   40.4461  -23.8335   -3.3375 H   0  0  0  0  0  0  0  0  0  0  0  0
   40.4561  -23.1893   -1.7133 H   0  0  0  0  0  0  0  0  0  0  0  0
   43.5923  -20.2394   -0.1706 H   0  0  0  0  0  0  0  0  0  0  0  0
   44.2091  -21.3483    1.0251 H   0  0  0  0  0  0  0  0  0  0  0  0
   42.1405  -22.0129    1.5566 H   0  0  0  0  0  0  0  0  0  0  0  0
   41.7984  -22.3611   -0.1486 H   0  0  0  0  0  0  0  0  0  0  0  0
   41.5041  -19.7750   -0.2707 H   0  0  0  0  0  0  0  0  0  0  0  0
   41.1546  -20.0092    1.4690 H   0  0  0  0  0  0  0  0  0  0  0  0
   40.2107  -21.4190   -1.7476 H   0  0  0  0  0  0  0  0  0  0  0  0
   39.6728  -19.7411   -1.5900 H   0  0  0  0  0  0  0  0  0  0  0  0
   37.9879  -21.1454   -2.7078 H   0  0  0  0  0  0  0  0  0  0  0  0
   37.4137  -20.4677   -1.1814 H   0  0  0  0  0  0  0  0  0  0  0  0
   36.2163  -22.8002   -2.5270 H   0  0  0  0  0  0  0  0  0  0  0  0
   35.7097  -22.1536   -0.9849 H   0  0  0  0  0  0  0  0  0  0  0  0
   36.1512  -23.8385   -1.1232 H   0  0  0  0  0  0  0  0  0  0  0  0
   37.8178  -23.5727    0.6361 H   0  0  0  0  0  0  0  0  0  0  0  0
   37.3054  -21.8852    0.7685 H   0  0  0  0  0  0  0  0  0  0  0  0
   40.1090  -22.8517    0.2673 H   0  0  0  0  0  0  0  0  0  0  0  0
   39.4799  -22.1280    1.7544 H   0  0  0  0  0  0  0  0  0  0  0  0
  1  2  2  0
  2 23  1  0
  2  3  1  0
  3  4  2  0
  3 38  1  0
  4  5  1  0
  5  6  2  0
  6  7  1  0
  6 39  1  0
  7 27  1  0
  7  8  2  0
  8 25  1  0
  8  9  1  0
  9 10  2  0
  9 40  1  0
 10  1  1  0
 10  5  1  0
 11  1  1  0
 11 12  1  0
 13 14  2  0
 14 15  1  0
 14 41  1  0
 15 11  1  0
 15 16  2  0
 16 17  1  0
 16 18  1  0
 18 19  2  0
 18 42  1  0
 19 20  1  0
 19 13  1  0
 21 22  1  0
 21 43  1  0
 21 44  1  0
 21 45  1  0
 22 13  1  0
 23 24  3  0
 25 26  1  0
 26 46  1  0
 26 47  1  0
 26 48  1  0
 27 28  1  0
 28 29  1  0
 28 49  1  0
 28 50  1  0
 29 30  1  0
 29 51  1  0
 29 52  1  0
 30 31  1  0
 30 53  1  0
 30 54  1  0
 31 32  1  0
 32 33  1  0
 32 55  1  0
 32 56  1  0
 33 34  1  0
 33 57  1  0
 33 58  1  0
 34 35  1  0
 34 36  1  0
 35 59  1  0
 35 60  1  0
 35 61  1  0
 36 37  1  0
 36 62  1  0
 36 63  1  0
 37 31  1  0
 37 64  1  0
 37 65  1  0
M  END
>  <minimizedAffinity>  (9) 
-7.05744

>  <mol_id>  (9) 
70772

>  <source_index>  (9) 
8

>  <layer>  (9) 
L1

>  <uniprot>  (9) 
P08922

>  <paff>  (9) 
6.6989999999999998

>  <smiles>  (9) 
CN1CCN(CC1)CCCOc2cc3c(cc2OC)c(c(cn3)C#N)Nc4cc(c(cc4Cl)Cl)OC

$$$$
L1:P08922:100526
     RDKit          3D

 75 80  0  0  0  0  0  0  0  0999 V2000
   44.0905  -19.6259   -2.7266 C   0  0  0  0  0  0  0  0  0  0  0  0
   43.1826  -18.8772   -2.3862 O   0  0  0  0  0  0  0  0  0  0  0  0
   44.5103  -19.8810   -4.0042 N   0  0  0  0  0  0  0  0  0  0  0  0
   45.2380  -20.5784   -4.1275 H   0  0  0  0  0  0  0  0  0  0  0  0
   44.0570  -19.3707   -5.1976 C   0  0  0  0  0  0  0  0  0  0  0  0
   44.9553  -18.6728   -5.9056 N   0  0  0  0  0  0  0  0  0  0  0  0
   44.2871  -18.2834   -6.9968 N   0  0  0  0  0  0  0  0  0  0  0  0
   42.9884  -18.6994   -7.0416 C   0  0  0  0  0  0  0  0  0  0  0  0
   41.9942  -18.4909   -8.0035 C   0  0  0  0  0  0  0  0  0  0  0  0
   40.7356  -19.0445   -7.7575 C   0  0  0  0  0  0  0  0  0  0  0  0
   40.4814  -19.7814   -6.5962 C   0  0  0  0  0  0  0  0  0  0  0  0
   41.5090  -19.9655   -5.6490 C   0  0  0  0  0  0  0  0  0  0  0  0
   42.7932  -19.4227   -5.8663 C   0  0  0  0  0  0  0  0  0  0  0  0
   44.7768  -17.7247   -7.6856 H   0  0  0  0  0  0  0  0  0  0  0  0
   39.1067  -20.3539   -6.3342 C   0  0  0  0  0  0  0  0  0  0  0  0
   38.4473  -19.7850   -5.1001 C   0  0  0  0  0  0  0  0  0  0  0  0
   38.4117  -18.4004   -4.8802 C   0  0  0  0  0  0  0  0  0  0  0  0
   37.8162  -17.8906   -3.7279 C   0  0  0  0  0  0  0  0  0  0  0  0
   37.7892  -16.5650   -3.5355 F   0  0  0  0  0  0  0  0  0  0  0  0
   37.2521  -18.7293   -2.7781 C   0  0  0  0  0  0  0  0  0  0  0  0
   37.2923  -20.0993   -2.9924 C   0  0  0  0  0  0  0  0  0  0  0  0
   36.7538  -20.9230   -2.0837 F   0  0  0  0  0  0  0  0  0  0  0  0
   37.8824  -20.6339   -4.1360 C   0  0  0  0  0  0  0  0  0  0  0  0
   46.5457  -21.7331    0.1827 C   0  0  0  0  0  0  0  0  0  0  0  0
   47.0776  -20.9003   -0.8080 C   0  0  0  0  0  0  0  0  0  0  0  0
   46.2591  -20.2126   -1.7106 C   0  0  0  0  0  0  0  0  0  0  0  0
   44.8645  -20.3363   -1.6560 C   0  0  0  0  0  0  0  0  0  0  0  0
   44.2853  -21.1521   -0.6670 C   0  0  0  0  0  0  0  0  0  0  0  0
   45.1433  -21.8327    0.2259 C   0  0  0  0  0  0  0  0  0  0  0  0
   50.0290  -24.9734    2.9020 C   0  0  0  0  0  0  0  0  0  0  0  0
   49.0890  -23.8654    3.0472 N   0  0  0  0  0  0  0  0  0  0  0  0
   47.7083  -24.2663    2.7048 C   0  0  0  0  0  0  0  0  0  0  0  0
   47.2190  -23.8632    1.2930 C   0  0  0  0  0  0  0  0  0  0  0  0
   47.3557  -22.4127    1.0753 N   0  0  0  0  0  0  0  0  0  0  0  0
   48.3888  -21.7269    1.8701 C   0  0  0  0  0  0  0  0  0  0  0  0
   49.5274  -22.7037    2.2449 C   0  0  0  0  0  0  0  0  0  0  0  0
   42.9027  -21.2587   -0.4430 N   0  0  0  0  0  0  0  0  0  0  0  0
   42.3564  -20.4596   -0.7592 H   0  0  0  0  0  0  0  0  0  0  0  0
   42.2645  -22.5704   -0.6616 C   0  0  0  0  0  0  0  0  0  0  0  0
   40.7900  -22.4966   -0.2385 C   0  0  0  0  0  0  0  0  0  0  0  0
   39.8872  -22.2862   -1.4427 C   0  0  0  0  0  0  0  0  0  0  0  0
   39.9972  -23.3316   -2.4080 O   0  0  0  0  0  0  0  0  0  0  0  0
   41.2852  -23.9375   -2.5097 C   0  0  0  0  0  0  0  0  0  0  0  0
   42.4092  -22.9898   -2.1305 C   0  0  0  0  0  0  0  0  0  0  0  0
   42.1833  -17.9492   -8.8613 H   0  0  0  0  0  0  0  0  0  0  0  0
   39.9789  -18.9072   -8.4457 H   0  0  0  0  0  0  0  0  0  0  0  0
   41.3202  -20.5025   -4.7882 H   0  0  0  0  0  0  0  0  0  0  0  0
   39.1975  -21.4131   -6.2130 H   0  0  0  0  0  0  0  0  0  0  0  0
   38.4911  -20.0948   -7.1702 H   0  0  0  0  0  0  0  0  0  0  0  0
   38.8271  -17.7579   -5.5728 H   0  0  0  0  0  0  0  0  0  0  0  0
   36.8114  -18.3420   -1.9291 H   0  0  0  0  0  0  0  0  0  0  0  0
   37.9040  -21.6564   -4.2742 H   0  0  0  0  0  0  0  0  0  0  0  0
   48.1016  -20.7903   -0.8747 H   0  0  0  0  0  0  0  0  0  0  0  0
   46.6885  -19.6058   -2.4265 H   0  0  0  0  0  0  0  0  0  0  0  0
   44.7184  -22.4349    0.9482 H   0  0  0  0  0  0  0  0  0  0  0  0
   49.6953  -25.8035    3.4890 H   0  0  0  0  0  0  0  0  0  0  0  0
   50.9974  -24.6658    3.2373 H   0  0  0  0  0  0  0  0  0  0  0  0
   50.0831  -25.2628    1.8733 H   0  0  0  0  0  0  0  0  0  0  0  0
   47.0500  -23.8194    3.4202 H   0  0  0  0  0  0  0  0  0  0  0  0
   47.7052  -25.3362    2.7183 H   0  0  0  0  0  0  0  0  0  0  0  0
   46.1896  -24.1361    1.1894 H   0  0  0  0  0  0  0  0  0  0  0  0
   47.8194  -24.3724    0.5683 H   0  0  0  0  0  0  0  0  0  0  0  0
   47.9461  -21.3432    2.7655 H   0  0  0  0  0  0  0  0  0  0  0  0
   48.7982  -20.9286    1.2870 H   0  0  0  0  0  0  0  0  0  0  0  0
   50.2605  -22.1645    2.8077 H   0  0  0  0  0  0  0  0  0  0  0  0
   49.9141  -23.0926    1.3261 H   0  0  0  0  0  0  0  0  0  0  0  0
   42.7495  -23.3139   -0.0641 H   0  0  0  0  0  0  0  0  0  0  0  0
   40.6617  -21.6807    0.4417 H   0  0  0  0  0  0  0  0  0  0  0  0
   40.5233  -23.4209    0.2299 H   0  0  0  0  0  0  0  0  0  0  0  0
   40.1514  -21.3606   -1.9100 H   0  0  0  0  0  0  0  0  0  0  0  0
   38.8771  -22.2797   -1.0898 H   0  0  0  0  0  0  0  0  0  0  0  0
   41.4339  -24.2585   -3.5195 H   0  0  0  0  0  0  0  0  0  0  0  0
   41.3108  -24.7599   -1.8257 H   0  0  0  0  0  0  0  0  0  0  0  0
   42.3663  -22.1210   -2.7535 H   0  0  0  0  0  0  0  0  0  0  0  0
   43.3482  -23.4848   -2.2650 H   0  0  0  0  0  0  0  0  0  0  0  0
  1  2  2  0
  1  3  1  0
  3  5  1  0
  3  4  1  0
  5  6  2  0
  6  7  1  0
  7  8  1  0
  7 14  1  0
  8  9  2  0
  9 10  1  0
  9 45  1  0
 10 11  2  0
 10 46  1  0
 11 15  1  0
 11 12  1  0
 12 13  2  0
 12 47  1  0
 13  5  1  0
 13  8  1  0
 15 16  1  0
 15 48  1  0
 15 49  1  0
 16 17  2  0
 17 18  1  0
 17 50  1  0
 18 19  1  0
 18 20  2  0
 20 21  1  0
 20 51  1  0
 21 22  1  0
 21 23  2  0
 23 16  1  0
 23 52  1  0
 24 25  2  0
 25 26  1  0
 25 53  1  0
 26 27  2  0
 26 54  1  0
 27  1  1  0
 27 28  1  0
 28 37  1  0
 28 29  2  0
 29 24  1  0
 29 55  1  0
 30 31  1  0
 30 56  1  0
 30 57  1  0
 30 58  1  0
 31 32  1  0
 32 33  1  0
 32 59  1  0
 32 60  1  0
 33 34  1  0
 33 61  1  0
 33 62  1  0
 34 24  1  0
 34 35  1  0
 35 36  1  0
 35 63  1  0
 35 64  1  0
 36 31  1  0
 36 65  1  0
 36 66  1  0
 37 39  1  0
 37 38  1  0
 39 40  1  0
 39 67  1  0
 40 41  1  0
 40 68  1  0
 40 69  1  0
 41 42  1  0
 41 70  1  0
 41 71  1  0
 42 43  1  0
 43 44  1  0
 43 72  1  0
 43 73  1  0
 44 39  1  0
 44 74  1  0
 44 75  1  0
M  END
>  <minimizedAffinity>  (10) 
-8.91311

>  <mol_id>  (10) 
100526

>  <source_index>  (10) 
9

>  <layer>  (10) 
L1

>  <uniprot>  (10) 
P08922

>  <paff>  (10) 
7.9207999999999998

>  <smiles>  (10) 
CN1CCN(c2ccc(C(=O)Nc3n[nH]c4ccc(Cc5cc(F)cc(F)c5)cc34)c(NC3CCOCC3)c2)CC1

$$$$
