cmet_000
     RDKit          3D

 46 49  0  0  1  0  0  0  0  0999 V2000
   24.4920   34.2276   50.5354 C   0  0  0  0  0  0  0  0  0  0  0  0
   24.1463   33.8320   51.9307 C   0  0  0  0  0  0  0  0  0  0  0  0
   22.9552   33.1910   52.2446 C   0  0  0  0  0  0  0  0  0  0  0  0
   22.6944   32.8325   53.5530 C   0  0  0  0  0  0  0  0  0  0  0  0
   23.6100   33.1679   54.5476 C   0  0  0  0  0  0  0  0  0  0  0  0
   24.7879   33.7445   54.2472 N   0  0  0  0  0  0  0  0  0  0  0  0
   25.0213   34.0848   52.9833 C   0  0  0  0  0  0  0  0  0  0  0  0
   23.3341   32.8954   55.9566 C   0  0  0  0  0  0  0  0  0  0  0  0
   24.3667   32.9336   56.8916 C   0  0  0  0  0  0  0  0  0  0  0  0
   24.1789   32.3937   58.1530 C   0  0  0  0  0  0  0  0  0  0  0  0
   22.9358   31.9171   58.5303 C   0  0  0  0  0  0  0  0  0  0  0  0
   21.8485   32.0481   57.6764 C   0  0  0  0  0  0  0  0  0  0  0  0
   20.4763   31.6851   58.1463 C   0  0  0  0  0  0  0  0  0  0  0  0
   20.1274   30.2999   57.8300 N   0  0  0  0  0  0  0  0  0  0  0  0
   19.6271   30.1408   56.6128 N   0  0  0  0  0  0  0  0  0  0  0  0
   19.2755   28.9349   56.2339 C   0  0  0  0  0  0  0  0  0  0  0  0
   19.4970   27.8089   57.0811 C   0  0  0  0  0  0  0  0  0  0  0  0
   20.0271   27.9862   58.3164 C   0  0  0  0  0  0  0  0  0  0  0  0
   20.3637   29.3038   58.7780 C   0  0  0  0  0  0  0  0  0  0  0  0
   20.8141   29.5890   59.9018 O   0  0  0  0  0  0  0  0  0  0  0  0
   18.5769   28.8286   54.9527 C   0  0  0  0  0  0  0  0  0  0  0  0
   18.2573   29.9892   54.2532 C   0  0  0  0  0  0  0  0  0  0  0  0
   17.3937   29.8974   53.1852 C   0  0  0  0  0  0  0  0  0  0  0  0
   17.0159   31.0397   52.5376 F   0  0  0  0  0  0  0  0  0  0  0  0
   16.8617   28.7000   52.7477 C   0  0  0  0  0  0  0  0  0  0  0  0
   17.2657   27.5571   53.4146 C   0  0  0  0  0  0  0  0  0  0  0  0
   16.7434   26.3703   53.0265 F   0  0  0  0  0  0  0  0  0  0  0  0
   18.1465   27.5891   54.4775 C   0  0  0  0  0  0  0  0  0  0  0  0
   22.0541   32.5246   56.3924 C   0  0  0  0  0  0  0  0  0  0  0  0
   25.4199   33.7528   50.2159 H   0  0  0  0  0  0  0  0  0  0  0  0
   24.6351   35.3032   50.4552 H   0  0  0  0  0  0  0  0  0  0  0  0
   23.7102   33.9409   49.8388 H   0  0  0  0  0  0  0  0  0  0  0  0
   22.2295   32.9851   51.4706 H   0  0  0  0  0  0  0  0  0  0  0  0
   21.7976   32.2747   53.7768 H   0  0  0  0  0  0  0  0  0  0  0  0
   25.9645   34.5832   52.7876 H   0  0  0  0  0  0  0  0  0  0  0  0
   25.3071   33.4083   56.6500 H   0  0  0  0  0  0  0  0  0  0  0  0
   25.0010   32.3649   58.8505 H   0  0  0  0  0  0  0  0  0  0  0  0
   22.7913   31.4485   59.4918 H   0  0  0  0  0  0  0  0  0  0  0  0
   20.3836   31.8017   59.2206 H   0  0  0  0  0  0  0  0  0  0  0  0
   19.7224   32.2993   57.6639 H   0  0  0  0  0  0  0  0  0  0  0  0
   19.2377   26.8123   56.7543 H   0  0  0  0  0  0  0  0  0  0  0  0
   20.2021   27.1562   58.9837 H   0  0  0  0  0  0  0  0  0  0  0  0
   18.6545   30.9422   54.5645 H   0  0  0  0  0  0  0  0  0  0  0  0
   16.1319   28.6590   51.9535 H   0  0  0  0  0  0  0  0  0  0  0  0
   18.4765   26.6589   54.9088 H   0  0  0  0  0  0  0  0  0  0  0  0
   21.2046   32.5866   55.7258 H   0  0  0  0  0  0  0  0  0  0  0  0
  1  2  1  0
  1 30  1  0
  1 31  1  0
  1 32  1  0
  2  3  2  0
  2  7  1  0
  3  4  1  0
  3 33  1  0
  4  5  2  0
  4 34  1  0
  5  6  1  0
  5  8  1  0
  6  7  2  0
  7 35  1  0
  8  9  2  0
  8 29  1  0
  9 10  1  0
  9 36  1  0
 10 11  2  0
 10 37  1  0
 11 12  1  0
 11 38  1  0
 12 13  1  0
 12 29  2  0
 13 14  1  0
 13 39  1  0
 13 40  1  0
 14 15  1  0
 14 19  1  0
 15 16  2  0
 16 17  1  0
 16 21  1  0
 17 18  2  0
 17 41  1  0
 18 19  1  0
 18 42  1  0
 19 20  2  0
 21 22  2  0
 21 28  1  0
 22 23  1  0
 22 43  1  0
 23 24  1  0
 23 25  2  0
 25 26  1  0
 25 44  1  0
 26 27  1  0
 26 28  2  0
 28 45  1  0
 29 46  1  0
M  END
>  <r_exp_dg>  (1) 
-9.13905

>  <mol_id>  (1) 
0

>  <source_index>  (1) 
0

>  <paff>  (1) 
6.7001829399041757

>  <source_r_exp_dg>  (1) 
-9.1390499999999992

>  <smiles>  (1) 
Cc1ccc(-c2cccc(Cn3nc(-c4cc(F)cc(F)c4)ccc3=O)c2)nc1

>  <aimnet_interaction_kcal_mol>  (1) 
-64.879119523958479

$$$$
cmet_001
     RDKit          3D

 42 45  0  0  1  0  0  0  0  0999 V2000
   25.5046   33.9538   51.6704 C   0  0  0  0  0  0  0  0  0  0  0  0
   24.5900   33.4877   52.7335 C   0  0  0  0  0  0  0  0  0  0  0  0
   23.4736   32.8718   52.4485 N   0  0  0  0  0  0  0  0  0  0  0  0
   22.8762   32.6265   53.6946 O   0  0  0  0  0  0  0  0  0  0  0  0
   23.7328   33.1025   54.6246 C   0  0  0  0  0  0  0  0  0  0  0  0
   24.7961   33.6458   54.1002 N   0  0  0  0  0  0  0  0  0  0  0  0
   23.3730   32.9025   56.0137 C   0  0  0  0  0  0  0  0  0  0  0  0
   24.3462   33.0340   56.9976 C   0  0  0  0  0  0  0  0  0  0  0  0
   24.1082   32.5172   58.2574 C   0  0  0  0  0  0  0  0  0  0  0  0
   22.8664   31.9816   58.5670 C   0  0  0  0  0  0  0  0  0  0  0  0
   21.8266   32.0423   57.6468 C   0  0  0  0  0  0  0  0  0  0  0  0
   20.4391   31.6721   58.0614 C   0  0  0  0  0  0  0  0  0  0  0  0
   20.1113   30.2801   57.7618 N   0  0  0  0  0  0  0  0  0  0  0  0
   19.6029   30.1038   56.5482 N   0  0  0  0  0  0  0  0  0  0  0  0
   19.2566   28.8908   56.1872 C   0  0  0  0  0  0  0  0  0  0  0  0
   19.4973   27.7782   57.0476 C   0  0  0  0  0  0  0  0  0  0  0  0
   20.0279   27.9744   58.2800 C   0  0  0  0  0  0  0  0  0  0  0  0
   20.3599   29.2992   58.7235 C   0  0  0  0  0  0  0  0  0  0  0  0
   20.8166   29.6033   59.8399 O   0  0  0  0  0  0  0  0  0  0  0  0
   18.5637   28.7557   54.9037 C   0  0  0  0  0  0  0  0  0  0  0  0
   18.3618   29.8818   54.1079 C   0  0  0  0  0  0  0  0  0  0  0  0
   17.6190   29.7518   52.9546 C   0  0  0  0  0  0  0  0  0  0  0  0
   17.4159   30.8445   52.1681 F   0  0  0  0  0  0  0  0  0  0  0  0
   17.0522   28.5577   52.5558 C   0  0  0  0  0  0  0  0  0  0  0  0
   17.2790   27.4586   53.3614 C   0  0  0  0  0  0  0  0  0  0  0  0
   16.7005   26.2829   53.0187 F   0  0  0  0  0  0  0  0  0  0  0  0
   18.0495   27.5216   54.5050 C   0  0  0  0  0  0  0  0  0  0  0  0
   22.0882   32.4748   56.3561 C   0  0  0  0  0  0  0  0  0  0  0  0
   25.1465   34.8856   51.2379 H   0  0  0  0  0  0  0  0  0  0  0  0
   25.5735   33.2029   50.8872 H   0  0  0  0  0  0  0  0  0  0  0  0
   26.4955   34.1316   52.0700 H   0  0  0  0  0  0  0  0  0  0  0  0
   25.2715   33.5478   56.7835 H   0  0  0  0  0  0  0  0  0  0  0  0
   24.8906   32.5416   58.9979 H   0  0  0  0  0  0  0  0  0  0  0  0
   22.6892   31.5156   59.5247 H   0  0  0  0  0  0  0  0  0  0  0  0
   20.2974   31.8140   59.1268 H   0  0  0  0  0  0  0  0  0  0  0  0
   19.7049   32.2677   57.5294 H   0  0  0  0  0  0  0  0  0  0  0  0
   19.2618   26.7738   56.7281 H   0  0  0  0  0  0  0  0  0  0  0  0
   20.2115   27.1541   58.9572 H   0  0  0  0  0  0  0  0  0  0  0  0
   18.7644   30.8382   54.3999 H   0  0  0  0  0  0  0  0  0  0  0  0
   16.4541   28.4874   51.6611 H   0  0  0  0  0  0  0  0  0  0  0  0
   18.2452   26.6125   55.0460 H   0  0  0  0  0  0  0  0  0  0  0  0
   21.3126   32.4465   55.6016 H   0  0  0  0  0  0  0  0  0  0  0  0
  1  2  1  0
  1 29  1  0
  1 30  1  0
  1 31  1  0
  2  3  2  0
  2  6  1  0
  3  4  1  0
  4  5  1  0
  5  6  2  0
  5  7  1  0
  7  8  2  0
  7 28  1  0
  8  9  1  0
  8 32  1  0
  9 10  2  0
  9 33  1  0
 10 11  1  0
 10 34  1  0
 11 12  1  0
 11 28  2  0
 12 13  1  0
 12 35  1  0
 12 36  1  0
 13 14  1  0
 13 18  1  0
 14 15  2  0
 15 16  1  0
 15 20  1  0
 16 17  2  0
 16 37  1  0
 17 18  1  0
 17 38  1  0
 18 19  2  0
 20 21  2  0
 20 27  1  0
 21 22  1  0
 21 39  1  0
 22 23  1  0
 22 24  2  0
 24 25  1  0
 24 40  1  0
 25 26  1  0
 25 27  2  0
 27 41  1  0
 28 42  1  0
M  END
>  <r_exp_dg>  (2) 
-7.46041

>  <mol_id>  (2) 
1

>  <source_index>  (2) 
1

>  <paff>  (2) 
5.4695109817639116

>  <source_r_exp_dg>  (2) 
-7.4604100000000004

>  <smiles>  (2) 
Cc1noc(-c2cccc(Cn3nc(-c4cc(F)cc(F)c4)ccc3=O)c2)n1

>  <aimnet_interaction_kcal_mol>  (2) 
-55.427406529253119

$$$$
cmet_002
     RDKit          3D

 42 44  0  0  1  0  0  0  0  0999 V2000
   24.8787   33.9617   51.4679 C   0  0  0  0  0  0  0  0  0  0  0  0
   23.8341   33.7243   52.4392 O   0  0  0  0  0  0  0  0  0  0  0  0
   24.1843   33.6896   53.7353 C   0  0  0  0  0  0  0  0  0  0  0  0
   25.2702   34.0236   54.1838 O   0  0  0  0  0  0  0  0  0  0  0  0
   23.1232   33.2522   54.4776 N   0  0  0  0  0  0  0  0  0  0  0  0
   23.0940   32.9378   55.8472 C   0  0  0  0  0  0  0  0  0  0  0  0
   24.1942   33.0733   56.6867 C   0  0  0  0  0  0  0  0  0  0  0  0
   24.1234   32.5780   57.9790 C   0  0  0  0  0  0  0  0  0  0  0  0
   22.9496   32.0280   58.4644 C   0  0  0  0  0  0  0  0  0  0  0  0
   21.8047   32.0312   57.6802 C   0  0  0  0  0  0  0  0  0  0  0  0
   20.4905   31.6321   58.2727 C   0  0  0  0  0  0  0  0  0  0  0  0
   20.1415   30.2506   57.9535 N   0  0  0  0  0  0  0  0  0  0  0  0
   19.6408   30.1036   56.7338 N   0  0  0  0  0  0  0  0  0  0  0  0
   19.3277   28.8962   56.3274 C   0  0  0  0  0  0  0  0  0  0  0  0
   19.5497   27.7624   57.1629 C   0  0  0  0  0  0  0  0  0  0  0  0
   20.0522   27.9315   58.4116 C   0  0  0  0  0  0  0  0  0  0  0  0
   20.3622   29.2478   58.8963 C   0  0  0  0  0  0  0  0  0  0  0  0
   20.7841   29.5313   60.0316 O   0  0  0  0  0  0  0  0  0  0  0  0
   18.7151   28.7935   55.0046 C   0  0  0  0  0  0  0  0  0  0  0  0
   18.6019   29.9405   54.2207 C   0  0  0  0  0  0  0  0  0  0  0  0
   17.9630   29.8458   53.0051 C   0  0  0  0  0  0  0  0  0  0  0  0
   17.8255   30.9599   52.2347 F   0  0  0  0  0  0  0  0  0  0  0  0
   17.4336   28.6646   52.5260 C   0  0  0  0  0  0  0  0  0  0  0  0
   17.5691   27.5467   53.3250 C   0  0  0  0  0  0  0  0  0  0  0  0
   17.0303   26.3843   52.8956 F   0  0  0  0  0  0  0  0  0  0  0  0
   18.2129   27.5784   54.5452 C   0  0  0  0  0  0  0  0  0  0  0  0
   21.8921   32.4309   56.3547 C   0  0  0  0  0  0  0  0  0  0  0  0
   24.4634   34.6378   50.7297 H   0  0  0  0  0  0  0  0  0  0  0  0
   25.1605   33.0162   51.0119 H   0  0  0  0  0  0  0  0  0  0  0  0
   25.7396   34.4026   51.9522 H   0  0  0  0  0  0  0  0  0  0  0  0
   22.2884   33.0479   53.9454 H   0  0  0  0  0  0  0  0  0  0  0  0
   25.0873   33.5783   56.3598 H   0  0  0  0  0  0  0  0  0  0  0  0
   24.9942   32.6398   58.6133 H   0  0  0  0  0  0  0  0  0  0  0  0
   22.9109   31.6062   59.4562 H   0  0  0  0  0  0  0  0  0  0  0  0
   20.4969   31.7184   59.3525 H   0  0  0  0  0  0  0  0  0  0  0  0
   19.6878   32.2503   57.8808 H   0  0  0  0  0  0  0  0  0  0  0  0
   19.3277   26.7660   56.8090 H   0  0  0  0  0  0  0  0  0  0  0  0
   20.2313   27.0914   59.0647 H   0  0  0  0  0  0  0  0  0  0  0  0
   18.9989   30.8784   54.5741 H   0  0  0  0  0  0  0  0  0  0  0  0
   16.9394   28.6165   51.5686 H   0  0  0  0  0  0  0  0  0  0  0  0
   18.3234   26.6606   55.0955 H   0  0  0  0  0  0  0  0  0  0  0  0
   21.0304   32.3127   55.7084 H   0  0  0  0  0  0  0  0  0  0  0  0
  1  2  1  0
  1 28  1  0
  1 29  1  0
  1 30  1  0
  2  3  1  0
  3  4  2  0
  3  5  1  0
  5  6  1  0
  5 31  1  0
  6  7  2  0
  6 27  1  0
  7  8  1  0
  7 32  1  0
  8  9  2  0
  8 33  1  0
  9 10  1  0
  9 34  1  0
 10 11  1  0
 10 27  2  0
 11 12  1  0
 11 35  1  0
 11 36  1  0
 12 13  1  0
 12 17  1  0
 13 14  2  0
 14 15  1  0
 14 19  1  0
 15 16  2  0
 15 37  1  0
 16 17  1  0
 16 38  1  0
 17 18  2  0
 19 20  2  0
 19 26  1  0
 20 21  1  0
 20 39  1  0
 21 22  1  0
 21 23  2  0
 23 24  1  0
 23 40  1  0
 24 25  1  0
 24 26  2  0
 26 41  1  0
 27 42  1  0
M  END
>  <r_exp_dg>  (3) 
-8.89882

>  <mol_id>  (3) 
2

>  <source_index>  (3) 
2

>  <paff>  (3) 
6.5240594298958428

>  <source_r_exp_dg>  (3) 
-8.8988200000000006

>  <smiles>  (3) 
COC(=O)Nc1cccc(Cn2nc(-c3cc(F)cc(F)c3)ccc2=O)c1

>  <aimnet_interaction_kcal_mol>  (3) 
-59.564786522391657

$$$$
cmet_003
     RDKit          3D

 45 47  0  0  1  0  0  0  0  0999 V2000
   24.5914   33.4284   50.1447 C   0  0  0  0  0  0  0  0  0  0  0  0
   24.9490   33.9709   51.4965 C   0  0  0  0  0  0  0  0  0  0  0  0
   23.9317   33.5124   52.4344 O   0  0  0  0  0  0  0  0  0  0  0  0
   24.2212   33.6004   53.7396 C   0  0  0  0  0  0  0  0  0  0  0  0
   25.2714   34.0265   54.2010 O   0  0  0  0  0  0  0  0  0  0  0  0
   23.1522   33.1570   54.4646 N   0  0  0  0  0  0  0  0  0  0  0  0
   23.0960   32.8720   55.8374 C   0  0  0  0  0  0  0  0  0  0  0  0
   24.1853   32.9956   56.6931 C   0  0  0  0  0  0  0  0  0  0  0  0
   24.0901   32.5010   57.9851 C   0  0  0  0  0  0  0  0  0  0  0  0
   22.9007   31.9708   58.4554 C   0  0  0  0  0  0  0  0  0  0  0  0
   21.7668   31.9944   57.6550 C   0  0  0  0  0  0  0  0  0  0  0  0
   20.4388   31.6045   58.2211 C   0  0  0  0  0  0  0  0  0  0  0  0
   20.0949   30.2220   57.9008 N   0  0  0  0  0  0  0  0  0  0  0  0
   19.5962   30.0704   56.6804 N   0  0  0  0  0  0  0  0  0  0  0  0
   19.2767   28.8620   56.2821 C   0  0  0  0  0  0  0  0  0  0  0  0
   19.5208   27.7302   57.1144 C   0  0  0  0  0  0  0  0  0  0  0  0
   20.0334   27.9022   58.3588 C   0  0  0  0  0  0  0  0  0  0  0  0
   20.3348   29.2211   58.8415 C   0  0  0  0  0  0  0  0  0  0  0  0
   20.7638   29.5091   59.9729 O   0  0  0  0  0  0  0  0  0  0  0  0
   18.6284   28.7544   54.9754 C   0  0  0  0  0  0  0  0  0  0  0  0
   18.5140   29.8926   54.1790 C   0  0  0  0  0  0  0  0  0  0  0  0
   17.8124   29.8020   52.9974 C   0  0  0  0  0  0  0  0  0  0  0  0
   17.6845   30.9070   52.2117 F   0  0  0  0  0  0  0  0  0  0  0  0
   17.2138   28.6342   52.5667 C   0  0  0  0  0  0  0  0  0  0  0  0
   17.3609   27.5211   53.3721 C   0  0  0  0  0  0  0  0  0  0  0  0
   16.7526   26.3727   52.9958 F   0  0  0  0  0  0  0  0  0  0  0  0
   18.0828   27.5452   54.5486 C   0  0  0  0  0  0  0  0  0  0  0  0
   21.8770   32.3953   56.3323 C   0  0  0  0  0  0  0  0  0  0  0  0
   25.2944   33.8040   49.4030 H   0  0  0  0  0  0  0  0  0  0  0  0
   23.5889   33.7397   49.8558 H   0  0  0  0  0  0  0  0  0  0  0  0
   24.6367   32.3417   50.1418 H   0  0  0  0  0  0  0  0  0  0  0  0
   25.9146   33.6157   51.8395 H   0  0  0  0  0  0  0  0  0  0  0  0
   24.9506   35.0551   51.5300 H   0  0  0  0  0  0  0  0  0  0  0  0
   22.3329   32.9324   53.9181 H   0  0  0  0  0  0  0  0  0  0  0  0
   25.0868   33.4908   56.3730 H   0  0  0  0  0  0  0  0  0  0  0  0
   24.9520   32.5493   58.6327 H   0  0  0  0  0  0  0  0  0  0  0  0
   22.8400   31.5465   59.4457 H   0  0  0  0  0  0  0  0  0  0  0  0
   20.4230   31.6967   59.3003 H   0  0  0  0  0  0  0  0  0  0  0  0
   19.6461   32.2217   57.8089 H   0  0  0  0  0  0  0  0  0  0  0  0
   19.3080   26.7321   56.7602 H   0  0  0  0  0  0  0  0  0  0  0  0
   20.2273   27.0641   59.0108 H   0  0  0  0  0  0  0  0  0  0  0  0
   18.9588   30.8221   54.4975 H   0  0  0  0  0  0  0  0  0  0  0  0
   16.6579   28.5916   51.6435 H   0  0  0  0  0  0  0  0  0  0  0  0
   18.2186   26.6263   55.0909 H   0  0  0  0  0  0  0  0  0  0  0  0
   21.0198   32.2984   55.6763 H   0  0  0  0  0  0  0  0  0  0  0  0
  1  2  1  0
  1 29  1  0
  1 30  1  0
  1 31  1  0
  2  3  1  0
  2 32  1  0
  2 33  1  0
  3  4  1  0
  4  5  2  0
  4  6  1  0
  6  7  1  0
  6 34  1  0
  7  8  2  0
  7 28  1  0
  8  9  1  0
  8 35  1  0
  9 10  2  0
  9 36  1  0
 10 11  1  0
 10 37  1  0
 11 12  1  0
 11 28  2  0
 12 13  1  0
 12 38  1  0
 12 39  1  0
 13 14  1  0
 13 18  1  0
 14 15  2  0
 15 16  1  0
 15 20  1  0
 16 17  2  0
 16 40  1  0
 17 18  1  0
 17 41  1  0
 18 19  2  0
 20 21  2  0
 20 27  1  0
 21 22  1  0
 21 42  1  0
 22 23  1  0
 22 24  2  0
 24 25  1  0
 24 43  1  0
 25 26  1  0
 25 27  2  0
 27 44  1  0
 28 45  1  0
M  END
>  <r_exp_dg>  (4) 
-9.13905

>  <mol_id>  (4) 
3

>  <source_index>  (4) 
3

>  <paff>  (4) 
6.7001829399041757

>  <source_r_exp_dg>  (4) 
-9.1390499999999992

>  <smiles>  (4) 
CCOC(=O)Nc1cccc(Cn2nc(-c3cc(F)cc(F)c3)ccc2=O)c1

>  <aimnet_interaction_kcal_mol>  (4) 
-61.490724513358117

$$$$
cmet_004
     RDKit          3D

 43 46  0  0  1  0  0  0  0  0999 V2000
   23.8750   33.6134   50.8072 C   0  0  0  0  0  0  0  0  0  0  0  0
   23.9802   33.6770   52.2856 C   0  0  0  0  0  0  0  0  0  0  0  0
   25.0177   34.1152   53.0551 C   0  0  0  0  0  0  0  0  0  0  0  0
   24.8900   33.9600   54.4084 N   0  0  0  0  0  0  0  0  0  0  0  0
   23.7364   33.4172   54.7182 C   0  0  0  0  0  0  0  0  0  0  0  0
   22.7222   33.0872   53.3303 S   0  0  0  0  0  0  0  0  0  0  0  0
   23.3476   33.0364   56.0607 C   0  0  0  0  0  0  0  0  0  0  0  0
   24.3175   33.1036   57.0598 C   0  0  0  0  0  0  0  0  0  0  0  0
   24.0897   32.5011   58.2822 C   0  0  0  0  0  0  0  0  0  0  0  0
   22.8508   31.9473   58.5656 C   0  0  0  0  0  0  0  0  0  0  0  0
   21.8147   32.0540   57.6472 C   0  0  0  0  0  0  0  0  0  0  0  0
   20.4270   31.6794   58.0512 C   0  0  0  0  0  0  0  0  0  0  0  0
   20.1043   30.2874   57.7463 N   0  0  0  0  0  0  0  0  0  0  0  0
   19.6045   30.1147   56.5306 N   0  0  0  0  0  0  0  0  0  0  0  0
   19.2494   28.9048   56.1683 C   0  0  0  0  0  0  0  0  0  0  0  0
   19.4733   27.7897   57.0295 C   0  0  0  0  0  0  0  0  0  0  0  0
   20.0087   27.9808   58.2606 C   0  0  0  0  0  0  0  0  0  0  0  0
   20.3495   29.3031   58.7059 C   0  0  0  0  0  0  0  0  0  0  0  0
   20.8078   29.6007   59.8229 O   0  0  0  0  0  0  0  0  0  0  0  0
   18.5432   28.7848   54.8915 C   0  0  0  0  0  0  0  0  0  0  0  0
   18.2381   29.9346   54.1667 C   0  0  0  0  0  0  0  0  0  0  0  0
   17.3814   29.8300   53.0937 C   0  0  0  0  0  0  0  0  0  0  0  0
   17.0246   30.9617   52.4191 F   0  0  0  0  0  0  0  0  0  0  0  0
   16.8369   28.6302   52.6784 C   0  0  0  0  0  0  0  0  0  0  0  0
   17.2183   27.4983   53.3757 C   0  0  0  0  0  0  0  0  0  0  0  0
   16.6831   26.3093   53.0100 F   0  0  0  0  0  0  0  0  0  0  0  0
   18.0900   27.5424   54.4451 C   0  0  0  0  0  0  0  0  0  0  0  0
   22.0744   32.5430   56.3747 C   0  0  0  0  0  0  0  0  0  0  0  0
   24.2510   32.6598   50.4324 H   0  0  0  0  0  0  0  0  0  0  0  0
   24.4714   34.4084   50.3621 H   0  0  0  0  0  0  0  0  0  0  0  0
   22.8438   33.7223   50.4870 H   0  0  0  0  0  0  0  0  0  0  0  0
   25.9064   34.5679   52.6503 H   0  0  0  0  0  0  0  0  0  0  0  0
   25.2400   33.6338   56.8753 H   0  0  0  0  0  0  0  0  0  0  0  0
   24.8746   32.4748   59.0216 H   0  0  0  0  0  0  0  0  0  0  0  0
   22.6714   31.4406   59.5025 H   0  0  0  0  0  0  0  0  0  0  0  0
   20.2778   31.8163   59.1166 H   0  0  0  0  0  0  0  0  0  0  0  0
   19.6931   32.2737   57.5172 H   0  0  0  0  0  0  0  0  0  0  0  0
   19.2126   26.7894   56.7159 H   0  0  0  0  0  0  0  0  0  0  0  0
   20.1861   27.1601   58.9392 H   0  0  0  0  0  0  0  0  0  0  0  0
   18.6415   30.8907   54.4578 H   0  0  0  0  0  0  0  0  0  0  0  0
   16.1155   28.5793   51.8772 H   0  0  0  0  0  0  0  0  0  0  0  0
   18.3969   26.6177   54.9041 H   0  0  0  0  0  0  0  0  0  0  0  0
   21.2881   32.5186   55.6293 H   0  0  0  0  0  0  0  0  0  0  0  0
  1  2  1  0
  1 29  1  0
  1 30  1  0
  1 31  1  0
  2  3  2  0
  2  6  1  0
  3  4  1  0
  3 32  1  0
  4  5  2  0
  5  6  1  0
  5  7  1  0
  7  8  2  0
  7 28  1  0
  8  9  1  0
  8 33  1  0
  9 10  2  0
  9 34  1  0
 10 11  1  0
 10 35  1  0
 11 12  1  0
 11 28  2  0
 12 13  1  0
 12 36  1  0
 12 37  1  0
 13 14  1  0
 13 18  1  0
 14 15  2  0
 15 16  1  0
 15 20  1  0
 16 17  2  0
 16 38  1  0
 17 18  1  0
 17 39  1  0
 18 19  2  0
 20 21  2  0
 20 27  1  0
 21 22  1  0
 21 40  1  0
 22 23  1  0
 22 24  2  0
 24 25  1  0
 24 41  1  0
 25 26  1  0
 25 27  2  0
 27 42  1  0
 28 43  1  0
M  END
>  <r_exp_dg>  (5) 
-8.72837

>  <mol_id>  (5) 
4

>  <source_index>  (5) 
4

>  <paff>  (5) 
6.3990980299337163

>  <source_r_exp_dg>  (5) 
-8.72837

>  <smiles>  (5) 
Cc1cnc(-c2cccc(Cn3nc(-c4cc(F)cc(F)c4)ccc3=O)c2)s1

>  <aimnet_interaction_kcal_mol>  (5) 
-63.664073390073753

$$$$
cmet_005
     RDKit          3D

 57 59  0  0  1  0  0  0  0  0999 V2000
   21.3428   31.8898   48.8294 C   0  0  0  0  0  0  0  0  0  0  0  0
   22.7227   31.7191   49.3805 N   0  0  0  0  0  0  0  0  0  0  0  0
   23.6332   31.0260   48.4197 C   0  0  0  0  0  0  0  0  0  0  0  0
   23.2860   33.0354   49.8686 C   0  0  0  0  0  0  0  0  0  0  0  0
   24.5967   32.8453   50.6050 C   0  0  0  0  0  0  0  0  0  0  0  0
   24.8549   33.9631   51.5979 C   0  0  0  0  0  0  0  0  0  0  0  0
   23.7943   33.9471   52.5809 O   0  0  0  0  0  0  0  0  0  0  0  0
   24.1640   33.8887   53.8892 C   0  0  0  0  0  0  0  0  0  0  0  0
   25.3042   34.0377   54.2879 O   0  0  0  0  0  0  0  0  0  0  0  0
   23.0685   33.6796   54.6615 N   0  0  0  0  0  0  0  0  0  0  0  0
   23.0323   33.1383   55.9694 C   0  0  0  0  0  0  0  0  0  0  0  0
   24.1301   33.1518   56.8194 C   0  0  0  0  0  0  0  0  0  0  0  0
   24.0289   32.5236   58.0508 C   0  0  0  0  0  0  0  0  0  0  0  0
   22.8337   31.9590   58.4674 C   0  0  0  0  0  0  0  0  0  0  0  0
   21.7059   32.0510   57.6625 C   0  0  0  0  0  0  0  0  0  0  0  0
   20.3702   31.6237   58.1763 C   0  0  0  0  0  0  0  0  0  0  0  0
   20.0664   30.2382   57.8381 N   0  0  0  0  0  0  0  0  0  0  0  0
   19.5756   30.0784   56.6123 N   0  0  0  0  0  0  0  0  0  0  0  0
   19.2496   28.8630   56.2327 C   0  0  0  0  0  0  0  0  0  0  0  0
   19.4912   27.7405   57.0771 C   0  0  0  0  0  0  0  0  0  0  0  0
   20.0148   27.9209   58.3162 C   0  0  0  0  0  0  0  0  0  0  0  0
   20.3287   29.2420   58.7813 C   0  0  0  0  0  0  0  0  0  0  0  0
   20.7857   29.5407   59.8972 O   0  0  0  0  0  0  0  0  0  0  0  0
   18.5889   28.7382   54.9330 C   0  0  0  0  0  0  0  0  0  0  0  0
   18.0528   27.5193   54.5180 C   0  0  0  0  0  0  0  0  0  0  0  0
   17.2981   27.4819   53.3625 C   0  0  0  0  0  0  0  0  0  0  0  0
   16.6943   26.3269   53.0060 F   0  0  0  0  0  0  0  0  0  0  0  0
   17.1148   28.5898   52.5551 C   0  0  0  0  0  0  0  0  0  0  0  0
   17.7194   29.7607   52.9649 C   0  0  0  0  0  0  0  0  0  0  0  0
   17.5830   30.8585   52.1588 F   0  0  0  0  0  0  0  0  0  0  0  0
   18.4417   29.8698   54.1300 C   0  0  0  0  0  0  0  0  0  0  0  0
   21.8306   32.5639   56.3793 C   0  0  0  0  0  0  0  0  0  0  0  0
   20.7312   32.4090   49.5610 H   0  0  0  0  0  0  0  0  0  0  0  0
   20.9319   30.9109   48.6060 H   0  0  0  0  0  0  0  0  0  0  0  0
   21.4095   32.4764   47.9199 H   0  0  0  0  0  0  0  0  0  0  0  0
   24.5973   30.8408   48.8786 H   0  0  0  0  0  0  0  0  0  0  0  0
   23.7582   31.6602   47.5487 H   0  0  0  0  0  0  0  0  0  0  0  0
   23.1829   30.0812   48.1320 H   0  0  0  0  0  0  0  0  0  0  0  0
   23.3884   33.6679   48.9893 H   0  0  0  0  0  0  0  0  0  0  0  0
   22.5313   33.4691   50.5184 H   0  0  0  0  0  0  0  0  0  0  0  0
   24.6056   31.9096   51.1645 H   0  0  0  0  0  0  0  0  0  0  0  0
   25.4314   32.7766   49.9086 H   0  0  0  0  0  0  0  0  0  0  0  0
   25.8071   33.8188   52.0966 H   0  0  0  0  0  0  0  0  0  0  0  0
   24.8522   34.9411   51.1250 H   0  0  0  0  0  0  0  0  0  0  0  0
   22.1828   33.7396   54.1812 H   0  0  0  0  0  0  0  0  0  0  0  0
   25.0435   33.6545   56.5453 H   0  0  0  0  0  0  0  0  0  0  0  0
   24.8910   32.4958   58.6991 H   0  0  0  0  0  0  0  0  0  0  0  0
   22.7592   31.4508   59.4175 H   0  0  0  0  0  0  0  0  0  0  0  0
   20.3212   31.7092   59.2554 H   0  0  0  0  0  0  0  0  0  0  0  0
   19.5780   32.2290   57.7463 H   0  0  0  0  0  0  0  0  0  0  0  0
   19.2669   26.7403   56.7385 H   0  0  0  0  0  0  0  0  0  0  0  0
   20.2060   27.0909   58.9800 H   0  0  0  0  0  0  0  0  0  0  0  0
   18.2140   26.6031   55.0580 H   0  0  0  0  0  0  0  0  0  0  0  0
   16.5256   28.5411   51.6536 H   0  0  0  0  0  0  0  0  0  0  0  0
   18.8747   30.8090   54.4358 H   0  0  0  0  0  0  0  0  0  0  0  0
   20.9928   32.4807   55.6964 H   0  0  0  0  0  0  0  0  0  0  0  0
   22.6473   31.1230   50.2019 H   0  0  0  0  0  0  0  0  0  0  0  0
  1  2  1  0
  1 33  1  0
  1 34  1  0
  1 35  1  0
  2  3  1  0
  2  4  1  0
  2 57  1  0
  3 36  1  0
  3 37  1  0
  3 38  1  0
  4  5  1  0
  4 39  1  0
  4 40  1  0
  5  6  1  0
  5 41  1  0
  5 42  1  0
  6  7  1  0
  6 43  1  0
  6 44  1  0
  7  8  1  0
  8  9  2  0
  8 10  1  0
 10 11  1  0
 10 45  1  0
 11 12  2  0
 11 32  1  0
 12 13  1  0
 12 46  1  0
 13 14  2  0
 13 47  1  0
 14 15  1  0
 14 48  1  0
 15 16  1  0
 15 32  2  0
 16 17  1  0
 16 49  1  0
 16 50  1  0
 17 18  1  0
 17 22  1  0
 18 19  2  0
 19 20  1  0
 19 24  1  0
 20 21  2  0
 20 51  1  0
 21 22  1  0
 21 52  1  0
 22 23  2  0
 24 25  2  0
 24 31  1  0
 25 26  1  0
 25 53  1  0
 26 27  1  0
 26 28  2  0
 28 29  1  0
 28 54  1  0
 29 30  1  0
 29 31  2  0
 31 55  1  0
 32 56  1  0
M  CHG  1   2   1
M  END
>  <r_exp_dg>  (6) 
-10.0637

>  <mol_id>  (6) 
5

>  <source_index>  (6) 
5

>  <paff>  (6) 
7.3780859670331393

>  <source_r_exp_dg>  (6) 
-10.063700000000001

>  <smiles>  (6) 
CN(C)CCCOC(=O)Nc1cccc(Cn2nc(-c3cc(F)cc(F)c3)ccc2=O)c1

>  <aimnet_interaction_kcal_mol>  (6) 
-62.721619752915288

$$$$
cmet_006
     RDKit          3D

 43 46  0  0  1  0  0  0  0  0999 V2000
   25.5432   34.0491   51.7918 C   0  0  0  0  0  0  0  0  0  0  0  0
   24.4621   33.5539   52.6706 C   0  0  0  0  0  0  0  0  0  0  0  0
   24.4751   33.5228   53.9719 N   0  0  0  0  0  0  0  0  0  0  0  0
   23.2951   33.0157   54.4871 C   0  0  0  0  0  0  0  0  0  0  0  0
   22.3686   32.6665   53.5433 C   0  0  0  0  0  0  0  0  0  0  0  0
   22.9794   32.9462   51.9641 S   0  0  0  0  0  0  0  0  0  0  0  0
   23.1296   32.8291   55.9180 C   0  0  0  0  0  0  0  0  0  0  0  0
   24.2209   32.9672   56.7700 C   0  0  0  0  0  0  0  0  0  0  0  0
   24.1475   32.4894   58.0658 C   0  0  0  0  0  0  0  0  0  0  0  0
   22.9520   31.9854   58.5500 C   0  0  0  0  0  0  0  0  0  0  0  0
   21.8047   32.0194   57.7709 C   0  0  0  0  0  0  0  0  0  0  0  0
   20.4874   31.6218   58.3545 C   0  0  0  0  0  0  0  0  0  0  0  0
   20.1352   30.2396   58.0236 N   0  0  0  0  0  0  0  0  0  0  0  0
   19.6533   30.1000   56.7972 N   0  0  0  0  0  0  0  0  0  0  0  0
   19.3608   28.8945   56.3706 C   0  0  0  0  0  0  0  0  0  0  0  0
   19.5835   27.7534   57.1949 C   0  0  0  0  0  0  0  0  0  0  0  0
   20.0646   27.9142   58.4529 C   0  0  0  0  0  0  0  0  0  0  0  0
   20.3529   29.2286   58.9570 C   0  0  0  0  0  0  0  0  0  0  0  0
   20.7571   29.5027   60.1021 O   0  0  0  0  0  0  0  0  0  0  0  0
   18.7710   28.8004   55.0378 C   0  0  0  0  0  0  0  0  0  0  0  0
   18.6722   29.9528   54.2591 C   0  0  0  0  0  0  0  0  0  0  0  0
   18.0439   29.8661   53.0369 C   0  0  0  0  0  0  0  0  0  0  0  0
   17.9104   30.9867   52.2736 F   0  0  0  0  0  0  0  0  0  0  0  0
   17.5214   28.6879   52.5437 C   0  0  0  0  0  0  0  0  0  0  0  0
   17.6478   27.5643   53.3360 C   0  0  0  0  0  0  0  0  0  0  0  0
   17.1192   26.4045   52.8896 F   0  0  0  0  0  0  0  0  0  0  0  0
   18.2717   27.5891   54.5668 C   0  0  0  0  0  0  0  0  0  0  0  0
   21.9025   32.4194   56.4485 C   0  0  0  0  0  0  0  0  0  0  0  0
   25.2038   34.8992   51.2057 H   0  0  0  0  0  0  0  0  0  0  0  0
   25.8758   33.2697   51.1116 H   0  0  0  0  0  0  0  0  0  0  0  0
   26.3940   34.3730   52.3798 H   0  0  0  0  0  0  0  0  0  0  0  0
   21.3840   32.2616   53.6884 H   0  0  0  0  0  0  0  0  0  0  0  0
   25.1168   33.4663   56.4271 H   0  0  0  0  0  0  0  0  0  0  0  0
   25.0148   32.5210   58.7074 H   0  0  0  0  0  0  0  0  0  0  0  0
   22.8976   31.5667   59.5410 H   0  0  0  0  0  0  0  0  0  0  0  0
   20.4869   31.6999   59.4353 H   0  0  0  0  0  0  0  0  0  0  0  0
   19.6862   32.2409   57.9605 H   0  0  0  0  0  0  0  0  0  0  0  0
   19.3820   26.7587   56.8239 H   0  0  0  0  0  0  0  0  0  0  0  0
   20.2450   27.0672   59.0969 H   0  0  0  0  0  0  0  0  0  0  0  0
   19.0736   30.8850   54.6238 H   0  0  0  0  0  0  0  0  0  0  0  0
   17.0382   28.6452   51.5803 H   0  0  0  0  0  0  0  0  0  0  0  0
   18.3677   26.6695   55.1169 H   0  0  0  0  0  0  0  0  0  0  0  0
   21.0251   32.3658   55.8182 H   0  0  0  0  0  0  0  0  0  0  0  0
  1  2  1  0
  1 29  1  0
  1 30  1  0
  1 31  1  0
  2  3  2  0
  2  6  1  0
  3  4  1  0
  4  5  2  0
  4  7  1  0
  5  6  1  0
  5 32  1  0
  7  8  2  0
  7 28  1  0
  8  9  1  0
  8 33  1  0
  9 10  2  0
  9 34  1  0
 10 11  1  0
 10 35  1  0
 11 12  1  0
 11 28  2  0
 12 13  1  0
 12 36  1  0
 12 37  1  0
 13 14  1  0
 13 18  1  0
 14 15  2  0
 15 16  1  0
 15 20  1  0
 16 17  2  0
 16 38  1  0
 17 18  1  0
 17 39  1  0
 18 19  2  0
 20 21  2  0
 20 27  1  0
 21 22  1  0
 21 40  1  0
 22 23  1  0
 22 24  2  0
 24 25  1  0
 24 41  1  0
 25 26  1  0
 25 27  2  0
 27 42  1  0
 28 43  1  0
M  END
>  <r_exp_dg>  (7) 
-6.17032

>  <mol_id>  (7) 
6

>  <source_index>  (7) 
6

>  <paff>  (7) 
4.5236974867208257

>  <source_r_exp_dg>  (7) 
-6.1703200000000002

>  <smiles>  (7) 
Cc1nc(-c2cccc(Cn3nc(-c4cc(F)cc(F)c4)ccc3=O)c2)cs1

>  <aimnet_interaction_kcal_mol>  (7) 
-60.12042462129849

$$$$
cmet_007
     RDKit          3D

 45 48  0  0  1  0  0  0  0  0999 V2000
   24.7725   33.8866   50.8869 C   0  0  0  0  0  0  0  0  0  0  0  0
   24.2352   33.6751   52.2568 C   0  0  0  0  0  0  0  0  0  0  0  0
   22.8977   33.3588   52.4892 C   0  0  0  0  0  0  0  0  0  0  0  0
   22.5035   33.1049   53.7772 C   0  0  0  0  0  0  0  0  0  0  0  0
   23.4665   33.1823   54.7818 C   0  0  0  0  0  0  0  0  0  0  0  0
   24.7275   33.5401   54.5078 N   0  0  0  0  0  0  0  0  0  0  0  0
   25.0995   33.8025   53.2664 N   0  0  0  0  0  0  0  0  0  0  0  0
   23.1786   32.8755   56.1783 C   0  0  0  0  0  0  0  0  0  0  0  0
   24.1965   32.9730   57.1282 C   0  0  0  0  0  0  0  0  0  0  0  0
   24.0139   32.4479   58.3937 C   0  0  0  0  0  0  0  0  0  0  0  0
   22.7834   31.9224   58.7529 C   0  0  0  0  0  0  0  0  0  0  0  0
   21.7092   31.9850   57.8806 C   0  0  0  0  0  0  0  0  0  0  0  0
   20.3470   31.5844   58.3449 C   0  0  0  0  0  0  0  0  0  0  0  0
   20.0412   30.1979   57.9912 N   0  0  0  0  0  0  0  0  0  0  0  0
   19.5969   30.0565   56.7513 N   0  0  0  0  0  0  0  0  0  0  0  0
   19.3117   28.8499   56.3226 C   0  0  0  0  0  0  0  0  0  0  0  0
   19.5515   27.7092   57.1418 C   0  0  0  0  0  0  0  0  0  0  0  0
   20.0341   27.8690   58.4003 C   0  0  0  0  0  0  0  0  0  0  0  0
   20.2943   29.1845   58.9142 C   0  0  0  0  0  0  0  0  0  0  0  0
   20.7019   29.4631   60.0571 O   0  0  0  0  0  0  0  0  0  0  0  0
   18.7120   28.7628   54.9931 C   0  0  0  0  0  0  0  0  0  0  0  0
   18.1835   27.5630   54.5241 C   0  0  0  0  0  0  0  0  0  0  0  0
   17.5399   27.5578   53.3036 C   0  0  0  0  0  0  0  0  0  0  0  0
   16.9709   26.4127   52.8652 F   0  0  0  0  0  0  0  0  0  0  0  0
   17.4327   28.6853   52.5136 C   0  0  0  0  0  0  0  0  0  0  0  0
   17.9922   29.8498   53.0010 C   0  0  0  0  0  0  0  0  0  0  0  0
   17.8803   30.9743   52.2399 F   0  0  0  0  0  0  0  0  0  0  0  0
   18.6337   29.9178   54.2163 C   0  0  0  0  0  0  0  0  0  0  0  0
   21.9207   32.4077   56.5767 C   0  0  0  0  0  0  0  0  0  0  0  0
   25.2201   34.8728   50.8068 H   0  0  0  0  0  0  0  0  0  0  0  0
   23.9875   33.8041   50.1410 H   0  0  0  0  0  0  0  0  0  0  0  0
   25.5467   33.1527   50.6646 H   0  0  0  0  0  0  0  0  0  0  0  0
   22.1898   33.3194   51.6748 H   0  0  0  0  0  0  0  0  0  0  0  0
   21.4716   32.8671   53.9777 H   0  0  0  0  0  0  0  0  0  0  0  0
   25.1290   33.4659   56.8844 H   0  0  0  0  0  0  0  0  0  0  0  0
   24.8269   32.4622   59.1022 H   0  0  0  0  0  0  0  0  0  0  0  0
   22.6383   31.4591   59.7149 H   0  0  0  0  0  0  0  0  0  0  0  0
   20.2517   31.6667   59.4214 H   0  0  0  0  0  0  0  0  0  0  0  0
   19.5762   32.1917   57.8798 H   0  0  0  0  0  0  0  0  0  0  0  0
   19.3641   26.7142   56.7646 H   0  0  0  0  0  0  0  0  0  0  0  0
   20.2356   27.0207   59.0373 H   0  0  0  0  0  0  0  0  0  0  0  0
   18.2744   26.6389   55.0677 H   0  0  0  0  0  0  0  0  0  0  0  0
   16.9371   28.6560   51.5560 H   0  0  0  0  0  0  0  0  0  0  0  0
   19.0625   30.8385   54.5804 H   0  0  0  0  0  0  0  0  0  0  0  0
   21.1002   32.3164   55.8774 H   0  0  0  0  0  0  0  0  0  0  0  0
  1  2  1  0
  1 30  1  0
  1 31  1  0
  1 32  1  0
  2  3  2  0
  2  7  1  0
  3  4  1  0
  3 33  1  0
  4  5  2  0
  4 34  1  0
  5  6  1  0
  5  8  1  0
  6  7  2  0
  8  9  2  0
  8 29  1  0
  9 10  1  0
  9 35  1  0
 10 11  2  0
 10 36  1  0
 11 12  1  0
 11 37  1  0
 12 13  1  0
 12 29  2  0
 13 14  1  0
 13 38  1  0
 13 39  1  0
 14 15  1  0
 14 19  1  0
 15 16  2  0
 16 17  1  0
 16 21  1  0
 17 18  2  0
 17 40  1  0
 18 19  1  0
 18 41  1  0
 19 20  2  0
 21 22  2  0
 21 28  1  0
 22 23  1  0
 22 42  1  0
 23 24  1  0
 23 25  2  0
 25 26  1  0
 25 43  1  0
 26 27  1  0
 26 28  2  0
 28 44  1  0
 29 45  1  0
M  END
>  <r_exp_dg>  (8) 
-7.33522

>  <mol_id>  (8) 
7

>  <source_index>  (8) 
7

>  <paff>  (8) 
5.3777240238581232

>  <source_r_exp_dg>  (8) 
-7.3352199999999996

>  <smiles>  (8) 
Cc1ccc(-c2cccc(Cn3nc(-c4cc(F)cc(F)c4)ccc3=O)c2)nn1

>  <aimnet_interaction_kcal_mol>  (8) 
-64.255323032103107

$$$$
cmet_008
     RDKit          3D

 43 46  0  0  1  0  0  0  0  0999 V2000
   23.2253   32.8948   51.2585 C   0  0  0  0  0  0  0  0  0  0  0  0
   23.7607   33.2707   52.5736 C   0  0  0  0  0  0  0  0  0  0  0  0
   23.0862   32.8359   53.6989 O   0  0  0  0  0  0  0  0  0  0  0  0
   23.8396   33.2823   54.7577 C   0  0  0  0  0  0  0  0  0  0  0  0
   24.9029   33.9387   54.3847 N   0  0  0  0  0  0  0  0  0  0  0  0
   24.8498   33.9576   52.9982 C   0  0  0  0  0  0  0  0  0  0  0  0
   23.4129   32.9418   56.0917 C   0  0  0  0  0  0  0  0  0  0  0  0
   24.3465   33.0191   57.1230 C   0  0  0  0  0  0  0  0  0  0  0  0
   24.0604   32.4597   58.3528 C   0  0  0  0  0  0  0  0  0  0  0  0
   22.8056   31.9218   58.5954 C   0  0  0  0  0  0  0  0  0  0  0  0
   21.8077   32.0155   57.6331 C   0  0  0  0  0  0  0  0  0  0  0  0
   20.4041   31.6527   57.9925 C   0  0  0  0  0  0  0  0  0  0  0  0
   20.0843   30.2570   57.7015 N   0  0  0  0  0  0  0  0  0  0  0  0
   19.5799   30.0717   56.4893 N   0  0  0  0  0  0  0  0  0  0  0  0
   19.2326   28.8572   56.1352 C   0  0  0  0  0  0  0  0  0  0  0  0
   19.4723   27.7502   57.0022 C   0  0  0  0  0  0  0  0  0  0  0  0
   20.0015   27.9548   58.2337 C   0  0  0  0  0  0  0  0  0  0  0  0
   20.3309   29.2825   58.6712 C   0  0  0  0  0  0  0  0  0  0  0  0
   20.7819   29.5911   59.7882 O   0  0  0  0  0  0  0  0  0  0  0  0
   18.5352   28.7205   54.8542 C   0  0  0  0  0  0  0  0  0  0  0  0
   18.0107   27.4894   54.4599 C   0  0  0  0  0  0  0  0  0  0  0  0
   17.2246   27.4323   53.3267 C   0  0  0  0  0  0  0  0  0  0  0  0
   16.6391   26.2584   52.9885 F   0  0  0  0  0  0  0  0  0  0  0  0
   16.9886   28.5344   52.5274 C   0  0  0  0  0  0  0  0  0  0  0  0
   17.5701   29.7238   52.9188 C   0  0  0  0  0  0  0  0  0  0  0  0
   17.3613   30.8200   52.1365 F   0  0  0  0  0  0  0  0  0  0  0  0
   18.3325   29.8477   54.0595 C   0  0  0  0  0  0  0  0  0  0  0  0
   22.1205   32.4812   56.3643 C   0  0  0  0  0  0  0  0  0  0  0  0
   23.2081   31.8116   51.1408 H   0  0  0  0  0  0  0  0  0  0  0  0
   23.8481   33.3129   50.4712 H   0  0  0  0  0  0  0  0  0  0  0  0
   22.2071   33.2571   51.1345 H   0  0  0  0  0  0  0  0  0  0  0  0
   25.5824   34.4567   52.3898 H   0  0  0  0  0  0  0  0  0  0  0  0
   25.2829   33.5297   56.9591 H   0  0  0  0  0  0  0  0  0  0  0  0
   24.8122   32.4571   59.1250 H   0  0  0  0  0  0  0  0  0  0  0  0
   22.5839   31.4355   59.5341 H   0  0  0  0  0  0  0  0  0  0  0  0
   20.2154   31.8093   59.0490 H   0  0  0  0  0  0  0  0  0  0  0  0
   19.6946   32.2398   57.4198 H   0  0  0  0  0  0  0  0  0  0  0  0
   19.2366   26.7441   56.6884 H   0  0  0  0  0  0  0  0  0  0  0  0
   20.1865   27.1402   58.9176 H   0  0  0  0  0  0  0  0  0  0  0  0
   18.2093   26.5785   54.9972 H   0  0  0  0  0  0  0  0  0  0  0  0
   16.3700   28.4702   51.6461 H   0  0  0  0  0  0  0  0  0  0  0  0
   18.7499   30.7997   54.3451 H   0  0  0  0  0  0  0  0  0  0  0  0
   21.3771   32.4666   55.5773 H   0  0  0  0  0  0  0  0  0  0  0  0
  1  2  1  0
  1 29  1  0
  1 30  1  0
  1 31  1  0
  2  3  1  0
  2  6  2  0
  3  4  1  0
  4  5  2  0
  4  7  1  0
  5  6  1  0
  6 32  1  0
  7  8  2  0
  7 28  1  0
  8  9  1  0
  8 33  1  0
  9 10  2  0
  9 34  1  0
 10 11  1  0
 10 35  1  0
 11 12  1  0
 11 28  2  0
 12 13  1  0
 12 36  1  0
 12 37  1  0
 13 14  1  0
 13 18  1  0
 14 15  2  0
 15 16  1  0
 15 20  1  0
 16 17  2  0
 16 38  1  0
 17 18  1  0
 17 39  1  0
 18 19  2  0
 20 21  2  0
 20 27  1  0
 21 22  1  0
 21 40  1  0
 22 23  1  0
 22 24  2  0
 24 25  1  0
 24 41  1  0
 25 26  1  0
 25 27  2  0
 27 42  1  0
 28 43  1  0
M  END
>  <r_exp_dg>  (9) 
-8.59616

>  <mol_id>  (9) 
8

>  <source_index>  (9) 
8

>  <paff>  (9) 
6.3021707394955087

>  <source_r_exp_dg>  (9) 
-8.5961599999999994

>  <smiles>  (9) 
Cc1cnc(-c2cccc(Cn3nc(-c4cc(F)cc(F)c4)ccc3=O)c2)o1

>  <aimnet_interaction_kcal_mol>  (9) 
-60.578034611309988

$$$$
cmet_009
     RDKit          3D

 62 65  0  0  1  0  0  0  0  0999 V2000
   18.8645   30.8025   51.9170 F   0  0  0  0  0  0  0  0  0  0  0  0
   18.6722   29.7602   52.7866 C   0  0  0  0  0  0  0  0  0  0  0  0
   18.0008   28.6499   52.3204 C   0  0  0  0  0  0  0  0  0  0  0  0
   17.8564   27.5945   53.2007 C   0  0  0  0  0  0  0  0  0  0  0  0
   17.2203   26.4894   52.7715 F   0  0  0  0  0  0  0  0  0  0  0  0
   18.3381   27.6310   54.4928 C   0  0  0  0  0  0  0  0  0  0  0  0
   18.9749   28.7864   54.9371 C   0  0  0  0  0  0  0  0  0  0  0  0
   19.1555   29.8634   54.0683 C   0  0  0  0  0  0  0  0  0  0  0  0
   19.4307   28.9034   56.3224 C   0  0  0  0  0  0  0  0  0  0  0  0
   19.6858   30.1195   56.7497 N   0  0  0  0  0  0  0  0  0  0  0  0
   20.1217   30.2641   57.9971 N   0  0  0  0  0  0  0  0  0  0  0  0
   20.4147   31.6482   58.3565 C   0  0  0  0  0  0  0  0  0  0  0  0
   21.7249   32.0991   57.7992 C   0  0  0  0  0  0  0  0  0  0  0  0
   22.8825   31.9785   58.5548 C   0  0  0  0  0  0  0  0  0  0  0  0
   24.0705   32.5285   58.1015 C   0  0  0  0  0  0  0  0  0  0  0  0
   24.1358   33.1638   56.8724 C   0  0  0  0  0  0  0  0  0  0  0  0
   23.0058   33.1781   56.0658 C   0  0  0  0  0  0  0  0  0  0  0  0
   23.0089   33.7149   54.7562 N   0  0  0  0  0  0  0  0  0  0  0  0
   24.0790   33.8622   53.9349 C   0  0  0  0  0  0  0  0  0  0  0  0
   25.2412   33.9441   54.2830 O   0  0  0  0  0  0  0  0  0  0  0  0
   23.6573   33.9430   52.6428 O   0  0  0  0  0  0  0  0  0  0  0  0
   24.6723   33.8091   51.6234 C   0  0  0  0  0  0  0  0  0  0  0  0
   24.2701   32.6830   50.6888 C   0  0  0  0  0  0  0  0  0  0  0  0
   23.0584   33.0694   49.8693 C   0  0  0  0  0  0  0  0  0  0  0  0
   22.3017   31.8816   49.3434 N   0  0  0  0  0  0  0  0  0  0  0  0
   23.1221   30.9683   48.4738 C   0  0  0  0  0  0  0  0  0  0  0  0
   22.2649   29.8359   47.9451 C   0  0  0  0  0  0  0  0  0  0  0  0
   21.1353   30.3185   47.2406 O   0  0  0  0  0  0  0  0  0  0  0  0
   20.3145   31.1010   48.0914 C   0  0  0  0  0  0  0  0  0  0  0  0
   21.0591   32.3077   48.6044 C   0  0  0  0  0  0  0  0  0  0  0  0
   21.8046   32.6411   56.5250 C   0  0  0  0  0  0  0  0  0  0  0  0
   20.3520   29.2536   58.9321 C   0  0  0  0  0  0  0  0  0  0  0  0
   20.7773   29.5370   60.0653 O   0  0  0  0  0  0  0  0  0  0  0  0
   20.0523   27.9389   58.4398 C   0  0  0  0  0  0  0  0  0  0  0  0
   19.5930   27.7727   57.1732 C   0  0  0  0  0  0  0  0  0  0  0  0
   17.6274   28.5920   51.3109 H   0  0  0  0  0  0  0  0  0  0  0  0
   18.2304   26.7596   55.1140 H   0  0  0  0  0  0  0  0  0  0  0  0
   19.6596   30.7545   54.4027 H   0  0  0  0  0  0  0  0  0  0  0  0
   20.4049   31.7070   59.4380 H   0  0  0  0  0  0  0  0  0  0  0  0
   19.5999   32.2536   57.9699 H   0  0  0  0  0  0  0  0  0  0  0  0
   22.8367   31.4595   59.4995 H   0  0  0  0  0  0  0  0  0  0  0  0
   24.9535   32.4851   58.7193 H   0  0  0  0  0  0  0  0  0  0  0  0
   25.0470   33.6528   56.5672 H   0  0  0  0  0  0  0  0  0  0  0  0
   22.1074   33.8096   54.3137 H   0  0  0  0  0  0  0  0  0  0  0  0
   25.6215   33.5885   52.0961 H   0  0  0  0  0  0  0  0  0  0  0  0
   24.7444   34.7623   51.1066 H   0  0  0  0  0  0  0  0  0  0  0  0
   24.0768   31.8017   51.3027 H   0  0  0  0  0  0  0  0  0  0  0  0
   25.1078   32.4284   50.0447 H   0  0  0  0  0  0  0  0  0  0  0  0
   23.3321   33.6605   48.9985 H   0  0  0  0  0  0  0  0  0  0  0  0
   22.3435   33.6368   50.4590 H   0  0  0  0  0  0  0  0  0  0  0  0
   23.9633   30.5917   49.0461 H   0  0  0  0  0  0  0  0  0  0  0  0
   23.4975   31.5781   47.6574 H   0  0  0  0  0  0  0  0  0  0  0  0
   21.9596   29.1764   48.7665 H   0  0  0  0  0  0  0  0  0  0  0  0
   22.8590   29.2482   47.2501 H   0  0  0  0  0  0  0  0  0  0  0  0
   19.9280   30.5033   48.9263 H   0  0  0  0  0  0  0  0  0  0  0  0
   19.4663   31.4333   47.5002 H   0  0  0  0  0  0  0  0  0  0  0  0
   20.4628   32.9109   49.2883 H   0  0  0  0  0  0  0  0  0  0  0  0
   21.3997   32.9255   47.7792 H   0  0  0  0  0  0  0  0  0  0  0  0
   20.9296   32.6118   55.8856 H   0  0  0  0  0  0  0  0  0  0  0  0
   20.2086   27.0975   59.0972 H   0  0  0  0  0  0  0  0  0  0  0  0
   19.3765   26.7779   56.8118 H   0  0  0  0  0  0  0  0  0  0  0  0
   21.9924   31.3489   50.1579 H   0  0  0  0  0  0  0  0  0  0  0  0
  1  2  1  0
  2  3  2  0
  2  8  1  0
  3  4  1  0
  3 36  1  0
  4  5  1  0
  4  6  2  0
  6  7  1  0
  6 37  1  0
  7  8  2  0
  7  9  1  0
  8 38  1  0
  9 10  2  0
  9 35  1  0
 10 11  1  0
 11 12  1  0
 11 32  1  0
 12 13  1  0
 12 39  1  0
 12 40  1  0
 13 14  2  0
 13 31  1  0
 14 15  1  0
 14 41  1  0
 15 16  2  0
 15 42  1  0
 16 17  1  0
 16 43  1  0
 17 18  1  0
 17 31  2  0
 18 19  1  0
 18 44  1  0
 19 20  2  0
 19 21  1  0
 21 22  1  0
 22 23  1  0
 22 45  1  0
 22 46  1  0
 23 24  1  0
 23 47  1  0
 23 48  1  0
 24 25  1  0
 24 49  1  0
 24 50  1  0
 25 26  1  0
 25 30  1  0
 25 62  1  0
 26 27  1  0
 26 51  1  0
 26 52  1  0
 27 28  1  0
 27 53  1  0
 27 54  1  0
 28 29  1  0
 29 30  1  0
 29 55  1  0
 29 56  1  0
 30 57  1  0
 30 58  1  0
 31 59  1  0
 32 33  2  0
 32 34  1  0
 34 35  2  0
 34 60  1  0
 35 61  1  0
M  CHG  1  25   1
M  END
>  <r_exp_dg>  (10) 
-10.8575

>  <mol_id>  (10) 
9

>  <source_index>  (10) 
9

>  <paff>  (10) 
7.9600482392520844

>  <source_r_exp_dg>  (10) 
-10.8575

>  <smiles>  (10) 
O=C(Nc1cccc(Cn2nc(-c3cc(F)cc(F)c3)ccc2=O)c1)OCCCN1CCOCC1

>  <aimnet_interaction_kcal_mol>  (10) 
-61.006844574749138

$$$$
cmet_010
     RDKit          3D

 57 59  0  0  1  0  0  0  0  0999 V2000
   21.2476   31.9744   48.6845 C   0  0  0  0  0  0  0  0  0  0  0  0
   22.5522   31.6965   49.3656 N   0  0  0  0  0  0  0  0  0  0  0  0
   23.4923   30.9452   48.4820 C   0  0  0  0  0  0  0  0  0  0  0  0
   23.1548   32.9683   49.9135 C   0  0  0  0  0  0  0  0  0  0  0  0
   24.4236   32.7188   50.6970 C   0  0  0  0  0  0  0  0  0  0  0  0
   24.7432   33.8780   51.6211 C   0  0  0  0  0  0  0  0  0  0  0  0
   23.7052   33.9699   52.6214 O   0  0  0  0  0  0  0  0  0  0  0  0
   24.0960   33.8669   53.9184 C   0  0  0  0  0  0  0  0  0  0  0  0
   25.2483   33.9476   54.3003 O   0  0  0  0  0  0  0  0  0  0  0  0
   23.0058   33.7006   54.7090 N   0  0  0  0  0  0  0  0  0  0  0  0
   22.9743   33.1388   56.0078 C   0  0  0  0  0  0  0  0  0  0  0  0
   24.0853   33.1226   56.8423 C   0  0  0  0  0  0  0  0  0  0  0  0
   23.9935   32.4690   58.0613 C   0  0  0  0  0  0  0  0  0  0  0  0
   22.7987   31.9032   58.4769 C   0  0  0  0  0  0  0  0  0  0  0  0
   21.6613   32.0157   57.6899 C   0  0  0  0  0  0  0  0  0  0  0  0
   20.3410   31.5419   58.1988 C   0  0  0  0  0  0  0  0  0  0  0  0
   20.0773   30.1576   57.8055 N   0  0  0  0  0  0  0  0  0  0  0  0
   19.9517   30.0670   56.4516 N   0  0  0  0  0  0  0  0  0  0  0  0
   19.4993   28.9860   55.9244 C   0  0  0  0  0  0  0  0  0  0  0  0
   19.1316   27.7584   56.6871 C   0  0  0  0  0  0  0  0  0  0  0  0
   20.2345   27.4835   58.1059 S   0  0  0  0  0  0  0  0  0  0  0  0
   20.3476   29.1629   58.7023 C   0  0  0  0  0  0  0  0  0  0  0  0
   20.6714   29.3977   59.8581 O   0  0  0  0  0  0  0  0  0  0  0  0
   19.3249   29.0088   54.4687 C   0  0  0  0  0  0  0  0  0  0  0  0
   20.0975   29.9022   53.7206 C   0  0  0  0  0  0  0  0  0  0  0  0
   19.9212   29.9464   52.3614 C   0  0  0  0  0  0  0  0  0  0  0  0
   20.7387   30.7643   51.6054 F   0  0  0  0  0  0  0  0  0  0  0  0
   18.9573   29.2147   51.7033 C   0  0  0  0  0  0  0  0  0  0  0  0
   18.1958   28.3498   52.4703 C   0  0  0  0  0  0  0  0  0  0  0  0
   17.2431   27.6316   51.8531 F   0  0  0  0  0  0  0  0  0  0  0  0
   18.3835   28.1948   53.8309 C   0  0  0  0  0  0  0  0  0  0  0  0
   21.7687   32.5852   56.4285 C   0  0  0  0  0  0  0  0  0  0  0  0
   20.6004   32.5065   49.3743 H   0  0  0  0  0  0  0  0  0  0  0  0
   20.7954   31.0323   48.3941 H   0  0  0  0  0  0  0  0  0  0  0  0
   21.4435   32.5786   47.8064 H   0  0  0  0  0  0  0  0  0  0  0  0
   22.9953   30.0482   48.1272 H   0  0  0  0  0  0  0  0  0  0  0  0
   24.3824   30.6658   49.0315 H   0  0  0  0  0  0  0  0  0  0  0  0
   23.7659   31.5798   47.6460 H   0  0  0  0  0  0  0  0  0  0  0  0
   23.3301   33.6190   49.0597 H   0  0  0  0  0  0  0  0  0  0  0  0
   22.3926   33.4223   50.5389 H   0  0  0  0  0  0  0  0  0  0  0  0
   24.3367   31.8227   51.3112 H   0  0  0  0  0  0  0  0  0  0  0  0
   25.2693   32.5506   50.0336 H   0  0  0  0  0  0  0  0  0  0  0  0
   25.6958   33.7186   52.1123 H   0  0  0  0  0  0  0  0  0  0  0  0
   24.7695   34.8261   51.0917 H   0  0  0  0  0  0  0  0  0  0  0  0
   22.1169   33.7985   54.2421 H   0  0  0  0  0  0  0  0  0  0  0  0
   24.9981   33.6244   56.5650 H   0  0  0  0  0  0  0  0  0  0  0  0
   24.8622   32.4259   58.6998 H   0  0  0  0  0  0  0  0  0  0  0  0
   22.7347   31.3812   59.4202 H   0  0  0  0  0  0  0  0  0  0  0  0
   20.2876   31.5928   59.2789 H   0  0  0  0  0  0  0  0  0  0  0  0
   19.5311   32.1436   57.7927 H   0  0  0  0  0  0  0  0  0  0  0  0
   19.2259   26.8703   56.0647 H   0  0  0  0  0  0  0  0  0  0  0  0
   18.0978   27.8138   57.0383 H   0  0  0  0  0  0  0  0  0  0  0  0
   20.8052   30.5379   54.2274 H   0  0  0  0  0  0  0  0  0  0  0  0
   18.8153   29.2700   50.6357 H   0  0  0  0  0  0  0  0  0  0  0  0
   17.8080   27.4509   54.3619 H   0  0  0  0  0  0  0  0  0  0  0  0
   20.9074   32.5770   55.7748 H   0  0  0  0  0  0  0  0  0  0  0  0
   22.3367   31.1049   50.1697 H   0  0  0  0  0  0  0  0  0  0  0  0
  1  2  1  0
  1 33  1  0
  1 34  1  0
  1 35  1  0
  2  3  1  0
  2  4  1  0
  2 57  1  0
  3 36  1  0
  3 37  1  0
  3 38  1  0
  4  5  1  0
  4 39  1  0
  4 40  1  0
  5  6  1  0
  5 41  1  0
  5 42  1  0
  6  7  1  0
  6 43  1  0
  6 44  1  0
  7  8  1  0
  8  9  2  0
  8 10  1  0
 10 11  1  0
 10 45  1  0
 11 12  2  0
 11 32  1  0
 12 13  1  0
 12 46  1  0
 13 14  2  0
 13 47  1  0
 14 15  1  0
 14 48  1  0
 15 16  1  0
 15 32  2  0
 16 17  1  0
 16 49  1  0
 16 50  1  0
 17 18  1  0
 17 22  1  0
 18 19  2  0
 19 20  1  0
 19 24  1  0
 20 21  1  0
 20 51  1  0
 20 52  1  0
 21 22  1  0
 22 23  2  0
 24 25  2  0
 24 31  1  0
 25 26  1  0
 25 53  1  0
 26 27  1  0
 26 28  2  0
 28 29  1  0
 28 54  1  0
 29 30  1  0
 29 31  2  0
 31 55  1  0
 32 56  1  0
M  CHG  1   2   1
M  END
>  <r_exp_dg>  (11) 
-10.4205

>  <mol_id>  (11) 
10

>  <source_index>  (11) 
10

>  <paff>  (11) 
7.6396549202479918

>  <source_r_exp_dg>  (11) 
-10.420500000000001

>  <smiles>  (11) 
CN(C)CCCOC(=O)Nc1cccc(CN2N=C(c3cc(F)cc(F)c3)CSC2=O)c1

>  <aimnet_interaction_kcal_mol>  (11) 
-61.148860540584522

$$$$
cmet_011
     RDKit          3D

 45 48  0  0  1  0  0  0  0  0999 V2000
   24.4090   34.2211   50.5919 C   0  0  0  0  0  0  0  0  0  0  0  0
   24.1289   33.9196   52.0224 C   0  0  0  0  0  0  0  0  0  0  0  0
   25.0734   34.1258   53.0185 C   0  0  0  0  0  0  0  0  0  0  0  0
   24.8604   33.8170   54.2988 N   0  0  0  0  0  0  0  0  0  0  0  0
   23.6416   33.3319   54.5993 C   0  0  0  0  0  0  0  0  0  0  0  0
   22.6532   33.1275   53.7233 N   0  0  0  0  0  0  0  0  0  0  0  0
   22.9057   33.4166   52.4481 C   0  0  0  0  0  0  0  0  0  0  0  0
   23.3598   32.9798   55.9909 C   0  0  0  0  0  0  0  0  0  0  0  0
   24.3628   33.0293   56.9546 C   0  0  0  0  0  0  0  0  0  0  0  0
   24.1529   32.4459   58.1930 C   0  0  0  0  0  0  0  0  0  0  0  0
   22.9096   31.9293   58.5196 C   0  0  0  0  0  0  0  0  0  0  0  0
   21.8468   32.0384   57.6312 C   0  0  0  0  0  0  0  0  0  0  0  0
   20.4663   31.6705   58.0707 C   0  0  0  0  0  0  0  0  0  0  0  0
   20.1312   30.2788   57.7706 N   0  0  0  0  0  0  0  0  0  0  0  0
   19.6212   30.1039   56.5590 N   0  0  0  0  0  0  0  0  0  0  0  0
   19.2763   28.8911   56.1945 C   0  0  0  0  0  0  0  0  0  0  0  0
   19.5116   27.7773   57.0547 C   0  0  0  0  0  0  0  0  0  0  0  0
   20.0373   27.9724   58.2887 C   0  0  0  0  0  0  0  0  0  0  0  0
   20.3701   29.2974   58.7333 C   0  0  0  0  0  0  0  0  0  0  0  0
   20.8194   29.5988   59.8532 O   0  0  0  0  0  0  0  0  0  0  0  0
   18.5917   28.7592   54.9069 C   0  0  0  0  0  0  0  0  0  0  0  0
   18.0567   27.5321   54.5137 C   0  0  0  0  0  0  0  0  0  0  0  0
   17.2892   27.4766   53.3681 C   0  0  0  0  0  0  0  0  0  0  0  0
   16.6913   26.3094   53.0287 F   0  0  0  0  0  0  0  0  0  0  0  0
   17.0848   28.5761   52.5566 C   0  0  0  0  0  0  0  0  0  0  0  0
   17.6758   29.7609   52.9482 C   0  0  0  0  0  0  0  0  0  0  0  0
   17.4945   30.8530   52.1540 F   0  0  0  0  0  0  0  0  0  0  0  0
   18.4221   29.8831   54.0998 C   0  0  0  0  0  0  0  0  0  0  0  0
   22.0856   32.5189   56.3526 C   0  0  0  0  0  0  0  0  0  0  0  0
   23.5794   33.9176   49.9593 H   0  0  0  0  0  0  0  0  0  0  0  0
   25.3034   33.6994   50.2499 H   0  0  0  0  0  0  0  0  0  0  0  0
   24.5781   35.2853   50.4394 H   0  0  0  0  0  0  0  0  0  0  0  0
   26.0410   34.5490   52.7761 H   0  0  0  0  0  0  0  0  0  0  0  0
   22.1054   33.2501   51.7368 H   0  0  0  0  0  0  0  0  0  0  0  0
   25.2941   33.5402   56.7578 H   0  0  0  0  0  0  0  0  0  0  0  0
   24.9568   32.4130   58.9118 H   0  0  0  0  0  0  0  0  0  0  0  0
   22.7477   31.4442   59.4709 H   0  0  0  0  0  0  0  0  0  0  0  0
   20.3444   31.8053   59.1401 H   0  0  0  0  0  0  0  0  0  0  0  0
   19.7208   32.2684   57.5568 H   0  0  0  0  0  0  0  0  0  0  0  0
   19.2770   26.7731   56.7330 H   0  0  0  0  0  0  0  0  0  0  0  0
   20.2154   27.1514   58.9665 H   0  0  0  0  0  0  0  0  0  0  0  0
   18.2357   26.6231   55.0603 H   0  0  0  0  0  0  0  0  0  0  0  0
   16.4876   28.5117   51.6609 H   0  0  0  0  0  0  0  0  0  0  0  0
   18.8573   30.8286   54.3810 H   0  0  0  0  0  0  0  0  0  0  0  0
   21.2949   32.5068   55.6133 H   0  0  0  0  0  0  0  0  0  0  0  0
  1  2  1  0
  1 30  1  0
  1 31  1  0
  1 32  1  0
  2  3  2  0
  2  7  1  0
  3  4  1  0
  3 33  1  0
  4  5  2  0
  5  6  1  0
  5  8  1  0
  6  7  2  0
  7 34  1  0
  8  9  2  0
  8 29  1  0
  9 10  1  0
  9 35  1  0
 10 11  2  0
 10 36  1  0
 11 12  1  0
 11 37  1  0
 12 13  1  0
 12 29  2  0
 13 14  1  0
 13 38  1  0
 13 39  1  0
 14 15  1  0
 14 19  1  0
 15 16  2  0
 16 17  1  0
 16 21  1  0
 17 18  2  0
 17 40  1  0
 18 19  1  0
 18 41  1  0
 19 20  2  0
 21 22  2  0
 21 28  1  0
 22 23  1  0
 22 42  1  0
 23 24  1  0
 23 25  2  0
 25 26  1  0
 25 43  1  0
 26 27  1  0
 26 28  2  0
 28 44  1  0
 29 45  1  0
M  END
>  <r_exp_dg>  (12) 
-10.0926

>  <mol_id>  (12) 
11

>  <source_index>  (12) 
11

>  <paff>  (12) 
7.3992793511085839

>  <source_r_exp_dg>  (12) 
-10.092599999999999

>  <smiles>  (12) 
Cc1cnc(-c2cccc(Cn3nc(-c4cc(F)cc(F)c4)ccc3=O)c2)nc1

>  <aimnet_interaction_kcal_mol>  (12) 
-65.119999150914509

$$$$
cmet_012
     RDKit          3D

 44 47  0  0  1  0  0  0  0  0999 V2000
   25.0024   34.0851   53.0586 C   0  0  0  0  0  0  0  0  0  0  0  0
   23.8706   33.5438   52.5036 C   0  0  0  0  0  0  0  0  0  0  0  0
   23.1240   33.1176   53.5792 N   0  0  0  0  0  0  0  0  0  0  0  0
   23.8191   33.3949   54.7265 C   0  0  0  0  0  0  0  0  0  0  0  0
   24.9758   33.9747   54.4251 N   0  0  0  0  0  0  0  0  0  0  0  0
   23.3958   33.0200   56.0558 C   0  0  0  0  0  0  0  0  0  0  0  0
   24.3488   33.0746   57.0732 C   0  0  0  0  0  0  0  0  0  0  0  0
   24.0982   32.4742   58.2909 C   0  0  0  0  0  0  0  0  0  0  0  0
   22.8509   31.9291   58.5526 C   0  0  0  0  0  0  0  0  0  0  0  0
   21.8298   32.0490   57.6191 C   0  0  0  0  0  0  0  0  0  0  0  0
   20.4337   31.6841   58.0058 C   0  0  0  0  0  0  0  0  0  0  0  0
   20.1057   30.2906   57.7151 N   0  0  0  0  0  0  0  0  0  0  0  0
   19.5966   30.1100   56.5044 N   0  0  0  0  0  0  0  0  0  0  0  0
   19.2371   28.8991   56.1516 C   0  0  0  0  0  0  0  0  0  0  0  0
   19.4601   27.7891   57.0190 C   0  0  0  0  0  0  0  0  0  0  0  0
   19.9998   27.9881   58.2470 C   0  0  0  0  0  0  0  0  0  0  0  0
   20.3473   29.3122   58.6824 C   0  0  0  0  0  0  0  0  0  0  0  0
   20.8080   29.6134   59.7970 O   0  0  0  0  0  0  0  0  0  0  0  0
   18.5290   28.7740   54.8760 C   0  0  0  0  0  0  0  0  0  0  0  0
   18.0750   27.5313   54.4328 C   0  0  0  0  0  0  0  0  0  0  0  0
   17.2076   27.4854   53.3595 C   0  0  0  0  0  0  0  0  0  0  0  0
   16.6731   26.2962   52.9957 F   0  0  0  0  0  0  0  0  0  0  0  0
   16.8304   28.6151   52.6562 C   0  0  0  0  0  0  0  0  0  0  0  0
   17.3731   29.8156   53.0718 C   0  0  0  0  0  0  0  0  0  0  0  0
   17.0205   30.9462   52.3928 F   0  0  0  0  0  0  0  0  0  0  0  0
   18.2243   29.9222   54.1489 C   0  0  0  0  0  0  0  0  0  0  0  0
   22.1132   32.5473   56.3547 C   0  0  0  0  0  0  0  0  0  0  0  0
   23.4547   33.3116   51.1071 C   0  0  0  0  0  0  0  0  0  0  0  0
   22.2246   32.6697   53.5054 H   0  0  0  0  0  0  0  0  0  0  0  0
   25.2747   33.6002   56.8993 H   0  0  0  0  0  0  0  0  0  0  0  0
   24.8701   32.4466   59.0430 H   0  0  0  0  0  0  0  0  0  0  0  0
   22.6522   31.4232   59.4858 H   0  0  0  0  0  0  0  0  0  0  0  0
   20.2690   31.8356   59.0672 H   0  0  0  0  0  0  0  0  0  0  0  0
   19.7126   32.2767   57.4532 H   0  0  0  0  0  0  0  0  0  0  0  0
   19.1953   26.7876   56.7131 H   0  0  0  0  0  0  0  0  0  0  0  0
   20.1769   27.1725   58.9317 H   0  0  0  0  0  0  0  0  0  0  0  0
   18.3775   26.6075   54.8967 H   0  0  0  0  0  0  0  0  0  0  0  0
   16.1137   28.5618   51.8511 H   0  0  0  0  0  0  0  0  0  0  0  0
   18.6233   30.8788   54.4450 H   0  0  0  0  0  0  0  0  0  0  0  0
   21.3262   32.5555   55.6093 H   0  0  0  0  0  0  0  0  0  0  0  0
   25.8193   34.5393   52.5272 H   0  0  0  0  0  0  0  0  0  0  0  0
   23.7274   32.3083   50.7760 H   0  0  0  0  0  0  0  0  0  0  0  0
   22.3783   33.4207   51.0004 H   0  0  0  0  0  0  0  0  0  0  0  0
   23.9366   34.0225   50.4394 H   0  0  0  0  0  0  0  0  0  0  0  0
  1  2  2  0
  1  5  1  0
  1 41  1  0
  2 28  1  0
  2  3  1  0
  3 29  1  0
  3  4  1  0
  4  6  1  0
  4  5  2  0
  6  7  2  0
  6 27  1  0
  7  8  1  0
  7 30  1  0
  8  9  2  0
  8 31  1  0
  9 10  1  0
  9 32  1  0
 10 11  1  0
 10 27  2  0
 11 12  1  0
 11 33  1  0
 11 34  1  0
 12 13  1  0
 12 17  1  0
 13 14  2  0
 14 15  1  0
 14 19  1  0
 15 16  2  0
 15 35  1  0
 16 17  1  0
 16 36  1  0
 17 18  2  0
 19 20  2  0
 19 26  1  0
 20 21  1  0
 20 37  1  0
 21 22  1  0
 21 23  2  0
 23 24  1  0
 23 38  1  0
 24 25  1  0
 24 26  2  0
 26 39  1  0
 27 40  1  0
 28 42  1  0
 28 43  1  0
 28 44  1  0
M  END
>  <r_exp_dg>  (13) 
-7.19739

>  <mol_id>  (13) 
12

>  <source_index>  (13) 
12

>  <paff>  (13) 
5.2766789439137023

>  <source_r_exp_dg>  (13) 
-7.1973900000000004

>  <smiles>  (13) 
Cc1cnc(-c2cccc(Cn3nc(-c4cc(F)cc(F)c4)ccc3=O)c2)[nH]1

>  <aimnet_interaction_kcal_mol>  (13) 
-64.420198480141707

$$$$
cmet_013
     RDKit          3D

 71 73  0  0  1  0  0  0  0  0999 V2000
   21.6668   33.9128   47.3274 C   0  0  0  0  0  0  0  0  0  0  0  0
   21.7007   32.8713   48.4139 C   0  0  0  0  0  0  0  0  0  0  0  0
   23.0953   32.4956   48.8852 N   0  0  0  0  0  0  0  0  0  0  0  0
   23.9654   31.8197   47.8498 C   0  0  0  0  0  0  0  0  0  0  0  0
   23.4380   30.4670   47.4395 C   0  0  0  0  0  0  0  0  0  0  0  0
   23.7935   33.6545   49.5502 C   0  0  0  0  0  0  0  0  0  0  0  0
   24.9899   33.1989   50.3702 C   0  0  0  0  0  0  0  0  0  0  0  0
   25.1496   34.0204   51.6303 C   0  0  0  0  0  0  0  0  0  0  0  0
   24.0291   33.7089   52.4962 O   0  0  0  0  0  0  0  0  0  0  0  0
   24.2889   33.7437   53.8339 C   0  0  0  0  0  0  0  0  0  0  0  0
   25.3338   34.1535   54.3099 O   0  0  0  0  0  0  0  0  0  0  0  0
   23.2108   33.2864   54.5119 N   0  0  0  0  0  0  0  0  0  0  0  0
   23.1152   32.9406   55.8803 C   0  0  0  0  0  0  0  0  0  0  0  0
   24.1840   33.0241   56.7630 C   0  0  0  0  0  0  0  0  0  0  0  0
   24.0473   32.4719   58.0290 C   0  0  0  0  0  0  0  0  0  0  0  0
   22.8430   31.9263   58.4408 C   0  0  0  0  0  0  0  0  0  0  0  0
   21.7351   31.9751   57.6078 C   0  0  0  0  0  0  0  0  0  0  0  0
   20.3977   31.5277   58.0966 C   0  0  0  0  0  0  0  0  0  0  0  0
   20.1321   30.1321   57.7528 N   0  0  0  0  0  0  0  0  0  0  0  0
   20.0481   29.9851   56.3895 N   0  0  0  0  0  0  0  0  0  0  0  0
   19.5011   28.9223   55.9131 C   0  0  0  0  0  0  0  0  0  0  0  0
   19.1598   27.7191   56.7324 C   0  0  0  0  0  0  0  0  0  0  0  0
   20.2849   27.4777   58.1363 S   0  0  0  0  0  0  0  0  0  0  0  0
   20.4010   29.1758   58.6833 C   0  0  0  0  0  0  0  0  0  0  0  0
   20.7182   29.4403   59.8362 O   0  0  0  0  0  0  0  0  0  0  0  0
   19.1786   28.9206   54.4921 C   0  0  0  0  0  0  0  0  0  0  0  0
   19.7737   29.8528   53.6431 C   0  0  0  0  0  0  0  0  0  0  0  0
   19.4474   29.8846   52.2999 C   0  0  0  0  0  0  0  0  0  0  0  0
   18.4769   29.0369   51.7845 C   0  0  0  0  0  0  0  0  0  0  0  0
   18.0887   29.0140   50.4836 O   0  0  0  0  0  0  0  0  0  0  0  0
   19.0730   29.3711   49.5270 C   0  0  0  0  0  0  0  0  0  0  0  0
   17.8410   28.1137   52.6372 C   0  0  0  0  0  0  0  0  0  0  0  0
   16.8849   27.3554   52.0555 O   0  0  0  0  0  0  0  0  0  0  0  0
   16.4833   26.1694   52.7299 C   0  0  0  0  0  0  0  0  0  0  0  0
   18.2368   28.0255   53.9634 C   0  0  0  0  0  0  0  0  0  0  0  0
   21.8863   32.4489   56.3119 C   0  0  0  0  0  0  0  0  0  0  0  0
   20.6226   34.0950   47.0871 H   0  0  0  0  0  0  0  0  0  0  0  0
   22.1652   33.5982   46.4136 H   0  0  0  0  0  0  0  0  0  0  0  0
   22.0823   34.8653   47.6455 H   0  0  0  0  0  0  0  0  0  0  0  0
   21.1788   33.2316   49.3019 H   0  0  0  0  0  0  0  0  0  0  0  0
   21.2308   31.9452   48.0954 H   0  0  0  0  0  0  0  0  0  0  0  0
   24.0329   32.5038   47.0115 H   0  0  0  0  0  0  0  0  0  0  0  0
   24.9553   31.7224   48.2828 H   0  0  0  0  0  0  0  0  0  0  0  0
   24.1362   30.0385   46.7258 H   0  0  0  0  0  0  0  0  0  0  0  0
   22.4653   30.5136   46.9566 H   0  0  0  0  0  0  0  0  0  0  0  0
   23.3831   29.7796   48.2826 H   0  0  0  0  0  0  0  0  0  0  0  0
   24.0742   34.3476   48.7632 H   0  0  0  0  0  0  0  0  0  0  0  0
   23.0489   34.1378   50.1735 H   0  0  0  0  0  0  0  0  0  0  0  0
   24.9171   32.1525   50.6671 H   0  0  0  0  0  0  0  0  0  0  0  0
   25.8961   33.2597   49.7716 H   0  0  0  0  0  0  0  0  0  0  0  0
   26.0756   33.7802   52.1413 H   0  0  0  0  0  0  0  0  0  0  0  0
   25.1397   35.0860   51.4315 H   0  0  0  0  0  0  0  0  0  0  0  0
   22.3951   33.0866   53.9504 H   0  0  0  0  0  0  0  0  0  0  0  0
   25.0959   33.5319   56.4952 H   0  0  0  0  0  0  0  0  0  0  0  0
   24.8903   32.4918   58.7016 H   0  0  0  0  0  0  0  0  0  0  0  0
   22.7509   31.4696   59.4150 H   0  0  0  0  0  0  0  0  0  0  0  0
   20.3105   31.6266   59.1717 H   0  0  0  0  0  0  0  0  0  0  0  0
   19.6054   32.1149   57.6376 H   0  0  0  0  0  0  0  0  0  0  0  0
   19.2392   26.8104   56.1361 H   0  0  0  0  0  0  0  0  0  0  0  0
   18.1314   27.7852   57.1012 H   0  0  0  0  0  0  0  0  0  0  0  0
   20.4792   30.5619   54.0508 H   0  0  0  0  0  0  0  0  0  0  0  0
   19.9314   30.6033   51.6530 H   0  0  0  0  0  0  0  0  0  0  0  0
   18.6705   29.1013   48.5570 H   0  0  0  0  0  0  0  0  0  0  0  0
   19.9981   28.8198   49.6999 H   0  0  0  0  0  0  0  0  0  0  0  0
   19.2766   30.4471   49.5435 H   0  0  0  0  0  0  0  0  0  0  0  0
   15.9666   26.4048   53.6576 H   0  0  0  0  0  0  0  0  0  0  0  0
   17.3365   25.5234   52.9365 H   0  0  0  0  0  0  0  0  0  0  0  0
   15.7941   25.6575   52.0653 H   0  0  0  0  0  0  0  0  0  0  0  0
   17.8121   27.2578   54.5918 H   0  0  0  0  0  0  0  0  0  0  0  0
   21.0456   32.3952   55.6344 H   0  0  0  0  0  0  0  0  0  0  0  0
   22.9549   31.8042   49.6205 H   0  0  0  0  0  0  0  0  0  0  0  0
  1  2  1  0
  1 37  1  0
  1 38  1  0
  1 39  1  0
  2  3  1  0
  2 40  1  0
  2 41  1  0
  3  4  1  0
  3  6  1  0
  3 71  1  0
  4  5  1  0
  4 42  1  0
  4 43  1  0
  5 44  1  0
  5 45  1  0
  5 46  1  0
  6  7  1  0
  6 47  1  0
  6 48  1  0
  7  8  1  0
  7 49  1  0
  7 50  1  0
  8  9  1  0
  8 51  1  0
  8 52  1  0
  9 10  1  0
 10 11  2  0
 10 12  1  0
 12 13  1  0
 12 53  1  0
 13 14  2  0
 13 36  1  0
 14 15  1  0
 14 54  1  0
 15 16  2  0
 15 55  1  0
 16 17  1  0
 16 56  1  0
 17 18  1  0
 17 36  2  0
 18 19  1  0
 18 57  1  0
 18 58  1  0
 19 20  1  0
 19 24  1  0
 20 21  2  0
 21 22  1  0
 21 26  1  0
 22 23  1  0
 22 59  1  0
 22 60  1  0
 23 24  1  0
 24 25  2  0
 26 27  2  0
 26 35  1  0
 27 28  1  0
 27 61  1  0
 28 29  2  0
 28 62  1  0
 29 30  1  0
 29 32  1  0
 30 31  1  0
 31 63  1  0
 31 64  1  0
 31 65  1  0
 32 33  1  0
 32 35  2  0
 33 34  1  0
 34 66  1  0
 34 67  1  0
 34 68  1  0
 35 69  1  0
 36 70  1  0
M  CHG  1   3   1
M  END
>  <r_exp_dg>  (14) 
-8.72837

>  <mol_id>  (14) 
13

>  <source_index>  (14) 
13

>  <paff>  (14) 
6.3990980299337163

>  <source_r_exp_dg>  (14) 
-8.72837

>  <smiles>  (14) 
CCN(CC)CCCOC(=O)Nc1cccc(CN2N=C(c3ccc(OC)c(OC)c3)CSC2=O)c1

>  <aimnet_interaction_kcal_mol>  (14) 
-69.764736127313682

$$$$
cmet_014
     RDKit          3D

 63 65  0  0  1  0  0  0  0  0999 V2000
   21.7208   33.8672   47.2475 C   0  0  0  0  0  0  0  0  0  0  0  0
   21.6034   32.8115   48.3150 C   0  0  0  0  0  0  0  0  0  0  0  0
   22.9281   32.3617   48.9092 N   0  0  0  0  0  0  0  0  0  0  0  0
   23.8587   31.6636   47.9442 C   0  0  0  0  0  0  0  0  0  0  0  0
   23.2936   30.3671   47.4187 C   0  0  0  0  0  0  0  0  0  0  0  0
   23.6094   33.4775   49.6591 C   0  0  0  0  0  0  0  0  0  0  0  0
   24.7578   32.9742   50.5100 C   0  0  0  0  0  0  0  0  0  0  0  0
   25.0290   33.9346   51.6503 C   0  0  0  0  0  0  0  0  0  0  0  0
   23.9261   33.8210   52.5818 O   0  0  0  0  0  0  0  0  0  0  0  0
   24.2478   33.8079   53.9042 C   0  0  0  0  0  0  0  0  0  0  0  0
   25.3331   34.1446   54.3435 O   0  0  0  0  0  0  0  0  0  0  0  0
   23.1718   33.4030   54.6213 N   0  0  0  0  0  0  0  0  0  0  0  0
   23.1165   33.0193   55.9821 C   0  0  0  0  0  0  0  0  0  0  0  0
   24.2035   33.1068   56.8411 C   0  0  0  0  0  0  0  0  0  0  0  0
   24.1010   32.5387   58.1015 C   0  0  0  0  0  0  0  0  0  0  0  0
   22.9113   31.9774   58.5329 C   0  0  0  0  0  0  0  0  0  0  0  0
   21.7836   32.0219   57.7272 C   0  0  0  0  0  0  0  0  0  0  0  0
   20.4561   31.6045   58.2702 C   0  0  0  0  0  0  0  0  0  0  0  0
   20.1211   30.2265   57.9176 N   0  0  0  0  0  0  0  0  0  0  0  0
   19.7712   30.1418   56.6065 N   0  0  0  0  0  0  0  0  0  0  0  0
   19.3110   29.0483   56.1117 C   0  0  0  0  0  0  0  0  0  0  0  0
   19.1781   27.7567   56.8449 C   0  0  0  0  0  0  0  0  0  0  0  0
   20.3609   27.5600   58.2054 S   0  0  0  0  0  0  0  0  0  0  0  0
   20.4272   29.2386   58.8015 C   0  0  0  0  0  0  0  0  0  0  0  0
   20.7723   29.4743   59.9539 O   0  0  0  0  0  0  0  0  0  0  0  0
   18.7996   29.1364   54.7453 C   0  0  0  0  0  0  0  0  0  0  0  0
   18.2981   28.0324   54.0469 C   0  0  0  0  0  0  0  0  0  0  0  0
   17.7562   28.1777   52.7799 C   0  0  0  0  0  0  0  0  0  0  0  0
   17.7365   29.4286   52.1951 C   0  0  0  0  0  0  0  0  0  0  0  0
   17.0502   29.6326   50.5953 Cl  0  0  0  0  0  0  0  0  0  0  0  0
   18.2620   30.5348   52.8453 C   0  0  0  0  0  0  0  0  0  0  0  0
   18.7608   30.3878   54.1206 C   0  0  0  0  0  0  0  0  0  0  0  0
   21.9070   32.4881   56.4261 C   0  0  0  0  0  0  0  0  0  0  0  0
   20.7156   34.0811   46.8940 H   0  0  0  0  0  0  0  0  0  0  0  0
   22.3077   33.5484   46.3896 H   0  0  0  0  0  0  0  0  0  0  0  0
   22.1254   34.8037   47.6220 H   0  0  0  0  0  0  0  0  0  0  0  0
   21.0187   33.1793   49.1589 H   0  0  0  0  0  0  0  0  0  0  0  0
   21.1265   31.9122   47.9363 H   0  0  0  0  0  0  0  0  0  0  0  0
   24.0634   32.3710   47.1483 H   0  0  0  0  0  0  0  0  0  0  0  0
   24.7858   31.4822   48.4760 H   0  0  0  0  0  0  0  0  0  0  0  0
   23.0669   29.6659   48.2209 H   0  0  0  0  0  0  0  0  0  0  0  0
   24.0507   29.9009   46.7942 H   0  0  0  0  0  0  0  0  0  0  0  0
   22.4046   30.5033   46.8086 H   0  0  0  0  0  0  0  0  0  0  0  0
   23.9444   34.2039   48.9248 H   0  0  0  0  0  0  0  0  0  0  0  0
   22.8440   33.9415   50.2711 H   0  0  0  0  0  0  0  0  0  0  0  0
   24.5529   31.9927   50.9410 H   0  0  0  0  0  0  0  0  0  0  0  0
   25.6556   32.8419   49.9098 H   0  0  0  0  0  0  0  0  0  0  0  0
   25.9569   33.6918   52.1553 H   0  0  0  0  0  0  0  0  0  0  0  0
   25.0821   34.9662   51.3150 H   0  0  0  0  0  0  0  0  0  0  0  0
   22.3389   33.2223   54.0796 H   0  0  0  0  0  0  0  0  0  0  0  0
   25.1069   33.6226   56.5592 H   0  0  0  0  0  0  0  0  0  0  0  0
   24.9586   32.5590   58.7551 H   0  0  0  0  0  0  0  0  0  0  0  0
   22.8432   31.5128   59.5034 H   0  0  0  0  0  0  0  0  0  0  0  0
   20.4313   31.6844   59.3501 H   0  0  0  0  0  0  0  0  0  0  0  0
   19.6616   32.2259   57.8659 H   0  0  0  0  0  0  0  0  0  0  0  0
   18.1650   27.6590   57.2433 H   0  0  0  0  0  0  0  0  0  0  0  0
   19.3529   26.9042   56.1923 H   0  0  0  0  0  0  0  0  0  0  0  0
   18.3278   27.0422   54.4736 H   0  0  0  0  0  0  0  0  0  0  0  0
   17.3795   27.3224   52.2429 H   0  0  0  0  0  0  0  0  0  0  0  0
   18.2923   31.4867   52.3362 H   0  0  0  0  0  0  0  0  0  0  0  0
   19.1171   31.2490   54.6634 H   0  0  0  0  0  0  0  0  0  0  0  0
   21.0650   32.4020   55.7531 H   0  0  0  0  0  0  0  0  0  0  0  0
   22.6803   31.6664   49.6119 H   0  0  0  0  0  0  0  0  0  0  0  0
  1  2  1  0
  1 34  1  0
  1 35  1  0
  1 36  1  0
  2  3  1  0
  2 37  1  0
  2 38  1  0
  3  4  1  0
  3  6  1  0
  3 63  1  0
  4  5  1  0
  4 39  1  0
  4 40  1  0
  5 41  1  0
  5 42  1  0
  5 43  1  0
  6  7  1  0
  6 44  1  0
  6 45  1  0
  7  8  1  0
  7 46  1  0
  7 47  1  0
  8  9  1  0
  8 48  1  0
  8 49  1  0
  9 10  1  0
 10 11  2  0
 10 12  1  0
 12 13  1  0
 12 50  1  0
 13 14  2  0
 13 33  1  0
 14 15  1  0
 14 51  1  0
 15 16  2  0
 15 52  1  0
 16 17  1  0
 16 53  1  0
 17 18  1  0
 17 33  2  0
 18 19  1  0
 18 54  1  0
 18 55  1  0
 19 20  1  0
 19 24  1  0
 20 21  2  0
 21 22  1  0
 21 26  1  0
 22 23  1  0
 22 56  1  0
 22 57  1  0
 23 24  1  0
 24 25  2  0
 26 27  2  0
 26 32  1  0
 27 28  1  0
 27 58  1  0
 28 29  2  0
 28 59  1  0
 29 30  1  0
 29 31  1  0
 31 32  2  0
 31 60  1  0
 32 61  1  0
 33 62  1  0
M  CHG  1   3   1
M  END
>  <r_exp_dg>  (15) 
-9.61215

>  <mol_id>  (15) 
14

>  <source_index>  (15) 
14

>  <paff>  (15) 
7.0470330302666353

>  <source_r_exp_dg>  (15) 
-9.6121499999999997

>  <smiles>  (15) 
CCN(CC)CCCOC(=O)Nc1cccc(CN2N=C(c3ccc(Cl)cc3)CSC2=O)c1

>  <aimnet_interaction_kcal_mol>  (15) 
-64.920734310308745

$$$$
cmet_015
     RDKit          3D

 57 59  0  0  1  0  0  0  0  0999 V2000
   21.2400   31.8814   48.7492 C   0  0  0  0  0  0  0  0  0  0  0  0
   22.5644   31.6499   49.4078 N   0  0  0  0  0  0  0  0  0  0  0  0
   23.5166   30.9361   48.5031 C   0  0  0  0  0  0  0  0  0  0  0  0
   23.1332   32.9386   49.9586 C   0  0  0  0  0  0  0  0  0  0  0  0
   24.4141   32.7192   50.7317 C   0  0  0  0  0  0  0  0  0  0  0  0
   24.7114   33.8709   51.6723 C   0  0  0  0  0  0  0  0  0  0  0  0
   23.6938   33.9138   52.6968 O   0  0  0  0  0  0  0  0  0  0  0  0
   24.1269   33.8967   53.9877 C   0  0  0  0  0  0  0  0  0  0  0  0
   25.2917   34.0176   54.3200 O   0  0  0  0  0  0  0  0  0  0  0  0
   23.0694   33.7626   54.8247 N   0  0  0  0  0  0  0  0  0  0  0  0
   23.0831   33.2933   56.1605 C   0  0  0  0  0  0  0  0  0  0  0  0
   24.2430   33.2305   56.9211 C   0  0  0  0  0  0  0  0  0  0  0  0
   24.1967   32.6004   58.1518 C   0  0  0  0  0  0  0  0  0  0  0  0
   23.0056   32.0970   58.6452 C   0  0  0  0  0  0  0  0  0  0  0  0
   21.8192   32.2984   57.9571 C   0  0  0  0  0  0  0  0  0  0  0  0
   20.5247   31.8692   58.5691 C   0  0  0  0  0  0  0  0  0  0  0  0
   20.1593   30.5286   58.1229 N   0  0  0  0  0  0  0  0  0  0  0  0
   19.7448   30.5106   56.8653 N   0  0  0  0  0  0  0  0  0  0  0  0
   19.5165   29.3488   56.2996 C   0  0  0  0  0  0  0  0  0  0  0  0
   19.5532   28.1480   57.0675 C   0  0  0  0  0  0  0  0  0  0  0  0
   19.9798   28.1839   58.3563 C   0  0  0  0  0  0  0  0  0  0  0  0
   20.3417   29.4353   58.9653 C   0  0  0  0  0  0  0  0  0  0  0  0
   20.7765   29.5963   60.1179 O   0  0  0  0  0  0  0  0  0  0  0  0
   19.2748   29.4075   54.8577 C   0  0  0  0  0  0  0  0  0  0  0  0
   18.7182   28.3504   54.1356 C   0  0  0  0  0  0  0  0  0  0  0  0
   18.5650   28.4418   52.7591 C   0  0  0  0  0  0  0  0  0  0  0  0
   18.9360   29.6051   52.1218 C   0  0  0  0  0  0  0  0  0  0  0  0
   18.7822   29.7170   50.7732 F   0  0  0  0  0  0  0  0  0  0  0  0
   19.4790   30.6752   52.8055 C   0  0  0  0  0  0  0  0  0  0  0  0
   19.6477   30.5665   54.1723 C   0  0  0  0  0  0  0  0  0  0  0  0
   21.8676   32.8718   56.6945 C   0  0  0  0  0  0  0  0  0  0  0  0
   20.6198   32.4780   49.4113 H   0  0  0  0  0  0  0  0  0  0  0  0
   20.7743   30.9217   48.5512 H   0  0  0  0  0  0  0  0  0  0  0  0
   21.4115   32.4111   47.8189 H   0  0  0  0  0  0  0  0  0  0  0  0
   24.4195   30.6676   49.0381 H   0  0  0  0  0  0  0  0  0  0  0  0
   23.7668   31.5945   47.6780 H   0  0  0  0  0  0  0  0  0  0  0  0
   23.0363   30.0354   48.1335 H   0  0  0  0  0  0  0  0  0  0  0  0
   23.2787   33.5951   49.1033 H   0  0  0  0  0  0  0  0  0  0  0  0
   22.3625   33.3701   50.5909 H   0  0  0  0  0  0  0  0  0  0  0  0
   24.3677   31.8110   51.3325 H   0  0  0  0  0  0  0  0  0  0  0  0
   25.2557   32.5895   50.0551 H   0  0  0  0  0  0  0  0  0  0  0  0
   25.6786   33.7309   52.1396 H   0  0  0  0  0  0  0  0  0  0  0  0
   24.7008   34.8274   51.1577 H   0  0  0  0  0  0  0  0  0  0  0  0
   22.1631   33.8855   54.4008 H   0  0  0  0  0  0  0  0  0  0  0  0
   25.1609   33.6883   56.5917 H   0  0  0  0  0  0  0  0  0  0  0  0
   25.0973   32.5271   58.7390 H   0  0  0  0  0  0  0  0  0  0  0  0
   22.9820   31.5502   59.5715 H   0  0  0  0  0  0  0  0  0  0  0  0
   20.5775   31.8423   59.6502 H   0  0  0  0  0  0  0  0  0  0  0  0
   19.7151   32.5318   58.2722 H   0  0  0  0  0  0  0  0  0  0  0  0
   19.2522   27.2094   56.6301 H   0  0  0  0  0  0  0  0  0  0  0  0
   20.0610   27.2879   58.9524 H   0  0  0  0  0  0  0  0  0  0  0  0
   18.4101   27.4396   54.6255 H   0  0  0  0  0  0  0  0  0  0  0  0
   18.2047   27.6013   52.1866 H   0  0  0  0  0  0  0  0  0  0  0  0
   19.7587   31.5739   52.2723 H   0  0  0  0  0  0  0  0  0  0  0  0
   20.0763   31.3822   54.7339 H   0  0  0  0  0  0  0  0  0  0  0  0
   20.9528   32.9680   56.1259 H   0  0  0  0  0  0  0  0  0  0  0  0
   22.3973   31.0432   50.2097 H   0  0  0  0  0  0  0  0  0  0  0  0
  1  2  1  0
  1 32  1  0
  1 33  1  0
  1 34  1  0
  2  3  1  0
  2  4  1  0
  2 57  1  0
  3 35  1  0
  3 36  1  0
  3 37  1  0
  4  5  1  0
  4 38  1  0
  4 39  1  0
  5  6  1  0
  5 40  1  0
  5 41  1  0
  6  7  1  0
  6 42  1  0
  6 43  1  0
  7  8  1  0
  8  9  2  0
  8 10  1  0
 10 11  1  0
 10 44  1  0
 11 12  2  0
 11 31  1  0
 12 13  1  0
 12 45  1  0
 13 14  2  0
 13 46  1  0
 14 15  1  0
 14 47  1  0
 15 16  1  0
 15 31  2  0
 16 17  1  0
 16 48  1  0
 16 49  1  0
 17 18  1  0
 17 22  1  0
 18 19  2  0
 19 20  1  0
 19 24  1  0
 20 21  2  0
 20 50  1  0
 21 22  1  0
 21 51  1  0
 22 23  2  0
 24 25  2  0
 24 30  1  0
 25 26  1  0
 25 52  1  0
 26 27  2  0
 26 53  1  0
 27 28  1  0
 27 29  1  0
 29 30  2  0
 29 54  1  0
 30 55  1  0
 31 56  1  0
M  CHG  1   2   1
M  END
>  <r_exp_dg>  (16) 
-9.61215

>  <mol_id>  (16) 
15

>  <source_index>  (16) 
15

>  <paff>  (16) 
7.0470330302666353

>  <source_r_exp_dg>  (16) 
-9.6121499999999997

>  <smiles>  (16) 
CN(C)CCCOC(=O)Nc1cccc(Cn2nc(-c3ccc(F)cc3)ccc2=O)c1

>  <aimnet_interaction_kcal_mol>  (16) 
-60.040304855105788

$$$$
cmet_016
     RDKit          3D

 43 46  0  0  1  0  0  0  0  0999 V2000
   25.5314   34.0641   51.8585 C   0  0  0  0  0  0  0  0  0  0  0  0
   24.4025   33.6491   52.7285 C   0  0  0  0  0  0  0  0  0  0  0  0
   23.1450   33.3833   52.2608 C   0  0  0  0  0  0  0  0  0  0  0  0
   22.0806   32.9470   53.5315 S   0  0  0  0  0  0  0  0  0  0  0  0
   23.4172   33.1451   54.6561 C   0  0  0  0  0  0  0  0  0  0  0  0
   24.5426   33.5117   54.0908 N   0  0  0  0  0  0  0  0  0  0  0  0
   23.2069   32.8663   56.0607 C   0  0  0  0  0  0  0  0  0  0  0  0
   24.2684   32.9721   56.9576 C   0  0  0  0  0  0  0  0  0  0  0  0
   24.1364   32.4567   58.2337 C   0  0  0  0  0  0  0  0  0  0  0  0
   22.9193   31.9466   58.6591 C   0  0  0  0  0  0  0  0  0  0  0  0
   21.8093   32.0023   57.8331 C   0  0  0  0  0  0  0  0  0  0  0  0
   20.4618   31.6146   58.3442 C   0  0  0  0  0  0  0  0  0  0  0  0
   20.1095   30.2404   57.9861 N   0  0  0  0  0  0  0  0  0  0  0  0
   19.6241   30.1185   56.7595 N   0  0  0  0  0  0  0  0  0  0  0  0
   19.2906   28.9225   56.3352 C   0  0  0  0  0  0  0  0  0  0  0  0
   19.5235   27.7697   57.1409 C   0  0  0  0  0  0  0  0  0  0  0  0
   20.0352   27.9104   58.3899 C   0  0  0  0  0  0  0  0  0  0  0  0
   20.3356   29.2167   58.9054 C   0  0  0  0  0  0  0  0  0  0  0  0
   20.7534   29.4780   60.0487 O   0  0  0  0  0  0  0  0  0  0  0  0
   18.6054   28.8583   55.0443 C   0  0  0  0  0  0  0  0  0  0  0  0
   18.1978   27.6330   54.5157 C   0  0  0  0  0  0  0  0  0  0  0  0
   17.3302   27.6325   53.4411 C   0  0  0  0  0  0  0  0  0  0  0  0
   16.8293   26.4570   52.9985 F   0  0  0  0  0  0  0  0  0  0  0  0
   16.9196   28.7968   52.8162 C   0  0  0  0  0  0  0  0  0  0  0  0
   17.4295   29.9821   53.3086 C   0  0  0  0  0  0  0  0  0  0  0  0
   17.0439   31.1450   52.6983 F   0  0  0  0  0  0  0  0  0  0  0  0
   18.2778   30.0435   54.3911 C   0  0  0  0  0  0  0  0  0  0  0  0
   21.9614   32.4220   56.5226 C   0  0  0  0  0  0  0  0  0  0  0  0
   25.2427   34.9071   51.2379 H   0  0  0  0  0  0  0  0  0  0  0  0
   25.8341   33.2460   51.2109 H   0  0  0  0  0  0  0  0  0  0  0  0
   26.3962   34.3639   52.4408 H   0  0  0  0  0  0  0  0  0  0  0  0
   22.7841   33.4385   51.2480 H   0  0  0  0  0  0  0  0  0  0  0  0
   25.1806   33.4719   56.6620 H   0  0  0  0  0  0  0  0  0  0  0  0
   24.9795   32.4670   58.9059 H   0  0  0  0  0  0  0  0  0  0  0  0
   22.8156   31.5088   59.6372 H   0  0  0  0  0  0  0  0  0  0  0  0
   20.4090   31.6843   59.4244 H   0  0  0  0  0  0  0  0  0  0  0  0
   19.6858   32.2432   57.9175 H   0  0  0  0  0  0  0  0  0  0  0  0
   19.2920   26.7809   56.7718 H   0  0  0  0  0  0  0  0  0  0  0  0
   20.2235   27.0565   59.0229 H   0  0  0  0  0  0  0  0  0  0  0  0
   18.5337   26.6905   54.9146 H   0  0  0  0  0  0  0  0  0  0  0  0
   16.2019   28.7777   52.0098 H   0  0  0  0  0  0  0  0  0  0  0  0
   18.6580   30.9871   54.7508 H   0  0  0  0  0  0  0  0  0  0  0  0
   21.1123   32.3576   55.8537 H   0  0  0  0  0  0  0  0  0  0  0  0
  1  2  1  0
  1 29  1  0
  1 30  1  0
  1 31  1  0
  2  3  2  0
  2  6  1  0
  3  4  1  0
  3 32  1  0
  4  5  1  0
  5  6  2  0
  5  7  1  0
  7  8  2  0
  7 28  1  0
  8  9  1  0
  8 33  1  0
  9 10  2  0
  9 34  1  0
 10 11  1  0
 10 35  1  0
 11 12  1  0
 11 28  2  0
 12 13  1  0
 12 36  1  0
 12 37  1  0
 13 14  1  0
 13 18  1  0
 14 15  2  0
 15 16  1  0
 15 20  1  0
 16 17  2  0
 16 38  1  0
 17 18  1  0
 17 39  1  0
 18 19  2  0
 20 21  2  0
 20 27  1  0
 21 22  1  0
 21 40  1  0
 22 23  1  0
 22 24  2  0
 24 25  1  0
 24 41  1  0
 25 26  1  0
 25 27  2  0
 27 42  1  0
 28 43  1  0
M  END
>  <r_exp_dg>  (17) 
-7.74589

>  <mol_id>  (17) 
16

>  <source_index>  (17) 
16

>  <paff>  (17) 
5.6788085842412235

>  <source_r_exp_dg>  (17) 
-7.7458900000000002

>  <smiles>  (17) 
Cc1csc(-c2cccc(Cn3nc(-c4cc(F)cc(F)c4)ccc3=O)c2)n1

>  <aimnet_interaction_kcal_mol>  (17) 
-61.304870086788092

$$$$
cmet_017
     RDKit          3D

 61 64  0  0  1  0  0  0  0  0999 V2000
   23.0951   29.6147   47.8645 C   0  0  0  0  0  0  0  0  0  0  0  0
   21.9187   30.3811   48.3825 N   0  0  0  0  0  0  0  0  0  0  0  0
   21.2594   29.7302   49.5649 C   0  0  0  0  0  0  0  0  0  0  0  0
   22.2300   31.8542   48.6109 C   0  0  0  0  0  0  0  0  0  0  0  0
   23.3831   32.1437   49.5476 C   0  0  0  0  0  0  0  0  0  0  0  0
   23.4750   33.6564   49.7661 C   0  0  0  0  0  0  0  0  0  0  0  0
   24.4361   33.9943   50.7600 O   0  0  0  0  0  0  0  0  0  0  0  0
   24.0843   33.7902   52.0567 C   0  0  0  0  0  0  0  0  0  0  0  0
   25.0511   34.0364   53.0268 C   0  0  0  0  0  0  0  0  0  0  0  0
   24.8498   33.7513   54.3071 N   0  0  0  0  0  0  0  0  0  0  0  0
   23.6250   33.2930   54.6411 C   0  0  0  0  0  0  0  0  0  0  0  0
   22.6150   33.1115   53.7856 N   0  0  0  0  0  0  0  0  0  0  0  0
   22.8391   33.3658   52.5003 C   0  0  0  0  0  0  0  0  0  0  0  0
   23.3595   32.9718   56.0368 C   0  0  0  0  0  0  0  0  0  0  0  0
   24.3767   33.0433   56.9862 C   0  0  0  0  0  0  0  0  0  0  0  0
   24.1844   32.4887   58.2393 C   0  0  0  0  0  0  0  0  0  0  0  0
   22.9471   31.9750   58.5907 C   0  0  0  0  0  0  0  0  0  0  0  0
   21.8702   32.0740   57.7199 C   0  0  0  0  0  0  0  0  0  0  0  0
   20.5027   31.6963   58.1924 C   0  0  0  0  0  0  0  0  0  0  0  0
   20.1721   30.3102   57.8663 N   0  0  0  0  0  0  0  0  0  0  0  0
   19.7294   30.1526   56.6262 N   0  0  0  0  0  0  0  0  0  0  0  0
   19.4303   28.9389   56.2208 C   0  0  0  0  0  0  0  0  0  0  0  0
   19.5666   27.8185   57.0897 C   0  0  0  0  0  0  0  0  0  0  0  0
   20.0389   27.9948   58.3493 C   0  0  0  0  0  0  0  0  0  0  0  0
   20.3804   29.3104   58.8181 C   0  0  0  0  0  0  0  0  0  0  0  0
   20.8151   29.5954   59.9465 O   0  0  0  0  0  0  0  0  0  0  0  0
   18.9557   28.8332   54.8392 C   0  0  0  0  0  0  0  0  0  0  0  0
   18.1624   27.7628   54.4349 C   0  0  0  0  0  0  0  0  0  0  0  0
   17.6492   27.7682   53.1538 C   0  0  0  0  0  0  0  0  0  0  0  0
   16.8408   26.7627   52.7641 F   0  0  0  0  0  0  0  0  0  0  0  0
   17.9126   28.7784   52.2487 C   0  0  0  0  0  0  0  0  0  0  0  0
   18.7242   29.8070   52.6812 C   0  0  0  0  0  0  0  0  0  0  0  0
   18.9835   30.8241   51.8005 F   0  0  0  0  0  0  0  0  0  0  0  0
   19.2666   29.8560   53.9429 C   0  0  0  0  0  0  0  0  0  0  0  0
   22.0867   32.5290   56.4290 C   0  0  0  0  0  0  0  0  0  0  0  0
   23.8964   29.6345   48.5885 H   0  0  0  0  0  0  0  0  0  0  0  0
   23.4343   30.0761   46.9426 H   0  0  0  0  0  0  0  0  0  0  0  0
   22.7970   28.5859   47.6907 H   0  0  0  0  0  0  0  0  0  0  0  0
   21.9273   29.7728   50.4123 H   0  0  0  0  0  0  0  0  0  0  0  0
   20.3499   30.2686   49.8044 H   0  0  0  0  0  0  0  0  0  0  0  0
   21.0227   28.6992   49.3197 H   0  0  0  0  0  0  0  0  0  0  0  0
   22.4216   32.2683   47.6225 H   0  0  0  0  0  0  0  0  0  0  0  0
   21.3068   32.2920   48.9854 H   0  0  0  0  0  0  0  0  0  0  0  0
   23.2285   31.6545   50.5049 H   0  0  0  0  0  0  0  0  0  0  0  0
   24.3337   31.7947   49.1514 H   0  0  0  0  0  0  0  0  0  0  0  0
   23.8244   34.1556   48.8642 H   0  0  0  0  0  0  0  0  0  0  0  0
   22.4967   34.0658   50.0149 H   0  0  0  0  0  0  0  0  0  0  0  0
   26.0015   34.4752   52.7459 H   0  0  0  0  0  0  0  0  0  0  0  0
   21.9963   33.2410   51.8359 H   0  0  0  0  0  0  0  0  0  0  0  0
   25.3032   33.5521   56.7682 H   0  0  0  0  0  0  0  0  0  0  0  0
   24.9972   32.4762   58.9479 H   0  0  0  0  0  0  0  0  0  0  0  0
   22.7994   31.4979   59.5466 H   0  0  0  0  0  0  0  0  0  0  0  0
   20.4141   31.8025   59.2678 H   0  0  0  0  0  0  0  0  0  0  0  0
   19.7391   32.3061   57.7194 H   0  0  0  0  0  0  0  0  0  0  0  0
   19.3216   26.8239   56.7451 H   0  0  0  0  0  0  0  0  0  0  0  0
   20.1722   27.1642   59.0248 H   0  0  0  0  0  0  0  0  0  0  0  0
   17.9273   26.9475   55.0955 H   0  0  0  0  0  0  0  0  0  0  0  0
   17.5057   28.7525   51.2508 H   0  0  0  0  0  0  0  0  0  0  0  0
   19.9108   30.6644   54.2477 H   0  0  0  0  0  0  0  0  0  0  0  0
   21.2808   32.5008   55.7071 H   0  0  0  0  0  0  0  0  0  0  0  0
   21.2201   30.3651   47.6433 H   0  0  0  0  0  0  0  0  0  0  0  0
  1  2  1  0
  1 36  1  0
  1 37  1  0
  1 38  1  0
  2  3  1  0
  2  4  1  0
  2 61  1  0
  3 39  1  0
  3 40  1  0
  3 41  1  0
  4  5  1  0
  4 42  1  0
  4 43  1  0
  5  6  1  0
  5 44  1  0
  5 45  1  0
  6  7  1  0
  6 46  1  0
  6 47  1  0
  7  8  1  0
  8  9  2  0
  8 13  1  0
  9 10  1  0
  9 48  1  0
 10 11  2  0
 11 12  1  0
 11 14  1  0
 12 13  2  0
 13 49  1  0
 14 15  2  0
 14 35  1  0
 15 16  1  0
 15 50  1  0
 16 17  2  0
 16 51  1  0
 17 18  1  0
 17 52  1  0
 18 19  1  0
 18 35  2  0
 19 20  1  0
 19 53  1  0
 19 54  1  0
 20 21  1  0
 20 25  1  0
 21 22  2  0
 22 23  1  0
 22 27  1  0
 23 24  2  0
 23 55  1  0
 24 25  1  0
 24 56  1  0
 25 26  2  0
 27 28  2  0
 27 34  1  0
 28 29  1  0
 28 57  1  0
 29 30  1  0
 29 31  2  0
 31 32  1  0
 31 58  1  0
 32 33  1  0
 32 34  2  0
 34 59  1  0
 35 60  1  0
M  CHG  1   2   1
M  END
>  <r_exp_dg>  (18) 
-11.6897

>  <mol_id>  (18) 
17

>  <source_index>  (18) 
17

>  <paff>  (18) 
8.5701872526375773

>  <source_r_exp_dg>  (18) 
-11.6897

>  <smiles>  (18) 
CN(C)CCCOc1cnc(-c2cccc(Cn3nc(-c4cc(F)cc(F)c4)ccc3=O)c2)nc1

>  <aimnet_interaction_kcal_mol>  (18) 
-62.631103674675657

$$$$
cmet_018
     RDKit          3D

 66 70  0  0  1  0  0  0  0  0999 V2000
   21.7091   27.9418   48.0504 C   0  0  0  0  0  0  0  0  0  0  0  0
   22.1112   29.3050   47.5654 N   0  0  2  0  0  0  0  0  0  0  0  0
   23.5971   29.5877   47.7631 C   0  0  0  0  0  0  0  0  0  0  0  0
   23.8614   31.0443   48.0411 C   0  0  0  0  0  0  0  0  0  0  0  0
   23.2029   31.5068   49.3434 C   0  0  1  0  0  0  0  0  0  0  0  0
   23.2989   33.0371   49.5152 C   0  0  0  0  0  0  0  0  0  0  0  0
   24.2966   33.4190   50.4686 O   0  0  0  0  0  0  0  0  0  0  0  0
   23.9771   33.3278   51.7861 C   0  0  0  0  0  0  0  0  0  0  0  0
   24.9234   33.7663   52.7161 C   0  0  0  0  0  0  0  0  0  0  0  0
   24.7609   33.6023   54.0253 N   0  0  0  0  0  0  0  0  0  0  0  0
   23.5929   33.0545   54.4247 C   0  0  0  0  0  0  0  0  0  0  0  0
   22.6087   32.6685   53.6077 N   0  0  0  0  0  0  0  0  0  0  0  0
   22.7920   32.8136   52.2981 C   0  0  0  0  0  0  0  0  0  0  0  0
   23.3611   32.8797   55.8543 C   0  0  0  0  0  0  0  0  0  0  0  0
   24.4024   33.0098   56.7705 C   0  0  0  0  0  0  0  0  0  0  0  0
   24.2404   32.5389   58.0634 C   0  0  0  0  0  0  0  0  0  0  0  0
   23.0141   32.0488   58.4772 C   0  0  0  0  0  0  0  0  0  0  0  0
   21.9126   32.0967   57.6307 C   0  0  0  0  0  0  0  0  0  0  0  0
   20.5590   31.7202   58.1469 C   0  0  0  0  0  0  0  0  0  0  0  0
   20.2336   30.3209   57.8689 N   0  0  0  0  0  0  0  0  0  0  0  0
   19.7852   30.1159   56.6325 N   0  0  0  0  0  0  0  0  0  0  0  0
   19.5036   28.8856   56.2759 C   0  0  0  0  0  0  0  0  0  0  0  0
   19.6383   27.7986   57.1904 C   0  0  0  0  0  0  0  0  0  0  0  0
   20.1040   28.0238   58.4411 C   0  0  0  0  0  0  0  0  0  0  0  0
   20.4446   29.3589   58.8550 C   0  0  0  0  0  0  0  0  0  0  0  0
   20.8817   29.6802   59.9739 O   0  0  0  0  0  0  0  0  0  0  0  0
   19.0428   28.6844   54.9007 C   0  0  0  0  0  0  0  0  0  0  0  0
   19.4447   29.5393   53.8701 C   0  0  0  0  0  0  0  0  0  0  0  0
   19.0308   29.3077   52.5667 C   0  0  0  0  0  0  0  0  0  0  0  0
   18.1950   28.2457   52.2742 C   0  0  0  0  0  0  0  0  0  0  0  0
   17.7812   27.3979   53.2989 C   0  0  0  0  0  0  0  0  0  0  0  0
   18.1881   27.6303   54.6110 C   0  0  0  0  0  0  0  0  0  0  0  0
   16.9600   26.2745   53.0348 C   0  0  0  0  0  0  0  0  0  0  0  0
   16.2994   25.3344   52.8775 N   0  0  0  0  0  0  0  0  0  0  0  0
   22.0943   32.4882   56.3131 C   0  0  0  0  0  0  0  0  0  0  0  0
   21.7705   30.9407   49.4500 C   0  0  0  0  0  0  0  0  0  0  0  0
   21.2341   30.4025   48.1427 C   0  0  0  0  0  0  0  0  0  0  0  0
   21.5686   27.9699   49.1246 H   0  0  0  0  0  0  0  0  0  0  0  0
   20.7671   27.6654   47.5848 H   0  0  0  0  0  0  0  0  0  0  0  0
   22.4808   27.2237   47.7869 H   0  0  0  0  0  0  0  0  0  0  0  0
   23.9213   28.9610   48.5837 H   0  0  0  0  0  0  0  0  0  0  0  0
   24.1051   29.2336   46.8690 H   0  0  0  0  0  0  0  0  0  0  0  0
   23.5251   31.6490   47.1972 H   0  0  0  0  0  0  0  0  0  0  0  0
   24.9382   31.1815   48.1020 H   0  0  0  0  0  0  0  0  0  0  0  0
   23.7913   31.0977   50.1631 H   0  0  0  0  0  0  0  0  0  0  0  0
   22.3356   33.4716   49.7767 H   0  0  0  0  0  0  0  0  0  0  0  0
   23.6282   33.5132   48.5943 H   0  0  0  0  0  0  0  0  0  0  0  0
   25.8252   34.2648   52.3775 H   0  0  0  0  0  0  0  0  0  0  0  0
   21.9557   32.5465   51.6671 H   0  0  0  0  0  0  0  0  0  0  0  0
   25.3262   33.4986   56.4970 H   0  0  0  0  0  0  0  0  0  0  0  0
   25.0713   32.5686   58.7503 H   0  0  0  0  0  0  0  0  0  0  0  0
   22.8993   31.6251   59.4627 H   0  0  0  0  0  0  0  0  0  0  0  0
   19.7787   32.3069   57.6699 H   0  0  0  0  0  0  0  0  0  0  0  0
   20.4891   31.8599   59.2201 H   0  0  0  0  0  0  0  0  0  0  0  0
   19.4008   26.7902   56.8827 H   0  0  0  0  0  0  0  0  0  0  0  0
   20.2343   27.2172   59.1448 H   0  0  0  0  0  0  0  0  0  0  0  0
   20.0828   30.3792   54.1060 H   0  0  0  0  0  0  0  0  0  0  0  0
   19.3580   29.9602   51.7663 H   0  0  0  0  0  0  0  0  0  0  0  0
   17.9003   28.0290   51.2583 H   0  0  0  0  0  0  0  0  0  0  0  0
   17.8445   26.9777   55.3935 H   0  0  0  0  0  0  0  0  0  0  0  0
   21.2679   32.4366   55.6160 H   0  0  0  0  0  0  0  0  0  0  0  0
   21.7049   30.1582   50.2039 H   0  0  0  0  0  0  0  0  0  0  0  0
   21.0821   31.7173   49.7713 H   0  0  0  0  0  0  0  0  0  0  0  0
   20.2408   29.9736   48.2560 H   0  0  0  0  0  0  0  0  0  0  0  0
   21.1842   31.1859   47.3903 H   0  0  0  0  0  0  0  0  0  0  0  0
   21.9429   29.3112   46.5646 H   0  0  0  0  0  0  0  0  0  0  0  0
  1  2  1  0
  1 38  1  0
  1 39  1  0
  1 40  1  0
  2  3  1  0
  2 37  1  0
  2 66  1  6
  3  4  1  0
  3 41  1  0
  3 42  1  0
  4  5  1  0
  4 43  1  0
  4 44  1  0
  5  6  1  0
  5 36  1  0
  5 45  1  1
  6  7  1  0
  6 46  1  0
  6 47  1  0
  7  8  1  0
  8  9  2  0
  8 13  1  0
  9 10  1  0
  9 48  1  0
 10 11  2  0
 11 12  1  0
 11 14  1  0
 12 13  2  0
 13 49  1  0
 14 15  2  0
 14 35  1  0
 15 16  1  0
 15 50  1  0
 16 17  2  0
 16 51  1  0
 17 18  1  0
 17 52  1  0
 18 19  1  0
 18 35  2  0
 19 20  1  0
 19 53  1  0
 19 54  1  0
 20 21  1  0
 20 25  1  0
 21 22  2  0
 22 23  1  0
 22 27  1  0
 23 24  2  0
 23 55  1  0
 24 25  1  0
 24 56  1  0
 25 26  2  0
 27 28  2  0
 27 32  1  0
 28 29  1  0
 28 57  1  0
 29 30  2  0
 29 58  1  0
 30 31  1  0
 30 59  1  0
 31 32  2  0
 31 33  1  0
 32 60  1  0
 33 34  3  0
 35 61  1  0
 36 37  1  0
 36 62  1  0
 36 63  1  0
 37 64  1  0
 37 65  1  0
M  CHG  1   2   1
M  END
>  <r_exp_dg>  (19) 
-12.2782

>  <mol_id>  (19) 
18

>  <source_index>  (19) 
18

>  <paff>  (19) 
9.0016290938749339

>  <source_r_exp_dg>  (19) 
-12.2782

>  <smiles>  (19) 
CN1CCC(COc2cnc(-c3cccc(Cn4nc(-c5cccc(C#N)c5)ccc4=O)c3)nc2)CC1

>  <aimnet_interaction_kcal_mol>  (19) 
-76.472292689103213

$$$$
cmet_019
     RDKit          3D

 62 65  0  0  1  0  0  0  0  0999 V2000
   24.2661   29.7564   47.8397 C   0  0  0  0  0  0  0  0  0  0  0  0
   22.9295   30.4301   47.7856 N   0  0  0  0  0  0  0  0  0  0  0  0
   21.8872   29.7459   48.6192 C   0  0  0  0  0  0  0  0  0  0  0  0
   23.0275   31.9199   48.0880 C   0  0  0  0  0  0  0  0  0  0  0  0
   23.7446   32.2563   49.3759 C   0  0  0  0  0  0  0  0  0  0  0  0
   23.5692   33.7435   49.6830 C   0  0  0  0  0  0  0  0  0  0  0  0
   24.4361   34.1701   50.7280 O   0  0  0  0  0  0  0  0  0  0  0  0
   24.1052   33.8406   52.0059 C   0  0  0  0  0  0  0  0  0  0  0  0
   25.0609   34.0786   52.9896 C   0  0  0  0  0  0  0  0  0  0  0  0
   24.8615   33.7507   54.2597 N   0  0  0  0  0  0  0  0  0  0  0  0
   23.6453   33.2567   54.5742 C   0  0  0  0  0  0  0  0  0  0  0  0
   22.6606   33.0300   53.6998 N   0  0  0  0  0  0  0  0  0  0  0  0
   22.8882   33.3191   52.4206 C   0  0  0  0  0  0  0  0  0  0  0  0
   23.3712   32.9483   55.9726 C   0  0  0  0  0  0  0  0  0  0  0  0
   24.3879   33.0267   56.9233 C   0  0  0  0  0  0  0  0  0  0  0  0
   24.1945   32.4846   58.1819 C   0  0  0  0  0  0  0  0  0  0  0  0
   22.9549   31.9826   58.5400 C   0  0  0  0  0  0  0  0  0  0  0  0
   21.8794   32.0749   57.6655 C   0  0  0  0  0  0  0  0  0  0  0  0
   20.5109   31.7014   58.1414 C   0  0  0  0  0  0  0  0  0  0  0  0
   20.1965   30.3007   57.8639 N   0  0  0  0  0  0  0  0  0  0  0  0
   19.7546   30.0942   56.6264 N   0  0  0  0  0  0  0  0  0  0  0  0
   19.4813   28.8626   56.2673 C   0  0  0  0  0  0  0  0  0  0  0  0
   19.6274   27.7747   57.1792 C   0  0  0  0  0  0  0  0  0  0  0  0
   20.0932   28.0010   58.4301 C   0  0  0  0  0  0  0  0  0  0  0  0
   20.4198   29.3385   58.8472 C   0  0  0  0  0  0  0  0  0  0  0  0
   20.8563   29.6629   59.9658 O   0  0  0  0  0  0  0  0  0  0  0  0
   19.0180   28.6654   54.8937 C   0  0  0  0  0  0  0  0  0  0  0  0
   19.4048   29.5338   53.8681 C   0  0  0  0  0  0  0  0  0  0  0  0
   18.9831   29.3114   52.5665 C   0  0  0  0  0  0  0  0  0  0  0  0
   18.1614   28.2390   52.2679 C   0  0  0  0  0  0  0  0  0  0  0  0
   17.7615   27.3796   53.2882 C   0  0  0  0  0  0  0  0  0  0  0  0
   18.1704   27.6067   54.6003 C   0  0  0  0  0  0  0  0  0  0  0  0
   16.9488   26.2509   53.0195 C   0  0  0  0  0  0  0  0  0  0  0  0
   16.2921   25.3082   52.8594 N   0  0  0  0  0  0  0  0  0  0  0  0
   22.0974   32.5106   56.3677 C   0  0  0  0  0  0  0  0  0  0  0  0
   24.1495   28.7189   47.5464 H   0  0  0  0  0  0  0  0  0  0  0  0
   24.9506   30.2733   47.1745 H   0  0  0  0  0  0  0  0  0  0  0  0
   24.6631   29.7942   48.8422 H   0  0  0  0  0  0  0  0  0  0  0  0
   22.1225   29.8789   49.6648 H   0  0  0  0  0  0  0  0  0  0  0  0
   20.9217   30.1927   48.4084 H   0  0  0  0  0  0  0  0  0  0  0  0
   21.8680   28.6889   48.3764 H   0  0  0  0  0  0  0  0  0  0  0  0
   22.0080   32.3005   48.0857 H   0  0  0  0  0  0  0  0  0  0  0  0
   23.5482   32.3537   47.2362 H   0  0  0  0  0  0  0  0  0  0  0  0
   24.8057   32.0486   49.2890 H   0  0  0  0  0  0  0  0  0  0  0  0
   23.3635   31.6705   50.2094 H   0  0  0  0  0  0  0  0  0  0  0  0
   22.5264   33.9722   49.9028 H   0  0  0  0  0  0  0  0  0  0  0  0
   23.8632   34.3450   48.8240 H   0  0  0  0  0  0  0  0  0  0  0  0
   26.0048   34.5399   52.7285 H   0  0  0  0  0  0  0  0  0  0  0  0
   22.0701   33.1468   51.7347 H   0  0  0  0  0  0  0  0  0  0  0  0
   25.3159   33.5324   56.7031 H   0  0  0  0  0  0  0  0  0  0  0  0
   25.0082   32.4726   58.8896 H   0  0  0  0  0  0  0  0  0  0  0  0
   22.8053   31.5189   59.5026 H   0  0  0  0  0  0  0  0  0  0  0  0
   19.7458   32.2834   57.6364 H   0  0  0  0  0  0  0  0  0  0  0  0
   20.4102   31.8499   59.2111 H   0  0  0  0  0  0  0  0  0  0  0  0
   19.3980   26.7651   56.8687 H   0  0  0  0  0  0  0  0  0  0  0  0
   20.2335   27.1932   59.1308 H   0  0  0  0  0  0  0  0  0  0  0  0
   20.0382   30.3769   54.1092 H   0  0  0  0  0  0  0  0  0  0  0  0
   19.2967   29.9775   51.7719 H   0  0  0  0  0  0  0  0  0  0  0  0
   17.8711   28.0188   51.2516 H   0  0  0  0  0  0  0  0  0  0  0  0
   17.8349   26.9466   55.3797 H   0  0  0  0  0  0  0  0  0  0  0  0
   21.2921   32.4698   55.6457 H   0  0  0  0  0  0  0  0  0  0  0  0
   22.6073   30.3603   46.8225 H   0  0  0  0  0  0  0  0  0  0  0  0
  1  2  1  0
  1 36  1  0
  1 37  1  0
  1 38  1  0
  2  3  1  0
  2  4  1  0
  2 62  1  0
  3 39  1  0
  3 40  1  0
  3 41  1  0
  4  5  1  0
  4 42  1  0
  4 43  1  0
  5  6  1  0
  5 44  1  0
  5 45  1  0
  6  7  1  0
  6 46  1  0
  6 47  1  0
  7  8  1  0
  8  9  2  0
  8 13  1  0
  9 10  1  0
  9 48  1  0
 10 11  2  0
 11 12  1  0
 11 14  1  0
 12 13  2  0
 13 49  1  0
 14 15  2  0
 14 35  1  0
 15 16  1  0
 15 50  1  0
 16 17  2  0
 16 51  1  0
 17 18  1  0
 17 52  1  0
 18 19  1  0
 18 35  2  0
 19 20  1  0
 19 53  1  0
 19 54  1  0
 20 21  1  0
 20 25  1  0
 21 22  2  0
 22 23  1  0
 22 27  1  0
 23 24  2  0
 23 55  1  0
 24 25  1  0
 24 56  1  0
 25 26  2  0
 27 28  2  0
 27 32  1  0
 28 29  1  0
 28 57  1  0
 29 30  2  0
 29 58  1  0
 30 31  1  0
 30 59  1  0
 31 32  2  0
 31 33  1  0
 32 60  1  0
 33 34  3  0
 35 61  1  0
M  CHG  1   2   1
M  END
>  <r_exp_dg>  (20) 
-12.2782

>  <mol_id>  (20) 
19

>  <source_index>  (20) 
19

>  <paff>  (20) 
9.0016290938749339

>  <source_r_exp_dg>  (20) 
-12.2782

>  <smiles>  (20) 
CN(C)CCCOc1cnc(-c2cccc(Cn3nc(-c4cccc(C#N)c4)ccc3=O)c2)nc1

>  <aimnet_interaction_kcal_mol>  (20) 
-71.530979741799214

$$$$
cmet_020
     RDKit          3D

 61 64  0  0  1  0  0  0  0  0999 V2000
   20.8120   28.9743   49.1954 C   0  0  0  0  0  0  0  0  0  0  0  0
   20.4361   30.0687   50.1503 N   0  0  0  0  0  0  0  0  0  0  0  0
   20.6284   29.6646   51.5832 C   0  0  0  0  0  0  0  0  0  0  0  0
   21.0686   31.4117   49.8125 C   0  0  0  0  0  0  0  0  0  0  0  0
   22.5315   31.5524   50.1773 C   0  0  0  0  0  0  0  0  0  0  0  0
   23.0445   32.9738   49.8980 C   0  0  0  0  0  0  0  0  0  0  0  0
   24.1480   33.3258   50.7383 O   0  0  0  0  0  0  0  0  0  0  0  0
   23.8848   33.4766   52.0640 C   0  0  0  0  0  0  0  0  0  0  0  0
   24.9580   33.6074   52.9452 C   0  0  0  0  0  0  0  0  0  0  0  0
   24.7867   33.5681   54.2632 N   0  0  0  0  0  0  0  0  0  0  0  0
   23.5246   33.3641   54.7010 C   0  0  0  0  0  0  0  0  0  0  0  0
   22.4285   33.4120   53.9375 N   0  0  0  0  0  0  0  0  0  0  0  0
   22.6126   33.4958   52.6206 C   0  0  0  0  0  0  0  0  0  0  0  0
   23.3149   33.0284   56.1012 C   0  0  0  0  0  0  0  0  0  0  0  0
   24.3612   33.0922   57.0163 C   0  0  0  0  0  0  0  0  0  0  0  0
   24.2025   32.5336   58.2721 C   0  0  0  0  0  0  0  0  0  0  0  0
   22.9761   32.0140   58.6524 C   0  0  0  0  0  0  0  0  0  0  0  0
   21.8746   32.1179   57.8145 C   0  0  0  0  0  0  0  0  0  0  0  0
   20.5202   31.7480   58.3229 C   0  0  0  0  0  0  0  0  0  0  0  0
   20.1413   30.3924   57.9321 N   0  0  0  0  0  0  0  0  0  0  0  0
   19.6707   30.3121   56.6989 N   0  0  0  0  0  0  0  0  0  0  0  0
   19.3141   29.1321   56.2408 C   0  0  0  0  0  0  0  0  0  0  0  0
   19.4580   27.9615   57.0378 C   0  0  0  0  0  0  0  0  0  0  0  0
   19.9739   28.0566   58.2901 C   0  0  0  0  0  0  0  0  0  0  0  0
   20.3439   29.3368   58.8252 C   0  0  0  0  0  0  0  0  0  0  0  0
   20.7968   29.5558   59.9586 O   0  0  0  0  0  0  0  0  0  0  0  0
   18.7146   29.1348   54.9074 C   0  0  0  0  0  0  0  0  0  0  0  0
   18.5647   30.3477   54.2297 C   0  0  0  0  0  0  0  0  0  0  0  0
   17.8442   30.4075   53.0500 C   0  0  0  0  0  0  0  0  0  0  0  0
   17.2762   29.2615   52.5074 C   0  0  0  0  0  0  0  0  0  0  0  0
   17.4622   28.0642   53.1757 C   0  0  0  0  0  0  0  0  0  0  0  0
   16.8742   26.9536   52.6861 F   0  0  0  0  0  0  0  0  0  0  0  0
   18.2076   27.9673   54.3370 C   0  0  0  0  0  0  0  0  0  0  0  0
   22.0563   32.5713   56.5193 C   0  0  0  0  0  0  0  0  0  0  0  0
   20.4096   28.0371   49.5692 H   0  0  0  0  0  0  0  0  0  0  0  0
   21.8894   28.9091   49.1305 H   0  0  0  0  0  0  0  0  0  0  0  0
   20.3955   29.2008   48.2196 H   0  0  0  0  0  0  0  0  0  0  0  0
   20.4871   30.5285   52.2209 H   0  0  0  0  0  0  0  0  0  0  0  0
   19.9147   28.8874   51.8389 H   0  0  0  0  0  0  0  0  0  0  0  0
   21.6309   29.2856   51.7022 H   0  0  0  0  0  0  0  0  0  0  0  0
   20.9014   31.5589   48.7469 H   0  0  0  0  0  0  0  0  0  0  0  0
   20.4723   32.1538   50.3421 H   0  0  0  0  0  0  0  0  0  0  0  0
   22.6582   31.3633   51.2401 H   0  0  0  0  0  0  0  0  0  0  0  0
   23.1474   30.8358   49.6397 H   0  0  0  0  0  0  0  0  0  0  0  0
   23.4366   33.0528   48.8876 H   0  0  0  0  0  0  0  0  0  0  0  0
   22.2370   33.6960   50.0046 H   0  0  0  0  0  0  0  0  0  0  0  0
   25.9639   33.7307   52.5641 H   0  0  0  0  0  0  0  0  0  0  0  0
   21.7245   33.5747   52.0125 H   0  0  0  0  0  0  0  0  0  0  0  0
   25.2829   33.5963   56.7705 H   0  0  0  0  0  0  0  0  0  0  0  0
   25.0330   32.5211   58.9596 H   0  0  0  0  0  0  0  0  0  0  0  0
   22.8550   31.5271   59.6049 H   0  0  0  0  0  0  0  0  0  0  0  0
   20.4781   31.7895   59.4048 H   0  0  0  0  0  0  0  0  0  0  0  0
   19.7556   32.4050   57.9199 H   0  0  0  0  0  0  0  0  0  0  0  0
   19.1504   26.9979   56.6615 H   0  0  0  0  0  0  0  0  0  0  0  0
   20.1116   27.1922   58.9215 H   0  0  0  0  0  0  0  0  0  0  0  0
   18.9972   31.2365   54.6638 H   0  0  0  0  0  0  0  0  0  0  0  0
   17.6878   31.3559   52.5499 H   0  0  0  0  0  0  0  0  0  0  0  0
   16.6644   29.2883   51.6174 H   0  0  0  0  0  0  0  0  0  0  0  0
   18.3607   26.9982   54.7811 H   0  0  0  0  0  0  0  0  0  0  0  0
   21.2349   32.5346   55.8155 H   0  0  0  0  0  0  0  0  0  0  0  0
   19.4290   30.1972   50.0489 H   0  0  0  0  0  0  0  0  0  0  0  0
  1  2  1  0
  1 35  1  0
  1 36  1  0
  1 37  1  0
  2  3  1  0
  2  4  1  0
  2 61  1  0
  3 38  1  0
  3 39  1  0
  3 40  1  0
  4  5  1  0
  4 41  1  0
  4 42  1  0
  5  6  1  0
  5 43  1  0
  5 44  1  0
  6  7  1  0
  6 45  1  0
  6 46  1  0
  7  8  1  0
  8  9  2  0
  8 13  1  0
  9 10  1  0
  9 47  1  0
 10 11  2  0
 11 12  1  0
 11 14  1  0
 12 13  2  0
 13 48  1  0
 14 15  2  0
 14 34  1  0
 15 16  1  0
 15 49  1  0
 16 17  2  0
 16 50  1  0
 17 18  1  0
 17 51  1  0
 18 19  1  0
 18 34  2  0
 19 20  1  0
 19 52  1  0
 19 53  1  0
 20 21  1  0
 20 25  1  0
 21 22  2  0
 22 23  1  0
 22 27  1  0
 23 24  2  0
 23 54  1  0
 24 25  1  0
 24 55  1  0
 25 26  2  0
 27 28  2  0
 27 33  1  0
 28 29  1  0
 28 56  1  0
 29 30  2  0
 29 57  1  0
 30 31  1  0
 30 58  1  0
 31 32  1  0
 31 33  2  0
 33 59  1  0
 34 60  1  0
M  CHG  1   2   1
M  END
>  <r_exp_dg>  (21) 
-11.1692

>  <mol_id>  (21) 
20

>  <source_index>  (21) 
20

>  <paff>  (21) 
8.1885686018599788

>  <source_r_exp_dg>  (21) 
-11.1692

>  <smiles>  (21) 
CN(C)CCCOc1cnc(-c2cccc(Cn3nc(-c4cccc(F)c4)ccc3=O)c2)nc1

>  <aimnet_interaction_kcal_mol>  (21) 
-66.05560787424622

$$$$
cmet_021
     RDKit          3D

 63 67  0  0  1  0  0  0  0  0999 V2000
   20.8195   29.6203   59.9937 O   0  0  0  0  0  0  0  0  0  0  0  0
   20.4002   29.3016   58.8647 C   0  0  0  0  0  0  0  0  0  0  0  0
   20.0853   27.9656   58.4363 C   0  0  0  0  0  0  0  0  0  0  0  0
   19.6332   27.7450   57.1793 C   0  0  0  0  0  0  0  0  0  0  0  0
   19.4930   28.8386   56.2721 C   0  0  0  0  0  0  0  0  0  0  0  0
   19.7572   30.0670   56.6430 N   0  0  0  0  0  0  0  0  0  0  0  0
   20.1874   30.2675   57.8853 N   0  0  0  0  0  0  0  0  0  0  0  0
   20.4916   31.6684   58.1733 C   0  0  0  0  0  0  0  0  0  0  0  0
   21.8608   32.0555   57.7122 C   0  0  0  0  0  0  0  0  0  0  0  0
   22.9269   31.9766   58.5981 C   0  0  0  0  0  0  0  0  0  0  0  0
   24.1630   32.5024   58.2601 C   0  0  0  0  0  0  0  0  0  0  0  0
   24.3622   33.0534   57.0062 C   0  0  0  0  0  0  0  0  0  0  0  0
   23.3572   32.9681   56.0447 C   0  0  0  0  0  0  0  0  0  0  0  0
   22.0880   32.4991   56.4184 C   0  0  0  0  0  0  0  0  0  0  0  0
   23.6382   33.3033   54.6534 C   0  0  0  0  0  0  0  0  0  0  0  0
   22.6502   33.1031   53.7778 N   0  0  0  0  0  0  0  0  0  0  0  0
   22.8790   33.3986   52.5008 C   0  0  0  0  0  0  0  0  0  0  0  0
   24.1146   33.8880   52.0832 C   0  0  0  0  0  0  0  0  0  0  0  0
   24.4383   34.2163   50.8144 O   0  0  0  0  0  0  0  0  0  0  0  0
   23.7497   33.5426   49.7441 C   0  0  0  0  0  0  0  0  0  0  0  0
   24.2840   32.1333   49.5551 C   0  0  0  0  0  0  0  0  0  0  0  0
   23.5761   31.4476   48.5037 N   0  0  0  0  0  0  0  0  0  0  0  0
   24.3225   30.4239   47.8000 C   0  0  0  0  0  0  0  0  0  0  0  0
   23.6203   30.1246   46.4785 C   0  0  0  0  0  0  0  0  0  0  0  0
   22.1981   30.1288   46.5869 O   0  0  0  0  0  0  0  0  0  0  0  0
   21.7645   29.8889   47.9077 C   0  0  0  0  0  0  0  0  0  0  0  0
   22.2322   30.9880   48.8564 C   0  0  0  0  0  0  0  0  0  0  0  0
   25.0697   34.1047   53.0740 C   0  0  0  0  0  0  0  0  0  0  0  0
   24.8582   33.7850   54.3459 N   0  0  0  0  0  0  0  0  0  0  0  0
   19.0425   28.6380   54.8942 C   0  0  0  0  0  0  0  0  0  0  0  0
   19.4929   29.4494   53.8484 C   0  0  0  0  0  0  0  0  0  0  0  0
   19.1098   29.1882   52.5411 C   0  0  0  0  0  0  0  0  0  0  0  0
   18.2406   28.1486   52.2616 C   0  0  0  0  0  0  0  0  0  0  0  0
   17.7710   27.3509   53.3015 C   0  0  0  0  0  0  0  0  0  0  0  0
   18.1514   27.6103   54.6163 C   0  0  0  0  0  0  0  0  0  0  0  0
   16.9240   26.2427   53.0484 C   0  0  0  0  0  0  0  0  0  0  0  0
   16.2417   25.3156   52.9058 N   0  0  0  0  0  0  0  0  0  0  0  0
   20.2254   27.1539   59.1324 H   0  0  0  0  0  0  0  0  0  0  0  0
   19.4092   26.7372   56.8580 H   0  0  0  0  0  0  0  0  0  0  0  0
   19.7265   32.2475   57.6650 H   0  0  0  0  0  0  0  0  0  0  0  0
   20.3795   31.8085   59.2432 H   0  0  0  0  0  0  0  0  0  0  0  0
   22.7715   31.5040   59.5557 H   0  0  0  0  0  0  0  0  0  0  0  0
   24.9690   32.4995   58.9771 H   0  0  0  0  0  0  0  0  0  0  0  0
   25.2870   33.5673   56.7906 H   0  0  0  0  0  0  0  0  0  0  0  0
   21.2958   32.4462   55.6823 H   0  0  0  0  0  0  0  0  0  0  0  0
   22.0546   33.2692   51.8158 H   0  0  0  0  0  0  0  0  0  0  0  0
   22.6761   33.5337   49.9078 H   0  0  0  0  0  0  0  0  0  0  0  0
   23.9466   34.1454   48.8629 H   0  0  0  0  0  0  0  0  0  0  0  0
   25.3400   32.2097   49.2989 H   0  0  0  0  0  0  0  0  0  0  0  0
   24.2469   31.5981   50.5146 H   0  0  0  0  0  0  0  0  0  0  0  0
   25.3265   30.7876   47.5954 H   0  0  0  0  0  0  0  0  0  0  0  0
   24.4428   29.5007   48.3805 H   0  0  0  0  0  0  0  0  0  0  0  0
   23.9582   29.1624   46.0821 H   0  0  0  0  0  0  0  0  0  0  0  0
   23.8685   30.9002   45.7541 H   0  0  0  0  0  0  0  0  0  0  0  0
   22.1071   28.9054   48.2554 H   0  0  0  0  0  0  0  0  0  0  0  0
   20.6774   29.8574   47.8808 H   0  0  0  0  0  0  0  0  0  0  0  0
   22.1936   30.5876   49.8784 H   0  0  0  0  0  0  0  0  0  0  0  0
   21.5309   31.8248   48.8115 H   0  0  0  0  0  0  0  0  0  0  0  0
   26.0237   34.5452   52.8116 H   0  0  0  0  0  0  0  0  0  0  0  0
   20.1426   30.2867   54.0719 H   0  0  0  0  0  0  0  0  0  0  0  0
   19.4929   29.7912   51.7283 H   0  0  0  0  0  0  0  0  0  0  0  0
   17.9668   27.9070   51.2456 H   0  0  0  0  0  0  0  0  0  0  0  0
   17.7656   26.9957   55.4107 H   0  0  0  0  0  0  0  0  0  0  0  0
  1  2  2  0
  2  3  1  0
  2  7  1  0
  3  4  2  0
  3 38  1  0
  4  5  1  0
  4 39  1  0
  5  6  2  0
  5 30  1  0
  6  7  1  0
  7  8  1  0
  8  9  1  0
  8 40  1  0
  8 41  1  0
  9 10  2  0
  9 14  1  0
 10 11  1  0
 10 42  1  0
 11 12  2  0
 11 43  1  0
 12 13  1  0
 12 44  1  0
 13 14  2  0
 13 15  1  0
 14 45  1  0
 15 16  2  0
 15 29  1  0
 16 17  1  0
 17 18  2  0
 17 46  1  0
 18 19  1  0
 18 28  1  0
 19 20  1  0
 20 21  1  0
 20 47  1  0
 20 48  1  0
 21 22  1  0
 21 49  1  0
 21 50  1  0
 22 23  1  0
 22 27  1  0
 23 24  1  0
 23 51  1  0
 23 52  1  0
 24 25  1  0
 24 53  1  0
 24 54  1  0
 25 26  1  0
 26 27  1  0
 26 55  1  0
 26 56  1  0
 27 57  1  0
 27 58  1  0
 28 29  2  0
 28 59  1  0
 30 31  2  0
 30 35  1  0
 31 32  1  0
 31 60  1  0
 32 33  2  0
 32 61  1  0
 33 34  1  0
 33 62  1  0
 34 35  2  0
 34 36  1  0
 35 63  1  0
 36 37  3  0
M  END
>  <r_exp_dg>  (22) 
-12.2782

>  <mol_id>  (22) 
21

>  <source_index>  (22) 
21

>  <paff>  (22) 
9.0016290938749339

>  <source_r_exp_dg>  (22) 
-12.2782

>  <smiles>  (22) 
N#Cc1cccc(-c2ccc(=O)n(Cc3cccc(-c4ncc(OCCN5CCOCC5)cn4)c3)n2)c1

>  <aimnet_interaction_kcal_mol>  (22) 
-80.897855784904166

$$$$
cmet_022
     RDKit          3D

 60 63  0  0  1  0  0  0  0  0999 V2000
   20.7763   28.9965   49.1962 C   0  0  0  0  0  0  0  0  0  0  0  0
   20.4048   30.0852   50.1564 N   0  0  0  0  0  0  0  0  0  0  0  0
   20.6098   29.6763   51.5872 C   0  0  0  0  0  0  0  0  0  0  0  0
   21.0346   31.4310   49.8293 C   0  0  0  0  0  0  0  0  0  0  0  0
   22.5045   31.5583   50.1679 C   0  0  0  0  0  0  0  0  0  0  0  0
   23.0256   32.9768   49.8894 C   0  0  0  0  0  0  0  0  0  0  0  0
   24.1345   33.3201   50.7270 O   0  0  0  0  0  0  0  0  0  0  0  0
   23.8768   33.4720   52.0534 C   0  0  0  0  0  0  0  0  0  0  0  0
   24.9534   33.6037   52.9308 C   0  0  0  0  0  0  0  0  0  0  0  0
   24.7872   33.5671   54.2497 N   0  0  0  0  0  0  0  0  0  0  0  0
   23.5266   33.3647   54.6924 C   0  0  0  0  0  0  0  0  0  0  0  0
   22.4287   33.4105   53.9322 N   0  0  0  0  0  0  0  0  0  0  0  0
   22.6066   33.4908   52.6145 C   0  0  0  0  0  0  0  0  0  0  0  0
   23.3201   33.0319   56.0940 C   0  0  0  0  0  0  0  0  0  0  0  0
   24.3686   33.0963   57.0065 C   0  0  0  0  0  0  0  0  0  0  0  0
   24.2120   32.5424   58.2644 C   0  0  0  0  0  0  0  0  0  0  0  0
   22.9855   32.0268   58.6493 C   0  0  0  0  0  0  0  0  0  0  0  0
   21.8821   32.1306   57.8141 C   0  0  0  0  0  0  0  0  0  0  0  0
   20.5278   31.7664   58.3281 C   0  0  0  0  0  0  0  0  0  0  0  0
   20.1395   30.4148   57.9316 N   0  0  0  0  0  0  0  0  0  0  0  0
   19.6668   30.3440   56.6992 N   0  0  0  0  0  0  0  0  0  0  0  0
   19.3026   29.1697   56.2335 C   0  0  0  0  0  0  0  0  0  0  0  0
   19.4363   27.9918   57.0256 C   0  0  0  0  0  0  0  0  0  0  0  0
   19.9569   28.0780   58.2754 C   0  0  0  0  0  0  0  0  0  0  0  0
   20.3395   29.3529   58.8167 C   0  0  0  0  0  0  0  0  0  0  0  0
   20.7988   29.5594   59.9496 O   0  0  0  0  0  0  0  0  0  0  0  0
   18.7082   29.1792   54.9014 C   0  0  0  0  0  0  0  0  0  0  0  0
   18.2615   28.0268   54.2591 C   0  0  0  0  0  0  0  0  0  0  0  0
   17.5886   28.1526   53.0528 C   0  0  0  0  0  0  0  0  0  0  0  0
   17.3976   29.4090   52.5091 C   0  0  0  0  0  0  0  0  0  0  0  0
   17.8720   30.5270   53.0781 N   0  0  0  0  0  0  0  0  0  0  0  0
   18.5077   30.3976   54.2435 C   0  0  0  0  0  0  0  0  0  0  0  0
   22.0615   32.5780   56.5163 C   0  0  0  0  0  0  0  0  0  0  0  0
   21.8527   28.8966   49.1635 H   0  0  0  0  0  0  0  0  0  0  0  0
   20.3995   29.2523   48.2113 H   0  0  0  0  0  0  0  0  0  0  0  0
   20.3364   28.0660   49.5404 H   0  0  0  0  0  0  0  0  0  0  0  0
   21.6359   29.3682   51.7117 H   0  0  0  0  0  0  0  0  0  0  0  0
   20.3952   30.5200   52.2319 H   0  0  0  0  0  0  0  0  0  0  0  0
   19.9480   28.8503   51.8294 H   0  0  0  0  0  0  0  0  0  0  0  0
   20.8474   31.6000   48.7700 H   0  0  0  0  0  0  0  0  0  0  0  0
   20.4504   32.1622   50.3862 H   0  0  0  0  0  0  0  0  0  0  0  0
   22.6445   31.3623   51.2279 H   0  0  0  0  0  0  0  0  0  0  0  0
   23.1067   30.8397   49.6167 H   0  0  0  0  0  0  0  0  0  0  0  0
   23.4160   33.0556   48.8783 H   0  0  0  0  0  0  0  0  0  0  0  0
   22.2224   33.7030   50.0000 H   0  0  0  0  0  0  0  0  0  0  0  0
   25.9581   33.7248   52.5462 H   0  0  0  0  0  0  0  0  0  0  0  0
   21.7161   33.5665   52.0092 H   0  0  0  0  0  0  0  0  0  0  0  0
   25.2904   33.5982   56.7570 H   0  0  0  0  0  0  0  0  0  0  0  0
   25.0441   32.5310   58.9500 H   0  0  0  0  0  0  0  0  0  0  0  0
   22.8668   31.5428   59.6036 H   0  0  0  0  0  0  0  0  0  0  0  0
   20.4908   31.8014   59.4105 H   0  0  0  0  0  0  0  0  0  0  0  0
   19.7650   32.4301   57.9319 H   0  0  0  0  0  0  0  0  0  0  0  0
   19.1144   27.0333   56.6489 H   0  0  0  0  0  0  0  0  0  0  0  0
   20.0894   27.2095   58.9022 H   0  0  0  0  0  0  0  0  0  0  0  0
   18.4193   27.0484   54.6817 H   0  0  0  0  0  0  0  0  0  0  0  0
   17.1994   27.2799   52.5490 H   0  0  0  0  0  0  0  0  0  0  0  0
   16.8287   29.5298   51.5928 H   0  0  0  0  0  0  0  0  0  0  0  0
   18.8687   31.3054   54.7101 H   0  0  0  0  0  0  0  0  0  0  0  0
   21.2387   32.5396   55.8134 H   0  0  0  0  0  0  0  0  0  0  0  0
   19.3962   30.2178   50.0656 H   0  0  0  0  0  0  0  0  0  0  0  0
  1  2  1  0
  1 34  1  0
  1 35  1  0
  1 36  1  0
  2  3  1  0
  2  4  1  0
  2 60  1  0
  3 37  1  0
  3 38  1  0
  3 39  1  0
  4  5  1  0
  4 40  1  0
  4 41  1  0
  5  6  1  0
  5 42  1  0
  5 43  1  0
  6  7  1  0
  6 44  1  0
  6 45  1  0
  7  8  1  0
  8  9  2  0
  8 13  1  0
  9 10  1  0
  9 46  1  0
 10 11  2  0
 11 12  1  0
 11 14  1  0
 12 13  2  0
 13 47  1  0
 14 15  2  0
 14 33  1  0
 15 16  1  0
 15 48  1  0
 16 17  2  0
 16 49  1  0
 17 18  1  0
 17 50  1  0
 18 19  1  0
 18 33  2  0
 19 20  1  0
 19 51  1  0
 19 52  1  0
 20 21  1  0
 20 25  1  0
 21 22  2  0
 22 23  1  0
 22 27  1  0
 23 24  2  0
 23 53  1  0
 24 25  1  0
 24 54  1  0
 25 26  2  0
 27 28  2  0
 27 32  1  0
 28 29  1  0
 28 55  1  0
 29 30  2  0
 29 56  1  0
 30 31  1  0
 30 57  1  0
 31 32  2  0
 32 58  1  0
 33 59  1  0
M  CHG  1   2   1
M  END
>  <r_exp_dg>  (23) 
-10.914

>  <mol_id>  (23) 
22

>  <source_index>  (23) 
22

>  <paff>  (23) 
8.0014477727000664

>  <source_r_exp_dg>  (23) 
-10.914

>  <smiles>  (23) 
CN(C)CCCOc1cnc(-c2cccc(Cn3nc(-c4cccnc4)ccc3=O)c2)nc1

>  <aimnet_interaction_kcal_mol>  (23) 
-70.531349039426175

$$$$
cmet_023
     RDKit          3D

 65 68  0  0  1  0  0  0  0  0999 V2000
   16.3285   26.1203   51.9588 C   0  0  0  0  0  0  0  0  0  0  0  0
   16.6651   26.4874   53.2864 O   0  0  0  0  0  0  0  0  0  0  0  0
   17.5213   27.5366   53.4339 C   0  0  0  0  0  0  0  0  0  0  0  0
   17.8181   28.4600   52.4380 C   0  0  0  0  0  0  0  0  0  0  0  0
   18.6708   29.5230   52.7122 C   0  0  0  0  0  0  0  0  0  0  0  0
   19.2326   29.6820   53.9638 C   0  0  0  0  0  0  0  0  0  0  0  0
   18.9297   28.7580   54.9682 C   0  0  0  0  0  0  0  0  0  0  0  0
   18.0877   27.6872   54.6960 C   0  0  0  0  0  0  0  0  0  0  0  0
   19.4621   28.9290   56.3177 C   0  0  0  0  0  0  0  0  0  0  0  0
   19.7773   30.1513   56.6755 N   0  0  0  0  0  0  0  0  0  0  0  0
   20.2204   30.3475   57.9137 N   0  0  0  0  0  0  0  0  0  0  0  0
   20.5429   31.7445   58.1987 C   0  0  0  0  0  0  0  0  0  0  0  0
   21.9061   32.1162   57.7058 C   0  0  0  0  0  0  0  0  0  0  0  0
   22.9871   32.0431   58.5740 C   0  0  0  0  0  0  0  0  0  0  0  0
   24.2190   32.5575   58.2061 C   0  0  0  0  0  0  0  0  0  0  0  0
   24.3993   33.0834   56.9397 C   0  0  0  0  0  0  0  0  0  0  0  0
   23.3803   32.9798   55.9942 C   0  0  0  0  0  0  0  0  0  0  0  0
   22.1136   32.5291   56.3987 C   0  0  0  0  0  0  0  0  0  0  0  0
   23.6468   33.2828   54.5934 C   0  0  0  0  0  0  0  0  0  0  0  0
   22.6543   33.0619   53.7268 N   0  0  0  0  0  0  0  0  0  0  0  0
   22.8743   33.3473   52.4459 C   0  0  0  0  0  0  0  0  0  0  0  0
   24.0932   33.8558   52.0207 C   0  0  0  0  0  0  0  0  0  0  0  0
   24.4170   34.1782   50.7391 O   0  0  0  0  0  0  0  0  0  0  0  0
   23.5392   33.7520   49.7027 C   0  0  0  0  0  0  0  0  0  0  0  0
   23.6964   32.2605   49.4093 C   0  0  0  0  0  0  0  0  0  0  0  0
   22.9499   31.9138   48.1418 C   0  0  0  0  0  0  0  0  0  0  0  0
   22.8607   30.4226   47.8453 N   0  0  0  0  0  0  0  0  0  0  0  0
   24.2053   29.7627   47.8714 C   0  0  0  0  0  0  0  0  0  0  0  0
   21.8406   29.7306   48.7001 C   0  0  0  0  0  0  0  0  0  0  0  0
   25.0582   34.0880   52.9960 C   0  0  0  0  0  0  0  0  0  0  0  0
   24.8649   33.7656   54.2683 N   0  0  0  0  0  0  0  0  0  0  0  0
   20.4402   29.3806   58.8908 C   0  0  0  0  0  0  0  0  0  0  0  0
   20.8835   29.6950   60.0108 O   0  0  0  0  0  0  0  0  0  0  0  0
   20.1020   28.0490   58.4657 C   0  0  0  0  0  0  0  0  0  0  0  0
   19.6194   27.8347   57.2191 C   0  0  0  0  0  0  0  0  0  0  0  0
   15.7702   25.1941   52.0273 H   0  0  0  0  0  0  0  0  0  0  0  0
   15.7075   26.8791   51.4777 H   0  0  0  0  0  0  0  0  0  0  0  0
   17.2259   25.9507   51.3689 H   0  0  0  0  0  0  0  0  0  0  0  0
   17.4097   28.3607   51.4447 H   0  0  0  0  0  0  0  0  0  0  0  0
   18.8914   30.2269   51.9186 H   0  0  0  0  0  0  0  0  0  0  0  0
   19.9058   30.4974   54.1886 H   0  0  0  0  0  0  0  0  0  0  0  0
   17.8571   26.9624   55.4583 H   0  0  0  0  0  0  0  0  0  0  0  0
   20.4584   31.8845   59.2710 H   0  0  0  0  0  0  0  0  0  0  0  0
   19.7715   32.3340   57.7105 H   0  0  0  0  0  0  0  0  0  0  0  0
   22.8496   31.5837   59.5399 H   0  0  0  0  0  0  0  0  0  0  0  0
   25.0364   32.5662   58.9100 H   0  0  0  0  0  0  0  0  0  0  0  0
   25.3198   33.5964   56.7082 H   0  0  0  0  0  0  0  0  0  0  0  0
   21.3075   32.4576   55.6797 H   0  0  0  0  0  0  0  0  0  0  0  0
   22.0495   33.1818   51.7664 H   0  0  0  0  0  0  0  0  0  0  0  0
   23.8361   34.3427   48.8373 H   0  0  0  0  0  0  0  0  0  0  0  0
   22.5006   33.9940   49.9270 H   0  0  0  0  0  0  0  0  0  0  0  0
   23.3287   31.6856   50.2562 H   0  0  0  0  0  0  0  0  0  0  0  0
   24.7539   32.0461   49.3030 H   0  0  0  0  0  0  0  0  0  0  0  0
   23.4445   32.3512   47.2764 H   0  0  0  0  0  0  0  0  0  0  0  0
   21.9267   32.2837   48.1657 H   0  0  0  0  0  0  0  0  0  0  0  0
   24.6237   29.8050   48.8649 H   0  0  0  0  0  0  0  0  0  0  0  0
   24.8710   30.2864   47.1923 H   0  0  0  0  0  0  0  0  0  0  0  0
   24.0931   28.7239   47.5810 H   0  0  0  0  0  0  0  0  0  0  0  0
   22.0955   29.8642   49.7411 H   0  0  0  0  0  0  0  0  0  0  0  0
   20.8684   30.1727   48.5101 H   0  0  0  0  0  0  0  0  0  0  0  0
   21.8207   28.6742   48.4550 H   0  0  0  0  0  0  0  0  0  0  0  0
   26.0044   34.5394   52.7268 H   0  0  0  0  0  0  0  0  0  0  0  0
   20.2436   27.2345   59.1577 H   0  0  0  0  0  0  0  0  0  0  0  0
   19.3804   26.8282   56.9070 H   0  0  0  0  0  0  0  0  0  0  0  0
   22.5191   30.3479   46.8895 H   0  0  0  0  0  0  0  0  0  0  0  0
  1  2  1  0
  1 36  1  0
  1 37  1  0
  1 38  1  0
  2  3  1  0
  3  4  2  0
  3  8  1  0
  4  5  1  0
  4 39  1  0
  5  6  2  0
  5 40  1  0
  6  7  1  0
  6 41  1  0
  7  8  2  0
  7  9  1  0
  8 42  1  0
  9 10  2  0
  9 35  1  0
 10 11  1  0
 11 12  1  0
 11 32  1  0
 12 13  1  0
 12 43  1  0
 12 44  1  0
 13 14  2  0
 13 18  1  0
 14 15  1  0
 14 45  1  0
 15 16  2  0
 15 46  1  0
 16 17  1  0
 16 47  1  0
 17 18  2  0
 17 19  1  0
 18 48  1  0
 19 20  2  0
 19 31  1  0
 20 21  1  0
 21 22  2  0
 21 49  1  0
 22 23  1  0
 22 30  1  0
 23 24  1  0
 24 25  1  0
 24 50  1  0
 24 51  1  0
 25 26  1  0
 25 52  1  0
 25 53  1  0
 26 27  1  0
 26 54  1  0
 26 55  1  0
 27 28  1  0
 27 29  1  0
 27 65  1  0
 28 56  1  0
 28 57  1  0
 28 58  1  0
 29 59  1  0
 29 60  1  0
 29 61  1  0
 30 31  2  0
 30 62  1  0
 32 33  2  0
 32 34  1  0
 34 35  2  0
 34 63  1  0
 35 64  1  0
M  CHG  1  27   1
M  END
>  <r_exp_dg>  (24) 
-11.247

>  <mol_id>  (24) 
23

>  <source_index>  (24) 
23

>  <paff>  (24) 
8.2456177630382541

>  <source_r_exp_dg>  (24) 
-11.247

>  <smiles>  (24) 
COc1cccc(-c2ccc(=O)n(Cc3cccc(-c4ncc(OCCCN(C)C)cn4)c3)n2)c1

>  <aimnet_interaction_kcal_mol>  (24) 
-66.237764788483304

$$$$
