L3:P28347:101735
     RDKit          3D

 64 68  0  0  0  0  0  0  0  0999 V2000
    1.0694    6.6019    0.6564 C   0  0  0  0  0  0  0  0  0  0  0  0
    0.7130    5.3150    0.6163 C   0  0  0  0  0  0  0  0  0  0  0  0
    0.9690    4.5185    1.6737 F   0  0  0  0  0  0  0  0  0  0  0  0
    0.0190    4.7072   -0.5573 C   0  0  0  0  0  0  0  0  0  0  0  0
   -0.3080    5.3923   -1.5258 O   0  0  0  0  0  0  0  0  0  0  0  0
   -0.2282    3.3698   -0.4969 N   0  0  0  0  0  0  0  0  0  0  0  0
    0.0206    2.3116    0.4573 C   0  0  0  0  0  0  0  0  0  0  0  0
   -0.3256    1.3270   -0.6776 C   0  0  0  0  0  0  0  0  0  0  0  0
   -1.3034    0.1737   -0.2826 C   0  0  0  0  0  0  0  0  0  0  0  0
   -2.5624    0.1474   -0.7197 N   0  0  0  0  0  0  0  0  0  0  0  0
   -3.1106   -0.9721   -0.1653 N   0  0  0  0  0  0  0  0  0  0  0  0
   -4.4811   -1.2836   -0.4312 C   0  0  0  0  0  0  0  0  0  0  0  0
   -5.1062   -2.4179    0.0979 C   0  0  0  0  0  0  0  0  0  0  0  0
   -6.4538   -2.6910   -0.1852 C   0  0  0  0  0  0  0  0  0  0  0  0
   -7.1949   -1.8362   -0.9997 C   0  0  0  0  0  0  0  0  0  0  0  0
   -8.5048   -1.9809   -1.3540 O   0  0  0  0  0  0  0  0  0  0  0  0
   -9.2039   -3.1075   -0.8549 C   0  0  0  0  0  0  0  0  0  0  0  0
   -9.2485   -3.0967    0.4946 F   0  0  0  0  0  0  0  0  0  0  0  0
   -8.6406   -4.2594   -1.2785 F   0  0  0  0  0  0  0  0  0  0  0  0
  -10.4740   -3.0685   -1.3160 F   0  0  0  0  0  0  0  0  0  0  0  0
   -6.5737   -0.7037   -1.5292 C   0  0  0  0  0  0  0  0  0  0  0  0
   -5.2316   -0.4262   -1.2510 C   0  0  0  0  0  0  0  0  0  0  0  0
   -2.1759   -1.6563    0.6123 C   0  0  0  0  0  0  0  0  0  0  0  0
   -2.3683   -2.7985    1.3155 N   0  0  0  0  0  0  0  0  0  0  0  0
   -1.2826   -3.2392    1.9785 C   0  0  0  0  0  0  0  0  0  0  0  0
   -0.0436   -2.6293    1.9790 C   0  0  0  0  0  0  0  0  0  0  0  0
    0.1242   -1.4586    1.2377 C   0  0  0  0  0  0  0  0  0  0  0  0
    1.4074   -0.8100    1.2052 C   0  0  0  0  0  0  0  0  0  0  0  0
    2.1252   -0.1394    2.2170 C   0  0  0  0  0  0  0  0  0  0  0  0
    3.3181    0.2872    1.7945 N   0  0  0  0  0  0  0  0  0  0  0  0
    3.3812   -0.1481    0.5207 N   0  0  0  0  0  0  0  0  0  0  0  0
    4.5614    0.1277   -0.2805 C   0  0  0  0  0  0  0  0  0  0  0  0
    5.7334   -0.7765    0.1167 C   0  0  0  0  0  0  0  0  0  0  0  0
    6.9002   -0.6572   -0.7849 N   0  0  0  0  0  0  0  0  0  0  0  0
    7.8682   -1.7187   -0.4883 C   0  0  0  0  0  0  0  0  0  0  0  0
    7.5536    0.6488   -0.6553 C   0  0  0  0  0  0  0  0  0  0  0  0
    2.2632   -0.8276    0.1261 C   0  0  0  0  0  0  0  0  0  0  0  0
   -0.9812   -0.9367    0.5332 C   0  0  0  0  0  0  0  0  0  0  0  0
   -0.9521    2.5217   -1.4261 C   0  0  0  0  0  0  0  0  0  0  0  0
    0.8697    7.2678   -0.1769 H   0  0  0  0  0  0  0  0  0  0  0  0
    1.5661    7.0049    1.5305 H   0  0  0  0  0  0  0  0  0  0  0  0
   -0.6665    2.3419    1.3082 H   0  0  0  0  0  0  0  0  0  0  0  0
    1.0553    2.2631    0.8020 H   0  0  0  0  0  0  0  0  0  0  0  0
    0.5553    0.9467   -1.2099 H   0  0  0  0  0  0  0  0  0  0  0  0
   -4.5829   -3.1214    0.7378 H   0  0  0  0  0  0  0  0  0  0  0  0
   -6.8822   -3.5873    0.2554 H   0  0  0  0  0  0  0  0  0  0  0  0
   -7.1349   -0.0239   -2.1671 H   0  0  0  0  0  0  0  0  0  0  0  0
   -4.7891    0.4688   -1.6854 H   0  0  0  0  0  0  0  0  0  0  0  0
   -1.4392   -4.1559    2.5437 H   0  0  0  0  0  0  0  0  0  0  0  0
    0.7779   -3.0669    2.5375 H   0  0  0  0  0  0  0  0  0  0  0  0
    1.8265    0.0636    3.2378 H   0  0  0  0  0  0  0  0  0  0  0  0
    4.2887   -0.0256   -1.3311 H   0  0  0  0  0  0  0  0  0  0  0  0
    4.7946    1.1889   -0.1420 H   0  0  0  0  0  0  0  0  0  0  0  0
    6.0268   -0.5827    1.1574 H   0  0  0  0  0  0  0  0  0  0  0  0
    5.3739   -1.8144    0.0868 H   0  0  0  0  0  0  0  0  0  0  0  0
    7.4142   -2.7054   -0.6331 H   0  0  0  0  0  0  0  0  0  0  0  0
    8.7208   -1.6653   -1.1747 H   0  0  0  0  0  0  0  0  0  0  0  0
    8.2462   -1.6587    0.5388 H   0  0  0  0  0  0  0  0  0  0  0  0
    6.8871    1.4570   -0.9720 H   0  0  0  0  0  0  0  0  0  0  0  0
    7.8802    0.8480    0.3718 H   0  0  0  0  0  0  0  0  0  0  0  0
    8.4303    0.7058   -1.3108 H   0  0  0  0  0  0  0  0  0  0  0  0
    2.1770   -1.2557   -0.8637 H   0  0  0  0  0  0  0  0  0  0  0  0
   -2.0337    2.6657   -1.3469 H   0  0  0  0  0  0  0  0  0  0  0  0
   -0.6345    2.6308   -2.4666 H   0  0  0  0  0  0  0  0  0  0  0  0
  1  2  2  0
  2  3  1  0
  2  4  1  0
  4  5  2  0
  4  6  1  0
  6  7  1  0
  7  8  1  0
  8  9  1  0
  9 10  2  0
 10 11  1  0
 11 12  1  0
 12 13  2  0
 13 14  1  0
 14 15  2  0
 15 16  1  0
 16 17  1  0
 17 18  1  0
 17 19  1  0
 17 20  1  0
 15 21  1  0
 21 22  2  0
 11 23  1  0
 23 24  2  0
 24 25  1  0
 25 26  2  0
 26 27  1  0
 27 28  1  0
 28 29  1  0
 29 30  2  0
 30 31  1  0
 31 32  1  0
 32 33  1  0
 33 34  1  0
 34 35  1  0
 34 36  1  0
 31 37  1  0
 27 38  2  0
  8 39  1  0
 39  6  1  0
 38  9  1  0
 22 12  1  0
 38 23  1  0
 37 28  2  0
  1 40  1  0
  1 41  1  0
  7 42  1  0
  7 43  1  0
  8 44  1  0
 13 45  1  0
 14 46  1  0
 21 47  1  0
 22 48  1  0
 25 49  1  0
 26 50  1  0
 29 51  1  0
 32 52  1  0
 32 53  1  0
 33 54  1  0
 33 55  1  0
 35 56  1  0
 35 57  1  0
 35 58  1  0
 36 59  1  0
 36 60  1  0
 36 61  1  0
 37 62  1  0
 39 63  1  0
 39 64  1  0
M  END
>  <mol_id>  (1) 
101735

>  <source_index>  (1) 
5

>  <layer>  (1) 
L3

>  <uniprot>  (1) 
P28347

>  <paff>  (1) 
6.6021000000000001

>  <smiles>  (1) 
CN(C)CCn1cc(cn1)-c1ccnc2n(nc(C3CN(C3)C(=O)C(F)=C)c12)-c1ccc(OC(F)(F)F)cc1

$$$$
