L3:P28347:107616


 32 34  0  0  0  0  0  0  0  0999 V2000
  -14.2592    6.4918   66.7818 C   0  0  0  0  0  0  0  0  0  0  0  0
  -14.3005    5.1659   66.9628 N   0  0  0  0  0  0  0  0  0  0  0  0
  -13.0820    4.7051   66.5657 N   0  0  0  0  0  0  0  0  0  0  0  0
  -12.2766    5.7447   66.1063 C   0  0  0  0  0  0  0  0  0  0  0  0
  -11.0176    5.6408   65.6226 N   0  0  0  0  0  0  0  0  0  0  0  0
  -10.4813    6.8022   65.2191 C   0  0  0  0  0  0  0  0  0  0  0  0
  -11.1099    8.0306   65.2863 C   0  0  0  0  0  0  0  0  0  0  0  0
  -12.4144    8.1407   65.8098 C   0  0  0  0  0  0  0  0  0  0  0  0
  -13.0177    6.9240   66.2313 C   0  0  0  0  0  0  0  0  0  0  0  0
  -12.8046    3.3034   66.6575 C   0  0  0  0  0  0  0  0  0  0  0  0
  -12.9009    2.6674   67.9079 C   0  0  0  0  0  0  0  0  0  0  0  0
  -12.6371    1.2999   68.0378 C   0  0  0  0  0  0  0  0  0  0  0  0
  -12.2647    0.5374   66.9236 C   0  0  0  0  0  0  0  0  0  0  0  0
  -12.1772    1.1700   65.6760 C   0  0  0  0  0  0  0  0  0  0  0  0
  -12.4405    2.5396   65.5428 C   0  0  0  0  0  0  0  0  0  0  0  0
  -12.0021   -0.9425   67.0566 C   0  0  0  0  0  0  0  0  0  0  0  0
  -11.3715   -1.2534   68.2224 F   0  0  0  0  0  0  0  0  0  0  0  0
  -11.2134   -1.4371   66.0615 F   0  0  0  0  0  0  0  0  0  0  0  0
  -13.1394   -1.6926   67.0346 F   0  0  0  0  0  0  0  0  0  0  0  0
  -13.0695    9.5105   65.8442 C   0  0  0  0  0  0  0  0  0  0  0  0
  -13.8940    9.6264   67.0163 O   0  0  0  0  0  0  0  0  0  0  0  0
  -14.4577    8.8331   67.0373 H   0  0  0  0  0  0  0  0  0  0  0  0
  -12.0551   10.6677   65.8490 C   0  0  0  0  0  0  0  0  0  0  0  0
  -12.6032   11.8221   66.4966 O   0  0  0  0  0  0  0  0  0  0  0  0
  -13.4925   11.9195   66.1009 H   0  0  0  0  0  0  0  0  0  0  0  0
  -15.4830    7.2758   67.1311 C   0  0  0  0  0  0  0  0  0  0  0  0
  -17.2059    8.4910   65.8577 C   0  0  0  0  0  0  0  0  0  0  0  0
  -17.9982    8.5370   66.7911 O   0  0  0  0  0  0  0  0  0  0  0  0
  -15.9801    7.9000   65.9260 N   0  0  0  0  0  0  0  0  0  0  0  0
  -15.3895    7.8392   65.1084 H   0  0  0  0  0  0  0  0  0  0  0  0
  -18.6976    9.7528   64.2828 C   0  0  0  0  0  0  0  0  0  0  0  0
  -17.5710    9.0769   64.5447 C   0  0  0  0  0  0  0  0  0  0  0  0
 31 32  2  0  0  0
 32 27  1  0  0  0
 27 28  2  0  0  0
 27 29  1  0  0  0
 29 26  1  0  0  0
 26  1  1  0  0  0
  1  2  2  0  0  0
  2  3  1  0  0  0
  3 10  1  0  0  0
 10 11  2  0  0  0
 11 12  1  0  0  0
 12 13  2  0  0  0
 13 16  1  0  0  0
 16 17  1  0  0  0
 16 18  1  0  0  0
 16 19  1  0  0  0
 13 14  1  0  0  0
 14 15  2  0  0  0
  3  4  1  0  0  0
  4  5  2  0  0  0
  5  6  1  0  0  0
  6  7  2  0  0  0
  7  8  1  0  0  0
  8 20  1  0  0  0
 20 21  1  0  0  0
 20 23  1  0  0  0
 23 24  1  0  0  0
  8  9  2  0  0  0
  9  1  1  0  0  0
 15 10  1  0  0  0
  9  4  1  0  0  0
 29 30  1  0  0  0
 21 22  1  0  0  0
 24 25  1  0  0  0
M  END
> <minimizedAffinity>
-8.98018

$$$$
