L3:P28347:138257
 OpenBabel09212617493D

 55 58  0  0  0  0  0  0  0  0999 V2000
  -12.6470   10.5570   66.1749 C   0  0  0  0  0  0  0  0  0  0  0  0
  -13.6619   11.1694   66.7859 N   0  0  0  0  0  0  0  0  0  0  0  0
  -13.1244   12.2744   67.3611 N   0  0  0  0  0  0  0  0  0  0  0  0
  -11.7591   12.3617   67.0970 C   0  0  0  0  0  0  0  0  0  0  0  0
  -10.9243   13.3379   67.5221 N   0  0  0  0  0  0  0  0  0  0  0  0
   -9.6567   13.2028   67.1195 C   0  0  0  0  0  0  0  0  0  0  0  0
   -9.1860   12.1655   66.3396 C   0  0  0  0  0  0  0  0  0  0  0  0
  -10.0514   11.1347   65.9039 C   0  0  0  0  0  0  0  0  0  0  0  0
  -11.4121   11.2529   66.3100 C   0  0  0  0  0  0  0  0  0  0  0  0
  -13.9723   13.1476   68.1151 C   0  0  0  0  0  0  0  0  0  0  0  0
  -14.7548   14.1383   67.5125 C   0  0  0  0  0  0  0  0  0  0  0  0
  -15.5735   14.9757   68.2870 C   0  0  0  0  0  0  0  0  0  0  0  0
  -15.6222   14.8356   69.6732 C   0  0  0  0  0  0  0  0  0  0  0  0
  -14.8429   13.8481   70.2779 C   0  0  0  0  0  0  0  0  0  0  0  0
  -14.0257   13.0110   69.5115 C   0  0  0  0  0  0  0  0  0  0  0  0
  -16.3695   15.5774   70.5412 O   0  0  0  0  0  0  0  0  0  0  0  0
  -17.7726   15.3811   70.5398 C   0  0  0  0  0  0  0  0  0  0  0  0
  -18.2641   15.7617   71.7402 F   0  0  0  0  0  0  0  0  0  0  0  0
  -18.0842   14.0805   70.3540 F   0  0  0  0  0  0  0  0  0  0  0  0
  -18.3700   16.1291   69.5874 F   0  0  0  0  0  0  0  0  0  0  0  0
  -13.2167    7.4384   66.5951 N   0  0  0  0  0  0  0  0  0  0  0  0
  -14.1091    8.3779   65.8531 C   0  0  0  0  0  0  0  0  0  0  0  0
  -12.8906    9.2171   65.4041 C   0  0  0  0  0  0  0  0  0  0  0  0
  -12.0417    8.0253   65.8926 C   0  0  0  0  0  0  0  0  0  0  0  0
  -13.4801    5.7750   66.7639 S   0  0  0  0  0  0  0  0  0  0  0  0
  -13.9130    5.5725   68.1332 O   0  0  0  0  0  0  0  0  0  0  0  0
  -14.3426    5.3804   65.6677 O   0  0  0  0  0  0  0  0  0  0  0  0
  -10.9547    5.7349   65.9017 C   0  0  0  0  0  0  0  0  0  0  0  0
  -11.9087    5.0352   66.5398 C   0  0  0  0  0  0  0  0  0  0  0  0
  -11.7288    3.6450   67.0493 C   0  0  0  0  0  0  0  0  0  0  0  0
   -9.4084   10.0673   65.0318 C   0  0  1  0  0  0  0  0  0  0  0  0
  -10.0594    9.9432   63.7721 O   0  0  0  0  0  0  0  0  0  0  0  0
  -10.9687    9.6508   63.9672 H   0  0  0  0  0  0  0  0  0  0  0  0
   -7.8917   10.2544   64.8423 C   0  0  0  0  0  0  0  0  0  0  0  0
   -7.1757    9.0329   64.9931 O   0  0  0  0  0  0  0  0  0  0  0  0
   -7.3762    8.7343   65.8999 H   0  0  0  0  0  0  0  0  0  0  0  0
   -8.9814   13.9260   67.4128 H   0  0  0  0  0  0  0  0  0  0  0  0
   -8.1899   12.1417   66.0709 H   0  0  0  0  0  0  0  0  0  0  0  0
  -14.7300   14.2549   66.4874 H   0  0  0  0  0  0  0  0  0  0  0  0
  -16.1443   15.7014   67.8260 H   0  0  0  0  0  0  0  0  0  0  0  0
  -14.8701   13.7343   71.3032 H   0  0  0  0  0  0  0  0  0  0  0  0
  -13.4568   12.2863   69.9765 H   0  0  0  0  0  0  0  0  0  0  0  0
  -14.7950    8.9098   66.4789 H   0  0  0  0  0  0  0  0  0  0  0  0
  -14.7951    7.9997   65.1242 H   0  0  0  0  0  0  0  0  0  0  0  0
  -12.8170    9.6284   64.4190 H   0  0  0  0  0  0  0  0  0  0  0  0
  -11.2415    8.3034   66.5463 H   0  0  0  0  0  0  0  0  0  0  0  0
  -11.4959    7.4360   65.1857 H   0  0  0  0  0  0  0  0  0  0  0  0
  -10.0205    5.3208   65.7573 H   0  0  0  0  0  0  0  0  0  0  0  0
  -11.1564    6.6862   65.5562 H   0  0  0  0  0  0  0  0  0  0  0  0
  -10.7301    3.3179   66.8482 H   0  0  0  0  0  0  0  0  0  0  0  0
  -12.4227    2.9934   66.5606 H   0  0  0  0  0  0  0  0  0  0  0  0
  -11.9046    3.6264   68.1046 H   0  0  0  0  0  0  0  0  0  0  0  0
   -9.5386    9.1528   65.5718 H   0  0  0  0  0  0  0  0  0  0  0  0
   -7.5372   10.9537   65.5705 H   0  0  0  0  0  0  0  0  0  0  0  0
   -7.7267   10.6110   63.8470 H   0  0  0  0  0  0  0  0  0  0  0  0
  1  2  2  0  0  0  0
  2  3  1  0  0  0  0
  3 10  1  0  0  0  0
  3  4  1  0  0  0  0
  4  5  2  0  0  0  0
  5  6  1  0  0  0  0
  6  7  2  0  0  0  0
  6 37  1  0  0  0  0
  7  8  1  0  0  0  0
  7 38  1  0  0  0  0
  8 31  1  0  0  0  0
  8  9  2  0  0  0  0
  9  1  1  0  0  0  0
  9  4  1  0  0  0  0
 10 11  2  0  0  0  0
 11 12  1  0  0  0  0
 11 39  1  0  0  0  0
 12 13  2  0  0  0  0
 12 40  1  0  0  0  0
 13 16  1  0  0  0  0
 13 14  1  0  0  0  0
 14 15  2  0  0  0  0
 14 41  1  0  0  0  0
 15 10  1  0  0  0  0
 15 42  1  0  0  0  0
 16 17  1  0  0  0  0
 17 18  1  0  0  0  0
 17 19  1  0  0  0  0
 17 20  1  0  0  0  0
 21 22  1  0  0  0  0
 22 23  1  0  0  0  0
 22 43  1  0  0  0  0
 22 44  1  0  0  0  0
 23  1  1  0  0  0  0
 23 24  1  0  0  0  0
 23 45  1  0  0  0  0
 24 21  1  0  0  0  0
 24 46  1  0  0  0  0
 24 47  1  0  0  0  0
 25 26  2  0  0  0  0
 25 27  2  0  0  0  0
 25 21  1  0  0  0  0
 28 29  2  0  0  0  0
 28 48  1  0  0  0  0
 28 49  1  0  0  0  0
 29 30  1  0  0  0  0
 29 25  1  0  0  0  0
 30 50  1  0  0  0  0
 30 51  1  0  0  0  0
 30 52  1  0  0  0  0
 31 32  1  0  0  0  0
 31 34  1  0  0  0  0
 31 53  1  1  0  0  0
 32 33  1  0  0  0  0
 34 35  1  0  0  0  0
 34 54  1  0  0  0  0
 34 55  1  0  0  0  0
 35 36  1  0  0  0  0
M  END
>  <minimizedAffinity>
-7.74772

$$$$
