L3:P28347:144852
     RDKit          3D

 47 49  0  0  0  0  0  0  0  0999 V2000
   -5.1500    3.9817    0.9987 C   0  0  0  0  0  0  0  0  0  0  0  0
   -3.8920    3.5448    0.9129 C   0  0  0  0  0  0  0  0  0  0  0  0
   -3.0540    3.6576    1.9656 F   0  0  0  0  0  0  0  0  0  0  0  0
   -3.3244    2.9166   -0.3119 C   0  0  0  0  0  0  0  0  0  0  0  0
   -3.9695    2.7644   -1.3434 O   0  0  0  0  0  0  0  0  0  0  0  0
   -2.0203    2.5232   -0.1653 N   0  0  0  0  0  0  0  0  0  0  0  0
   -1.2699    1.9375   -1.2493 C   0  0  0  0  0  0  0  0  0  0  0  0
   -0.4449    0.8099   -0.7223 C   0  0  0  0  0  0  0  0  0  0  0  0
    0.8019    1.0705   -0.3133 N   0  0  0  0  0  0  0  0  0  0  0  0
    1.3171   -0.1337    0.0686 N   0  0  0  0  0  0  0  0  0  0  0  0
    2.6625   -0.1932    0.5533 C   0  0  0  0  0  0  0  0  0  0  0  0
    3.2537   -1.3895    0.9738 C   0  0  0  0  0  0  0  0  0  0  0  0
    4.5763   -1.4093    1.4440 C   0  0  0  0  0  0  0  0  0  0  0  0
    5.3263   -0.2358    1.5010 C   0  0  0  0  0  0  0  0  0  0  0  0
    6.6147   -0.1125    1.9337 O   0  0  0  0  0  0  0  0  0  0  0  0
    7.2792   -1.2841    2.3731 C   0  0  0  0  0  0  0  0  0  0  0  0
    7.3723   -2.1947    1.3805 F   0  0  0  0  0  0  0  0  0  0  0  0
    8.5327   -0.9528    2.7558 F   0  0  0  0  0  0  0  0  0  0  0  0
    6.6501   -1.8344    3.4336 F   0  0  0  0  0  0  0  0  0  0  0  0
    4.7392    0.9598    1.0830 C   0  0  0  0  0  0  0  0  0  0  0  0
    3.4219    0.9858    0.6138 C   0  0  0  0  0  0  0  0  0  0  0  0
    0.3837   -1.1557   -0.0935 C   0  0  0  0  0  0  0  0  0  0  0  0
    0.5606   -2.4717    0.1655 N   0  0  0  0  0  0  0  0  0  0  0  0
   -0.5217   -3.2304   -0.0757 C   0  0  0  0  0  0  0  0  0  0  0  0
   -1.7380   -2.7614   -0.5377 C   0  0  0  0  0  0  0  0  0  0  0  0
   -1.9216   -1.3894   -0.7935 C   0  0  0  0  0  0  0  0  0  0  0  0
   -3.2714   -0.8863   -1.2713 C   0  0  2  0  0  0  0  0  0  0  0  0
   -4.3236   -1.6977   -0.7343 O   0  0  0  0  0  0  0  0  0  0  0  0
   -3.3943   -0.8455   -2.8041 C   0  0  0  0  0  0  0  0  0  0  0  0
   -3.6211   -2.1710   -3.3013 O   0  0  0  0  0  0  0  0  0  0  0  0
   -0.7852   -0.5643   -0.5771 C   0  0  0  0  0  0  0  0  0  0  0  0
   -5.5126    4.4305    1.9155 H   0  0  0  0  0  0  0  0  0  0  0  0
   -5.8336    3.8957    0.1604 H   0  0  0  0  0  0  0  0  0  0  0  0
   -1.5376    2.7035    0.7085 H   0  0  0  0  0  0  0  0  0  0  0  0
   -0.6291    2.7267   -1.6588 H   0  0  0  0  0  0  0  0  0  0  0  0
   -1.9283    1.6069   -2.0564 H   0  0  0  0  0  0  0  0  0  0  0  0
    2.7213   -2.3355    0.9556 H   0  0  0  0  0  0  0  0  0  0  0  0
    4.9777   -2.3697    1.7561 H   0  0  0  0  0  0  0  0  0  0  0  0
    5.3081    1.8864    1.1203 H   0  0  0  0  0  0  0  0  0  0  0  0
    3.0060    1.9411    0.2982 H   0  0  0  0  0  0  0  0  0  0  0  0
   -0.3894   -4.2910    0.1265 H   0  0  0  0  0  0  0  0  0  0  0  0
   -2.5508   -3.4666   -0.6897 H   0  0  0  0  0  0  0  0  0  0  0  0
   -3.4257    0.1146   -0.8656 H   0  0  0  0  0  0  0  0  0  0  0  0
   -4.5698   -2.3003   -1.4648 H   0  0  0  0  0  0  0  0  0  0  0  0
   -4.2692   -0.2509   -3.0867 H   0  0  0  0  0  0  0  0  0  0  0  0
   -2.5034   -0.4284   -3.2830 H   0  0  0  0  0  0  0  0  0  0  0  0
   -3.6535   -2.1014   -4.2725 H   0  0  0  0  0  0  0  0  0  0  0  0
  1  2  2  0
  2  3  1  0
  2  4  1  0
  4  5  2  0
  4  6  1  0
  6  7  1  0
  7  8  1  0
  8  9  2  0
  9 10  1  0
 10 11  1  0
 11 12  2  0
 12 13  1  0
 13 14  2  0
 14 15  1  0
 15 16  1  0
 16 17  1  0
 16 18  1  0
 16 19  1  0
 14 20  1  0
 20 21  2  0
 10 22  1  0
 22 23  2  0
 23 24  1  0
 24 25  2  0
 25 26  1  0
 26 27  1  0
 27 28  1  0
 27 29  1  0
 29 30  1  0
 26 31  2  0
 31  8  1  0
 21 11  1  0
 31 22  1  0
  1 32  1  0
  1 33  1  0
  6 34  1  0
  7 35  1  0
  7 36  1  0
 12 37  1  0
 13 38  1  0
 20 39  1  0
 21 40  1  0
 24 41  1  0
 25 42  1  0
 27 43  1  1
 28 44  1  0
 29 45  1  0
 29 46  1  0
 30 47  1  0
M  END
>  <mol_id>  (1) 
144852

>  <source_index>  (1) 
8

>  <layer>  (1) 
L3

>  <uniprot>  (1) 
P28347

>  <paff>  (1) 
6.4949000000000003

>  <smiles>  (1) 
OC[C@@H](O)c1ccnc2n(nc(CNC(=O)C(F)=C)c12)-c1ccc(OC(F)(F)F)cc1 |r|

$$$$
