L3:P28347:144852


 34 36  0  0  0  0  0  0  0  0999 V2000
  -14.5247   14.2721   69.2466 C   0  0  0  0  0  0  0  0  0  0  0  0
  -14.4743   12.9857   68.8828 N   0  0  0  0  0  0  0  0  0  0  0  0
  -13.6620   12.9505   67.7872 N   0  0  0  0  0  0  0  0  0  0  0  0
  -13.2068   14.2253   67.4559 C   0  0  0  0  0  0  0  0  0  0  0  0
  -12.3723   14.5569   66.4441 N   0  0  0  0  0  0  0  0  0  0  0  0
  -12.1112   15.8719   66.3545 C   0  0  0  0  0  0  0  0  0  0  0  0
  -12.6294   16.8467   67.1876 C   0  0  0  0  0  0  0  0  0  0  0  0
  -13.5077   16.4985   68.2311 C   0  0  0  0  0  0  0  0  0  0  0  0
  -13.7796   15.1109   68.3711 C   0  0  0  0  0  0  0  0  0  0  0  0
  -13.3949   11.6927   67.1586 C   0  0  0  0  0  0  0  0  0  0  0  0
  -12.1395   11.3722   66.6306 C   0  0  0  0  0  0  0  0  0  0  0  0
  -11.9146   10.1281   66.0203 C   0  0  0  0  0  0  0  0  0  0  0  0
  -12.9392    9.1876   65.9288 C   0  0  0  0  0  0  0  0  0  0  0  0
  -14.1933    9.5045   66.4539 C   0  0  0  0  0  0  0  0  0  0  0  0
  -14.4235   10.7424   67.0628 C   0  0  0  0  0  0  0  0  0  0  0  0
  -12.8588    7.9474   65.3651 O   0  0  0  0  0  0  0  0  0  0  0  0
  -12.3765    6.8857   66.1699 C   0  0  0  0  0  0  0  0  0  0  0  0
  -13.2083    5.8230   66.1270 F   0  0  0  0  0  0  0  0  0  0  0  0
  -11.1731    6.4945   65.6943 F   0  0  0  0  0  0  0  0  0  0  0  0
  -12.2119    7.2792   67.4510 F   0  0  0  0  0  0  0  0  0  0  0  0
  -14.0915   17.5832   69.1177 C   0  0  0  0  0  0  0  0  0  0  0  0
  -14.4647   18.7217   68.3313 O   0  0  0  0  0  0  0  0  0  0  0  0
  -13.7344   19.3605   68.4572 H   0  0  0  0  0  0  0  0  0  0  0  0
  -13.1351   18.0308   70.2362 C   0  0  0  0  0  0  0  0  0  0  0  0
  -12.4787   16.8837   70.7919 O   0  0  0  0  0  0  0  0  0  0  0  0
  -11.9160   17.2101   71.5172 H   0  0  0  0  0  0  0  0  0  0  0  0
  -15.3150   14.6367   70.4600 C   0  0  0  0  0  0  0  0  0  0  0  0
  -14.7541   15.2470   72.7776 C   0  0  0  0  0  0  0  0  0  0  0  0
  -15.7766   15.9033   72.9425 O   0  0  0  0  0  0  0  0  0  0  0  0
  -14.4585   14.5777   71.6194 N   0  0  0  0  0  0  0  0  0  0  0  0
  -13.5812   14.0745   71.5412 H   0  0  0  0  0  0  0  0  0  0  0  0
  -13.9886   15.0117   75.1320 C   0  0  0  0  0  0  0  0  0  0  0  0
  -13.7113   15.0945   73.8293 C   0  0  0  0  0  0  0  0  0  0  0  0
  -12.4336   15.0424   73.3959 F   0  0  0  0  0  0  0  0  0  0  0  0
 32 33  2  0  0  0
 33 34  1  0  0  0
 33 28  1  0  0  0
 28 29  2  0  0  0
 28 30  1  0  0  0
 30 27  1  0  0  0
 27  1  1  0  0  0
  1  2  2  0  0  0
  2  3  1  0  0  0
  3 10  1  0  0  0
 10 11  2  0  0  0
 11 12  1  0  0  0
 12 13  2  0  0  0
 13 16  1  0  0  0
 16 17  1  0  0  0
 17 18  1  0  0  0
 17 19  1  0  0  0
 17 20  1  0  0  0
 13 14  1  0  0  0
 14 15  2  0  0  0
  3  4  1  0  0  0
  4  5  2  0  0  0
  5  6  1  0  0  0
  6  7  2  0  0  0
  7  8  1  0  0  0
  8 21  1  0  0  0
 21 22  1  0  0  0
 21 24  1  0  0  0
 24 25  1  0  0  0
  8  9  2  0  0  0
  9  1  1  0  0  0
 15 10  1  0  0  0
  9  4  1  0  0  0
 30 31  1  0  0  0
 22 23  1  0  0  0
 25 26  1  0  0  0
M  END
> <minimizedAffinity>
-7.11843

$$$$
