L3:P28347:145084
 OpenBabel09212617493D

 44 46  0  0  0  0  0  0  0  0999 V2000
  -14.3159   15.4555   68.9531 C   0  0  0  0  0  0  0  0  0  0  0  0
  -15.5900   15.8786   69.3563 C   0  0  0  0  0  0  0  0  0  0  0  0
  -16.4638   14.9754   69.9352 C   0  0  0  0  0  0  0  0  0  0  0  0
  -16.1066   13.6930   70.1191 N   0  0  0  0  0  0  0  0  0  0  0  0
  -14.8571   13.2693   69.7307 N   0  0  0  0  0  0  0  0  0  0  0  0
  -13.9600   14.1093   69.1616 C   0  0  0  0  0  0  0  0  0  0  0  0
  -11.5691   19.4801   67.9596 C   0  0  0  0  0  0  0  0  0  0  0  0
  -12.1853   18.1788   67.9114 N   0  0  0  0  0  0  0  0  0  0  0  0
  -11.9622   17.2259   66.9624 C   0  0  0  0  0  0  0  0  0  0  0  0
  -12.6760   16.1466   67.1936 N   0  0  0  0  0  0  0  0  0  0  0  0
  -13.3903   16.4107   68.3482 C   0  0  0  0  0  0  0  0  0  0  0  0
  -13.0942   17.6803   68.8027 C   0  0  0  0  0  0  0  0  0  0  0  0
  -18.0740   15.4672   70.4580 P   0  0  0  0  0  0  0  0  0  0  0  0
  -17.9227   16.3880   71.9939 C   0  0  0  0  0  0  0  0  0  0  0  0
  -18.6949   16.7019   69.3092 C   0  0  0  0  0  0  0  0  0  0  0  0
  -19.0860   14.3564   70.6198 O   0  0  0  0  0  0  0  0  0  0  0  0
  -12.6943   13.6368   68.7529 N   0  0  0  0  0  0  0  0  0  0  0  0
  -11.9502   14.0289   69.3358 H   0  0  0  0  0  0  0  0  0  0  0  0
  -12.2791   12.6848   67.8126 C   0  0  0  0  0  0  0  0  0  0  0  0
  -10.9627   12.5481   67.3648 C   0  0  0  0  0  0  0  0  0  0  0  0
  -10.6127   11.5723   66.4220 C   0  0  0  0  0  0  0  0  0  0  0  0
  -11.5757   10.6963   65.9066 C   0  0  0  0  0  0  0  0  0  0  0  0
  -12.8981   10.8274   66.3454 C   0  0  0  0  0  0  0  0  0  0  0  0
  -13.2387   11.8046   67.2872 C   0  0  0  0  0  0  0  0  0  0  0  0
  -11.2043    9.6613   64.8755 C   0  0  0  0  0  0  0  0  0  0  0  0
  -11.2205   10.1606   63.6086 F   0  0  0  0  0  0  0  0  0  0  0  0
   -9.9567    9.1440   65.0571 F   0  0  0  0  0  0  0  0  0  0  0  0
  -12.0488    8.5912   64.8643 F   0  0  0  0  0  0  0  0  0  0  0  0
  -15.8755   16.8611   69.2217 H   0  0  0  0  0  0  0  0  0  0  0  0
  -10.9013   19.5894   67.1307 H   0  0  0  0  0  0  0  0  0  0  0  0
  -11.0226   19.5823   68.8738 H   0  0  0  0  0  0  0  0  0  0  0  0
  -12.3257   20.2351   67.9100 H   0  0  0  0  0  0  0  0  0  0  0  0
  -11.3163   17.3375   66.1653 H   0  0  0  0  0  0  0  0  0  0  0  0
  -13.4771   18.1521   69.6369 H   0  0  0  0  0  0  0  0  0  0  0  0
  -17.2048   17.1718   71.8706 H   0  0  0  0  0  0  0  0  0  0  0  0
  -17.6017   15.7299   72.7742 H   0  0  0  0  0  0  0  0  0  0  0  0
  -18.8714   16.8105   72.2514 H   0  0  0  0  0  0  0  0  0  0  0  0
  -17.9724   17.4837   69.2010 H   0  0  0  0  0  0  0  0  0  0  0  0
  -19.6094   17.1109   69.6851 H   0  0  0  0  0  0  0  0  0  0  0  0
  -18.8726   16.2462   68.3575 H   0  0  0  0  0  0  0  0  0  0  0  0
  -10.2341   13.1779   67.7355 H   0  0  0  0  0  0  0  0  0  0  0  0
   -9.6337   11.4985   66.1038 H   0  0  0  0  0  0  0  0  0  0  0  0
  -13.6268   10.1993   65.9719 H   0  0  0  0  0  0  0  0  0  0  0  0
  -14.2182   11.8802   67.6031 H   0  0  0  0  0  0  0  0  0  0  0  0
  1  2  2  0  0  0  0
  2  3  1  0  0  0  0
  2 29  1  0  0  0  0
  3 13  1  0  0  0  0
  3  4  2  0  0  0  0
  4  5  1  0  0  0  0
  5  6  2  0  0  0  0
  6 17  1  0  0  0  0
  6  1  1  0  0  0  0
  7  8  1  0  0  0  0
  7 30  1  0  0  0  0
  7 31  1  0  0  0  0
  7 32  1  0  0  0  0
  8  9  1  0  0  0  0
  9 10  2  0  0  0  0
  9 33  1  0  0  0  0
 10 11  1  0  0  0  0
 11  1  1  0  0  0  0
 11 12  2  0  0  0  0
 12  8  1  0  0  0  0
 12 34  1  0  0  0  0
 13 14  1  0  0  0  0
 13 15  1  0  0  0  0
 13 16  2  0  0  0  0
 14 35  1  0  0  0  0
 14 36  1  0  0  0  0
 14 37  1  0  0  0  0
 15 38  1  0  0  0  0
 15 39  1  0  0  0  0
 15 40  1  0  0  0  0
 17 19  1  0  0  0  0
 17 18  1  0  0  0  0
 19 20  2  0  0  0  0
 20 21  1  0  0  0  0
 20 41  1  0  0  0  0
 21 22  2  0  0  0  0
 21 42  1  0  0  0  0
 22 25  1  0  0  0  0
 22 23  1  0  0  0  0
 23 24  2  0  0  0  0
 23 43  1  0  0  0  0
 24 19  1  0  0  0  0
 24 44  1  0  0  0  0
 25 26  1  0  0  0  0
 25 27  1  0  0  0  0
 25 28  1  0  0  0  0
M  END
>  <minimizedAffinity>
-6.93591

$$$$
