L3:P28347:28596
     RDKit          3D

 48 50  0  0  0  0  0  0  0  0999 V2000
   -5.0825   -3.9056   -0.3881 C   0  0  0  0  0  0  0  0  0  0  0  0
   -3.9426   -3.2459   -0.5862 C   0  0  0  0  0  0  0  0  0  0  0  0
   -3.3028   -2.4348    0.4662 C   0  0  0  0  0  0  0  0  0  0  0  0
   -3.8297   -2.3422    1.6093 O   0  0  0  0  0  0  0  0  0  0  0  0
   -2.0773   -1.7474    0.1842 N   0  0  0  0  0  0  0  0  0  0  0  0
   -1.4279   -0.9024    1.1857 C   0  0  0  0  0  0  0  0  0  0  0  0
   -0.1606   -0.3126    0.6348 C   0  0  0  0  0  0  0  0  0  0  0  0
    0.9619   -1.0672    0.5579 N   0  0  0  0  0  0  0  0  0  0  0  0
    1.8983   -0.3832   -0.0811 N   0  0  0  0  0  0  0  0  0  0  0  0
    3.2267   -0.8842   -0.3177 C   0  0  0  0  0  0  0  0  0  0  0  0
    3.9385   -0.5435   -1.4835 C   0  0  0  0  0  0  0  0  0  0  0  0
    5.2241   -1.0504   -1.6990 C   0  0  0  0  0  0  0  0  0  0  0  0
    5.8069   -1.9050   -0.7617 C   0  0  0  0  0  0  0  0  0  0  0  0
    6.5051   -2.5235   -0.3134 S   0  0  0  0  0  6  0  0  0  0  0  0
    2.2455    1.1210    2.8478 F   0  0  0  0  0  0  0  0  0  0  0  0
   -0.8676   -0.0509   -2.9913 F   0  0  0  0  0  0  0  0  0  0  0  0
    1.2685    2.4790    2.6641 F   0  0  0  0  0  0  0  0  0  0  0  0
    1.2846    2.4987    2.6479 F   0  0  0  0  0  0  0  0  0  0  0  0
    1.2671    2.4735    2.6673 F   0  0  0  0  0  0  0  0  0  0  0  0
    5.1040   -2.2615    0.3903 C   0  0  0  0  0  0  0  0  0  0  0  0
    3.8178   -1.7593    0.6104 C   0  0  0  0  0  0  0  0  0  0  0  0
    1.3827    0.8103   -0.4220 C   0  0  0  0  0  0  0  0  0  0  0  0
    2.0379    1.8105   -1.0589 N   0  0  0  0  0  0  0  0  0  0  0  0
    1.3868    2.9749   -1.3213 C   0  0  0  0  0  0  0  0  0  0  0  0
    0.0528    3.1530   -0.9161 C   0  0  0  0  0  0  0  0  0  0  0  0
   -0.6358    2.1324   -0.2172 C   0  0  0  0  0  0  0  0  0  0  0  0
   -2.0400    2.4323    0.2685 C   0  0  2  0  0  0  0  0  0  0  0  0
   -2.1436    2.1603    1.6401 O   0  0  0  0  0  0  0  0  0  0  0  0
   -3.1009    1.6781   -0.5521 C   0  0  0  0  0  0  0  0  0  0  0  0
   -3.1092    2.1325   -1.8790 O   0  0  0  0  0  0  0  0  0  0  0  0
    0.0777    0.9240    0.0065 C   0  0  0  0  0  0  0  0  0  0  0  0
   -5.5960   -3.8762    0.5646 H   0  0  0  0  0  0  0  0  0  0  0  0
   -5.5149   -4.4878   -1.1914 H   0  0  0  0  0  0  0  0  0  0  0  0
   -3.4692   -3.3076   -1.5583 H   0  0  0  0  0  0  0  0  0  0  0  0
   -1.6603   -1.8365   -0.7710 H   0  0  0  0  0  0  0  0  0  0  0  0
   -1.1650   -1.5282    2.0655 H   0  0  0  0  0  0  0  0  0  0  0  0
   -2.1343   -0.1413    1.5423 H   0  0  0  0  0  0  0  0  0  0  0  0
    3.4953    0.0883   -2.2405 H   0  0  0  0  0  0  0  0  0  0  0  0
    5.7674   -0.7887   -2.5971 H   0  0  0  0  0  0  0  0  0  0  0  0
    5.5580   -2.9275    1.1119 H   0  0  0  0  0  0  0  0  0  0  0  0
    3.2870   -2.0419    1.5108 H   0  0  0  0  0  0  0  0  0  0  0  0
    1.9042    3.7719   -1.8382 H   0  0  0  0  0  0  0  0  0  0  0  0
   -0.4297    4.0980   -1.1327 H   0  0  0  0  0  0  0  0  0  0  0  0
   -2.2439    3.5212    0.1332 H   0  0  0  0  0  0  0  0  0  0  0  0
   -2.9893    2.5733    1.9571 H   0  0  0  0  0  0  0  0  0  0  0  0
   -2.8934    0.5944   -0.5642 H   0  0  0  0  0  0  0  0  0  0  0  0
   -4.1072    1.8185   -0.0957 H   0  0  0  0  0  0  0  0  0  0  0  0
   -3.5754    3.0090   -1.8777 H   0  0  0  0  0  0  0  0  0  0  0  0
  1  2  2  0
  2  3  1  0
  3  4  2  0
  3  5  1  0
  5  6  1  0
  6  7  1  0
  7  8  2  0
  8  9  1  0
  9 10  1  0
 10 11  2  0
 11 12  1  0
 12 13  2  0
 13 14  1  0
 14 15  1  0
 14 16  1  0
 14 17  1  0
 14 18  1  0
 14 19  1  0
 13 20  1  0
 20 21  2  0
  9 22  1  0
 22 23  2  0
 23 24  1  0
 24 25  2  0
 25 26  1  0
 26 27  1  0
 27 28  1  0
 27 29  1  0
 29 30  1  0
 26 31  2  0
 31  7  1  0
 21 10  1  0
 31 22  1  0
  1 32  1  0
  1 33  1  0
  2 34  1  0
  5 35  1  0
  6 36  1  0
  6 37  1  0
 11 38  1  0
 12 39  1  0
 20 40  1  0
 21 41  1  0
 24 42  1  0
 25 43  1  0
 27 44  1  1
 28 45  1  0
 29 46  1  0
 29 47  1  0
 30 48  1  0
M  END
>  <mol_id>  (1) 
28596

>  <source_index>  (1) 
0

>  <layer>  (1) 
L3

>  <uniprot>  (1) 
P28347

>  <paff>  (1) 
7.3665000000000003

>  <smiles>  (1) 
OC[C@@H](O)c1ccnc2n(nc(CNC(=O)C=C)c12)-c1ccc(cc1)S(F)(F)(F)(F)F |r|

$$$$
