L3:P28347:28596


 34 36  0  0  0  0  0  0  0  0999 V2000
  -12.6780   16.9915   67.6909 C   0  0  0  0  0  0  0  0  0  0  0  0
  -12.1057   18.1654   67.3308 N   0  0  0  0  0  0  0  0  0  0  0  0
  -12.3579   19.0717   68.2624 N   0  0  0  0  0  0  0  0  0  0  0  0
  -13.0960   18.4881   69.2222 C   0  0  0  0  0  0  0  0  0  0  0  0
  -13.5285   19.0747   70.3642 N   0  0  0  0  0  0  0  0  0  0  0  0
  -14.2544   18.3480   71.2551 C   0  0  0  0  0  0  0  0  0  0  0  0
  -14.5360   16.9932   71.0089 C   0  0  0  0  0  0  0  0  0  0  0  0
  -14.0610   16.3542   69.8383 C   0  0  0  0  0  0  0  0  0  0  0  0
  -13.3329   17.1634   68.9247 C   0  0  0  0  0  0  0  0  0  0  0  0
  -11.8756   20.4266   68.2045 C   0  0  0  0  0  0  0  0  0  0  0  0
  -12.6102   21.4357   67.5534 C   0  0  0  0  0  0  0  0  0  0  0  0
  -12.1180   22.7437   67.4992 C   0  0  0  0  0  0  0  0  0  0  0  0
  -10.8895   23.0552   68.0843 C   0  0  0  0  0  0  0  0  0  0  0  0
  -10.1458   22.0591   68.7191 C   0  0  0  0  0  0  0  0  0  0  0  0
  -10.6319   20.7494   68.7751 C   0  0  0  0  0  0  0  0  0  0  0  0
  -10.0713   23.6119   68.3871 S   0  0  0  0  0  0  0  0  0  0  0  0
   -9.7787   18.3280   64.7245 F   0  0  0  0  0  0  0  0  0  0  0  0
  -15.8816   20.7610   63.3122 F   0  0  0  0  0  0  0  0  0  0  0  0
  -10.6495   16.9458   64.3200 F   0  0  0  0  0  0  0  0  0  0  0  0
  -10.6627   16.9365   64.3455 F   0  0  0  0  0  0  0  0  0  0  0  0
  -10.6459   16.9495   64.3161 F   0  0  0  0  0  0  0  0  0  0  0  0
  -14.3250   14.8693   69.6871 C   0  0  0  0  0  0  0  0  0  0  0  0
  -15.5721   14.6612   69.0809 O   0  0  0  0  0  0  0  0  0  0  0  0
  -15.6060   13.7089   68.8012 H   0  0  0  0  0  0  0  0  0  0  0  0
  -14.2045   14.1286   71.0305 C   0  0  0  0  0  0  0  0  0  0  0  0
  -12.8570   13.9849   71.3923 O   0  0  0  0  0  0  0  0  0  0  0  0
  -12.4872   13.2540   70.8314 H   0  0  0  0  0  0  0  0  0  0  0  0
  -12.6693   15.8271   66.7414 C   0  0  0  0  0  0  0  0  0  0  0  0
  -11.9314   13.4468   67.1547 C   0  0  0  0  0  0  0  0  0  0  0  0
  -13.0839   13.0278   66.8560 O   0  0  0  0  0  0  0  0  0  0  0  0
  -11.6527   14.8524   67.1354 N   0  0  0  0  0  0  0  0  0  0  0  0
  -10.6897   15.1765   67.3840 H   0  0  0  0  0  0  0  0  0  0  0  0
   -9.5927   12.6784   67.1719 C   0  0  0  0  0  0  0  0  0  0  0  0
  -10.8648   12.4970   67.5220 C   0  0  0  0  0  0  0  0  0  0  0  0
 33 34  2  0  0  0
 34 29  1  0  0  0
 29 30  2  0  0  0
 29 31  1  0  0  0
 31 28  1  0  0  0
 28  1  1  0  0  0
  1  2  2  0  0  0
  2  3  1  0  0  0
  3 10  1  0  0  0
 10 11  2  0  0  0
 11 12  1  0  0  0
 12 13  2  0  0  0
 13 16  1  0  0  0
 16 17  1  0  0  0
 16 18  1  0  0  0
 16 19  1  0  0  0
 16 20  1  0  0  0
 16 21  1  0  0  0
 13 14  1  0  0  0
 14 15  2  0  0  0
  3  4  1  0  0  0
  4  5  2  0  0  0
  5  6  1  0  0  0
  6  7  2  0  0  0
  7  8  1  0  0  0
  8 22  1  0  0  0
 22 23  1  0  0  0
 22 25  1  0  0  0
 25 26  1  0  0  0
  8  9  2  0  0  0
  9  1  1  0  0  0
 15 10  1  0  0  0
  9  4  1  0  0  0
 31 32  1  0  0  0
 23 24  1  0  0  0
 26 27  1  0  0  0
M  END
> <minimizedAffinity>
-7.18263

$$$$
