L3:P28347:30720
     RDKit          3D

 50 53  0  0  0  0  0  0  0  0999 V2000
   -0.7467   -5.3901   -0.7194 C   0  0  0  0  0  0  0  0  0  0  0  0
   -1.9172   -4.9852   -1.2299 C   0  0  0  0  0  0  0  0  0  0  0  0
   -2.4804   -3.6146   -1.1407 C   0  0  0  0  0  0  0  0  0  0  0  0
   -3.6811   -3.4315   -1.3075 O   0  0  0  0  0  0  0  0  0  0  0  0
   -1.5892   -2.6124   -0.9091 N   0  0  0  0  0  0  0  0  0  0  0  0
   -2.0110   -1.2355   -0.8065 C   0  0  0  0  0  0  0  0  0  0  0  0
   -0.8307   -0.3555   -0.5170 C   0  0  0  0  0  0  0  0  0  0  0  0
    0.3976   -0.8951   -0.4656 N   0  0  0  0  0  0  0  0  0  0  0  0
    1.2381    0.1453   -0.2014 N   0  0  0  0  0  0  0  0  0  0  0  0
    2.6422   -0.1079   -0.0828 C   0  0  0  0  0  0  0  0  0  0  0  0
    3.5644    0.9065    0.1970 C   0  0  0  0  0  0  0  0  0  0  0  0
    4.9344    0.6205    0.3065 C   0  0  0  0  0  0  0  0  0  0  0  0
    5.4028   -0.6814    0.1383 C   0  0  0  0  0  0  0  0  0  0  0  0
    6.7001   -1.0973    0.2171 O   0  0  0  0  0  0  0  0  0  0  0  0
    7.6905   -0.1235    0.4977 C   0  0  0  0  0  0  0  0  0  0  0  0
    7.7283    0.8255   -0.4620 F   0  0  0  0  0  0  0  0  0  0  0  0
    7.4787    0.4565    1.6985 F   0  0  0  0  0  0  0  0  0  0  0  0
    8.8973   -0.7315    0.5334 F   0  0  0  0  0  0  0  0  0  0  0  0
    4.4857   -1.6961   -0.1411 C   0  0  0  0  0  0  0  0  0  0  0  0
    3.1195   -1.4172   -0.2512 C   0  0  0  0  0  0  0  0  0  0  0  0
    0.5376    1.3443   -0.0875 C   0  0  0  0  0  0  0  0  0  0  0  0
    1.0554    2.5685    0.1632 N   0  0  0  0  0  0  0  0  0  0  0  0
    0.1451    3.5526    0.2149 C   0  0  0  0  0  0  0  0  0  0  0  0
   -1.2170    3.3868    0.0398 C   0  0  0  0  0  0  0  0  0  0  0  0
   -1.7558    2.1133   -0.2166 C   0  0  0  0  0  0  0  0  0  0  0  0
   -3.2791    1.7917   -0.4211 C   0  0  1  0  0  0  0  0  0  0  0  0
   -4.1125    1.3727    0.8257 C   0  0  0  0  0  0  0  0  0  0  0  0
   -5.3265    2.0753    0.1781 C   0  0  1  0  0  0  0  0  0  0  0  0
   -6.2238    2.7623    1.0663 O   0  0  0  0  0  0  0  0  0  0  0  0
   -4.3090    2.9499   -0.5874 C   0  0  0  0  0  0  0  0  0  0  0  0
   -0.8136    1.0495   -0.2839 C   0  0  0  0  0  0  0  0  0  0  0  0
   -0.4414   -6.4273   -0.8203 H   0  0  0  0  0  0  0  0  0  0  0  0
   -0.0782   -4.7336   -0.1746 H   0  0  0  0  0  0  0  0  0  0  0  0
   -2.5741   -5.6967   -1.7218 H   0  0  0  0  0  0  0  0  0  0  0  0
   -0.5917   -2.7735   -0.8440 H   0  0  0  0  0  0  0  0  0  0  0  0
   -2.4793   -0.9541   -1.7551 H   0  0  0  0  0  0  0  0  0  0  0  0
   -2.7513   -1.1700   -0.0050 H   0  0  0  0  0  0  0  0  0  0  0  0
    3.2631    1.9397    0.3394 H   0  0  0  0  0  0  0  0  0  0  0  0
    5.5993    1.4518    0.5254 H   0  0  0  0  0  0  0  0  0  0  0  0
    4.8323   -2.7185   -0.2764 H   0  0  0  0  0  0  0  0  0  0  0  0
    2.4429   -2.2404   -0.4714 H   0  0  0  0  0  0  0  0  0  0  0  0
    0.5540    4.5411    0.4129 H   0  0  0  0  0  0  0  0  0  0  0  0
   -1.8600    4.2588    0.1047 H   0  0  0  0  0  0  0  0  0  0  0  0
   -3.4199    1.0846   -1.2525 H   0  0  0  0  0  0  0  0  0  0  0  0
   -3.7818    1.8250    1.7684 H   0  0  0  0  0  0  0  0  0  0  0  0
   -4.2323    0.2973    0.9786 H   0  0  0  0  0  0  0  0  0  0  0  0
   -5.8922    1.4104   -0.4867 H   0  0  0  0  0  0  0  0  0  0  0  0
   -5.6628    3.2904    1.6590 H   0  0  0  0  0  0  0  0  0  0  0  0
   -4.5797    3.1832   -1.6214 H   0  0  0  0  0  0  0  0  0  0  0  0
   -4.0706    3.8853   -0.0702 H   0  0  0  0  0  0  0  0  0  0  0  0
  1  2  2  0
  2  3  1  0
  3  4  2  0
  3  5  1  0
  5  6  1  0
  6  7  1  0
  7  8  2  0
  8  9  1  0
  9 10  1  0
 10 11  2  0
 11 12  1  0
 12 13  2  0
 13 14  1  0
 14 15  1  0
 15 16  1  0
 15 17  1  0
 15 18  1  0
 13 19  1  0
 19 20  2  0
  9 21  1  0
 21 22  2  0
 22 23  1  0
 23 24  2  0
 24 25  1  0
 25 26  1  0
 26 27  1  0
 27 28  1  0
 28 29  1  0
 28 30  1  0
 25 31  2  0
 31  7  1  0
 20 10  1  0
 31 21  1  0
 30 26  1  0
  1 32  1  0
  1 33  1  0
  2 34  1  0
  5 35  1  0
  6 36  1  0
  6 37  1  0
 11 38  1  0
 12 39  1  0
 19 40  1  0
 20 41  1  0
 23 42  1  0
 24 43  1  0
 26 44  1  6
 27 45  1  0
 27 46  1  0
 28 47  1  6
 29 48  1  0
 30 49  1  0
 30 50  1  0
M  END
>  <mol_id>  (1) 
30720

>  <source_index>  (1) 
1

>  <layer>  (1) 
L3

>  <uniprot>  (1) 
P28347

>  <paff>  (1) 
6.7446999999999999

>  <smiles>  (1) 
C=CC(=O)NCc1nn(-c2ccc(OC(F)(F)F)cc2)c2nccc([C@H]3C[C@@H](O)C3)c12

$$$$
