L3:P28347:52030
     RDKit          3D

 43 46  0  0  0  0  0  0  0  0999 V2000
   -2.6931    1.9261    0.2258 O   0  0  0  0  0  0  0  0  0  0  0  0
   -2.6254    0.9328    0.9440 C   0  0  0  0  0  0  0  0  0  0  0  0
   -1.7721    0.8888    2.0244 N   0  0  0  0  0  0  0  0  0  0  0  0
   -0.8936    1.9861    2.3592 C   0  0  0  0  0  0  0  0  0  0  0  0
    0.5237    1.6675    1.9594 C   0  0  0  0  0  0  0  0  0  0  0  0
    0.9340    1.8363    0.6280 C   0  0  0  0  0  0  0  0  0  0  0  0
    2.2383    1.5222    0.2415 C   0  0  0  0  0  0  0  0  0  0  0  0
    3.1367    1.0149    1.1817 C   0  0  0  0  0  0  0  0  0  0  0  0
    4.4454    0.7165    0.8773 O   0  0  0  0  0  0  0  0  0  0  0  0
    4.6783   -0.0204   -0.2618 C   0  0  0  0  0  0  0  0  0  0  0  0
    5.7132    0.4091   -1.0930 C   0  0  0  0  0  0  0  0  0  0  0  0
    6.0237   -0.3120   -2.2463 C   0  0  0  0  0  0  0  0  0  0  0  0
    5.3094   -1.4694   -2.5582 C   0  0  0  0  0  0  0  0  0  0  0  0
    4.2897   -1.9113   -1.7142 C   0  0  0  0  0  0  0  0  0  0  0  0
    3.9774   -1.1919   -0.5598 C   0  0  0  0  0  0  0  0  0  0  0  0
    2.7456    0.8576    2.5109 C   0  0  0  0  0  0  0  0  0  0  0  0
    1.4410    1.1720    2.8973 C   0  0  0  0  0  0  0  0  0  0  0  0
   -3.4066   -0.2625    0.7280 C   0  0  0  0  0  0  0  0  0  0  0  0
   -3.5797   -1.3780    1.5322 C   0  0  0  0  0  0  0  0  0  0  0  0
   -4.4105   -2.3050    0.9670 N   0  0  0  0  0  0  0  0  0  0  0  0
   -4.7698   -1.7825   -0.1833 C   0  0  0  0  0  0  0  0  0  0  0  0
   -5.6260   -2.2900   -1.2020 C   0  0  0  0  0  0  0  0  0  0  0  0
   -5.8486   -1.5660   -2.3146 C   0  0  0  0  0  0  0  0  0  0  0  0
   -5.2304   -0.2660   -2.5050 C   0  0  0  0  0  0  0  0  0  0  0  0
   -4.4221    0.2196   -1.5477 C   0  0  0  0  0  0  0  0  0  0  0  0
   -4.1898   -0.5290   -0.3881 N   0  0  0  0  0  0  0  0  0  0  0  0
   -1.6694    0.0397    2.5567 H   0  0  0  0  0  0  0  0  0  0  0  0
   -0.9611    2.1360    3.4425 H   0  0  0  0  0  0  0  0  0  0  0  0
   -1.2214    2.9177    1.8848 H   0  0  0  0  0  0  0  0  0  0  0  0
    0.2344    2.2173   -0.1148 H   0  0  0  0  0  0  0  0  0  0  0  0
    2.5434    1.6781   -0.7896 H   0  0  0  0  0  0  0  0  0  0  0  0
    6.2727    1.3066   -0.8446 H   0  0  0  0  0  0  0  0  0  0  0  0
    6.8242    0.0259   -2.8990 H   0  0  0  0  0  0  0  0  0  0  0  0
    5.5528   -2.0321   -3.4560 H   0  0  0  0  0  0  0  0  0  0  0  0
    3.7418   -2.8193   -1.9522 H   0  0  0  0  0  0  0  0  0  0  0  0
    3.1943   -1.5520    0.1012 H   0  0  0  0  0  0  0  0  0  0  0  0
    3.4560    0.4842    3.2436 H   0  0  0  0  0  0  0  0  0  0  0  0
    1.1493    1.0321    3.9356 H   0  0  0  0  0  0  0  0  0  0  0  0
   -3.1518   -1.5675    2.5080 H   0  0  0  0  0  0  0  0  0  0  0  0
   -6.0845   -3.2611   -1.0544 H   0  0  0  0  0  0  0  0  0  0  0  0
   -6.4992   -1.9402   -3.0992 H   0  0  0  0  0  0  0  0  0  0  0  0
   -5.4335    0.2868   -3.4161 H   0  0  0  0  0  0  0  0  0  0  0  0
   -3.9365    1.1825   -1.6408 H   0  0  0  0  0  0  0  0  0  0  0  0
  1  2  2  0
  2  3  1  0
  3  4  1  0
  4  5  1  0
  5  6  2  0
  6  7  1  0
  7  8  2  0
  8  9  1  0
  9 10  1  0
 10 11  2  0
 11 12  1  0
 12 13  2  0
 13 14  1  0
 14 15  2  0
  8 16  1  0
 16 17  2  0
  2 18  1  0
 18 19  2  0
 19 20  1  0
 20 21  2  0
 21 22  1  0
 22 23  2  0
 23 24  1  0
 24 25  2  0
 25 26  1  0
 17  5  1  0
 26 18  1  0
 15 10  1  0
 26 21  1  0
  3 27  1  0
  4 28  1  0
  4 29  1  0
  6 30  1  0
  7 31  1  0
 11 32  1  0
 12 33  1  0
 13 34  1  0
 14 35  1  0
 15 36  1  0
 16 37  1  0
 17 38  1  0
 19 39  1  0
 22 40  1  0
 23 41  1  0
 24 42  1  0
 25 43  1  0
M  END
>  <mol_id>  (1) 
52030

>  <source_index>  (1) 
2

>  <layer>  (1) 
L3

>  <uniprot>  (1) 
P28347

>  <paff>  (1) 
7.2218

>  <smiles>  (1) 
c1ccc(cc1)Oc2ccc(cc2)CNC(=O)c3cnc4n3cccc4

$$$$
