L3:P28347:52030


 27 30  0  0  0  0  0  0  0  0999 V2000
  -13.5555    8.3169   66.0614 C   0  0  0  0  0  0  0  0  0  0  0  0
  -13.0778    6.9282   66.3981 C   0  0  0  0  0  0  0  0  0  0  0  0
  -11.7653    6.5409   66.0870 C   0  0  0  0  0  0  0  0  0  0  0  0
  -11.3192    5.2494   66.3734 C   0  0  0  0  0  0  0  0  0  0  0  0
  -12.1917    4.3274   66.9539 C   0  0  0  0  0  0  0  0  0  0  0  0
  -13.4933    4.7050   67.2821 C   0  0  0  0  0  0  0  0  0  0  0  0
  -13.9393    5.9969   66.9958 C   0  0  0  0  0  0  0  0  0  0  0  0
  -11.8088    3.0497   67.2933 O   0  0  0  0  0  0  0  0  0  0  0  0
  -11.8265    2.0981   66.2988 C   0  0  0  0  0  0  0  0  0  0  0  0
  -11.2637    0.8575   66.5996 C   0  0  0  0  0  0  0  0  0  0  0  0
  -11.2789   -0.1623   65.6476 C   0  0  0  0  0  0  0  0  0  0  0  0
  -11.8704    0.0551   64.4026 C   0  0  0  0  0  0  0  0  0  0  0  0
  -12.4538    1.2888   64.1108 C   0  0  0  0  0  0  0  0  0  0  0  0
  -12.4401    2.3104   65.0615 C   0  0  0  0  0  0  0  0  0  0  0  0
  -13.8875   11.0584   66.4705 O   0  0  0  0  0  0  0  0  0  0  0  0
  -12.7422   10.6164   66.4642 C   0  0  0  0  0  0  0  0  0  0  0  0
  -12.4939    9.2777   66.2557 N   0  0  0  0  0  0  0  0  0  0  0  0
  -11.5564    8.9168   66.3319 H   0  0  0  0  0  0  0  0  0  0  0  0
  -11.5707   11.4333   66.6788 C   0  0  0  0  0  0  0  0  0  0  0  0
  -11.3948   12.5586   67.4685 C   0  0  0  0  0  0  0  0  0  0  0  0
  -10.1194   13.0469   67.4045 N   0  0  0  0  0  0  0  0  0  0  0  0
   -9.4860   12.2364   66.5877 C   0  0  0  0  0  0  0  0  0  0  0  0
   -8.1335   12.2446   66.1417 C   0  0  0  0  0  0  0  0  0  0  0  0
   -7.7022   11.2983   65.2873 C   0  0  0  0  0  0  0  0  0  0  0  0
   -8.5913   10.2575   64.8028 C   0  0  0  0  0  0  0  0  0  0  0  0
   -9.8686   10.2429   65.2200 C   0  0  0  0  0  0  0  0  0  0  0  0
  -10.3205   11.2238   66.1103 N   0  0  0  0  0  0  0  0  0  0  0  0
 15 16  2  0  0  0
 16 17  1  0  0  0
 17  1  1  0  0  0
  1  2  1  0  0  0
  2  3  2  0  0  0
  3  4  1  0  0  0
  4  5  2  0  0  0
  5  8  1  0  0  0
  8  9  1  0  0  0
  9 10  2  0  0  0
 10 11  1  0  0  0
 11 12  2  0  0  0
 12 13  1  0  0  0
 13 14  2  0  0  0
  5  6  1  0  0  0
  6  7  2  0  0  0
 16 19  1  0  0  0
 19 20  2  0  0  0
 20 21  1  0  0  0
 21 22  2  0  0  0
 22 23  1  0  0  0
 23 24  2  0  0  0
 24 25  1  0  0  0
 25 26  2  0  0  0
 26 27  1  0  0  0
  7  2  1  0  0  0
 27 19  1  0  0  0
 14  9  1  0  0  0
 27 22  1  0  0  0
 17 18  1  0  0  0
M  END
> <minimizedAffinity>
-10.16104

$$$$
