L3:P28347:64839


 66 74  0  0  0  0  0  0  0  0999 V2000
  -11.2001   21.9496   72.9865 C   0  0  0  0  0  0  0  0  0  0  0  0
  -10.5685   22.6886   74.0106 C   0  0  0  0  0  0  0  0  0  0  0  0
   -9.2719   23.7857   73.6667 Cl  0  0  0  0  0  0  0  0  0  0  0  0
  -10.9595   22.5562   75.3559 C   0  0  0  0  0  0  0  0  0  0  0  0
  -11.9773   21.6729   75.7124 C   0  0  0  0  0  0  0  0  0  0  0  0
  -12.5899   20.9537   74.7077 C   0  0  0  0  0  0  0  0  0  0  0  0
  -12.2329   21.0922   73.3777 C   0  0  0  0  0  0  0  0  0  0  0  0
  -13.0847   20.2029   72.5462 C   0  0  0  0  0  0  0  0  0  0  0  0
  -13.9835   19.5321   73.6223 C   0  0  0  0  0  0  0  0  0  0  0  0
  -13.5869   20.0474   74.9389 O   0  0  0  0  0  0  0  0  0  0  0  0
  -11.0051   23.1115   69.3831 C   0  0  0  0  0  0  0  0  0  0  0  0
  -10.0183   22.2793   68.8597 C   0  0  0  0  0  0  0  0  0  0  0  0
   -9.4035   21.3288   69.6790 C   0  0  0  0  0  0  0  0  0  0  0  0
   -9.7708   21.2023   71.0299 C   0  0  0  0  0  0  0  0  0  0  0  0
  -10.7714   22.0207   71.5804 C   0  0  0  0  0  0  0  0  0  0  0  0
  -11.3657   22.9720   70.7317 C   0  0  0  0  0  0  0  0  0  0  0  0
  -12.3109   23.7879   71.2318 F   0  0  0  0  0  0  0  0  0  0  0  0
   -9.0869   20.1694   71.8433 C   0  0  0  0  0  0  0  0  0  0  0  0
   -9.6153   18.9105   71.7758 N   0  0  0  0  0  0  0  0  0  0  0  0
   -8.1129   20.4214   72.5357 O   0  0  0  0  0  0  0  0  0  0  0  0
   -9.1567   18.1840   72.3103 H   0  0  0  0  0  0  0  0  0  0  0  0
  -10.3800   18.6527   71.1694 H   0  0  0  0  0  0  0  0  0  0  0  0
  -11.6707   24.0869   68.6920 O   0  0  0  0  0  0  0  0  0  0  0  0
  -12.4127   23.6919   67.5398 C   0  0  0  0  0  0  0  0  0  0  0  0
  -13.8761   23.5126   67.9424 C   0  0  0  0  0  0  0  0  0  0  0  0
  -13.4710   21.2481   67.3567 C   0  0  0  0  0  0  0  0  0  0  0  0
  -14.1907   22.1429   68.1950 O   0  0  0  0  0  0  0  0  0  0  0  0
  -13.8313   18.0034   73.5872 C   0  0  0  0  0  0  0  0  0  0  0  0
  -12.6171   17.3908   73.2352 C   0  0  0  0  0  0  0  0  0  0  0  0
  -12.4950   15.9993   73.2098 C   0  0  0  0  0  0  0  0  0  0  0  0
  -13.5834   15.1950   73.5357 C   0  0  0  0  0  0  0  0  0  0  0  0
  -14.7962   15.7805   73.8867 C   0  0  0  0  0  0  0  0  0  0  0  0
  -14.9201   17.1714   73.9124 C   0  0  0  0  0  0  0  0  0  0  0  0
  -15.4978   19.9006   73.4601 C   0  0  0  0  0  0  0  0  0  0  0  0
  -15.9087   20.0649   72.0507 N   0  0  0  0  0  0  0  0  0  0  0  0
  -16.2383   21.0265   71.9541 H   0  0  0  0  0  0  0  0  0  0  0  0
  -16.9831   19.1467   71.6903 C   0  0  0  0  0  0  0  0  0  0  0  0
  -16.8466   18.4932   70.2935 C   0  0  0  0  0  0  0  0  0  0  0  0
  -15.3911   18.3064   69.8213 C   0  0  0  0  0  0  0  0  0  0  0  0
  -14.7145   17.0096   70.2654 C   0  0  0  0  0  0  0  0  0  0  0  0
  -15.6053   15.8000   69.9630 C   0  0  0  0  0  0  0  0  0  0  0  0
  -16.9807   15.9419   70.6112 C   0  0  0  0  0  0  0  0  0  0  0  0
  -17.6752   17.2087   70.1209 C   0  0  0  0  0  0  0  0  0  0  0  0
  -15.5939   15.3310   68.4842 C   0  0  0  0  0  0  0  0  0  0  0  0
  -14.6495   14.3365   68.8708 N   0  0  0  0  0  0  0  0  0  0  0  0
  -14.9205   14.4435   70.2680 C   0  0  0  0  0  0  0  0  0  0  0  0
  -13.9529   13.3730   68.1324 C   0  0  0  0  0  0  0  0  0  0  0  0
  -12.6657   13.6611   67.6112 C   0  0  0  0  0  0  0  0  0  0  0  0
  -11.9404   12.7231   66.8651 C   0  0  0  0  0  0  0  0  0  0  0  0
  -12.5342   11.4982   66.6540 C   0  0  0  0  0  0  0  0  0  0  0  0
  -13.7855   11.2018   67.1550 C   0  0  0  0  0  0  0  0  0  0  0  0
  -14.5183   12.1120   67.8926 C   0  0  0  0  0  0  0  0  0  0  0  0
  -14.1074    9.8354   66.7536 C   0  0  0  0  0  0  0  0  0  0  0  0
  -15.1486    9.2693   67.0235 O   0  0  0  0  0  0  0  0  0  0  0  0
  -13.0429    9.3737   66.0307 N   0  0  0  0  0  0  0  0  0  0  0  0
  -12.0553   10.3181   65.9383 C   0  0  0  0  0  0  0  0  0  0  0  0
  -10.9640   10.2351   65.4086 O   0  0  0  0  0  0  0  0  0  0  0  0
  -12.9374    8.0508   65.4309 C   0  0  0  0  0  0  0  0  0  0  0  0
  -12.0746    7.0553   66.2018 C   0  0  0  0  0  0  0  0  0  0  0  0
  -12.8208    6.3161   67.2969 C   0  0  0  0  0  0  0  0  0  0  0  0
  -14.1339    5.7528   66.8142 C   0  0  0  0  0  0  0  0  0  0  0  0
  -14.6488    4.7629   67.3283 O   0  0  0  0  0  0  0  0  0  0  0  0
  -14.7584    6.4156   65.7894 N   0  0  0  0  0  0  0  0  0  0  0  0
  -14.3336    7.5273   65.1043 C   0  0  0  0  0  0  0  0  0  0  0  0
  -15.0861    8.0966   64.3143 O   0  0  0  0  0  0  0  0  0  0  0  0
  -15.6761    6.0708   65.5441 H   0  0  0  0  0  0  0  0  0  0  0  0
 26 27  1  0  0  0
 27 25  1  0  0  0
 25 24  1  0  0  0
 24 23  1  0  0  0
 23 11  1  0  0  0
 11 12  2  0  0  0
 12 13  1  0  0  0
 13 14  2  0  0  0
 14 18  1  0  0  0
 18 19  1  0  0  0
 18 20  2  0  0  0
 14 15  1  0  0  0
 15  1  1  0  0  0
  1  2  2  0  0  0
  2  3  1  0  0  0
  2  4  1  0  0  0
  4  5  2  0  0  0
  5  6  1  0  0  0
  6  7  2  0  0  0
  7  8  1  0  0  0
  8  9  1  0  0  0
  9 34  1  0  0  0
 34 35  1  0  0  0
 35 37  1  0  0  0
 37 38  1  0  0  0
 38 39  1  0  0  0
 39 40  1  0  0  0
 40 41  1  0  0  0
 41 42  1  0  0  0
 42 43  1  0  0  0
 41 44  1  0  0  0
 44 45  1  0  0  0
 45 47  1  0  0  0
 47 48  2  0  0  0
 48 49  1  0  0  0
 49 50  2  0  0  0
 50 51  1  0  0  0
 51 52  2  0  0  0
 51 53  1  0  0  0
 53 54  2  0  0  0
 53 55  1  0  0  0
 55 58  1  0  0  0
 58 59  1  0  0  0
 59 60  1  0  0  0
 60 61  1  0  0  0
 61 62  2  0  0  0
 61 63  1  0  0  0
 63 64  1  0  0  0
 64 65  2  0  0  0
 55 56  1  0  0  0
 56 57  2  0  0  0
 45 46  1  0  0  0
  9 28  1  0  0  0
 28 29  2  0  0  0
 29 30  1  0  0  0
 30 31  2  0  0  0
 31 32  1  0  0  0
 32 33  2  0  0  0
  9 10  1  0  0  0
 15 16  2  0  0  0
 16 17  1  0  0  0
 16 11  1  0  0  0
  7  1  1  0  0  0
 43 38  1  0  0  0
 52 47  1  0  0  0
 64 58  1  0  0  0
 33 28  1  0  0  0
 10  6  1  0  0  0
 46 41  1  0  0  0
 56 50  1  0  0  0
 19 21  1  0  0  0
 19 22  1  0  0  0
 35 36  1  0  0  0
 63 66  1  0  0  0
M  END
> <minimizedAffinity>
-7.15939

$$$$
