L3:P28347:76968
 OpenBabel09212617483D

 46 48  0  0  0  0  0  0  0  0999 V2000
  -13.2449    7.5601   66.5515 C   0  0  0  0  0  0  0  0  0  0  0  0
  -13.4139    6.3199   67.0271 N   0  0  0  0  0  0  0  0  0  0  0  0
  -12.3590    5.6012   66.5437 N   0  0  0  0  0  0  0  0  0  0  0  0
  -11.5005    6.4046   65.7962 C   0  0  0  0  0  0  0  0  0  0  0  0
  -10.3483    6.0305   65.1932 N   0  0  0  0  0  0  0  0  0  0  0  0
   -9.7128    7.0286   64.5552 C   0  0  0  0  0  0  0  0  0  0  0  0
  -10.1483    8.3398   64.4898 C   0  0  0  0  0  0  0  0  0  0  0  0
  -11.3534    8.7188   65.1071 C   0  0  0  0  0  0  0  0  0  0  0  0
  -12.0501    7.6878   65.7904 C   0  0  0  0  0  0  0  0  0  0  0  0
  -12.2667    4.2069   66.8540 C   0  0  0  0  0  0  0  0  0  0  0  0
  -11.2342    3.3989   66.3655 C   0  0  0  0  0  0  0  0  0  0  0  0
  -11.1759    2.0346   66.6910 C   0  0  0  0  0  0  0  0  0  0  0  0
  -12.1475    1.4582   67.5075 C   0  0  0  0  0  0  0  0  0  0  0  0
  -13.1800    2.2611   67.9954 C   0  0  0  0  0  0  0  0  0  0  0  0
  -13.2433    3.6210   67.6746 C   0  0  0  0  0  0  0  0  0  0  0  0
  -12.2117    0.1530   67.9006 O   0  0  0  0  0  0  0  0  0  0  0  0
  -12.5848   -0.8113   66.9319 C   0  0  0  0  0  0  0  0  0  0  0  0
  -13.0924   -1.9185   67.5144 F   0  0  0  0  0  0  0  0  0  0  0  0
  -13.4842   -0.3061   66.0607 F   0  0  0  0  0  0  0  0  0  0  0  0
  -11.4843   -1.1723   66.2348 F   0  0  0  0  0  0  0  0  0  0  0  0
  -11.8030   10.1588   65.0734 C   0  0  0  0  0  0  0  0  0  0  0  0
  -11.6238   10.8014   66.3311 O   0  0  0  0  0  0  0  0  0  0  0  0
  -11.9535   11.7094   66.2132 H   0  0  0  0  0  0  0  0  0  0  0  0
  -14.2645    8.5969   66.8964 C   0  0  0  0  0  0  0  0  0  0  0  0
  -16.6064    8.4654   66.1422 C   0  0  0  0  0  0  0  0  0  0  0  0
  -17.0586    8.3068   67.2688 O   0  0  0  0  0  0  0  0  0  0  0  0
  -15.2759    8.6061   65.8627 N   0  0  0  0  0  0  0  0  0  0  0  0
  -14.9484    8.7203   64.9130 H   0  0  0  0  0  0  0  0  0  0  0  0
  -18.9292    9.7868   63.3539 C   0  0  0  0  0  0  0  0  0  0  0  0
  -18.0554    9.6536   64.5570 C   0  0  0  0  0  0  0  0  0  0  0  0
  -17.4603    8.5095   64.9279 C   0  0  0  0  0  0  0  0  0  0  0  0
   -8.8287    6.7979   64.0755 H   0  0  0  0  0  0  0  0  0  0  0  0
   -9.5861    9.0432   63.9856 H   0  0  0  0  0  0  0  0  0  0  0  0
  -10.5075    3.8104   65.7592 H   0  0  0  0  0  0  0  0  0  0  0  0
  -10.4069    1.4533   66.3225 H   0  0  0  0  0  0  0  0  0  0  0  0
  -13.9057    1.8460   68.6004 H   0  0  0  0  0  0  0  0  0  0  0  0
  -14.0145    4.1985   68.0443 H   0  0  0  0  0  0  0  0  0  0  0  0
  -12.8404   10.1911   64.8133 H   0  0  0  0  0  0  0  0  0  0  0  0
  -11.2072   10.6750   64.3499 H   0  0  0  0  0  0  0  0  0  0  0  0
  -14.7135    8.3623   67.8389 H   0  0  0  0  0  0  0  0  0  0  0  0
  -13.8011    9.5589   66.9651 H   0  0  0  0  0  0  0  0  0  0  0  0
  -19.2798   10.7948   63.2776 H   0  0  0  0  0  0  0  0  0  0  0  0
  -19.7647    9.1245   63.4448 H   0  0  0  0  0  0  0  0  0  0  0  0
  -18.3694    9.5365   62.4770 H   0  0  0  0  0  0  0  0  0  0  0  0
  -17.8997   10.4919   65.1384 H   0  0  0  0  0  0  0  0  0  0  0  0
  -17.5969    7.6549   64.3658 H   0  0  0  0  0  0  0  0  0  0  0  0
  1  2  2  0  0  0  0
  2  3  1  0  0  0  0
  3 10  1  0  0  0  0
  3  4  1  0  0  0  0
  4  5  2  0  0  0  0
  5  6  1  0  0  0  0
  6  7  2  0  0  0  0
  6 32  1  0  0  0  0
  7  8  1  0  0  0  0
  7 33  1  0  0  0  0
  8 21  1  0  0  0  0
  8  9  2  0  0  0  0
  9  1  1  0  0  0  0
  9  4  1  0  0  0  0
 10 11  2  0  0  0  0
 11 12  1  0  0  0  0
 11 34  1  0  0  0  0
 12 13  2  0  0  0  0
 12 35  1  0  0  0  0
 13 16  1  0  0  0  0
 13 14  1  0  0  0  0
 14 15  2  0  0  0  0
 14 36  1  0  0  0  0
 15 10  1  0  0  0  0
 15 37  1  0  0  0  0
 16 17  1  0  0  0  0
 17 18  1  0  0  0  0
 17 19  1  0  0  0  0
 17 20  1  0  0  0  0
 21 22  1  0  0  0  0
 21 38  1  0  0  0  0
 21 39  1  0  0  0  0
 22 23  1  0  0  0  0
 24  1  1  0  0  0  0
 24 40  1  0  0  0  0
 24 41  1  0  0  0  0
 25 26  2  0  0  0  0
 25 27  1  0  0  0  0
 27 24  1  0  0  0  0
 27 28  1  0  0  0  0
 29 30  1  0  0  0  0
 29 42  1  0  0  0  0
 29 43  1  0  0  0  0
 29 44  1  0  0  0  0
 30 31  2  0  0  0  0
 30 45  1  0  0  0  0
 31 25  1  0  0  0  0
 31 46  1  0  0  0  0
M  END
>  <minimizedAffinity>
-9.28079

$$$$
