L3:P28347:76968
     RDKit          3D

 46 48  0  0  0  0  0  0  0  0999 V2000
   -5.8449    3.4821   -1.9824 C   0  0  0  0  0  0  0  0  0  0  0  0
   -5.3843    2.4411   -1.0165 C   0  0  0  0  0  0  0  0  0  0  0  0
   -4.1392    2.3779   -0.5201 C   0  0  0  0  0  0  0  0  0  0  0  0
   -3.7649    1.3060    0.4372 C   0  0  0  0  0  0  0  0  0  0  0  0
   -4.5475    0.4399    0.8064 O   0  0  0  0  0  0  0  0  0  0  0  0
   -2.4623    1.3861    0.8433 N   0  0  0  0  0  0  0  0  0  0  0  0
   -1.8856    0.4452    1.7780 C   0  0  0  0  0  0  0  0  0  0  0  0
   -0.7048   -0.2021    1.1298 C   0  0  0  0  0  0  0  0  0  0  0  0
    0.4867    0.3998    1.2342 N   0  0  0  0  0  0  0  0  0  0  0  0
    1.3611   -0.4136    0.5734 N   0  0  0  0  0  0  0  0  0  0  0  0
    2.7466   -0.0565    0.5303 C   0  0  0  0  0  0  0  0  0  0  0  0
    3.6998   -0.8374   -0.1324 C   0  0  0  0  0  0  0  0  0  0  0  0
    5.0505   -0.4556   -0.1538 C   0  0  0  0  0  0  0  0  0  0  0  0
    5.4682    0.7099    0.4865 C   0  0  0  0  0  0  0  0  0  0  0  0
    6.7420    1.1961    0.5443 O   0  0  0  0  0  0  0  0  0  0  0  0
    7.7611    0.4583   -0.1073 C   0  0  0  0  0  0  0  0  0  0  0  0
    7.8805   -0.7797    0.4180 F   0  0  0  0  0  0  0  0  0  0  0  0
    7.5255    0.3659   -1.4336 F   0  0  0  0  0  0  0  0  0  0  0  0
    8.9378    1.1012    0.0647 F   0  0  0  0  0  0  0  0  0  0  0  0
    4.5200    1.4907    1.1500 C   0  0  0  0  0  0  0  0  0  0  0  0
    3.1729    1.1155    1.1746 C   0  0  0  0  0  0  0  0  0  0  0  0
    0.7076   -1.5099    0.0146 C   0  0  0  0  0  0  0  0  0  0  0  0
    1.2579   -2.4999   -0.7259 N   0  0  0  0  0  0  0  0  0  0  0  0
    0.3770   -3.4210   -1.1532 C   0  0  0  0  0  0  0  0  0  0  0  0
   -0.9814   -3.4082   -0.8931 C   0  0  0  0  0  0  0  0  0  0  0  0
   -1.5446   -2.3839   -0.1116 C   0  0  0  0  0  0  0  0  0  0  0  0
   -3.0332   -2.3470    0.1323 C   0  0  0  0  0  0  0  0  0  0  0  0
   -3.6511   -3.5958   -0.1603 O   0  0  0  0  0  0  0  0  0  0  0  0
   -0.6410   -1.3939    0.3560 C   0  0  0  0  0  0  0  0  0  0  0  0
   -5.0494    4.1885   -2.2400 H   0  0  0  0  0  0  0  0  0  0  0  0
   -6.6774    4.0473   -1.5524 H   0  0  0  0  0  0  0  0  0  0  0  0
   -6.1915    3.0070   -2.9052 H   0  0  0  0  0  0  0  0  0  0  0  0
   -6.1261    1.7029   -0.7143 H   0  0  0  0  0  0  0  0  0  0  0  0
   -3.3844    3.1002   -0.8041 H   0  0  0  0  0  0  0  0  0  0  0  0
   -1.8490    2.1124    0.4990 H   0  0  0  0  0  0  0  0  0  0  0  0
   -2.6186   -0.2867    2.1217 H   0  0  0  0  0  0  0  0  0  0  0  0
   -1.5698    1.0217    2.6551 H   0  0  0  0  0  0  0  0  0  0  0  0
    3.4375   -1.7562   -0.6480 H   0  0  0  0  0  0  0  0  0  0  0  0
    5.7413   -1.1047   -0.6853 H   0  0  0  0  0  0  0  0  0  0  0  0
    4.8267    2.4031    1.6572 H   0  0  0  0  0  0  0  0  0  0  0  0
    2.4696    1.7541    1.7060 H   0  0  0  0  0  0  0  0  0  0  0  0
    0.8077   -4.2203   -1.7523 H   0  0  0  0  0  0  0  0  0  0  0  0
   -1.6049   -4.2004   -1.3001 H   0  0  0  0  0  0  0  0  0  0  0  0
   -3.2392   -2.1257    1.1813 H   0  0  0  0  0  0  0  0  0  0  0  0
   -3.4822   -1.5868   -0.5128 H   0  0  0  0  0  0  0  0  0  0  0  0
   -4.6004   -3.4674    0.0110 H   0  0  0  0  0  0  0  0  0  0  0  0
  1  2  1  0
  2  3  2  0
  3  4  1  0
  4  5  2  0
  4  6  1  0
  6  7  1  0
  7  8  1  0
  8  9  2  0
  9 10  1  0
 10 11  1  0
 11 12  2  0
 12 13  1  0
 13 14  2  0
 14 15  1  0
 15 16  1  0
 16 17  1  0
 16 18  1  0
 16 19  1  0
 14 20  1  0
 20 21  2  0
 10 22  1  0
 22 23  2  0
 23 24  1  0
 24 25  2  0
 25 26  1  0
 26 27  1  0
 27 28  1  0
 26 29  2  0
 29  8  1  0
 21 11  1  0
 29 22  1  0
  1 30  1  0
  1 31  1  0
  1 32  1  0
  2 33  1  0
  3 34  1  0
  6 35  1  0
  7 36  1  0
  7 37  1  0
 12 38  1  0
 13 39  1  0
 20 40  1  0
 21 41  1  0
 24 42  1  0
 25 43  1  0
 27 44  1  0
 27 45  1  0
 28 46  1  0
M  END
>  <mol_id>  (1) 
76968

>  <source_index>  (1) 
4

>  <layer>  (1) 
L3

>  <uniprot>  (1) 
P28347

>  <paff>  (1) 
6.0457999999999998

>  <smiles>  (1) 
C\C=C\C(=O)NCc1nn(-c2ccc(OC(F)(F)F)cc2)c2nccc(CO)c12

$$$$
