L4:P37059:23441
     RDKit          3D

 46 48  0  0  0  0  0  0  0  0999 V2000
   -1.3393    4.4030    2.1654 C   0  0  0  0  0  0  0  0  0  0  0  0
   -0.3226    5.3874    2.4469 N   0  0  0  0  0  0  0  0  0  0  0  0
    0.2606    6.2453    1.5637 C   0  0  0  0  0  0  0  0  0  0  0  0
    1.1667    6.9902    2.2987 C   0  0  0  0  0  0  0  0  0  0  0  0
    1.0416    6.4887    3.6313 C   0  0  0  0  0  0  0  0  0  0  0  0
    0.1328    5.5148    3.6970 N   0  0  0  0  0  0  0  0  0  0  0  0
    2.0555    8.0509    1.8540 C   0  0  0  0  0  0  0  0  0  0  0  0
    2.2395    9.0590    2.5304 O   0  0  0  0  0  0  0  0  0  0  0  0
    2.6726    7.8414    0.6418 N   0  0  0  0  0  0  0  0  0  0  0  0
    2.5811    6.9409    0.1915 H   0  0  0  0  0  0  0  0  0  0  0  0
    3.6800    8.7427    0.1402 C   0  0  0  0  0  0  0  0  0  0  0  0
    4.4517    8.1093   -0.9966 C   0  0  0  0  0  0  0  0  0  0  0  0
    4.4176    6.7104   -1.1347 C   0  0  0  0  0  0  0  0  0  0  0  0
    5.0990    6.0763   -2.1725 C   0  0  0  0  0  0  0  0  0  0  0  0
    5.8195    6.8289   -3.0933 C   0  0  0  0  0  0  0  0  0  0  0  0
    5.8517    8.2188   -2.9831 C   0  0  0  0  0  0  0  0  0  0  0  0
    5.1660    8.8785   -1.9457 C   0  0  0  0  0  0  0  0  0  0  0  0
    5.2083   10.3874   -1.8700 C   0  0  0  0  0  0  0  0  0  0  0  0
    3.9625   10.9491   -1.8811 F   0  0  0  0  0  0  0  0  0  0  0  0
    5.8802   10.9741   -2.8997 F   0  0  0  0  0  0  0  0  0  0  0  0
    5.8059   10.8383   -0.7326 F   0  0  0  0  0  0  0  0  0  0  0  0
    1.7740    6.9567    4.7016 N   0  0  0  0  0  0  0  0  0  0  0  0
    2.9292    6.4019    5.2029 C   0  0  0  0  0  0  0  0  0  0  0  0
    3.5261    5.4036    4.8187 O   0  0  0  0  0  0  0  0  0  0  0  0
    1.4173    7.7954    5.1617 H   0  0  0  0  0  0  0  0  0  0  0  0
    3.4801    7.1639    6.3695 C   0  0  0  0  0  0  0  0  0  0  0  0
    3.8389    8.4953    6.2189 C   0  0  0  0  0  0  0  0  0  0  0  0
    4.3426    9.1559    7.3317 C   0  0  0  0  0  0  0  0  0  0  0  0
    4.8020   10.8132    7.1898 Cl  0  0  0  0  0  0  0  0  0  0  0  0
    4.4771    8.4930    8.5489 C   0  0  0  0  0  0  0  0  0  0  0  0
    4.9709    9.1271    9.6557 O   0  0  0  0  0  0  0  0  0  0  0  0
    4.0878    7.1615    8.5915 C   0  0  0  0  0  0  0  0  0  0  0  0
    4.1930    6.2205   10.0257 Cl  0  0  0  0  0  0  0  0  0  0  0  0
    3.5936    6.4774    7.5369 N   0  0  0  0  0  0  0  0  0  0  0  0
    5.1819   10.0479    9.4103 H   0  0  0  0  0  0  0  0  0  0  0  0
   -1.5873    4.4339    1.1250 H   0  0  0  0  0  0  0  0  0  0  0  0
   -2.2122    4.6155    2.7466 H   0  0  0  0  0  0  0  0  0  0  0  0
   -0.9723    3.4296    2.4158 H   0  0  0  0  0  0  0  0  0  0  0  0
    0.0665    6.3238    0.5532 H   0  0  0  0  0  0  0  0  0  0  0  0
    4.3580    8.9860    0.9314 H   0  0  0  0  0  0  0  0  0  0  0  0
    3.1984    9.6263   -0.2234 H   0  0  0  0  0  0  0  0  0  0  0  0
    3.8807    6.1453   -0.4584 H   0  0  0  0  0  0  0  0  0  0  0  0
    5.0687    5.0482   -2.2574 H   0  0  0  0  0  0  0  0  0  0  0  0
    6.3299    6.3594   -3.8575 H   0  0  0  0  0  0  0  0  0  0  0  0
    6.3858    8.7715   -3.6718 H   0  0  0  0  0  0  0  0  0  0  0  0
    3.7352    8.9776    5.3124 H   0  0  0  0  0  0  0  0  0  0  0  0
  1  2  1  0
  1 36  1  0
  1 37  1  0
  1 38  1  0
  2  3  1  0
  3  4  2  0
  3 39  1  0
  4  7  1  0
  4  5  1  0
  5 22  1  0
  5  6  2  0
  6  2  1  0
  7  8  2  0
  7  9  1  0
  9 11  1  0
  9 10  1  0
 11 12  1  0
 11 40  1  0
 11 41  1  0
 12 13  2  0
 13 14  1  0
 13 42  1  0
 14 15  2  0
 14 43  1  0
 15 16  1  0
 15 44  1  0
 16 17  2  0
 16 45  1  0
 17 18  1  0
 17 12  1  0
 18 19  1  0
 18 20  1  0
 18 21  1  0
 22 23  1  0
 22 25  1  0
 23 24  2  0
 23 26  1  0
 26 27  2  0
 27 28  1  0
 27 46  1  0
 28 29  1  0
 28 30  2  0
 30 31  1  0
 30 32  1  0
 31 35  1  0
 32 33  1  0
 32 34  2  0
 34 26  1  0
M  END
>  <minimizedAffinity>  (1) 
-8.05887

>  <mol_id>  (1) 
23441

>  <source_index>  (1) 
0

>  <layer>  (1) 
L4

>  <uniprot>  (1) 
P37059

>  <paff>  (1) 
6.5228999999999999

>  <smiles>  (1) 
Cn1cc(C(=O)NCc2ccccc2C(F)(F)F)c(NC(=O)c2cc(Cl)c(O)c(Cl)n2)n1

$$$$
L4:P37059:25302
     RDKit          3D

 47 50  0  0  0  0  0  0  0  0999 V2000
    1.6336    6.5796    3.5632 C   0  0  0  0  0  0  0  0  0  0  0  0
    0.4226    5.9820    3.9249 C   0  0  0  0  0  0  0  0  0  0  0  0
   -0.6251    5.8989    3.0075 C   0  0  0  0  0  0  0  0  0  0  0  0
   -0.4649    6.4159    1.7270 C   0  0  0  0  0  0  0  0  0  0  0  0
   -1.4909    6.3206    0.8680 F   0  0  0  0  0  0  0  0  0  0  0  0
    0.7263    7.0252    1.3279 C   0  0  0  0  0  0  0  0  0  0  0  0
    0.8224    7.5292    0.0264 N   0  0  0  0  0  0  0  0  0  0  0  0
    1.8706    8.0849   -0.3554 N   0  0  0  0  0  0  0  0  0  0  0  0
    2.9506    8.2129    0.4648 N   0  0  0  0  0  0  0  0  0  0  0  0
    2.9800    7.7615    1.7681 C   0  0  0  0  0  0  0  0  0  0  0  0
    3.9457    7.8846    2.5220 O   0  0  0  0  0  0  0  0  0  0  0  0
    1.7612    7.1008    2.2519 C   0  0  0  0  0  0  0  0  0  0  0  0
    2.1019    8.4384    5.8622 O   0  0  0  0  0  0  0  0  0  0  0  0
    2.9022    7.5889    5.4909 C   0  0  0  0  0  0  0  0  0  0  0  0
    2.7253    6.6887    4.4607 N   0  0  0  0  0  0  0  0  0  0  0  0
    3.4329    5.9604    4.3419 H   0  0  0  0  0  0  0  0  0  0  0  0
    4.1933    7.4718    6.2294 C   0  0  0  0  0  0  0  0  0  0  0  0
    4.4782    6.2603    6.8737 C   0  0  0  0  0  0  0  0  0  0  0  0
    5.6693    6.1132    7.5830 C   0  0  0  0  0  0  0  0  0  0  0  0
    6.0063    4.6093    8.3587 Cl  0  0  0  0  0  0  0  0  0  0  0  0
    6.5806    7.1696    7.6651 C   0  0  0  0  0  0  0  0  0  0  0  0
    7.7540    7.0293    8.3604 O   0  0  0  0  0  0  0  0  0  0  0  0
    6.2889    8.3826    7.0361 C   0  0  0  0  0  0  0  0  0  0  0  0
    7.3729    9.7235    7.1212 Cl  0  0  0  0  0  0  0  0  0  0  0  0
    5.0971    8.5388    6.3227 C   0  0  0  0  0  0  0  0  0  0  0  0
    7.7768    6.1289    8.7350 H   0  0  0  0  0  0  0  0  0  0  0  0
    4.1017    8.9037   -0.1073 C   0  0  0  0  0  0  0  0  0  0  0  0
    4.7416    8.1174   -1.2385 C   0  0  0  0  0  0  0  0  0  0  0  0
    4.6094    6.7145   -1.2332 C   0  0  0  0  0  0  0  0  0  0  0  0
    5.1901    5.9315   -2.2297 C   0  0  0  0  0  0  0  0  0  0  0  0
    5.9132    6.5339   -3.2514 C   0  0  0  0  0  0  0  0  0  0  0  0
    6.0507    7.9210   -3.2804 C   0  0  0  0  0  0  0  0  0  0  0  0
    5.4704    8.7324   -2.2847 C   0  0  0  0  0  0  0  0  0  0  0  0
    5.6286   10.2348   -2.3845 C   0  0  0  0  0  0  0  0  0  0  0  0
    6.2523   10.7940   -1.3092 F   0  0  0  0  0  0  0  0  0  0  0  0
    6.3695   10.6026   -3.4679 F   0  0  0  0  0  0  0  0  0  0  0  0
    4.4424   10.8885   -2.5030 F   0  0  0  0  0  0  0  0  0  0  0  0
    0.3030    5.6001    4.8761 H   0  0  0  0  0  0  0  0  0  0  0  0
   -1.5164    5.4550    3.2786 H   0  0  0  0  0  0  0  0  0  0  0  0
    3.8070    5.4780    6.8231 H   0  0  0  0  0  0  0  0  0  0  0  0
    4.8830    9.4387    5.8652 H   0  0  0  0  0  0  0  0  0  0  0  0
    4.8299    9.0544    0.6620 H   0  0  0  0  0  0  0  0  0  0  0  0
    3.7589    9.8346   -0.5084 H   0  0  0  0  0  0  0  0  0  0  0  0
    4.0733    6.2587   -0.4783 H   0  0  0  0  0  0  0  0  0  0  0  0
    5.0829    4.9053   -2.2084 H   0  0  0  0  0  0  0  0  0  0  0  0
    6.3478    5.9558   -3.9876 H   0  0  0  0  0  0  0  0  0  0  0  0
    6.5868    8.3614   -4.0444 H   0  0  0  0  0  0  0  0  0  0  0  0
  1  2  2  0
  2  3  1  0
  2 38  1  0
  3  4  2  0
  3 39  1  0
  4  5  1  0
  4  6  1  0
  6  7  1  0
  7  8  2  0
  8  9  1  0
  9 27  1  0
  9 10  1  0
 10 11  2  0
 10 12  1  0
 12  1  1  0
 12  6  2  0
 13 14  2  0
 14 15  1  0
 14 17  1  0
 15  1  1  0
 15 16  1  0
 17 18  2  0
 18 19  1  0
 18 40  1  0
 19 20  1  0
 19 21  2  0
 21 22  1  0
 21 23  1  0
 22 26  1  0
 23 24  1  0
 23 25  2  0
 25 17  1  0
 25 41  1  0
 27 28  1  0
 27 42  1  0
 27 43  1  0
 28 29  2  0
 29 30  1  0
 29 44  1  0
 30 31  2  0
 30 45  1  0
 31 32  1  0
 31 46  1  0
 32 33  2  0
 32 47  1  0
 33 34  1  0
 33 28  1  0
 34 35  1  0
 34 36  1  0
 34 37  1  0
M  END
>  <minimizedAffinity>  (2) 
-8.18897

>  <mol_id>  (2) 
25302

>  <source_index>  (2) 
1

>  <layer>  (2) 
L4

>  <uniprot>  (2) 
P37059

>  <paff>  (2) 
7

>  <smiles>  (2) 
O=C(Nc1ccc(F)c2nnn(Cc3ccccc3C(F)(F)F)c(=O)c12)c1cc(Cl)c(O)c(Cl)c1

$$$$
L4:P37059:28513
     RDKit          3D

 45 47  0  0  0  0  0  0  0  0999 V2000
    0.0502    6.2590   -0.0753 C   0  0  0  0  0  0  0  0  0  0  0  0
    0.1765    6.2272    1.4108 C   0  0  0  0  0  0  0  0  0  0  0  0
   -0.6118    5.3699    2.0616 N   0  0  0  0  0  0  0  0  0  0  0  0
   -0.2380    5.4076    3.6698 S   0  0  0  0  0  0  0  0  0  0  0  0
    0.9765    6.5865    3.5504 C   0  0  0  0  0  0  0  0  0  0  0  0
    1.0786    7.0096    2.2311 C   0  0  0  0  0  0  0  0  0  0  0  0
    1.7124    7.0241    4.6364 N   0  0  0  0  0  0  0  0  0  0  0  0
    2.8569    6.4502    5.1518 C   0  0  0  0  0  0  0  0  0  0  0  0
    3.4200    5.4311    4.7733 O   0  0  0  0  0  0  0  0  0  0  0  0
    1.3997    7.8928    5.0793 H   0  0  0  0  0  0  0  0  0  0  0  0
    3.4224    7.2125    6.3129 C   0  0  0  0  0  0  0  0  0  0  0  0
    3.7726    8.5466    6.1641 C   0  0  0  0  0  0  0  0  0  0  0  0
    4.2910    9.2097    7.2720 C   0  0  0  0  0  0  0  0  0  0  0  0
    4.7315   10.8695    7.1045 Cl  0  0  0  0  0  0  0  0  0  0  0  0
    4.4460    8.5388    8.4815 C   0  0  0  0  0  0  0  0  0  0  0  0
    4.9551    9.1849    9.5745 O   0  0  0  0  0  0  0  0  0  0  0  0
    4.0644    7.2042    8.5162 C   0  0  0  0  0  0  0  0  0  0  0  0
    4.2181    6.2744    9.9539 Cl  0  0  0  0  0  0  0  0  0  0  0  0
    3.5588    6.5174    7.4726 N   0  0  0  0  0  0  0  0  0  0  0  0
    4.9796    8.5623   10.3254 H   0  0  0  0  0  0  0  0  0  0  0  0
    2.0094    8.0566    1.8258 C   0  0  0  0  0  0  0  0  0  0  0  0
    1.9755    9.1813    2.3186 O   0  0  0  0  0  0  0  0  0  0  0  0
    2.8653    7.7312    0.7980 N   0  0  0  0  0  0  0  0  0  0  0  0
    2.6337    6.9331    0.2233 H   0  0  0  0  0  0  0  0  0  0  0  0
    3.7161    8.7419    0.2190 C   0  0  0  0  0  0  0  0  0  0  0  0
    4.4566    8.1877   -0.9743 C   0  0  0  0  0  0  0  0  0  0  0  0
    4.4996    6.7922   -1.1497 C   0  0  0  0  0  0  0  0  0  0  0  0
    5.1973    6.2252   -2.2154 C   0  0  0  0  0  0  0  0  0  0  0  0
    5.8688    7.0411   -3.1184 C   0  0  0  0  0  0  0  0  0  0  0  0
    5.8452    8.4260   -2.9559 C   0  0  0  0  0  0  0  0  0  0  0  0
    5.1464    9.0200   -1.8872 C   0  0  0  0  0  0  0  0  0  0  0  0
    5.1553   10.5284   -1.7471 C   0  0  0  0  0  0  0  0  0  0  0  0
    5.7223   11.1523   -2.8159 F   0  0  0  0  0  0  0  0  0  0  0  0
    3.9089   11.0691   -1.6297 F   0  0  0  0  0  0  0  0  0  0  0  0
    5.8408   10.9505   -0.6497 F   0  0  0  0  0  0  0  0  0  0  0  0
   -0.7042    5.5658   -0.3840 H   0  0  0  0  0  0  0  0  0  0  0  0
    0.9858    5.9888   -0.5186 H   0  0  0  0  0  0  0  0  0  0  0  0
   -0.2216    7.2452   -0.3891 H   0  0  0  0  0  0  0  0  0  0  0  0
    3.6525    9.0314    5.2610 H   0  0  0  0  0  0  0  0  0  0  0  0
    4.4237    9.0690    0.9520 H   0  0  0  0  0  0  0  0  0  0  0  0
    3.1100    9.5638   -0.1003 H   0  0  0  0  0  0  0  0  0  0  0  0
    4.0079    6.1799   -0.4802 H   0  0  0  0  0  0  0  0  0  0  0  0
    5.2151    5.2002   -2.3337 H   0  0  0  0  0  0  0  0  0  0  0  0
    6.3843    6.6225   -3.9083 H   0  0  0  0  0  0  0  0  0  0  0  0
    6.3478    9.0250   -3.6294 H   0  0  0  0  0  0  0  0  0  0  0  0
  1  2  1  0
  1 36  1  0
  1 37  1  0
  1 38  1  0
  2  3  2  0
  3  4  1  0
  4  5  1  0
  5  7  1  0
  5  6  2  0
  6 21  1  0
  6  2  1  0
  7  8  1  0
  7 10  1  0
  8  9  2  0
  8 11  1  0
 11 12  2  0
 12 13  1  0
 12 39  1  0
 13 14  1  0
 13 15  2  0
 15 16  1  0
 15 17  1  0
 16 20  1  0
 17 18  1  0
 17 19  2  0
 19 11  1  0
 21 22  2  0
 21 23  1  0
 23 25  1  0
 23 24  1  0
 25 26  1  0
 25 40  1  0
 25 41  1  0
 26 27  2  0
 27 28  1  0
 27 42  1  0
 28 29  2  0
 28 43  1  0
 29 30  1  0
 29 44  1  0
 30 31  2  0
 30 45  1  0
 31 32  1  0
 31 26  1  0
 32 33  1  0
 32 34  1  0
 32 35  1  0
M  END
>  <minimizedAffinity>  (3) 
-8.13326

>  <mol_id>  (3) 
28513

>  <source_index>  (3) 
2

>  <layer>  (3) 
L4

>  <uniprot>  (3) 
P37059

>  <paff>  (3) 
7

>  <smiles>  (3) 
Cc1nsc(NC(=O)c2cc(Cl)c(O)c(Cl)n2)c1C(=O)NCc1ccccc1C(F)(F)F

$$$$
L4:P37059:33315
     RDKit          3D

 46 49  0  0  0  0  0  0  0  0999 V2000
    4.7821   10.3670    6.9892 C   0  0  0  0  0  0  0  0  0  0  0  0
    4.5464   11.9879    7.4521 S   0  0  0  0  0  0  0  0  0  0  0  0
    5.7088   11.8019    8.6931 C   0  0  0  0  0  0  0  0  0  0  0  0
    6.2667   10.6160    8.7963 N   0  0  0  0  0  0  0  0  0  0  0  0
    5.7317    9.7746    7.8096 C   0  0  0  0  0  0  0  0  0  0  0  0
    2.6687    8.2646    7.0018 O   0  0  0  0  0  0  0  0  0  0  0  0
    3.1201    8.8137    6.0046 C   0  0  0  0  0  0  0  0  0  0  0  0
    4.0978    9.7853    5.9371 N   0  0  0  0  0  0  0  0  0  0  0  0
    4.3426   10.1164    4.9980 H   0  0  0  0  0  0  0  0  0  0  0  0
    2.5873    8.4262    4.6574 C   0  0  0  0  0  0  0  0  0  0  0  0
    3.4414    8.3539    3.5676 C   0  0  0  0  0  0  0  0  0  0  0  0
    2.8931    7.9888    2.3447 C   0  0  0  0  0  0  0  0  0  0  0  0
    3.9190    7.8857    0.9613 Cl  0  0  0  0  0  0  0  0  0  0  0  0
    1.5337    7.7082    2.2325 C   0  0  0  0  0  0  0  0  0  0  0  0
    0.9760    7.3467    1.0372 O   0  0  0  0  0  0  0  0  0  0  0  0
    0.7686    7.8104    3.3859 C   0  0  0  0  0  0  0  0  0  0  0  0
   -0.9198    7.4924    3.3984 Cl  0  0  0  0  0  0  0  0  0  0  0  0
    1.2567    8.1619    4.5958 N   0  0  0  0  0  0  0  0  0  0  0  0
    1.6804    7.3342    0.3616 H   0  0  0  0  0  0  0  0  0  0  0  0
    6.1757    8.3834    7.6904 C   0  0  0  0  0  0  0  0  0  0  0  0
    6.5795    7.9042    6.6351 O   0  0  0  0  0  0  0  0  0  0  0  0
    6.0833    7.6929    8.8790 N   0  0  0  0  0  0  0  0  0  0  0  0
    5.7867    8.2561    9.6716 H   0  0  0  0  0  0  0  0  0  0  0  0
    6.5909    6.3139    9.0739 C   0  0  0  0  0  0  0  0  0  0  0  0
    6.1761    5.3415    7.9049 C   0  0  0  0  0  0  0  0  0  0  0  0
    5.8118    4.2974    8.9734 C   0  0  0  0  0  0  0  0  0  0  0  0
    5.5758    5.4699    9.9400 C   0  0  0  0  0  0  0  0  0  0  0  0
    8.1327    6.3062    9.5478 C   0  0  0  0  0  0  0  0  0  0  0  0
    8.5135    5.8727   10.8350 C   0  0  0  0  0  0  0  0  0  0  0  0
    9.8480    5.8499   11.2517 C   0  0  0  0  0  0  0  0  0  0  0  0
   10.8538    6.2547   10.3828 C   0  0  0  0  0  0  0  0  0  0  0  0
   10.5238    6.6719    9.0988 C   0  0  0  0  0  0  0  0  0  0  0  0
    9.1858    6.6899    8.6910 C   0  0  0  0  0  0  0  0  0  0  0  0
    5.9584   12.5779    9.3260 H   0  0  0  0  0  0  0  0  0  0  0  0
    4.4475    8.5636    3.6616 H   0  0  0  0  0  0  0  0  0  0  0  0
    6.9798    5.0547    7.2594 H   0  0  0  0  0  0  0  0  0  0  0  0
    5.4750    5.6392    7.1534 H   0  0  0  0  0  0  0  0  0  0  0  0
    6.6127    3.6443    9.2508 H   0  0  0  0  0  0  0  0  0  0  0  0
    5.0648    3.5512    8.8001 H   0  0  0  0  0  0  0  0  0  0  0  0
    5.8934    5.2880   10.9455 H   0  0  0  0  0  0  0  0  0  0  0  0
    4.5906    5.8285   10.1540 H   0  0  0  0  0  0  0  0  0  0  0  0
    7.7813    5.5614   11.4923 H   0  0  0  0  0  0  0  0  0  0  0  0
   10.0858    5.5325   12.2044 H   0  0  0  0  0  0  0  0  0  0  0  0
   11.8393    6.2456   10.6888 H   0  0  0  0  0  0  0  0  0  0  0  0
   11.2661    6.9685    8.4460 H   0  0  0  0  0  0  0  0  0  0  0  0
    8.9614    6.9942    7.7307 H   0  0  0  0  0  0  0  0  0  0  0  0
  1  2  1  0
  2  3  1  0
  3  4  2  0
  3 34  1  0
  4  5  1  0
  5 20  1  0
  5  1  2  0
  6  7  2  0
  7  8  1  0
  7 10  1  0
  8  1  1  0
  8  9  1  0
 10 11  2  0
 11 12  1  0
 11 35  1  0
 12 13  1  0
 12 14  2  0
 14 15  1  0
 14 16  1  0
 15 19  1  0
 16 17  1  0
 16 18  2  0
 18 10  1  0
 20 21  2  0
 20 22  1  0
 22 24  1  0
 22 23  1  0
 24 28  1  0
 24 25  1  0
 25 26  1  0
 25 36  1  0
 25 37  1  0
 26 27  1  0
 26 38  1  0
 26 39  1  0
 27 24  1  0
 27 40  1  0
 27 41  1  0
 28 29  2  0
 29 30  1  0
 29 42  1  0
 30 31  2  0
 30 43  1  0
 31 32  1  0
 31 44  1  0
 32 33  2  0
 32 45  1  0
 33 28  1  0
 33 46  1  0
M  END
>  <minimizedAffinity>  (4) 
-8.84613

>  <mol_id>  (4) 
33315

>  <source_index>  (4) 
3

>  <layer>  (4) 
L4

>  <uniprot>  (4) 
P37059

>  <paff>  (4) 
7

>  <smiles>  (4) 
O=C(Nc1scnc1C(=O)NC1(c2ccccc2)CCC1)c1cc(Cl)c(O)c(Cl)n1

$$$$
L4:P37059:33829
     RDKit          3D

 43 45  0  0  0  0  0  0  0  0999 V2000
    5.8590    6.0186    7.7561 C   0  0  0  0  0  0  0  0  0  0  0  0
    4.9744    5.3997    6.9726 N   0  0  0  0  0  0  0  0  0  0  0  0
    5.4154    4.1433    6.8850 N   0  0  0  0  0  0  0  0  0  0  0  0
    6.5632    3.9184    7.5842 C   0  0  0  0  0  0  0  0  0  0  0  0
    6.8934    5.1252    8.1742 C   0  0  0  0  0  0  0  0  0  0  0  0
    4.8772    3.4884    6.3264 H   0  0  0  0  0  0  0  0  0  0  0  0
    6.0123    8.4335    6.0532 O   0  0  0  0  0  0  0  0  0  0  0  0
    5.8791    8.4279    7.2709 C   0  0  0  0  0  0  0  0  0  0  0  0
    5.7966    7.3473    8.1189 N   0  0  0  0  0  0  0  0  0  0  0  0
    5.6776    7.5397    9.1146 H   0  0  0  0  0  0  0  0  0  0  0  0
    5.7872    9.7390    7.9903 C   0  0  0  0  0  0  0  0  0  0  0  0
    5.8046   10.9253    7.2716 C   0  0  0  0  0  0  0  0  0  0  0  0
    5.7190   12.1124    7.9871 C   0  0  0  0  0  0  0  0  0  0  0  0
    5.7370   13.6121    7.1338 Cl  0  0  0  0  0  0  0  0  0  0  0  0
    5.6205   12.0974    9.3760 C   0  0  0  0  0  0  0  0  0  0  0  0
    5.5365   13.2562   10.0978 O   0  0  0  0  0  0  0  0  0  0  0  0
    5.6120   10.8562    9.9971 C   0  0  0  0  0  0  0  0  0  0  0  0
    5.4987   10.6851   11.7034 Cl  0  0  0  0  0  0  0  0  0  0  0  0
    5.6920    9.6763    9.3446 N   0  0  0  0  0  0  0  0  0  0  0  0
    5.5577   14.0062    9.4734 H   0  0  0  0  0  0  0  0  0  0  0  0
    8.0217    5.4488    9.0319 C   0  0  0  0  0  0  0  0  0  0  0  0
    8.0706    5.0668   10.1977 O   0  0  0  0  0  0  0  0  0  0  0  0
    9.0106    6.2104    8.4522 N   0  0  0  0  0  0  0  0  0  0  0  0
    8.8575    6.6001    7.5321 H   0  0  0  0  0  0  0  0  0  0  0  0
   10.1199    6.7198    9.2198 C   0  0  0  0  0  0  0  0  0  0  0  0
   11.3778    5.9273    8.9395 C   0  0  0  0  0  0  0  0  0  0  0  0
   11.5970    5.4542    7.6336 C   0  0  0  0  0  0  0  0  0  0  0  0
   12.7322    4.7067    7.3237 C   0  0  0  0  0  0  0  0  0  0  0  0
   13.6632    4.4133    8.3138 C   0  0  0  0  0  0  0  0  0  0  0  0
   13.4554    4.8594    9.6188 C   0  0  0  0  0  0  0  0  0  0  0  0
   12.3132    5.6109    9.9533 C   0  0  0  0  0  0  0  0  0  0  0  0
   12.1127    6.0606   11.3823 C   0  0  0  0  0  0  0  0  0  0  0  0
   13.0253    5.5184   12.2351 F   0  0  0  0  0  0  0  0  0  0  0  0
   10.8912    5.7437   11.8955 F   0  0  0  0  0  0  0  0  0  0  0  0
   12.2290    7.4144   11.5279 F   0  0  0  0  0  0  0  0  0  0  0  0
    7.0808    3.0287    7.6585 H   0  0  0  0  0  0  0  0  0  0  0  0
    5.8785   10.9257    6.2422 H   0  0  0  0  0  0  0  0  0  0  0  0
    9.8866    6.6502   10.2617 H   0  0  0  0  0  0  0  0  0  0  0  0
   10.2886    7.7394    8.9426 H   0  0  0  0  0  0  0  0  0  0  0  0
   10.9080    5.6632    6.8943 H   0  0  0  0  0  0  0  0  0  0  0  0
   12.8815    4.3711    6.3593 H   0  0  0  0  0  0  0  0  0  0  0  0
   14.5072    3.8660    8.0833 H   0  0  0  0  0  0  0  0  0  0  0  0
   14.1489    4.6353   10.3495 H   0  0  0  0  0  0  0  0  0  0  0  0
  1  2  2  0
  2  3  1  0
  3  4  1  0
  3  6  1  0
  4  5  2  0
  4 36  1  0
  5 21  1  0
  5  1  1  0
  7  8  2  0
  8  9  1  0
  8 11  1  0
  9  1  1  0
  9 10  1  0
 11 12  2  0
 12 13  1  0
 12 37  1  0
 13 14  1  0
 13 15  2  0
 15 16  1  0
 15 17  1  0
 16 20  1  0
 17 18  1  0
 17 19  2  0
 19 11  1  0
 21 22  2  0
 21 23  1  0
 23 25  1  0
 23 24  1  0
 25 26  1  0
 25 38  1  0
 25 39  1  0
 26 27  2  0
 27 28  1  0
 27 40  1  0
 28 29  2  0
 28 41  1  0
 29 30  1  0
 29 42  1  0
 30 31  2  0
 30 43  1  0
 31 32  1  0
 31 26  1  0
 32 33  1  0
 32 34  1  0
 32 35  1  0
M  END
>  <minimizedAffinity>  (5) 
-9.46311

>  <mol_id>  (5) 
33829

>  <source_index>  (5) 
4

>  <layer>  (5) 
L4

>  <uniprot>  (5) 
P37059

>  <paff>  (5) 
7

>  <smiles>  (5) 
O=C(Nc1n[nH]cc1C(=O)NCc1ccccc1C(F)(F)F)c1cc(Cl)c(O)c(Cl)n1

$$$$
L4:P37059:63739
     RDKit          3D

 45 47  0  0  0  0  0  0  0  0999 V2000
   -1.4397    4.6268    1.3226 C   0  0  0  0  0  0  0  0  0  0  0  0
   -0.4236    5.5097    1.9574 C   0  0  0  0  0  0  0  0  0  0  0  0
    0.2438    6.4519    1.3266 N   0  0  0  0  0  0  0  0  0  0  0  0
    1.1083    7.0922    2.2250 C   0  0  0  0  0  0  0  0  0  0  0  0
    1.0745    6.5956    3.5191 C   0  0  0  0  0  0  0  0  0  0  0  0
   -0.0550    5.3290    3.6224 S   0  0  0  0  0  0  0  0  0  0  0  0
    1.9689    8.1912    1.7809 C   0  0  0  0  0  0  0  0  0  0  0  0
    2.0423    9.2658    2.3697 O   0  0  0  0  0  0  0  0  0  0  0  0
    2.6912    7.8847    0.6533 N   0  0  0  0  0  0  0  0  0  0  0  0
    2.6235    6.9232    0.3294 H   0  0  0  0  0  0  0  0  0  0  0  0
    3.6945    8.7687    0.1316 C   0  0  0  0  0  0  0  0  0  0  0  0
    4.4624    8.1080   -0.9877 C   0  0  0  0  0  0  0  0  0  0  0  0
    4.4242    6.7055   -1.0955 C   0  0  0  0  0  0  0  0  0  0  0  0
    5.0935    6.0470   -2.1264 C   0  0  0  0  0  0  0  0  0  0  0  0
    5.8054    6.7778   -3.0705 C   0  0  0  0  0  0  0  0  0  0  0  0
    5.8473    8.1695   -2.9859 C   0  0  0  0  0  0  0  0  0  0  0  0
    5.1810    8.8554   -1.9514 C   0  0  0  0  0  0  0  0  0  0  0  0
    5.2447   10.3695   -1.9113 C   0  0  0  0  0  0  0  0  0  0  0  0
    6.0317   10.8952   -2.8895 F   0  0  0  0  0  0  0  0  0  0  0  0
    5.7496   10.8551   -0.7397 F   0  0  0  0  0  0  0  0  0  0  0  0
    4.0223   10.9558   -2.0449 F   0  0  0  0  0  0  0  0  0  0  0  0
    1.8175    7.0224    4.6047 N   0  0  0  0  0  0  0  0  0  0  0  0
    2.9388    6.4248    5.1439 C   0  0  0  0  0  0  0  0  0  0  0  0
    3.5018    5.4026    4.7729 O   0  0  0  0  0  0  0  0  0  0  0  0
    1.4989    7.8824    5.0620 H   0  0  0  0  0  0  0  0  0  0  0  0
    3.4844    7.1687    6.3268 C   0  0  0  0  0  0  0  0  0  0  0  0
    3.8519    8.5006    6.2018 C   0  0  0  0  0  0  0  0  0  0  0  0
    4.3529    9.1452    7.3285 C   0  0  0  0  0  0  0  0  0  0  0  0
    4.8144   10.8019    7.1900 Cl  0  0  0  0  0  0  0  0  0  0  0  0
    4.4743    8.4587    8.5330 C   0  0  0  0  0  0  0  0  0  0  0  0
    4.9678    9.0860    9.6441 O   0  0  0  0  0  0  0  0  0  0  0  0
    4.0733    7.1293    8.5449 C   0  0  0  0  0  0  0  0  0  0  0  0
    4.1722    6.1862    9.9787 Cl  0  0  0  0  0  0  0  0  0  0  0  0
    3.5826    6.4608    7.4826 N   0  0  0  0  0  0  0  0  0  0  0  0
    4.9844    8.4485   10.3828 H   0  0  0  0  0  0  0  0  0  0  0  0
   -1.5374    4.8819    0.2880 H   0  0  0  0  0  0  0  0  0  0  0  0
   -2.3818    4.7575    1.8127 H   0  0  0  0  0  0  0  0  0  0  0  0
   -1.1304    3.6063    1.4107 H   0  0  0  0  0  0  0  0  0  0  0  0
    4.3736    9.0303    0.9160 H   0  0  0  0  0  0  0  0  0  0  0  0
    3.2138    9.6440   -0.2526 H   0  0  0  0  0  0  0  0  0  0  0  0
    3.8932    6.1564   -0.4016 H   0  0  0  0  0  0  0  0  0  0  0  0
    5.0603    5.0174   -2.1884 H   0  0  0  0  0  0  0  0  0  0  0  0
    6.3023    6.2914   -3.8330 H   0  0  0  0  0  0  0  0  0  0  0  0
    6.3750    8.7054   -3.6926 H   0  0  0  0  0  0  0  0  0  0  0  0
    3.7568    8.9972    5.3022 H   0  0  0  0  0  0  0  0  0  0  0  0
  1  2  1  0
  1 36  1  0
  1 37  1  0
  1 38  1  0
  2  3  2  0
  3  4  1  0
  4  7  1  0
  4  5  2  0
  5 22  1  0
  5  6  1  0
  6  2  1  0
  7  8  2  0
  7  9  1  0
  9 11  1  0
  9 10  1  0
 11 12  1  0
 11 39  1  0
 11 40  1  0
 12 13  2  0
 13 14  1  0
 13 41  1  0
 14 15  2  0
 14 42  1  0
 15 16  1  0
 15 43  1  0
 16 17  2  0
 16 44  1  0
 17 18  1  0
 17 12  1  0
 18 19  1  0
 18 20  1  0
 18 21  1  0
 22 23  1  0
 22 25  1  0
 23 24  2  0
 23 26  1  0
 26 27  2  0
 27 28  1  0
 27 45  1  0
 28 29  1  0
 28 30  2  0
 30 31  1  0
 30 32  1  0
 31 35  1  0
 32 33  1  0
 32 34  2  0
 34 26  1  0
M  END
>  <minimizedAffinity>  (6) 
-8.02797

>  <mol_id>  (6) 
63739

>  <source_index>  (6) 
5

>  <layer>  (6) 
L4

>  <uniprot>  (6) 
P37059

>  <paff>  (6) 
6.5228999999999999

>  <smiles>  (6) 
Cc1nc(C(=O)NCc2ccccc2C(F)(F)F)c(NC(=O)c2cc(Cl)c(O)c(Cl)n2)s1

$$$$
L4:P37059:74096
     RDKit          3D

 49 51  0  0  0  0  0  0  0  0999 V2000
    4.1134    8.5133    4.6286 C   0  0  0  0  0  0  0  0  0  0  0  0
    4.0642    8.9135    3.3580 N   0  0  0  0  0  0  0  0  0  0  0  0
    3.7594    7.8153    2.6593 N   0  0  0  0  0  0  0  0  0  0  0  0
    3.5582    6.7147    3.4434 C   0  0  0  0  0  0  0  0  0  0  0  0
    3.8017    7.1230    4.7439 C   0  0  0  0  0  0  0  0  0  0  0  0
    6.4236    8.3838    6.4725 O   0  0  0  0  0  0  0  0  0  0  0  0
    5.5187    9.2084    6.5232 C   0  0  0  0  0  0  0  0  0  0  0  0
    4.4198    9.3241    5.7000 N   0  0  0  0  0  0  0  0  0  0  0  0
    3.7594   10.0774    5.9014 H   0  0  0  0  0  0  0  0  0  0  0  0
    5.5512   10.2546    7.5963 C   0  0  0  0  0  0  0  0  0  0  0  0
    5.5394    9.8805    8.9321 C   0  0  0  0  0  0  0  0  0  0  0  0
    5.5724   10.8891    9.8904 C   0  0  0  0  0  0  0  0  0  0  0  0
    5.5771   10.4390   11.5561 Cl  0  0  0  0  0  0  0  0  0  0  0  0
    5.6076   12.2244    9.5020 C   0  0  0  0  0  0  0  0  0  0  0  0
    5.6271   13.2214   10.4384 O   0  0  0  0  0  0  0  0  0  0  0  0
    5.6221   12.4845    8.1378 C   0  0  0  0  0  0  0  0  0  0  0  0
    5.6499   14.0977    7.5434 Cl  0  0  0  0  0  0  0  0  0  0  0  0
    5.6024   11.5455    7.1717 N   0  0  0  0  0  0  0  0  0  0  0  0
    5.6661   14.0824    9.9786 H   0  0  0  0  0  0  0  0  0  0  0  0
    3.7552    6.3523    5.9763 C   0  0  0  0  0  0  0  0  0  0  0  0
    2.7163    6.2503    6.6220 O   0  0  0  0  0  0  0  0  0  0  0  0
    4.9367    5.7574    6.3582 N   0  0  0  0  0  0  0  0  0  0  0  0
    5.7702    5.8841    5.8034 H   0  0  0  0  0  0  0  0  0  0  0  0
    5.0502    4.9952    7.5816 C   0  0  0  0  0  0  0  0  0  0  0  0
    6.1533    5.4884    8.5024 C   0  0  0  0  0  0  0  0  0  0  0  0
    7.5027    5.1916    8.2283 C   0  0  0  0  0  0  0  0  0  0  0  0
    8.5212    5.6055    9.0895 C   0  0  0  0  0  0  0  0  0  0  0  0
    8.2123    6.3096   10.2502 C   0  0  0  0  0  0  0  0  0  0  0  0
    6.8826    6.5948   10.5556 C   0  0  0  0  0  0  0  0  0  0  0  0
    5.8408    6.1829    9.7018 C   0  0  0  0  0  0  0  0  0  0  0  0
    4.4107    6.5029   10.0855 C   0  0  0  0  0  0  0  0  0  0  0  0
    4.3209    7.2113   11.2471 F   0  0  0  0  0  0  0  0  0  0  0  0
    3.6686    5.3759   10.2776 F   0  0  0  0  0  0  0  0  0  0  0  0
    3.7402    7.2382    9.1543 F   0  0  0  0  0  0  0  0  0  0  0  0
    3.5790    7.9195    1.2286 C   0  0  0  0  0  0  0  0  0  0  0  0
    2.1366    8.1299    0.8591 C   0  0  0  0  0  0  0  0  0  0  0  0
    1.5509    8.9752    1.7442 F   0  0  0  0  0  0  0  0  0  0  0  0
    1.9766    8.6629   -0.3698 F   0  0  0  0  0  0  0  0  0  0  0  0
    1.4344    6.9720    0.9053 F   0  0  0  0  0  0  0  0  0  0  0  0
    3.2812    5.7712    3.1302 H   0  0  0  0  0  0  0  0  0  0  0  0
    5.5072    8.8861    9.2064 H   0  0  0  0  0  0  0  0  0  0  0  0
    5.2515    3.9754    7.3279 H   0  0  0  0  0  0  0  0  0  0  0  0
    4.1261    5.1072    8.1092 H   0  0  0  0  0  0  0  0  0  0  0  0
    7.7426    4.6596    7.3772 H   0  0  0  0  0  0  0  0  0  0  0  0
    9.5050    5.3890    8.8651 H   0  0  0  0  0  0  0  0  0  0  0  0
    8.9662    6.6197   10.8830 H   0  0  0  0  0  0  0  0  0  0  0  0
    6.6584    7.1145   11.4185 H   0  0  0  0  0  0  0  0  0  0  0  0
    3.9256    7.0172    0.7696 H   0  0  0  0  0  0  0  0  0  0  0  0
    4.1362    8.7658    0.8849 H   0  0  0  0  0  0  0  0  0  0  0  0
  1  2  2  0
  2  3  1  0
  3 35  1  0
  3  4  1  0
  4  5  2  0
  4 40  1  0
  5 20  1  0
  5  1  1  0
  6  7  2  0
  7  8  1  0
  7 10  1  0
  8  1  1  0
  8  9  1  0
 10 11  2  0
 11 12  1  0
 11 41  1  0
 12 13  1  0
 12 14  2  0
 14 15  1  0
 14 16  1  0
 15 19  1  0
 16 17  1  0
 16 18  2  0
 18 10  1  0
 20 21  2  0
 20 22  1  0
 22 24  1  0
 22 23  1  0
 24 25  1  0
 24 42  1  0
 24 43  1  0
 25 26  2  0
 26 27  1  0
 26 44  1  0
 27 28  2  0
 27 45  1  0
 28 29  1  0
 28 46  1  0
 29 30  2  0
 29 47  1  0
 30 31  1  0
 30 25  1  0
 31 32  1  0
 31 33  1  0
 31 34  1  0
 35 36  1  0
 35 48  1  0
 35 49  1  0
 36 37  1  0
 36 38  1  0
 36 39  1  0
M  END
>  <minimizedAffinity>  (7) 
-8.10032

>  <mol_id>  (7) 
74096

>  <source_index>  (7) 
6

>  <layer>  (7) 
L4

>  <uniprot>  (7) 
P37059

>  <paff>  (7) 
6.5228999999999999

>  <smiles>  (7) 
O=C(Nc1nn(CC(F)(F)F)cc1C(=O)NCc1ccccc1C(F)(F)F)c1cc(Cl)c(O)c(Cl)n1

$$$$
L4:P37059:76666
     RDKit          3D

 52 54  0  0  0  0  0  0  0  0999 V2000
   -0.0006    6.3184    3.1935 N   0  0  0  0  0  0  0  0  0  0  0  0
    0.8137    6.6790    2.1592 C   0  0  0  0  0  0  0  0  0  0  0  0
    1.8250    7.4429    2.7152 C   0  0  0  0  0  0  0  0  0  0  0  0
    1.5210    7.4746    4.1106 C   0  0  0  0  0  0  0  0  0  0  0  0
    0.4090    6.7895    4.3780 N   0  0  0  0  0  0  0  0  0  0  0  0
    2.9565    8.0781    2.0607 C   0  0  0  0  0  0  0  0  0  0  0  0
    3.9220    8.4872    2.6994 O   0  0  0  0  0  0  0  0  0  0  0  0
    2.8625    8.2018    0.6919 N   0  0  0  0  0  0  0  0  0  0  0  0
    1.9566    8.0521    0.2690 H   0  0  0  0  0  0  0  0  0  0  0  0
    3.8356    8.9759   -0.0386 C   0  0  0  0  0  0  0  0  0  0  0  0
    4.5257    8.1413   -1.0937 C   0  0  0  0  0  0  0  0  0  0  0  0
    4.3340    6.7481   -1.0771 C   0  0  0  0  0  0  0  0  0  0  0  0
    4.9446    5.9281   -2.0253 C   0  0  0  0  0  0  0  0  0  0  0  0
    5.7520    6.4858   -3.0098 C   0  0  0  0  0  0  0  0  0  0  0  0
    5.9451    7.8660   -3.0513 C   0  0  0  0  0  0  0  0  0  0  0  0
    5.3367    8.7114   -2.1040 C   0  0  0  0  0  0  0  0  0  0  0  0
    5.5472   10.2057   -2.2027 C   0  0  0  0  0  0  0  0  0  0  0  0
    6.0969   10.7594   -1.0861 F   0  0  0  0  0  0  0  0  0  0  0  0
    6.3899   10.5348   -3.2257 F   0  0  0  0  0  0  0  0  0  0  0  0
    4.3945   10.8917   -2.4281 F   0  0  0  0  0  0  0  0  0  0  0  0
    2.2838    8.1338    5.0512 N   0  0  0  0  0  0  0  0  0  0  0  0
    3.0375    7.5481    6.0425 C   0  0  0  0  0  0  0  0  0  0  0  0
    3.1865    6.3566    6.2853 O   0  0  0  0  0  0  0  0  0  0  0  0
    2.2856    9.1533    4.9998 H   0  0  0  0  0  0  0  0  0  0  0  0
    3.7427    8.5501    6.9050 C   0  0  0  0  0  0  0  0  0  0  0  0
    3.9945    9.8249    6.4193 C   0  0  0  0  0  0  0  0  0  0  0  0
    4.6532   10.7145    7.2578 C   0  0  0  0  0  0  0  0  0  0  0  0
    4.9905   12.3099    6.6933 Cl  0  0  0  0  0  0  0  0  0  0  0  0
    5.0418   10.3270    8.5376 C   0  0  0  0  0  0  0  0  0  0  0  0
    5.6933   11.1888    9.3767 O   0  0  0  0  0  0  0  0  0  0  0  0
    4.7401    9.0290    8.9254 C   0  0  0  0  0  0  0  0  0  0  0  0
    5.1604    8.4139   10.4740 Cl  0  0  0  0  0  0  0  0  0  0  0  0
    4.1022    8.1290    8.1462 N   0  0  0  0  0  0  0  0  0  0  0  0
    5.8097   12.0383    8.9105 H   0  0  0  0  0  0  0  0  0  0  0  0
   -1.8647    5.3281    4.4764 C   0  0  0  0  0  0  0  0  0  0  0  0
   -1.2114    5.5078    3.1064 C   0  0  0  0  0  0  0  0  0  0  0  0
   -0.9372    4.1613    2.4377 C   0  0  0  0  0  0  0  0  0  0  0  0
    0.6986    6.4320    1.1638 H   0  0  0  0  0  0  0  0  0  0  0  0
    4.5692    9.3479    0.6457 H   0  0  0  0  0  0  0  0  0  0  0  0
    3.3275    9.7817   -0.5260 H   0  0  0  0  0  0  0  0  0  0  0  0
    3.7324    6.3264   -0.3523 H   0  0  0  0  0  0  0  0  0  0  0  0
    4.7971    4.9071   -1.9961 H   0  0  0  0  0  0  0  0  0  0  0  0
    6.2079    5.8791   -3.7091 H   0  0  0  0  0  0  0  0  0  0  0  0
    6.5427    8.2739   -3.7872 H   0  0  0  0  0  0  0  0  0  0  0  0
    3.7028   10.1022    5.4690 H   0  0  0  0  0  0  0  0  0  0  0  0
   -2.7467    4.7308    4.3754 H   0  0  0  0  0  0  0  0  0  0  0  0
   -2.1263    6.2859    4.8752 H   0  0  0  0  0  0  0  0  0  0  0  0
   -1.1784    4.8418    5.1378 H   0  0  0  0  0  0  0  0  0  0  0  0
   -1.9055    6.0370    2.4875 H   0  0  0  0  0  0  0  0  0  0  0  0
   -0.2441    3.6028    3.0315 H   0  0  0  0  0  0  0  0  0  0  0  0
   -0.5230    4.3241    1.4646 H   0  0  0  0  0  0  0  0  0  0  0  0
   -1.8525    3.6143    2.3488 H   0  0  0  0  0  0  0  0  0  0  0  0
  1  2  1  0
  2  3  2  0
  2 38  1  0
  3  6  1  0
  3  4  1  0
  4 21  1  0
  4  5  2  0
  5  1  1  0
  6  7  2  0
  6  8  1  0
  8 10  1  0
  8  9  1  0
 10 11  1  0
 10 39  1  0
 10 40  1  0
 11 12  2  0
 12 13  1  0
 12 41  1  0
 13 14  2  0
 13 42  1  0
 14 15  1  0
 14 43  1  0
 15 16  2  0
 15 44  1  0
 16 17  1  0
 16 11  1  0
 17 18  1  0
 17 19  1  0
 17 20  1  0
 21 22  1  0
 21 24  1  0
 22 23  2  0
 22 25  1  0
 25 26  2  0
 26 27  1  0
 26 45  1  0
 27 28  1  0
 27 29  2  0
 29 30  1  0
 29 31  1  0
 30 34  1  0
 31 32  1  0
 31 33  2  0
 33 25  1  0
 35 36  1  0
 35 46  1  0
 35 47  1  0
 35 48  1  0
 36 37  1  0
 36  1  1  0
 36 49  1  0
 37 50  1  0
 37 51  1  0
 37 52  1  0
M  END
>  <minimizedAffinity>  (8) 
-8.04153

>  <mol_id>  (8) 
76666

>  <source_index>  (8) 
7

>  <layer>  (8) 
L4

>  <uniprot>  (8) 
P37059

>  <paff>  (8) 
6.5228999999999999

>  <smiles>  (8) 
CC(C)n1cc(C(=O)NCc2ccccc2C(F)(F)F)c(NC(=O)c2cc(Cl)c(O)c(Cl)n2)n1

$$$$
L4:P37059:129246
     RDKit          3D

 42 44  0  0  0  0  0  0  0  0999 V2000
    4.4327   10.4628    6.9390 C   0  0  0  0  0  0  0  0  0  0  0  0
    4.9747   12.0565    7.1929 S   0  0  0  0  0  0  0  0  0  0  0  0
    5.4089   11.6495    8.7919 C   0  0  0  0  0  0  0  0  0  0  0  0
    5.1687   10.4118    9.1591 N   0  0  0  0  0  0  0  0  0  0  0  0
    4.5871    9.7060    8.0988 C   0  0  0  0  0  0  0  0  0  0  0  0
    4.2158    8.2767    8.1758 C   0  0  0  0  0  0  0  0  0  0  0  0
    3.1380    7.8997    7.7068 O   0  0  0  0  0  0  0  0  0  0  0  0
    5.0907    7.3587    8.7751 N   0  0  0  0  0  0  0  0  0  0  0  0
    4.7776    5.9370    8.6636 C   0  0  0  0  0  0  0  0  0  0  0  0
    6.0502    5.1041    8.5938 C   0  0  0  0  0  0  0  0  0  0  0  0
    6.9299    5.2863    9.8420 C   0  0  0  0  0  0  0  0  0  0  0  0
    6.6519    6.6182   10.5574 C   0  0  0  0  0  0  0  0  0  0  0  0
    6.2453    7.7310    9.5941 C   0  0  0  0  0  0  0  0  0  0  0  0
    8.4003    5.1463    9.4783 C   0  0  0  0  0  0  0  0  0  0  0  0
    8.5491    4.8916    8.1599 F   0  0  0  0  0  0  0  0  0  0  0  0
    8.9691    4.1237   10.1543 F   0  0  0  0  0  0  0  0  0  0  0  0
    9.0964    6.2656    9.7657 F   0  0  0  0  0  0  0  0  0  0  0  0
    5.3452    8.2860    5.1101 O   0  0  0  0  0  0  0  0  0  0  0  0
    4.3852    9.0222    4.9187 C   0  0  0  0  0  0  0  0  0  0  0  0
    3.9228   10.0451    5.7213 N   0  0  0  0  0  0  0  0  0  0  0  0
    3.0895   10.5421    5.3883 H   0  0  0  0  0  0  0  0  0  0  0  0
    3.5710    8.8418    3.6723 C   0  0  0  0  0  0  0  0  0  0  0  0
    4.1421    8.2635    2.5485 C   0  0  0  0  0  0  0  0  0  0  0  0
    3.3423    8.1213    1.4219 C   0  0  0  0  0  0  0  0  0  0  0  0
    4.0114    7.4066    0.0012 Cl  0  0  0  0  0  0  0  0  0  0  0  0
    2.0173    8.5494    1.4344 C   0  0  0  0  0  0  0  0  0  0  0  0
    1.2148    8.4187    0.3348 O   0  0  0  0  0  0  0  0  0  0  0  0
    1.5457    9.1153    2.6107 C   0  0  0  0  0  0  0  0  0  0  0  0
   -0.0655    9.6905    2.7703 Cl  0  0  0  0  0  0  0  0  0  0  0  0
    2.2851    9.2740    3.7304 N   0  0  0  0  0  0  0  0  0  0  0  0
    1.7352    7.9985   -0.3761 H   0  0  0  0  0  0  0  0  0  0  0  0
    5.8356   12.3362    9.4333 H   0  0  0  0  0  0  0  0  0  0  0  0
    4.2028    5.7735    7.7760 H   0  0  0  0  0  0  0  0  0  0  0  0
    4.2221    5.6405    9.5287 H   0  0  0  0  0  0  0  0  0  0  0  0
    6.6096    5.4004    7.7312 H   0  0  0  0  0  0  0  0  0  0  0  0
    5.7670    4.0738    8.5377 H   0  0  0  0  0  0  0  0  0  0  0  0
    6.6771    4.5106   10.5343 H   0  0  0  0  0  0  0  0  0  0  0  0
    7.5384    6.9204   11.0748 H   0  0  0  0  0  0  0  0  0  0  0  0
    5.8355    6.4592   11.2305 H   0  0  0  0  0  0  0  0  0  0  0  0
    7.0708    7.9464    8.9483 H   0  0  0  0  0  0  0  0  0  0  0  0
    5.9729    8.5864   10.1764 H   0  0  0  0  0  0  0  0  0  0  0  0
    5.1254    7.9503    2.5493 H   0  0  0  0  0  0  0  0  0  0  0  0
  1  2  1  0
  2  3  1  0
  3  4  2  0
  3 32  1  0
  4  5  1  0
  5  6  1  0
  5  1  2  0
  6  7  2  0
  6  8  1  0
  8  9  1  0
  9 10  1  0
  9 33  1  0
  9 34  1  0
 10 11  1  0
 10 35  1  0
 10 36  1  0
 11 14  1  0
 11 12  1  0
 11 37  1  0
 12 13  1  0
 12 38  1  0
 12 39  1  0
 13  8  1  0
 13 40  1  0
 13 41  1  0
 14 15  1  0
 14 16  1  0
 14 17  1  0
 18 19  2  0
 19 20  1  0
 19 22  1  0
 20  1  1  0
 20 21  1  0
 22 23  2  0
 23 24  1  0
 23 42  1  0
 24 25  1  0
 24 26  2  0
 26 27  1  0
 26 28  1  0
 27 31  1  0
 28 29  1  0
 28 30  2  0
 30 22  1  0
M  END
>  <minimizedAffinity>  (9) 
-8.40829

>  <mol_id>  (9) 
129246

>  <source_index>  (9) 
8

>  <layer>  (9) 
L4

>  <uniprot>  (9) 
P37059

>  <paff>  (9) 
6.1249000000000002

>  <smiles>  (9) 
O=C(Nc1scnc1C(=O)N1CCC(C(F)(F)F)CC1)c1cc(Cl)c(O)c(Cl)n1

$$$$
L4:P37059:136390
     RDKit          3D

 47 49  0  0  0  0  0  0  0  0999 V2000
   -1.4101    6.9887    4.3799 C   0  0  0  0  0  0  0  0  0  0  0  0
   -0.0875    7.3152    3.7810 C   0  0  0  0  0  0  0  0  0  0  0  0
    0.9183    7.8498    4.4404 N   0  0  0  0  0  0  0  0  0  0  0  0
    2.0026    8.0223    3.5747 C   0  0  0  0  0  0  0  0  0  0  0  0
    1.7793    7.6082    2.2703 C   0  0  0  0  0  0  0  0  0  0  0  0
    0.2047    6.9881    2.1218 S   0  0  0  0  0  0  0  0  0  0  0  0
    3.2678    8.5889    4.0473 C   0  0  0  0  0  0  0  0  0  0  0  0
    4.3050    8.5316    3.3903 O   0  0  0  0  0  0  0  0  0  0  0  0
    3.1730    9.1666    5.2888 N   0  0  0  0  0  0  0  0  0  0  0  0
    2.2891    9.0336    5.7769 H   0  0  0  0  0  0  0  0  0  0  0  0
    4.3368    9.6186    6.0045 C   0  0  0  0  0  0  0  0  0  0  0  0
    4.3514    9.0869    7.4119 C   0  0  0  0  0  0  0  0  0  0  0  0
    3.5483    7.9838    7.7425 C   0  0  0  0  0  0  0  0  0  0  0  0
    3.5444    7.4679    9.0396 C   0  0  0  0  0  0  0  0  0  0  0  0
    4.3416    8.0475   10.0238 C   0  0  0  0  0  0  0  0  0  0  0  0
    5.1562    9.1338    9.7091 C   0  0  0  0  0  0  0  0  0  0  0  0
    5.1818    9.6311    8.4033 C   0  0  0  0  0  0  0  0  0  0  0  0
    5.9674   10.7108    8.1023 O   0  0  0  0  0  0  0  0  0  0  0  0
    5.3807   11.9244    8.5637 C   0  0  0  0  0  0  0  0  0  0  0  0
    5.7281   12.1809    9.8444 F   0  0  0  0  0  0  0  0  0  0  0  0
    4.0353   11.8867    8.4595 F   0  0  0  0  0  0  0  0  0  0  0  0
    5.8340   12.9395    7.7954 F   0  0  0  0  0  0  0  0  0  0  0  0
    2.6797    7.6579    1.2167 N   0  0  0  0  0  0  0  0  0  0  0  0
    2.7115    8.5875    0.1981 C   0  0  0  0  0  0  0  0  0  0  0  0
    1.9931    9.5693    0.0608 O   0  0  0  0  0  0  0  0  0  0  0  0
    3.4118    6.9511    1.2675 H   0  0  0  0  0  0  0  0  0  0  0  0
    3.7759    8.3626   -0.8223 C   0  0  0  0  0  0  0  0  0  0  0  0
    4.1400    7.0418   -1.1198 C   0  0  0  0  0  0  0  0  0  0  0  0
    5.1365    6.7835   -2.0628 C   0  0  0  0  0  0  0  0  0  0  0  0
    5.5394    5.1412   -2.4062 Cl  0  0  0  0  0  0  0  0  0  0  0  0
    5.7830    7.8414   -2.7058 C   0  0  0  0  0  0  0  0  0  0  0  0
    6.7595    7.5800   -3.6323 O   0  0  0  0  0  0  0  0  0  0  0  0
    5.4302    9.1581   -2.3937 C   0  0  0  0  0  0  0  0  0  0  0  0
    6.2299   10.4795   -3.1645 Cl  0  0  0  0  0  0  0  0  0  0  0  0
    4.4335    9.4260   -1.4540 C   0  0  0  0  0  0  0  0  0  0  0  0
    7.1027    8.4318   -3.9600 H   0  0  0  0  0  0  0  0  0  0  0  0
   -1.4095    7.2596    5.4150 H   0  0  0  0  0  0  0  0  0  0  0  0
   -1.5948    5.9389    4.2860 H   0  0  0  0  0  0  0  0  0  0  0  0
   -2.1770    7.5328    3.8693 H   0  0  0  0  0  0  0  0  0  0  0  0
    4.3337   10.6881    6.0356 H   0  0  0  0  0  0  0  0  0  0  0  0
    5.2073    9.2581    5.4974 H   0  0  0  0  0  0  0  0  0  0  0  0
    2.9544    7.5496    7.0187 H   0  0  0  0  0  0  0  0  0  0  0  0
    2.9502    6.6561    9.2696 H   0  0  0  0  0  0  0  0  0  0  0  0
    4.3291    7.6729   10.9853 H   0  0  0  0  0  0  0  0  0  0  0  0
    5.7399    9.5705   10.4396 H   0  0  0  0  0  0  0  0  0  0  0  0
    3.6700    6.2581   -0.6403 H   0  0  0  0  0  0  0  0  0  0  0  0
    4.1828   10.4008   -1.2262 H   0  0  0  0  0  0  0  0  0  0  0  0
  1  2  1  0
  1 37  1  0
  1 38  1  0
  1 39  1  0
  2  3  2  0
  3  4  1  0
  4  7  1  0
  4  5  2  0
  5 23  1  0
  5  6  1  0
  6  2  1  0
  7  8  2  0
  7  9  1  0
  9 11  1  0
  9 10  1  0
 11 12  1  0
 11 40  1  0
 11 41  1  0
 12 13  2  0
 13 14  1  0
 13 42  1  0
 14 15  2  0
 14 43  1  0
 15 16  1  0
 15 44  1  0
 16 17  2  0
 16 45  1  0
 17 18  1  0
 17 12  1  0
 18 19  1  0
 19 20  1  0
 19 21  1  0
 19 22  1  0
 23 24  1  0
 23 26  1  0
 24 25  2  0
 24 27  1  0
 27 28  2  0
 28 29  1  0
 28 46  1  0
 29 30  1  0
 29 31  2  0
 31 32  1  0
 31 33  1  0
 32 36  1  0
 33 34  1  0
 33 35  2  0
 35 27  1  0
 35 47  1  0
M  END
>  <minimizedAffinity>  (10) 
-7.83500

>  <mol_id>  (10) 
136390

>  <source_index>  (10) 
9

>  <layer>  (10) 
L4

>  <uniprot>  (10) 
P37059

>  <paff>  (10) 
6.5228999999999999

>  <smiles>  (10) 
Cc1nc(C(=O)NCc2ccccc2OC(F)(F)F)c(NC(=O)c2cc(Cl)c(O)c(Cl)c2)s1

$$$$
