L1:P08922:100526


 44 49  0  0  0  0  0  0  0  0999 V2000
   44.0905  -19.6259   -2.7266 C   0  0  0  0  0  0  0  0  0  0  0  0
   43.1826  -18.8772   -2.3862 O   0  0  0  0  0  0  0  0  0  0  0  0
   44.5103  -19.8810   -4.0042 N   0  0  0  0  0  0  0  0  0  0  0  0
   45.2380  -20.5784   -4.1275 H   0  0  0  0  0  0  0  0  0  0  0  0
   44.0570  -19.3707   -5.1976 C   0  0  0  0  0  0  0  0  0  0  0  0
   44.9553  -18.6728   -5.9056 N   0  0  0  0  0  0  0  0  0  0  0  0
   44.2871  -18.2834   -6.9968 N   0  0  0  0  0  0  0  0  0  0  0  0
   42.9884  -18.6994   -7.0416 C   0  0  0  0  0  0  0  0  0  0  0  0
   41.9942  -18.4909   -8.0035 C   0  0  0  0  0  0  0  0  0  0  0  0
   40.7356  -19.0445   -7.7575 C   0  0  0  0  0  0  0  0  0  0  0  0
   40.4814  -19.7814   -6.5962 C   0  0  0  0  0  0  0  0  0  0  0  0
   41.5090  -19.9655   -5.6490 C   0  0  0  0  0  0  0  0  0  0  0  0
   42.7932  -19.4227   -5.8663 C   0  0  0  0  0  0  0  0  0  0  0  0
   44.7768  -17.7247   -7.6856 H   0  0  0  0  0  0  0  0  0  0  0  0
   39.1067  -20.3539   -6.3342 C   0  0  0  0  0  0  0  0  0  0  0  0
   38.4473  -19.7850   -5.1001 C   0  0  0  0  0  0  0  0  0  0  0  0
   38.4117  -18.4004   -4.8802 C   0  0  0  0  0  0  0  0  0  0  0  0
   37.8162  -17.8906   -3.7279 C   0  0  0  0  0  0  0  0  0  0  0  0
   37.7892  -16.5650   -3.5355 F   0  0  0  0  0  0  0  0  0  0  0  0
   37.2521  -18.7293   -2.7781 C   0  0  0  0  0  0  0  0  0  0  0  0
   37.2923  -20.0993   -2.9924 C   0  0  0  0  0  0  0  0  0  0  0  0
   36.7538  -20.9230   -2.0837 F   0  0  0  0  0  0  0  0  0  0  0  0
   37.8824  -20.6339   -4.1360 C   0  0  0  0  0  0  0  0  0  0  0  0
   46.5457  -21.7331    0.1827 C   0  0  0  0  0  0  0  0  0  0  0  0
   47.0776  -20.9003   -0.8080 C   0  0  0  0  0  0  0  0  0  0  0  0
   46.2591  -20.2126   -1.7106 C   0  0  0  0  0  0  0  0  0  0  0  0
   44.8645  -20.3363   -1.6560 C   0  0  0  0  0  0  0  0  0  0  0  0
   44.2853  -21.1521   -0.6670 C   0  0  0  0  0  0  0  0  0  0  0  0
   45.1433  -21.8327    0.2259 C   0  0  0  0  0  0  0  0  0  0  0  0
   50.0290  -24.9734    2.9020 C   0  0  0  0  0  0  0  0  0  0  0  0
   49.0890  -23.8654    3.0472 N   0  0  0  0  0  0  0  0  0  0  0  0
   47.7083  -24.2663    2.7048 C   0  0  0  0  0  0  0  0  0  0  0  0
   47.2190  -23.8632    1.2930 C   0  0  0  0  0  0  0  0  0  0  0  0
   47.3557  -22.4127    1.0753 N   0  0  0  0  0  0  0  0  0  0  0  0
   48.3888  -21.7269    1.8701 C   0  0  0  0  0  0  0  0  0  0  0  0
   49.5274  -22.7037    2.2449 C   0  0  0  0  0  0  0  0  0  0  0  0
   42.9027  -21.2587   -0.4430 N   0  0  0  0  0  0  0  0  0  0  0  0
   42.3564  -20.4596   -0.7592 H   0  0  0  0  0  0  0  0  0  0  0  0
   42.2645  -22.5704   -0.6616 C   0  0  0  0  0  0  0  0  0  0  0  0
   40.7900  -22.4966   -0.2385 C   0  0  0  0  0  0  0  0  0  0  0  0
   39.8872  -22.2862   -1.4427 C   0  0  0  0  0  0  0  0  0  0  0  0
   39.9972  -23.3316   -2.4080 O   0  0  0  0  0  0  0  0  0  0  0  0
   41.2852  -23.9375   -2.5097 C   0  0  0  0  0  0  0  0  0  0  0  0
   42.4092  -22.9898   -2.1305 C   0  0  0  0  0  0  0  0  0  0  0  0
 30 31  1  0  0  0
 31 32  1  0  0  0
 32 33  1  0  0  0
 33 34  1  0  0  0
 34 24  1  0  0  0
 24 25  2  0  0  0
 25 26  1  0  0  0
 26 27  2  0  0  0
 27  1  1  0  0  0
  1  2  2  0  0  0
  1  3  1  0  0  0
  3  5  1  0  0  0
  5  6  2  0  0  0
  6  7  1  0  0  0
  7  8  1  0  0  0
  8  9  2  0  0  0
  9 10  1  0  0  0
 10 11  2  0  0  0
 11 15  1  0  0  0
 15 16  1  0  0  0
 16 17  2  0  0  0
 17 18  1  0  0  0
 18 19  1  0  0  0
 18 20  2  0  0  0
 20 21  1  0  0  0
 21 22  1  0  0  0
 21 23  2  0  0  0
 11 12  1  0  0  0
 12 13  2  0  0  0
 27 28  1  0  0  0
 28 37  1  0  0  0
 37 39  1  0  0  0
 39 40  1  0  0  0
 40 41  1  0  0  0
 41 42  1  0  0  0
 42 43  1  0  0  0
 43 44  1  0  0  0
 28 29  2  0  0  0
 34 35  1  0  0  0
 35 36  1  0  0  0
 36 31  1  0  0  0
 29 24  1  0  0  0
 13  5  1  0  0  0
 44 39  1  0  0  0
 13  8  1  0  0  0
 23 16  1  0  0  0
  3  4  1  0  0  0
  7 14  1  0  0  0
 37 38  1  0  0  0
M  END
> <minimizedAffinity>
-8.91311

$$$$
