L1:P08922:100526
     RDKit          3D

 75 80  0  0  0  0  0  0  0  0999 V2000
   -7.4415    5.0733    0.7698 C   0  0  0  0  0  0  0  0  0  0  0  0
   -6.7849    3.9546    1.4404 N   0  0  0  0  0  0  0  0  0  0  0  0
   -5.4754    4.3429    2.0049 C   0  0  0  0  0  0  0  0  0  0  0  0
   -4.2352    3.9432    1.1699 C   0  0  0  0  0  0  0  0  0  0  0  0
   -4.2197    2.4956    0.8976 N   0  0  0  0  0  0  0  0  0  0  0  0
   -3.0385    1.8129    0.6670 C   0  0  0  0  0  0  0  0  0  0  0  0
   -1.8824    2.4680    0.2285 C   0  0  0  0  0  0  0  0  0  0  0  0
   -0.6878    1.7782   -0.0052 C   0  0  0  0  0  0  0  0  0  0  0  0
   -0.6047    0.3940    0.1959 C   0  0  0  0  0  0  0  0  0  0  0  0
    0.7465   -0.2273    0.0008 C   0  0  0  0  0  0  0  0  0  0  0  0
    1.5310    0.3188   -0.7654 O   0  0  0  0  0  0  0  0  0  0  0  0
    0.9711   -1.3576    0.7395 N   0  0  0  0  0  0  0  0  0  0  0  0
    2.0984   -2.1392    0.8310 C   0  0  0  0  0  0  0  0  0  0  0  0
    1.9816   -3.2341    1.5944 N   0  0  0  0  0  0  0  0  0  0  0  0
    3.1863   -3.8118    1.5320 N   0  0  0  0  0  0  0  0  0  0  0  0
    4.0908   -3.1480    0.7554 C   0  0  0  0  0  0  0  0  0  0  0  0
    5.4262   -3.4382    0.4564 C   0  0  0  0  0  0  0  0  0  0  0  0
    6.1072   -2.5462   -0.3753 C   0  0  0  0  0  0  0  0  0  0  0  0
    5.4764   -1.4095   -0.8914 C   0  0  0  0  0  0  0  0  0  0  0  0
    6.2350   -0.4418   -1.7712 C   0  0  0  0  0  0  0  0  0  0  0  0
    7.0074    0.5959   -0.9914 C   0  0  0  0  0  0  0  0  0  0  0  0
    8.3703    0.4160   -0.7137 C   0  0  0  0  0  0  0  0  0  0  0  0
    9.0660    1.3730    0.0228 C   0  0  0  0  0  0  0  0  0  0  0  0
   10.3680    1.1857    0.2766 F   0  0  0  0  0  0  0  0  0  0  0  0
    8.4357    2.5138    0.4973 C   0  0  0  0  0  0  0  0  0  0  0  0
    7.0863    2.6893    0.2278 C   0  0  0  0  0  0  0  0  0  0  0  0
    6.4624    3.7847    0.6807 F   0  0  0  0  0  0  0  0  0  0  0  0
    6.3683    1.7469   -0.5058 C   0  0  0  0  0  0  0  0  0  0  0  0
    4.1303   -1.1502   -0.5629 C   0  0  0  0  0  0  0  0  0  0  0  0
    3.4111   -2.0312    0.2723 C   0  0  0  0  0  0  0  0  0  0  0  0
   -1.7466   -0.3080    0.6229 C   0  0  0  0  0  0  0  0  0  0  0  0
   -1.8135   -1.7059    0.7437 N   0  0  0  0  0  0  0  0  0  0  0  0
   -1.7354   -2.5124   -0.4888 C   0  0  0  0  0  0  0  0  0  0  0  0
   -1.3456   -3.9540   -0.1307 C   0  0  0  0  0  0  0  0  0  0  0  0
   -2.5700   -4.8526   -0.0773 C   0  0  0  0  0  0  0  0  0  0  0  0
   -3.2763   -4.9021   -1.3165 O   0  0  0  0  0  0  0  0  0  0  0  0
   -3.2345   -3.7054   -2.0929 C   0  0  0  0  0  0  0  0  0  0  0  0
   -3.0725   -2.4599   -1.2398 C   0  0  0  0  0  0  0  0  0  0  0  0
   -2.9347    0.4222    0.8506 C   0  0  0  0  0  0  0  0  0  0  0  0
   -5.5264    1.8159    0.9003 C   0  0  0  0  0  0  0  0  0  0  0  0
   -6.6559    2.8024    0.5231 C   0  0  0  0  0  0  0  0  0  0  0  0
   -7.6309    5.8873    1.4782 H   0  0  0  0  0  0  0  0  0  0  0  0
   -6.8423    5.4694   -0.0580 H   0  0  0  0  0  0  0  0  0  0  0  0
   -8.4172    4.7673    0.3760 H   0  0  0  0  0  0  0  0  0  0  0  0
   -5.4389    5.4176    2.2232 H   0  0  0  0  0  0  0  0  0  0  0  0
   -5.3952    3.8445    2.9803 H   0  0  0  0  0  0  0  0  0  0  0  0
   -4.2280    4.4949    0.2222 H   0  0  0  0  0  0  0  0  0  0  0  0
   -3.3485    4.2380    1.7444 H   0  0  0  0  0  0  0  0  0  0  0  0
   -1.8887    3.5381    0.0397 H   0  0  0  0  0  0  0  0  0  0  0  0
    0.1862    2.3367   -0.3360 H   0  0  0  0  0  0  0  0  0  0  0  0
    0.1951   -1.7241    1.2823 H   0  0  0  0  0  0  0  0  0  0  0  0
    3.3348   -4.6694    2.0504 H   0  0  0  0  0  0  0  0  0  0  0  0
    5.9233   -4.3163    0.8557 H   0  0  0  0  0  0  0  0  0  0  0  0
    7.1494   -2.7468   -0.6162 H   0  0  0  0  0  0  0  0  0  0  0  0
    6.9163   -1.0023   -2.4253 H   0  0  0  0  0  0  0  0  0  0  0  0
    5.5427    0.0615   -2.4593 H   0  0  0  0  0  0  0  0  0  0  0  0
    8.9016   -0.4650   -1.0621 H   0  0  0  0  0  0  0  0  0  0  0  0
    8.9846    3.2515    1.0692 H   0  0  0  0  0  0  0  0  0  0  0  0
    5.3100    1.9177   -0.6874 H   0  0  0  0  0  0  0  0  0  0  0  0
    3.6568   -0.2590   -0.9584 H   0  0  0  0  0  0  0  0  0  0  0  0
   -2.4826   -2.0429    1.4334 H   0  0  0  0  0  0  0  0  0  0  0  0
   -0.9480   -2.1195   -1.1436 H   0  0  0  0  0  0  0  0  0  0  0  0
   -0.6749   -4.3334   -0.9126 H   0  0  0  0  0  0  0  0  0  0  0  0
   -0.7978   -4.0035    0.8164 H   0  0  0  0  0  0  0  0  0  0  0  0
   -3.2648   -4.5188    0.7021 H   0  0  0  0  0  0  0  0  0  0  0  0
   -2.2760   -5.8770    0.1731 H   0  0  0  0  0  0  0  0  0  0  0  0
   -2.4139   -3.7932   -2.8144 H   0  0  0  0  0  0  0  0  0  0  0  0
   -4.1648   -3.6540   -2.6675 H   0  0  0  0  0  0  0  0  0  0  0  0
   -3.1187   -1.5597   -1.8632 H   0  0  0  0  0  0  0  0  0  0  0  0
   -3.9078   -2.4017   -0.5298 H   0  0  0  0  0  0  0  0  0  0  0  0
   -3.8074   -0.1302    1.1892 H   0  0  0  0  0  0  0  0  0  0  0  0
   -5.7160    1.3812    1.8891 H   0  0  0  0  0  0  0  0  0  0  0  0
   -5.5429    1.0055    0.1613 H   0  0  0  0  0  0  0  0  0  0  0  0
   -6.4603    3.1513   -0.5007 H   0  0  0  0  0  0  0  0  0  0  0  0
   -7.6099    2.2629    0.5023 H   0  0  0  0  0  0  0  0  0  0  0  0
  1  2  1  0
  2  3  1  0
  3  4  1  0
  4  5  1  0
  5  6  1  0
  6  7  2  0
  7  8  1  0
  8  9  2  0
  9 10  1  0
 10 11  2  0
 10 12  1  0
 12 13  1  0
 13 14  2  0
 14 15  1  0
 15 16  1  0
 16 17  2  0
 17 18  1  0
 18 19  2  0
 19 20  1  0
 20 21  1  0
 21 22  2  0
 22 23  1  0
 23 24  1  0
 23 25  2  0
 25 26  1  0
 26 27  1  0
 26 28  2  0
 19 29  1  0
 29 30  2  0
  9 31  1  0
 31 32  1  0
 32 33  1  0
 33 34  1  0
 34 35  1  0
 35 36  1  0
 36 37  1  0
 37 38  1  0
 31 39  2  0
  5 40  1  0
 40 41  1  0
 41  2  1  0
 39  6  1  0
 30 13  1  0
 38 33  1  0
 30 16  1  0
 28 21  1  0
  1 42  1  0
  1 43  1  0
  1 44  1  0
  3 45  1  0
  3 46  1  0
  4 47  1  0
  4 48  1  0
  7 49  1  0
  8 50  1  0
 12 51  1  0
 15 52  1  0
 17 53  1  0
 18 54  1  0
 20 55  1  0
 20 56  1  0
 22 57  1  0
 25 58  1  0
 28 59  1  0
 29 60  1  0
 32 61  1  0
 33 62  1  0
 34 63  1  0
 34 64  1  0
 35 65  1  0
 35 66  1  0
 37 67  1  0
 37 68  1  0
 38 69  1  0
 38 70  1  0
 39 71  1  0
 40 72  1  0
 40 73  1  0
 41 74  1  0
 41 75  1  0
M  END
>  <mol_id>  (1) 
100526

>  <source_index>  (1) 
9

>  <layer>  (1) 
L1

>  <uniprot>  (1) 
P08922

>  <paff>  (1) 
7.9207999999999998

>  <smiles>  (1) 
CN1CCN(c2ccc(C(=O)Nc3n[nH]c4ccc(Cc5cc(F)cc(F)c5)cc34)c(NC3CCOCC3)c2)CC1

$$$$
