L1:P08922:100526
 OpenBabel09212617423D

 75 80  0  0  0  0  0  0  0  0999 V2000
   44.0905  -19.6259   -2.7266 C   0  0  0  0  0  0  0  0  0  0  0  0
   43.1826  -18.8772   -2.3862 O   0  0  0  0  0  0  0  0  0  0  0  0
   44.5103  -19.8810   -4.0042 N   0  0  0  0  0  0  0  0  0  0  0  0
   45.2380  -20.5784   -4.1275 H   0  0  0  0  0  0  0  0  0  0  0  0
   44.0570  -19.3707   -5.1976 C   0  0  0  0  0  0  0  0  0  0  0  0
   44.9553  -18.6728   -5.9056 N   0  0  0  0  0  0  0  0  0  0  0  0
   44.2871  -18.2834   -6.9968 N   0  0  0  0  0  0  0  0  0  0  0  0
   42.9884  -18.6994   -7.0416 C   0  0  0  0  0  0  0  0  0  0  0  0
   41.9942  -18.4909   -8.0035 C   0  0  0  0  0  0  0  0  0  0  0  0
   40.7356  -19.0445   -7.7575 C   0  0  0  0  0  0  0  0  0  0  0  0
   40.4814  -19.7814   -6.5962 C   0  0  0  0  0  0  0  0  0  0  0  0
   41.5090  -19.9655   -5.6490 C   0  0  0  0  0  0  0  0  0  0  0  0
   42.7932  -19.4227   -5.8663 C   0  0  0  0  0  0  0  0  0  0  0  0
   44.7768  -17.7247   -7.6856 H   0  0  0  0  0  0  0  0  0  0  0  0
   39.1067  -20.3539   -6.3342 C   0  0  0  0  0  0  0  0  0  0  0  0
   38.4473  -19.7850   -5.1001 C   0  0  0  0  0  0  0  0  0  0  0  0
   38.4117  -18.4004   -4.8802 C   0  0  0  0  0  0  0  0  0  0  0  0
   37.8162  -17.8906   -3.7279 C   0  0  0  0  0  0  0  0  0  0  0  0
   37.7892  -16.5650   -3.5355 F   0  0  0  0  0  0  0  0  0  0  0  0
   37.2521  -18.7293   -2.7781 C   0  0  0  0  0  0  0  0  0  0  0  0
   37.2923  -20.0993   -2.9924 C   0  0  0  0  0  0  0  0  0  0  0  0
   36.7538  -20.9230   -2.0837 F   0  0  0  0  0  0  0  0  0  0  0  0
   37.8824  -20.6339   -4.1360 C   0  0  0  0  0  0  0  0  0  0  0  0
   46.5457  -21.7331    0.1827 C   0  0  0  0  0  0  0  0  0  0  0  0
   47.0776  -20.9003   -0.8080 C   0  0  0  0  0  0  0  0  0  0  0  0
   46.2591  -20.2126   -1.7106 C   0  0  0  0  0  0  0  0  0  0  0  0
   44.8645  -20.3363   -1.6560 C   0  0  0  0  0  0  0  0  0  0  0  0
   44.2853  -21.1521   -0.6670 C   0  0  0  0  0  0  0  0  0  0  0  0
   45.1433  -21.8327    0.2259 C   0  0  0  0  0  0  0  0  0  0  0  0
   50.0290  -24.9734    2.9020 C   0  0  0  0  0  0  0  0  0  0  0  0
   49.0890  -23.8654    3.0472 N   0  0  0  0  0  0  0  0  0  0  0  0
   47.7083  -24.2663    2.7048 C   0  0  0  0  0  0  0  0  0  0  0  0
   47.2190  -23.8632    1.2930 C   0  0  0  0  0  0  0  0  0  0  0  0
   47.3557  -22.4127    1.0753 N   0  0  0  0  0  0  0  0  0  0  0  0
   48.3888  -21.7269    1.8701 C   0  0  0  0  0  0  0  0  0  0  0  0
   49.5274  -22.7037    2.2449 C   0  0  0  0  0  0  0  0  0  0  0  0
   42.9027  -21.2587   -0.4430 N   0  0  0  0  0  0  0  0  0  0  0  0
   42.3564  -20.4596   -0.7592 H   0  0  0  0  0  0  0  0  0  0  0  0
   42.2645  -22.5704   -0.6616 C   0  0  0  0  0  0  0  0  0  0  0  0
   40.7900  -22.4966   -0.2385 C   0  0  0  0  0  0  0  0  0  0  0  0
   39.8872  -22.2862   -1.4427 C   0  0  0  0  0  0  0  0  0  0  0  0
   39.9972  -23.3316   -2.4080 O   0  0  0  0  0  0  0  0  0  0  0  0
   41.2852  -23.9375   -2.5097 C   0  0  0  0  0  0  0  0  0  0  0  0
   42.4092  -22.9898   -2.1305 C   0  0  0  0  0  0  0  0  0  0  0  0
   42.1833  -17.9492   -8.8613 H   0  0  0  0  0  0  0  0  0  0  0  0
   39.9789  -18.9072   -8.4457 H   0  0  0  0  0  0  0  0  0  0  0  0
   41.3202  -20.5025   -4.7882 H   0  0  0  0  0  0  0  0  0  0  0  0
   39.1975  -21.4131   -6.2130 H   0  0  0  0  0  0  0  0  0  0  0  0
   38.4911  -20.0948   -7.1702 H   0  0  0  0  0  0  0  0  0  0  0  0
   38.8271  -17.7579   -5.5728 H   0  0  0  0  0  0  0  0  0  0  0  0
   36.8114  -18.3420   -1.9291 H   0  0  0  0  0  0  0  0  0  0  0  0
   37.9040  -21.6564   -4.2742 H   0  0  0  0  0  0  0  0  0  0  0  0
   48.1016  -20.7903   -0.8747 H   0  0  0  0  0  0  0  0  0  0  0  0
   46.6885  -19.6058   -2.4265 H   0  0  0  0  0  0  0  0  0  0  0  0
   44.7184  -22.4349    0.9482 H   0  0  0  0  0  0  0  0  0  0  0  0
   49.6953  -25.8035    3.4890 H   0  0  0  0  0  0  0  0  0  0  0  0
   50.9974  -24.6658    3.2373 H   0  0  0  0  0  0  0  0  0  0  0  0
   50.0831  -25.2628    1.8733 H   0  0  0  0  0  0  0  0  0  0  0  0
   47.0500  -23.8194    3.4202 H   0  0  0  0  0  0  0  0  0  0  0  0
   47.7052  -25.3362    2.7183 H   0  0  0  0  0  0  0  0  0  0  0  0
   46.1896  -24.1361    1.1894 H   0  0  0  0  0  0  0  0  0  0  0  0
   47.8194  -24.3724    0.5683 H   0  0  0  0  0  0  0  0  0  0  0  0
   47.9461  -21.3432    2.7655 H   0  0  0  0  0  0  0  0  0  0  0  0
   48.7982  -20.9286    1.2870 H   0  0  0  0  0  0  0  0  0  0  0  0
   50.2605  -22.1645    2.8077 H   0  0  0  0  0  0  0  0  0  0  0  0
   49.9141  -23.0926    1.3261 H   0  0  0  0  0  0  0  0  0  0  0  0
   42.7495  -23.3139   -0.0641 H   0  0  0  0  0  0  0  0  0  0  0  0
   40.6617  -21.6807    0.4417 H   0  0  0  0  0  0  0  0  0  0  0  0
   40.5233  -23.4209    0.2299 H   0  0  0  0  0  0  0  0  0  0  0  0
   40.1514  -21.3606   -1.9100 H   0  0  0  0  0  0  0  0  0  0  0  0
   38.8771  -22.2797   -1.0898 H   0  0  0  0  0  0  0  0  0  0  0  0
   41.4339  -24.2585   -3.5195 H   0  0  0  0  0  0  0  0  0  0  0  0
   41.3108  -24.7599   -1.8257 H   0  0  0  0  0  0  0  0  0  0  0  0
   42.3663  -22.1210   -2.7535 H   0  0  0  0  0  0  0  0  0  0  0  0
   43.3482  -23.4848   -2.2650 H   0  0  0  0  0  0  0  0  0  0  0  0
  1  2  2  0  0  0  0
  1  3  1  0  0  0  0
  3  5  1  0  0  0  0
  3  4  1  0  0  0  0
  5  6  2  0  0  0  0
  6  7  1  0  0  0  0
  7  8  1  0  0  0  0
  7 14  1  0  0  0  0
  8  9  2  0  0  0  0
  9 10  1  0  0  0  0
  9 45  1  0  0  0  0
 10 11  2  0  0  0  0
 10 46  1  0  0  0  0
 11 15  1  0  0  0  0
 11 12  1  0  0  0  0
 12 13  2  0  0  0  0
 12 47  1  0  0  0  0
 13  5  1  0  0  0  0
 13  8  1  0  0  0  0
 15 16  1  0  0  0  0
 15 48  1  0  0  0  0
 15 49  1  0  0  0  0
 16 17  2  0  0  0  0
 17 18  1  0  0  0  0
 17 50  1  0  0  0  0
 18 19  1  0  0  0  0
 18 20  2  0  0  0  0
 20 21  1  0  0  0  0
 20 51  1  0  0  0  0
 21 22  1  0  0  0  0
 21 23  2  0  0  0  0
 23 16  1  0  0  0  0
 23 52  1  0  0  0  0
 24 25  2  0  0  0  0
 25 26  1  0  0  0  0
 25 53  1  0  0  0  0
 26 27  2  0  0  0  0
 26 54  1  0  0  0  0
 27  1  1  0  0  0  0
 27 28  1  0  0  0  0
 28 37  1  0  0  0  0
 28 29  2  0  0  0  0
 29 24  1  0  0  0  0
 29 55  1  0  0  0  0
 30 31  1  0  0  0  0
 30 56  1  0  0  0  0
 30 57  1  0  0  0  0
 30 58  1  0  0  0  0
 31 32  1  0  0  0  0
 32 33  1  0  0  0  0
 32 59  1  0  0  0  0
 32 60  1  0  0  0  0
 33 34  1  0  0  0  0
 33 61  1  0  0  0  0
 33 62  1  0  0  0  0
 34 24  1  0  0  0  0
 34 35  1  0  0  0  0
 35 36  1  0  0  0  0
 35 63  1  0  0  0  0
 35 64  1  0  0  0  0
 36 31  1  0  0  0  0
 36 65  1  0  0  0  0
 36 66  1  0  0  0  0
 37 39  1  0  0  0  0
 37 38  1  0  0  0  0
 39 40  1  0  0  0  0
 39 67  1  0  0  0  0
 40 41  1  0  0  0  0
 40 68  1  0  0  0  0
 40 69  1  0  0  0  0
 41 42  1  0  0  0  0
 41 70  1  0  0  0  0
 41 71  1  0  0  0  0
 42 43  1  0  0  0  0
 43 44  1  0  0  0  0
 43 72  1  0  0  0  0
 43 73  1  0  0  0  0
 44 39  1  0  0  0  0
 44 74  1  0  0  0  0
 44 75  1  0  0  0  0
M  END
>  <minimizedAffinity>
-8.91311

$$$$
