L1:P08922:16940


 42 46  0  0  0  0  0  0  0  0999 V2000
   40.8115  -21.9955    0.1733 C   0  0  0  0  0  0  0  0  0  0  0  0
   39.4727  -22.4187    0.2172 C   0  0  0  0  0  0  0  0  0  0  0  0
   38.4060  -21.5457   -0.0538 C   0  0  0  0  0  0  0  0  0  0  0  0
   38.7470  -20.2246   -0.3730 C   0  0  0  0  0  0  0  0  0  0  0  0
   40.0784  -19.7875   -0.4198 C   0  0  0  0  0  0  0  0  0  0  0  0
   41.1303  -20.6595   -0.1500 C   0  0  0  0  0  0  0  0  0  0  0  0
   37.0829  -21.9674   -0.0098 N   0  0  0  0  0  0  0  0  0  0  0  0
   36.0485  -21.1142    0.5808 C   0  0  0  0  0  0  0  0  0  0  0  0
   34.6917  -21.4072   -0.0545 C   0  0  0  0  0  0  0  0  0  0  0  0
   34.2727  -22.8686    0.1854 C   0  0  0  0  0  0  0  0  0  0  0  0
   35.4827  -23.8230    0.2052 C   0  0  0  0  0  0  0  0  0  0  0  0
   36.6874  -23.2713   -0.5497 C   0  0  0  0  0  0  0  0  0  0  0  0
   33.1761  -23.3504   -0.6771 N   0  0  0  0  0  0  0  0  0  0  0  0
   33.5679  -23.7886   -2.0292 C   0  0  0  0  0  0  0  0  0  0  0  0
   32.4031  -23.8217   -3.0577 C   0  0  0  0  0  0  0  0  0  0  0  0
   31.0657  -24.0734   -2.4933 N   0  0  0  0  0  0  0  0  0  0  0  0
   30.9638  -25.4437   -1.9878 C   0  0  0  0  0  0  0  0  0  0  0  0
   30.7872  -23.0943   -1.4187 C   0  0  0  0  0  0  0  0  0  0  0  0
   32.0223  -22.4440   -0.7365 C   0  0  0  0  0  0  0  0  0  0  0  0
   42.1358  -23.8777   -0.4752 C   0  0  0  0  0  0  0  0  0  0  0  0
   41.8998  -22.8042    0.4257 O   0  0  0  0  0  0  0  0  0  0  0  0
   42.4808  -20.2827   -0.1806 N   0  0  0  0  0  0  0  0  0  0  0  0
   42.8414  -19.9669    0.7112 H   0  0  0  0  0  0  0  0  0  0  0  0
   43.4683  -20.2450   -1.1530 C   0  0  0  0  0  0  0  0  0  0  0  0
   44.7439  -19.9624   -0.8568 N   0  0  0  0  0  0  0  0  0  0  0  0
   45.6218  -19.9535   -1.8783 C   0  0  0  0  0  0  0  0  0  0  0  0
   45.2787  -20.2122   -3.1831 C   0  0  0  0  0  0  0  0  0  0  0  0
   46.4786  -20.1876   -4.4131 Cl  0  0  0  0  0  0  0  0  0  0  0  0
   43.9395  -20.4906   -3.4179 C   0  0  0  0  0  0  0  0  0  0  0  0
   43.0483  -20.5137   -2.4009 N   0  0  0  0  0  0  0  0  0  0  0  0
   43.5091  -20.7837   -4.7309 N   0  0  0  0  0  0  0  0  0  0  0  0
   43.7186  -21.7537   -4.9987 H   0  0  0  0  0  0  0  0  0  0  0  0
   43.0827  -19.9520   -5.7842 C   0  0  0  0  0  0  0  0  0  0  0  0
   43.9855  -19.1648   -6.5154 C   0  0  0  0  0  0  0  0  0  0  0  0
   43.5597  -18.3413   -7.5602 C   0  0  0  0  0  0  0  0  0  0  0  0
   42.2143  -18.2868   -7.8961 C   0  0  0  0  0  0  0  0  0  0  0  0
   41.2968  -19.0539   -7.1836 C   0  0  0  0  0  0  0  0  0  0  0  0
   41.7139  -19.8862   -6.1268 C   0  0  0  0  0  0  0  0  0  0  0  0
   40.5009  -20.8471   -5.2604 P   0  0  0  0  0  0  0  0  0  0  0  0
   39.2183  -21.3519   -6.4134 C   0  0  0  0  0  0  0  0  0  0  0  0
   39.6199  -19.7912   -4.1032 C   0  0  0  0  0  0  0  0  0  0  0  0
   41.0374  -22.0584   -4.5318 O   0  0  0  0  0  0  0  0  0  0  0  0
 20 21  1  0  0  0
 21  1  1  0  0  0
  1  2  2  0  0  0
  2  3  1  0  0  0
  3  7  1  0  0  0
  7  8  1  0  0  0
  8  9  1  0  0  0
  9 10  1  0  0  0
 10 13  1  0  0  0
 13 14  1  0  0  0
 14 15  1  0  0  0
 15 16  1  0  0  0
 16 17  1  0  0  0
 16 18  1  0  0  0
 18 19  1  0  0  0
 10 11  1  0  0  0
 11 12  1  0  0  0
  3  4  2  0  0  0
  4  5  1  0  0  0
  5  6  2  0  0  0
  6 22  1  0  0  0
 22 24  1  0  0  0
 24 25  2  0  0  0
 25 26  1  0  0  0
 26 27  2  0  0  0
 27 28  1  0  0  0
 27 29  1  0  0  0
 29 31  1  0  0  0
 31 33  1  0  0  0
 33 34  2  0  0  0
 34 35  1  0  0  0
 35 36  2  0  0  0
 36 37  1  0  0  0
 37 38  2  0  0  0
 38 39  1  0  0  0
 39 40  1  0  0  0
 39 41  1  0  0  0
 39 42  2  0  0  0
 29 30  2  0  0  0
  6  1  1  0  0  0
 30 24  1  0  0  0
 12  7  1  0  0  0
 38 33  1  0  0  0
 19 13  1  0  0  0
 22 23  1  0  0  0
 31 32  1  0  0  0
M  END
> <minimizedAffinity>
-7.85232

$$$$
