L1:P08922:1812
     RDKit          3D

 61 68  0  0  0  0  0  0  0  0999 V2000
   -1.8874   -1.4251    2.4087 C   0  0  0  0  0  0  0  0  0  0  0  0
   -1.9104   -0.3188    1.4667 N   0  0  0  0  0  0  0  0  0  0  0  0
   -2.7001   -0.5506    0.2529 C   0  0  2  0  0  0  0  0  0  0  0  0
   -2.3448   -1.7890   -0.5729 C   0  0  0  0  0  0  0  0  0  0  0  0
   -1.1230   -1.6260   -1.4663 C   0  0  1  0  0  0  0  0  0  0  0  0
   -1.0815   -0.4143   -2.2150 O   0  0  0  0  0  0  0  0  0  0  0  0
   -1.4366    0.8302   -1.5579 C   0  0  1  0  0  0  0  0  0  0  0  0
   -1.7403    1.7156   -2.7932 C   0  0  0  0  0  0  0  0  0  0  0  0
   -2.7446    0.6700   -0.7123 C   0  0  2  0  0  0  0  0  0  0  0  0
   -3.1243    1.9067   -0.0928 O   0  0  0  0  0  0  0  0  0  0  0  0
   -4.3837    1.8886    0.5613 C   0  0  0  0  0  0  0  0  0  0  0  0
   -0.2690    1.3686   -0.8195 N   0  0  0  0  0  0  0  0  0  0  0  0
   -0.0197    2.7054   -0.4800 C   0  0  0  0  0  0  0  0  0  0  0  0
   -0.7982    3.8753   -0.5866 C   0  0  0  0  0  0  0  0  0  0  0  0
   -0.2549    5.1037   -0.1962 C   0  0  0  0  0  0  0  0  0  0  0  0
    1.0350    5.1848    0.3034 C   0  0  0  0  0  0  0  0  0  0  0  0
    1.8035    4.0291    0.4436 C   0  0  0  0  0  0  0  0  0  0  0  0
    1.2767    2.7745    0.0614 C   0  0  0  0  0  0  0  0  0  0  0  0
    1.7782    1.4504    0.1437 C   0  0  0  0  0  0  0  0  0  0  0  0
    2.9417    0.8292    0.6293 C   0  0  0  0  0  0  0  0  0  0  0  0
    3.1012   -0.5893    0.6233 C   0  0  0  0  0  0  0  0  0  0  0  0
    2.1465   -1.4962    0.1438 C   0  0  0  0  0  0  0  0  0  0  0  0
    1.9620   -2.9073    0.0182 C   0  0  0  0  0  0  0  0  0  0  0  0
    2.7360   -4.0386    0.3554 C   0  0  0  0  0  0  0  0  0  0  0  0
    2.2512   -5.3253    0.0993 C   0  0  0  0  0  0  0  0  0  0  0  0
    1.0060   -5.5060   -0.4883 C   0  0  0  0  0  0  0  0  0  0  0  0
    0.2133   -4.4100   -0.8358 C   0  0  0  0  0  0  0  0  0  0  0  0
    0.7059   -3.1183   -0.5752 C   0  0  0  0  0  0  0  0  0  0  0  0
    0.1515   -1.8710   -0.8113 N   0  0  0  0  0  0  0  0  0  0  0  0
    1.0015   -0.9124   -0.3700 C   0  0  0  0  0  0  0  0  0  0  0  0
    0.8001    0.6276   -0.3774 C   0  0  0  0  0  0  0  0  0  0  0  0
    4.4113   -0.8808    1.2225 C   0  0  0  0  0  0  0  0  0  0  0  0
    4.9251   -1.9658    1.4038 O   0  0  0  0  0  0  0  0  0  0  0  0
    4.9832    0.3257    1.5605 N   0  0  0  0  0  0  0  0  0  0  0  0
    4.1592    1.4578    1.2418 C   0  0  0  0  0  0  0  0  0  0  0  0
   -2.8983   -1.7729    2.6437 H   0  0  0  0  0  0  0  0  0  0  0  0
   -1.2926   -2.2649    2.0390 H   0  0  0  0  0  0  0  0  0  0  0  0
   -1.4318   -1.0900    3.3459 H   0  0  0  0  0  0  0  0  0  0  0  0
   -0.9587   -0.0087    1.2774 H   0  0  0  0  0  0  0  0  0  0  0  0
   -3.7272   -0.7071    0.6091 H   0  0  0  0  0  0  0  0  0  0  0  0
   -3.2022   -1.9751   -1.2364 H   0  0  0  0  0  0  0  0  0  0  0  0
   -2.2691   -2.6861    0.0507 H   0  0  0  0  0  0  0  0  0  0  0  0
   -1.1836   -2.4060   -2.2357 H   0  0  0  0  0  0  0  0  0  0  0  0
   -2.3872    1.1788   -3.4995 H   0  0  0  0  0  0  0  0  0  0  0  0
   -2.2521    2.6479   -2.5532 H   0  0  0  0  0  0  0  0  0  0  0  0
   -0.8219    1.9546   -3.3434 H   0  0  0  0  0  0  0  0  0  0  0  0
   -3.5423    0.4380   -1.4352 H   0  0  0  0  0  0  0  0  0  0  0  0
   -4.6492    2.9191    0.8134 H   0  0  0  0  0  0  0  0  0  0  0  0
   -5.1598    1.4818   -0.0938 H   0  0  0  0  0  0  0  0  0  0  0  0
   -4.3322    1.3189    1.4926 H   0  0  0  0  0  0  0  0  0  0  0  0
   -1.8228    3.8559   -0.9381 H   0  0  0  0  0  0  0  0  0  0  0  0
   -0.8592    6.0040   -0.2797 H   0  0  0  0  0  0  0  0  0  0  0  0
    1.4425    6.1461    0.6044 H   0  0  0  0  0  0  0  0  0  0  0  0
    2.8028    4.1019    0.8614 H   0  0  0  0  0  0  0  0  0  0  0  0
    3.7132   -3.9227    0.8157 H   0  0  0  0  0  0  0  0  0  0  0  0
    2.8598   -6.1866    0.3636 H   0  0  0  0  0  0  0  0  0  0  0  0
    0.6457   -6.5136   -0.6824 H   0  0  0  0  0  0  0  0  0  0  0  0
   -0.7557   -4.5706   -1.2969 H   0  0  0  0  0  0  0  0  0  0  0  0
    5.8966    0.3639    1.9916 H   0  0  0  0  0  0  0  0  0  0  0  0
    3.9238    1.9965    2.1632 H   0  0  0  0  0  0  0  0  0  0  0  0
    4.6908    2.0981    0.5333 H   0  0  0  0  0  0  0  0  0  0  0  0
  1  2  1  0
  2  3  1  0
  3  4  1  0
  4  5  1  0
  5  6  1  0
  6  7  1  0
  7  8  1  6
  7  9  1  0
  9 10  1  0
 10 11  1  0
  7 12  1  0
 12 13  1  0
 13 14  2  0
 14 15  1  0
 15 16  2  0
 16 17  1  0
 17 18  2  0
 18 19  1  0
 19 20  2  0
 20 21  1  0
 21 22  2  0
 22 23  1  0
 23 24  2  0
 24 25  1  0
 25 26  2  0
 26 27  1  0
 27 28  2  0
 28 29  1  0
 29 30  1  0
 30 31  2  0
 21 32  1  0
 32 33  2  0
 32 34  1  0
 34 35  1  0
  9  3  1  0
 31 12  1  0
 29  5  1  0
 18 13  1  0
 31 19  1  0
 35 20  1  0
 30 22  1  0
 28 23  1  0
  1 36  1  0
  1 37  1  0
  1 38  1  0
  2 39  1  0
  3 40  1  1
  4 41  1  0
  4 42  1  0
  5 43  1  6
  8 44  1  0
  8 45  1  0
  8 46  1  0
  9 47  1  6
 11 48  1  0
 11 49  1  0
 11 50  1  0
 14 51  1  0
 15 52  1  0
 16 53  1  0
 17 54  1  0
 24 55  1  0
 25 56  1  0
 26 57  1  0
 27 58  1  0
 34 59  1  0
 35 60  1  0
 35 61  1  0
M  END
>  <mol_id>  (1) 
1812

>  <source_index>  (1) 
0

>  <layer>  (1) 
L1

>  <uniprot>  (1) 
P08922

>  <paff>  (1) 
8.8538999999999994

>  <smiles>  (1) 
C[C@@]12[C@@H]([C@@H](C[C@@H](O1)n3c4ccccc4c5c3c6n2c7ccccc7c6c8c5C(=O)NC8)NC)OC

$$$$
