L1:P08922:1812
 OpenBabel09212617413D

 61 68  0  0  0  0  0  0  0  0999 V2000
   42.3312  -20.6688   -0.8332 C   0  0  2  0  0  0  0  0  0  0  0  0
   43.7755  -21.0476   -1.1684 C   0  0  0  0  0  0  0  0  0  0  0  0
   43.9515  -21.7544   -2.5051 C   0  0  1  0  0  0  0  0  0  0  0  0
   43.0173  -22.7994   -2.7616 O   0  0  0  0  0  0  0  0  0  0  0  0
   41.6167  -22.5821   -2.4490 C   0  0  1  0  0  0  0  0  0  0  0  0
   41.1170  -24.0482   -2.3954 C   0  0  0  0  0  0  0  0  0  0  0  0
   41.4471  -21.9344   -1.0336 C   0  0  2  0  0  0  0  0  0  0  0  0
   40.9525  -21.8574   -3.5590 N   0  0  0  0  0  0  0  0  0  0  0  0
   39.5914  -21.8753   -3.8927 C   0  0  0  0  0  0  0  0  0  0  0  0
   38.4620  -22.4246   -3.2533 C   0  0  0  0  0  0  0  0  0  0  0  0
   37.2061  -22.3191   -3.8599 C   0  0  0  0  0  0  0  0  0  0  0  0
   37.0553  -21.6730   -5.0764 C   0  0  0  0  0  0  0  0  0  0  0  0
   38.1607  -21.0974   -5.7030 C   0  0  0  0  0  0  0  0  0  0  0  0
   39.4402  -21.1852   -5.1091 C   0  0  0  0  0  0  0  0  0  0  0  0
   40.7081  -20.6574   -5.4631 C   0  0  0  0  0  0  0  0  0  0  0  0
   41.2245  -19.8456   -6.4877 C   0  0  0  0  0  0  0  0  0  0  0  0
   42.5889  -19.4267   -6.5063 C   0  0  0  0  0  0  0  0  0  0  0  0
   43.5409  -19.7698   -5.5368 C   0  0  0  0  0  0  0  0  0  0  0  0
   44.9138  -19.5184   -5.2322 C   0  0  0  0  0  0  0  0  0  0  0  0
   45.9384  -18.7623   -5.8413 C   0  0  0  0  0  0  0  0  0  0  0  0
   47.2139  -18.7152   -5.2694 C   0  0  0  0  0  0  0  0  0  0  0  0
   47.4881  -19.4098   -4.0985 C   0  0  0  0  0  0  0  0  0  0  0  0
   46.4991  -20.1686   -3.4688 C   0  0  0  0  0  0  0  0  0  0  0  0
   45.2180  -20.2116   -4.0484 C   0  0  0  0  0  0  0  0  0  0  0  0
   44.0655  -20.8714   -3.6543 N   0  0  0  0  0  0  0  0  0  0  0  0
   43.0695  -20.5950   -4.5305 C   0  0  0  0  0  0  0  0  0  0  0  0
   41.5906  -21.0672   -4.4842 C   0  0  0  0  0  0  0  0  0  0  0  0
   42.7657  -18.5780   -7.6933 C   0  0  0  0  0  0  0  0  0  0  0  0
   43.7771  -18.0220   -8.0703 O   0  0  0  0  0  0  0  0  0  0  0  0
   41.5476  -18.5116   -8.3327 N   0  0  0  0  0  0  0  0  0  0  0  0
   40.5140  -19.2580   -7.6720 C   0  0  0  0  0  0  0  0  0  0  0  0
   41.4365  -17.9754   -9.1823 H   0  0  0  0  0  0  0  0  0  0  0  0
   40.3871  -19.2112   -1.2440 C   0  0  0  0  0  0  0  0  0  0  0  0
   41.7987  -19.4646   -1.4789 N   0  0  0  0  0  0  0  0  0  0  0  0
   42.3373  -18.6242   -1.2754 H   0  0  0  0  0  0  0  0  0  0  0  0
   40.0636  -21.7542   -0.7007 O   0  0  0  0  0  0  0  0  0  0  0  0
   39.6601  -22.3414    0.5267 C   0  0  0  0  0  0  0  0  0  0  0  0
   42.3146  -20.3579    0.1905 H   0  0  0  0  0  0  0  0  0  0  0  0
   44.1379  -21.6957   -0.3980 H   0  0  0  0  0  0  0  0  0  0  0  0
   44.3216  -20.1300   -1.2364 H   0  0  0  0  0  0  0  0  0  0  0  0
   44.9061  -22.2206   -2.3777 H   0  0  0  0  0  0  0  0  0  0  0  0
   41.6023  -24.5613   -1.5916 H   0  0  0  0  0  0  0  0  0  0  0  0
   41.3450  -24.5367   -3.3197 H   0  0  0  0  0  0  0  0  0  0  0  0
   40.0587  -24.0588   -2.2379 H   0  0  0  0  0  0  0  0  0  0  0  0
   41.8287  -22.6291   -0.3148 H   0  0  0  0  0  0  0  0  0  0  0  0
   38.5609  -22.9015   -2.3435 H   0  0  0  0  0  0  0  0  0  0  0  0
   36.3804  -22.7281   -3.3951 H   0  0  0  0  0  0  0  0  0  0  0  0
   36.1247  -21.6176   -5.5191 H   0  0  0  0  0  0  0  0  0  0  0  0
   38.0439  -20.6060   -6.6029 H   0  0  0  0  0  0  0  0  0  0  0  0
   45.7457  -18.2424   -6.7117 H   0  0  0  0  0  0  0  0  0  0  0  0
   47.9572  -18.1598   -5.7211 H   0  0  0  0  0  0  0  0  0  0  0  0
   48.4342  -19.3647   -3.6887 H   0  0  0  0  0  0  0  0  0  0  0  0
   46.7032  -20.6854   -2.5991 H   0  0  0  0  0  0  0  0  0  0  0  0
   40.1279  -20.0264   -8.3087 H   0  0  0  0  0  0  0  0  0  0  0  0
   39.6692  -18.6594   -7.4019 H   0  0  0  0  0  0  0  0  0  0  0  0
   39.8253  -20.0961   -1.4589 H   0  0  0  0  0  0  0  0  0  0  0  0
   40.0569  -18.4161   -1.8793 H   0  0  0  0  0  0  0  0  0  0  0  0
   40.2398  -18.9348   -0.2209 H   0  0  0  0  0  0  0  0  0  0  0  0
   38.6187  -22.1543    0.6863 H   0  0  0  0  0  0  0  0  0  0  0  0
   40.2260  -21.9157    1.3288 H   0  0  0  0  0  0  0  0  0  0  0  0
   39.8313  -23.3970    0.4904 H   0  0  0  0  0  0  0  0  0  0  0  0
  1  2  1  0  0  0  0
  1 38  1  1  0  0  0
  2  3  1  0  0  0  0
  2 39  1  0  0  0  0
  2 40  1  0  0  0  0
  3  4  1  0  0  0  0
  3 41  1  1  0  0  0
  4  5  1  0  0  0  0
  5  6  1  1  0  0  0
  5  7  1  0  0  0  0
  5  8  1  0  0  0  0
  6 42  1  0  0  0  0
  6 43  1  0  0  0  0
  6 44  1  0  0  0  0
  7 36  1  0  0  0  0
  7  1  1  0  0  0  0
  7 45  1  1  0  0  0
  8  9  1  0  0  0  0
  9 10  2  0  0  0  0
 10 11  1  0  0  0  0
 10 46  1  0  0  0  0
 11 12  2  0  0  0  0
 11 47  1  0  0  0  0
 12 13  1  0  0  0  0
 12 48  1  0  0  0  0
 13 14  2  0  0  0  0
 13 49  1  0  0  0  0
 14 15  1  0  0  0  0
 14  9  1  0  0  0  0
 15 16  2  0  0  0  0
 16 17  1  0  0  0  0
 17 18  2  0  0  0  0
 17 28  1  0  0  0  0
 18 19  1  0  0  0  0
 19 20  2  0  0  0  0
 20 21  1  0  0  0  0
 20 50  1  0  0  0  0
 21 22  2  0  0  0  0
 21 51  1  0  0  0  0
 22 23  1  0  0  0  0
 22 52  1  0  0  0  0
 23 24  2  0  0  0  0
 23 53  1  0  0  0  0
 24 25  1  0  0  0  0
 24 19  1  0  0  0  0
 25 26  1  0  0  0  0
 25  3  1  0  0  0  0
 26 27  2  0  0  0  0
 26 18  1  0  0  0  0
 27  8  1  0  0  0  0
 27 15  1  0  0  0  0
 28 29  2  0  0  0  0
 28 30  1  0  0  0  0
 30 31  1  0  0  0  0
 30 32  1  0  0  0  0
 31 16  1  0  0  0  0
 31 54  1  0  0  0  0
 31 55  1  0  0  0  0
 33 34  1  0  0  0  0
 33 56  1  0  0  0  0
 33 57  1  0  0  0  0
 33 58  1  0  0  0  0
 34  1  1  0  0  0  0
 34 35  1  0  0  0  0
 36 37  1  0  0  0  0
 37 59  1  0  0  0  0
 37 60  1  0  0  0  0
 37 61  1  0  0  0  0
M  END
>  <minimizedAffinity>
-10.84173

$$$$
