L1:P08922:1814


 33 36  0  0  0  0  0  0  0  0999 V2000
   42.0622  -19.4667   -6.1343 C   0  0  0  0  0  0  0  0  0  0  0  0
   41.8735  -18.9822   -7.4118 C   0  0  0  0  0  0  0  0  0  0  0  0
   42.9384  -18.3197   -7.9668 C   0  0  0  0  0  0  0  0  0  0  0  0
   44.1074  -18.1335   -7.3337 N   0  0  0  0  0  0  0  0  0  0  0  0
   44.2241  -18.6335   -6.0971 C   0  0  0  0  0  0  0  0  0  0  0  0
   43.2345  -19.3003   -5.4804 N   0  0  0  0  0  0  0  0  0  0  0  0
   38.9934  -21.6304   -4.0016 C   0  0  0  0  0  0  0  0  0  0  0  0
   39.0082  -21.6052   -5.3983 C   0  0  0  0  0  0  0  0  0  0  0  0
   40.0061  -20.9001   -6.0807 C   0  0  0  0  0  0  0  0  0  0  0  0
   41.0182  -20.2054   -5.3928 C   0  0  0  0  0  0  0  0  0  0  0  0
   40.9986  -20.2633   -3.9865 C   0  0  0  0  0  0  0  0  0  0  0  0
   40.0020  -20.9677   -3.2956 C   0  0  0  0  0  0  0  0  0  0  0  0
   37.7161  -22.1394   -1.9831 N   0  0  0  0  0  0  0  0  0  0  0  0
   37.9132  -22.3962   -3.3205 C   0  0  0  0  0  0  0  0  0  0  0  0
   37.2219  -23.1922   -3.9453 O   0  0  0  0  0  0  0  0  0  0  0  0
   38.2204  -21.3970   -1.5167 H   0  0  0  0  0  0  0  0  0  0  0  0
   36.6781  -22.8469   -1.2546 C   0  0  0  0  0  0  0  0  0  0  0  0
   34.9092  -21.1971   -0.2202 N   0  0  0  0  0  0  0  0  0  0  0  0
   35.7023  -21.9232   -0.6585 C   0  0  0  0  0  0  0  0  0  0  0  0
   45.3890  -18.4979   -5.3487 N   0  0  0  0  0  0  0  0  0  0  0  0
   45.1624  -18.0522   -4.4723 H   0  0  0  0  0  0  0  0  0  0  0  0
   46.7282  -18.8326   -5.5615 C   0  0  0  0  0  0  0  0  0  0  0  0
   47.4143  -18.6041   -6.7511 C   0  0  0  0  0  0  0  0  0  0  0  0
   48.7651  -18.9651   -6.8972 C   0  0  0  0  0  0  0  0  0  0  0  0
   49.4936  -19.5716   -5.8658 C   0  0  0  0  0  0  0  0  0  0  0  0
   48.7939  -19.7978   -4.6746 C   0  0  0  0  0  0  0  0  0  0  0  0
   47.4453  -19.4372   -4.5236 C   0  0  0  0  0  0  0  0  0  0  0  0
   50.8211  -19.9244   -6.0148 N   0  0  0  0  0  0  0  0  0  0  0  0
   51.7921  -19.0508   -6.6910 C   0  0  0  0  0  0  0  0  0  0  0  0
   53.2087  -19.3236   -6.1566 C   0  0  0  0  0  0  0  0  0  0  0  0
   53.6507  -20.6772   -6.3294 O   0  0  0  0  0  0  0  0  0  0  0  0
   52.5763  -21.6277   -6.3307 C   0  0  0  0  0  0  0  0  0  0  0  0
   51.3527  -21.1973   -5.5036 C   0  0  0  0  0  0  0  0  0  0  0  0
 18 19  3  0  0  0
 19 17  1  0  0  0
 17 13  1  0  0  0
 13 14  1  0  0  0
 14 15  2  0  0  0
 14  7  1  0  0  0
  7  8  2  0  0  0
  8  9  1  0  0  0
  9 10  2  0  0  0
 10  1  1  0  0  0
  1  2  2  0  0  0
  2  3  1  0  0  0
  3  4  2  0  0  0
  4  5  1  0  0  0
  5 20  1  0  0  0
 20 22  1  0  0  0
 22 23  2  0  0  0
 23 24  1  0  0  0
 24 25  2  0  0  0
 25 28  1  0  0  0
 28 29  1  0  0  0
 29 30  1  0  0  0
 30 31  1  0  0  0
 31 32  1  0  0  0
 32 33  1  0  0  0
 25 26  1  0  0  0
 26 27  2  0  0  0
  5  6  2  0  0  0
 10 11  1  0  0  0
 11 12  2  0  0  0
 12  7  1  0  0  0
  6  1  1  0  0  0
 27 22  1  0  0  0
 33 28  1  0  0  0
 13 16  1  0  0  0
 20 21  1  0  0  0
M  END
> <minimizedAffinity>
-7.82838

$$$$
