L1:P08922:38653
     RDKit          3D

 44 47  0  0  0  0  0  0  0  0999 V2000
   -1.7262    3.0381   -1.1458 C   0  0  0  0  0  0  0  0  0  0  0  0
   -0.7719    1.9104   -0.7491 C   0  0  1  0  0  0  0  0  0  0  0  0
    0.5917    2.4462   -0.6371 N   0  0  0  0  0  0  0  0  0  0  0  0
    1.6996    1.6542   -0.4482 C   0  0  0  0  0  0  0  0  0  0  0  0
    3.0745    2.2654   -0.3849 C   0  0  0  0  0  0  0  0  0  0  0  0
    4.1045    1.4245   -0.1885 C   0  0  0  0  0  0  0  0  0  0  0  0
    3.8828    0.0581   -0.0477 N   0  0  0  0  0  0  0  0  0  0  0  0
    4.7805   -0.9405    0.1497 N   0  0  0  0  0  0  0  0  0  0  0  0
    4.0322   -2.0511    0.2087 C   0  0  0  0  0  0  0  0  0  0  0  0
    2.6545   -1.7996    0.0776 C   0  0  0  0  0  0  0  0  0  0  0  0
    2.5896   -0.4344   -0.1077 C   0  0  0  0  0  0  0  0  0  0  0  0
    1.5098    0.3676   -0.3192 N   0  0  0  0  0  0  0  0  0  0  0  0
    1.5165   -2.7034    0.0670 C   0  0  0  0  0  0  0  0  0  0  0  0
    1.6328   -3.9173   -0.0420 O   0  0  0  0  0  0  0  0  0  0  0  0
    0.3107   -2.0446    0.1541 N   0  0  0  0  0  0  0  0  0  0  0  0
   -0.9802   -2.5767   -0.2327 C   0  0  0  0  0  0  0  0  0  0  0  0
   -1.7098   -1.5772   -1.1691 C   0  0  1  0  0  0  0  0  0  0  0  0
   -2.6979   -2.3501   -2.0444 C   0  0  0  0  0  0  0  0  0  0  0  0
   -2.0291   -3.2122   -2.8529 F   0  0  0  0  0  0  0  0  0  0  0  0
   -2.4865   -0.5077   -0.5716 O   0  0  0  0  0  0  0  0  0  0  0  0
   -2.0178    0.0828    0.5660 C   0  0  0  0  0  0  0  0  0  0  0  0
   -2.4954   -0.4358    1.7784 C   0  0  0  0  0  0  0  0  0  0  0  0
   -2.1515    0.1619    2.9883 C   0  0  0  0  0  0  0  0  0  0  0  0
   -1.3622    1.3005    2.9794 C   0  0  0  0  0  0  0  0  0  0  0  0
   -1.0391    1.8903    4.1375 F   0  0  0  0  0  0  0  0  0  0  0  0
   -0.9188    1.8539    1.7830 C   0  0  0  0  0  0  0  0  0  0  0  0
   -1.2391    1.2570    0.5456 C   0  0  0  0  0  0  0  0  0  0  0  0
   -1.4150    3.4928   -2.0929 H   0  0  0  0  0  0  0  0  0  0  0  0
   -1.7493    3.8336   -0.3918 H   0  0  0  0  0  0  0  0  0  0  0  0
   -2.7487    2.6648   -1.2699 H   0  0  0  0  0  0  0  0  0  0  0  0
   -0.7724    1.1755   -1.5610 H   0  0  0  0  0  0  0  0  0  0  0  0
    0.7027    3.4460   -0.7400 H   0  0  0  0  0  0  0  0  0  0  0  0
    3.1907    3.3329   -0.4992 H   0  0  0  0  0  0  0  0  0  0  0  0
    5.1356    1.7441   -0.1286 H   0  0  0  0  0  0  0  0  0  0  0  0
    4.5211   -3.0075    0.3494 H   0  0  0  0  0  0  0  0  0  0  0  0
    0.3663   -1.0409    0.3215 H   0  0  0  0  0  0  0  0  0  0  0  0
   -0.8066   -3.5295   -0.7442 H   0  0  0  0  0  0  0  0  0  0  0  0
   -1.5472   -2.7771    0.6794 H   0  0  0  0  0  0  0  0  0  0  0  0
   -0.9738   -1.1140   -1.8382 H   0  0  0  0  0  0  0  0  0  0  0  0
   -3.4100   -2.9203   -1.4386 H   0  0  0  0  0  0  0  0  0  0  0  0
   -3.2755   -1.6710   -2.6802 H   0  0  0  0  0  0  0  0  0  0  0  0
   -3.1479   -1.3053    1.7811 H   0  0  0  0  0  0  0  0  0  0  0  0
   -2.5057   -0.2427    3.9307 H   0  0  0  0  0  0  0  0  0  0  0  0
   -0.3185    2.7581    1.8279 H   0  0  0  0  0  0  0  0  0  0  0  0
  1  2  1  0
  2  3  1  0
  3  4  1  0
  4  5  1  0
  5  6  2  0
  6  7  1  0
  7  8  1  0
  8  9  2  0
  9 10  1  0
 10 11  2  0
 11 12  1  0
 10 13  1  0
 13 14  2  0
 13 15  1  0
 15 16  1  0
 16 17  1  0
 17 18  1  0
 18 19  1  0
 17 20  1  0
 20 21  1  0
 21 22  2  0
 22 23  1  0
 23 24  2  0
 24 25  1  0
 24 26  1  0
 26 27  2  0
 27  2  1  0
 12  4  2  0
 27 21  1  0
 11  7  1  0
  1 28  1  0
  1 29  1  0
  1 30  1  0
  2 31  1  6
  3 32  1  0
  5 33  1  0
  6 34  1  0
  9 35  1  0
 15 36  1  0
 16 37  1  0
 16 38  1  0
 17 39  1  6
 18 40  1  0
 18 41  1  0
 22 42  1  0
 23 43  1  0
 26 44  1  0
M  END
>  <mol_id>  (1) 
38653

>  <source_index>  (1) 
3

>  <layer>  (1) 
L1

>  <uniprot>  (1) 
P08922

>  <paff>  (1) 
8.6989999999999998

>  <smiles>  (1) 
C[C@H]1Nc2ccn3ncc(c3n2)C(=O)NC[C@@H](CF)Oc2ccc(F)cc21

$$$$
