L1:P08922:38653


 29 32  0  0  0  0  0  0  0  0999 V2000
   37.5466  -21.4907   -5.6678 C   0  0  0  0  0  0  0  0  0  0  0  0
   38.9718  -20.9482   -5.5483 C   0  0  0  0  0  0  0  0  0  0  0  0
   39.2646  -20.0948   -6.7080 N   0  0  0  0  0  0  0  0  0  0  0  0
   40.5137  -19.5848   -6.9724 C   0  0  0  0  0  0  0  0  0  0  0  0
   40.7544  -18.7513   -8.2034 C   0  0  0  0  0  0  0  0  0  0  0  0
   42.0008  -18.2822   -8.3851 C   0  0  0  0  0  0  0  0  0  0  0  0
   43.0022  -18.5634   -7.4609 N   0  0  0  0  0  0  0  0  0  0  0  0
   44.3070  -18.1899   -7.4699 N   0  0  0  0  0  0  0  0  0  0  0  0
   44.8142  -18.7329   -6.3542 C   0  0  0  0  0  0  0  0  0  0  0  0
   43.8610  -19.4379   -5.5973 C   0  0  0  0  0  0  0  0  0  0  0  0
   42.7074  -19.3298   -6.3454 C   0  0  0  0  0  0  0  0  0  0  0  0
   41.4674  -19.8437   -6.1171 N   0  0  0  0  0  0  0  0  0  0  0  0
   43.9888  -20.1786   -4.3535 C   0  0  0  0  0  0  0  0  0  0  0  0
   45.0714  -20.4813   -3.8684 O   0  0  0  0  0  0  0  0  0  0  0  0
   42.7718  -20.5275   -3.8125 N   0  0  0  0  0  0  0  0  0  0  0  0
   42.5406  -21.5810   -2.8450 C   0  0  0  0  0  0  0  0  0  0  0  0
   41.3939  -22.5074   -3.3297 C   0  0  0  0  0  0  0  0  0  0  0  0
   40.0250  -22.1286   -3.0351 O   0  0  0  0  0  0  0  0  0  0  0  0
   39.6889  -20.8067   -3.0810 C   0  0  0  0  0  0  0  0  0  0  0  0
   39.7487  -20.1070   -1.8669 C   0  0  0  0  0  0  0  0  0  0  0  0
   39.3317  -18.7803   -1.7933 C   0  0  0  0  0  0  0  0  0  0  0  0
   38.8192  -18.1691   -2.9261 C   0  0  0  0  0  0  0  0  0  0  0  0
   38.4020  -16.8983   -2.8605 F   0  0  0  0  0  0  0  0  0  0  0  0
   38.7102  -18.8636   -4.1261 C   0  0  0  0  0  0  0  0  0  0  0  0
   39.1420  -20.2025   -4.2305 C   0  0  0  0  0  0  0  0  0  0  0  0
   38.5037  -19.9130   -7.3488 H   0  0  0  0  0  0  0  0  0  0  0  0
   41.9530  -20.1397   -4.2791 H   0  0  0  0  0  0  0  0  0  0  0  0
   41.5729  -23.8888   -2.6976 C   0  0  0  0  0  0  0  0  0  0  0  0
   40.6222  -24.0947   -1.7500 F   0  0  0  0  0  0  0  0  0  0  0  0
  1  2  1  0  0  0
  2  3  1  0  0  0
  3  4  1  0  0  0
  4  5  1  0  0  0
  5  6  2  0  0  0
  6  7  1  0  0  0
  7  8  1  0  0  0
  8  9  2  0  0  0
  9 10  1  0  0  0
 10 11  2  0  0  0
 11 12  1  0  0  0
 10 13  1  0  0  0
 13 14  2  0  0  0
 13 15  1  0  0  0
 15 16  1  0  0  0
 16 17  1  0  0  0
 17 28  1  0  0  0
 28 29  1  0  0  0
 17 18  1  0  0  0
 18 19  1  0  0  0
 19 20  2  0  0  0
 20 21  1  0  0  0
 21 22  2  0  0  0
 22 23  1  0  0  0
 22 24  1  0  0  0
 24 25  2  0  0  0
 25  2  1  0  0  0
 12  4  2  0  0  0
 25 19  1  0  0  0
 11  7  1  0  0  0
  3 26  1  0  0  0
 15 27  1  0  0  0
M  END
> <minimizedAffinity>
-9.52190

$$$$
