L1:P08922:44625
     RDKit          3D

 52 57  0  0  0  0  0  0  0  0999 V2000
    0.5817   -3.7452   -0.4328 C   0  0  0  0  0  0  0  0  0  0  0  0
    1.9303   -3.7535   -0.1556 C   0  0  0  0  0  0  0  0  0  0  0  0
    2.2879   -2.4344   -0.0974 N   0  0  0  0  0  0  0  0  0  0  0  0
    3.5082   -1.8294    0.1044 C   0  0  0  0  0  0  0  0  0  0  0  0
    3.5632   -0.4841    0.0788 C   0  0  0  0  0  0  0  0  0  0  0  0
    4.8579    0.2006    0.3030 C   0  0  0  0  0  0  0  0  0  0  0  0
    4.9185    1.2714    1.2092 C   0  0  0  0  0  0  0  0  0  0  0  0
    6.1157    1.9590    1.4579 C   0  0  0  0  0  0  0  0  0  0  0  0
    7.2736    1.5641    0.7700 C   0  0  0  0  0  0  0  0  0  0  0  0
    8.6245    1.9741    0.7269 C   0  0  0  0  0  0  0  0  0  0  0  0
    9.3555    1.2545   -0.1287 N   0  0  0  0  0  0  0  0  0  0  0  0
    8.4670    0.3851   -0.6421 N   0  0  0  0  0  0  0  0  0  0  0  0
    7.2000    0.5130   -0.1356 C   0  0  0  0  0  0  0  0  0  0  0  0
    6.0157   -0.1878   -0.3973 C   0  0  0  0  0  0  0  0  0  0  0  0
    2.4451    0.3139   -0.1166 N   0  0  0  0  0  0  0  0  0  0  0  0
    1.2514   -0.2353   -0.2859 C   0  0  0  0  0  0  0  0  0  0  0  0
    0.2440    0.6816   -0.4746 N   0  0  0  0  0  0  0  0  0  0  0  0
   -1.1409    0.6006   -0.2937 C   0  0  0  0  0  0  0  0  0  0  0  0
   -1.7722   -0.3452    0.5089 C   0  0  0  0  0  0  0  0  0  0  0  0
   -3.1715   -0.3826    0.6307 C   0  0  0  0  0  0  0  0  0  0  0  0
   -3.9999    0.5133   -0.0554 C   0  0  0  0  0  0  0  0  0  0  0  0
   -5.3859    0.4952    0.0550 N   0  0  0  0  0  0  0  0  0  0  0  0
   -6.1791    0.4883   -1.1904 C   0  0  0  0  0  0  0  0  0  0  0  0
   -7.6253    0.9253   -0.9092 C   0  0  0  0  0  0  0  0  0  0  0  0
   -8.2309    0.1359    0.1260 O   0  0  0  0  0  0  0  0  0  0  0  0
   -7.4840    0.2776    1.3440 C   0  0  0  0  0  0  0  0  0  0  0  0
   -6.0336   -0.2015    1.1800 C   0  0  0  0  0  0  0  0  0  0  0  0
   -3.3562    1.4639   -0.8569 C   0  0  0  0  0  0  0  0  0  0  0  0
   -1.9594    1.5054   -0.9784 C   0  0  0  0  0  0  0  0  0  0  0  0
    1.1527   -1.6915   -0.3010 C   0  0  0  0  0  0  0  0  0  0  0  0
    0.1077   -2.4612   -0.5321 N   0  0  0  0  0  0  0  0  0  0  0  0
   -0.0735   -4.5963   -0.5697 H   0  0  0  0  0  0  0  0  0  0  0  0
    2.6389   -4.5563   -0.0147 H   0  0  0  0  0  0  0  0  0  0  0  0
    4.3604   -2.4735    0.2754 H   0  0  0  0  0  0  0  0  0  0  0  0
    4.0177    1.5821    1.7371 H   0  0  0  0  0  0  0  0  0  0  0  0
    6.1380    2.7821    2.1657 H   0  0  0  0  0  0  0  0  0  0  0  0
    9.1017    2.7689    1.2851 H   0  0  0  0  0  0  0  0  0  0  0  0
    8.7911   -0.2761   -1.3382 H   0  0  0  0  0  0  0  0  0  0  0  0
    5.9940   -0.9897   -1.1282 H   0  0  0  0  0  0  0  0  0  0  0  0
    0.5924    1.6140   -0.6531 H   0  0  0  0  0  0  0  0  0  0  0  0
   -1.1954   -1.0682    1.0776 H   0  0  0  0  0  0  0  0  0  0  0  0
   -3.5932   -1.1572    1.2643 H   0  0  0  0  0  0  0  0  0  0  0  0
   -6.1796   -0.5324   -1.5929 H   0  0  0  0  0  0  0  0  0  0  0  0
   -5.7674    1.1506   -1.9583 H   0  0  0  0  0  0  0  0  0  0  0  0
   -7.6654    1.9825   -0.6203 H   0  0  0  0  0  0  0  0  0  0  0  0
   -8.2304    0.8055   -1.8136 H   0  0  0  0  0  0  0  0  0  0  0  0
   -7.9862   -0.3184    2.1126 H   0  0  0  0  0  0  0  0  0  0  0  0
   -7.5173    1.3267    1.6623 H   0  0  0  0  0  0  0  0  0  0  0  0
   -6.0286   -1.2807    0.9833 H   0  0  0  0  0  0  0  0  0  0  0  0
   -5.5037   -0.0110    2.1206 H   0  0  0  0  0  0  0  0  0  0  0  0
   -3.9357    2.2149   -1.3865 H   0  0  0  0  0  0  0  0  0  0  0  0
   -1.5195    2.2613   -1.6243 H   0  0  0  0  0  0  0  0  0  0  0  0
  1  2  2  0
  2  3  1  0
  3  4  1  0
  4  5  2  0
  5  6  1  0
  6  7  2  0
  7  8  1  0
  8  9  2  0
  9 10  1  0
 10 11  2  0
 11 12  1  0
 12 13  1  0
 13 14  2  0
  5 15  1  0
 15 16  2  0
 16 17  1  0
 17 18  1  0
 18 19  2  0
 19 20  1  0
 20 21  2  0
 21 22  1  0
 22 23  1  0
 23 24  1  0
 24 25  1  0
 25 26  1  0
 26 27  1  0
 21 28  1  0
 28 29  2  0
 16 30  1  0
 30 31  2  0
 31  1  1  0
 30  3  1  0
 14  6  1  0
 29 18  1  0
 13  9  1  0
 27 22  1  0
  1 32  1  0
  2 33  1  0
  4 34  1  0
  7 35  1  0
  8 36  1  0
 10 37  1  0
 12 38  1  0
 14 39  1  0
 17 40  1  0
 19 41  1  0
 20 42  1  0
 23 43  1  0
 23 44  1  0
 24 45  1  0
 24 46  1  0
 26 47  1  0
 26 48  1  0
 27 49  1  0
 27 50  1  0
 28 51  1  0
 29 52  1  0
M  END
>  <mol_id>  (1) 
44625

>  <source_index>  (1) 
4

>  <layer>  (1) 
L1

>  <uniprot>  (1) 
P08922

>  <paff>  (1) 
6.0670000000000002

>  <smiles>  (1) 
c1cn2cc(-c3ccc4cn[nH]c4c3)nc(Nc3ccc(N4CCOCC4)cc3)c2n1

$$$$
