L1:P08922:44625


 33 38  0  0  0  0  0  0  0  0999 V2000
   40.9836  -18.3676   -8.5432 C   0  0  0  0  0  0  0  0  0  0  0  0
   42.2931  -17.9689   -8.3954 C   0  0  0  0  0  0  0  0  0  0  0  0
   42.7647  -18.6895   -7.3325 N   0  0  0  0  0  0  0  0  0  0  0  0
   43.9873  -18.6846   -6.6992 C   0  0  0  0  0  0  0  0  0  0  0  0
   44.1572  -19.4960   -5.6379 C   0  0  0  0  0  0  0  0  0  0  0  0
   43.1667  -20.3495   -5.1735 N   0  0  0  0  0  0  0  0  0  0  0  0
   41.9884  -20.3994   -5.7770 C   0  0  0  0  0  0  0  0  0  0  0  0
   41.7498  -19.5100   -6.9096 C   0  0  0  0  0  0  0  0  0  0  0  0
   40.6500  -19.3173   -7.6104 N   0  0  0  0  0  0  0  0  0  0  0  0
   45.4634  -19.5244   -4.9391 C   0  0  0  0  0  0  0  0  0  0  0  0
   45.5844  -20.2489   -3.7425 C   0  0  0  0  0  0  0  0  0  0  0  0
   46.7950  -20.3076   -3.0362 C   0  0  0  0  0  0  0  0  0  0  0  0
   47.9038  -19.6122   -3.5429 C   0  0  0  0  0  0  0  0  0  0  0  0
   49.2482  -19.4156   -3.1571 C   0  0  0  0  0  0  0  0  0  0  0  0
   49.9201  -18.6337   -4.0064 N   0  0  0  0  0  0  0  0  0  0  0  0
   48.9997  -18.3212   -4.9360 N   0  0  0  0  0  0  0  0  0  0  0  0
   47.7699  -18.8862   -4.7199 C   0  0  0  0  0  0  0  0  0  0  0  0
   46.5713  -18.8158   -5.4414 C   0  0  0  0  0  0  0  0  0  0  0  0
   49.2764  -17.7149   -5.6992 H   0  0  0  0  0  0  0  0  0  0  0  0
   41.1096  -21.2854   -5.1991 N   0  0  0  0  0  0  0  0  0  0  0  0
   41.0464  -22.1591   -5.7045 H   0  0  0  0  0  0  0  0  0  0  0  0
   40.1765  -21.1391   -4.1671 C   0  0  0  0  0  0  0  0  0  0  0  0
   39.5528  -19.9388   -3.8391 C   0  0  0  0  0  0  0  0  0  0  0  0
   38.6382  -19.8578   -2.7756 C   0  0  0  0  0  0  0  0  0  0  0  0
   38.3191  -20.9685   -1.9855 C   0  0  0  0  0  0  0  0  0  0  0  0
   38.9478  -22.1726   -2.3253 C   0  0  0  0  0  0  0  0  0  0  0  0
   39.8593  -22.2571   -3.3881 C   0  0  0  0  0  0  0  0  0  0  0  0
   37.4139  -20.9098   -0.9317 N   0  0  0  0  0  0  0  0  0  0  0  0
   36.1319  -21.6272   -1.0801 C   0  0  0  0  0  0  0  0  0  0  0  0
   35.0996  -21.0977   -0.0723 C   0  0  0  0  0  0  0  0  0  0  0  0
   35.5954  -21.1422    1.2745 O   0  0  0  0  0  0  0  0  0  0  0  0
   36.7742  -20.3301    1.3847 C   0  0  0  0  0  0  0  0  0  0  0  0
   37.8948  -20.8265    0.4584 C   0  0  0  0  0  0  0  0  0  0  0  0
  1  2  2  0  0  0
  2  3  1  0  0  0
  3  4  1  0  0  0
  4  5  2  0  0  0
  5 10  1  0  0  0
 10 11  2  0  0  0
 11 12  1  0  0  0
 12 13  2  0  0  0
 13 14  1  0  0  0
 14 15  2  0  0  0
 15 16  1  0  0  0
 16 17  1  0  0  0
 17 18  2  0  0  0
  5  6  1  0  0  0
  6  7  2  0  0  0
  7 20  1  0  0  0
 20 22  1  0  0  0
 22 23  2  0  0  0
 23 24  1  0  0  0
 24 25  2  0  0  0
 25 28  1  0  0  0
 28 29  1  0  0  0
 29 30  1  0  0  0
 30 31  1  0  0  0
 31 32  1  0  0  0
 32 33  1  0  0  0
 25 26  1  0  0  0
 26 27  2  0  0  0
  7  8  1  0  0  0
  8  9  2  0  0  0
  9  1  1  0  0  0
  8  3  1  0  0  0
 18 10  1  0  0  0
 27 22  1  0  0  0
 17 13  1  0  0  0
 33 28  1  0  0  0
 16 19  1  0  0  0
 20 21  1  0  0  0
M  END
> <minimizedAffinity>
-8.48171

$$$$
