L1:P08922:44625
 OpenBabel09212617413D

 52 57  0  0  0  0  0  0  0  0999 V2000
   40.9836  -18.3676   -8.5432 C   0  0  0  0  0  0  0  0  0  0  0  0
   42.2931  -17.9689   -8.3954 C   0  0  0  0  0  0  0  0  0  0  0  0
   42.7647  -18.6895   -7.3325 N   0  0  0  0  0  0  0  0  0  0  0  0
   43.9873  -18.6846   -6.6992 C   0  0  0  0  0  0  0  0  0  0  0  0
   44.1572  -19.4960   -5.6379 C   0  0  0  0  0  0  0  0  0  0  0  0
   43.1667  -20.3495   -5.1735 N   0  0  0  0  0  0  0  0  0  0  0  0
   41.9884  -20.3994   -5.7770 C   0  0  0  0  0  0  0  0  0  0  0  0
   41.7498  -19.5100   -6.9096 C   0  0  0  0  0  0  0  0  0  0  0  0
   40.6500  -19.3173   -7.6104 N   0  0  0  0  0  0  0  0  0  0  0  0
   45.4634  -19.5244   -4.9391 C   0  0  0  0  0  0  0  0  0  0  0  0
   45.5844  -20.2489   -3.7425 C   0  0  0  0  0  0  0  0  0  0  0  0
   46.7950  -20.3076   -3.0362 C   0  0  0  0  0  0  0  0  0  0  0  0
   47.9038  -19.6122   -3.5429 C   0  0  0  0  0  0  0  0  0  0  0  0
   49.2482  -19.4156   -3.1571 C   0  0  0  0  0  0  0  0  0  0  0  0
   49.9201  -18.6337   -4.0064 N   0  0  0  0  0  0  0  0  0  0  0  0
   48.9997  -18.3212   -4.9360 N   0  0  0  0  0  0  0  0  0  0  0  0
   47.7699  -18.8862   -4.7199 C   0  0  0  0  0  0  0  0  0  0  0  0
   46.5713  -18.8158   -5.4414 C   0  0  0  0  0  0  0  0  0  0  0  0
   49.2764  -17.7149   -5.6992 H   0  0  0  0  0  0  0  0  0  0  0  0
   41.1096  -21.2854   -5.1991 N   0  0  0  0  0  0  0  0  0  0  0  0
   41.0464  -22.1591   -5.7045 H   0  0  0  0  0  0  0  0  0  0  0  0
   40.1765  -21.1391   -4.1671 C   0  0  0  0  0  0  0  0  0  0  0  0
   39.5528  -19.9388   -3.8391 C   0  0  0  0  0  0  0  0  0  0  0  0
   38.6382  -19.8578   -2.7756 C   0  0  0  0  0  0  0  0  0  0  0  0
   38.3191  -20.9685   -1.9855 C   0  0  0  0  0  0  0  0  0  0  0  0
   38.9478  -22.1726   -2.3253 C   0  0  0  0  0  0  0  0  0  0  0  0
   39.8593  -22.2571   -3.3881 C   0  0  0  0  0  0  0  0  0  0  0  0
   37.4139  -20.9098   -0.9317 N   0  0  0  0  0  0  0  0  0  0  0  0
   36.1319  -21.6272   -1.0801 C   0  0  0  0  0  0  0  0  0  0  0  0
   35.0996  -21.0977   -0.0723 C   0  0  0  0  0  0  0  0  0  0  0  0
   35.5954  -21.1422    1.2745 O   0  0  0  0  0  0  0  0  0  0  0  0
   36.7742  -20.3301    1.3847 C   0  0  0  0  0  0  0  0  0  0  0  0
   37.8948  -20.8265    0.4584 C   0  0  0  0  0  0  0  0  0  0  0  0
   40.3384  -18.0009   -9.2604 H   0  0  0  0  0  0  0  0  0  0  0  0
   42.8071  -17.2770   -8.9630 H   0  0  0  0  0  0  0  0  0  0  0  0
   44.7526  -18.0757   -7.0288 H   0  0  0  0  0  0  0  0  0  0  0  0
   44.7619  -20.7510   -3.3732 H   0  0  0  0  0  0  0  0  0  0  0  0
   46.8688  -20.8510   -2.1619 H   0  0  0  0  0  0  0  0  0  0  0  0
   49.6664  -19.8313   -2.3102 H   0  0  0  0  0  0  0  0  0  0  0  0
   46.5028  -18.2638   -6.3107 H   0  0  0  0  0  0  0  0  0  0  0  0
   39.7664  -19.0914   -4.3880 H   0  0  0  0  0  0  0  0  0  0  0  0
   38.1880  -18.9521   -2.5707 H   0  0  0  0  0  0  0  0  0  0  0  0
   38.7346  -23.0215   -1.7786 H   0  0  0  0  0  0  0  0  0  0  0  0
   40.3054  -23.1632   -3.5999 H   0  0  0  0  0  0  0  0  0  0  0  0
   36.2903  -22.6711   -0.9065 H   0  0  0  0  0  0  0  0  0  0  0  0
   35.7602  -21.4706   -2.0712 H   0  0  0  0  0  0  0  0  0  0  0  0
   34.2154  -21.6969   -0.1355 H   0  0  0  0  0  0  0  0  0  0  0  0
   34.8915  -20.0768   -0.3158 H   0  0  0  0  0  0  0  0  0  0  0  0
   37.1220  -20.3592    2.3962 H   0  0  0  0  0  0  0  0  0  0  0  0
   36.5198  -19.3319    1.0953 H   0  0  0  0  0  0  0  0  0  0  0  0
   38.2140  -21.7960    0.7796 H   0  0  0  0  0  0  0  0  0  0  0  0
   38.7117  -20.1369    0.5020 H   0  0  0  0  0  0  0  0  0  0  0  0
  1  2  2  0  0  0  0
  1 34  1  0  0  0  0
  2  3  1  0  0  0  0
  2 35  1  0  0  0  0
  3  4  1  0  0  0  0
  4  5  2  0  0  0  0
  4 36  1  0  0  0  0
  5 10  1  0  0  0  0
  5  6  1  0  0  0  0
  6  7  2  0  0  0  0
  7 20  1  0  0  0  0
  7  8  1  0  0  0  0
  8  9  2  0  0  0  0
  8  3  1  0  0  0  0
  9  1  1  0  0  0  0
 10 11  2  0  0  0  0
 11 12  1  0  0  0  0
 11 37  1  0  0  0  0
 12 13  2  0  0  0  0
 12 38  1  0  0  0  0
 13 14  1  0  0  0  0
 14 15  2  0  0  0  0
 14 39  1  0  0  0  0
 15 16  1  0  0  0  0
 16 17  1  0  0  0  0
 16 19  1  0  0  0  0
 17 18  2  0  0  0  0
 17 13  1  0  0  0  0
 18 10  1  0  0  0  0
 18 40  1  0  0  0  0
 20 22  1  0  0  0  0
 20 21  1  0  0  0  0
 22 23  2  0  0  0  0
 23 24  1  0  0  0  0
 23 41  1  0  0  0  0
 24 25  2  0  0  0  0
 24 42  1  0  0  0  0
 25 28  1  0  0  0  0
 25 26  1  0  0  0  0
 26 27  2  0  0  0  0
 26 43  1  0  0  0  0
 27 22  1  0  0  0  0
 27 44  1  0  0  0  0
 28 29  1  0  0  0  0
 29 30  1  0  0  0  0
 29 45  1  0  0  0  0
 29 46  1  0  0  0  0
 30 31  1  0  0  0  0
 30 47  1  0  0  0  0
 30 48  1  0  0  0  0
 31 32  1  0  0  0  0
 32 33  1  0  0  0  0
 32 49  1  0  0  0  0
 32 50  1  0  0  0  0
 33 28  1  0  0  0  0
 33 51  1  0  0  0  0
 33 52  1  0  0  0  0
M  END
>  <minimizedAffinity>
-8.48171

$$$$
