L1:P08922:52639
     RDKit          3D

 69 73  0  0  0  0  0  0  0  0999 V2000
    7.9555    0.9559    3.5276 C   0  0  0  0  0  0  0  0  0  0  0  0
    8.6092    0.3819    2.2757 C   0  0  0  0  0  0  0  0  0  0  0  0
    7.6458    0.1110    1.2026 N   0  0  0  0  0  0  0  0  0  0  0  0
    8.2618   -0.7208    0.1465 C   0  0  0  0  0  0  0  0  0  0  0  0
    7.5247   -0.6845   -1.2188 C   0  0  0  0  0  0  0  0  0  0  0  0
    6.1062   -0.2859   -1.1655 N   0  0  0  0  0  0  0  0  0  0  0  0
    5.3040   -1.3141   -0.4757 C   0  0  0  0  0  0  0  0  0  0  0  0
    3.8204   -1.1568   -0.7043 C   0  0  0  0  0  0  0  0  0  0  0  0
    3.2756   -1.0307   -1.9801 C   0  0  0  0  0  0  0  0  0  0  0  0
    1.8935   -0.9142   -2.1389 C   0  0  0  0  0  0  0  0  0  0  0  0
    1.0676   -0.9329   -1.0223 C   0  0  0  0  0  0  0  0  0  0  0  0
   -0.3097   -0.8253   -1.0669 N   0  0  0  0  0  0  0  0  0  0  0  0
   -1.2472   -0.6826   -2.0709 C   0  0  0  0  0  0  0  0  0  0  0  0
   -0.8956   -0.6250   -3.3641 N   0  0  0  0  0  0  0  0  0  0  0  0
   -1.8857   -0.4831   -4.2677 C   0  0  0  0  0  0  0  0  0  0  0  0
   -3.2120   -0.4001   -3.9322 C   0  0  0  0  0  0  0  0  0  0  0  0
   -4.1406   -0.2382   -4.8831 F   0  0  0  0  0  0  0  0  0  0  0  0
   -3.5094   -0.4693   -2.5864 C   0  0  0  0  0  0  0  0  0  0  0  0
   -4.8838   -0.3941   -2.0392 C   0  0  0  0  0  0  0  0  0  0  0  0
   -5.9927   -0.8925   -2.7435 C   0  0  0  0  0  0  0  0  0  0  0  0
   -7.2875   -0.8242   -2.2176 C   0  0  0  0  0  0  0  0  0  0  0  0
   -8.3054   -1.3206   -2.9362 F   0  0  0  0  0  0  0  0  0  0  0  0
   -7.5043   -0.2507   -0.9562 C   0  0  0  0  0  0  0  0  0  0  0  0
   -8.6598   -0.0800   -0.2398 N   0  0  0  0  0  0  0  0  0  0  0  0
   -8.3135    0.4970    0.8934 C   0  0  0  0  0  0  0  0  0  0  0  0
   -9.2838    0.8458    1.9622 C   0  0  0  0  0  0  0  0  0  0  0  0
   -6.9511    0.7298    0.9307 N   0  0  0  0  0  0  0  0  0  0  0  0
   -6.1630    1.3391    2.0008 C   0  0  0  0  0  0  0  0  0  0  0  0
   -6.6984    2.6868    2.4866 C   0  0  0  0  0  0  0  0  0  0  0  0
   -5.9242    0.3671    3.1557 C   0  0  0  0  0  0  0  0  0  0  0  0
   -6.4135    0.2432   -0.2499 C   0  0  0  0  0  0  0  0  0  0  0  0
   -5.1050    0.1783   -0.7633 C   0  0  0  0  0  0  0  0  0  0  0  0
   -2.5254   -0.6035   -1.6571 N   0  0  0  0  0  0  0  0  0  0  0  0
    1.5817   -1.0621    0.2227 N   0  0  0  0  0  0  0  0  0  0  0  0
    2.9257   -1.1721    0.3549 C   0  0  0  0  0  0  0  0  0  0  0  0
    6.0096    1.0290   -0.4884 C   0  0  0  0  0  0  0  0  0  0  0  0
    7.0731    1.3281    0.6074 C   0  0  0  0  0  0  0  0  0  0  0  0
    8.6889    1.0088    4.3392 H   0  0  0  0  0  0  0  0  0  0  0  0
    7.1274    0.3243    3.8660 H   0  0  0  0  0  0  0  0  0  0  0  0
    7.5759    1.9686    3.3637 H   0  0  0  0  0  0  0  0  0  0  0  0
    9.4063    1.0532    1.9328 H   0  0  0  0  0  0  0  0  0  0  0  0
    9.0891   -0.5603    2.5702 H   0  0  0  0  0  0  0  0  0  0  0  0
    8.2777   -1.7565    0.5073 H   0  0  0  0  0  0  0  0  0  0  0  0
    9.3032   -0.4215   -0.0309 H   0  0  0  0  0  0  0  0  0  0  0  0
    8.0418    0.0347   -1.8688 H   0  0  0  0  0  0  0  0  0  0  0  0
    7.6315   -1.6535   -1.7223 H   0  0  0  0  0  0  0  0  0  0  0  0
    5.5635   -2.3076   -0.8665 H   0  0  0  0  0  0  0  0  0  0  0  0
    5.5161   -1.3439    0.5996 H   0  0  0  0  0  0  0  0  0  0  0  0
    3.9229   -1.0148   -2.8537 H   0  0  0  0  0  0  0  0  0  0  0  0
    1.4917   -0.8112   -3.1394 H   0  0  0  0  0  0  0  0  0  0  0  0
   -0.7257   -0.8647   -0.1506 H   0  0  0  0  0  0  0  0  0  0  0  0
   -1.5725   -0.4325   -5.3052 H   0  0  0  0  0  0  0  0  0  0  0  0
   -5.8803   -1.3624   -3.7173 H   0  0  0  0  0  0  0  0  0  0  0  0
  -10.2350    0.3314    1.7877 H   0  0  0  0  0  0  0  0  0  0  0  0
   -9.4878    1.9203    1.9604 H   0  0  0  0  0  0  0  0  0  0  0  0
   -8.9309    0.5451    2.9507 H   0  0  0  0  0  0  0  0  0  0  0  0
   -5.1821    1.5596    1.5641 H   0  0  0  0  0  0  0  0  0  0  0  0
   -5.9351    3.2043    3.0785 H   0  0  0  0  0  0  0  0  0  0  0  0
   -7.5764    2.5778    3.1287 H   0  0  0  0  0  0  0  0  0  0  0  0
   -6.9658    3.3340    1.6445 H   0  0  0  0  0  0  0  0  0  0  0  0
   -5.2341    0.8007    3.8874 H   0  0  0  0  0  0  0  0  0  0  0  0
   -5.4848   -0.5692    2.7942 H   0  0  0  0  0  0  0  0  0  0  0  0
   -6.8505    0.1159    3.6801 H   0  0  0  0  0  0  0  0  0  0  0  0
   -4.2645    0.5630   -0.1909 H   0  0  0  0  0  0  0  0  0  0  0  0
    3.2691   -1.2750    1.3810 H   0  0  0  0  0  0  0  0  0  0  0  0
    6.1075    1.8020   -1.2616 H   0  0  0  0  0  0  0  0  0  0  0  0
    5.0087    1.1763   -0.0648 H   0  0  0  0  0  0  0  0  0  0  0  0
    6.5869    1.9442    1.3713 H   0  0  0  0  0  0  0  0  0  0  0  0
    7.8749    1.9356    0.1661 H   0  0  0  0  0  0  0  0  0  0  0  0
  1  2  1  0
  2  3  1  0
  3  4  1  0
  4  5  1  0
  5  6  1  0
  6  7  1  0
  7  8  1  0
  8  9  2  0
  9 10  1  0
 10 11  2  0
 11 12  1  0
 12 13  1  0
 13 14  2  0
 14 15  1  0
 15 16  2  0
 16 17  1  0
 16 18  1  0
 18 19  1  0
 19 20  2  0
 20 21  1  0
 21 22  1  0
 21 23  2  0
 23 24  1  0
 24 25  2  0
 25 26  1  0
 25 27  1  0
 27 28  1  0
 28 29  1  0
 28 30  1  0
 27 31  1  0
 31 32  2  0
 18 33  2  0
 11 34  1  0
 34 35  2  0
  6 36  1  0
 36 37  1  0
 37  3  1  0
 35  8  1  0
 33 13  1  0
 32 19  1  0
 31 23  1  0
  1 38  1  0
  1 39  1  0
  1 40  1  0
  2 41  1  0
  2 42  1  0
  4 43  1  0
  4 44  1  0
  5 45  1  0
  5 46  1  0
  7 47  1  0
  7 48  1  0
  9 49  1  0
 10 50  1  0
 12 51  1  0
 15 52  1  0
 20 53  1  0
 26 54  1  0
 26 55  1  0
 26 56  1  0
 28 57  1  0
 29 58  1  0
 29 59  1  0
 29 60  1  0
 30 61  1  0
 30 62  1  0
 30 63  1  0
 32 64  1  0
 35 65  1  0
 36 66  1  0
 36 67  1  0
 37 68  1  0
 37 69  1  0
M  END
>  <mol_id>  (1) 
52639

>  <source_index>  (1) 
5

>  <layer>  (1) 
L1

>  <uniprot>  (1) 
P08922

>  <paff>  (1) 
6

>  <smiles>  (1) 
CCN1CCN(Cc2ccc(Nc3ncc(F)c(n3)-c3cc(F)c4nc(C)n(C(C)C)c4c3)nc2)CC1

$$$$
