L1:P08922:52639


 38 42  0  0  0  0  0  0  0  0999 V2000
   36.4879  -20.8209   -5.1879 C   0  0  0  0  0  0  0  0  0  0  0  0
   36.3878  -21.7865   -4.2623 N   0  0  0  0  0  0  0  0  0  0  0  0
   37.5364  -22.3012   -3.7798 C   0  0  0  0  0  0  0  0  0  0  0  0
   38.7798  -21.8932   -4.1870 C   0  0  0  0  0  0  0  0  0  0  0  0
   39.8790  -22.4352   -3.6477 F   0  0  0  0  0  0  0  0  0  0  0  0
   38.8161  -20.8995   -5.1439 C   0  0  0  0  0  0  0  0  0  0  0  0
   37.6696  -20.3599   -5.6379 N   0  0  0  0  0  0  0  0  0  0  0  0
   40.0669  -20.3331   -5.6995 C   0  0  0  0  0  0  0  0  0  0  0  0
   40.1106  -19.7288   -6.9672 C   0  0  0  0  0  0  0  0  0  0  0  0
   41.2942  -19.1897   -7.4831 C   0  0  0  0  0  0  0  0  0  0  0  0
   41.2718  -18.6225   -8.6983 F   0  0  0  0  0  0  0  0  0  0  0  0
   42.4764  -19.2409   -6.7302 C   0  0  0  0  0  0  0  0  0  0  0  0
   43.7359  -18.7820   -7.0138 N   0  0  0  0  0  0  0  0  0  0  0  0
   44.4808  -19.0665   -5.9644 C   0  0  0  0  0  0  0  0  0  0  0  0
   45.9220  -18.7211   -5.8680 C   0  0  0  0  0  0  0  0  0  0  0  0
   43.7407  -19.7242   -4.9994 N   0  0  0  0  0  0  0  0  0  0  0  0
   42.4435  -19.8344   -5.4735 C   0  0  0  0  0  0  0  0  0  0  0  0
   41.2604  -20.3774   -4.9392 C   0  0  0  0  0  0  0  0  0  0  0  0
   44.1792  -20.2065   -3.6908 C   0  0  0  0  0  0  0  0  0  0  0  0
   43.6799  -19.3691   -2.5125 C   0  0  0  0  0  0  0  0  0  0  0  0
   43.8820  -21.6939   -3.5037 C   0  0  0  0  0  0  0  0  0  0  0  0
   35.3722  -20.2269   -5.7444 N   0  0  0  0  0  0  0  0  0  0  0  0
   35.0063  -19.4802   -5.1763 H   0  0  0  0  0  0  0  0  0  0  0  0
   32.9910  -20.8407   -9.0988 C   0  0  0  0  0  0  0  0  0  0  0  0
   34.3192  -20.4665   -9.2890 C   0  0  0  0  0  0  0  0  0  0  0  0
   35.1481  -20.2549   -8.1857 C   0  0  0  0  0  0  0  0  0  0  0  0
   34.6404  -20.4113   -6.9024 C   0  0  0  0  0  0  0  0  0  0  0  0
   33.3504  -20.7673   -6.7018 N   0  0  0  0  0  0  0  0  0  0  0  0
   32.5633  -20.9694   -7.7861 C   0  0  0  0  0  0  0  0  0  0  0  0
   32.0430  -21.0552  -10.2535 C   0  0  0  0  0  0  0  0  0  0  0  0
   32.0176  -18.8638  -12.6048 N   0  0  0  0  0  0  0  0  0  0  0  0
   30.8867  -19.7933  -12.8145 C   0  0  0  0  0  0  0  0  0  0  0  0
   30.1495  -20.2193  -11.5169 C   0  0  0  0  0  0  0  0  0  0  0  0
   30.9277  -20.0896  -10.2713 N   0  0  0  0  0  0  0  0  0  0  0  0
   31.4110  -18.6930  -10.1589 C   0  0  0  0  0  0  0  0  0  0  0  0
   31.7122  -17.9506  -11.4929 C   0  0  0  0  0  0  0  0  0  0  0  0
   32.4473  -16.6594  -13.6873 C   0  0  0  0  0  0  0  0  0  0  0  0
   32.3572  -18.1722  -13.8536 C   0  0  0  0  0  0  0  0  0  0  0  0
 37 38  1  0  0  0
 38 31  1  0  0  0
 31 32  1  0  0  0
 32 33  1  0  0  0
 33 34  1  0  0  0
 34 30  1  0  0  0
 30 24  1  0  0  0
 24 25  2  0  0  0
 25 26  1  0  0  0
 26 27  2  0  0  0
 27 22  1  0  0  0
 22  1  1  0  0  0
  1  2  2  0  0  0
  2  3  1  0  0  0
  3  4  2  0  0  0
  4  5  1  0  0  0
  4  6  1  0  0  0
  6  8  1  0  0  0
  8  9  2  0  0  0
  9 10  1  0  0  0
 10 11  1  0  0  0
 10 12  2  0  0  0
 12 13  1  0  0  0
 13 14  2  0  0  0
 14 15  1  0  0  0
 14 16  1  0  0  0
 16 19  1  0  0  0
 19 20  1  0  0  0
 19 21  1  0  0  0
 16 17  1  0  0  0
 17 18  2  0  0  0
  6  7  2  0  0  0
 27 28  1  0  0  0
 28 29  2  0  0  0
 34 35  1  0  0  0
 35 36  1  0  0  0
 36 31  1  0  0  0
 29 24  1  0  0  0
  7  1  1  0  0  0
 18  8  1  0  0  0
 17 12  1  0  0  0
 22 23  1  0  0  0
M  END
> <minimizedAffinity>
-8.79407

$$$$
