L1:P08922:62123


 22 24  0  0  0  0  0  0  0  0999 V2000
   40.9435  -19.6841   -5.4749 N   0  0  0  0  0  0  0  0  0  0  0  0
   42.3035  -19.4318   -5.7815 C   0  0  0  0  0  0  0  0  0  0  0  0
   42.6322  -18.8440   -7.0275 C   0  0  0  0  0  0  0  0  0  0  0  0
   43.9419  -18.5192   -7.3925 C   0  0  0  0  0  0  0  0  0  0  0  0
   44.9783  -18.7604   -6.5102 C   0  0  0  0  0  0  0  0  0  0  0  0
   44.6958  -19.3296   -5.2737 C   0  0  0  0  0  0  0  0  0  0  0  0
   43.3762  -19.6835   -4.8964 C   0  0  0  0  0  0  0  0  0  0  0  0
   43.2558  -20.3157   -3.5254 C   0  0  0  0  0  0  0  0  0  0  0  0
   42.0515  -21.2159   -3.2871 C   0  0  0  0  0  0  0  0  0  0  0  0
   40.8120  -20.3844   -3.1197 C   0  0  0  0  0  0  0  0  0  0  0  0
   40.1540  -20.3444   -1.8779 C   0  0  0  0  0  0  0  0  0  0  0  0
   39.0141  -19.5621   -1.7062 C   0  0  0  0  0  0  0  0  0  0  0  0
   38.5323  -18.8144   -2.7734 C   0  0  0  0  0  0  0  0  0  0  0  0
   37.1305  -17.8370   -2.5677 Cl  0  0  0  0  0  0  0  0  0  0  0  0
   39.1763  -18.8516   -4.0088 C   0  0  0  0  0  0  0  0  0  0  0  0
   40.3220  -19.6440   -4.2052 C   0  0  0  0  0  0  0  0  0  0  0  0
   40.0395  -20.1346   -6.5651 C   0  0  0  0  0  0  0  0  0  0  0  0
   39.5122  -21.5500   -6.2933 C   0  0  0  0  0  0  0  0  0  0  0  0
   38.0291  -21.6987   -6.6533 C   0  0  0  0  0  0  0  0  0  0  0  0
   37.9078  -22.3348   -4.3067 C   0  0  0  0  0  0  0  0  0  0  0  0
   37.1486  -21.9476   -5.4993 N   0  0  0  0  0  0  0  0  0  0  0  0
   36.3555  -20.7494   -5.2074 C   0  0  0  0  0  0  0  0  0  0  0  0
 20 21  1  0  0  0
 21 22  1  0  0  0
 21 19  1  0  0  0
 19 18  1  0  0  0
 18 17  1  0  0  0
 17  1  1  0  0  0
  1  2  1  0  0  0
  2  3  2  0  0  0
  3  4  1  0  0  0
  4  5  2  0  0  0
  5  6  1  0  0  0
  6  7  2  0  0  0
  7  8  1  0  0  0
  8  9  1  0  0  0
  9 10  1  0  0  0
 10 11  2  0  0  0
 11 12  1  0  0  0
 12 13  2  0  0  0
 13 14  1  0  0  0
 13 15  1  0  0  0
 15 16  2  0  0  0
 16  1  1  0  0  0
  7  2  1  0  0  0
 16 10  1  0  0  0
M  END
> <minimizedAffinity>
-7.07653

$$$$
