L1:P08922:62123
     RDKit          3D

 45 47  0  0  0  0  0  0  0  0999 V2000
    3.6125   -2.0861   -0.2822 C   0  0  0  0  0  0  0  0  0  0  0  0
    3.6973   -0.6234   -0.2387 N   0  0  0  0  0  0  0  0  0  0  0  0
    5.0887   -0.2073   -0.4410 C   0  0  0  0  0  0  0  0  0  0  0  0
    2.8321    0.0066   -1.2504 C   0  0  0  0  0  0  0  0  0  0  0  0
    1.3308   -0.1605   -0.9872 C   0  0  0  0  0  0  0  0  0  0  0  0
    0.9109    0.4055    0.3761 C   0  0  0  0  0  0  0  0  0  0  0  0
   -0.5639    0.3413    0.5486 N   0  0  0  0  0  0  0  0  0  0  0  0
   -1.1858   -0.9303    0.6070 C   0  0  0  0  0  0  0  0  0  0  0  0
   -0.5223   -1.9931    1.2675 C   0  0  0  0  0  0  0  0  0  0  0  0
   -1.0823   -3.2657    1.4117 C   0  0  0  0  0  0  0  0  0  0  0  0
   -2.3441   -3.5196    0.9075 C   0  0  0  0  0  0  0  0  0  0  0  0
   -3.0313   -2.5001    0.2587 C   0  0  0  0  0  0  0  0  0  0  0  0
   -2.4695   -1.2103    0.0862 C   0  0  0  0  0  0  0  0  0  0  0  0
   -3.3466   -0.2311   -0.6659 C   0  0  0  0  0  0  0  0  0  0  0  0
   -2.6426    0.9160   -1.3773 C   0  0  0  0  0  0  0  0  0  0  0  0
   -2.1883    1.9407   -0.3777 C   0  0  0  0  0  0  0  0  0  0  0  0
   -2.7698    3.2207   -0.3684 C   0  0  0  0  0  0  0  0  0  0  0  0
   -2.3690    4.1730    0.5662 C   0  0  0  0  0  0  0  0  0  0  0  0
   -1.3902    3.8466    1.4965 C   0  0  0  0  0  0  0  0  0  0  0  0
   -0.8961    5.0133    2.6615 Cl  0  0  0  0  0  0  0  0  0  0  0  0
   -0.8059    2.5813    1.4916 C   0  0  0  0  0  0  0  0  0  0  0  0
   -1.1889    1.6099    0.5489 C   0  0  0  0  0  0  0  0  0  0  0  0
    4.2838   -2.5312    0.4613 H   0  0  0  0  0  0  0  0  0  0  0  0
    3.8787   -2.4867   -1.2670 H   0  0  0  0  0  0  0  0  0  0  0  0
    2.6072   -2.4333   -0.0251 H   0  0  0  0  0  0  0  0  0  0  0  0
    5.4727   -0.5106   -1.4219 H   0  0  0  0  0  0  0  0  0  0  0  0
    5.1819    0.8810   -0.3541 H   0  0  0  0  0  0  0  0  0  0  0  0
    5.7358   -0.6369    0.3320 H   0  0  0  0  0  0  0  0  0  0  0  0
    3.0376    1.0852   -1.2761 H   0  0  0  0  0  0  0  0  0  0  0  0
    3.0662   -0.3773   -2.2521 H   0  0  0  0  0  0  0  0  0  0  0  0
    1.0454   -1.2135   -1.0821 H   0  0  0  0  0  0  0  0  0  0  0  0
    0.7846    0.3690   -1.7786 H   0  0  0  0  0  0  0  0  0  0  0  0
    1.2718    1.4420    0.4206 H   0  0  0  0  0  0  0  0  0  0  0  0
    1.4225   -0.0997    1.2016 H   0  0  0  0  0  0  0  0  0  0  0  0
    0.4496   -1.8387    1.7268 H   0  0  0  0  0  0  0  0  0  0  0  0
   -0.5339   -4.0437    1.9351 H   0  0  0  0  0  0  0  0  0  0  0  0
   -2.7970   -4.4998    1.0230 H   0  0  0  0  0  0  0  0  0  0  0  0
   -4.0270   -2.7133   -0.1274 H   0  0  0  0  0  0  0  0  0  0  0  0
   -3.8857   -0.7905   -1.4429 H   0  0  0  0  0  0  0  0  0  0  0  0
   -4.1041    0.1542    0.0297 H   0  0  0  0  0  0  0  0  0  0  0  0
   -1.7940    0.5661   -1.9775 H   0  0  0  0  0  0  0  0  0  0  0  0
   -3.3454    1.3770   -2.0828 H   0  0  0  0  0  0  0  0  0  0  0  0
   -3.5437    3.4787   -1.0879 H   0  0  0  0  0  0  0  0  0  0  0  0
   -2.8269    5.1580    0.5670 H   0  0  0  0  0  0  0  0  0  0  0  0
   -0.0560    2.3364    2.2395 H   0  0  0  0  0  0  0  0  0  0  0  0
  1  2  1  0
  2  3  1  0
  2  4  1  0
  4  5  1  0
  5  6  1  0
  6  7  1  0
  7  8  1  0
  8  9  2  0
  9 10  1  0
 10 11  2  0
 11 12  1  0
 12 13  2  0
 13 14  1  0
 14 15  1  0
 15 16  1  0
 16 17  2  0
 17 18  1  0
 18 19  2  0
 19 20  1  0
 19 21  1  0
 21 22  2  0
 22  7  1  0
 13  8  1  0
 22 16  1  0
  1 23  1  0
  1 24  1  0
  1 25  1  0
  3 26  1  0
  3 27  1  0
  3 28  1  0
  4 29  1  0
  4 30  1  0
  5 31  1  0
  5 32  1  0
  6 33  1  0
  6 34  1  0
  9 35  1  0
 10 36  1  0
 11 37  1  0
 12 38  1  0
 14 39  1  0
 14 40  1  0
 15 41  1  0
 15 42  1  0
 17 43  1  0
 18 44  1  0
 21 45  1  0
M  END
>  <mol_id>  (1) 
62123

>  <source_index>  (1) 
6

>  <layer>  (1) 
L1

>  <uniprot>  (1) 
P08922

>  <paff>  (1) 
6

>  <smiles>  (1) 
CN(C)CCCN1c2ccccc2CCc3c1cc(cc3)Cl

$$$$
