L1:P08922:62474
     RDKit          3D

 58 65  0  0  0  0  0  0  0  0999 V2000
    4.6047    0.8118    0.9051 C   0  0  0  0  0  0  0  0  0  0  0  0
    4.4380    0.5588   -0.5158 N   0  0  0  0  0  0  0  0  0  0  0  0
    3.0564    0.4960   -1.0342 C   0  0  2  0  0  0  0  0  0  0  0  0
    2.1851    1.7184   -0.7628 C   0  0  0  0  0  0  0  0  0  0  0  0
    1.3982    1.6636    0.5490 C   0  0  2  0  0  0  0  0  0  0  0  0
    1.6317    0.5065    1.3524 O   0  0  0  0  0  0  0  0  0  0  0  0
    1.6438   -0.7642    0.6914 C   0  0  2  0  0  0  0  0  0  0  0  0
    2.2699   -0.7924   -0.7184 C   0  0  2  0  0  0  0  0  0  0  0  0
    3.1242   -1.9526   -0.8382 O   0  0  0  0  0  0  0  0  0  0  0  0
    3.2528   -2.4177   -2.1770 C   0  0  0  0  0  0  0  0  0  0  0  0
    0.2878   -1.3231    0.6790 N   0  0  0  0  0  0  0  0  0  0  0  0
   -0.0413   -2.6669    0.7612 C   0  0  0  0  0  0  0  0  0  0  0  0
    0.7645   -3.8062    0.9240 C   0  0  0  0  0  0  0  0  0  0  0  0
    0.1413   -5.0561    0.9727 C   0  0  0  0  0  0  0  0  0  0  0  0
   -1.2398   -5.1726    0.8604 C   0  0  0  0  0  0  0  0  0  0  0  0
   -2.0377   -4.0367    0.6911 C   0  0  0  0  0  0  0  0  0  0  0  0
   -1.4377   -2.7606    0.6367 C   0  0  0  0  0  0  0  0  0  0  0  0
   -1.9429   -1.4389    0.4608 C   0  0  0  0  0  0  0  0  0  0  0  0
   -3.1899   -0.8222    0.2693 C   0  0  0  0  0  0  0  0  0  0  0  0
   -3.3144    0.5959    0.1115 C   0  0  0  0  0  0  0  0  0  0  0  0
   -2.2452    1.5074    0.1365 C   0  0  0  0  0  0  0  0  0  0  0  0
   -2.0118    2.9121    0.0187 C   0  0  0  0  0  0  0  0  0  0  0  0
   -2.8400    4.0351   -0.1947 C   0  0  0  0  0  0  0  0  0  0  0  0
   -2.2843    5.3167   -0.2667 C   0  0  0  0  0  0  0  0  0  0  0  0
   -0.9146    5.5007   -0.1289 C   0  0  0  0  0  0  0  0  0  0  0  0
   -0.0645    4.4136    0.0855 C   0  0  0  0  0  0  0  0  0  0  0  0
   -0.6287    3.1271    0.1582 C   0  0  0  0  0  0  0  0  0  0  0  0
   -0.0374    1.8891    0.3607 N   0  0  0  0  0  0  0  0  0  0  0  0
   -1.0018    0.9319    0.3290 C   0  0  0  0  0  0  0  0  0  0  0  0
   -0.8488   -0.5998    0.4919 C   0  0  0  0  0  0  0  0  0  0  0  0
   -4.7443    0.8824   -0.0753 C   0  0  0  0  0  0  0  0  0  0  0  0
   -5.2728    1.9616   -0.2491 O   0  0  0  0  0  0  0  0  0  0  0  0
   -5.4135   -0.3207   -0.0238 N   0  0  0  0  0  0  0  0  0  0  0  0
   -4.5504   -1.4487    0.1896 C   0  0  0  0  0  0  0  0  0  0  0  0
    4.1642    1.7652    1.2082 H   0  0  0  0  0  0  0  0  0  0  0  0
    4.2018    0.0023    1.5182 H   0  0  0  0  0  0  0  0  0  0  0  0
    5.6749    0.8773    1.1281 H   0  0  0  0  0  0  0  0  0  0  0  0
    4.8875   -0.3369   -0.7301 H   0  0  0  0  0  0  0  0  0  0  0  0
    3.2197    0.4909   -2.1206 H   0  0  0  0  0  0  0  0  0  0  0  0
    1.4915    1.8375   -1.6075 H   0  0  0  0  0  0  0  0  0  0  0  0
    2.7942    2.6319   -0.7884 H   0  0  0  0  0  0  0  0  0  0  0  0
    1.7264    2.4992    1.1790 H   0  0  0  0  0  0  0  0  0  0  0  0
    2.2121   -1.4205    1.3606 H   0  0  0  0  0  0  0  0  0  0  0  0
    1.4637   -0.8861   -1.4605 H   0  0  0  0  0  0  0  0  0  0  0  0
    3.9049   -3.2952   -2.1710 H   0  0  0  0  0  0  0  0  0  0  0  0
    2.2771   -2.7146   -2.5734 H   0  0  0  0  0  0  0  0  0  0  0  0
    3.7056   -1.6552   -2.8161 H   0  0  0  0  0  0  0  0  0  0  0  0
    1.8449   -3.7340    1.0098 H   0  0  0  0  0  0  0  0  0  0  0  0
    0.7477   -5.9501    1.1015 H   0  0  0  0  0  0  0  0  0  0  0  0
   -1.7044   -6.1548    0.9028 H   0  0  0  0  0  0  0  0  0  0  0  0
   -3.1141   -4.1452    0.6008 H   0  0  0  0  0  0  0  0  0  0  0  0
   -3.9143    3.9166   -0.3053 H   0  0  0  0  0  0  0  0  0  0  0  0
   -2.9353    6.1718   -0.4311 H   0  0  0  0  0  0  0  0  0  0  0  0
   -0.4996    6.5043   -0.1861 H   0  0  0  0  0  0  0  0  0  0  0  0
    1.0029    4.5774    0.1940 H   0  0  0  0  0  0  0  0  0  0  0  0
   -6.4183   -0.3586   -0.1275 H   0  0  0  0  0  0  0  0  0  0  0  0
   -4.6391   -2.1313   -0.6593 H   0  0  0  0  0  0  0  0  0  0  0  0
   -4.8308   -1.9410    1.1243 H   0  0  0  0  0  0  0  0  0  0  0  0
  1  2  1  0
  2  3  1  0
  3  4  1  0
  4  5  1  0
  5  6  1  0
  6  7  1  0
  7  8  1  0
  8  9  1  0
  9 10  1  0
  7 11  1  0
 11 12  1  0
 12 13  2  0
 13 14  1  0
 14 15  2  0
 15 16  1  0
 16 17  2  0
 17 18  1  0
 18 19  2  0
 19 20  1  0
 20 21  2  0
 21 22  1  0
 22 23  2  0
 23 24  1  0
 24 25  2  0
 25 26  1  0
 26 27  2  0
 27 28  1  0
 28 29  1  0
 29 30  2  0
 20 31  1  0
 31 32  2  0
 31 33  1  0
 33 34  1  0
  8  3  1  0
 30 11  1  0
 28  5  1  0
 17 12  1  0
 30 18  1  0
 34 19  1  0
 29 21  1  0
 27 22  1  0
  1 35  1  0
  1 36  1  0
  1 37  1  0
  2 38  1  0
  3 39  1  6
  4 40  1  0
  4 41  1  0
  5 42  1  1
  7 43  1  1
  8 44  1  6
 10 45  1  0
 10 46  1  0
 10 47  1  0
 13 48  1  0
 14 49  1  0
 15 50  1  0
 16 51  1  0
 23 52  1  0
 24 53  1  0
 25 54  1  0
 26 55  1  0
 33 56  1  0
 34 57  1  0
 34 58  1  0
M  END
>  <mol_id>  (1) 
62474

>  <source_index>  (1) 
7

>  <layer>  (1) 
L1

>  <uniprot>  (1) 
P08922

>  <paff>  (1) 
9.6090999999999998

>  <smiles>  (1) 
CN[C@@H]1CC2OC([C@@H]1OC)n1c3ccccc3c3c4CNC(=O)c4c4c5ccccc5n2c4c13 |r|

$$$$
