L1:P08922:62474
 OpenBabel09212617423D

 58 65  0  0  0  0  0  0  0  0999 V2000
   37.4659  -20.2377   -4.0832 C   0  0  2  0  0  0  0  0  0  0  0  0
   38.3216  -19.7643   -5.2541 C   0  0  0  0  0  0  0  0  0  0  0  0
   39.2940  -20.8129   -5.7998 C   0  0  2  0  0  0  0  0  0  0  0  0
   39.2242  -22.0941   -5.1733 O   0  0  0  0  0  0  0  0  0  0  0  0
   39.1624  -22.1264   -3.7426 C   0  0  2  0  0  0  0  0  0  0  0  0
   38.3376  -21.0087   -3.0713 C   0  0  2  0  0  0  0  0  0  0  0  0
   40.5217  -22.1824   -3.1946 N   0  0  0  0  0  0  0  0  0  0  0  0
   40.9091  -22.8441   -2.0400 C   0  0  0  0  0  0  0  0  0  0  0  0
   40.1788  -23.6451   -1.1462 C   0  0  0  0  0  0  0  0  0  0  0  0
   40.8484  -24.1900   -0.0472 C   0  0  0  0  0  0  0  0  0  0  0  0
   42.2015  -23.9453    0.1604 C   0  0  0  0  0  0  0  0  0  0  0  0
   42.9231  -23.1415   -0.7277 C   0  0  0  0  0  0  0  0  0  0  0  0
   42.2746  -22.5758   -1.8461 C   0  0  0  0  0  0  0  0  0  0  0  0
   42.6990  -21.7208   -2.9054 C   0  0  0  0  0  0  0  0  0  0  0  0
   43.8805  -21.0786   -3.3096 C   0  0  0  0  0  0  0  0  0  0  0  0
   43.9277  -20.2494   -4.4765 C   0  0  0  0  0  0  0  0  0  0  0  0
   42.8406  -19.9947   -5.3298 C   0  0  0  0  0  0  0  0  0  0  0  0
   42.5404  -19.2591   -6.5173 C   0  0  0  0  0  0  0  0  0  0  0  0
   43.2860  -18.4187   -7.3720 C   0  0  0  0  0  0  0  0  0  0  0  0
   42.6785  -17.8286   -8.4851 C   0  0  0  0  0  0  0  0  0  0  0  0
   41.3379  -18.0616   -8.7638 C   0  0  0  0  0  0  0  0  0  0  0  0
   40.5695  -18.8891   -7.9420 C   0  0  0  0  0  0  0  0  0  0  0  0
   41.1857  -19.4808   -6.8245 C   0  0  0  0  0  0  0  0  0  0  0  0
   40.6770  -20.3317   -5.8547 N   0  0  0  0  0  0  0  0  0  0  0  0
   41.6612  -20.6177   -4.9620 C   0  0  0  0  0  0  0  0  0  0  0  0
   41.5909  -21.5095   -3.6988 C   0  0  0  0  0  0  0  0  0  0  0  0
   45.3031  -19.7414   -4.5859 C   0  0  0  0  0  0  0  0  0  0  0  0
   45.7598  -19.0001   -5.4321 O   0  0  0  0  0  0  0  0  0  0  0  0
   46.0168  -20.2598   -3.5277 N   0  0  0  0  0  0  0  0  0  0  0  0
   45.2369  -21.1077   -2.6700 C   0  0  0  0  0  0  0  0  0  0  0  0
   46.9962  -20.0404   -3.4074 H   0  0  0  0  0  0  0  0  0  0  0  0
   35.6996  -20.6815   -5.7982 C   0  0  0  0  0  0  0  0  0  0  0  0
   36.1740  -20.8603   -4.4367 N   0  0  0  0  0  0  0  0  0  0  0  0
   36.2606  -21.8667   -4.2640 H   0  0  0  0  0  0  0  0  0  0  0  0
   37.5187  -21.5815   -2.0265 O   0  0  0  0  0  0  0  0  0  0  0  0
   37.5997  -20.8692   -0.7972 C   0  0  0  0  0  0  0  0  0  0  0  0
   37.1062  -19.3636   -3.5816 H   0  0  0  0  0  0  0  0  0  0  0  0
   38.8909  -18.9181   -4.9304 H   0  0  0  0  0  0  0  0  0  0  0  0
   37.6446  -19.5359   -6.0506 H   0  0  0  0  0  0  0  0  0  0  0  0
   38.9508  -20.9665   -6.8016 H   0  0  0  0  0  0  0  0  0  0  0  0
   38.6165  -23.0153   -3.5043 H   0  0  0  0  0  0  0  0  0  0  0  0
   39.0195  -20.2997   -2.6503 H   0  0  0  0  0  0  0  0  0  0  0  0
   39.1741  -23.8264   -1.2973 H   0  0  0  0  0  0  0  0  0  0  0  0
   40.3309  -24.7829    0.6204 H   0  0  0  0  0  0  0  0  0  0  0  0
   42.6771  -24.3604    0.9768 H   0  0  0  0  0  0  0  0  0  0  0  0
   43.9265  -22.9626   -0.5658 H   0  0  0  0  0  0  0  0  0  0  0  0
   44.2829  -18.2391   -7.1748 H   0  0  0  0  0  0  0  0  0  0  0  0
   43.2308  -17.2151   -9.1044 H   0  0  0  0  0  0  0  0  0  0  0  0
   40.9042  -17.6177   -9.5884 H   0  0  0  0  0  0  0  0  0  0  0  0
   39.5735  -19.0623   -8.1496 H   0  0  0  0  0  0  0  0  0  0  0  0
   45.2008  -20.7184   -1.6740 H   0  0  0  0  0  0  0  0  0  0  0  0
   45.6376  -22.0954   -2.5759 H   0  0  0  0  0  0  0  0  0  0  0  0
   35.5996  -19.6368   -6.0067 H   0  0  0  0  0  0  0  0  0  0  0  0
   34.7493  -21.1602   -5.9105 H   0  0  0  0  0  0  0  0  0  0  0  0
   36.4005  -21.1158   -6.4801 H   0  0  0  0  0  0  0  0  0  0  0  0
   36.9738  -21.3417   -0.0693 H   0  0  0  0  0  0  0  0  0  0  0  0
   37.2740  -19.8610   -0.9470 H   0  0  0  0  0  0  0  0  0  0  0  0
   38.6121  -20.8693   -0.4510 H   0  0  0  0  0  0  0  0  0  0  0  0
  1  2  1  0  0  0  0
  1 37  1  1  0  0  0
  2  3  1  0  0  0  0
  2 38  1  0  0  0  0
  2 39  1  0  0  0  0
  3  4  1  0  0  0  0
  3 40  1  6  0  0  0
  4  5  1  0  0  0  0
  5  6  1  0  0  0  0
  5  7  1  0  0  0  0
  5 41  1  1  0  0  0
  6 35  1  0  0  0  0
  6  1  1  0  0  0  0
  6 42  1  1  0  0  0
  7  8  1  0  0  0  0
  8  9  2  0  0  0  0
  9 10  1  0  0  0  0
  9 43  1  0  0  0  0
 10 11  2  0  0  0  0
 10 44  1  0  0  0  0
 11 12  1  0  0  0  0
 11 45  1  0  0  0  0
 12 13  2  0  0  0  0
 12 46  1  0  0  0  0
 13 14  1  0  0  0  0
 13  8  1  0  0  0  0
 14 15  2  0  0  0  0
 15 16  1  0  0  0  0
 16 17  2  0  0  0  0
 16 27  1  0  0  0  0
 17 18  1  0  0  0  0
 18 19  2  0  0  0  0
 19 20  1  0  0  0  0
 19 47  1  0  0  0  0
 20 21  2  0  0  0  0
 20 48  1  0  0  0  0
 21 22  1  0  0  0  0
 21 49  1  0  0  0  0
 22 23  2  0  0  0  0
 22 50  1  0  0  0  0
 23 24  1  0  0  0  0
 23 18  1  0  0  0  0
 24 25  1  0  0  0  0
 24  3  1  0  0  0  0
 25 26  2  0  0  0  0
 25 17  1  0  0  0  0
 26  7  1  0  0  0  0
 26 14  1  0  0  0  0
 27 28  2  0  0  0  0
 27 29  1  0  0  0  0
 29 30  1  0  0  0  0
 29 31  1  0  0  0  0
 30 15  1  0  0  0  0
 30 51  1  0  0  0  0
 30 52  1  0  0  0  0
 32 33  1  0  0  0  0
 32 53  1  0  0  0  0
 32 54  1  0  0  0  0
 32 55  1  0  0  0  0
 33  1  1  0  0  0  0
 33 34  1  0  0  0  0
 35 36  1  0  0  0  0
 36 56  1  0  0  0  0
 36 57  1  0  0  0  0
 36 58  1  0  0  0  0
M  END
>  <minimizedAffinity>
-10.42418

$$$$
