L1:P08922:70772
     RDKit          3D

 65 68  0  0  0  0  0  0  0  0999 V2000
    2.3354    1.6881   -0.9345 C   0  0  0  0  0  0  0  0  0  0  0  0
    3.6516    1.6790   -0.3919 O   0  0  0  0  0  0  0  0  0  0  0  0
    3.8458    1.0018    0.7840 C   0  0  0  0  0  0  0  0  0  0  0  0
    2.8089    0.5700    1.6209 C   0  0  0  0  0  0  0  0  0  0  0  0
    3.0674   -0.1453    2.8040 C   0  0  0  0  0  0  0  0  0  0  0  0
    2.0195   -0.6600    3.6068 N   0  0  0  0  0  0  0  0  0  0  0  0
    0.6220   -0.7077    3.3658 C   0  0  0  0  0  0  0  0  0  0  0  0
   -0.2541   -0.0825    4.2677 C   0  0  0  0  0  0  0  0  0  0  0  0
    0.1944    0.5173    5.4840 C   0  0  0  0  0  0  0  0  0  0  0  0
    0.5631    0.9916    6.4767 N   0  0  0  0  0  0  0  0  0  0  0  0
   -1.5961   -0.0198    3.9437 C   0  0  0  0  0  0  0  0  0  0  0  0
   -2.1189   -0.5140    2.8018 N   0  0  0  0  0  0  0  0  0  0  0  0
   -1.2971   -1.1370    1.9426 C   0  0  0  0  0  0  0  0  0  0  0  0
   -1.8328   -1.6330    0.7673 C   0  0  0  0  0  0  0  0  0  0  0  0
   -1.0500   -2.2796   -0.1937 C   0  0  0  0  0  0  0  0  0  0  0  0
   -1.7359   -2.6505   -1.3208 O   0  0  0  0  0  0  0  0  0  0  0  0
   -1.0466   -2.4194   -2.5563 C   0  0  0  0  0  0  0  0  0  0  0  0
   -2.0373   -1.8608   -3.5810 C   0  0  0  0  0  0  0  0  0  0  0  0
   -1.8546   -0.3551   -3.8364 C   0  0  0  0  0  0  0  0  0  0  0  0
   -1.9490    0.4975   -2.6426 N   0  0  0  0  0  0  0  0  0  0  0  0
   -1.5320    1.8793   -2.9657 C   0  0  0  0  0  0  0  0  0  0  0  0
   -1.6587    2.8321   -1.7555 C   0  0  0  0  0  0  0  0  0  0  0  0
   -3.0322    2.8697   -1.2231 N   0  0  0  0  0  0  0  0  0  0  0  0
   -3.1098    3.7282   -0.0439 C   0  0  0  0  0  0  0  0  0  0  0  0
   -3.4610    1.4960   -0.8950 C   0  0  0  0  0  0  0  0  0  0  0  0
   -3.3248    0.5332   -2.0990 C   0  0  0  0  0  0  0  0  0  0  0  0
    0.2974   -2.5412    0.0645 C   0  0  0  0  0  0  0  0  0  0  0  0
    0.9846   -3.2914   -0.8504 O   0  0  0  0  0  0  0  0  0  0  0  0
    2.3757   -3.4936   -0.6363 C   0  0  0  0  0  0  0  0  0  0  0  0
    0.8469   -2.0472    1.2505 C   0  0  0  0  0  0  0  0  0  0  0  0
    0.0834   -1.2941    2.1819 C   0  0  0  0  0  0  0  0  0  0  0  0
    4.4102   -0.3975    3.1439 C   0  0  0  0  0  0  0  0  0  0  0  0
    4.8029   -1.2791    4.5798 Cl  0  0  0  0  0  0  0  0  0  0  0  0
    5.4559    0.0500    2.3377 C   0  0  0  0  0  0  0  0  0  0  0  0
    5.1718    0.7449    1.1621 C   0  0  0  0  0  0  0  0  0  0  0  0
    6.5028    1.2589    0.1855 Cl  0  0  0  0  0  0  0  0  0  0  0  0
    1.9391    0.6726   -1.0429 H   0  0  0  0  0  0  0  0  0  0  0  0
    2.3887    2.1325   -1.9330 H   0  0  0  0  0  0  0  0  0  0  0  0
    1.6695    2.3111   -0.3291 H   0  0  0  0  0  0  0  0  0  0  0  0
    1.7796    0.7972    1.3651 H   0  0  0  0  0  0  0  0  0  0  0  0
    2.3155   -0.8758    4.5594 H   0  0  0  0  0  0  0  0  0  0  0  0
   -2.3196    0.4589    4.6007 H   0  0  0  0  0  0  0  0  0  0  0  0
   -2.8936   -1.4931    0.5737 H   0  0  0  0  0  0  0  0  0  0  0  0
   -0.1864   -1.7460   -2.4559 H   0  0  0  0  0  0  0  0  0  0  0  0
   -0.6866   -3.3936   -2.9064 H   0  0  0  0  0  0  0  0  0  0  0  0
   -3.0712   -2.0806   -3.2925 H   0  0  0  0  0  0  0  0  0  0  0  0
   -1.8618   -2.3660   -4.5393 H   0  0  0  0  0  0  0  0  0  0  0  0
   -2.5761   -0.0346   -4.5995 H   0  0  0  0  0  0  0  0  0  0  0  0
   -0.8591   -0.2266   -4.2827 H   0  0  0  0  0  0  0  0  0  0  0  0
   -2.1266    2.2764   -3.7997 H   0  0  0  0  0  0  0  0  0  0  0  0
   -0.4824    1.8768   -3.2844 H   0  0  0  0  0  0  0  0  0  0  0  0
   -1.3642    3.8378   -2.0787 H   0  0  0  0  0  0  0  0  0  0  0  0
   -0.9500    2.5179   -0.9771 H   0  0  0  0  0  0  0  0  0  0  0  0
   -2.4641    3.3786    0.7699 H   0  0  0  0  0  0  0  0  0  0  0  0
   -4.1389    3.7751    0.3292 H   0  0  0  0  0  0  0  0  0  0  0  0
   -2.8193    4.7538   -0.2971 H   0  0  0  0  0  0  0  0  0  0  0  0
   -2.8746    1.1041   -0.0541 H   0  0  0  0  0  0  0  0  0  0  0  0
   -4.5123    1.5070   -0.5829 H   0  0  0  0  0  0  0  0  0  0  0  0
   -3.6218   -0.4646   -1.7594 H   0  0  0  0  0  0  0  0  0  0  0  0
   -4.0362    0.8371   -2.8788 H   0  0  0  0  0  0  0  0  0  0  0  0
    2.5524   -4.0849    0.2679 H   0  0  0  0  0  0  0  0  0  0  0  0
    2.7647   -4.0622   -1.4864 H   0  0  0  0  0  0  0  0  0  0  0  0
    2.9138   -2.5404   -0.6000 H   0  0  0  0  0  0  0  0  0  0  0  0
    1.8859   -2.2488    1.4890 H   0  0  0  0  0  0  0  0  0  0  0  0
    6.4869   -0.1483    2.6184 H   0  0  0  0  0  0  0  0  0  0  0  0
  1  2  1  0
  2  3  1  0
  3  4  2  0
  4  5  1  0
  5  6  1  0
  6  7  1  0
  7  8  2  0
  8  9  1  0
  9 10  3  0
  8 11  1  0
 11 12  2  0
 12 13  1  0
 13 14  2  0
 14 15  1  0
 15 16  1  0
 16 17  1  0
 17 18  1  0
 18 19  1  0
 19 20  1  0
 20 21  1  0
 21 22  1  0
 22 23  1  0
 23 24  1  0
 23 25  1  0
 25 26  1  0
 15 27  2  0
 27 28  1  0
 28 29  1  0
 27 30  1  0
 30 31  2  0
  5 32  2  0
 32 33  1  0
 32 34  1  0
 34 35  2  0
 35 36  1  0
 35  3  1  0
 31  7  1  0
 31 13  1  0
 26 20  1  0
  1 37  1  0
  1 38  1  0
  1 39  1  0
  4 40  1  0
  6 41  1  0
 11 42  1  0
 14 43  1  0
 17 44  1  0
 17 45  1  0
 18 46  1  0
 18 47  1  0
 19 48  1  0
 19 49  1  0
 21 50  1  0
 21 51  1  0
 22 52  1  0
 22 53  1  0
 24 54  1  0
 24 55  1  0
 24 56  1  0
 25 57  1  0
 25 58  1  0
 26 59  1  0
 26 60  1  0
 29 61  1  0
 29 62  1  0
 29 63  1  0
 30 64  1  0
 34 65  1  0
M  END
>  <mol_id>  (1) 
70772

>  <source_index>  (1) 
8

>  <layer>  (1) 
L1

>  <uniprot>  (1) 
P08922

>  <paff>  (1) 
6.6989999999999998

>  <smiles>  (1) 
CN1CCN(CC1)CCCOc2cc3c(cc2OC)c(c(cn3)C#N)Nc4cc(c(cc4Cl)Cl)OC

$$$$
