L3:Q92830:12327
 OpenBabel09212617473D

 81 85  0  0  0  0  0  0  0  0999 V2000
  -20.2578  -12.3746    7.8250 C   0  0  0  0  0  0  0  0  0  0  0  0
  -20.6616  -13.4713    8.5947 C   0  0  0  0  0  0  0  0  0  0  0  0
  -21.4380  -14.4747    8.0270 C   0  0  0  0  0  0  0  0  0  0  0  0
  -21.8464  -14.3615    6.7013 C   0  0  0  0  0  0  0  0  0  0  0  0
  -21.4927  -13.2359    5.9328 C   0  0  0  0  0  0  0  0  0  0  0  0
  -20.6708  -12.2214    6.4792 C   0  0  0  0  0  0  0  0  0  0  0  0
  -20.2092  -11.0523    5.6932 C   0  0  0  0  0  0  0  0  0  0  0  0
  -20.9375   -9.8445    5.8133 C   0  0  0  0  0  0  0  0  0  0  0  0
  -20.5844   -8.7086    5.0928 C   0  0  0  0  0  0  0  0  0  0  0  0
  -19.4957   -8.7607    4.2394 C   0  0  0  0  0  0  0  0  0  0  0  0
  -18.7656   -9.9410    4.1221 C   0  0  0  0  0  0  0  0  0  0  0  0
  -17.7130   -9.9311    3.2895 F   0  0  0  0  0  0  0  0  0  0  0  0
  -19.0700  -11.1215    4.8364 C   0  0  0  0  0  0  0  0  0  0  0  0
  -18.1632  -12.4328    4.6760 C   0  0  0  0  0  0  0  0  0  0  0  0
  -16.6160  -12.2952    4.5611 C   0  0  0  0  0  0  0  0  0  0  0  0
  -16.6469  -13.5141    3.6178 C   0  0  0  0  0  0  0  0  0  0  0  0
  -18.1063  -13.1401    3.2916 C   0  0  0  0  0  0  0  0  0  0  0  0
  -22.0439  -13.2113    4.5502 C   0  0  0  0  0  0  0  0  0  0  0  0
  -21.5684  -13.9245    3.6805 O   0  0  0  0  0  0  0  0  0  0  0  0
  -23.1784  -12.4206    4.3551 N   0  0  0  0  0  0  0  0  0  0  0  0
  -23.6345  -11.9326    5.1193 H   0  0  0  0  0  0  0  0  0  0  0  0
  -23.8507  -12.0680    2.8835 S   0  0  0  0  0  0  0  0  0  0  0  0
  -24.6060  -13.6071    2.3996 C   0  0  0  0  0  0  0  0  0  0  0  0
  -24.9184  -11.1339    3.1762 O   0  0  0  0  0  0  0  0  0  0  0  0
  -22.8023  -11.7271    1.9510 O   0  0  0  0  0  0  0  0  0  0  0  0
  -19.5359  -11.3631    8.4115 O   0  0  0  0  0  0  0  0  0  0  0  0
  -19.4259   -8.7155    9.5773 C   0  0  2  0  0  0  0  0  0  0  0  0
  -20.9398   -8.8586    9.3723 C   0  0  0  0  0  0  0  0  0  0  0  0
  -21.2750  -10.3208    9.6838 C   0  0  0  0  0  0  0  0  0  0  0  0
  -19.9306  -11.0445    9.7540 C   0  0  2  0  0  0  0  0  0  0  0  0
  -19.0174   -9.9737   10.3398 C   0  0  0  0  0  0  0  0  0  0  0  0
  -19.4919   -6.2603    9.8330 C   0  0  0  0  0  0  0  0  0  0  0  0
  -20.2266   -6.1205    8.8584 O   0  0  0  0  0  0  0  0  0  0  0  0
  -19.0575   -7.5004   10.2704 N   0  0  0  0  0  0  0  0  0  0  0  0
  -18.4329   -7.5437   11.0654 H   0  0  0  0  0  0  0  0  0  0  0  0
  -21.2756   -4.4088   11.2003 C   0  0  0  0  0  0  0  0  0  0  0  0
  -19.9080   -4.5694   11.6663 N   0  0  0  0  0  0  0  0  0  0  0  0
  -19.8124   -5.4825   12.8083 C   0  0  0  0  0  0  0  0  0  0  0  0
  -18.2954   -5.6514   12.9740 C   0  0  0  0  0  0  0  0  0  0  0  0
  -17.7144   -4.5282   13.8524 C   0  0  0  0  0  0  0  0  0  0  0  0
  -17.9549   -7.0056   13.6006 C   0  0  0  0  0  0  0  0  0  0  0  0
  -17.7508   -5.5296   11.5330 C   0  0  0  0  0  0  0  0  0  0  0  0
  -18.9401   -5.0830   10.6711 C   0  0  1  0  0  0  0  0  0  0  0  0
  -20.3823  -13.5352    9.5861 H   0  0  0  0  0  0  0  0  0  0  0  0
  -21.7101  -15.2989    8.5853 H   0  0  0  0  0  0  0  0  0  0  0  0
  -22.4148  -15.1110    6.2768 H   0  0  0  0  0  0  0  0  0  0  0  0
  -21.7488   -9.8060    6.4499 H   0  0  0  0  0  0  0  0  0  0  0  0
  -21.1277   -7.8370    5.1932 H   0  0  0  0  0  0  0  0  0  0  0  0
  -19.2261   -7.9283    3.6922 H   0  0  0  0  0  0  0  0  0  0  0  0
  -18.6231  -12.8808    5.5319 H   0  0  0  0  0  0  0  0  0  0  0  0
  -16.0846  -12.4524    5.4764 H   0  0  0  0  0  0  0  0  0  0  0  0
  -16.1520  -11.3741    4.2762 H   0  0  0  0  0  0  0  0  0  0  0  0
  -16.5267  -14.4589    4.1055 H   0  0  0  0  0  0  0  0  0  0  0  0
  -15.9153  -13.6491    2.8488 H   0  0  0  0  0  0  0  0  0  0  0  0
  -18.7685  -13.9743    3.1892 H   0  0  0  0  0  0  0  0  0  0  0  0
  -18.3680  -12.6302    2.3880 H   0  0  0  0  0  0  0  0  0  0  0  0
  -25.3822  -13.8568    3.0924 H   0  0  0  0  0  0  0  0  0  0  0  0
  -23.8676  -14.3815    2.3970 H   0  0  0  0  0  0  0  0  0  0  0  0
  -25.0218  -13.5075    1.4188 H   0  0  0  0  0  0  0  0  0  0  0  0
  -18.9121   -8.6300    8.6426 H   0  0  0  0  0  0  0  0  0  0  0  0
  -21.2013   -8.6250    8.3614 H   0  0  0  0  0  0  0  0  0  0  0  0
  -21.4847   -8.1895   10.0050 H   0  0  0  0  0  0  0  0  0  0  0  0
  -21.8837  -10.7378    8.9088 H   0  0  0  0  0  0  0  0  0  0  0  0
  -21.8238  -10.4153   10.5975 H   0  0  0  0  0  0  0  0  0  0  0  0
  -19.9254  -11.9515   10.3217 H   0  0  0  0  0  0  0  0  0  0  0  0
  -17.9882  -10.2102   10.1674 H   0  0  0  0  0  0  0  0  0  0  0  0
  -19.1141   -9.8727   11.4006 H   0  0  0  0  0  0  0  0  0  0  0  0
  -21.8825   -4.0343   11.9980 H   0  0  0  0  0  0  0  0  0  0  0  0
  -21.6557   -5.3553   10.8770 H   0  0  0  0  0  0  0  0  0  0  0  0
  -21.2952   -3.7185   10.3829 H   0  0  0  0  0  0  0  0  0  0  0  0
  -20.2845   -6.4187   12.5952 H   0  0  0  0  0  0  0  0  0  0  0  0
  -20.2991   -5.1168   13.6882 H   0  0  0  0  0  0  0  0  0  0  0  0
  -18.0964   -4.6200   14.8477 H   0  0  0  0  0  0  0  0  0  0  0  0
  -17.9956   -3.5780   13.4487 H   0  0  0  0  0  0  0  0  0  0  0  0
  -16.6474   -4.6060   13.8713 H   0  0  0  0  0  0  0  0  0  0  0  0
  -18.3490   -7.0479   14.5945 H   0  0  0  0  0  0  0  0  0  0  0  0
  -16.8923   -7.1266   13.6328 H   0  0  0  0  0  0  0  0  0  0  0  0
  -18.3854   -7.7890   13.0125 H   0  0  0  0  0  0  0  0  0  0  0  0
  -17.3794   -6.4742   11.1942 H   0  0  0  0  0  0  0  0  0  0  0  0
  -16.9406   -4.8330   11.4764 H   0  0  0  0  0  0  0  0  0  0  0  0
  -18.6916   -4.3403    9.9421 H   0  0  0  0  0  0  0  0  0  0  0  0
  1  2  2  0  0  0  0
  2  3  1  0  0  0  0
  2 44  1  0  0  0  0
  3  4  2  0  0  0  0
  3 45  1  0  0  0  0
  4  5  1  0  0  0  0
  4 46  1  0  0  0  0
  5 18  1  0  0  0  0
  5  6  2  0  0  0  0
  6  7  1  0  0  0  0
  6  1  1  0  0  0  0
  7  8  2  0  0  0  0
  8  9  1  0  0  0  0
  8 47  1  0  0  0  0
  9 10  2  0  0  0  0
  9 48  1  0  0  0  0
 10 11  1  0  0  0  0
 10 49  1  0  0  0  0
 11 12  1  0  0  0  0
 11 13  2  0  0  0  0
 13 14  1  0  0  0  0
 13  7  1  0  0  0  0
 14 15  1  0  0  0  0
 14 50  1  0  0  0  0
 15 16  1  0  0  0  0
 15 51  1  0  0  0  0
 15 52  1  0  0  0  0
 16 17  1  0  0  0  0
 16 53  1  0  0  0  0
 16 54  1  0  0  0  0
 17 14  1  0  0  0  0
 17 55  1  0  0  0  0
 17 56  1  0  0  0  0
 18 19  2  0  0  0  0
 18 20  1  0  0  0  0
 20 22  1  0  0  0  0
 20 21  1  0  0  0  0
 22 23  1  0  0  0  0
 22 24  2  0  0  0  0
 22 25  2  0  0  0  0
 23 57  1  0  0  0  0
 23 58  1  0  0  0  0
 23 59  1  0  0  0  0
 26  1  1  0  0  0  0
 27 28  1  0  0  0  0
 27 60  1  6  0  0  0
 28 29  1  0  0  0  0
 28 61  1  0  0  0  0
 28 62  1  0  0  0  0
 29 30  1  0  0  0  0
 29 63  1  0  0  0  0
 29 64  1  0  0  0  0
 30 26  1  0  0  0  0
 30 31  1  0  0  0  0
 30 65  1  1  0  0  0
 31 27  1  0  0  0  0
 31 66  1  0  0  0  0
 31 67  1  0  0  0  0
 32 33  2  0  0  0  0
 32 34  1  0  0  0  0
 34 27  1  0  0  0  0
 34 35  1  0  0  0  0
 36 37  1  0  0  0  0
 36 68  1  0  0  0  0
 36 69  1  0  0  0  0
 36 70  1  0  0  0  0
 37 38  1  0  0  0  0
 38 39  1  0  0  0  0
 38 71  1  0  0  0  0
 38 72  1  0  0  0  0
 39 40  1  0  0  0  0
 39 41  1  0  0  0  0
 39 42  1  0  0  0  0
 40 73  1  0  0  0  0
 40 74  1  0  0  0  0
 40 75  1  0  0  0  0
 41 76  1  0  0  0  0
 41 77  1  0  0  0  0
 41 78  1  0  0  0  0
 42 43  1  0  0  0  0
 42 79  1  0  0  0  0
 42 80  1  0  0  0  0
 43 32  1  0  0  0  0
 43 37  1  0  0  0  0
 43 81  1  6  0  0  0
M  END
>  <minimizedAffinity>
-7.28242

$$$$
