L3:Q92830:12327
     RDKit          3D

 81 85  0  0  0  0  0  0  0  0999 V2000
    1.3345   -1.7846   -2.6887 C   0  0  0  0  0  0  0  0  0  0  0  0
    2.7550   -1.7495   -2.9956 N   0  0  0  0  0  0  0  0  0  0  0  0
    3.1392   -0.5328   -3.7161 C   0  0  0  0  0  0  0  0  0  0  0  0
    4.6716   -0.6256   -3.7337 C   0  0  0  0  0  0  0  0  0  0  0  0
    5.1536   -1.4612   -4.9338 C   0  0  0  0  0  0  0  0  0  0  0  0
    5.3091    0.7642   -3.8014 C   0  0  0  0  0  0  0  0  0  0  0  0
    5.0126   -1.3526   -2.4134 C   0  0  0  0  0  0  0  0  0  0  0  0
    3.6710   -1.8242   -1.8352 C   0  0  1  0  0  0  0  0  0  0  0  0
    3.2316   -0.9308   -0.6512 C   0  0  0  0  0  0  0  0  0  0  0  0
    3.5101    0.2618   -0.5545 O   0  0  0  0  0  0  0  0  0  0  0  0
    2.4652   -1.5986    0.2893 N   0  0  0  0  0  0  0  0  0  0  0  0
    1.9176   -0.9131    1.4394 C   0  0  2  0  0  0  0  0  0  0  0  0
    2.9592   -0.6405    2.5326 C   0  0  0  0  0  0  0  0  0  0  0  0
    2.2736   -0.9647    3.8639 C   0  0  0  0  0  0  0  0  0  0  0  0
    0.7880   -1.1117    3.5358 C   0  0  1  0  0  0  0  0  0  0  0  0
    0.2170    0.2044    3.4986 O   0  0  0  0  0  0  0  0  0  0  0  0
   -1.1369    0.2501    3.7289 C   0  0  0  0  0  0  0  0  0  0  0  0
   -1.6427   -0.1750    4.9625 C   0  0  0  0  0  0  0  0  0  0  0  0
   -3.0040   -0.0834    5.2279 C   0  0  0  0  0  0  0  0  0  0  0  0
   -3.8544    0.4722    4.2765 C   0  0  0  0  0  0  0  0  0  0  0  0
   -3.3495    0.9542    3.0536 C   0  0  0  0  0  0  0  0  0  0  0  0
   -4.3563    1.5777    2.1516 C   0  0  0  0  0  0  0  0  0  0  0  0
   -5.4805    1.1098    2.0599 O   0  0  0  0  0  0  0  0  0  0  0  0
   -3.9677    2.7628    1.5232 N   0  0  0  0  0  0  0  0  0  0  0  0
   -4.8199    3.5299    0.3285 S   0  0  0  0  0  6  0  0  0  0  0  0
   -6.3156    4.0357    1.1533 C   0  0  0  0  0  0  0  0  0  0  0  0
   -4.0583    4.7274    0.0382 O   0  0  0  0  0  0  0  0  0  0  0  0
   -5.1365    2.5819   -0.7136 O   0  0  0  0  0  0  0  0  0  0  0  0
   -1.9728    0.8356    2.7472 C   0  0  0  0  0  0  0  0  0  0  0  0
   -1.4005    1.2598    1.4471 C   0  0  0  0  0  0  0  0  0  0  0  0
   -0.5394    2.3832    1.4378 C   0  0  0  0  0  0  0  0  0  0  0  0
    0.0204    2.8596    0.2573 C   0  0  0  0  0  0  0  0  0  0  0  0
   -0.2710    2.2201   -0.9354 C   0  0  0  0  0  0  0  0  0  0  0  0
   -1.1084    1.1071   -0.9359 C   0  0  0  0  0  0  0  0  0  0  0  0
   -1.3470    0.5194   -2.1186 F   0  0  0  0  0  0  0  0  0  0  0  0
   -1.6963    0.5719    0.2322 C   0  0  0  0  0  0  0  0  0  0  0  0
   -2.6228   -0.7333    0.1587 C   0  0  0  0  0  0  0  0  0  0  0  0
   -2.1561   -1.9689   -0.6667 C   0  0  0  0  0  0  0  0  0  0  0  0
   -3.6395   -2.2158   -1.0060 C   0  0  0  0  0  0  0  0  0  0  0  0
   -3.8759   -0.7121   -0.7629 C   0  0  0  0  0  0  0  0  0  0  0  0
    0.8244   -1.7184    2.1378 C   0  0  0  0  0  0  0  0  0  0  0  0
    0.9963   -0.9125   -2.1202 H   0  0  0  0  0  0  0  0  0  0  0  0
    0.7514   -1.8222   -3.6155 H   0  0  0  0  0  0  0  0  0  0  0  0
    1.0857   -2.6893   -2.1244 H   0  0  0  0  0  0  0  0  0  0  0  0
    2.7984    0.3690   -3.1914 H   0  0  0  0  0  0  0  0  0  0  0  0
    2.7169   -0.5148   -4.7270 H   0  0  0  0  0  0  0  0  0  0  0  0
    4.7239   -2.4693   -4.9261 H   0  0  0  0  0  0  0  0  0  0  0  0
    4.8709   -0.9871   -5.8802 H   0  0  0  0  0  0  0  0  0  0  0  0
    6.2444   -1.5650   -4.9265 H   0  0  0  0  0  0  0  0  0  0  0  0
    5.0000    1.3861   -2.9535 H   0  0  0  0  0  0  0  0  0  0  0  0
    6.4024    0.6977   -3.7822 H   0  0  0  0  0  0  0  0  0  0  0  0
    5.0179    1.2861   -4.7196 H   0  0  0  0  0  0  0  0  0  0  0  0
    5.6563   -2.2205   -2.6054 H   0  0  0  0  0  0  0  0  0  0  0  0
    5.5584   -0.7051   -1.7178 H   0  0  0  0  0  0  0  0  0  0  0  0
    3.7576   -2.8598   -1.4865 H   0  0  0  0  0  0  0  0  0  0  0  0
    2.2516   -2.5759    0.1367 H   0  0  0  0  0  0  0  0  0  0  0  0
    1.5093    0.0435    1.0929 H   0  0  0  0  0  0  0  0  0  0  0  0
    3.2688    0.4106    2.5028 H   0  0  0  0  0  0  0  0  0  0  0  0
    3.8638   -1.2480    2.4143 H   0  0  0  0  0  0  0  0  0  0  0  0
    2.4682   -0.1860    4.6082 H   0  0  0  0  0  0  0  0  0  0  0  0
    2.6670   -1.9136    4.2475 H   0  0  0  0  0  0  0  0  0  0  0  0
    0.2945   -1.7695    4.2584 H   0  0  0  0  0  0  0  0  0  0  0  0
   -0.9774   -0.5658    5.7280 H   0  0  0  0  0  0  0  0  0  0  0  0
   -3.4005   -0.4286    6.1800 H   0  0  0  0  0  0  0  0  0  0  0  0
   -4.9190    0.5469    4.4973 H   0  0  0  0  0  0  0  0  0  0  0  0
   -3.0730    3.2045    1.7092 H   0  0  0  0  0  0  0  0  0  0  0  0
   -6.8837    4.6583    0.4583 H   0  0  0  0  0  0  0  0  0  0  0  0
   -6.0521    4.6183    2.0380 H   0  0  0  0  0  0  0  0  0  0  0  0
   -6.9041    3.1573    1.4191 H   0  0  0  0  0  0  0  0  0  0  0  0
   -0.2905    2.8876    2.3713 H   0  0  0  0  0  0  0  0  0  0  0  0
    0.6862    3.7185    0.2693 H   0  0  0  0  0  0  0  0  0  0  0  0
    0.1542    2.5690   -1.8713 H   0  0  0  0  0  0  0  0  0  0  0  0
   -2.9036   -1.0754    1.1658 H   0  0  0  0  0  0  0  0  0  0  0  0
   -1.5426   -1.7514   -1.5459 H   0  0  0  0  0  0  0  0  0  0  0  0
   -1.6706   -2.7641   -0.0940 H   0  0  0  0  0  0  0  0  0  0  0  0
   -4.1537   -2.8648   -0.2876 H   0  0  0  0  0  0  0  0  0  0  0  0
   -3.8440   -2.5721   -2.0185 H   0  0  0  0  0  0  0  0  0  0  0  0
   -4.8202   -0.4642   -0.2718 H   0  0  0  0  0  0  0  0  0  0  0  0
   -3.7779   -0.1008   -1.6669 H   0  0  0  0  0  0  0  0  0  0  0  0
    1.0947   -2.7805    2.1934 H   0  0  0  0  0  0  0  0  0  0  0  0
   -0.1275   -1.6387    1.6092 H   0  0  0  0  0  0  0  0  0  0  0  0
  1  2  1  0
  2  3  1  0
  3  4  1  0
  4  5  1  0
  4  6  1  0
  4  7  1  0
  7  8  1  0
  8  9  1  0
  9 10  2  0
  9 11  1  0
 11 12  1  0
 12 13  1  0
 13 14  1  0
 14 15  1  0
 15 16  1  0
 16 17  1  0
 17 18  2  0
 18 19  1  0
 19 20  2  0
 20 21  1  0
 21 22  1  0
 22 23  2  0
 22 24  1  0
 24 25  1  0
 25 26  1  0
 25 27  2  0
 25 28  2  0
 21 29  2  0
 29 30  1  0
 30 31  2  0
 31 32  1  0
 32 33  2  0
 33 34  1  0
 34 35  1  0
 34 36  2  0
 36 37  1  0
 37 38  1  0
 38 39  1  0
 39 40  1  0
 15 41  1  0
  8  2  1  0
 41 12  1  0
 29 17  1  0
 36 30  1  0
 40 37  1  0
  1 42  1  0
  1 43  1  0
  1 44  1  0
  3 45  1  0
  3 46  1  0
  5 47  1  0
  5 48  1  0
  5 49  1  0
  6 50  1  0
  6 51  1  0
  6 52  1  0
  7 53  1  0
  7 54  1  0
  8 55  1  1
 11 56  1  0
 12 57  1  6
 13 58  1  0
 13 59  1  0
 14 60  1  0
 14 61  1  0
 15 62  1  1
 18 63  1  0
 19 64  1  0
 20 65  1  0
 24 66  1  0
 26 67  1  0
 26 68  1  0
 26 69  1  0
 31 70  1  0
 32 71  1  0
 33 72  1  0
 37 73  1  0
 38 74  1  0
 38 75  1  0
 39 76  1  0
 39 77  1  0
 40 78  1  0
 40 79  1  0
 41 80  1  0
 41 81  1  0
M  END
>  <mol_id>  (1) 
12327

>  <source_index>  (1) 
0

>  <layer>  (1) 
L3

>  <uniprot>  (1) 
Q92830

>  <paff>  (1) 
7.6108000000000002

>  <smiles>  (1) 
CN1CC(C)(C)C[C@H]1C(=O)N[C@@H]1CC[C@@H](Oc2cccc(C(=O)NS(C)(=O)=O)c2-c2cccc(F)c2C2CCC2)C1

$$$$
