L3:Q92830:125008


 49 56  0  0  0  0  0  0  0  0999 V2000
  -17.8089   -5.6911   13.4468 C   0  0  0  0  0  0  0  0  0  0  0  0
  -17.9710   -7.0729   13.5795 C   0  0  0  0  0  0  0  0  0  0  0  0
  -16.9510   -7.8593   14.1247 C   0  0  0  0  0  0  0  0  0  0  0  0
  -15.7500   -7.2734   14.5323 C   0  0  0  0  0  0  0  0  0  0  0  0
  -15.5710   -5.8791   14.4037 C   0  0  0  0  0  0  0  0  0  0  0  0
  -16.6109   -5.1027   13.8608 C   0  0  0  0  0  0  0  0  0  0  0  0
  -14.3157   -5.2186   14.8095 C   0  0  0  0  0  0  0  0  0  0  0  0
  -13.1077   -5.6831   14.2458 C   0  0  0  0  0  0  0  0  0  0  0  0
  -11.8876   -5.1094   14.5849 C   0  0  0  0  0  0  0  0  0  0  0  0
  -11.8633   -4.0654   15.4959 C   0  0  0  0  0  0  0  0  0  0  0  0
  -13.0542   -3.6034   16.0579 C   0  0  0  0  0  0  0  0  0  0  0  0
  -12.9564   -2.5993   16.9415 F   0  0  0  0  0  0  0  0  0  0  0  0
  -14.3194   -4.1440   15.7473 C   0  0  0  0  0  0  0  0  0  0  0  0
  -15.6889   -3.6085   16.4064 C   0  0  0  0  0  0  0  0  0  0  0  0
  -15.6501   -3.2507   17.9211 C   0  0  0  0  0  0  0  0  0  0  0  0
  -15.5748   -1.7673   17.5194 C   0  0  0  0  0  0  0  0  0  0  0  0
  -16.2012   -2.1616   16.1701 C   0  0  0  0  0  0  0  0  0  0  0  0
  -19.3634   -4.7692   11.5330 C   0  0  0  0  0  0  0  0  0  0  0  0
  -20.3834   -3.8851   11.4853 N   0  0  0  0  0  0  0  0  0  0  0  0
  -20.5245   -3.4744   12.7479 N   0  0  0  0  0  0  0  0  0  0  0  0
  -19.6340   -4.0162   13.6177 C   0  0  0  0  0  0  0  0  0  0  0  0
  -18.8618   -4.8804   12.8702 C   0  0  0  0  0  0  0  0  0  0  0  0
  -18.4679   -4.9277    9.3107 O   0  0  0  0  0  0  0  0  0  0  0  0
  -18.8795   -5.4622   10.3330 C   0  0  0  0  0  0  0  0  0  0  0  0
  -18.9051   -6.8172   10.3974 O   0  0  0  0  0  0  0  0  0  0  0  0
  -18.5576   -7.0931    9.5276 H   0  0  0  0  0  0  0  0  0  0  0  0
  -21.5451   -2.4803   13.1386 C   0  0  0  0  0  0  0  0  0  0  0  0
  -21.4109   -1.6498   14.3937 C   0  0  0  0  0  0  0  0  0  0  0  0
  -21.2990   -0.9918   13.0509 C   0  0  0  0  0  0  0  0  0  0  0  0
  -14.7026   -7.9628   15.0853 O   0  0  0  0  0  0  0  0  0  0  0  0
  -14.7651   -9.3878   15.1498 C   0  0  0  0  0  0  0  0  0  0  0  0
  -14.2157   -9.8022   16.5150 C   0  0  0  0  0  0  0  0  0  0  0  0
  -12.7003   -9.6594   16.3748 C   0  0  0  0  0  0  0  0  0  0  0  0
  -12.4051   -9.8149   14.8769 C   0  0  0  0  0  0  0  0  0  0  0  0
  -13.7643  -10.0458   14.2046 C   0  0  0  0  0  0  0  0  0  0  0  0
  -11.4722  -10.8900   14.6038 N   0  0  0  0  0  0  0  0  0  0  0  0
  -10.5126  -10.7960   13.6109 C   0  0  0  0  0  0  0  0  0  0  0  0
  -10.3916   -9.8116   12.8885 O   0  0  0  0  0  0  0  0  0  0  0  0
  -11.5646  -11.7777   15.0876 H   0  0  0  0  0  0  0  0  0  0  0  0
   -9.5969  -12.0148   13.5522 C   0  0  0  0  0  0  0  0  0  0  0  0
   -9.0060  -12.1275   12.3180 F   0  0  0  0  0  0  0  0  0  0  0  0
   -8.5158  -12.0246   14.6289 C   0  0  0  0  0  0  0  0  0  0  0  0
   -8.1695  -13.4416   14.8932 N   0  0  0  0  0  0  0  0  0  0  0  0
   -9.2451  -14.2307   14.2530 C   0  0  0  0  0  0  0  0  0  0  0  0
   -8.6174  -15.2018   13.2164 C   0  0  0  0  0  0  0  0  0  0  0  0
   -8.4782  -16.2465   14.3441 C   0  0  0  0  0  0  0  0  0  0  0  0
   -9.5549  -15.4669   15.1290 C   0  0  0  0  0  0  0  0  0  0  0  0
  -10.3552  -13.3013   13.8226 C   0  0  0  0  0  0  0  0  0  0  0  0
   -7.2322  -13.6234   14.5323 H   0  0  0  0  0  0  0  0  0  0  0  0
 23 24  2  0  0  0
 24 25  1  0  0  0
 24 18  1  0  0  0
 18 19  2  0  0  0
 19 20  1  0  0  0
 20 27  1  0  0  0
 27 28  1  0  0  0
 28 29  1  0  0  0
 20 21  1  0  0  0
 21 22  2  0  0  0
 22  1  1  0  0  0
  1  2  2  0  0  0
  2  3  1  0  0  0
  3  4  2  0  0  0
  4 30  1  0  0  0
 30 31  1  0  0  0
 31 32  1  0  0  0
 32 33  1  0  0  0
 33 34  1  0  0  0
 34 36  1  0  0  0
 36 37  1  0  0  0
 37 38  2  0  0  0
 37 40  1  0  0  0
 40 41  1  0  0  0
 40 42  1  0  0  0
 42 43  1  0  0  0
 43 44  1  0  0  0
 44 45  1  0  0  0
 45 46  1  0  0  0
 46 47  1  0  0  0
 44 48  1  0  0  0
 34 35  1  0  0  0
  4  5  1  0  0  0
  5  7  1  0  0  0
  7  8  2  0  0  0
  8  9  1  0  0  0
  9 10  2  0  0  0
 10 11  1  0  0  0
 11 12  1  0  0  0
 11 13  2  0  0  0
 13 14  1  0  0  0
 14 15  1  0  0  0
 15 16  1  0  0  0
 16 17  1  0  0  0
  5  6  2  0  0  0
 22 18  1  0  0  0
  6  1  1  0  0  0
 29 27  1  0  0  0
 35 31  1  0  0  0
 13  7  1  0  0  0
 17 14  1  0  0  0
 48 40  1  0  0  0
 47 44  1  0  0  0
 25 26  1  0  0  0
 36 39  1  0  0  0
 43 49  1  0  0  0
M  END
> <minimizedAffinity>
-8.55964

$$$$
