L3:Q92830:125008
     RDKit          3D

 86 93  0  0  0  0  0  0  0  0999 V2000
   -6.2014   -0.6373   -2.8622 O   0  0  0  0  0  0  0  0  0  0  0  0
   -6.9147   -0.0973   -2.0257 C   0  0  0  0  0  0  0  0  0  0  0  0
   -8.2383   -0.3951   -2.0050 O   0  0  0  0  0  0  0  0  0  0  0  0
   -6.4745    0.8686   -1.0120 C   0  0  0  0  0  0  0  0  0  0  0  0
   -7.3416    1.4511   -0.1558 N   0  0  0  0  0  0  0  0  0  0  0  0
   -6.5794    2.2516    0.5933 N   0  0  0  0  0  0  0  0  0  0  0  0
   -7.1463    3.0922    1.6678 C   0  0  0  0  0  0  0  0  0  0  0  0
   -8.0744    2.5270    2.7176 C   0  0  0  0  0  0  0  0  0  0  0  0
   -6.6977    2.9768    3.1063 C   0  0  0  0  0  0  0  0  0  0  0  0
   -5.2641    2.2509    0.2570 C   0  0  0  0  0  0  0  0  0  0  0  0
   -5.1454    1.3501   -0.7805 C   0  0  0  0  0  0  0  0  0  0  0  0
   -3.8764    1.0316   -1.4023 C   0  0  0  0  0  0  0  0  0  0  0  0
   -3.0887    2.0413   -1.9620 C   0  0  0  0  0  0  0  0  0  0  0  0
   -1.8575    1.7377   -2.5520 C   0  0  0  0  0  0  0  0  0  0  0  0
   -1.3933    0.4203   -2.5777 C   0  0  0  0  0  0  0  0  0  0  0  0
   -0.2071    0.0299   -3.1421 O   0  0  0  0  0  0  0  0  0  0  0  0
    0.8367    0.9912   -3.3009 C   0  0  2  0  0  0  0  0  0  0  0  0
    1.9840    0.2946   -4.0330 C   0  0  0  0  0  0  0  0  0  0  0  0
    2.6491   -0.5704   -2.9626 C   0  0  0  0  0  0  0  0  0  0  0  0
    2.3305    0.1077   -1.6233 C   0  0  1  0  0  0  0  0  0  0  0  0
    3.5246    0.4492   -0.8762 N   0  0  0  0  0  0  0  0  0  0  0  0
    3.4794    0.7996    0.4619 C   0  0  0  0  0  0  0  0  0  0  0  0
    2.4349    0.8589    1.1030 O   0  0  0  0  0  0  0  0  0  0  0  0
    4.8616    1.0466    1.0586 C   0  0  1  0  0  0  0  0  0  0  0  0
    5.6899    1.6536    0.1472 F   0  0  0  0  0  0  0  0  0  0  0  0
    4.8391    1.8704    2.3427 C   0  0  0  0  0  0  0  0  0  0  0  0
    6.0341    1.4885    3.1326 N   0  0  0  0  0  0  0  0  0  0  0  0
    6.5391    0.2501    2.4996 C   0  0  0  0  0  0  0  0  0  0  0  0
    8.0097    0.4694    2.0514 C   0  0  0  0  0  0  0  0  0  0  0  0
    8.4615   -0.0199    3.4438 C   0  0  0  0  0  0  0  0  0  0  0  0
    7.0813   -0.6941    3.5979 C   0  0  0  0  0  0  0  0  0  0  0  0
    5.5236   -0.2464    1.4978 C   0  0  0  0  0  0  0  0  0  0  0  0
    1.4932    1.3452   -1.9699 C   0  0  0  0  0  0  0  0  0  0  0  0
   -2.1772   -0.6103   -2.0156 C   0  0  0  0  0  0  0  0  0  0  0  0
   -1.7223   -2.0138   -2.0091 C   0  0  0  0  0  0  0  0  0  0  0  0
   -1.9880   -2.8040   -3.1483 C   0  0  0  0  0  0  0  0  0  0  0  0
   -1.5909   -4.1349   -3.2097 C   0  0  0  0  0  0  0  0  0  0  0  0
   -0.9257   -4.6908   -2.1286 C   0  0  0  0  0  0  0  0  0  0  0  0
   -0.6621   -3.9149   -0.9989 C   0  0  0  0  0  0  0  0  0  0  0  0
   -0.0264   -4.5197    0.0152 F   0  0  0  0  0  0  0  0  0  0  0  0
   -1.0371   -2.5601   -0.8838 C   0  0  0  0  0  0  0  0  0  0  0  0
   -0.7344   -1.6736    0.4274 C   0  0  0  0  0  0  0  0  0  0  0  0
   -1.8037   -1.6993    1.5586 C   0  0  0  0  0  0  0  0  0  0  0  0
   -0.8938   -2.6707    2.3306 C   0  0  0  0  0  0  0  0  0  0  0  0
    0.2866   -2.1277    1.5059 C   0  0  0  0  0  0  0  0  0  0  0  0
   -3.4167   -0.2877   -1.4337 C   0  0  0  0  0  0  0  0  0  0  0  0
   -8.3390   -1.0354   -2.7352 H   0  0  0  0  0  0  0  0  0  0  0  0
   -7.3862    4.0864    1.3037 H   0  0  0  0  0  0  0  0  0  0  0  0
   -8.2798    1.4620    2.6954 H   0  0  0  0  0  0  0  0  0  0  0  0
   -8.9197    3.1333    3.0210 H   0  0  0  0  0  0  0  0  0  0  0  0
   -6.6053    3.8897    3.6830 H   0  0  0  0  0  0  0  0  0  0  0  0
   -5.9755    2.2112    3.3670 H   0  0  0  0  0  0  0  0  0  0  0  0
   -4.5405    2.8575    0.7825 H   0  0  0  0  0  0  0  0  0  0  0  0
   -3.4305    3.0740   -1.9560 H   0  0  0  0  0  0  0  0  0  0  0  0
   -1.2926    2.5529   -2.9896 H   0  0  0  0  0  0  0  0  0  0  0  0
    0.5024    1.8585   -3.8779 H   0  0  0  0  0  0  0  0  0  0  0  0
    1.6429   -0.3153   -4.8755 H   0  0  0  0  0  0  0  0  0  0  0  0
    2.7011    1.0364   -4.4042 H   0  0  0  0  0  0  0  0  0  0  0  0
    3.7207   -0.6843   -3.1567 H   0  0  0  0  0  0  0  0  0  0  0  0
    2.2087   -1.5751   -2.9742 H   0  0  0  0  0  0  0  0  0  0  0  0
    1.7394   -0.5782   -1.0052 H   0  0  0  0  0  0  0  0  0  0  0  0
    4.4184    0.5209   -1.3524 H   0  0  0  0  0  0  0  0  0  0  0  0
    4.8610    2.9431    2.1241 H   0  0  0  0  0  0  0  0  0  0  0  0
    3.9539    1.6642    2.9537 H   0  0  0  0  0  0  0  0  0  0  0  0
    6.6918    2.2691    3.1313 H   0  0  0  0  0  0  0  0  0  0  0  0
    8.3277   -0.2029    1.2445 H   0  0  0  0  0  0  0  0  0  0  0  0
    8.3128    1.4855    1.7810 H   0  0  0  0  0  0  0  0  0  0  0  0
    9.3208   -0.6955    3.4514 H   0  0  0  0  0  0  0  0  0  0  0  0
    8.6415    0.7893    4.1606 H   0  0  0  0  0  0  0  0  0  0  0  0
    7.0886   -1.7504    3.3008 H   0  0  0  0  0  0  0  0  0  0  0  0
    6.6262   -0.6228    4.5904 H   0  0  0  0  0  0  0  0  0  0  0  0
    5.9878   -0.7809    0.6629 H   0  0  0  0  0  0  0  0  0  0  0  0
    4.7994   -0.9173    1.9762 H   0  0  0  0  0  0  0  0  0  0  0  0
    2.1362    2.2256   -2.0958 H   0  0  0  0  0  0  0  0  0  0  0  0
    0.7764    1.5645   -1.1728 H   0  0  0  0  0  0  0  0  0  0  0  0
   -2.5119   -2.3658   -3.9969 H   0  0  0  0  0  0  0  0  0  0  0  0
   -1.8020   -4.7298   -4.0935 H   0  0  0  0  0  0  0  0  0  0  0  0
   -0.6078   -5.7285   -2.1469 H   0  0  0  0  0  0  0  0  0  0  0  0
   -0.4980   -0.6434    0.1241 H   0  0  0  0  0  0  0  0  0  0  0  0
   -2.7874   -2.0964    1.2937 H   0  0  0  0  0  0  0  0  0  0  0  0
   -1.9379   -0.7304    2.0539 H   0  0  0  0  0  0  0  0  0  0  0  0
   -1.1203   -3.7268    2.1487 H   0  0  0  0  0  0  0  0  0  0  0  0
   -0.8325   -2.5053    3.4093 H   0  0  0  0  0  0  0  0  0  0  0  0
    0.7991   -1.2888    1.9934 H   0  0  0  0  0  0  0  0  0  0  0  0
    1.0477   -2.8527    1.2104 H   0  0  0  0  0  0  0  0  0  0  0  0
   -4.0178   -1.0841   -0.9979 H   0  0  0  0  0  0  0  0  0  0  0  0
  1  2  2  0
  2  3  1  0
  2  4  1  0
  4  5  2  0
  5  6  1  0
  6  7  1  0
  7  8  1  0
  8  9  1  0
  6 10  1  0
 10 11  2  0
 11 12  1  0
 12 13  2  0
 13 14  1  0
 14 15  2  0
 15 16  1  0
 16 17  1  0
 17 18  1  0
 18 19  1  0
 19 20  1  0
 20 21  1  0
 21 22  1  0
 22 23  2  0
 22 24  1  0
 24 25  1  6
 24 26  1  0
 26 27  1  0
 27 28  1  0
 28 29  1  0
 29 30  1  0
 30 31  1  0
 28 32  1  0
 20 33  1  0
 15 34  1  0
 34 35  1  0
 35 36  2  0
 36 37  1  0
 37 38  2  0
 38 39  1  0
 39 40  1  0
 39 41  2  0
 41 42  1  0
 42 43  1  0
 43 44  1  0
 44 45  1  0
 34 46  2  0
 11  4  1  0
 46 12  1  0
  9  7  1  0
 33 17  1  0
 41 35  1  0
 45 42  1  0
 32 24  1  0
 31 28  1  0
  3 47  1  0
  7 48  1  0
  8 49  1  0
  8 50  1  0
  9 51  1  0
  9 52  1  0
 10 53  1  0
 13 54  1  0
 14 55  1  0
 17 56  1  6
 18 57  1  0
 18 58  1  0
 19 59  1  0
 19 60  1  0
 20 61  1  1
 21 62  1  0
 26 63  1  0
 26 64  1  0
 27 65  1  0
 29 66  1  0
 29 67  1  0
 30 68  1  0
 30 69  1  0
 31 70  1  0
 31 71  1  0
 32 72  1  0
 32 73  1  0
 33 74  1  0
 33 75  1  0
 36 76  1  0
 37 77  1  0
 38 78  1  0
 42 79  1  0
 43 80  1  0
 43 81  1  0
 44 82  1  0
 44 83  1  0
 45 84  1  0
 45 85  1  0
 46 86  1  0
M  END
>  <mol_id>  (1) 
125008

>  <source_index>  (1) 
8

>  <layer>  (1) 
L3

>  <uniprot>  (1) 
Q92830

>  <paff>  (1) 
10.0969

>  <smiles>  (1) 
O=C(O)c1nn(C2CC2)cc1-c1ccc(O[C@@H]2CC[C@@H](NC(=O)[C@@]3(F)CNC4(CCC4)C3)C2)c(-c2cccc(F)c2C2CCC2)c1

$$$$
