L3:Q92830:127198
     RDKit          3D

 83 87  0  0  0  0  0  0  0  0999 V2000
    5.5133   -1.6034   -2.1179 H   0  0  0  0  0  0  0  0  0  0  0  0
    5.8662   -0.5666   -2.1119 C   0  0  0  0  0  0  0  0  0  0  0  0
    5.0137    0.0954   -2.2981 H   0  0  0  0  0  0  0  0  0  0  0  0
    6.5546   -0.4653   -2.9584 H   0  0  0  0  0  0  0  0  0  0  0  0
    6.5604   -0.2706   -0.8704 N   0  0  0  0  0  0  0  0  0  0  0  0
    7.0211    1.1182   -0.7991 C   0  0  0  0  0  0  0  0  0  0  0  0
    7.5236    1.2277    0.6475 C   0  0  0  0  0  0  0  0  0  0  0  0
    7.4316    2.6674    1.1589 C   0  0  0  0  0  0  0  0  0  0  0  0
    8.9822    0.7455    0.7562 C   0  0  0  0  0  0  0  0  0  0  0  0
    6.5927    0.2764    1.4325 C   0  0  0  0  0  0  0  0  0  0  0  0
    5.7903   -0.4941    0.3738 C   0  0  1  0  0  0  0  0  0  0  0  0
    4.3356    0.0269    0.2925 C   0  0  0  0  0  0  0  0  0  0  0  0
    4.0135    1.1926    0.5078 O   0  0  0  0  0  0  0  0  0  0  0  0
    3.4209   -0.9431   -0.0797 N   0  0  0  0  0  0  0  0  0  0  0  0
    2.0100   -0.6492   -0.2053 C   0  0  2  0  0  0  0  0  0  0  0  0
    1.2833   -0.6928    1.1381 C   0  0  0  0  0  0  0  0  0  0  0  0
   -0.1692   -0.8723    0.7282 C   0  0  0  0  0  0  0  0  0  0  0  0
   -0.0763   -1.9083   -0.3970 C   0  0  1  0  0  0  0  0  0  0  0  0
   -1.1433   -2.0531   -1.3349 O   0  0  0  0  0  0  0  0  0  0  0  0
   -1.9819   -0.9834   -1.4802 C   0  0  0  0  0  0  0  0  0  0  0  0
   -1.5924    0.0770   -2.2982 C   0  0  0  0  0  0  0  0  0  0  0  0
   -2.4508    1.1594   -2.5073 C   0  0  0  0  0  0  0  0  0  0  0  0
   -3.7254    1.1921   -1.9246 C   0  0  0  0  0  0  0  0  0  0  0  0
   -4.7072    2.3583   -2.1315 C   0  0  0  0  0  0  0  0  0  0  0  0
   -5.8976    1.8596   -2.9792 C   0  0  0  0  0  0  0  0  0  0  0  0
   -4.1086    3.5788   -2.8641 C   0  0  0  0  0  0  0  0  0  0  0  0
   -5.2339    2.8620   -0.7803 C   0  0  0  0  0  0  0  0  0  0  0  0
   -6.3693    2.7418   -0.3457 O   0  0  0  0  0  0  0  0  0  0  0  0
   -4.2935    3.4667   -0.0232 O   0  0  0  0  0  0  0  0  0  0  0  0
   -4.1123    0.0868   -1.1357 C   0  0  0  0  0  0  0  0  0  0  0  0
   -3.2573   -1.0061   -0.8931 C   0  0  0  0  0  0  0  0  0  0  0  0
   -3.7229   -2.1318   -0.0562 C   0  0  0  0  0  0  0  0  0  0  0  0
   -3.9274   -3.3832   -0.6808 C   0  0  0  0  0  0  0  0  0  0  0  0
   -4.3776   -4.4877    0.0342 C   0  0  0  0  0  0  0  0  0  0  0  0
   -4.6333   -4.3548    1.3884 C   0  0  0  0  0  0  0  0  0  0  0  0
   -4.4343   -3.1244    2.0145 C   0  0  0  0  0  0  0  0  0  0  0  0
   -4.7027   -3.0633    3.3269 F   0  0  0  0  0  0  0  0  0  0  0  0
   -3.9747   -1.9719    1.3403 C   0  0  0  0  0  0  0  0  0  0  0  0
   -3.7493   -0.5661    2.0962 C   0  0  0  0  0  0  0  0  0  0  0  0
   -4.9986    0.3172    2.3665 C   0  0  0  0  0  0  0  0  0  0  0  0
   -4.9386   -0.1071    3.8419 C   0  0  0  0  0  0  0  0  0  0  0  0
   -3.4697   -0.5062    3.6210 C   0  0  0  0  0  0  0  0  0  0  0  0
    1.2671   -1.6518   -1.0946 C   0  0  0  0  0  0  0  0  0  0  0  0
    6.2029    1.8233   -0.9937 H   0  0  0  0  0  0  0  0  0  0  0  0
    7.8169    1.3152   -1.5262 H   0  0  0  0  0  0  0  0  0  0  0  0
    6.4036    3.0432    1.1079 H   0  0  0  0  0  0  0  0  0  0  0  0
    8.0604    3.3378    0.5628 H   0  0  0  0  0  0  0  0  0  0  0  0
    7.7583    2.7364    2.2024 H   0  0  0  0  0  0  0  0  0  0  0  0
    9.0969   -0.2858    0.4044 H   0  0  0  0  0  0  0  0  0  0  0  0
    9.6493    1.3762    0.1580 H   0  0  0  0  0  0  0  0  0  0  0  0
    9.3310    0.7825    1.7945 H   0  0  0  0  0  0  0  0  0  0  0  0
    7.1792   -0.4276    2.0361 H   0  0  0  0  0  0  0  0  0  0  0  0
    5.9433    0.8207    2.1274 H   0  0  0  0  0  0  0  0  0  0  0  0
    5.7734   -1.5618    0.6216 H   0  0  0  0  0  0  0  0  0  0  0  0
    3.7506   -1.8889   -0.2279 H   0  0  0  0  0  0  0  0  0  0  0  0
    1.9010    0.3543   -0.6376 H   0  0  0  0  0  0  0  0  0  0  0  0
    1.6197   -1.5448    1.7421 H   0  0  0  0  0  0  0  0  0  0  0  0
    1.4388    0.2172    1.7259 H   0  0  0  0  0  0  0  0  0  0  0  0
   -0.5785    0.0868    0.3964 H   0  0  0  0  0  0  0  0  0  0  0  0
   -0.7871   -1.2279    1.5578 H   0  0  0  0  0  0  0  0  0  0  0  0
    0.0008   -2.8915    0.0879 H   0  0  0  0  0  0  0  0  0  0  0  0
   -0.6232    0.0665   -2.7866 H   0  0  0  0  0  0  0  0  0  0  0  0
   -2.0971    1.9653   -3.1449 H   0  0  0  0  0  0  0  0  0  0  0  0
   -6.6202    2.6647   -3.1592 H   0  0  0  0  0  0  0  0  0  0  0  0
   -5.5622    1.4853   -3.9537 H   0  0  0  0  0  0  0  0  0  0  0  0
   -6.4452    1.0478   -2.4864 H   0  0  0  0  0  0  0  0  0  0  0  0
   -3.2155    3.9631   -2.3573 H   0  0  0  0  0  0  0  0  0  0  0  0
   -4.8301    4.4039   -2.9072 H   0  0  0  0  0  0  0  0  0  0  0  0
   -3.8292    3.3348   -3.8956 H   0  0  0  0  0  0  0  0  0  0  0  0
   -4.7645    3.6962    0.8048 H   0  0  0  0  0  0  0  0  0  0  0  0
   -5.1104    0.0657   -0.6962 H   0  0  0  0  0  0  0  0  0  0  0  0
   -3.7287   -3.4913   -1.7468 H   0  0  0  0  0  0  0  0  0  0  0  0
   -4.5278   -5.4404   -0.4655 H   0  0  0  0  0  0  0  0  0  0  0  0
   -4.9886   -5.1982    1.9720 H   0  0  0  0  0  0  0  0  0  0  0  0
   -2.9701    0.0093    1.5763 H   0  0  0  0  0  0  0  0  0  0  0  0
   -5.9160    0.0372    1.8413 H   0  0  0  0  0  0  0  0  0  0  0  0
   -4.8175    1.3868    2.2095 H   0  0  0  0  0  0  0  0  0  0  0  0
   -5.1040    0.6928    4.5685 H   0  0  0  0  0  0  0  0  0  0  0  0
   -5.6009   -0.9437    4.0870 H   0  0  0  0  0  0  0  0  0  0  0  0
   -2.7615    0.2854    3.8969 H   0  0  0  0  0  0  0  0  0  0  0  0
   -3.1454   -1.4292    4.1075 H   0  0  0  0  0  0  0  0  0  0  0  0
    1.8134   -2.5982   -1.1910 H   0  0  0  0  0  0  0  0  0  0  0  0
    1.1526   -1.2619   -2.1109 H   0  0  0  0  0  0  0  0  0  0  0  0
  1  2  1  0
  2  3  1  0
  2  4  1  0
  2  5  1  0
  5  6  1  0
  6  7  1  0
  7  8  1  0
  7  9  1  0
  7 10  1  0
 10 11  1  0
 11 12  1  0
 12 13  2  0
 12 14  1  0
 14 15  1  0
 15 16  1  0
 16 17  1  0
 17 18  1  0
 18 19  1  0
 19 20  1  0
 20 21  2  0
 21 22  1  0
 22 23  2  0
 23 24  1  0
 24 25  1  0
 24 26  1  0
 24 27  1  0
 27 28  2  0
 27 29  1  0
 23 30  1  0
 30 31  2  0
 31 32  1  0
 32 33  2  0
 33 34  1  0
 34 35  2  0
 35 36  1  0
 36 37  1  0
 36 38  2  0
 38 39  1  0
 39 40  1  0
 40 41  1  0
 41 42  1  0
 18 43  1  0
 11  5  1  0
 43 15  1  0
 31 20  1  0
 38 32  1  0
 42 39  1  0
  6 44  1  0
  6 45  1  0
  8 46  1  0
  8 47  1  0
  8 48  1  0
  9 49  1  0
  9 50  1  0
  9 51  1  0
 10 52  1  0
 10 53  1  0
 11 54  1  1
 14 55  1  0
 15 56  1  6
 16 57  1  0
 16 58  1  0
 17 59  1  0
 17 60  1  0
 18 61  1  1
 21 62  1  0
 22 63  1  0
 25 64  1  0
 25 65  1  0
 25 66  1  0
 26 67  1  0
 26 68  1  0
 26 69  1  0
 29 70  1  0
 30 71  1  0
 33 72  1  0
 34 73  1  0
 35 74  1  0
 39 75  1  0
 40 76  1  0
 40 77  1  0
 41 78  1  0
 41 79  1  0
 42 80  1  0
 42 81  1  0
 43 82  1  0
 43 83  1  0
M  ISO  3   1   2   3   2   4   2
M  END
>  <mol_id>  (1) 
127198

>  <source_index>  (1) 
9

>  <layer>  (1) 
L3

>  <uniprot>  (1) 
Q92830

>  <paff>  (1) 
8.0520999999999994

>  <smiles>  (1) 
[2H]C([2H])([2H])N1CC(C)(C)C[C@H]1C(=O)N[C@@H]1CC[C@@H](Oc2ccc(C(C)(C)C(=O)O)cc2-c2cccc(F)c2C2CCC2)C1

$$$$
