L3:Q92830:127198


 45 49  0  0  0  0  0  0  0  0999 V2000
  -21.3077   -9.5560    7.8639 C   0  0  0  0  0  0  0  0  0  0  0  0
  -21.6350   -8.2793    7.4077 C   0  0  0  0  0  0  0  0  0  0  0  0
  -21.2048   -7.1483    8.1062 C   0  0  0  0  0  0  0  0  0  0  0  0
  -20.4612   -7.2702    9.2883 C   0  0  0  0  0  0  0  0  0  0  0  0
  -20.1796   -8.5738    9.7522 C   0  0  0  0  0  0  0  0  0  0  0  0
  -20.5842   -9.7290    9.0550 C   0  0  0  0  0  0  0  0  0  0  0  0
  -20.2558  -11.0655    9.5939 C   0  0  0  0  0  0  0  0  0  0  0  0
  -18.9822  -11.6046    9.3016 C   0  0  0  0  0  0  0  0  0  0  0  0
  -18.6022  -12.8613    9.7598 C   0  0  0  0  0  0  0  0  0  0  0  0
  -19.4950  -13.6005   10.5170 C   0  0  0  0  0  0  0  0  0  0  0  0
  -20.7541  -13.0775   10.8115 C   0  0  0  0  0  0  0  0  0  0  0  0
  -21.5709  -13.8455   11.5471 F   0  0  0  0  0  0  0  0  0  0  0  0
  -21.1914  -11.8069   10.3775 C   0  0  0  0  0  0  0  0  0  0  0  0
  -22.6519  -11.2298   10.7414 C   0  0  0  0  0  0  0  0  0  0  0  0
  -23.8569  -11.7293    9.8973 C   0  0  0  0  0  0  0  0  0  0  0  0
  -24.2765  -12.6148   11.0806 C   0  0  0  0  0  0  0  0  0  0  0  0
  -23.4231  -11.7197   11.9951 C   0  0  0  0  0  0  0  0  0  0  0  0
  -19.9719   -6.0549   10.0948 C   0  0  0  0  0  0  0  0  0  0  0  0
  -19.1631   -5.1316    9.1580 C   0  0  0  0  0  0  0  0  0  0  0  0
  -19.0567   -6.4034   11.2888 C   0  0  0  0  0  0  0  0  0  0  0  0
  -21.1646   -5.2707   10.6596 C   0  0  0  0  0  0  0  0  0  0  0  0
  -22.1231   -4.8436   10.0339 O   0  0  0  0  0  0  0  0  0  0  0  0
  -21.1099   -5.0891   11.9965 O   0  0  0  0  0  0  0  0  0  0  0  0
  -21.9404   -4.6138   12.2073 H   0  0  0  0  0  0  0  0  0  0  0  0
  -21.7855  -10.6451    7.1900 O   0  0  0  0  0  0  0  0  0  0  0  0
  -19.3646  -11.8630    4.7720 C   0  0  0  0  0  0  0  0  0  0  0  0
  -20.6421  -12.1602    3.9882 C   0  0  0  0  0  0  0  0  0  0  0  0
  -21.7191  -12.0757    5.0572 C   0  0  0  0  0  0  0  0  0  0  0  0
  -21.2992  -10.8409    5.8617 C   0  0  0  0  0  0  0  0  0  0  0  0
  -19.7655  -10.8025    5.8029 C   0  0  0  0  0  0  0  0  0  0  0  0
  -17.3905  -12.3426    3.3628 C   0  0  0  0  0  0  0  0  0  0  0  0
  -17.4509  -13.5492    3.5850 O   0  0  0  0  0  0  0  0  0  0  0  0
  -18.2785  -11.4367    3.9168 N   0  0  0  0  0  0  0  0  0  0  0  0
  -18.1817  -10.4569    3.6808 H   0  0  0  0  0  0  0  0  0  0  0  0
  -16.8197  -13.5267    0.5120 H   0  0  0  0  0  0  0  0  0  0  0  0
  -17.4340  -12.6213    0.4651 C   0  0  0  0  0  0  0  0  0  0  0  0
  -18.4030  -12.8301    0.9311 H   0  0  0  0  0  0  0  0  0  0  0  0
  -17.6144  -12.4200   -0.5968 H   0  0  0  0  0  0  0  0  0  0  0  0
  -16.7373  -11.4994    1.0708 N   0  0  0  0  0  0  0  0  0  0  0  0
  -17.5348  -10.2706    1.0649 C   0  0  0  0  0  0  0  0  0  0  0  0
  -16.6843   -9.3185    1.9179 C   0  0  0  0  0  0  0  0  0  0  0  0
  -17.5530   -8.2567    2.5967 C   0  0  0  0  0  0  0  0  0  0  0  0
  -15.6157   -8.6210    1.0557 C   0  0  0  0  0  0  0  0  0  0  0  0
  -16.0070  -10.2526    2.9458 C   0  0  0  0  0  0  0  0  0  0  0  0
  -16.3079  -11.6831    2.4754 C   0  0  0  0  0  0  0  0  0  0  0  0
 35 36  1  0  0  0
 36 37  1  0  0  0
 36 38  1  0  0  0
 36 39  1  0  0  0
 39 40  1  0  0  0
 40 41  1  0  0  0
 41 42  1  0  0  0
 41 43  1  0  0  0
 41 44  1  0  0  0
 44 45  1  0  0  0
 45 31  1  0  0  0
 31 32  2  0  0  0
 31 33  1  0  0  0
 33 26  1  0  0  0
 26 27  1  0  0  0
 27 28  1  0  0  0
 28 29  1  0  0  0
 29 25  1  0  0  0
 25  1  1  0  0  0
  1  2  2  0  0  0
  2  3  1  0  0  0
  3  4  2  0  0  0
  4 18  1  0  0  0
 18 19  1  0  0  0
 18 20  1  0  0  0
 18 21  1  0  0  0
 21 22  2  0  0  0
 21 23  1  0  0  0
  4  5  1  0  0  0
  5  6  2  0  0  0
  6  7  1  0  0  0
  7  8  2  0  0  0
  8  9  1  0  0  0
  9 10  2  0  0  0
 10 11  1  0  0  0
 11 12  1  0  0  0
 11 13  2  0  0  0
 13 14  1  0  0  0
 14 15  1  0  0  0
 15 16  1  0  0  0
 16 17  1  0  0  0
 29 30  1  0  0  0
 45 39  1  0  0  0
 30 26  1  0  0  0
  6  1  1  0  0  0
 13  7  1  0  0  0
 17 14  1  0  0  0
 33 34  1  0  0  0
 23 24  1  0  0  0
M  ISO 1  35   2
M  ISO 1  37   2
M  ISO 1  38   2
M  END
> <minimizedAffinity>
-7.94658

$$$$
