L3:Q92830:23850
     RDKit          3D

 87 91  0  0  0  0  0  0  0  0999 V2000
    9.3566    1.6244    1.4888 C   0  0  0  0  0  0  0  0  0  0  0  0
    8.8962    0.2347    1.1130 C   0  0  0  0  0  0  0  0  0  0  0  0
    7.3190   -0.2411    1.8095 S   0  0  0  0  0  6  0  0  0  0  0  0
    7.3293   -0.0488    3.2406 O   0  0  0  0  0  0  0  0  0  0  0  0
    6.9867   -1.5367    1.2499 O   0  0  0  0  0  0  0  0  0  0  0  0
    6.2318    0.7926    1.1092 N   0  0  0  0  0  0  0  0  0  0  0  0
    5.8706    2.0611    1.6076 C   0  0  0  0  0  0  0  0  0  0  0  0
    6.5803    2.6880    2.3817 O   0  0  0  0  0  0  0  0  0  0  0  0
    4.5615    2.6216    1.0374 C   0  0  2  0  0  0  0  0  0  0  0  0
    4.1911    3.9579    1.6832 C   0  0  0  0  0  0  0  0  0  0  0  0
    3.4180    1.6249    1.1475 C   0  0  0  0  0  0  0  0  0  0  0  0
    2.9895    1.1427    2.3900 C   0  0  0  0  0  0  0  0  0  0  0  0
    1.9612    0.2017    2.4695 C   0  0  0  0  0  0  0  0  0  0  0  0
    1.3376   -0.2663    1.3095 C   0  0  0  0  0  0  0  0  0  0  0  0
    0.3604   -1.2288    1.3527 O   0  0  0  0  0  0  0  0  0  0  0  0
   -0.7219   -0.9805    2.2570 C   0  0  2  0  0  0  0  0  0  0  0  0
   -1.4797   -2.2928    2.4490 C   0  0  0  0  0  0  0  0  0  0  0  0
   -2.3130   -2.4443    1.1775 C   0  0  0  0  0  0  0  0  0  0  0  0
   -2.5137   -1.0221    0.6380 C   0  0  1  0  0  0  0  0  0  0  0  0
   -3.9138   -0.6699    0.5047 N   0  0  0  0  0  0  0  0  0  0  0  0
   -4.3345    0.3863   -0.2853 C   0  0  0  0  0  0  0  0  0  0  0  0
   -3.5644    1.0898   -0.9320 O   0  0  0  0  0  0  0  0  0  0  0  0
   -5.8528    0.5404   -0.3078 C   0  0  1  0  0  0  0  0  0  0  0  0
   -6.3940    0.2548    0.9215 F   0  0  0  0  0  0  0  0  0  0  0  0
   -6.3257    1.9216   -0.7545 C   0  0  0  0  0  0  0  0  0  0  0  0
   -7.6532    1.7534   -1.3930 N   0  0  0  0  0  0  0  0  0  0  0  0
   -7.8229    0.2942   -1.5623 C   0  0  0  0  0  0  0  0  0  0  0  0
   -9.0753   -0.1696   -0.7701 C   0  0  0  0  0  0  0  0  0  0  0  0
   -9.9211    0.1035   -2.0321 C   0  0  0  0  0  0  0  0  0  0  0  0
   -8.6200    0.0238   -2.8593 C   0  0  0  0  0  0  0  0  0  0  0  0
   -6.4967   -0.3865   -1.3225 C   0  0  0  0  0  0  0  0  0  0  0  0
   -1.7838   -0.0936    1.6159 C   0  0  0  0  0  0  0  0  0  0  0  0
    1.7859    0.1616    0.0441 C   0  0  0  0  0  0  0  0  0  0  0  0
    1.1837   -0.3187   -1.2121 C   0  0  0  0  0  0  0  0  0  0  0  0
    0.0726    0.4055   -1.6999 C   0  0  0  0  0  0  0  0  0  0  0  0
   -0.5773    0.0544   -2.8813 C   0  0  0  0  0  0  0  0  0  0  0  0
   -0.1198   -1.0265   -3.6161 C   0  0  0  0  0  0  0  0  0  0  0  0
    0.9844   -1.7498   -3.1656 C   0  0  0  0  0  0  0  0  0  0  0  0
    1.6573   -1.4224   -1.9635 C   0  0  0  0  0  0  0  0  0  0  0  0
    2.8664   -2.2921   -1.6198 C   0  0  0  0  0  0  0  0  0  0  0  0
    2.8944   -2.8669   -0.2036 C   0  0  0  0  0  0  0  0  0  0  0  0
    4.1853   -1.5944   -1.9607 C   0  0  0  0  0  0  0  0  0  0  0  0
    2.8022    1.1337   -0.0139 C   0  0  0  0  0  0  0  0  0  0  0  0
    9.3300    1.7787    2.5716 H   0  0  0  0  0  0  0  0  0  0  0  0
    8.7346    2.3885    1.0151 H   0  0  0  0  0  0  0  0  0  0  0  0
   10.3844    1.7846    1.1477 H   0  0  0  0  0  0  0  0  0  0  0  0
    9.6176   -0.5053    1.4761 H   0  0  0  0  0  0  0  0  0  0  0  0
    8.8227    0.1258    0.0264 H   0  0  0  0  0  0  0  0  0  0  0  0
    5.5824    0.2946    0.5034 H   0  0  0  0  0  0  0  0  0  0  0  0
    4.7635    2.8187   -0.0245 H   0  0  0  0  0  0  0  0  0  0  0  0
    4.0511    3.8637    2.7659 H   0  0  0  0  0  0  0  0  0  0  0  0
    4.9824    4.6983    1.5212 H   0  0  0  0  0  0  0  0  0  0  0  0
    3.2643    4.3579    1.2573 H   0  0  0  0  0  0  0  0  0  0  0  0
    3.4628    1.4776    3.3124 H   0  0  0  0  0  0  0  0  0  0  0  0
    1.6881   -0.1839    3.4470 H   0  0  0  0  0  0  0  0  0  0  0  0
   -0.3885   -0.5970    3.2252 H   0  0  0  0  0  0  0  0  0  0  0  0
   -0.8146   -3.1506    2.5896 H   0  0  0  0  0  0  0  0  0  0  0  0
   -2.1460   -2.2199    3.3167 H   0  0  0  0  0  0  0  0  0  0  0  0
   -3.2489   -2.9761    1.3783 H   0  0  0  0  0  0  0  0  0  0  0  0
   -1.7553   -3.0360    0.4410 H   0  0  0  0  0  0  0  0  0  0  0  0
   -2.0593   -0.9531   -0.3554 H   0  0  0  0  0  0  0  0  0  0  0  0
   -4.6077   -1.1293    1.0862 H   0  0  0  0  0  0  0  0  0  0  0  0
   -5.6554    2.3736   -1.4930 H   0  0  0  0  0  0  0  0  0  0  0  0
   -6.4042    2.6040    0.0983 H   0  0  0  0  0  0  0  0  0  0  0  0
   -8.3601    2.2069   -0.8131 H   0  0  0  0  0  0  0  0  0  0  0  0
   -9.3520    0.4001    0.1222 H   0  0  0  0  0  0  0  0  0  0  0  0
   -9.0540   -1.2326   -0.4983 H   0  0  0  0  0  0  0  0  0  0  0  0
  -10.3930    1.0925   -2.0433 H   0  0  0  0  0  0  0  0  0  0  0  0
  -10.6770   -0.6506   -2.2666 H   0  0  0  0  0  0  0  0  0  0  0  0
   -8.5260    0.7551   -3.6678 H   0  0  0  0  0  0  0  0  0  0  0  0
   -8.4440   -0.9744   -3.2795 H   0  0  0  0  0  0  0  0  0  0  0  0
   -6.6138   -1.4056   -0.9406 H   0  0  0  0  0  0  0  0  0  0  0  0
   -5.9075   -0.4302   -2.2469 H   0  0  0  0  0  0  0  0  0  0  0  0
   -1.3660    0.7760    1.1005 H   0  0  0  0  0  0  0  0  0  0  0  0
   -2.4735    0.2732    2.3868 H   0  0  0  0  0  0  0  0  0  0  0  0
   -0.3098    1.2573   -1.1380 H   0  0  0  0  0  0  0  0  0  0  0  0
   -1.4425    0.6235   -3.2119 H   0  0  0  0  0  0  0  0  0  0  0  0
   -0.6183   -1.3095   -4.5389 H   0  0  0  0  0  0  0  0  0  0  0  0
    1.3241   -2.5888   -3.7712 H   0  0  0  0  0  0  0  0  0  0  0  0
    2.8180   -3.1766   -2.2713 H   0  0  0  0  0  0  0  0  0  0  0  0
    3.2164   -2.1326    0.5383 H   0  0  0  0  0  0  0  0  0  0  0  0
    1.9153   -3.2612    0.0872 H   0  0  0  0  0  0  0  0  0  0  0  0
    3.6130   -3.6930   -0.1494 H   0  0  0  0  0  0  0  0  0  0  0  0
    4.1849   -1.2328   -2.9948 H   0  0  0  0  0  0  0  0  0  0  0  0
    5.0258   -2.2885   -1.8502 H   0  0  0  0  0  0  0  0  0  0  0  0
    4.3808   -0.7399   -1.3092 H   0  0  0  0  0  0  0  0  0  0  0  0
    3.1168    1.4964   -0.9925 H   0  0  0  0  0  0  0  0  0  0  0  0
  1  2  1  0
  2  3  1  0
  3  4  2  0
  3  5  2  0
  3  6  1  0
  6  7  1  0
  7  8  2  0
  7  9  1  0
  9 10  1  0
  9 11  1  0
 11 12  2  0
 12 13  1  0
 13 14  2  0
 14 15  1  0
 15 16  1  0
 16 17  1  0
 17 18  1  0
 18 19  1  0
 19 20  1  0
 20 21  1  0
 21 22  2  0
 21 23  1  0
 23 24  1  1
 23 25  1  0
 25 26  1  0
 26 27  1  0
 27 28  1  0
 28 29  1  0
 29 30  1  0
 27 31  1  0
 19 32  1  0
 14 33  1  0
 33 34  1  0
 34 35  2  0
 35 36  1  0
 36 37  2  0
 37 38  1  0
 38 39  2  0
 39 40  1  0
 40 41  1  0
 40 42  1  0
 33 43  2  0
 43 11  1  0
 32 16  1  0
 39 34  1  0
 31 23  1  0
 30 27  1  0
  1 44  1  0
  1 45  1  0
  1 46  1  0
  2 47  1  0
  2 48  1  0
  6 49  1  0
  9 50  1  6
 10 51  1  0
 10 52  1  0
 10 53  1  0
 12 54  1  0
 13 55  1  0
 16 56  1  1
 17 57  1  0
 17 58  1  0
 18 59  1  0
 18 60  1  0
 19 61  1  6
 20 62  1  0
 25 63  1  0
 25 64  1  0
 26 65  1  0
 28 66  1  0
 28 67  1  0
 29 68  1  0
 29 69  1  0
 30 70  1  0
 30 71  1  0
 31 72  1  0
 31 73  1  0
 32 74  1  0
 32 75  1  0
 35 76  1  0
 36 77  1  0
 37 78  1  0
 38 79  1  0
 40 80  1  0
 41 81  1  0
 41 82  1  0
 41 83  1  0
 42 84  1  0
 42 85  1  0
 42 86  1  0
 43 87  1  0
M  END
>  <mol_id>  (1) 
23850

>  <source_index>  (1) 
1

>  <layer>  (1) 
L3

>  <uniprot>  (1) 
Q92830

>  <paff>  (1) 
9.6777999999999995

>  <smiles>  (1) 
CCS(=O)(=O)NC(=O)[C@H](C)c1ccc(O[C@@H]2CC[C@@H](NC(=O)[C@@]3(F)CNC4(CCC4)C3)C2)c(-c2ccccc2C(C)C)c1

$$$$
