L3:Q92830:23850
 OpenBabel09212617483D

 87 91  0  0  0  0  0  0  0  0999 V2000
  -17.7546  -14.7837    5.7359 C   0  0  0  0  0  0  0  0  0  0  0  0
  -17.7477  -15.1669    7.0824 C   0  0  0  0  0  0  0  0  0  0  0  0
  -18.5794  -14.5301    8.0054 C   0  0  0  0  0  0  0  0  0  0  0  0
  -19.4250  -13.4937    7.6004 C   0  0  0  0  0  0  0  0  0  0  0  0
  -19.4911  -13.1252    6.2420 C   0  0  0  0  0  0  0  0  0  0  0  0
  -18.6225  -13.7573    5.3326 C   0  0  0  0  0  0  0  0  0  0  0  0
  -20.3834  -12.0585    5.7546 C   0  0  0  0  0  0  0  0  0  0  0  0
  -19.8065  -10.7805    5.5790 C   0  0  0  0  0  0  0  0  0  0  0  0
  -20.5453   -9.6937    5.1160 C   0  0  0  0  0  0  0  0  0  0  0  0
  -21.8830   -9.8630    4.8007 C   0  0  0  0  0  0  0  0  0  0  0  0
  -22.4741  -11.1174    4.9502 C   0  0  0  0  0  0  0  0  0  0  0  0
  -21.7506  -12.2365    5.4289 C   0  0  0  0  0  0  0  0  0  0  0  0
  -22.5312  -13.5482    5.5101 C   0  0  0  0  0  0  0  0  0  0  0  0
  -23.4743  -13.8373    4.3423 C   0  0  0  0  0  0  0  0  0  0  0  0
  -23.2491  -13.7015    6.8531 C   0  0  0  0  0  0  0  0  0  0  0  0
  -16.8839  -15.4898    4.7081 C   0  0  1  0  0  0  0  0  0  0  0  0
  -17.7352  -16.1125    3.6002 C   0  0  0  0  0  0  0  0  0  0  0  0
  -14.8986  -14.0583    5.0949 N   0  0  0  0  0  0  0  0  0  0  0  0
  -15.8014  -14.5647    4.1376 C   0  0  0  0  0  0  0  0  0  0  0  0
  -15.6868  -14.3345    2.9419 O   0  0  0  0  0  0  0  0  0  0  0  0
  -15.0673  -14.2429    6.0819 H   0  0  0  0  0  0  0  0  0  0  0  0
  -13.9122  -12.7452    4.8855 S   0  0  0  0  0  0  0  0  0  0  0  0
  -14.6022  -11.7273    4.1287 O   0  0  0  0  0  0  0  0  0  0  0  0
  -13.4204  -12.4557    6.2184 O   0  0  0  0  0  0  0  0  0  0  0  0
  -11.5340  -14.1812    4.7555 C   0  0  0  0  0  0  0  0  0  0  0  0
  -12.5260  -13.3762    3.9478 C   0  0  0  0  0  0  0  0  0  0  0  0
  -20.2907  -12.8845    8.4737 O   0  0  0  0  0  0  0  0  0  0  0  0
  -19.6858  -12.1086    9.5143 C   0  0  2  0  0  0  0  0  0  0  0  0
  -20.7236  -11.9203   10.6191 C   0  0  0  0  0  0  0  0  0  0  0  0
  -21.6616  -10.8395   10.0842 C   0  0  0  0  0  0  0  0  0  0  0  0
  -20.8340  -10.0290    9.0781 C   0  0  2  0  0  0  0  0  0  0  0  0
  -19.4425  -10.6730    9.0615 C   0  0  0  0  0  0  0  0  0  0  0  0
  -20.7712   -8.6205    9.4158 N   0  0  0  0  0  0  0  0  0  0  0  0
  -21.3804   -7.6500    8.6388 C   0  0  0  0  0  0  0  0  0  0  0  0
  -22.0197   -7.9063    7.6231 O   0  0  0  0  0  0  0  0  0  0  0  0
  -20.1757   -8.3097   10.1770 H   0  0  0  0  0  0  0  0  0  0  0  0
  -21.2186   -6.2449    9.2125 C   0  0  1  0  0  0  0  0  0  0  0  0
  -20.1539   -5.5980    8.6351 F   0  0  0  0  0  0  0  0  0  0  0  0
  -22.4665   -5.3759    9.0760 C   0  0  0  0  0  0  0  0  0  0  0  0
  -22.4617   -4.4092   10.2001 N   0  0  0  0  0  0  0  0  0  0  0  0
  -21.3985   -4.8788   11.1143 C   0  0  0  0  0  0  0  0  0  0  0  0
  -20.3199   -3.7707   11.2551 C   0  0  0  0  0  0  0  0  0  0  0  0
  -21.1253   -3.1979   12.4408 C   0  0  0  0  0  0  0  0  0  0  0  0
  -21.8128   -4.5740   12.5724 C   0  0  0  0  0  0  0  0  0  0  0  0
  -20.9839   -6.2737   10.7116 C   0  0  0  0  0  0  0  0  0  0  0  0
  -22.3280   -3.4683    9.8279 H   0  0  0  0  0  0  0  0  0  0  0  0
  -17.1228  -15.9262    7.3952 H   0  0  0  0  0  0  0  0  0  0  0  0
  -18.5697  -14.8268    8.9938 H   0  0  0  0  0  0  0  0  0  0  0  0
  -18.6239  -13.4586    4.3448 H   0  0  0  0  0  0  0  0  0  0  0  0
  -18.8073  -10.6481    5.8005 H   0  0  0  0  0  0  0  0  0  0  0  0
  -20.0989   -8.7694    5.0088 H   0  0  0  0  0  0  0  0  0  0  0  0
  -22.4398   -9.0650    4.4568 H   0  0  0  0  0  0  0  0  0  0  0  0
  -23.4696  -11.2335    4.7043 H   0  0  0  0  0  0  0  0  0  0  0  0
  -21.7724  -14.2984    5.4304 H   0  0  0  0  0  0  0  0  0  0  0  0
  -24.2734  -13.1258    4.3447 H   0  0  0  0  0  0  0  0  0  0  0  0
  -23.8751  -14.8242    4.4435 H   0  0  0  0  0  0  0  0  0  0  0  0
  -22.9344  -13.7643    3.4214 H   0  0  0  0  0  0  0  0  0  0  0  0
  -24.0094  -12.9535    6.9385 H   0  0  0  0  0  0  0  0  0  0  0  0
  -22.5441  -13.5860    7.6496 H   0  0  0  0  0  0  0  0  0  0  0  0
  -23.6957  -14.6722    6.9101 H   0  0  0  0  0  0  0  0  0  0  0  0
  -16.3749  -16.2837    5.2136 H   0  0  0  0  0  0  0  0  0  0  0  0
  -18.2579  -15.3403    3.0754 H   0  0  0  0  0  0  0  0  0  0  0  0
  -18.4410  -16.7913    4.0316 H   0  0  0  0  0  0  0  0  0  0  0  0
  -17.1022  -16.6415    2.9187 H   0  0  0  0  0  0  0  0  0  0  0  0
  -10.7432  -14.5165    4.1175 H   0  0  0  0  0  0  0  0  0  0  0  0
  -12.0277  -15.0271    5.1863 H   0  0  0  0  0  0  0  0  0  0  0  0
  -11.1288  -13.5698    5.5346 H   0  0  0  0  0  0  0  0  0  0  0  0
  -12.9076  -14.0020    3.1683 H   0  0  0  0  0  0  0  0  0  0  0  0
  -11.9956  -12.5230    3.5794 H   0  0  0  0  0  0  0  0  0  0  0  0
  -18.7846  -12.6088    9.8015 H   0  0  0  0  0  0  0  0  0  0  0  0
  -20.2559  -11.5996   11.5265 H   0  0  0  0  0  0  0  0  0  0  0  0
  -21.2400  -12.8284   10.8507 H   0  0  0  0  0  0  0  0  0  0  0  0
  -21.9989  -10.2108   10.8816 H   0  0  0  0  0  0  0  0  0  0  0  0
  -22.5316  -11.2634    9.6279 H   0  0  0  0  0  0  0  0  0  0  0  0
  -21.2879  -10.0547    8.1095 H   0  0  0  0  0  0  0  0  0  0  0  0
  -18.7836  -10.1690    9.7373 H   0  0  0  0  0  0  0  0  0  0  0  0
  -18.9798  -10.6213    8.0981 H   0  0  0  0  0  0  0  0  0  0  0  0
  -23.3438   -5.9866    9.1231 H   0  0  0  0  0  0  0  0  0  0  0  0
  -22.4672   -4.8623    8.1373 H   0  0  0  0  0  0  0  0  0  0  0  0
  -20.2455   -3.1154   10.4125 H   0  0  0  0  0  0  0  0  0  0  0  0
  -19.2829   -4.0147   11.3546 H   0  0  0  0  0  0  0  0  0  0  0  0
  -21.7843   -2.3952   12.1834 H   0  0  0  0  0  0  0  0  0  0  0  0
  -20.6386   -2.7357   13.2741 H   0  0  0  0  0  0  0  0  0  0  0  0
  -22.8699   -4.5266   12.7309 H   0  0  0  0  0  0  0  0  0  0  0  0
  -21.5640   -5.2429   13.3696 H   0  0  0  0  0  0  0  0  0  0  0  0
  -21.5926   -7.0140   11.1874 H   0  0  0  0  0  0  0  0  0  0  0  0
  -19.9817   -6.5257   10.9892 H   0  0  0  0  0  0  0  0  0  0  0  0
  1  2  2  0  0  0  0
  2  3  1  0  0  0  0
  2 47  1  0  0  0  0
  3  4  2  0  0  0  0
  3 48  1  0  0  0  0
  4 27  1  0  0  0  0
  4  5  1  0  0  0  0
  5  7  1  0  0  0  0
  5  6  2  0  0  0  0
  6  1  1  0  0  0  0
  6 49  1  0  0  0  0
  7  8  2  0  0  0  0
  8  9  1  0  0  0  0
  8 50  1  0  0  0  0
  9 10  2  0  0  0  0
  9 51  1  0  0  0  0
 10 11  1  0  0  0  0
 10 52  1  0  0  0  0
 11 12  2  0  0  0  0
 11 53  1  0  0  0  0
 12 13  1  0  0  0  0
 12  7  1  0  0  0  0
 13 14  1  0  0  0  0
 13 15  1  0  0  0  0
 13 54  1  0  0  0  0
 14 55  1  0  0  0  0
 14 56  1  0  0  0  0
 14 57  1  0  0  0  0
 15 58  1  0  0  0  0
 15 59  1  0  0  0  0
 15 60  1  0  0  0  0
 16 17  1  0  0  0  0
 16  1  1  0  0  0  0
 16 61  1  1  0  0  0
 17 62  1  0  0  0  0
 17 63  1  0  0  0  0
 17 64  1  0  0  0  0
 18 19  1  0  0  0  0
 18 21  1  0  0  0  0
 19 20  2  0  0  0  0
 19 16  1  0  0  0  0
 22 23  2  0  0  0  0
 22 24  2  0  0  0  0
 22 18  1  0  0  0  0
 25 26  1  0  0  0  0
 25 65  1  0  0  0  0
 25 66  1  0  0  0  0
 25 67  1  0  0  0  0
 26 22  1  0  0  0  0
 26 68  1  0  0  0  0
 26 69  1  0  0  0  0
 27 28  1  0  0  0  0
 28 29  1  0  0  0  0
 28 70  1  1  0  0  0
 29 30  1  0  0  0  0
 29 71  1  0  0  0  0
 29 72  1  0  0  0  0
 30 31  1  0  0  0  0
 30 73  1  0  0  0  0
 30 74  1  0  0  0  0
 31 33  1  0  0  0  0
 31 32  1  0  0  0  0
 31 75  1  6  0  0  0
 32 28  1  0  0  0  0
 32 76  1  0  0  0  0
 32 77  1  0  0  0  0
 33 34  1  0  0  0  0
 33 36  1  0  0  0  0
 34 35  2  0  0  0  0
 34 37  1  0  0  0  0
 37 38  1  6  0  0  0
 37 39  1  0  0  0  0
 39 40  1  0  0  0  0
 39 78  1  0  0  0  0
 39 79  1  0  0  0  0
 40 41  1  0  0  0  0
 40 46  1  0  0  0  0
 41 42  1  0  0  0  0
 41 45  1  0  0  0  0
 42 43  1  0  0  0  0
 42 80  1  0  0  0  0
 42 81  1  0  0  0  0
 43 44  1  0  0  0  0
 43 82  1  0  0  0  0
 43 83  1  0  0  0  0
 44 41  1  0  0  0  0
 44 84  1  0  0  0  0
 44 85  1  0  0  0  0
 45 37  1  0  0  0  0
 45 86  1  0  0  0  0
 45 87  1  0  0  0  0
M  END
>  <minimizedAffinity>
-7.44383

$$$$
