L3:Q92830:30945
     RDKit          3D

 96100  0  0  0  0  0  0  0  0999 V2000
   -3.8329    5.7100    1.3106 C   0  0  0  0  0  0  0  0  0  0  0  0
   -4.4019    4.4529    0.6578 C   0  0  0  0  0  0  0  0  0  0  0  0
   -5.6348    3.9641    1.4097 C   0  0  0  0  0  0  0  0  0  0  0  0
   -3.1209    3.1780    0.5798 S   0  0  0  0  0  6  0  0  0  0  0  0
   -2.0771    3.5791   -0.3374 O   0  0  0  0  0  0  0  0  0  0  0  0
   -2.7894    2.7698    1.9298 O   0  0  0  0  0  0  0  0  0  0  0  0
   -3.8939    1.8666   -0.0740 N   0  0  0  0  0  0  0  0  0  0  0  0
   -4.2900    1.7784   -1.4237 C   0  0  0  0  0  0  0  0  0  0  0  0
   -4.5001    2.7809   -2.0940 O   0  0  0  0  0  0  0  0  0  0  0  0
   -4.5039    0.3421   -1.9589 C   0  0  0  0  0  0  0  0  0  0  0  0
   -5.8832   -0.1029   -1.4290 C   0  0  0  0  0  0  0  0  0  0  0  0
   -4.5827    0.3703   -3.4997 C   0  0  0  0  0  0  0  0  0  0  0  0
   -3.3348   -0.5686   -1.5416 C   0  0  0  0  0  0  0  0  0  0  0  0
   -2.0171   -0.1976   -1.8582 C   0  0  0  0  0  0  0  0  0  0  0  0
   -0.9234   -0.9669   -1.4490 C   0  0  0  0  0  0  0  0  0  0  0  0
   -1.1119   -2.1283   -0.6997 C   0  0  0  0  0  0  0  0  0  0  0  0
   -0.1004   -2.9342   -0.2465 O   0  0  0  0  0  0  0  0  0  0  0  0
    1.2376   -2.4589   -0.2815 C   0  0  2  0  0  0  0  0  0  0  0  0
    2.1807   -3.6078    0.0634 C   0  0  0  0  0  0  0  0  0  0  0  0
    3.4763   -2.9137    0.4617 C   0  0  0  0  0  0  0  0  0  0  0  0
    3.0581   -1.5410    1.0151 C   0  0  1  0  0  0  0  0  0  0  0  0
    3.7287   -0.4604    0.3141 N   0  0  0  0  0  0  0  0  0  0  0  0
    5.0335   -0.0965    0.5967 C   0  0  0  0  0  0  0  0  0  0  0  0
    5.7080   -0.6451    1.4627 O   0  0  0  0  0  0  0  0  0  0  0  0
    5.5184    1.0927   -0.2417 C   0  0  1  0  0  0  0  0  0  0  0  0
    4.7599    1.1966   -1.3870 F   0  0  0  0  0  0  0  0  0  0  0  0
    5.3275    2.3896    0.5758 C   0  0  0  0  0  0  0  0  0  0  0  0
    6.1886    3.5227    0.1743 N   0  0  0  0  0  0  0  0  0  0  0  0
    6.5946    3.4100   -1.2240 C   0  0  0  0  0  0  0  0  0  0  0  0
    7.4996    2.1690   -1.4479 C   0  0  0  0  0  0  0  0  0  0  0  0
    8.9390    2.4753   -0.9871 C   0  0  0  0  0  0  0  0  0  0  0  0
    7.5346    1.8579   -2.9558 C   0  0  0  0  0  0  0  0  0  0  0  0
    6.9783    0.9298   -0.6621 C   0  0  0  0  0  0  0  0  0  0  0  0
    1.5408   -1.4662    0.8382 C   0  0  0  0  0  0  0  0  0  0  0  0
   -2.4227   -2.5338   -0.3726 C   0  0  0  0  0  0  0  0  0  0  0  0
   -2.6914   -3.7418    0.4357 C   0  0  0  0  0  0  0  0  0  0  0  0
   -2.4900   -5.0059   -0.1618 C   0  0  0  0  0  0  0  0  0  0  0  0
   -2.7642   -6.1845    0.5253 C   0  0  0  0  0  0  0  0  0  0  0  0
   -3.2560   -6.1142    1.8186 C   0  0  0  0  0  0  0  0  0  0  0  0
   -3.4549   -4.8703    2.4157 C   0  0  0  0  0  0  0  0  0  0  0  0
   -3.9574   -4.8596    3.6600 F   0  0  0  0  0  0  0  0  0  0  0  0
   -3.1704   -3.6454    1.7749 C   0  0  0  0  0  0  0  0  0  0  0  0
   -3.4106   -2.2478    2.5183 C   0  0  0  0  0  0  0  0  0  0  0  0
   -3.3883   -2.1801    4.0782 C   0  0  0  0  0  0  0  0  0  0  0  0
   -2.8121   -0.7594    3.9405 C   0  0  0  0  0  0  0  0  0  0  0  0
   -2.2436   -1.2121    2.5837 C   0  0  0  0  0  0  0  0  0  0  0  0
   -3.5141   -1.7543   -0.8145 C   0  0  0  0  0  0  0  0  0  0  0  0
   -3.5206    5.5185    2.3429 H   0  0  0  0  0  0  0  0  0  0  0  0
   -4.5779    6.5125    1.3236 H   0  0  0  0  0  0  0  0  0  0  0  0
   -2.9574    6.0733    0.7622 H   0  0  0  0  0  0  0  0  0  0  0  0
   -4.6698    4.6913   -0.3764 H   0  0  0  0  0  0  0  0  0  0  0  0
   -6.3977    4.7486    1.4525 H   0  0  0  0  0  0  0  0  0  0  0  0
   -6.0832    3.0951    0.9181 H   0  0  0  0  0  0  0  0  0  0  0  0
   -5.3893    3.6748    2.4372 H   0  0  0  0  0  0  0  0  0  0  0  0
   -3.7425    1.0221    0.4731 H   0  0  0  0  0  0  0  0  0  0  0  0
   -6.6636    0.6136   -1.7137 H   0  0  0  0  0  0  0  0  0  0  0  0
   -6.1745   -1.0804   -1.8302 H   0  0  0  0  0  0  0  0  0  0  0  0
   -5.8986   -0.1667   -0.3345 H   0  0  0  0  0  0  0  0  0  0  0  0
   -3.6869    0.8150   -3.9485 H   0  0  0  0  0  0  0  0  0  0  0  0
   -5.4364    0.9657   -3.8446 H   0  0  0  0  0  0  0  0  0  0  0  0
   -4.6938   -0.6400   -3.9105 H   0  0  0  0  0  0  0  0  0  0  0  0
   -1.8150    0.7137   -2.4226 H   0  0  0  0  0  0  0  0  0  0  0  0
    0.0632   -0.6180   -1.7334 H   0  0  0  0  0  0  0  0  0  0  0  0
    1.5157   -2.0760   -1.2711 H   0  0  0  0  0  0  0  0  0  0  0  0
    2.3164   -4.2958   -0.7773 H   0  0  0  0  0  0  0  0  0  0  0  0
    1.7844   -4.1995    0.8985 H   0  0  0  0  0  0  0  0  0  0  0  0
    4.0188   -3.5007    1.2106 H   0  0  0  0  0  0  0  0  0  0  0  0
    4.1311   -2.8134   -0.4126 H   0  0  0  0  0  0  0  0  0  0  0  0
    3.3179   -1.4606    2.0770 H   0  0  0  0  0  0  0  0  0  0  0  0
    3.2831   -0.0016   -0.4758 H   0  0  0  0  0  0  0  0  0  0  0  0
    4.2808    2.7050    0.4799 H   0  0  0  0  0  0  0  0  0  0  0  0
    5.5088    2.2095    1.6418 H   0  0  0  0  0  0  0  0  0  0  0  0
    5.6885    4.3986    0.3272 H   0  0  0  0  0  0  0  0  0  0  0  0
    5.7051    3.3820   -1.8664 H   0  0  0  0  0  0  0  0  0  0  0  0
    7.1388    4.3196   -1.5067 H   0  0  0  0  0  0  0  0  0  0  0  0
    9.3630    3.3180   -1.5451 H   0  0  0  0  0  0  0  0  0  0  0  0
    9.5945    1.6109   -1.1430 H   0  0  0  0  0  0  0  0  0  0  0  0
    8.9732    2.7321    0.0773 H   0  0  0  0  0  0  0  0  0  0  0  0
    8.2026    1.0164   -3.1725 H   0  0  0  0  0  0  0  0  0  0  0  0
    6.5385    1.5965   -3.3299 H   0  0  0  0  0  0  0  0  0  0  0  0
    7.8908    2.7215   -3.5289 H   0  0  0  0  0  0  0  0  0  0  0  0
    7.0898    0.0203   -1.2660 H   0  0  0  0  0  0  0  0  0  0  0  0
    7.5899    0.7692    0.2361 H   0  0  0  0  0  0  0  0  0  0  0  0
    1.0410   -1.7870    1.7611 H   0  0  0  0  0  0  0  0  0  0  0  0
    1.1770   -0.4581    0.6151 H   0  0  0  0  0  0  0  0  0  0  0  0
   -2.1121   -5.0657   -1.1817 H   0  0  0  0  0  0  0  0  0  0  0  0
   -2.6005   -7.1471    0.0493 H   0  0  0  0  0  0  0  0  0  0  0  0
   -3.4905   -7.0167    2.3743 H   0  0  0  0  0  0  0  0  0  0  0  0
   -4.3322   -1.7834    2.1309 H   0  0  0  0  0  0  0  0  0  0  0  0
   -4.3618   -2.2463    4.5709 H   0  0  0  0  0  0  0  0  0  0  0  0
   -2.6952   -2.8795    4.5608 H   0  0  0  0  0  0  0  0  0  0  0  0
   -3.5750    0.0236    3.8616 H   0  0  0  0  0  0  0  0  0  0  0  0
   -2.0758   -0.4669    4.6927 H   0  0  0  0  0  0  0  0  0  0  0  0
   -2.2344   -0.4396    1.8112 H   0  0  0  0  0  0  0  0  0  0  0  0
   -1.2458   -1.6596    2.6547 H   0  0  0  0  0  0  0  0  0  0  0  0
   -4.5128   -2.1034   -0.5575 H   0  0  0  0  0  0  0  0  0  0  0  0
  1  2  1  0
  2  3  1  0
  2  4  1  0
  4  5  2  0
  4  6  2  0
  4  7  1  0
  7  8  1  0
  8  9  2  0
  8 10  1  0
 10 11  1  0
 10 12  1  0
 10 13  1  0
 13 14  2  0
 14 15  1  0
 15 16  2  0
 16 17  1  0
 17 18  1  0
 18 19  1  0
 19 20  1  0
 20 21  1  0
 21 22  1  0
 22 23  1  0
 23 24  2  0
 23 25  1  0
 25 26  1  6
 25 27  1  0
 27 28  1  0
 28 29  1  0
 29 30  1  0
 30 31  1  0
 30 32  1  0
 30 33  1  0
 21 34  1  0
 16 35  1  0
 35 36  1  0
 36 37  2  0
 37 38  1  0
 38 39  2  0
 39 40  1  0
 40 41  1  0
 40 42  2  0
 42 43  1  0
 43 44  1  0
 44 45  1  0
 45 46  1  0
 35 47  2  0
 47 13  1  0
 34 18  1  0
 42 36  1  0
 46 43  1  0
 33 25  1  0
  1 48  1  0
  1 49  1  0
  1 50  1  0
  2 51  1  0
  3 52  1  0
  3 53  1  0
  3 54  1  0
  7 55  1  0
 11 56  1  0
 11 57  1  0
 11 58  1  0
 12 59  1  0
 12 60  1  0
 12 61  1  0
 14 62  1  0
 15 63  1  0
 18 64  1  6
 19 65  1  0
 19 66  1  0
 20 67  1  0
 20 68  1  0
 21 69  1  1
 22 70  1  0
 27 71  1  0
 27 72  1  0
 28 73  1  0
 29 74  1  0
 29 75  1  0
 31 76  1  0
 31 77  1  0
 31 78  1  0
 32 79  1  0
 32 80  1  0
 32 81  1  0
 33 82  1  0
 33 83  1  0
 34 84  1  0
 34 85  1  0
 37 86  1  0
 38 87  1  0
 39 88  1  0
 43 89  1  0
 44 90  1  0
 44 91  1  0
 45 92  1  0
 45 93  1  0
 46 94  1  0
 46 95  1  0
 47 96  1  0
M  END
>  <mol_id>  (1) 
30945

>  <source_index>  (1) 
2

>  <layer>  (1) 
L3

>  <uniprot>  (1) 
Q92830

>  <paff>  (1) 
6.6555999999999997

>  <smiles>  (1) 
CC(C)S(=O)(=O)NC(=O)C(C)(C)c1ccc(O[C@@H]2CC[C@@H](NC(=O)[C@@]3(F)CNCC(C)(C)C3)C2)c(-c2cccc(F)c2C2CCC2)c1

$$$$
