L3:Q92830:30945
 OpenBabel09212617493D

 96100  0  0  0  0  0  0  0  0999 V2000
  -21.2346  -11.1118    9.5014 C   0  0  0  0  0  0  0  0  0  0  0  0
  -21.9424  -10.7828   10.6697 C   0  0  0  0  0  0  0  0  0  0  0  0
  -22.9215  -11.6322   11.1942 C   0  0  0  0  0  0  0  0  0  0  0  0
  -23.2325  -12.8352   10.5603 C   0  0  0  0  0  0  0  0  0  0  0  0
  -22.5341  -13.1998    9.3903 C   0  0  0  0  0  0  0  0  0  0  0  0
  -21.5337  -12.3379    8.8898 C   0  0  0  0  0  0  0  0  0  0  0  0
  -22.8285  -14.4497    8.6583 C   0  0  0  0  0  0  0  0  0  0  0  0
  -23.7308  -14.3935    7.5728 C   0  0  0  0  0  0  0  0  0  0  0  0
  -24.0874  -15.5382    6.8664 C   0  0  0  0  0  0  0  0  0  0  0  0
  -23.5539  -16.7595    7.2447 C   0  0  0  0  0  0  0  0  0  0  0  0
  -22.6608  -16.8224    8.3133 C   0  0  0  0  0  0  0  0  0  0  0  0
  -22.1946  -18.0339    8.6536 F   0  0  0  0  0  0  0  0  0  0  0  0
  -22.2457  -15.6910    9.0478 C   0  0  0  0  0  0  0  0  0  0  0  0
  -21.2080  -15.8268   10.2595 C   0  0  0  0  0  0  0  0  0  0  0  0
  -21.4346  -16.9080   11.3631 C   0  0  0  0  0  0  0  0  0  0  0  0
  -19.9033  -17.0119   11.4800 C   0  0  0  0  0  0  0  0  0  0  0  0
  -19.8439  -16.5464   10.0140 C   0  0  0  0  0  0  0  0  0  0  0  0
  -20.2101  -10.1173    8.9256 C   0  0  0  0  0  0  0  0  0  0  0  0
  -19.5028  -10.5981    7.6411 C   0  0  0  0  0  0  0  0  0  0  0  0
  -19.1220   -9.8578    9.9885 C   0  0  0  0  0  0  0  0  0  0  0  0
  -20.9056   -7.8030    9.5654 N   0  0  0  0  0  0  0  0  0  0  0  0
  -20.9002   -8.7832    8.5527 C   0  0  0  0  0  0  0  0  0  0  0  0
  -21.4572   -8.5947    7.4790 O   0  0  0  0  0  0  0  0  0  0  0  0
  -20.4538   -7.9850   10.4588 H   0  0  0  0  0  0  0  0  0  0  0  0
  -21.0942   -6.1815    9.2829 S   0  0  0  0  0  0  0  0  0  0  0  0
  -22.4781   -5.9515    8.9314 O   0  0  0  0  0  0  0  0  0  0  0  0
  -20.0386   -5.8494    8.3478 O   0  0  0  0  0  0  0  0  0  0  0  0
  -21.8210   -4.4100   11.2286 C   0  0  0  0  0  0  0  0  0  0  0  0
  -20.7219   -5.4088   10.8756 C   0  0  0  0  0  0  0  0  0  0  0  0
  -19.3573   -4.7291   10.8640 C   0  0  0  0  0  0  0  0  0  0  0  0
  -24.1839  -13.7204   10.9954 O   0  0  0  0  0  0  0  0  0  0  0  0
  -25.5443  -13.3146   11.0401 C   0  0  2  0  0  0  0  0  0  0  0  0
  -26.3567  -14.3838   11.7648 C   0  0  0  0  0  0  0  0  0  0  0  0
  -27.7931  -14.1026   11.3446 C   0  0  0  0  0  0  0  0  0  0  0  0
  -27.6985  -13.4512    9.9545 C   0  0  2  0  0  0  0  0  0  0  0  0
  -26.2039  -13.3086    9.6631 C   0  0  0  0  0  0  0  0  0  0  0  0
  -28.3707  -12.1643    9.9255 N   0  0  0  0  0  0  0  0  0  0  0  0
  -28.7887  -11.5777    8.7440 C   0  0  0  0  0  0  0  0  0  0  0  0
  -28.6100  -12.0901    7.6433 O   0  0  0  0  0  0  0  0  0  0  0  0
  -28.6385  -11.7014   10.7898 H   0  0  0  0  0  0  0  0  0  0  0  0
  -29.4401  -10.2053    8.9546 C   0  0  1  0  0  0  0  0  0  0  0  0
  -30.3178   -9.9423    7.9258 F   0  0  0  0  0  0  0  0  0  0  0  0
  -30.2452  -10.2328   10.2728 C   0  0  0  0  0  0  0  0  0  0  0  0
  -30.4895   -8.9124   10.8922 N   0  0  0  0  0  0  0  0  0  0  0  0
  -30.4613   -7.8460    9.8948 C   0  0  0  0  0  0  0  0  0  0  0  0
  -29.0481   -7.6982    9.2702 C   0  0  0  0  0  0  0  0  0  0  0  0
  -28.1270   -6.9155   10.2277 C   0  0  0  0  0  0  0  0  0  0  0  0
  -29.1755   -6.8942    7.9629 C   0  0  0  0  0  0  0  0  0  0  0  0
  -28.4016   -9.0848    8.9798 C   0  0  0  0  0  0  0  0  0  0  0  0
  -31.3903   -8.9246   11.3707 H   0  0  0  0  0  0  0  0  0  0  0  0
  -21.7350   -9.8941   11.1516 H   0  0  0  0  0  0  0  0  0  0  0  0
  -23.4188  -11.3665   12.0586 H   0  0  0  0  0  0  0  0  0  0  0  0
  -21.0066  -12.6189    8.0482 H   0  0  0  0  0  0  0  0  0  0  0  0
  -24.1341  -13.4842    7.2978 H   0  0  0  0  0  0  0  0  0  0  0  0
  -24.7414  -15.4781    6.0703 H   0  0  0  0  0  0  0  0  0  0  0  0
  -23.8165  -17.6191    6.7376 H   0  0  0  0  0  0  0  0  0  0  0  0
  -21.2867  -14.7792   10.4627 H   0  0  0  0  0  0  0  0  0  0  0  0
  -21.9177  -17.7997   11.0218 H   0  0  0  0  0  0  0  0  0  0  0  0
  -22.0529  -16.7208   12.2161 H   0  0  0  0  0  0  0  0  0  0  0  0
  -19.5327  -18.0008   11.6520 H   0  0  0  0  0  0  0  0  0  0  0  0
  -19.3580  -16.5163   12.2558 H   0  0  0  0  0  0  0  0  0  0  0  0
  -19.8793  -17.3363    9.2931 H   0  0  0  0  0  0  0  0  0  0  0  0
  -18.9951  -16.0257    9.6226 H   0  0  0  0  0  0  0  0  0  0  0  0
  -18.8124   -9.8496    7.3126 H   0  0  0  0  0  0  0  0  0  0  0  0
  -20.2310  -10.7718    6.8766 H   0  0  0  0  0  0  0  0  0  0  0  0
  -18.9746  -11.5064    7.8434 H   0  0  0  0  0  0  0  0  0  0  0  0
  -18.4023   -9.1673    9.6010 H   0  0  0  0  0  0  0  0  0  0  0  0
  -18.6362  -10.7790   10.2339 H   0  0  0  0  0  0  0  0  0  0  0  0
  -19.5729   -9.4471   10.8677 H   0  0  0  0  0  0  0  0  0  0  0  0
  -21.5993   -3.9539   12.1708 H   0  0  0  0  0  0  0  0  0  0  0  0
  -22.7596   -4.9199   11.2912 H   0  0  0  0  0  0  0  0  0  0  0  0
  -21.8745   -3.6561   10.4712 H   0  0  0  0  0  0  0  0  0  0  0  0
  -20.6869   -6.1741   11.6225 H   0  0  0  0  0  0  0  0  0  0  0  0
  -19.3513   -3.9538   10.1266 H   0  0  0  0  0  0  0  0  0  0  0  0
  -18.6018   -5.4498   10.6299 H   0  0  0  0  0  0  0  0  0  0  0  0
  -19.1610   -4.3067   11.8273 H   0  0  0  0  0  0  0  0  0  0  0  0
  -25.5378  -12.3450   11.4925 H   0  0  0  0  0  0  0  0  0  0  0  0
  -26.2457  -14.2923   12.8251 H   0  0  0  0  0  0  0  0  0  0  0  0
  -26.0426  -15.3767   11.5193 H   0  0  0  0  0  0  0  0  0  0  0  0
  -28.2613  -13.4358   12.0382 H   0  0  0  0  0  0  0  0  0  0  0  0
  -28.3812  -14.9963   11.3234 H   0  0  0  0  0  0  0  0  0  0  0  0
  -28.1843  -14.0476    9.2107 H   0  0  0  0  0  0  0  0  0  0  0  0
  -26.0041  -12.3901    9.1519 H   0  0  0  0  0  0  0  0  0  0  0  0
  -25.8358  -14.0903    9.0319 H   0  0  0  0  0  0  0  0  0  0  0  0
  -29.7072  -10.8333   10.9762 H   0  0  0  0  0  0  0  0  0  0  0  0
  -31.2088  -10.6249   10.0226 H   0  0  0  0  0  0  0  0  0  0  0  0
  -30.7342   -6.9233   10.3627 H   0  0  0  0  0  0  0  0  0  0  0  0
  -31.1518   -8.0928    9.1156 H   0  0  0  0  0  0  0  0  0  0  0  0
  -28.5593   -5.9592   10.4363 H   0  0  0  0  0  0  0  0  0  0  0  0
  -27.1687   -6.7817    9.7709 H   0  0  0  0  0  0  0  0  0  0  0  0
  -28.0138   -7.4625   11.1403 H   0  0  0  0  0  0  0  0  0  0  0  0
  -29.6202   -5.9435    8.1708 H   0  0  0  0  0  0  0  0  0  0  0  0
  -29.7903   -7.4321    7.2718 H   0  0  0  0  0  0  0  0  0  0  0  0
  -28.2045   -6.7484    7.5378 H   0  0  0  0  0  0  0  0  0  0  0  0
  -27.6822   -9.2974    9.7428 H   0  0  0  0  0  0  0  0  0  0  0  0
  -27.9402   -9.0394    8.0155 H   0  0  0  0  0  0  0  0  0  0  0  0
  1  2  2  0  0  0  0
  2  3  1  0  0  0  0
  2 51  1  0  0  0  0
  3  4  2  0  0  0  0
  3 52  1  0  0  0  0
  4 31  1  0  0  0  0
  4  5  1  0  0  0  0
  5  7  1  0  0  0  0
  5  6  2  0  0  0  0
  6  1  1  0  0  0  0
  6 53  1  0  0  0  0
  7  8  2  0  0  0  0
  8  9  1  0  0  0  0
  8 54  1  0  0  0  0
  9 10  2  0  0  0  0
  9 55  1  0  0  0  0
 10 11  1  0  0  0  0
 10 56  1  0  0  0  0
 11 12  1  0  0  0  0
 11 13  2  0  0  0  0
 13 14  1  0  0  0  0
 13  7  1  0  0  0  0
 14 15  1  0  0  0  0
 14 57  1  0  0  0  0
 15 16  1  0  0  0  0
 15 58  1  0  0  0  0
 15 59  1  0  0  0  0
 16 17  1  0  0  0  0
 16 60  1  0  0  0  0
 16 61  1  0  0  0  0
 17 14  1  0  0  0  0
 17 62  1  0  0  0  0
 17 63  1  0  0  0  0
 18 19  1  0  0  0  0
 18 20  1  0  0  0  0
 18  1  1  0  0  0  0
 19 64  1  0  0  0  0
 19 65  1  0  0  0  0
 19 66  1  0  0  0  0
 20 67  1  0  0  0  0
 20 68  1  0  0  0  0
 20 69  1  0  0  0  0
 21 22  1  0  0  0  0
 21 24  1  0  0  0  0
 22 23  2  0  0  0  0
 22 18  1  0  0  0  0
 25 26  2  0  0  0  0
 25 27  2  0  0  0  0
 25 21  1  0  0  0  0
 28 29  1  0  0  0  0
 28 70  1  0  0  0  0
 28 71  1  0  0  0  0
 28 72  1  0  0  0  0
 29 30  1  0  0  0  0
 29 25  1  0  0  0  0
 29 73  1  0  0  0  0
 30 74  1  0  0  0  0
 30 75  1  0  0  0  0
 30 76  1  0  0  0  0
 31 32  1  0  0  0  0
 32 33  1  0  0  0  0
 32 77  1  1  0  0  0
 33 34  1  0  0  0  0
 33 78  1  0  0  0  0
 33 79  1  0  0  0  0
 34 35  1  0  0  0  0
 34 80  1  0  0  0  0
 34 81  1  0  0  0  0
 35 37  1  0  0  0  0
 35 36  1  0  0  0  0
 35 82  1  6  0  0  0
 36 32  1  0  0  0  0
 36 83  1  0  0  0  0
 36 84  1  0  0  0  0
 37 38  1  0  0  0  0
 37 40  1  0  0  0  0
 38 39  2  0  0  0  0
 38 41  1  0  0  0  0
 41 42  1  6  0  0  0
 41 43  1  0  0  0  0
 43 44  1  0  0  0  0
 43 85  1  0  0  0  0
 43 86  1  0  0  0  0
 44 45  1  0  0  0  0
 44 50  1  0  0  0  0
 45 46  1  0  0  0  0
 45 87  1  0  0  0  0
 45 88  1  0  0  0  0
 46 47  1  0  0  0  0
 46 48  1  0  0  0  0
 46 49  1  0  0  0  0
 47 89  1  0  0  0  0
 47 90  1  0  0  0  0
 47 91  1  0  0  0  0
 48 92  1  0  0  0  0
 48 93  1  0  0  0  0
 48 94  1  0  0  0  0
 49 41  1  0  0  0  0
 49 95  1  0  0  0  0
 49 96  1  0  0  0  0
M  END
>  <minimizedAffinity>
-8.03337

$$$$
