L3:Q92830:30945


 50 54  0  0  0  0  0  0  0  0999 V2000
  -21.2346  -11.1118    9.5014 C   0  0  0  0  0  0  0  0  0  0  0  0
  -21.9424  -10.7828   10.6697 C   0  0  0  0  0  0  0  0  0  0  0  0
  -22.9215  -11.6322   11.1942 C   0  0  0  0  0  0  0  0  0  0  0  0
  -23.2325  -12.8352   10.5603 C   0  0  0  0  0  0  0  0  0  0  0  0
  -22.5341  -13.1998    9.3903 C   0  0  0  0  0  0  0  0  0  0  0  0
  -21.5337  -12.3379    8.8898 C   0  0  0  0  0  0  0  0  0  0  0  0
  -22.8285  -14.4497    8.6583 C   0  0  0  0  0  0  0  0  0  0  0  0
  -23.7308  -14.3935    7.5728 C   0  0  0  0  0  0  0  0  0  0  0  0
  -24.0874  -15.5382    6.8664 C   0  0  0  0  0  0  0  0  0  0  0  0
  -23.5539  -16.7595    7.2447 C   0  0  0  0  0  0  0  0  0  0  0  0
  -22.6608  -16.8224    8.3133 C   0  0  0  0  0  0  0  0  0  0  0  0
  -22.1946  -18.0339    8.6536 F   0  0  0  0  0  0  0  0  0  0  0  0
  -22.2457  -15.6910    9.0478 C   0  0  0  0  0  0  0  0  0  0  0  0
  -21.2080  -15.8268   10.2595 C   0  0  0  0  0  0  0  0  0  0  0  0
  -21.4346  -16.9080   11.3631 C   0  0  0  0  0  0  0  0  0  0  0  0
  -19.9033  -17.0119   11.4800 C   0  0  0  0  0  0  0  0  0  0  0  0
  -19.8439  -16.5464   10.0140 C   0  0  0  0  0  0  0  0  0  0  0  0
  -20.2101  -10.1173    8.9256 C   0  0  0  0  0  0  0  0  0  0  0  0
  -19.5028  -10.5981    7.6411 C   0  0  0  0  0  0  0  0  0  0  0  0
  -19.1220   -9.8578    9.9885 C   0  0  0  0  0  0  0  0  0  0  0  0
  -20.9056   -7.8030    9.5654 N   0  0  0  0  0  0  0  0  0  0  0  0
  -20.9002   -8.7832    8.5527 C   0  0  0  0  0  0  0  0  0  0  0  0
  -21.4572   -8.5947    7.4790 O   0  0  0  0  0  0  0  0  0  0  0  0
  -20.4538   -7.9850   10.4588 H   0  0  0  0  0  0  0  0  0  0  0  0
  -21.0942   -6.1815    9.2829 S   0  0  0  0  0  0  0  0  0  0  0  0
  -22.4781   -5.9515    8.9314 O   0  0  0  0  0  0  0  0  0  0  0  0
  -20.0386   -5.8494    8.3478 O   0  0  0  0  0  0  0  0  0  0  0  0
  -21.8210   -4.4100   11.2286 C   0  0  0  0  0  0  0  0  0  0  0  0
  -20.7219   -5.4088   10.8756 C   0  0  0  0  0  0  0  0  0  0  0  0
  -19.3573   -4.7291   10.8640 C   0  0  0  0  0  0  0  0  0  0  0  0
  -24.1839  -13.7204   10.9954 O   0  0  0  0  0  0  0  0  0  0  0  0
  -25.5443  -13.3146   11.0401 C   0  0  0  0  0  0  0  0  0  0  0  0
  -26.3567  -14.3838   11.7648 C   0  0  0  0  0  0  0  0  0  0  0  0
  -27.7931  -14.1026   11.3446 C   0  0  0  0  0  0  0  0  0  0  0  0
  -27.6985  -13.4512    9.9545 C   0  0  0  0  0  0  0  0  0  0  0  0
  -26.2039  -13.3086    9.6631 C   0  0  0  0  0  0  0  0  0  0  0  0
  -28.3707  -12.1643    9.9255 N   0  0  0  0  0  0  0  0  0  0  0  0
  -28.7887  -11.5777    8.7440 C   0  0  0  0  0  0  0  0  0  0  0  0
  -28.6100  -12.0901    7.6433 O   0  0  0  0  0  0  0  0  0  0  0  0
  -28.6385  -11.7014   10.7898 H   0  0  0  0  0  0  0  0  0  0  0  0
  -29.4401  -10.2053    8.9546 C   0  0  0  0  0  0  0  0  0  0  0  0
  -30.3178   -9.9423    7.9258 F   0  0  0  0  0  0  0  0  0  0  0  0
  -30.2452  -10.2328   10.2728 C   0  0  0  0  0  0  0  0  0  0  0  0
  -30.4895   -8.9124   10.8922 N   0  0  0  0  0  0  0  0  0  0  0  0
  -30.4613   -7.8460    9.8948 C   0  0  0  0  0  0  0  0  0  0  0  0
  -29.0481   -7.6982    9.2702 C   0  0  0  0  0  0  0  0  0  0  0  0
  -28.1270   -6.9155   10.2277 C   0  0  0  0  0  0  0  0  0  0  0  0
  -29.1755   -6.8942    7.9629 C   0  0  0  0  0  0  0  0  0  0  0  0
  -28.4016   -9.0848    8.9798 C   0  0  0  0  0  0  0  0  0  0  0  0
  -31.3903   -8.9246   11.3707 H   0  0  0  0  0  0  0  0  0  0  0  0
 28 29  1  0  0  0
 29 30  1  0  0  0
 29 25  1  0  0  0
 25 26  2  0  0  0
 25 27  2  0  0  0
 25 21  1  0  0  0
 21 22  1  0  0  0
 22 23  2  0  0  0
 22 18  1  0  0  0
 18 19  1  0  0  0
 18 20  1  0  0  0
 18  1  1  0  0  0
  1  2  2  0  0  0
  2  3  1  0  0  0
  3  4  2  0  0  0
  4 31  1  0  0  0
 31 32  1  0  0  0
 32 33  1  0  0  0
 33 34  1  0  0  0
 34 35  1  0  0  0
 35 37  1  0  0  0
 37 38  1  0  0  0
 38 39  2  0  0  0
 38 41  1  0  0  0
 41 42  1  0  0  0
 41 43  1  0  0  0
 43 44  1  0  0  0
 44 45  1  0  0  0
 45 46  1  0  0  0
 46 47  1  0  0  0
 46 48  1  0  0  0
 46 49  1  0  0  0
 35 36  1  0  0  0
  4  5  1  0  0  0
  5  7  1  0  0  0
  7  8  2  0  0  0
  8  9  1  0  0  0
  9 10  2  0  0  0
 10 11  1  0  0  0
 11 12  1  0  0  0
 11 13  2  0  0  0
 13 14  1  0  0  0
 14 15  1  0  0  0
 15 16  1  0  0  0
 16 17  1  0  0  0
  5  6  2  0  0  0
  6  1  1  0  0  0
 36 32  1  0  0  0
 13  7  1  0  0  0
 17 14  1  0  0  0
 49 41  1  0  0  0
 21 24  1  0  0  0
 37 40  1  0  0  0
 44 50  1  0  0  0
M  END
> <minimizedAffinity>
-8.03337

$$$$
