L3:Q92830:31993
 OpenBabel09212617493D

 93 98  0  0  0  0  0  0  0  0999 V2000
  -22.2916  -11.4143    6.6738 C   0  0  0  0  0  0  0  0  0  0  0  0
  -22.3698  -11.2556    5.2911 C   0  0  0  0  0  0  0  0  0  0  0  0
  -22.5819  -12.3619    4.4657 C   0  0  0  0  0  0  0  0  0  0  0  0
  -22.7475  -13.6434    5.0105 C   0  0  0  0  0  0  0  0  0  0  0  0
  -22.6807  -13.7752    6.4158 C   0  0  0  0  0  0  0  0  0  0  0  0
  -22.4573  -12.6754    7.2654 C   0  0  0  0  0  0  0  0  0  0  0  0
  -22.4340  -12.8742    8.7265 C   0  0  0  0  0  0  0  0  0  0  0  0
  -23.5433  -12.4220    9.4748 C   0  0  0  0  0  0  0  0  0  0  0  0
  -23.5997  -12.5844   10.8546 C   0  0  0  0  0  0  0  0  0  0  0  0
  -22.5452  -13.2043   11.5044 C   0  0  0  0  0  0  0  0  0  0  0  0
  -21.4464  -13.6544   10.7724 C   0  0  0  0  0  0  0  0  0  0  0  0
  -20.4618  -14.2490   11.4617 F   0  0  0  0  0  0  0  0  0  0  0  0
  -21.3340  -13.5136    9.3725 C   0  0  0  0  0  0  0  0  0  0  0  0
  -20.0556  -14.0425    8.5475 C   0  0  0  0  0  0  0  0  0  0  0  0
  -18.7119  -14.3685    9.2519 C   0  0  0  0  0  0  0  0  0  0  0  0
  -19.0942  -15.8581    9.2099 C   0  0  0  0  0  0  0  0  0  0  0  0
  -20.0726  -15.5230    8.0724 C   0  0  0  0  0  0  0  0  0  0  0  0
  -23.0107  -14.8908    4.1450 C   0  0  0  0  0  0  0  0  0  0  0  0
  -23.1441  -16.2039    4.9445 C   0  0  0  0  0  0  0  0  0  0  0  0
  -24.3335  -14.6723    3.3793 C   0  0  0  0  0  0  0  0  0  0  0  0
  -21.8601  -15.1295    3.1353 C   0  0  0  0  0  0  0  0  0  0  0  0
  -22.0633  -15.5394    1.9993 O   0  0  0  0  0  0  0  0  0  0  0  0
  -20.5631  -14.8858    3.6388 N   0  0  0  0  0  0  0  0  0  0  0  0
  -20.4834  -14.4163    4.5363 H   0  0  0  0  0  0  0  0  0  0  0  0
  -19.2804  -14.4931    2.6743 S   0  0  0  0  0  0  0  0  0  0  0  0
  -19.7504  -13.4465    1.7950 O   0  0  0  0  0  0  0  0  0  0  0  0
  -18.7255  -15.7137    2.1421 O   0  0  0  0  0  0  0  0  0  0  0  0
  -18.2064  -13.8159    3.7628 N   0  0  0  0  0  0  0  0  0  0  0  0
  -18.2463  -14.0165    5.2401 C   0  0  0  0  0  0  0  0  0  0  0  0
  -18.5391  -12.5235    5.4429 C   0  0  0  0  0  0  0  0  0  0  0  0
  -18.0814  -12.3455    3.9885 C   0  0  0  0  0  0  0  0  0  0  0  0
  -22.1277  -10.2836    7.4326 O   0  0  0  0  0  0  0  0  0  0  0  0
  -20.7646   -8.3932    9.2385 C   0  0  2  0  0  0  0  0  0  0  0  0
  -20.0839   -9.7489    9.4719 C   0  0  0  0  0  0  0  0  0  0  0  0
  -19.8127  -10.3231    8.0820 C   0  0  0  0  0  0  0  0  0  0  0  0
  -20.8572   -9.6618    7.1874 C   0  0  2  0  0  0  0  0  0  0  0  0
  -20.8702   -8.2324    7.7174 C   0  0  0  0  0  0  0  0  0  0  0  0
  -20.6492   -6.1056   10.1884 C   0  0  0  0  0  0  0  0  0  0  0  0
  -21.8471   -5.8953   10.0215 O   0  0  0  0  0  0  0  0  0  0  0  0
  -20.0364   -7.2970    9.8466 N   0  0  0  0  0  0  0  0  0  0  0  0
  -19.0245   -7.3433    9.9272 H   0  0  0  0  0  0  0  0  0  0  0  0
  -17.9947   -4.7433   14.1311 C   0  0  0  0  0  0  0  0  0  0  0  0
  -18.3995   -5.5143   12.8698 C   0  0  0  0  0  0  0  0  0  0  0  0
  -18.3535   -7.0215   13.1675 C   0  0  0  0  0  0  0  0  0  0  0  0
  -19.7837   -5.0746   12.3686 C   0  0  0  0  0  0  0  0  0  0  0  0
  -19.6957   -5.1091   10.8454 C   0  0  2  0  0  0  0  0  0  0  0  0
  -19.9165   -3.8349   10.3790 F   0  0  0  0  0  0  0  0  0  0  0  0
  -18.2478   -5.4815   10.5342 C   0  0  0  0  0  0  0  0  0  0  0  0
  -17.4790   -5.1878   11.7606 N   0  0  0  0  0  0  0  0  0  0  0  0
  -17.2860   -4.1834   11.7783 H   0  0  0  0  0  0  0  0  0  0  0  0
  -22.2705  -10.3162    4.8755 H   0  0  0  0  0  0  0  0  0  0  0  0
  -22.6172  -12.2348    3.4422 H   0  0  0  0  0  0  0  0  0  0  0  0
  -22.7999  -14.7111    6.8341 H   0  0  0  0  0  0  0  0  0  0  0  0
  -24.3280  -11.9617    8.9875 H   0  0  0  0  0  0  0  0  0  0  0  0
  -24.4166  -12.2474   11.3876 H   0  0  0  0  0  0  0  0  0  0  0  0
  -22.5724  -13.3329   12.5280 H   0  0  0  0  0  0  0  0  0  0  0  0
  -20.1172  -13.2052    7.8842 H   0  0  0  0  0  0  0  0  0  0  0  0
  -18.6200  -13.9633   10.2379 H   0  0  0  0  0  0  0  0  0  0  0  0
  -17.7804  -14.0248    8.8531 H   0  0  0  0  0  0  0  0  0  0  0  0
  -19.5589  -16.2225   10.1022 H   0  0  0  0  0  0  0  0  0  0  0  0
  -18.3522  -16.6213    9.1004 H   0  0  0  0  0  0  0  0  0  0  0  0
  -21.0257  -16.0025    8.1531 H   0  0  0  0  0  0  0  0  0  0  0  0
  -19.8523  -15.7819    7.0578 H   0  0  0  0  0  0  0  0  0  0  0  0
  -23.9287  -16.1045    5.6652 H   0  0  0  0  0  0  0  0  0  0  0  0
  -22.2223  -16.4108    5.4469 H   0  0  0  0  0  0  0  0  0  0  0  0
  -23.3738  -17.0069    4.2757 H   0  0  0  0  0  0  0  0  0  0  0  0
  -25.1270  -14.5076    4.0780 H   0  0  0  0  0  0  0  0  0  0  0  0
  -24.5515  -15.5381    2.7896 H   0  0  0  0  0  0  0  0  0  0  0  0
  -24.2388  -13.8197    2.7397 H   0  0  0  0  0  0  0  0  0  0  0  0
  -17.3172  -14.3394    5.6612 H   0  0  0  0  0  0  0  0  0  0  0  0
  -18.8923  -14.7552    5.6665 H   0  0  0  0  0  0  0  0  0  0  0  0
  -17.9251  -12.0378    6.1723 H   0  0  0  0  0  0  0  0  0  0  0  0
  -19.4834  -12.1656    5.7965 H   0  0  0  0  0  0  0  0  0  0  0  0
  -17.0836  -11.9723    3.8881 H   0  0  0  0  0  0  0  0  0  0  0  0
  -18.5862  -11.6560    3.3446 H   0  0  0  0  0  0  0  0  0  0  0  0
  -21.7291   -8.3687    9.7011 H   0  0  0  0  0  0  0  0  0  0  0  0
  -20.7290  -10.3996   10.0245 H   0  0  0  0  0  0  0  0  0  0  0  0
  -19.1818   -9.6445   10.0379 H   0  0  0  0  0  0  0  0  0  0  0  0
  -19.9325  -11.3864    8.0817 H   0  0  0  0  0  0  0  0  0  0  0  0
  -18.8131  -10.1337    7.7505 H   0  0  0  0  0  0  0  0  0  0  0  0
  -20.6586   -9.7293    6.1382 H   0  0  0  0  0  0  0  0  0  0  0  0
  -21.7804   -7.7372    7.4506 H   0  0  0  0  0  0  0  0  0  0  0  0
  -20.0777   -7.6383    7.3125 H   0  0  0  0  0  0  0  0  0  0  0  0
  -18.6661   -4.9857   14.9282 H   0  0  0  0  0  0  0  0  0  0  0  0
  -18.0377   -3.6922   13.9358 H   0  0  0  0  0  0  0  0  0  0  0  0
  -16.9977   -5.0138   14.4099 H   0  0  0  0  0  0  0  0  0  0  0  0
  -19.0229   -7.2469   13.9713 H   0  0  0  0  0  0  0  0  0  0  0  0
  -17.3580   -7.3003   13.4435 H   0  0  0  0  0  0  0  0  0  0  0  0
  -18.6476   -7.5665   12.2950 H   0  0  0  0  0  0  0  0  0  0  0  0
  -20.0072   -4.0848   12.7079 H   0  0  0  0  0  0  0  0  0  0  0  0
  -20.5600   -5.7128   12.7359 H   0  0  0  0  0  0  0  0  0  0  0  0
  -17.8811   -4.8967    9.7166 H   0  0  0  0  0  0  0  0  0  0  0  0
  -18.1595   -6.5102   10.2534 H   0  0  0  0  0  0  0  0  0  0  0  0
  1  2  2  0  0  0  0
  2  3  1  0  0  0  0
  2 51  1  0  0  0  0
  3  4  2  0  0  0  0
  3 52  1  0  0  0  0
  4 18  1  0  0  0  0
  4  5  1  0  0  0  0
  5  6  2  0  0  0  0
  5 53  1  0  0  0  0
  6  7  1  0  0  0  0
  6  1  1  0  0  0  0
  7  8  2  0  0  0  0
  8  9  1  0  0  0  0
  8 54  1  0  0  0  0
  9 10  2  0  0  0  0
  9 55  1  0  0  0  0
 10 11  1  0  0  0  0
 10 56  1  0  0  0  0
 11 12  1  0  0  0  0
 11 13  2  0  0  0  0
 13 14  1  0  0  0  0
 13  7  1  0  0  0  0
 14 15  1  0  0  0  0
 14 57  1  0  0  0  0
 15 16  1  0  0  0  0
 15 58  1  0  0  0  0
 15 59  1  0  0  0  0
 16 17  1  0  0  0  0
 16 60  1  0  0  0  0
 16 61  1  0  0  0  0
 17 14  1  0  0  0  0
 17 62  1  0  0  0  0
 17 63  1  0  0  0  0
 18 19  1  0  0  0  0
 18 20  1  0  0  0  0
 18 21  1  0  0  0  0
 19 64  1  0  0  0  0
 19 65  1  0  0  0  0
 19 66  1  0  0  0  0
 20 67  1  0  0  0  0
 20 68  1  0  0  0  0
 20 69  1  0  0  0  0
 21 22  2  0  0  0  0
 21 23  1  0  0  0  0
 23 25  1  0  0  0  0
 23 24  1  0  0  0  0
 25 26  2  0  0  0  0
 25 27  2  0  0  0  0
 25 28  1  0  0  0  0
 28 29  1  0  0  0  0
 29 30  1  0  0  0  0
 29 70  1  0  0  0  0
 29 71  1  0  0  0  0
 30 31  1  0  0  0  0
 30 72  1  0  0  0  0
 30 73  1  0  0  0  0
 31 28  1  0  0  0  0
 31 74  1  0  0  0  0
 31 75  1  0  0  0  0
 32  1  1  0  0  0  0
 33 34  1  0  0  0  0
 33 76  1  1  0  0  0
 34 35  1  0  0  0  0
 34 77  1  0  0  0  0
 34 78  1  0  0  0  0
 35 36  1  0  0  0  0
 35 79  1  0  0  0  0
 35 80  1  0  0  0  0
 36 32  1  0  0  0  0
 36 37  1  0  0  0  0
 36 81  1  6  0  0  0
 37 33  1  0  0  0  0
 37 82  1  0  0  0  0
 37 83  1  0  0  0  0
 38 39  2  0  0  0  0
 38 40  1  0  0  0  0
 40 33  1  0  0  0  0
 40 41  1  0  0  0  0
 42 43  1  0  0  0  0
 42 84  1  0  0  0  0
 42 85  1  0  0  0  0
 42 86  1  0  0  0  0
 43 44  1  0  0  0  0
 43 45  1  0  0  0  0
 44 87  1  0  0  0  0
 44 88  1  0  0  0  0
 44 89  1  0  0  0  0
 45 46  1  0  0  0  0
 45 90  1  0  0  0  0
 45 91  1  0  0  0  0
 46 47  1  6  0  0  0
 46 38  1  0  0  0  0
 46 48  1  0  0  0  0
 48 49  1  0  0  0  0
 48 92  1  0  0  0  0
 48 93  1  0  0  0  0
 49 43  1  0  0  0  0
 49 50  1  0  0  0  0
M  END
>  <minimizedAffinity>
-6.63045

$$$$
