L3:Q92830:31993
     RDKit          3D

 93 98  0  0  0  0  0  0  0  0999 V2000
   10.3228    1.4456    0.1970 C   0  0  0  0  0  0  0  0  0  0  0  0
    8.9486    1.5317    0.8704 C   0  0  0  0  0  0  0  0  0  0  0  0
    8.4720    2.9929    0.8514 C   0  0  0  0  0  0  0  0  0  0  0  0
    7.9372    0.5938    0.1938 C   0  0  0  0  0  0  0  0  0  0  0  0
    7.0650    0.0520    1.3228 C   0  0  2  0  0  0  0  0  0  0  0  0
    7.2193   -1.3135    1.3598 F   0  0  0  0  0  0  0  0  0  0  0  0
    5.5901    0.4335    1.2089 C   0  0  0  0  0  0  0  0  0  0  0  0
    5.1952    1.5030    0.7537 O   0  0  0  0  0  0  0  0  0  0  0  0
    4.7404   -0.5292    1.7219 N   0  0  0  0  0  0  0  0  0  0  0  0
    3.3011   -0.3570    1.7422 C   0  0  2  0  0  0  0  0  0  0  0  0
    2.6085   -1.3320    2.7041 C   0  0  0  0  0  0  0  0  0  0  0  0
    1.6148   -2.1212    1.8528 C   0  0  0  0  0  0  0  0  0  0  0  0
    1.3058   -1.1990    0.6769 C   0  0  1  0  0  0  0  0  0  0  0  0
    0.4235   -0.1612    1.1303 O   0  0  0  0  0  0  0  0  0  0  0  0
   -0.5318    0.1354    0.1920 C   0  0  0  0  0  0  0  0  0  0  0  0
   -0.2948    1.2239   -0.6459 C   0  0  0  0  0  0  0  0  0  0  0  0
   -1.2485    1.6059   -1.5918 C   0  0  0  0  0  0  0  0  0  0  0  0
   -2.4687    0.9230   -1.6979 C   0  0  0  0  0  0  0  0  0  0  0  0
   -3.5637    1.3221   -2.7058 C   0  0  0  0  0  0  0  0  0  0  0  0
   -3.2898    2.6441   -3.4533 C   0  0  0  0  0  0  0  0  0  0  0  0
   -3.6745    0.2013   -3.7618 C   0  0  0  0  0  0  0  0  0  0  0  0
   -4.9325    1.5122   -2.0054 C   0  0  0  0  0  0  0  0  0  0  0  0
   -5.9713    1.0584   -2.4688 O   0  0  0  0  0  0  0  0  0  0  0  0
   -4.8970    2.2858   -0.8241 N   0  0  0  0  0  0  0  0  0  0  0  0
   -6.0222    2.1485    0.3780 S   0  0  0  0  0  6  0  0  0  0  0  0
   -5.6659    3.1373    1.3703 O   0  0  0  0  0  0  0  0  0  0  0  0
   -6.1384    0.7544    0.7303 O   0  0  0  0  0  0  0  0  0  0  0  0
   -7.4234    2.6543   -0.3820 N   0  0  0  0  0  0  0  0  0  0  0  0
   -7.6990    4.0515   -0.8248 C   0  0  0  0  0  0  0  0  0  0  0  0
   -8.8608    4.1472    0.1738 C   0  0  0  0  0  0  0  0  0  0  0  0
   -8.7688    2.6175    0.2640 C   0  0  0  0  0  0  0  0  0  0  0  0
   -2.6916   -0.1663   -0.8259 C   0  0  0  0  0  0  0  0  0  0  0  0
   -1.7399   -0.5747    0.1274 C   0  0  0  0  0  0  0  0  0  0  0  0
   -2.0482   -1.6975    1.0325 C   0  0  0  0  0  0  0  0  0  0  0  0
   -2.3521   -1.3992    2.3792 C   0  0  0  0  0  0  0  0  0  0  0  0
   -2.6646   -2.4027    3.2895 C   0  0  0  0  0  0  0  0  0  0  0  0
   -2.6787   -3.7202    2.8625 C   0  0  0  0  0  0  0  0  0  0  0  0
   -2.3805   -4.0230    1.5339 C   0  0  0  0  0  0  0  0  0  0  0  0
   -2.4156   -5.3173    1.1850 F   0  0  0  0  0  0  0  0  0  0  0  0
   -2.0535   -3.0469    0.5683 C   0  0  0  0  0  0  0  0  0  0  0  0
   -1.7137   -3.4198   -0.9614 C   0  0  0  0  0  0  0  0  0  0  0  0
   -1.2557   -4.8457   -1.3678 C   0  0  0  0  0  0  0  0  0  0  0  0
   -2.6930   -5.1337   -1.8350 C   0  0  0  0  0  0  0  0  0  0  0  0
   -2.9113   -3.6152   -1.9337 C   0  0  0  0  0  0  0  0  0  0  0  0
    2.6776   -0.6117    0.3648 C   0  0  0  0  0  0  0  0  0  0  0  0
    7.6612    0.6295    2.6046 C   0  0  0  0  0  0  0  0  0  0  0  0
    9.0368    1.0448    2.2630 N   0  0  0  0  0  0  0  0  0  0  0  0
   10.7139    0.4215    0.2066 H   0  0  0  0  0  0  0  0  0  0  0  0
   11.0556    2.0838    0.7041 H   0  0  0  0  0  0  0  0  0  0  0  0
   10.2659    1.7661   -0.8495 H   0  0  0  0  0  0  0  0  0  0  0  0
    7.4784    3.1153    1.2947 H   0  0  0  0  0  0  0  0  0  0  0  0
    9.1625    3.6407    1.4041 H   0  0  0  0  0  0  0  0  0  0  0  0
    8.4161    3.3694   -0.1766 H   0  0  0  0  0  0  0  0  0  0  0  0
    8.4468   -0.2471   -0.2933 H   0  0  0  0  0  0  0  0  0  0  0  0
    7.3630    1.1139   -0.5807 H   0  0  0  0  0  0  0  0  0  0  0  0
    5.1479   -1.4228    1.9826 H   0  0  0  0  0  0  0  0  0  0  0  0
    3.0901    0.6729    2.0572 H   0  0  0  0  0  0  0  0  0  0  0  0
    3.2993   -2.0010    3.2278 H   0  0  0  0  0  0  0  0  0  0  0  0
    2.0663   -0.7628    3.4693 H   0  0  0  0  0  0  0  0  0  0  0  0
    0.7280   -2.3886    2.4341 H   0  0  0  0  0  0  0  0  0  0  0  0
    2.0886   -3.0427    1.4943 H   0  0  0  0  0  0  0  0  0  0  0  0
    0.9018   -1.7608   -0.1733 H   0  0  0  0  0  0  0  0  0  0  0  0
    0.6355    1.7805   -0.5612 H   0  0  0  0  0  0  0  0  0  0  0  0
   -1.0074    2.4517   -2.2309 H   0  0  0  0  0  0  0  0  0  0  0  0
   -4.1302    2.9076   -4.1073 H   0  0  0  0  0  0  0  0  0  0  0  0
   -3.1530    3.4822   -2.7597 H   0  0  0  0  0  0  0  0  0  0  0  0
   -2.3957    2.5763   -4.0835 H   0  0  0  0  0  0  0  0  0  0  0  0
   -4.4032    0.4571   -4.5403 H   0  0  0  0  0  0  0  0  0  0  0  0
   -2.7114    0.0213   -4.2541 H   0  0  0  0  0  0  0  0  0  0  0  0
   -4.0031   -0.7463   -3.3193 H   0  0  0  0  0  0  0  0  0  0  0  0
   -3.9873    2.5065   -0.4291 H   0  0  0  0  0  0  0  0  0  0  0  0
   -7.9962    4.0842   -1.8780 H   0  0  0  0  0  0  0  0  0  0  0  0
   -6.8768    4.7514   -0.6554 H   0  0  0  0  0  0  0  0  0  0  0  0
   -9.7975    4.5437   -0.2245 H   0  0  0  0  0  0  0  0  0  0  0  0
   -8.6059    4.6639    1.1047 H   0  0  0  0  0  0  0  0  0  0  0  0
   -8.7710    2.2089    1.2778 H   0  0  0  0  0  0  0  0  0  0  0  0
   -9.4932    2.0765   -0.3532 H   0  0  0  0  0  0  0  0  0  0  0  0
   -3.6378   -0.7103   -0.8686 H   0  0  0  0  0  0  0  0  0  0  0  0
   -2.3473   -0.3636    2.7179 H   0  0  0  0  0  0  0  0  0  0  0  0
   -2.9006   -2.1535    4.3202 H   0  0  0  0  0  0  0  0  0  0  0  0
   -2.9248   -4.5235    3.5500 H   0  0  0  0  0  0  0  0  0  0  0  0
   -0.9941   -2.6921   -1.3636 H   0  0  0  0  0  0  0  0  0  0  0  0
   -0.8664   -5.4936   -0.5792 H   0  0  0  0  0  0  0  0  0  0  0  0
   -0.5279   -4.8450   -2.1893 H   0  0  0  0  0  0  0  0  0  0  0  0
   -3.3215   -5.6212   -1.0824 H   0  0  0  0  0  0  0  0  0  0  0  0
   -2.7815   -5.6849   -2.7749 H   0  0  0  0  0  0  0  0  0  0  0  0
   -3.8862   -3.2640   -1.5842 H   0  0  0  0  0  0  0  0  0  0  0  0
   -2.7301   -3.2075   -2.9351 H   0  0  0  0  0  0  0  0  0  0  0  0
    2.6258    0.3129   -0.2181 H   0  0  0  0  0  0  0  0  0  0  0  0
    3.2732   -1.3379   -0.2028 H   0  0  0  0  0  0  0  0  0  0  0  0
    7.1038    1.4985    2.9724 H   0  0  0  0  0  0  0  0  0  0  0  0
    7.6865   -0.1130    3.4090 H   0  0  0  0  0  0  0  0  0  0  0  0
    9.6312    0.2126    2.2833 H   0  0  0  0  0  0  0  0  0  0  0  0
  1  2  1  0
  2  3  1  0
  2  4  1  0
  4  5  1  0
  5  6  1  1
  5  7  1  0
  7  8  2  0
  7  9  1  0
  9 10  1  0
 10 11  1  0
 11 12  1  0
 12 13  1  0
 13 14  1  0
 14 15  1  0
 15 16  2  0
 16 17  1  0
 17 18  2  0
 18 19  1  0
 19 20  1  0
 19 21  1  0
 19 22  1  0
 22 23  2  0
 22 24  1  0
 24 25  1  0
 25 26  2  0
 25 27  2  0
 25 28  1  0
 28 29  1  0
 29 30  1  0
 30 31  1  0
 18 32  1  0
 32 33  2  0
 33 34  1  0
 34 35  2  0
 35 36  1  0
 36 37  2  0
 37 38  1  0
 38 39  1  0
 38 40  2  0
 40 41  1  0
 41 42  1  0
 42 43  1  0
 43 44  1  0
 13 45  1  0
  5 46  1  0
 46 47  1  0
 47  2  1  0
 45 10  1  0
 33 15  1  0
 40 34  1  0
 44 41  1  0
 31 28  1  0
  1 48  1  0
  1 49  1  0
  1 50  1  0
  3 51  1  0
  3 52  1  0
  3 53  1  0
  4 54  1  0
  4 55  1  0
  9 56  1  0
 10 57  1  1
 11 58  1  0
 11 59  1  0
 12 60  1  0
 12 61  1  0
 13 62  1  6
 16 63  1  0
 17 64  1  0
 20 65  1  0
 20 66  1  0
 20 67  1  0
 21 68  1  0
 21 69  1  0
 21 70  1  0
 24 71  1  0
 29 72  1  0
 29 73  1  0
 30 74  1  0
 30 75  1  0
 31 76  1  0
 31 77  1  0
 32 78  1  0
 35 79  1  0
 36 80  1  0
 37 81  1  0
 41 82  1  0
 42 83  1  0
 42 84  1  0
 43 85  1  0
 43 86  1  0
 44 87  1  0
 44 88  1  0
 45 89  1  0
 45 90  1  0
 46 91  1  0
 46 92  1  0
 47 93  1  0
M  END
>  <mol_id>  (1) 
31993

>  <source_index>  (1) 
3

>  <layer>  (1) 
L3

>  <uniprot>  (1) 
Q92830

>  <paff>  (1) 
7.8665000000000003

>  <smiles>  (1) 
CC1(C)C[C@](F)(C(=O)N[C@@H]2CC[C@@H](Oc3ccc(C(C)(C)C(=O)NS(=O)(=O)N4CCC4)cc3-c3cccc(F)c3C3CCC3)C2)CN1

$$$$
