L3:Q92830:45193


 47 51  0  0  0  0  0  0  0  0999 V2000
  -22.0725  -12.8837    9.2559 C   0  0  0  0  0  0  0  0  0  0  0  0
  -21.1656  -11.8819    8.8576 C   0  0  0  0  0  0  0  0  0  0  0  0
  -20.8194  -10.8232    9.7075 C   0  0  0  0  0  0  0  0  0  0  0  0
  -21.3599  -10.8053   10.9980 C   0  0  0  0  0  0  0  0  0  0  0  0
  -22.2348  -11.8093   11.4253 C   0  0  0  0  0  0  0  0  0  0  0  0
  -22.5876  -12.8556   10.5698 C   0  0  0  0  0  0  0  0  0  0  0  0
  -21.7597  -15.2366    8.2928 C   0  0  0  0  0  0  0  0  0  0  0  0
  -22.2090  -16.1944    7.3524 C   0  0  0  0  0  0  0  0  0  0  0  0
  -23.2362  -15.9190    6.4500 C   0  0  0  0  0  0  0  0  0  0  0  0
  -23.8472  -14.6755    6.4627 C   0  0  0  0  0  0  0  0  0  0  0  0
  -23.4318  -13.7166    7.3842 C   0  0  0  0  0  0  0  0  0  0  0  0
  -22.3961  -13.9710    8.3125 C   0  0  0  0  0  0  0  0  0  0  0  0
  -19.4754  -16.3331    8.4391 C   0  0  0  0  0  0  0  0  0  0  0  0
  -20.6253  -15.6868    9.2130 C   0  0  0  0  0  0  0  0  0  0  0  0
  -21.0433  -16.5444   10.4078 C   0  0  0  0  0  0  0  0  0  0  0  0
  -19.8326   -9.7544    9.2990 C   0  0  0  0  0  0  0  0  0  0  0  0
  -20.4563   -8.4121    8.9654 C   0  0  0  0  0  0  0  0  0  0  0  0
  -21.3502   -8.2859    8.1405 O   0  0  0  0  0  0  0  0  0  0  0  0
  -19.9004   -7.3209    9.6508 N   0  0  0  0  0  0  0  0  0  0  0  0
  -19.1795   -7.4498   10.3539 H   0  0  0  0  0  0  0  0  0  0  0  0
  -20.5906   -5.8115    9.7266 S   0  0  0  0  0  0  0  0  0  0  0  0
  -20.1163   -5.0678    8.5797 O   0  0  0  0  0  0  0  0  0  0  0  0
  -22.0080   -6.0673    9.8846 O   0  0  0  0  0  0  0  0  0  0  0  0
  -20.0596   -4.9745   11.2398 C   0  0  0  0  0  0  0  0  0  0  0  0
  -18.6659   -5.3038   11.6292 C   0  0  0  0  0  0  0  0  0  0  0  0
  -20.6742   -3.6282   11.5151 C   0  0  0  0  0  0  0  0  0  0  0  0
  -21.1428   -4.8392   12.2815 C   0  0  0  0  0  0  0  0  0  0  0  0
  -23.4345  -13.8809   10.8998 O   0  0  0  0  0  0  0  0  0  0  0  0
  -24.6367  -13.6006   11.6165 C   0  0  0  0  0  0  0  0  0  0  0  0
  -25.7024  -14.5763   11.1201 C   0  0  0  0  0  0  0  0  0  0  0  0
  -26.0917  -14.0093    9.7609 C   0  0  0  0  0  0  0  0  0  0  0  0
  -26.0440  -12.4908    9.9489 C   0  0  0  0  0  0  0  0  0  0  0  0
  -25.2075  -12.2400   11.2165 C   0  0  0  0  0  0  0  0  0  0  0  0
  -27.3787  -11.9312   10.0801 N   0  0  0  0  0  0  0  0  0  0  0  0
  -27.6738  -10.6275    9.7275 C   0  0  0  0  0  0  0  0  0  0  0  0
  -26.8425   -9.8540    9.2617 O   0  0  0  0  0  0  0  0  0  0  0  0
  -28.1189  -12.4726   10.5189 H   0  0  0  0  0  0  0  0  0  0  0  0
  -29.1551  -10.2759    9.9142 C   0  0  0  0  0  0  0  0  0  0  0  0
  -29.9162  -10.9402    8.9800 F   0  0  0  0  0  0  0  0  0  0  0  0
  -29.6384  -10.6767   11.3245 C   0  0  0  0  0  0  0  0  0  0  0  0
  -30.8391   -9.9681   11.8255 N   0  0  0  0  0  0  0  0  0  0  0  0
  -31.6216   -9.4129   10.7215 C   0  0  0  0  0  0  0  0  0  0  0  0
  -30.8357   -8.3446    9.9153 C   0  0  0  0  0  0  0  0  0  0  0  0
  -30.8479   -6.9950   10.6609 C   0  0  0  0  0  0  0  0  0  0  0  0
  -31.5408   -8.1464    8.5600 C   0  0  0  0  0  0  0  0  0  0  0  0
  -29.3591   -8.7764    9.6839 C   0  0  0  0  0  0  0  0  0  0  0  0
  -30.5454   -9.2122   12.4452 H   0  0  0  0  0  0  0  0  0  0  0  0
 13 14  1  0  0  0
 14 15  1  0  0  0
 14  7  1  0  0  0
  7  8  2  0  0  0
  8  9  1  0  0  0
  9 10  2  0  0  0
 10 11  1  0  0  0
 11 12  2  0  0  0
 12  1  1  0  0  0
  1  2  2  0  0  0
  2  3  1  0  0  0
  3 16  1  0  0  0
 16 17  1  0  0  0
 17 18  2  0  0  0
 17 19  1  0  0  0
 19 21  1  0  0  0
 21 22  2  0  0  0
 21 23  2  0  0  0
 21 24  1  0  0  0
 24 25  1  0  0  0
 24 26  1  0  0  0
 26 27  1  0  0  0
  3  4  2  0  0  0
  4  5  1  0  0  0
  5  6  2  0  0  0
  6 28  1  0  0  0
 28 29  1  0  0  0
 29 30  1  0  0  0
 30 31  1  0  0  0
 31 32  1  0  0  0
 32 34  1  0  0  0
 34 35  1  0  0  0
 35 36  2  0  0  0
 35 38  1  0  0  0
 38 39  1  0  0  0
 38 40  1  0  0  0
 40 41  1  0  0  0
 41 42  1  0  0  0
 42 43  1  0  0  0
 43 44  1  0  0  0
 43 45  1  0  0  0
 43 46  1  0  0  0
 32 33  1  0  0  0
 12  7  1  0  0  0
  6  1  1  0  0  0
 33 29  1  0  0  0
 27 24  1  0  0  0
 46 38  1  0  0  0
 19 20  1  0  0  0
 34 37  1  0  0  0
 41 47  1  0  0  0
M  END
> <minimizedAffinity>
-7.55982

$$$$
