L3:Q92830:45193
     RDKit          3D

 90 94  0  0  0  0  0  0  0  0999 V2000
   -3.5838   -1.1554    1.3617 C   0  0  0  0  0  0  0  0  0  0  0  0
   -2.3150   -1.7254    0.7260 C   0  0  0  0  0  0  0  0  0  0  0  0
   -1.0853   -0.8966    1.0985 C   0  0  0  0  0  0  0  0  0  0  0  0
   -2.4938   -2.0102   -0.7651 C   0  0  0  0  0  0  0  0  0  0  0  0
   -2.7204   -3.3636   -1.1124 C   0  0  0  0  0  0  0  0  0  0  0  0
   -2.8993   -3.7673   -2.4354 C   0  0  0  0  0  0  0  0  0  0  0  0
   -2.8587   -2.8270   -3.4523 C   0  0  0  0  0  0  0  0  0  0  0  0
   -2.6470   -1.4862   -3.1386 C   0  0  0  0  0  0  0  0  0  0  0  0
   -2.4669   -1.0495   -1.8060 C   0  0  0  0  0  0  0  0  0  0  0  0
   -2.2833    0.4006   -1.6048 C   0  0  0  0  0  0  0  0  0  0  0  0
   -3.4143    1.2042   -1.3601 C   0  0  0  0  0  0  0  0  0  0  0  0
   -3.3048    2.5866   -1.1598 C   0  0  0  0  0  0  0  0  0  0  0  0
   -4.5124    3.4616   -0.9169 C   0  0  0  0  0  0  0  0  0  0  0  0
   -5.5893    2.8284   -0.0560 C   0  0  0  0  0  0  0  0  0  0  0  0
   -5.4476    2.6354    1.1433 O   0  0  0  0  0  0  0  0  0  0  0  0
   -6.7469    2.4467   -0.7516 N   0  0  0  0  0  0  0  0  0  0  0  0
   -8.1850    2.0397   -0.0260 S   0  0  0  0  0  6  0  0  0  0  0  0
   -8.6329    3.2001    0.7132 O   0  0  0  0  0  0  0  0  0  0  0  0
   -8.9988    1.5118   -1.1023 O   0  0  0  0  0  0  0  0  0  0  0  0
   -7.9204    0.6678    1.1229 C   0  0  0  0  0  0  0  0  0  0  0  0
   -7.2883   -0.5133    0.4842 C   0  0  0  0  0  0  0  0  0  0  0  0
   -7.6699    1.0337    2.5615 C   0  0  0  0  0  0  0  0  0  0  0  0
   -9.0174    0.5002    2.1454 C   0  0  0  0  0  0  0  0  0  0  0  0
   -2.0379    3.1723   -1.2585 C   0  0  0  0  0  0  0  0  0  0  0  0
   -0.9069    2.3975   -1.5353 C   0  0  0  0  0  0  0  0  0  0  0  0
   -1.0192    1.0176   -1.7211 C   0  0  0  0  0  0  0  0  0  0  0  0
    0.0297    0.1799   -1.9959 O   0  0  0  0  0  0  0  0  0  0  0  0
    1.3206    0.7284   -2.2607 C   0  0  2  0  0  0  0  0  0  0  0  0
    2.1335   -0.3448   -2.9828 C   0  0  0  0  0  0  0  0  0  0  0  0
    2.5050   -1.3136   -1.8675 C   0  0  0  0  0  0  0  0  0  0  0  0
    2.7645   -0.4202   -0.6517 C   0  0  1  0  0  0  0  0  0  0  0  0
    4.1877   -0.2664   -0.4017 N   0  0  0  0  0  0  0  0  0  0  0  0
    4.6823    0.2082    0.7988 C   0  0  0  0  0  0  0  0  0  0  0  0
    3.9644    0.5153    1.7457 O   0  0  0  0  0  0  0  0  0  0  0  0
    6.2151    0.2435    0.8445 C   0  0  1  0  0  0  0  0  0  0  0  0
    6.7227    0.2406   -0.4344 F   0  0  0  0  0  0  0  0  0  0  0  0
    6.7110    1.5111    1.5729 C   0  0  0  0  0  0  0  0  0  0  0  0
    8.0797    1.4433    2.1358 N   0  0  0  0  0  0  0  0  0  0  0  0
    8.8726    0.4107    1.4690 C   0  0  0  0  0  0  0  0  0  0  0  0
    8.2866   -1.0119    1.6733 C   0  0  0  0  0  0  0  0  0  0  0  0
    8.6698   -1.5540    3.0650 C   0  0  0  0  0  0  0  0  0  0  0  0
    8.9016   -1.9449    0.6128 C   0  0  0  0  0  0  0  0  0  0  0  0
    6.7363   -1.0146    1.5435 C   0  0  0  0  0  0  0  0  0  0  0  0
    2.1039    0.9346   -0.9642 C   0  0  0  0  0  0  0  0  0  0  0  0
   -4.4520   -1.7841    1.1371 H   0  0  0  0  0  0  0  0  0  0  0  0
   -3.8027   -0.1433    1.0137 H   0  0  0  0  0  0  0  0  0  0  0  0
   -3.4799   -1.1099    2.4515 H   0  0  0  0  0  0  0  0  0  0  0  0
   -2.1461   -2.6956    1.2159 H   0  0  0  0  0  0  0  0  0  0  0  0
   -0.8774   -0.9955    2.1703 H   0  0  0  0  0  0  0  0  0  0  0  0
   -1.2271    0.1700    0.9102 H   0  0  0  0  0  0  0  0  0  0  0  0
   -0.1974   -1.2371    0.5568 H   0  0  0  0  0  0  0  0  0  0  0  0
   -2.7565   -4.1277   -0.3372 H   0  0  0  0  0  0  0  0  0  0  0  0
   -3.0660   -4.8159   -2.6662 H   0  0  0  0  0  0  0  0  0  0  0  0
   -2.9911   -3.1309   -4.4867 H   0  0  0  0  0  0  0  0  0  0  0  0
   -2.6183   -0.7599   -3.9495 H   0  0  0  0  0  0  0  0  0  0  0  0
   -4.3868    0.7162   -1.3211 H   0  0  0  0  0  0  0  0  0  0  0  0
   -4.9297    3.7606   -1.8856 H   0  0  0  0  0  0  0  0  0  0  0  0
   -4.2115    4.3829   -0.4023 H   0  0  0  0  0  0  0  0  0  0  0  0
   -6.8576    2.6428   -1.7415 H   0  0  0  0  0  0  0  0  0  0  0  0
   -6.3131   -0.2581    0.0603 H   0  0  0  0  0  0  0  0  0  0  0  0
   -7.1299   -1.3218    1.2064 H   0  0  0  0  0  0  0  0  0  0  0  0
   -7.9175   -0.9109   -0.3183 H   0  0  0  0  0  0  0  0  0  0  0  0
   -7.5976    2.0810    2.8361 H   0  0  0  0  0  0  0  0  0  0  0  0
   -7.0227    0.3919    3.1483 H   0  0  0  0  0  0  0  0  0  0  0  0
   -9.8538    1.1916    2.1417 H   0  0  0  0  0  0  0  0  0  0  0  0
   -9.2837   -0.5026    2.4588 H   0  0  0  0  0  0  0  0  0  0  0  0
   -1.9141    4.2452   -1.1198 H   0  0  0  0  0  0  0  0  0  0  0  0
    0.0501    2.9061   -1.5866 H   0  0  0  0  0  0  0  0  0  0  0  0
    1.2572    1.6252   -2.8864 H   0  0  0  0  0  0  0  0  0  0  0  0
    3.0396    0.0902   -3.4202 H   0  0  0  0  0  0  0  0  0  0  0  0
    1.5645   -0.8495   -3.7697 H   0  0  0  0  0  0  0  0  0  0  0  0
    1.6536   -1.9743   -1.6607 H   0  0  0  0  0  0  0  0  0  0  0  0
    3.3550   -1.9469   -2.1411 H   0  0  0  0  0  0  0  0  0  0  0  0
    2.3182   -0.8672    0.2442 H   0  0  0  0  0  0  0  0  0  0  0  0
    4.8583   -0.4307   -1.1479 H   0  0  0  0  0  0  0  0  0  0  0  0
    6.6896    2.3464    0.8624 H   0  0  0  0  0  0  0  0  0  0  0  0
    6.0390    1.7884    2.3932 H   0  0  0  0  0  0  0  0  0  0  0  0
    8.0199    1.2324    3.1326 H   0  0  0  0  0  0  0  0  0  0  0  0
    9.8968    0.4518    1.8598 H   0  0  0  0  0  0  0  0  0  0  0  0
    8.9586    0.6576    0.4030 H   0  0  0  0  0  0  0  0  0  0  0  0
    9.7580   -1.5985    3.1867 H   0  0  0  0  0  0  0  0  0  0  0  0
    8.2721   -0.9239    3.8676 H   0  0  0  0  0  0  0  0  0  0  0  0
    8.2776   -2.5667    3.2138 H   0  0  0  0  0  0  0  0  0  0  0  0
    8.5571   -2.9771    0.7432 H   0  0  0  0  0  0  0  0  0  0  0  0
    9.9956   -1.9497    0.6779 H   0  0  0  0  0  0  0  0  0  0  0  0
    8.6283   -1.6285   -0.3999 H   0  0  0  0  0  0  0  0  0  0  0  0
    6.4016   -1.9079    1.0007 H   0  0  0  0  0  0  0  0  0  0  0  0
    6.2726   -1.0794    2.5375 H   0  0  0  0  0  0  0  0  0  0  0  0
    2.8620    1.7129   -1.1156 H   0  0  0  0  0  0  0  0  0  0  0  0
    1.4655    1.2455   -0.1307 H   0  0  0  0  0  0  0  0  0  0  0  0
  1  2  1  0
  2  3  1  0
  2  4  1  0
  4  5  2  0
  5  6  1  0
  6  7  2  0
  7  8  1  0
  8  9  2  0
  9 10  1  0
 10 11  2  0
 11 12  1  0
 12 13  1  0
 13 14  1  0
 14 15  2  0
 14 16  1  0
 16 17  1  0
 17 18  2  0
 17 19  2  0
 17 20  1  0
 20 21  1  0
 20 22  1  0
 22 23  1  0
 12 24  2  0
 24 25  1  0
 25 26  2  0
 26 27  1  0
 27 28  1  0
 28 29  1  0
 29 30  1  0
 30 31  1  0
 31 32  1  0
 32 33  1  0
 33 34  2  0
 33 35  1  0
 35 36  1  6
 35 37  1  0
 37 38  1  0
 38 39  1  0
 39 40  1  0
 40 41  1  0
 40 42  1  0
 40 43  1  0
 31 44  1  0
  9  4  1  0
 26 10  1  0
 44 28  1  0
 23 20  1  0
 43 35  1  0
  1 45  1  0
  1 46  1  0
  1 47  1  0
  2 48  1  0
  3 49  1  0
  3 50  1  0
  3 51  1  0
  5 52  1  0
  6 53  1  0
  7 54  1  0
  8 55  1  0
 11 56  1  0
 13 57  1  0
 13 58  1  0
 16 59  1  0
 21 60  1  0
 21 61  1  0
 21 62  1  0
 22 63  1  0
 22 64  1  0
 23 65  1  0
 23 66  1  0
 24 67  1  0
 25 68  1  0
 28 69  1  6
 29 70  1  0
 29 71  1  0
 30 72  1  0
 30 73  1  0
 31 74  1  1
 32 75  1  0
 37 76  1  0
 37 77  1  0
 38 78  1  0
 39 79  1  0
 39 80  1  0
 41 81  1  0
 41 82  1  0
 41 83  1  0
 42 84  1  0
 42 85  1  0
 42 86  1  0
 43 87  1  0
 43 88  1  0
 44 89  1  0
 44 90  1  0
M  END
>  <mol_id>  (1) 
45193

>  <source_index>  (1) 
4

>  <layer>  (1) 
L3

>  <uniprot>  (1) 
Q92830

>  <paff>  (1) 
9.9586000000000006

>  <smiles>  (1) 
CC(C)c1ccccc1-c1cc(CC(=O)NS(=O)(=O)C2(C)CC2)ccc1O[C@@H]1CC[C@@H](NC(=O)[C@@]2(F)CNCC(C)(C)C2)C1

$$$$
