L3:Q92830:53417


 50 55  0  0  0  0  0  0  0  0999 V2000
  -17.5995  -14.3381    5.4435 C   0  0  0  0  0  0  0  0  0  0  0  0
  -17.6653  -14.8037    6.7690 C   0  0  0  0  0  0  0  0  0  0  0  0
  -18.5643  -14.2576    7.6887 C   0  0  0  0  0  0  0  0  0  0  0  0
  -19.4306  -13.2350    7.3050 C   0  0  0  0  0  0  0  0  0  0  0  0
  -19.4392  -12.7910    5.9674 C   0  0  0  0  0  0  0  0  0  0  0  0
  -18.5038  -13.3342    5.0630 C   0  0  0  0  0  0  0  0  0  0  0  0
  -20.3277  -11.7023    5.5169 C   0  0  0  0  0  0  0  0  0  0  0  0
  -19.8358  -10.3819    5.6691 C   0  0  0  0  0  0  0  0  0  0  0  0
  -20.5866   -9.2697    5.3039 C   0  0  0  0  0  0  0  0  0  0  0  0
  -21.8437   -9.4596    4.7612 C   0  0  0  0  0  0  0  0  0  0  0  0
  -22.3320  -10.7548    4.5966 C   0  0  0  0  0  0  0  0  0  0  0  0
  -23.5572  -10.8829    4.0609 F   0  0  0  0  0  0  0  0  0  0  0  0
  -21.6186  -11.9247    4.9594 C   0  0  0  0  0  0  0  0  0  0  0  0
  -22.3309  -13.3448    4.7138 C   0  0  0  0  0  0  0  0  0  0  0  0
  -22.3305  -14.4365    5.8032 C   0  0  0  0  0  0  0  0  0  0  0  0
  -21.5747  -15.3799    4.8592 C   0  0  0  0  0  0  0  0  0  0  0  0
  -21.7330  -14.3637    3.7213 C   0  0  0  0  0  0  0  0  0  0  0  0
  -16.5516  -14.9263    4.4812 C   0  0  0  0  0  0  0  0  0  0  0  0
  -15.6018  -15.8307    5.2935 C   0  0  0  0  0  0  0  0  0  0  0  0
  -17.1416  -15.7722    3.3337 C   0  0  0  0  0  0  0  0  0  0  0  0
  -16.1578  -13.4569    2.4964 N   0  0  0  0  0  0  0  0  0  0  0  0
  -15.7381  -13.8018    3.7972 C   0  0  0  0  0  0  0  0  0  0  0  0
  -14.7599  -13.2752    4.3110 O   0  0  0  0  0  0  0  0  0  0  0  0
  -16.9584  -13.9233    2.0751 H   0  0  0  0  0  0  0  0  0  0  0  0
  -15.8289  -12.0009    1.7771 S   0  0  0  0  0  0  0  0  0  0  0  0
  -16.9215  -11.6922    0.8816 O   0  0  0  0  0  0  0  0  0  0  0  0
  -14.4831  -12.1434    1.2590 O   0  0  0  0  0  0  0  0  0  0  0  0
  -17.1496  -10.1151    3.2439 C   0  0  0  0  0  0  0  0  0  0  0  0
  -15.8013  -10.8244    3.1513 C   0  0  0  0  0  0  0  0  0  0  0  0
  -14.6684   -9.8152    3.0034 C   0  0  0  0  0  0  0  0  0  0  0  0
  -20.3143  -12.6210    8.1533 O   0  0  0  0  0  0  0  0  0  0  0  0
  -19.8367  -12.1221    9.4047 C   0  0  0  0  0  0  0  0  0  0  0  0
  -21.0342  -12.0810   10.3575 C   0  0  0  0  0  0  0  0  0  0  0  0
  -21.7750  -10.7821   10.0223 C   0  0  0  0  0  0  0  0  0  0  0  0
  -20.7959   -9.9395    9.1957 C   0  0  0  0  0  0  0  0  0  0  0  0
  -19.4485  -10.6462    9.3322 C   0  0  0  0  0  0  0  0  0  0  0  0
  -20.7436   -8.5550    9.6246 N   0  0  0  0  0  0  0  0  0  0  0  0
  -21.4201   -7.5612    8.9350 C   0  0  0  0  0  0  0  0  0  0  0  0
  -22.0689   -7.8099    7.9192 O   0  0  0  0  0  0  0  0  0  0  0  0
  -20.2486   -8.3345   10.4785 H   0  0  0  0  0  0  0  0  0  0  0  0
  -21.3003   -6.1375    9.4995 C   0  0  0  0  0  0  0  0  0  0  0  0
  -22.4496   -5.4189    9.2895 F   0  0  0  0  0  0  0  0  0  0  0  0
  -20.1327   -5.3636    8.8719 C   0  0  0  0  0  0  0  0  0  0  0  0
  -19.5396   -4.4908    9.9111 N   0  0  0  0  0  0  0  0  0  0  0  0
  -20.3104   -4.7593   11.1311 C   0  0  0  0  0  0  0  0  0  0  0  0
  -19.4620   -4.4343   12.3840 C   0  0  0  0  0  0  0  0  0  0  0  0
  -20.6940   -3.6774   12.9289 C   0  0  0  0  0  0  0  0  0  0  0  0
  -21.1497   -3.4947   11.4638 C   0  0  0  0  0  0  0  0  0  0  0  0
  -21.0076   -6.0930   10.9924 C   0  0  0  0  0  0  0  0  0  0  0  0
  -18.5359   -4.6592    9.9725 H   0  0  0  0  0  0  0  0  0  0  0  0
 28 29  1  0  0  0
 29 30  1  0  0  0
 29 25  1  0  0  0
 25 26  2  0  0  0
 25 27  2  0  0  0
 25 21  1  0  0  0
 21 22  1  0  0  0
 22 23  2  0  0  0
 22 18  1  0  0  0
 18 19  1  0  0  0
 18 20  1  0  0  0
 18  1  1  0  0  0
  1  2  2  0  0  0
  2  3  1  0  0  0
  3  4  2  0  0  0
  4 31  1  0  0  0
 31 32  1  0  0  0
 32 33  1  0  0  0
 33 34  1  0  0  0
 34 35  1  0  0  0
 35 37  1  0  0  0
 37 38  1  0  0  0
 38 39  2  0  0  0
 38 41  1  0  0  0
 41 42  1  0  0  0
 41 43  1  0  0  0
 43 44  1  0  0  0
 44 45  1  0  0  0
 45 46  1  0  0  0
 46 47  1  0  0  0
 47 48  1  0  0  0
 45 49  1  0  0  0
 35 36  1  0  0  0
  4  5  1  0  0  0
  5  7  1  0  0  0
  7  8  2  0  0  0
  8  9  1  0  0  0
  9 10  2  0  0  0
 10 11  1  0  0  0
 11 12  1  0  0  0
 11 13  2  0  0  0
 13 14  1  0  0  0
 14 15  1  0  0  0
 15 16  1  0  0  0
 16 17  1  0  0  0
  5  6  2  0  0  0
  6  1  1  0  0  0
 36 32  1  0  0  0
 13  7  1  0  0  0
 17 14  1  0  0  0
 49 41  1  0  0  0
 48 45  1  0  0  0
 21 24  1  0  0  0
 37 40  1  0  0  0
 44 50  1  0  0  0
M  END
> <minimizedAffinity>
-7.43775

$$$$
