L3:Q92830:53417
 OpenBabel09212617513D

 94 99  0  0  0  0  0  0  0  0999 V2000
  -17.5995  -14.3381    5.4435 C   0  0  0  0  0  0  0  0  0  0  0  0
  -17.6653  -14.8037    6.7690 C   0  0  0  0  0  0  0  0  0  0  0  0
  -18.5643  -14.2576    7.6887 C   0  0  0  0  0  0  0  0  0  0  0  0
  -19.4306  -13.2350    7.3050 C   0  0  0  0  0  0  0  0  0  0  0  0
  -19.4392  -12.7910    5.9674 C   0  0  0  0  0  0  0  0  0  0  0  0
  -18.5038  -13.3342    5.0630 C   0  0  0  0  0  0  0  0  0  0  0  0
  -20.3277  -11.7023    5.5169 C   0  0  0  0  0  0  0  0  0  0  0  0
  -19.8358  -10.3819    5.6691 C   0  0  0  0  0  0  0  0  0  0  0  0
  -20.5866   -9.2697    5.3039 C   0  0  0  0  0  0  0  0  0  0  0  0
  -21.8437   -9.4596    4.7612 C   0  0  0  0  0  0  0  0  0  0  0  0
  -22.3320  -10.7548    4.5966 C   0  0  0  0  0  0  0  0  0  0  0  0
  -23.5572  -10.8829    4.0609 F   0  0  0  0  0  0  0  0  0  0  0  0
  -21.6186  -11.9247    4.9594 C   0  0  0  0  0  0  0  0  0  0  0  0
  -22.3309  -13.3448    4.7138 C   0  0  0  0  0  0  0  0  0  0  0  0
  -22.3305  -14.4365    5.8032 C   0  0  0  0  0  0  0  0  0  0  0  0
  -21.5747  -15.3799    4.8592 C   0  0  0  0  0  0  0  0  0  0  0  0
  -21.7330  -14.3637    3.7213 C   0  0  0  0  0  0  0  0  0  0  0  0
  -16.5516  -14.9263    4.4812 C   0  0  0  0  0  0  0  0  0  0  0  0
  -15.6018  -15.8307    5.2935 C   0  0  0  0  0  0  0  0  0  0  0  0
  -17.1416  -15.7722    3.3337 C   0  0  0  0  0  0  0  0  0  0  0  0
  -16.1578  -13.4569    2.4964 N   0  0  0  0  0  0  0  0  0  0  0  0
  -15.7381  -13.8018    3.7972 C   0  0  0  0  0  0  0  0  0  0  0  0
  -14.7599  -13.2752    4.3110 O   0  0  0  0  0  0  0  0  0  0  0  0
  -16.9584  -13.9233    2.0751 H   0  0  0  0  0  0  0  0  0  0  0  0
  -15.8289  -12.0009    1.7771 S   0  0  0  0  0  0  0  0  0  0  0  0
  -16.9215  -11.6922    0.8816 O   0  0  0  0  0  0  0  0  0  0  0  0
  -14.4831  -12.1434    1.2590 O   0  0  0  0  0  0  0  0  0  0  0  0
  -17.1496  -10.1151    3.2439 C   0  0  0  0  0  0  0  0  0  0  0  0
  -15.8013  -10.8244    3.1513 C   0  0  0  0  0  0  0  0  0  0  0  0
  -14.6684   -9.8152    3.0034 C   0  0  0  0  0  0  0  0  0  0  0  0
  -20.3143  -12.6210    8.1533 O   0  0  0  0  0  0  0  0  0  0  0  0
  -19.8367  -12.1221    9.4047 C   0  0  2  0  0  0  0  0  0  0  0  0
  -21.0342  -12.0810   10.3575 C   0  0  0  0  0  0  0  0  0  0  0  0
  -21.7750  -10.7821   10.0223 C   0  0  0  0  0  0  0  0  0  0  0  0
  -20.7959   -9.9395    9.1957 C   0  0  2  0  0  0  0  0  0  0  0  0
  -19.4485  -10.6462    9.3322 C   0  0  0  0  0  0  0  0  0  0  0  0
  -20.7436   -8.5550    9.6246 N   0  0  0  0  0  0  0  0  0  0  0  0
  -21.4201   -7.5612    8.9350 C   0  0  0  0  0  0  0  0  0  0  0  0
  -22.0689   -7.8099    7.9192 O   0  0  0  0  0  0  0  0  0  0  0  0
  -20.2486   -8.3345   10.4785 H   0  0  0  0  0  0  0  0  0  0  0  0
  -21.3003   -6.1375    9.4995 C   0  0  2  0  0  0  0  0  0  0  0  0
  -22.4496   -5.4189    9.2895 F   0  0  0  0  0  0  0  0  0  0  0  0
  -20.1327   -5.3636    8.8719 C   0  0  0  0  0  0  0  0  0  0  0  0
  -19.5396   -4.4908    9.9111 N   0  0  0  0  0  0  0  0  0  0  0  0
  -20.3104   -4.7593   11.1311 C   0  0  0  0  0  0  0  0  0  0  0  0
  -19.4620   -4.4343   12.3840 C   0  0  0  0  0  0  0  0  0  0  0  0
  -20.6940   -3.6774   12.9289 C   0  0  0  0  0  0  0  0  0  0  0  0
  -21.1497   -3.4947   11.4638 C   0  0  0  0  0  0  0  0  0  0  0  0
  -21.0076   -6.0930   10.9924 C   0  0  0  0  0  0  0  0  0  0  0  0
  -18.5359   -4.6592    9.9725 H   0  0  0  0  0  0  0  0  0  0  0  0
  -17.0362  -15.5649    7.0687 H   0  0  0  0  0  0  0  0  0  0  0  0
  -18.5871  -14.6132    8.6572 H   0  0  0  0  0  0  0  0  0  0  0  0
  -18.4834  -12.9834    4.0927 H   0  0  0  0  0  0  0  0  0  0  0  0
  -18.8922  -10.2415    6.0627 H   0  0  0  0  0  0  0  0  0  0  0  0
  -20.2111   -8.3175    5.4360 H   0  0  0  0  0  0  0  0  0  0  0  0
  -22.4164   -8.6485    4.4800 H   0  0  0  0  0  0  0  0  0  0  0  0
  -23.2326  -12.8186    4.4795 H   0  0  0  0  0  0  0  0  0  0  0  0
  -23.3059  -14.7813    6.0762 H   0  0  0  0  0  0  0  0  0  0  0  0
  -21.9468  -14.2264    6.7797 H   0  0  0  0  0  0  0  0  0  0  0  0
  -22.0695  -16.3124    4.6846 H   0  0  0  0  0  0  0  0  0  0  0  0
  -20.6068  -15.7513    5.1240 H   0  0  0  0  0  0  0  0  0  0  0  0
  -22.4091  -14.6719    2.9514 H   0  0  0  0  0  0  0  0  0  0  0  0
  -20.8944  -14.0981    3.1121 H   0  0  0  0  0  0  0  0  0  0  0  0
  -14.8643  -16.2502    4.6415 H   0  0  0  0  0  0  0  0  0  0  0  0
  -16.1634  -16.6185    5.7505 H   0  0  0  0  0  0  0  0  0  0  0  0
  -15.1188  -15.2507    6.0519 H   0  0  0  0  0  0  0  0  0  0  0  0
  -16.3481  -16.1396    2.7170 H   0  0  0  0  0  0  0  0  0  0  0  0
  -17.7991  -15.1665    2.7457 H   0  0  0  0  0  0  0  0  0  0  0  0
  -17.6867  -16.5972    3.7426 H   0  0  0  0  0  0  0  0  0  0  0  0
  -17.1317   -9.4197    4.0570 H   0  0  0  0  0  0  0  0  0  0  0  0
  -17.9218  -10.8371    3.4090 H   0  0  0  0  0  0  0  0  0  0  0  0
  -17.3405   -9.5912    2.3307 H   0  0  0  0  0  0  0  0  0  0  0  0
  -15.6244  -11.3664    4.0567 H   0  0  0  0  0  0  0  0  0  0  0  0
  -14.8090   -9.2502    2.1057 H   0  0  0  0  0  0  0  0  0  0  0  0
  -13.7333  -10.3331    2.9561 H   0  0  0  0  0  0  0  0  0  0  0  0
  -14.6677   -9.1539    3.8446 H   0  0  0  0  0  0  0  0  0  0  0  0
  -19.0109  -12.7387    9.6925 H   0  0  0  0  0  0  0  0  0  0  0  0
  -20.7032  -12.0715   11.3750 H   0  0  0  0  0  0  0  0  0  0  0  0
  -21.6633  -12.9391   10.2440 H   0  0  0  0  0  0  0  0  0  0  0  0
  -22.0446  -10.2655   10.9197 H   0  0  0  0  0  0  0  0  0  0  0  0
  -22.6792  -10.9740    9.4834 H   0  0  0  0  0  0  0  0  0  0  0  0
  -21.1053   -9.8759    8.1734 H   0  0  0  0  0  0  0  0  0  0  0  0
  -18.9418  -10.3382   10.2228 H   0  0  0  0  0  0  0  0  0  0  0  0
  -18.7757  -10.4273    8.5295 H   0  0  0  0  0  0  0  0  0  0  0  0
  -20.4900   -4.7665    8.0591 H   0  0  0  0  0  0  0  0  0  0  0  0
  -19.3968   -6.0455    8.4999 H   0  0  0  0  0  0  0  0  0  0  0  0
  -18.6060   -3.8200   12.1976 H   0  0  0  0  0  0  0  0  0  0  0  0
  -18.9731   -5.1997   12.9497 H   0  0  0  0  0  0  0  0  0  0  0  0
  -20.4665   -2.7664   13.4419 H   0  0  0  0  0  0  0  0  0  0  0  0
  -21.3369   -4.1088   13.6674 H   0  0  0  0  0  0  0  0  0  0  0  0
  -20.8080   -2.5945   10.9971 H   0  0  0  0  0  0  0  0  0  0  0  0
  -22.1828   -3.4134   11.1972 H   0  0  0  0  0  0  0  0  0  0  0  0
  -21.9095   -6.1228   11.5673 H   0  0  0  0  0  0  0  0  0  0  0  0
  -20.4310   -6.9222   11.3458 H   0  0  0  0  0  0  0  0  0  0  0  0
  1  2  2  0  0  0  0
  2  3  1  0  0  0  0
  2 51  1  0  0  0  0
  3  4  2  0  0  0  0
  3 52  1  0  0  0  0
  4 31  1  0  0  0  0
  4  5  1  0  0  0  0
  5  7  1  0  0  0  0
  5  6  2  0  0  0  0
  6  1  1  0  0  0  0
  6 53  1  0  0  0  0
  7  8  2  0  0  0  0
  8  9  1  0  0  0  0
  8 54  1  0  0  0  0
  9 10  2  0  0  0  0
  9 55  1  0  0  0  0
 10 11  1  0  0  0  0
 10 56  1  0  0  0  0
 11 12  1  0  0  0  0
 11 13  2  0  0  0  0
 13 14  1  0  0  0  0
 13  7  1  0  0  0  0
 14 15  1  0  0  0  0
 14 57  1  0  0  0  0
 15 16  1  0  0  0  0
 15 58  1  0  0  0  0
 15 59  1  0  0  0  0
 16 17  1  0  0  0  0
 16 60  1  0  0  0  0
 16 61  1  0  0  0  0
 17 14  1  0  0  0  0
 17 62  1  0  0  0  0
 17 63  1  0  0  0  0
 18 19  1  0  0  0  0
 18 20  1  0  0  0  0
 18  1  1  0  0  0  0
 19 64  1  0  0  0  0
 19 65  1  0  0  0  0
 19 66  1  0  0  0  0
 20 67  1  0  0  0  0
 20 68  1  0  0  0  0
 20 69  1  0  0  0  0
 21 22  1  0  0  0  0
 21 24  1  0  0  0  0
 22 23  2  0  0  0  0
 22 18  1  0  0  0  0
 25 26  2  0  0  0  0
 25 27  2  0  0  0  0
 25 21  1  0  0  0  0
 28 29  1  0  0  0  0
 28 70  1  0  0  0  0
 28 71  1  0  0  0  0
 28 72  1  0  0  0  0
 29 30  1  0  0  0  0
 29 25  1  0  0  0  0
 29 73  1  0  0  0  0
 30 74  1  0  0  0  0
 30 75  1  0  0  0  0
 30 76  1  0  0  0  0
 31 32  1  0  0  0  0
 32 33  1  0  0  0  0
 32 77  1  1  0  0  0
 33 34  1  0  0  0  0
 33 78  1  0  0  0  0
 33 79  1  0  0  0  0
 34 35  1  0  0  0  0
 34 80  1  0  0  0  0
 34 81  1  0  0  0  0
 35 37  1  0  0  0  0
 35 36  1  0  0  0  0
 35 82  1  6  0  0  0
 36 32  1  0  0  0  0
 36 83  1  0  0  0  0
 36 84  1  0  0  0  0
 37 38  1  0  0  0  0
 37 40  1  0  0  0  0
 38 39  2  0  0  0  0
 38 41  1  0  0  0  0
 41 42  1  6  0  0  0
 41 43  1  0  0  0  0
 43 44  1  0  0  0  0
 43 85  1  0  0  0  0
 43 86  1  0  0  0  0
 44 45  1  0  0  0  0
 44 50  1  0  0  0  0
 45 46  1  0  0  0  0
 45 49  1  0  0  0  0
 46 47  1  0  0  0  0
 46 87  1  0  0  0  0
 46 88  1  0  0  0  0
 47 48  1  0  0  0  0
 47 89  1  0  0  0  0
 47 90  1  0  0  0  0
 48 45  1  0  0  0  0
 48 91  1  0  0  0  0
 48 92  1  0  0  0  0
 49 41  1  0  0  0  0
 49 93  1  0  0  0  0
 49 94  1  0  0  0  0
M  END
>  <minimizedAffinity>
-7.43775

$$$$
