L3:Q92830:71683
 OpenBabel09212617523D

 94 99  0  0  0  0  0  0  0  0999 V2000
   -9.5000   -6.2540   14.5142 C   0  0  0  0  0  0  0  0  0  0  0  0
   -9.8335   -4.9195   14.2134 C   0  0  0  0  0  0  0  0  0  0  0  0
  -10.9543   -4.3111   14.7787 C   0  0  0  0  0  0  0  0  0  0  0  0
  -11.7798   -5.0306   15.6391 C   0  0  0  0  0  0  0  0  0  0  0  0
  -11.4760   -6.3565   15.9880 C   0  0  0  0  0  0  0  0  0  0  0  0
  -10.3408   -6.9540   15.4001 C   0  0  0  0  0  0  0  0  0  0  0  0
  -12.2941   -7.1346   16.9375 C   0  0  0  0  0  0  0  0  0  0  0  0
  -12.0141   -7.0019   18.3174 C   0  0  0  0  0  0  0  0  0  0  0  0
  -12.7189   -7.7262   19.2734 C   0  0  0  0  0  0  0  0  0  0  0  0
  -13.7113   -8.6003   18.8611 C   0  0  0  0  0  0  0  0  0  0  0  0
  -13.9972   -8.7315   17.5026 C   0  0  0  0  0  0  0  0  0  0  0  0
  -14.9527   -9.6089   17.1601 F   0  0  0  0  0  0  0  0  0  0  0  0
  -13.3309   -8.0039   16.4932 C   0  0  0  0  0  0  0  0  0  0  0  0
  -13.7146   -8.1935   14.9503 C   0  0  0  0  0  0  0  0  0  0  0  0
  -13.4759   -9.5746   14.2612 C   0  0  0  0  0  0  0  0  0  0  0  0
  -14.7189   -9.2871   13.4017 C   0  0  0  0  0  0  0  0  0  0  0  0
  -15.2123   -8.3979   14.5573 C   0  0  0  0  0  0  0  0  0  0  0  0
   -8.2571   -6.8939   13.8620 C   0  0  0  0  0  0  0  0  0  0  0  0
   -7.1147   -6.8086   14.8960 C   0  0  0  0  0  0  0  0  0  0  0  0
   -7.7818   -6.1834   12.5765 C   0  0  0  0  0  0  0  0  0  0  0  0
   -7.9098   -9.3891   14.0793 N   0  0  0  0  0  0  0  0  0  0  0  0
   -8.5795   -8.3458   13.4150 C   0  0  0  0  0  0  0  0  0  0  0  0
   -9.3264   -8.5873   12.4739 O   0  0  0  0  0  0  0  0  0  0  0  0
   -7.2063   -9.2275   14.7913 H   0  0  0  0  0  0  0  0  0  0  0  0
   -8.3907  -10.9747   14.0371 S   0  0  0  0  0  0  0  0  0  0  0  0
   -7.5976  -11.7102   14.9957 O   0  0  0  0  0  0  0  0  0  0  0  0
   -8.3499  -11.3269   12.6323 O   0  0  0  0  0  0  0  0  0  0  0  0
  -10.2828  -10.4855   15.9900 C   0  0  0  0  0  0  0  0  0  0  0  0
  -10.1061  -10.9456   14.5573 C   0  0  0  0  0  0  0  0  0  0  0  0
  -12.8450   -4.3653   16.1898 O   0  0  0  0  0  0  0  0  0  0  0  0
  -13.4544   -3.4672   15.2528 C   0  0  2  0  0  0  0  0  0  0  0  0
  -14.3679   -2.4898   15.9876 C   0  0  0  0  0  0  0  0  0  0  0  0
  -15.6410   -3.2817   16.2894 C   0  0  0  0  0  0  0  0  0  0  0  0
  -15.6274   -4.4912   15.3425 C   0  0  2  0  0  0  0  0  0  0  0  0
  -14.4437   -4.2563   14.4014 C   0  0  0  0  0  0  0  0  0  0  0  0
  -16.8770   -4.6552   14.6201 N   0  0  0  0  0  0  0  0  0  0  0  0
  -16.9109   -5.2414   13.3647 C   0  0  0  0  0  0  0  0  0  0  0  0
  -15.8909   -5.6661   12.8242 O   0  0  0  0  0  0  0  0  0  0  0  0
  -17.7315   -4.3329   15.0539 H   0  0  0  0  0  0  0  0  0  0  0  0
  -18.2990   -5.3477   12.7019 C   0  0  1  0  0  0  0  0  0  0  0  0
  -18.8653   -6.5718   12.9668 F   0  0  0  0  0  0  0  0  0  0  0  0
  -19.2439   -4.2598   13.2682 C   0  0  0  0  0  0  0  0  0  0  0  0
  -20.2900   -3.7833   12.3344 N   0  0  0  0  0  0  0  0  0  0  0  0
  -20.7469   -4.8832   11.4796 C   0  0  0  0  0  0  0  0  0  0  0  0
  -19.6135   -5.3847   10.5590 C   0  0  0  0  0  0  0  0  0  0  0  0
  -19.6804   -4.8522    9.0911 C   0  0  0  0  0  0  0  0  0  0  0  0
  -20.5312   -6.0847    8.7323 C   0  0  0  0  0  0  0  0  0  0  0  0
  -19.9087   -6.7945    9.9484 C   0  0  0  0  0  0  0  0  0  0  0  0
  -18.2102   -5.2308   11.1774 C   0  0  0  0  0  0  0  0  0  0  0  0
  -19.9297   -3.0327   11.7468 H   0  0  0  0  0  0  0  0  0  0  0  0
   -9.2385   -4.3822   13.5635 H   0  0  0  0  0  0  0  0  0  0  0  0
  -11.1720   -3.3265   14.5590 H   0  0  0  0  0  0  0  0  0  0  0  0
  -10.1198   -7.9362   15.6270 H   0  0  0  0  0  0  0  0  0  0  0  0
  -11.2709   -6.3538   18.6217 H   0  0  0  0  0  0  0  0  0  0  0  0
  -12.5052   -7.6138   20.2767 H   0  0  0  0  0  0  0  0  0  0  0  0
  -14.2371   -9.1523   19.5567 H   0  0  0  0  0  0  0  0  0  0  0  0
  -13.1609   -7.3170   14.6856 H   0  0  0  0  0  0  0  0  0  0  0  0
  -13.5689  -10.4194   14.9113 H   0  0  0  0  0  0  0  0  0  0  0  0
  -12.5342   -9.8278   13.8207 H   0  0  0  0  0  0  0  0  0  0  0  0
  -15.3316  -10.1408   13.2001 H   0  0  0  0  0  0  0  0  0  0  0  0
  -14.6427   -8.9228   12.3985 H   0  0  0  0  0  0  0  0  0  0  0  0
  -15.8008   -8.9068   15.2919 H   0  0  0  0  0  0  0  0  0  0  0  0
  -15.8678   -7.5691   14.3889 H   0  0  0  0  0  0  0  0  0  0  0  0
   -6.2278   -7.2431   14.4843 H   0  0  0  0  0  0  0  0  0  0  0  0
   -7.3945   -7.3404   15.7813 H   0  0  0  0  0  0  0  0  0  0  0  0
   -6.9297   -5.7832   15.1393 H   0  0  0  0  0  0  0  0  0  0  0  0
   -6.9205   -6.6861   12.1888 H   0  0  0  0  0  0  0  0  0  0  0  0
   -7.5307   -5.1681   12.8022 H   0  0  0  0  0  0  0  0  0  0  0  0
   -8.5648   -6.2036   11.8475 H   0  0  0  0  0  0  0  0  0  0  0  0
  -11.3231  -10.4895   16.2402 H   0  0  0  0  0  0  0  0  0  0  0  0
   -9.8941   -9.4943   16.0968 H   0  0  0  0  0  0  0  0  0  0  0  0
   -9.7560  -11.1477   16.6448 H   0  0  0  0  0  0  0  0  0  0  0  0
  -10.6454  -10.2798   13.9164 H   0  0  0  0  0  0  0  0  0  0  0  0
  -10.4763  -11.9476   14.4951 H   0  0  0  0  0  0  0  0  0  0  0  0
  -12.6713   -2.9877   14.7035 H   0  0  0  0  0  0  0  0  0  0  0  0
  -14.5890   -1.6452   15.3690 H   0  0  0  0  0  0  0  0  0  0  0  0
  -13.9129   -2.1089   16.8780 H   0  0  0  0  0  0  0  0  0  0  0  0
  -16.5054   -2.6779   16.1075 H   0  0  0  0  0  0  0  0  0  0  0  0
  -15.6758   -3.5887   17.3138 H   0  0  0  0  0  0  0  0  0  0  0  0
  -15.5219   -5.4047   15.8896 H   0  0  0  0  0  0  0  0  0  0  0  0
  -14.7445   -3.6912   13.5440 H   0  0  0  0  0  0  0  0  0  0  0  0
  -14.0293   -5.1668   14.0218 H   0  0  0  0  0  0  0  0  0  0  0  0
  -18.6469   -3.4188   13.5532 H   0  0  0  0  0  0  0  0  0  0  0  0
  -19.7619   -4.7140   14.0869 H   0  0  0  0  0  0  0  0  0  0  0  0
  -21.5609   -4.5405   10.8756 H   0  0  0  0  0  0  0  0  0  0  0  0
  -21.0564   -5.6929   12.1069 H   0  0  0  0  0  0  0  0  0  0  0  0
  -18.7347   -4.8059    8.5927 H   0  0  0  0  0  0  0  0  0  0  0  0
  -20.0184   -3.8605    8.8739 H   0  0  0  0  0  0  0  0  0  0  0  0
  -20.2947   -6.5293    7.7882 H   0  0  0  0  0  0  0  0  0  0  0  0
  -21.5915   -6.0161    8.6058 H   0  0  0  0  0  0  0  0  0  0  0  0
  -19.0365   -7.3729    9.7258 H   0  0  0  0  0  0  0  0  0  0  0  0
  -20.4501   -7.5365   10.4972 H   0  0  0  0  0  0  0  0  0  0  0  0
  -17.8106   -4.2729   10.9173 H   0  0  0  0  0  0  0  0  0  0  0  0
  -17.5717   -6.0024   10.8007 H   0  0  0  0  0  0  0  0  0  0  0  0
  1  2  2  0  0  0  0
  2  3  1  0  0  0  0
  2 51  1  0  0  0  0
  3  4  2  0  0  0  0
  3 52  1  0  0  0  0
  4 30  1  0  0  0  0
  4  5  1  0  0  0  0
  5  7  1  0  0  0  0
  5  6  2  0  0  0  0
  6  1  1  0  0  0  0
  6 53  1  0  0  0  0
  7  8  2  0  0  0  0
  8  9  1  0  0  0  0
  8 54  1  0  0  0  0
  9 10  2  0  0  0  0
  9 55  1  0  0  0  0
 10 11  1  0  0  0  0
 10 56  1  0  0  0  0
 11 12  1  0  0  0  0
 11 13  2  0  0  0  0
 13 14  1  0  0  0  0
 13  7  1  0  0  0  0
 14 15  1  0  0  0  0
 14 57  1  0  0  0  0
 15 16  1  0  0  0  0
 15 58  1  0  0  0  0
 15 59  1  0  0  0  0
 16 17  1  0  0  0  0
 16 60  1  0  0  0  0
 16 61  1  0  0  0  0
 17 14  1  0  0  0  0
 17 62  1  0  0  0  0
 17 63  1  0  0  0  0
 18 19  1  0  0  0  0
 18 20  1  0  0  0  0
 18  1  1  0  0  0  0
 19 64  1  0  0  0  0
 19 65  1  0  0  0  0
 19 66  1  0  0  0  0
 20 67  1  0  0  0  0
 20 68  1  0  0  0  0
 20 69  1  0  0  0  0
 21 22  1  0  0  0  0
 21 24  1  0  0  0  0
 22 23  2  0  0  0  0
 22 18  1  0  0  0  0
 25 26  2  0  0  0  0
 25 27  2  0  0  0  0
 25 21  1  0  0  0  0
 28 29  1  0  0  0  0
 28 70  1  0  0  0  0
 28 71  1  0  0  0  0
 28 72  1  0  0  0  0
 29 25  1  0  0  0  0
 29 73  1  0  0  0  0
 29 74  1  0  0  0  0
 30 31  1  0  0  0  0
 31 32  1  0  0  0  0
 31 75  1  6  0  0  0
 32 33  1  0  0  0  0
 32 76  1  0  0  0  0
 32 77  1  0  0  0  0
 33 34  1  0  0  0  0
 33 78  1  0  0  0  0
 33 79  1  0  0  0  0
 34 36  1  0  0  0  0
 34 35  1  0  0  0  0
 34 80  1  1  0  0  0
 35 31  1  0  0  0  0
 35 81  1  0  0  0  0
 35 82  1  0  0  0  0
 36 37  1  0  0  0  0
 36 39  1  0  0  0  0
 37 38  2  0  0  0  0
 37 40  1  0  0  0  0
 40 41  1  1  0  0  0
 40 42  1  0  0  0  0
 42 43  1  0  0  0  0
 42 83  1  0  0  0  0
 42 84  1  0  0  0  0
 43 44  1  0  0  0  0
 43 50  1  0  0  0  0
 44 45  1  0  0  0  0
 44 85  1  0  0  0  0
 44 86  1  0  0  0  0
 45 46  1  0  0  0  0
 45 49  1  0  0  0  0
 46 47  1  0  0  0  0
 46 87  1  0  0  0  0
 46 88  1  0  0  0  0
 47 48  1  0  0  0  0
 47 89  1  0  0  0  0
 47 90  1  0  0  0  0
 48 45  1  0  0  0  0
 48 91  1  0  0  0  0
 48 92  1  0  0  0  0
 49 40  1  0  0  0  0
 49 93  1  0  0  0  0
 49 94  1  0  0  0  0
M  END
>  <minimizedAffinity>
-7.95104

$$$$
