L3:Q92830:71683
     RDKit          3D

 94 99  0  0  0  0  0  0  0  0999 V2000
  -10.0541    2.0063    0.0931 C   0  0  0  0  0  0  0  0  0  0  0  0
   -9.0991    3.0327   -0.4815 C   0  0  0  0  0  0  0  0  0  0  0  0
   -8.0671    3.8046    0.7647 S   0  0  0  0  0  6  0  0  0  0  0  0
   -7.0198    4.5725    0.1305 O   0  0  0  0  0  0  0  0  0  0  0  0
   -8.9322    4.4231    1.7488 O   0  0  0  0  0  0  0  0  0  0  0  0
   -7.3621    2.5400    1.5715 N   0  0  0  0  0  0  0  0  0  0  0  0
   -6.4274    1.6616    0.9944 C   0  0  0  0  0  0  0  0  0  0  0  0
   -6.3569    1.5423   -0.2233 O   0  0  0  0  0  0  0  0  0  0  0  0
   -5.5727    0.7961    1.9598 C   0  0  0  0  0  0  0  0  0  0  0  0
   -5.5555    1.3268    3.4088 C   0  0  0  0  0  0  0  0  0  0  0  0
   -6.2682   -0.5820    1.9721 C   0  0  0  0  0  0  0  0  0  0  0  0
   -4.1074    0.7594    1.4790 C   0  0  0  0  0  0  0  0  0  0  0  0
   -3.4408    1.9650    1.1884 C   0  0  0  0  0  0  0  0  0  0  0  0
   -2.1136    1.9701    0.7588 C   0  0  0  0  0  0  0  0  0  0  0  0
   -1.4162    0.7713    0.6325 C   0  0  0  0  0  0  0  0  0  0  0  0
   -0.1265    0.8408    0.1715 O   0  0  0  0  0  0  0  0  0  0  0  0
    0.8264    0.7592    1.2398 C   0  0  2  0  0  0  0  0  0  0  0  0
    1.4638    2.1262    1.4739 C   0  0  0  0  0  0  0  0  0  0  0  0
    2.4986    2.2815    0.3586 C   0  0  0  0  0  0  0  0  0  0  0  0
    2.7634    0.8673   -0.1797 C   0  0  1  0  0  0  0  0  0  0  0  0
    4.1788    0.5502   -0.2579 N   0  0  0  0  0  0  0  0  0  0  0  0
    4.9837    1.0906   -1.2483 C   0  0  0  0  0  0  0  0  0  0  0  0
    4.5381    1.8761   -2.0834 O   0  0  0  0  0  0  0  0  0  0  0  0
    6.4661    0.6670   -1.2253 C   0  0  1  0  0  0  0  0  0  0  0  0
    7.1263    1.1691   -2.3213 F   0  0  0  0  0  0  0  0  0  0  0  0
    7.1603    1.2279    0.0398 C   0  0  0  0  0  0  0  0  0  0  0  0
    8.2820    0.4122    0.5591 N   0  0  0  0  0  0  0  0  0  0  0  0
    9.0088   -0.2155   -0.5486 C   0  0  0  0  0  0  0  0  0  0  0  0
    8.1177   -1.2272   -1.3009 C   0  0  0  0  0  0  0  0  0  0  0  0
    8.3650   -2.7233   -0.9224 C   0  0  0  0  0  0  0  0  0  0  0  0
    9.4096   -2.7878   -2.0521 C   0  0  0  0  0  0  0  0  0  0  0  0
    8.6833   -1.6009   -2.7108 C   0  0  0  0  0  0  0  0  0  0  0  0
    6.6220   -0.8555   -1.2840 C   0  0  0  0  0  0  0  0  0  0  0  0
    2.0129   -0.0736    0.7655 C   0  0  0  0  0  0  0  0  0  0  0  0
   -2.0446   -0.4582    0.8879 C   0  0  0  0  0  0  0  0  0  0  0  0
   -1.3575   -1.7520    0.7137 C   0  0  0  0  0  0  0  0  0  0  0  0
   -0.9897   -2.4690    1.8759 C   0  0  0  0  0  0  0  0  0  0  0  0
   -0.3103   -3.6804    1.7962 C   0  0  0  0  0  0  0  0  0  0  0  0
    0.0172   -4.1893    0.5501 C   0  0  0  0  0  0  0  0  0  0  0  0
   -0.3480   -3.4911   -0.6003 C   0  0  0  0  0  0  0  0  0  0  0  0
    0.0148   -4.0202   -1.7786 F   0  0  0  0  0  0  0  0  0  0  0  0
   -1.0586   -2.2717   -0.5780 C   0  0  0  0  0  0  0  0  0  0  0  0
   -1.4571   -1.5247   -1.9370 C   0  0  0  0  0  0  0  0  0  0  0  0
   -1.6497   -2.3560   -3.2451 C   0  0  0  0  0  0  0  0  0  0  0  0
   -2.7269   -1.3376   -3.6562 C   0  0  0  0  0  0  0  0  0  0  0  0
   -2.9373   -1.0759   -2.1539 C   0  0  0  0  0  0  0  0  0  0  0  0
   -3.3856   -0.4397    1.3268 C   0  0  0  0  0  0  0  0  0  0  0  0
   -9.5162    1.1689    0.5481 H   0  0  0  0  0  0  0  0  0  0  0  0
  -10.6963    1.6041   -0.6966 H   0  0  0  0  0  0  0  0  0  0  0  0
  -10.6966    2.4485    0.8611 H   0  0  0  0  0  0  0  0  0  0  0  0
   -9.6600    3.8440   -0.9575 H   0  0  0  0  0  0  0  0  0  0  0  0
   -8.4474    2.5877   -1.2375 H   0  0  0  0  0  0  0  0  0  0  0  0
   -7.5254    2.5925    2.5707 H   0  0  0  0  0  0  0  0  0  0  0  0
   -4.8618    0.7519    4.0348 H   0  0  0  0  0  0  0  0  0  0  0  0
   -5.2461    2.3778    3.4545 H   0  0  0  0  0  0  0  0  0  0  0  0
   -6.5426    1.2549    3.8796 H   0  0  0  0  0  0  0  0  0  0  0  0
   -5.8047   -1.2679    2.6901 H   0  0  0  0  0  0  0  0  0  0  0  0
   -7.3245   -0.4862    2.2522 H   0  0  0  0  0  0  0  0  0  0  0  0
   -6.2423   -1.0552    0.9831 H   0  0  0  0  0  0  0  0  0  0  0  0
   -3.9527    2.9233    1.2722 H   0  0  0  0  0  0  0  0  0  0  0  0
   -1.6291    2.9110    0.5130 H   0  0  0  0  0  0  0  0  0  0  0  0
    0.3969    0.3496    2.1625 H   0  0  0  0  0  0  0  0  0  0  0  0
    1.9751    2.1363    2.4439 H   0  0  0  0  0  0  0  0  0  0  0  0
    0.7426    2.9483    1.4570 H   0  0  0  0  0  0  0  0  0  0  0  0
    2.0972    2.9106   -0.4446 H   0  0  0  0  0  0  0  0  0  0  0  0
    3.4007    2.7751    0.7370 H   0  0  0  0  0  0  0  0  0  0  0  0
    2.3448    0.7855   -1.1913 H   0  0  0  0  0  0  0  0  0  0  0  0
    4.5721   -0.0767    0.4310 H   0  0  0  0  0  0  0  0  0  0  0  0
    7.5516    2.2257   -0.1927 H   0  0  0  0  0  0  0  0  0  0  0  0
    6.4531    1.3641    0.8654 H   0  0  0  0  0  0  0  0  0  0  0  0
    7.9362   -0.3144    1.1844 H   0  0  0  0  0  0  0  0  0  0  0  0
    9.9050   -0.7026   -0.1481 H   0  0  0  0  0  0  0  0  0  0  0  0
    9.3691    0.5663   -1.2292 H   0  0  0  0  0  0  0  0  0  0  0  0
    8.7477   -2.9135    0.0844 H   0  0  0  0  0  0  0  0  0  0  0  0
    7.5060   -3.3836   -1.0957 H   0  0  0  0  0  0  0  0  0  0  0  0
   10.4306   -2.5576   -1.7266 H   0  0  0  0  0  0  0  0  0  0  0  0
    9.4251   -3.7144   -2.6316 H   0  0  0  0  0  0  0  0  0  0  0  0
    9.3333   -0.8625   -3.1889 H   0  0  0  0  0  0  0  0  0  0  0  0
    7.9268   -1.9145   -3.4404 H   0  0  0  0  0  0  0  0  0  0  0  0
    6.1119   -1.2557   -2.1682 H   0  0  0  0  0  0  0  0  0  0  0  0
    6.1426   -1.3206   -0.4133 H   0  0  0  0  0  0  0  0  0  0  0  0
    2.6393   -0.3550    1.6211 H   0  0  0  0  0  0  0  0  0  0  0  0
    1.7140   -0.9881    0.2444 H   0  0  0  0  0  0  0  0  0  0  0  0
   -1.2294   -2.0646    2.8586 H   0  0  0  0  0  0  0  0  0  0  0  0
   -0.0338   -4.2167    2.6995 H   0  0  0  0  0  0  0  0  0  0  0  0
    0.5566   -5.1266    0.4550 H   0  0  0  0  0  0  0  0  0  0  0  0
   -0.7586   -0.6914   -2.1148 H   0  0  0  0  0  0  0  0  0  0  0  0
   -2.0489   -3.3661   -3.0951 H   0  0  0  0  0  0  0  0  0  0  0  0
   -0.7797   -2.4115   -3.9048 H   0  0  0  0  0  0  0  0  0  0  0  0
   -3.5871   -1.7432   -4.1943 H   0  0  0  0  0  0  0  0  0  0  0  0
   -2.3340   -0.4743   -4.2053 H   0  0  0  0  0  0  0  0  0  0  0  0
   -3.1710   -0.0388   -1.9004 H   0  0  0  0  0  0  0  0  0  0  0  0
   -3.6840   -1.7340   -1.6934 H   0  0  0  0  0  0  0  0  0  0  0  0
   -3.8601   -1.3987    1.5252 H   0  0  0  0  0  0  0  0  0  0  0  0
  1  2  1  0
  2  3  1  0
  3  4  2  0
  3  5  2  0
  3  6  1  0
  6  7  1  0
  7  8  2  0
  7  9  1  0
  9 10  1  0
  9 11  1  0
  9 12  1  0
 12 13  2  0
 13 14  1  0
 14 15  2  0
 15 16  1  0
 16 17  1  0
 17 18  1  0
 18 19  1  0
 19 20  1  0
 20 21  1  0
 21 22  1  0
 22 23  2  0
 22 24  1  0
 24 25  1  6
 24 26  1  0
 26 27  1  0
 27 28  1  0
 28 29  1  0
 29 30  1  0
 30 31  1  0
 31 32  1  0
 29 33  1  0
 20 34  1  0
 15 35  1  0
 35 36  1  0
 36 37  2  0
 37 38  1  0
 38 39  2  0
 39 40  1  0
 40 41  1  0
 40 42  2  0
 42 43  1  0
 43 44  1  0
 44 45  1  0
 45 46  1  0
 35 47  2  0
 47 12  1  0
 34 17  1  0
 42 36  1  0
 46 43  1  0
 33 24  1  0
 32 29  1  0
  1 48  1  0
  1 49  1  0
  1 50  1  0
  2 51  1  0
  2 52  1  0
  6 53  1  0
 10 54  1  0
 10 55  1  0
 10 56  1  0
 11 57  1  0
 11 58  1  0
 11 59  1  0
 13 60  1  0
 14 61  1  0
 17 62  1  1
 18 63  1  0
 18 64  1  0
 19 65  1  0
 19 66  1  0
 20 67  1  6
 21 68  1  0
 26 69  1  0
 26 70  1  0
 27 71  1  0
 28 72  1  0
 28 73  1  0
 30 74  1  0
 30 75  1  0
 31 76  1  0
 31 77  1  0
 32 78  1  0
 32 79  1  0
 33 80  1  0
 33 81  1  0
 34 82  1  0
 34 83  1  0
 37 84  1  0
 38 85  1  0
 39 86  1  0
 43 87  1  0
 44 88  1  0
 44 89  1  0
 45 90  1  0
 45 91  1  0
 46 92  1  0
 46 93  1  0
 47 94  1  0
M  END
>  <mol_id>  (1) 
71683

>  <source_index>  (1) 
6

>  <layer>  (1) 
L3

>  <uniprot>  (1) 
Q92830

>  <paff>  (1) 
10.3979

>  <smiles>  (1) 
CCS(=O)(=O)NC(=O)C(C)(C)c1ccc(O[C@@H]2CC[C@@H](NC(=O)[C@@]3(F)CNCC4(CCC4)C3)C2)c(-c2cccc(F)c2C2CCC2)c1

$$$$
