L3:Q92830:71683


 50 55  0  0  0  0  0  0  0  0999 V2000
   -9.5000   -6.2540   14.5142 C   0  0  0  0  0  0  0  0  0  0  0  0
   -9.8335   -4.9195   14.2134 C   0  0  0  0  0  0  0  0  0  0  0  0
  -10.9543   -4.3111   14.7787 C   0  0  0  0  0  0  0  0  0  0  0  0
  -11.7798   -5.0306   15.6391 C   0  0  0  0  0  0  0  0  0  0  0  0
  -11.4760   -6.3565   15.9880 C   0  0  0  0  0  0  0  0  0  0  0  0
  -10.3408   -6.9540   15.4001 C   0  0  0  0  0  0  0  0  0  0  0  0
  -12.2941   -7.1346   16.9375 C   0  0  0  0  0  0  0  0  0  0  0  0
  -12.0141   -7.0019   18.3174 C   0  0  0  0  0  0  0  0  0  0  0  0
  -12.7189   -7.7262   19.2734 C   0  0  0  0  0  0  0  0  0  0  0  0
  -13.7113   -8.6003   18.8611 C   0  0  0  0  0  0  0  0  0  0  0  0
  -13.9972   -8.7315   17.5026 C   0  0  0  0  0  0  0  0  0  0  0  0
  -14.9527   -9.6089   17.1601 F   0  0  0  0  0  0  0  0  0  0  0  0
  -13.3309   -8.0039   16.4932 C   0  0  0  0  0  0  0  0  0  0  0  0
  -13.7146   -8.1935   14.9503 C   0  0  0  0  0  0  0  0  0  0  0  0
  -13.4759   -9.5746   14.2612 C   0  0  0  0  0  0  0  0  0  0  0  0
  -14.7189   -9.2871   13.4017 C   0  0  0  0  0  0  0  0  0  0  0  0
  -15.2123   -8.3979   14.5573 C   0  0  0  0  0  0  0  0  0  0  0  0
   -8.2571   -6.8939   13.8620 C   0  0  0  0  0  0  0  0  0  0  0  0
   -7.1147   -6.8086   14.8960 C   0  0  0  0  0  0  0  0  0  0  0  0
   -7.7818   -6.1834   12.5765 C   0  0  0  0  0  0  0  0  0  0  0  0
   -7.9098   -9.3891   14.0793 N   0  0  0  0  0  0  0  0  0  0  0  0
   -8.5795   -8.3458   13.4150 C   0  0  0  0  0  0  0  0  0  0  0  0
   -9.3264   -8.5873   12.4739 O   0  0  0  0  0  0  0  0  0  0  0  0
   -7.2063   -9.2275   14.7913 H   0  0  0  0  0  0  0  0  0  0  0  0
   -8.3907  -10.9747   14.0371 S   0  0  0  0  0  0  0  0  0  0  0  0
   -7.5976  -11.7102   14.9957 O   0  0  0  0  0  0  0  0  0  0  0  0
   -8.3499  -11.3269   12.6323 O   0  0  0  0  0  0  0  0  0  0  0  0
  -10.2828  -10.4855   15.9900 C   0  0  0  0  0  0  0  0  0  0  0  0
  -10.1061  -10.9456   14.5573 C   0  0  0  0  0  0  0  0  0  0  0  0
  -12.8450   -4.3653   16.1898 O   0  0  0  0  0  0  0  0  0  0  0  0
  -13.4544   -3.4672   15.2528 C   0  0  0  0  0  0  0  0  0  0  0  0
  -14.3679   -2.4898   15.9876 C   0  0  0  0  0  0  0  0  0  0  0  0
  -15.6410   -3.2817   16.2894 C   0  0  0  0  0  0  0  0  0  0  0  0
  -15.6274   -4.4912   15.3425 C   0  0  0  0  0  0  0  0  0  0  0  0
  -14.4437   -4.2563   14.4014 C   0  0  0  0  0  0  0  0  0  0  0  0
  -16.8770   -4.6552   14.6201 N   0  0  0  0  0  0  0  0  0  0  0  0
  -16.9109   -5.2414   13.3647 C   0  0  0  0  0  0  0  0  0  0  0  0
  -15.8909   -5.6661   12.8242 O   0  0  0  0  0  0  0  0  0  0  0  0
  -17.7315   -4.3329   15.0539 H   0  0  0  0  0  0  0  0  0  0  0  0
  -18.2990   -5.3477   12.7019 C   0  0  0  0  0  0  0  0  0  0  0  0
  -18.8653   -6.5718   12.9668 F   0  0  0  0  0  0  0  0  0  0  0  0
  -19.2439   -4.2598   13.2682 C   0  0  0  0  0  0  0  0  0  0  0  0
  -20.2900   -3.7833   12.3344 N   0  0  0  0  0  0  0  0  0  0  0  0
  -20.7469   -4.8832   11.4796 C   0  0  0  0  0  0  0  0  0  0  0  0
  -19.6135   -5.3847   10.5590 C   0  0  0  0  0  0  0  0  0  0  0  0
  -19.6804   -4.8522    9.0911 C   0  0  0  0  0  0  0  0  0  0  0  0
  -20.5312   -6.0847    8.7323 C   0  0  0  0  0  0  0  0  0  0  0  0
  -19.9087   -6.7945    9.9484 C   0  0  0  0  0  0  0  0  0  0  0  0
  -18.2102   -5.2308   11.1774 C   0  0  0  0  0  0  0  0  0  0  0  0
  -19.9297   -3.0327   11.7468 H   0  0  0  0  0  0  0  0  0  0  0  0
 28 29  1  0  0  0
 29 25  1  0  0  0
 25 26  2  0  0  0
 25 27  2  0  0  0
 25 21  1  0  0  0
 21 22  1  0  0  0
 22 23  2  0  0  0
 22 18  1  0  0  0
 18 19  1  0  0  0
 18 20  1  0  0  0
 18  1  1  0  0  0
  1  2  2  0  0  0
  2  3  1  0  0  0
  3  4  2  0  0  0
  4 30  1  0  0  0
 30 31  1  0  0  0
 31 32  1  0  0  0
 32 33  1  0  0  0
 33 34  1  0  0  0
 34 36  1  0  0  0
 36 37  1  0  0  0
 37 38  2  0  0  0
 37 40  1  0  0  0
 40 41  1  0  0  0
 40 42  1  0  0  0
 42 43  1  0  0  0
 43 44  1  0  0  0
 44 45  1  0  0  0
 45 46  1  0  0  0
 46 47  1  0  0  0
 47 48  1  0  0  0
 45 49  1  0  0  0
 34 35  1  0  0  0
  4  5  1  0  0  0
  5  7  1  0  0  0
  7  8  2  0  0  0
  8  9  1  0  0  0
  9 10  2  0  0  0
 10 11  1  0  0  0
 11 12  1  0  0  0
 11 13  2  0  0  0
 13 14  1  0  0  0
 14 15  1  0  0  0
 15 16  1  0  0  0
 16 17  1  0  0  0
  5  6  2  0  0  0
  6  1  1  0  0  0
 35 31  1  0  0  0
 13  7  1  0  0  0
 17 14  1  0  0  0
 49 40  1  0  0  0
 48 45  1  0  0  0
 21 24  1  0  0  0
 36 39  1  0  0  0
 43 50  1  0  0  0
M  END
> <minimizedAffinity>
-7.95104

$$$$
