L3:Q92830:78328


 46 50  0  0  0  0  0  0  0  0999 V2000
  -20.6090   -9.9748    8.7780 C   0  0  0  0  0  0  0  0  0  0  0  0
  -19.9982   -8.9068    9.4585 C   0  0  0  0  0  0  0  0  0  0  0  0
  -20.1941   -7.5726    9.0612 C   0  0  0  0  0  0  0  0  0  0  0  0
  -20.9769   -7.3035    7.9337 C   0  0  0  0  0  0  0  0  0  0  0  0
  -21.5921   -8.3475    7.2463 C   0  0  0  0  0  0  0  0  0  0  0  0
  -21.4425   -9.6638    7.6880 C   0  0  0  0  0  0  0  0  0  0  0  0
  -21.2650  -12.0248   10.1401 C   0  0  0  0  0  0  0  0  0  0  0  0
  -20.9455  -13.3392   10.5422 C   0  0  0  0  0  0  0  0  0  0  0  0
  -19.7968  -13.9840   10.0835 C   0  0  0  0  0  0  0  0  0  0  0  0
  -18.9453  -13.3340    9.2019 C   0  0  0  0  0  0  0  0  0  0  0  0
  -19.2413  -12.0365    8.7882 C   0  0  0  0  0  0  0  0  0  0  0  0
  -20.3880  -11.3550    9.2523 C   0  0  0  0  0  0  0  0  0  0  0  0
  -23.7501  -11.8002    9.7714 C   0  0  0  0  0  0  0  0  0  0  0  0
  -22.5585  -11.3893   10.6433 C   0  0  0  0  0  0  0  0  0  0  0  0
  -22.8238  -11.7160   12.1168 C   0  0  0  0  0  0  0  0  0  0  0  0
  -19.6194   -6.4480    9.8900 C   0  0  0  0  0  0  0  0  0  0  0  0
  -20.6854   -5.5798   10.5397 C   0  0  0  0  0  0  0  0  0  0  0  0
  -21.6748   -5.1986    9.9274 O   0  0  0  0  0  0  0  0  0  0  0  0
  -20.5146   -5.3205   11.9130 N   0  0  0  0  0  0  0  0  0  0  0  0
  -19.6994   -5.6802   12.4050 H   0  0  0  0  0  0  0  0  0  0  0  0
  -21.1918   -4.0286   12.7006 S   0  0  0  0  0  0  0  0  0  0  0  0
  -22.5615   -4.3701   13.0136 O   0  0  0  0  0  0  0  0  0  0  0  0
  -20.9007   -2.8907   11.8508 O   0  0  0  0  0  0  0  0  0  0  0  0
  -20.2236   -3.8784   14.2230 C   0  0  0  0  0  0  0  0  0  0  0  0
  -18.8417   -4.5045   14.0720 C   0  0  0  0  0  0  0  0  0  0  0  0
  -20.1139   -2.4078   14.6161 C   0  0  0  0  0  0  0  0  0  0  0  0
  -22.1020  -10.6331    6.9738 O   0  0  0  0  0  0  0  0  0  0  0  0
  -21.5205  -10.8055    5.6795 C   0  0  0  0  0  0  0  0  0  0  0  0
  -22.6225  -10.8548    4.6147 C   0  0  0  0  0  0  0  0  0  0  0  0
  -22.2699  -12.0201    3.6855 C   0  0  0  0  0  0  0  0  0  0  0  0
  -20.8458  -12.4288    4.0593 C   0  0  0  0  0  0  0  0  0  0  0  0
  -20.8061  -12.1512    5.5578 C   0  0  0  0  0  0  0  0  0  0  0  0
  -19.8633  -11.6426    3.3323 N   0  0  0  0  0  0  0  0  0  0  0  0
  -18.5415  -11.5481    3.7230 C   0  0  0  0  0  0  0  0  0  0  0  0
  -18.0913  -12.1108    4.7174 O   0  0  0  0  0  0  0  0  0  0  0  0
  -20.1279  -11.1429    2.4854 H   0  0  0  0  0  0  0  0  0  0  0  0
  -17.7076  -10.6740    2.7897 C   0  0  0  0  0  0  0  0  0  0  0  0
  -16.3972  -11.0810    2.7643 F   0  0  0  0  0  0  0  0  0  0  0  0
  -18.2653  -10.6687    1.3659 C   0  0  0  0  0  0  0  0  0  0  0  0
  -17.8934   -9.3713    0.7505 N   0  0  0  0  0  0  0  0  0  0  0  0
  -17.4255   -8.5325    1.8619 C   0  0  0  0  0  0  0  0  0  0  0  0
  -17.7932   -7.0472    1.6195 C   0  0  0  0  0  0  0  0  0  0  0  0
  -16.3389   -6.7053    2.0200 C   0  0  0  0  0  0  0  0  0  0  0  0
  -15.9514   -8.1322    1.5694 C   0  0  0  0  0  0  0  0  0  0  0  0
  -17.7478   -9.2072    3.1774 C   0  0  0  0  0  0  0  0  0  0  0  0
  -18.6912   -9.0175    0.2221 H   0  0  0  0  0  0  0  0  0  0  0  0
 13 14  1  0  0  0
 14 15  1  0  0  0
 14  7  1  0  0  0
  7  8  2  0  0  0
  8  9  1  0  0  0
  9 10  2  0  0  0
 10 11  1  0  0  0
 11 12  2  0  0  0
 12  1  1  0  0  0
  1  2  2  0  0  0
  2  3  1  0  0  0
  3 16  1  0  0  0
 16 17  1  0  0  0
 17 18  2  0  0  0
 17 19  1  0  0  0
 19 21  1  0  0  0
 21 22  2  0  0  0
 21 23  2  0  0  0
 21 24  1  0  0  0
 24 25  1  0  0  0
 24 26  1  0  0  0
  3  4  2  0  0  0
  4  5  1  0  0  0
  5  6  2  0  0  0
  6 27  1  0  0  0
 27 28  1  0  0  0
 28 29  1  0  0  0
 29 30  1  0  0  0
 30 31  1  0  0  0
 31 33  1  0  0  0
 33 34  1  0  0  0
 34 35  2  0  0  0
 34 37  1  0  0  0
 37 38  1  0  0  0
 37 39  1  0  0  0
 39 40  1  0  0  0
 40 41  1  0  0  0
 41 42  1  0  0  0
 42 43  1  0  0  0
 43 44  1  0  0  0
 41 45  1  0  0  0
 31 32  1  0  0  0
 12  7  1  0  0  0
  6  1  1  0  0  0
 32 28  1  0  0  0
 45 37  1  0  0  0
 44 41  1  0  0  0
 19 20  1  0  0  0
 33 36  1  0  0  0
 40 46  1  0  0  0
M  END
> <minimizedAffinity>
-8.29394

$$$$
