L3:Q92830:78328
 OpenBabel09212617523D

 87 91  0  0  0  0  0  0  0  0999 V2000
  -20.6090   -9.9748    8.7780 C   0  0  0  0  0  0  0  0  0  0  0  0
  -19.9982   -8.9068    9.4585 C   0  0  0  0  0  0  0  0  0  0  0  0
  -20.1941   -7.5726    9.0612 C   0  0  0  0  0  0  0  0  0  0  0  0
  -20.9769   -7.3035    7.9337 C   0  0  0  0  0  0  0  0  0  0  0  0
  -21.5921   -8.3475    7.2463 C   0  0  0  0  0  0  0  0  0  0  0  0
  -21.4425   -9.6638    7.6880 C   0  0  0  0  0  0  0  0  0  0  0  0
  -21.2650  -12.0248   10.1401 C   0  0  0  0  0  0  0  0  0  0  0  0
  -20.9455  -13.3392   10.5422 C   0  0  0  0  0  0  0  0  0  0  0  0
  -19.7968  -13.9840   10.0835 C   0  0  0  0  0  0  0  0  0  0  0  0
  -18.9453  -13.3340    9.2019 C   0  0  0  0  0  0  0  0  0  0  0  0
  -19.2413  -12.0365    8.7882 C   0  0  0  0  0  0  0  0  0  0  0  0
  -20.3880  -11.3550    9.2523 C   0  0  0  0  0  0  0  0  0  0  0  0
  -23.7501  -11.8002    9.7714 C   0  0  0  0  0  0  0  0  0  0  0  0
  -22.5585  -11.3893   10.6433 C   0  0  0  0  0  0  0  0  0  0  0  0
  -22.8238  -11.7160   12.1168 C   0  0  0  0  0  0  0  0  0  0  0  0
  -19.6194   -6.4480    9.8900 C   0  0  0  0  0  0  0  0  0  0  0  0
  -20.6854   -5.5798   10.5397 C   0  0  0  0  0  0  0  0  0  0  0  0
  -21.6748   -5.1986    9.9274 O   0  0  0  0  0  0  0  0  0  0  0  0
  -20.5146   -5.3205   11.9130 N   0  0  0  0  0  0  0  0  0  0  0  0
  -19.6994   -5.6802   12.4050 H   0  0  0  0  0  0  0  0  0  0  0  0
  -21.1918   -4.0286   12.7006 S   0  0  0  0  0  0  0  0  0  0  0  0
  -22.5615   -4.3701   13.0136 O   0  0  0  0  0  0  0  0  0  0  0  0
  -20.9007   -2.8907   11.8508 O   0  0  0  0  0  0  0  0  0  0  0  0
  -20.2236   -3.8784   14.2230 C   0  0  0  0  0  0  0  0  0  0  0  0
  -18.8417   -4.5045   14.0720 C   0  0  0  0  0  0  0  0  0  0  0  0
  -20.1139   -2.4078   14.6161 C   0  0  0  0  0  0  0  0  0  0  0  0
  -22.1020  -10.6331    6.9738 O   0  0  0  0  0  0  0  0  0  0  0  0
  -21.5205  -10.8055    5.6795 C   0  0  2  0  0  0  0  0  0  0  0  0
  -22.6225  -10.8548    4.6147 C   0  0  0  0  0  0  0  0  0  0  0  0
  -22.2699  -12.0201    3.6855 C   0  0  0  0  0  0  0  0  0  0  0  0
  -20.8458  -12.4288    4.0593 C   0  0  2  0  0  0  0  0  0  0  0  0
  -20.8061  -12.1512    5.5578 C   0  0  0  0  0  0  0  0  0  0  0  0
  -19.8633  -11.6426    3.3323 N   0  0  0  0  0  0  0  0  0  0  0  0
  -18.5415  -11.5481    3.7230 C   0  0  0  0  0  0  0  0  0  0  0  0
  -18.0913  -12.1108    4.7174 O   0  0  0  0  0  0  0  0  0  0  0  0
  -20.1279  -11.1429    2.4854 H   0  0  0  0  0  0  0  0  0  0  0  0
  -17.7076  -10.6740    2.7897 C   0  0  1  0  0  0  0  0  0  0  0  0
  -16.3972  -11.0810    2.7643 F   0  0  0  0  0  0  0  0  0  0  0  0
  -18.2653  -10.6687    1.3659 C   0  0  0  0  0  0  0  0  0  0  0  0
  -17.8934   -9.3713    0.7505 N   0  0  0  0  0  0  0  0  0  0  0  0
  -17.4255   -8.5325    1.8619 C   0  0  0  0  0  0  0  0  0  0  0  0
  -17.7932   -7.0472    1.6195 C   0  0  0  0  0  0  0  0  0  0  0  0
  -16.3389   -6.7053    2.0200 C   0  0  0  0  0  0  0  0  0  0  0  0
  -15.9514   -8.1322    1.5694 C   0  0  0  0  0  0  0  0  0  0  0  0
  -17.7478   -9.2072    3.1774 C   0  0  0  0  0  0  0  0  0  0  0  0
  -18.6912   -9.0175    0.2221 H   0  0  0  0  0  0  0  0  0  0  0  0
  -19.3916   -9.1071   10.2690 H   0  0  0  0  0  0  0  0  0  0  0  0
  -21.0988   -6.3309    7.6108 H   0  0  0  0  0  0  0  0  0  0  0  0
  -22.1601   -8.1475    6.4082 H   0  0  0  0  0  0  0  0  0  0  0  0
  -21.5766  -13.8351   11.1909 H   0  0  0  0  0  0  0  0  0  0  0  0
  -19.5808  -14.9425   10.3992 H   0  0  0  0  0  0  0  0  0  0  0  0
  -18.0974  -13.8087    8.8544 H   0  0  0  0  0  0  0  0  0  0  0  0
  -18.6071  -11.5621    8.1266 H   0  0  0  0  0  0  0  0  0  0  0  0
  -24.6412  -11.3415   10.1461 H   0  0  0  0  0  0  0  0  0  0  0  0
  -23.8595  -12.8643    9.7955 H   0  0  0  0  0  0  0  0  0  0  0  0
  -23.5815  -11.4817    8.7639 H   0  0  0  0  0  0  0  0  0  0  0  0
  -22.4365  -10.3289   10.5689 H   0  0  0  0  0  0  0  0  0  0  0  0
  -22.9515  -12.7722   12.2305 H   0  0  0  0  0  0  0  0  0  0  0  0
  -23.7111  -11.2126   12.4396 H   0  0  0  0  0  0  0  0  0  0  0  0
  -21.9940  -11.3912   12.7091 H   0  0  0  0  0  0  0  0  0  0  0  0
  -19.0177   -5.8309    9.2559 H   0  0  0  0  0  0  0  0  0  0  0  0
  -19.0470   -6.8925   10.6772 H   0  0  0  0  0  0  0  0  0  0  0  0
  -20.7285   -4.4135   14.9999 H   0  0  0  0  0  0  0  0  0  0  0  0
  -18.3019   -3.9955   13.3010 H   0  0  0  0  0  0  0  0  0  0  0  0
  -18.9446   -5.5376   13.8130 H   0  0  0  0  0  0  0  0  0  0  0  0
  -18.3088   -4.4198   14.9960 H   0  0  0  0  0  0  0  0  0  0  0  0
  -19.6094   -1.8683   13.8419 H   0  0  0  0  0  0  0  0  0  0  0  0
  -19.5613   -2.3227   15.5284 H   0  0  0  0  0  0  0  0  0  0  0  0
  -21.0941   -2.0013   14.7536 H   0  0  0  0  0  0  0  0  0  0  0  0
  -20.8421   -9.9892    5.5441 H   0  0  0  0  0  0  0  0  0  0  0  0
  -22.6480   -9.9371    4.0650 H   0  0  0  0  0  0  0  0  0  0  0  0
  -23.5868  -10.9892    5.0586 H   0  0  0  0  0  0  0  0  0  0  0  0
  -22.3125  -11.7082    2.6629 H   0  0  0  0  0  0  0  0  0  0  0  0
  -22.9562  -12.8339    3.7937 H   0  0  0  0  0  0  0  0  0  0  0  0
  -20.6103  -13.4437    3.8154 H   0  0  0  0  0  0  0  0  0  0  0  0
  -19.7978  -12.0841    5.9095 H   0  0  0  0  0  0  0  0  0  0  0  0
  -21.2618  -12.9238    6.1411 H   0  0  0  0  0  0  0  0  0  0  0  0
  -19.3302  -10.7707    1.3895 H   0  0  0  0  0  0  0  0  0  0  0  0
  -17.8661  -11.4843    0.8000 H   0  0  0  0  0  0  0  0  0  0  0  0
  -18.5422   -6.6580    2.2771 H   0  0  0  0  0  0  0  0  0  0  0  0
  -18.2207   -6.7124    0.6975 H   0  0  0  0  0  0  0  0  0  0  0  0
  -16.1968   -6.5126    3.0629 H   0  0  0  0  0  0  0  0  0  0  0  0
  -15.8389   -5.8394    1.6390 H   0  0  0  0  0  0  0  0  0  0  0  0
  -15.2241   -8.6159    2.1875 H   0  0  0  0  0  0  0  0  0  0  0  0
  -15.4876   -8.3233    0.6243 H   0  0  0  0  0  0  0  0  0  0  0  0
  -18.7163   -8.9244    3.5336 H   0  0  0  0  0  0  0  0  0  0  0  0
  -17.0795   -8.9499    3.9724 H   0  0  0  0  0  0  0  0  0  0  0  0
  1  2  2  0  0  0  0
  2  3  1  0  0  0  0
  2 47  1  0  0  0  0
  3 16  1  0  0  0  0
  3  4  2  0  0  0  0
  4  5  1  0  0  0  0
  4 48  1  0  0  0  0
  5  6  2  0  0  0  0
  5 49  1  0  0  0  0
  6 27  1  0  0  0  0
  6  1  1  0  0  0  0
  7  8  2  0  0  0  0
  8  9  1  0  0  0  0
  8 50  1  0  0  0  0
  9 10  2  0  0  0  0
  9 51  1  0  0  0  0
 10 11  1  0  0  0  0
 10 52  1  0  0  0  0
 11 12  2  0  0  0  0
 11 53  1  0  0  0  0
 12  1  1  0  0  0  0
 12  7  1  0  0  0  0
 13 14  1  0  0  0  0
 13 54  1  0  0  0  0
 13 55  1  0  0  0  0
 13 56  1  0  0  0  0
 14 15  1  0  0  0  0
 14  7  1  0  0  0  0
 14 57  1  0  0  0  0
 15 58  1  0  0  0  0
 15 59  1  0  0  0  0
 15 60  1  0  0  0  0
 16 17  1  0  0  0  0
 16 61  1  0  0  0  0
 16 62  1  0  0  0  0
 17 18  2  0  0  0  0
 17 19  1  0  0  0  0
 19 21  1  0  0  0  0
 19 20  1  0  0  0  0
 21 22  2  0  0  0  0
 21 23  2  0  0  0  0
 21 24  1  0  0  0  0
 24 25  1  0  0  0  0
 24 26  1  0  0  0  0
 24 63  1  0  0  0  0
 25 64  1  0  0  0  0
 25 65  1  0  0  0  0
 25 66  1  0  0  0  0
 26 67  1  0  0  0  0
 26 68  1  0  0  0  0
 26 69  1  0  0  0  0
 27 28  1  0  0  0  0
 28 29  1  0  0  0  0
 28 70  1  6  0  0  0
 29 30  1  0  0  0  0
 29 71  1  0  0  0  0
 29 72  1  0  0  0  0
 30 31  1  0  0  0  0
 30 73  1  0  0  0  0
 30 74  1  0  0  0  0
 31 33  1  0  0  0  0
 31 32  1  0  0  0  0
 31 75  1  6  0  0  0
 32 28  1  0  0  0  0
 32 76  1  0  0  0  0
 32 77  1  0  0  0  0
 33 34  1  0  0  0  0
 33 36  1  0  0  0  0
 34 35  2  0  0  0  0
 34 37  1  0  0  0  0
 37 38  1  6  0  0  0
 37 39  1  0  0  0  0
 39 40  1  0  0  0  0
 39 78  1  0  0  0  0
 39 79  1  0  0  0  0
 40 41  1  0  0  0  0
 40 46  1  0  0  0  0
 41 42  1  0  0  0  0
 41 45  1  0  0  0  0
 42 43  1  0  0  0  0
 42 80  1  0  0  0  0
 42 81  1  0  0  0  0
 43 44  1  0  0  0  0
 43 82  1  0  0  0  0
 43 83  1  0  0  0  0
 44 41  1  0  0  0  0
 44 84  1  0  0  0  0
 44 85  1  0  0  0  0
 45 37  1  0  0  0  0
 45 86  1  0  0  0  0
 45 87  1  0  0  0  0
M  END
>  <minimizedAffinity>
-8.29394

$$$$
